data_PCOD9523012
_publ_section_title
;
Structure prediction by ZEFSAII (Michael W. Deem and Ramdas Pophale) SiO2 
 PCOD9523012
Probable space group: I M M M
;
_chemical_formula_sum "Si O2"
_cell_formula_units_Z 116
_cell_length_a 27.428996
_cell_length_b 24.644204
_cell_length_c 7.507200
_cell_angle_alpha 90.000000
_cell_angle_beta 90.000000
_cell_angle_gamma 90.000000
_cell_volume 5074.610251
_symmetry_space_group_name_H-M "I M M M"
_symmetry_group_IT_number 71
_symmetry_cell_setting 'orthorhombic'
loop_
_space_group_symop_operation_xyz
x,y,z
-x,-y,z
x,-y,-z
-x,y,-z
-x,-y,-z
x,y,-z
-x,y,z
x,-y,z
1/2+x,1/2+y,1/2+z
1/2-x,1/2-y,1/2+z
1/2+x,1/2-y,1/2-z
1/2-x,1/2+y,1/2-z
1/2-x,1/2-y,1/2-z
1/2+x,1/2+y,1/2-z
1/2-x,1/2+y,1/2+z
1/2+x,1/2-y,1/2+z
loop_
_atom_site_type_symbol
_atom_site_label
_atom_site_fract_x
_atom_site_fract_y
_atom_site_fract_z
Si Si1 0.899527 0.220389 0.206815
Si Si2 0.196631 0.271725 0.213766
Si Si3 0.078324 0.896853 0.783944
Si Si4 0.186627 0.938337 0.786560
Si Si5 0.112044 0.441575 0.293639
Si Si6 0.556059 0.836248 0.214893
Si Si7 0.500000 0.568532 0.000000
Si Si8 0.291556 0.892375 0.290431
O O1 0.846320 0.233663 0.285941
O O2 0.927013 0.166890 0.271640
O O3 0.927673 0.277142 0.219214
O O4 0.891315 0.206851 0.000000
O O5 0.250000 0.250000 0.250000
O O6 0.194733 0.333076 0.283269
O O7 0.190309 0.274508 0.000000
O O8 0.134547 0.912100 0.743579
O O9 0.042263 0.929602 0.658003
O O10 0.069879 0.903996 0.000000
O O11 0.234880 0.905606 0.733858
O O12 0.189507 0.000000 0.717405
O O13 0.187940 0.940701 0.000000
O O14 0.096443 0.442744 0.500000
O O15 0.098628 0.500000 0.213854
O O16 0.088413 0.386631 0.217737
O O17 0.170363 0.434653 0.289131
O O18 0.500000 0.846084 0.261119
O O19 0.560374 0.833511 0.000000
O O20 0.301119 0.892559 0.500000
#
# Coordination Sequence:
#
# PCOD9523012 Si02
#       8
#    16  16  16  16  16  16   4  16
#     4  10  21  39  60  85 124 164 201 253 316 381
#     4  10  21  36  55  84 121 161 200 247 308 372
#     4  10  24  44  67  99 133 170 219 272 328 389
#     4  10  22  43  68  92 126 169 212 261 319 388
#     4  10  21  38  58  83 118 161 207 256 317 381
#     4  10  22  37  58  87 116 155 209 264 313 373
#     4  12  26  44  73 100 132 176 217 274 330 398
#     4  11  22  36  58  91 126 160 206 258 313 377
#
# _framework density 22.858898
#
# number of rings (size 3 to 8) (size 9 to 14) (size 15 to 20)
#    0.000    1.793    1.379    1.862    2.897    5.517 
#    0.000    2.069    0.000    1.655    0.000    1.931 
#    0.000    0.000    0.000    0.000    0.000    0.000 
#
# Total GULP energy -323500.660153 kJ/mol
# GULP energy per Si atom -5577.597589 kJ/mol
# Density = 2.280687 g / cm^3
# Si number density = 22.858898 Si / 1000 Ang^3
#
#
#
# Elastic Constant Matrix: (Units=GPa)
#
#
# Indices 1 2 3 4 5 6 
#
# 1 97.0802 -0.2859 11.7270 0.0000 0.0000 0.0000
# 2 -0.2859 71.6893 4.9594 0.0000 0.0000 0.0000
# 3 11.7270 4.9594 81.0938 0.0000 0.0000 0.0000
# 4 0.0000 0.0000 0.0000 15.8683 0.0000 0.0000
# 5 0.0000 0.0000 0.0000 0.0000 129.9700 0.0000
# 6 0.0000 0.0000 0.0000 0.0000 0.0000 -18.3882
#
#
#
# Elastic Compliance Matrix: (Units=1/GPa)
#
#
# Indices 1 2 3 4 5 6 
#
# 1 0.010485 0.000147 -0.001525 0.000000 0.000000 0.000000
# 2 0.000147 0.014010 -0.000878 0.000000 0.000000 0.000000
# 3 -0.001525 -0.000878 0.012606 0.000000 0.000000 0.000000
# 4 0.000000 0.000000 0.000000 0.063019 0.000000 0.000000
# 5 0.000000 0.000000 0.000000 0.000000 0.007694 0.000000
# 6 0.000000 0.000000 0.000000 0.000000 0.000000 -0.054383
#
#
# Mechanical properties :
#
#
# Convention : Reuss Voigt Hill
#
# Bulk Modulus (GPa) = 30.68490 31.40715 31.04602
# Shear Modulus (GPa) = 72.66714 41.05422 56.86068
#
# Velocity S-wave (km/s) = 5.64433 4.24250 4.99286
# Velocity P-wave (km/s) = 7.47868 6.14555 6.84465
#
# Compressibility (1/GPa) = 0.03258932
#
# Stress axis : x y z
#
# Youngs Moduli (GPa) = 95.37028 71.37544 79.32936
#
# Poissons Ratio (x) = -0.01052 0.12100
# Poissons Ratio (y) = -0.01405 0.06966
# Poissons Ratio (z) = 0.14547 0.06268
#
# Static dielectric constant tensor:
#      x y z
#    x 1.818310 0.000000 0.000000 
#    y 0.000000 1.901480 0.000000 
#    z 0.000000 0.000000 1.864380 
# 
# From -- ./inp_files/13411.got.cif
#   From: 2010.05.17/outbox.cif.g08.bks.cpg/sg71_7_cif.got.tgz:13411.got - 2010.06.03 16:22:01.
