data_PCOD9523593
_publ_section_title
;
Structure prediction by ZEFSAII (Michael W. Deem and Ramdas Pophale) SiO2 
 PCOD9523593
Probable space group: I M M M
;
_chemical_formula_sum "Si O2"
_cell_formula_units_Z 50
_cell_length_a 11.583658
_cell_length_b 19.346771
_cell_length_c 13.546446
_cell_angle_alpha 90.000000
_cell_angle_beta 90.000000
_cell_angle_gamma 90.000000
_cell_volume 3035.844957
_symmetry_space_group_name_H-M "I M M M"
_symmetry_group_IT_number 71
_symmetry_cell_setting 'orthorhombic'
loop_
_space_group_symop_operation_xyz
x,y,z
-x,-y,z
x,-y,-z
-x,y,-z
-x,-y,-z
x,y,-z
-x,y,z
x,-y,z
1/2+x,1/2+y,1/2+z
1/2-x,1/2-y,1/2+z
1/2+x,1/2-y,1/2-z
1/2-x,1/2+y,1/2-z
1/2-x,1/2-y,1/2-z
1/2+x,1/2+y,1/2-z
1/2-x,1/2+y,1/2+z
1/2+x,1/2-y,1/2+z
loop_
_atom_site_type_symbol
_atom_site_label
_atom_site_fract_x
_atom_site_fract_y
_atom_site_fract_z
Si Si1 0.229995 0.137607 0.280876
Si Si2 0.500000 0.418295 0.882177
Si Si3 0.000000 0.500000 0.000000
Si Si4 0.127017 0.500000 0.792993
Si Si5 0.862019 0.762373 0.883561
O O1 0.193893 0.176448 0.180563
O O2 0.305303 0.191528 0.344680
O O3 0.113546 0.116978 0.337815
O O4 0.303127 0.068375 0.266064
O O5 0.500000 0.500000 0.857177
O O6 0.500000 0.411962 0.000000
O O7 0.900930 0.500000 0.088924
O O8 0.000000 0.500000 0.745374
O O9 0.000000 0.760480 0.866948
O O10 0.841694 0.770328 0.000000
#
# Coordination Sequence:
#
# PCOD9523593 Si02
#       5
#    16   8   2   8  16
#     4  11  21  37  57  84 116 145 188 235 282 334
#     4  11  22  32  54  85 118 148 175 229 297 341
#     4   8  24  32  56  98 106 148 188 222 298 332
#     4  10  22  35  59  85 112 139 187 232 283 333
#     4  10  22  38  59  81 112 153 194 230 274 332
#
# _framework density 16.469878999999999
#
# number of rings (size 3 to 8) (size 9 to 14) (size 15 to 20)
#    0.480    1.120    3.200    1.920    4.480    0.000 
#    0.000    0.800    0.000    3.840    0.000    0.000 
#    0.000    0.000    0.000    0.000    0.000    0.000 
#
# Total GULP energy -139236.111902 kJ/mol
# GULP energy per Si atom -5569.444476 kJ/mol
# Density = 1.643239 g / cm^3
# Si number density = 16.469879 Si / 1000 Ang^3
#
#
#
# Elastic Constant Matrix: (Units=GPa)
#
#
# Indices 1 2 3 4 5 6 
#
# 1 137.9001 88.5708 65.6014 0.0000 0.0000 0.0000
# 2 88.5708 163.1249 75.2257 0.0000 0.0000 0.0000
# 3 65.6014 75.2257 105.5901 0.0000 0.0000 0.0000
# 4 0.0000 0.0000 0.0000 11.1525 0.0000 0.0000
# 5 0.0000 0.0000 0.0000 0.0000 28.2623 0.0000
# 6 0.0000 0.0000 0.0000 0.0000 0.0000 23.2628
#
#
#
# Elastic Compliance Matrix: (Units=1/GPa)
#
#
# Indices 1 2 3 4 5 6 
#
# 1 0.012321 -0.004706 -0.004302 0.000000 0.000000 0.000000
# 2 -0.004706 0.010927 -0.004861 0.000000 0.000000 0.000000
# 3 -0.004302 -0.004861 0.015607 0.000000 0.000000 0.000000
# 4 0.000000 0.000000 0.000000 0.089666 0.000000 0.000000
# 5 0.000000 0.000000 0.000000 0.000000 0.035383 0.000000
# 6 0.000000 0.000000 0.000000 0.000000 0.000000 0.042987
#
#
# Mechanical properties :
#
#
# Convention : Reuss Voigt Hill
#
# Bulk Modulus (GPa) = 89.95769 96.15675 93.05722
# Shear Modulus (GPa) = 20.97898 24.35000 22.66449
#
# Velocity S-wave (km/s) = 3.57288 3.84924 3.71363
# Velocity P-wave (km/s) = 8.47105 8.84679 8.66096
#
# Compressibility (1/GPa) = 0.01111634
#
# Stress axis : x y z
#
# Youngs Moduli (GPa) = 81.16495 91.51596 64.07515
#
# Poissons Ratio (x) = 0.43065 0.27566
# Poissons Ratio (y) = 0.38194 0.31148
# Poissons Ratio (z) = 0.34918 0.44488
#
# Static dielectric constant tensor:
#      x y z
#    x 1.549180 0.000000 0.000000 
#    y 0.000000 1.539370 0.000000 
#    z 0.000000 0.000000 1.521540 
# 
# From -- ./inp_files/32174.got.cif
#   From: 2010.05.17/outbox.cif.g08.bks.cpg/sg71_17_cif.got.tgz:32174.got - 2010.06.03 16:22:01.
