data_PCOD9523122
_publ_section_title
;
Structure prediction by ZEFSAII (Michael W. Deem and Ramdas Pophale) SiO2 
 PCOD9523122
Probable space group: I M M M
;
_chemical_formula_sum "Si O2"
_cell_formula_units_Z 104
_cell_length_a 8.408387
_cell_length_b 33.071977
_cell_length_c 21.299775
_cell_angle_alpha 90.000000
_cell_angle_beta 90.000000
_cell_angle_gamma 90.000000
_cell_volume 5923.083637
_symmetry_space_group_name_H-M "I M M M"
_symmetry_group_IT_number 71
_symmetry_cell_setting 'orthorhombic'
loop_
_space_group_symop_operation_xyz
x,y,z
-x,-y,z
x,-y,-z
-x,y,-z
-x,-y,-z
x,y,-z
-x,y,z
x,-y,z
1/2+x,1/2+y,1/2+z
1/2-x,1/2-y,1/2+z
1/2+x,1/2-y,1/2-z
1/2-x,1/2+y,1/2-z
1/2-x,1/2-y,1/2-z
1/2+x,1/2+y,1/2-z
1/2-x,1/2+y,1/2+z
1/2+x,1/2-y,1/2+z
loop_
_atom_site_type_symbol
_atom_site_label
_atom_site_fract_x
_atom_site_fract_y
_atom_site_fract_z
Si Si1 0.815427 0.157445 0.682533
Si Si2 0.692232 0.135035 0.181093
Si Si3 0.805672 0.500000 0.070331
Si Si4 0.811288 0.571212 0.841454
Si Si5 0.190041 0.285743 0.071260
Si Si6 0.810583 0.455406 0.698914
Si Si7 0.192265 0.694344 0.429134
O O1 0.737464 0.154978 0.751977
O O2 0.784872 0.112330 0.657283
O O3 0.749783 0.187668 0.629614
O O4 0.000000 0.166018 0.691251
O O5 0.500000 0.132826 0.180212
O O6 0.751585 0.088344 0.175232
O O7 0.746572 0.163116 0.123950
O O8 0.757141 0.460011 0.106546
O O9 0.000000 0.500000 0.071541
O O10 0.749643 0.500000 0.000000
O O11 0.795340 0.549634 0.774036
O O12 0.000000 0.580635 0.848831
O O13 0.242395 0.239368 0.080923
O O14 0.000000 0.288113 0.070681
O O15 0.246090 0.297606 0.000000
O O16 0.746259 0.500000 0.680259
O O17 0.000000 0.456238 0.684750
O O18 0.236656 0.681688 0.500000
O O19 0.000000 0.696324 0.426249
#
# Coordination Sequence:
#
# PCOD9523122 Si02
#       7
#    16  16   8  16  16  16  16
#     4  11  22  34  50  74 104 135 167 212 261 302
#     4   9  18  32  52  77 104 135 171 210 252 301
#     4   9  16  26  45  71  93 121 166 211 248 293
#     4   9  16  29  47  67  94 129 167 209 251 293
#     4  10  21  37  56  75  96 130 174 213 252 305
#     4   8  12  22  44  69  92 125 166 203 237 279
#     4   9  18  34  55  78 104 133 165 205 257 311
#
# _framework density 17.558420999999999
#
# number of rings (size 3 to 8) (size 9 to 14) (size 15 to 20)
#    0.000    2.692    0.769    2.769    0.000    2.769 
#    0.000    1.923    0.000    0.923    0.000    3.231 
#    0.000    0.000    0.000    7.846    0.000    9.231 
#
# Total GULP energy -289589.841057 kJ/mol
# GULP energy per Si atom -5569.035405 kJ/mol
# Density = 1.751846 g / cm^3
# Si number density = 17.558421 Si / 1000 Ang^3
#
#
#
# Elastic Constant Matrix: (Units=GPa)
#
#
# Indices 1 2 3 4 5 6 
#
# 1 16.8683 18.1054 15.6105 0.0000 0.0000 0.0000
# 2 18.1054 117.0746 87.5774 0.0000 0.0000 0.0000
# 3 15.6105 87.5774 114.7317 0.0000 0.0000 0.0000
# 4 0.0000 0.0000 0.0000 44.3673 0.0000 0.0000
# 5 0.0000 0.0000 0.0000 0.0000 8.7292 0.0000
# 6 0.0000 0.0000 0.0000 0.0000 0.0000 15.9206
#
#
#
# Elastic Compliance Matrix: (Units=1/GPa)
#
#
# Indices 1 2 3 4 5 6 
#
# 1 0.071523 -0.008814 -0.003003 0.000000 0.000000 0.000000
# 2 -0.008814 0.020997 -0.014828 0.000000 0.000000 0.000000
# 3 -0.003003 -0.014828 0.020443 0.000000 0.000000 0.000000
# 4 0.000000 0.000000 0.000000 0.022539 0.000000 0.000000
# 5 0.000000 0.000000 0.000000 0.000000 0.114558 0.000000
# 6 0.000000 0.000000 0.000000 0.000000 0.000000 0.062812
#
#
# Mechanical properties :
#
#
# Convention : Reuss Voigt Hill
#
# Bulk Modulus (GPa) = 16.75845 54.58458 35.67151
# Shear Modulus (GPa) = 12.95157 22.29550 17.62354
#
# Velocity S-wave (km/s) = 2.71888 3.56728 3.17157
# Velocity P-wave (km/s) = 4.40698 6.93702 5.81135
#
# Compressibility (1/GPa) = 0.05967140
#
# Stress axis : x y z
#
# Youngs Moduli (GPa) = 13.98160 47.62635 48.91595
#
# Poissons Ratio (x) = 0.41979 0.14691
# Poissons Ratio (y) = 0.12324 0.72533
# Poissons Ratio (z) = 0.04199 0.70621
#
# Static dielectric constant tensor:
#      x y z
#    x 1.620010 0.000000 0.000000 
#    y 0.000000 1.607060 0.000000 
#    z 0.000000 0.000000 1.596960 
# 
# From -- ./inp_files/51132.got.cif
#   From: 2010.05.17/outbox.cif.g08.bks.cpg/sg71_26_cif.got.tgz:51132.got - 2010.06.03 16:22:01.
