data_PCOD9523039
_publ_section_title
;
Structure prediction by ZEFSAII (Michael W. Deem and Ramdas Pophale) SiO2 
 PCOD9523039
Probable space group: I M M M
;
_chemical_formula_sum "Si O2"
_cell_formula_units_Z 104
_cell_length_a 24.487834
_cell_length_b 26.333959
_cell_length_c 8.571289
_cell_angle_alpha 90.000000
_cell_angle_beta 90.000000
_cell_angle_gamma 90.000000
_cell_volume 5527.295280
_symmetry_space_group_name_H-M "I M M M"
_symmetry_group_IT_number 71
_symmetry_cell_setting 'orthorhombic'
loop_
_space_group_symop_operation_xyz
x,y,z
-x,-y,z
x,-y,-z
-x,y,-z
-x,-y,-z
x,y,-z
-x,y,z
x,-y,z
1/2+x,1/2+y,1/2+z
1/2-x,1/2-y,1/2+z
1/2+x,1/2-y,1/2-z
1/2-x,1/2+y,1/2-z
1/2-x,1/2-y,1/2-z
1/2+x,1/2+y,1/2-z
1/2-x,1/2+y,1/2+z
1/2+x,1/2-y,1/2+z
loop_
_atom_site_type_symbol
_atom_site_label
_atom_site_fract_x
_atom_site_fract_y
_atom_site_fract_z
Si Si1 0.937784 0.000000 0.313835
Si Si2 0.710553 0.791685 0.679759
Si Si3 0.726678 0.383721 0.314908
Si Si4 0.886977 0.347247 0.685532
Si Si5 0.179732 0.442777 0.813671
Si Si6 0.400960 0.607387 0.313435
Si Si7 0.000000 0.296862 0.310934
Si Si8 0.000000 0.818865 0.189181
O O1 0.912136 0.948006 0.254793
O O2 0.936825 0.000000 0.500000
O O3 0.000000 0.000000 0.257213
O O4 0.698545 0.781351 0.500000
O O5 0.750000 0.750000 0.750000
O O6 0.744334 0.842951 0.705198
O O7 0.654848 0.801950 0.771526
O O8 0.734545 0.372451 0.500000
O O9 0.762203 0.433303 0.272864
O O10 0.662534 0.381721 0.281708
O O11 0.887341 0.354686 0.500000
O O12 0.862447 0.398710 0.760540
O O13 0.946308 0.328320 0.738084
O O14 0.160340 0.500000 0.779038
O O15 0.187521 0.438528 0.000000
O O16 0.406979 0.604529 0.500000
O O17 0.446018 0.648902 0.260225
O O18 0.000000 0.238893 0.249971
O O19 0.000000 0.294311 0.500000
O O20 0.000000 0.816866 0.000000
#
# Coordination Sequence:
#
# PCOD9523039 Si02
#       8
#     8  16  16  16  16  16   8   8
#     4  11  23  37  55  79 107 147 193 240 293 340
#     4  11  22  37  58  84 115 152 192 236 288 343
#     4  10  21  36  56  85 115 147 192 237 285 347
#     4  10  21  40  62  88 119 154 195 239 293 353
#     4  10  21  38  60  88 121 155 191 238 293 349
#     4  10  22  39  58  81 111 149 195 241 289 346
#     4  10  24  42  62  90 122 153 191 243 296 345
#     4  10  22  39  59  83 112 154 200 244 292 347
#
# _framework density 18.815712999999999
#
# number of rings (size 3 to 8) (size 9 to 14) (size 15 to 20)
#    0.000    1.769    0.769    4.846    3.231    4.615 
#    0.000    0.385    0.000    2.308    0.000    0.000 
#    0.000    0.000    0.000    0.000    0.000    0.000 
#
# Total GULP energy -290068.843329 kJ/mol
# GULP energy per Si atom -5578.246987 kJ/mol
# Density = 1.877289 g / cm^3
# Si number density = 18.815713 Si / 1000 Ang^3
#
#
#
# Elastic Constant Matrix: (Units=GPa)
#
#
# Indices 1 2 3 4 5 6 
#
# 1 138.0628 54.7625 27.9793 0.0000 0.0000 0.0000
# 2 54.7625 100.8765 15.1264 0.0000 0.0000 0.0000
# 3 27.9793 15.1264 29.1708 0.0000 0.0000 0.0000
# 4 0.0000 0.0000 0.0000 28.4702 0.0000 0.0000
# 5 0.0000 0.0000 0.0000 0.0000 18.3144 0.0000
# 6 0.0000 0.0000 0.0000 0.0000 0.0000 13.1254
#
#
#
# Elastic Compliance Matrix: (Units=1/GPa)
#
#
# Indices 1 2 3 4 5 6 
#
# 1 0.010660 -0.004612 -0.007833 0.000000 0.000000 0.000000
# 2 -0.004612 0.012745 -0.002185 0.000000 0.000000 0.000000
# 3 -0.007833 -0.002185 0.042927 0.000000 0.000000 0.000000
# 4 0.000000 0.000000 0.000000 0.035124 0.000000 0.000000
# 5 0.000000 0.000000 0.000000 0.000000 0.054602 0.000000
# 6 0.000000 0.000000 0.000000 0.000000 0.000000 0.076188
#
#
# Mechanical properties :
#
#
# Convention : Reuss Voigt Hill
#
# Bulk Modulus (GPa) = 26.97496 51.53849 39.25673
# Shear Modulus (GPa) = 18.25734 23.33146 20.79440
#
# Velocity S-wave (km/s) = 3.11838 3.52518 3.32800
# Velocity P-wave (km/s) = 5.22812 6.63475 5.97299
#
# Compressibility (1/GPa) = 0.03707141
#
# Stress axis : x y z
#
# Youngs Moduli (GPa) = 93.80912 78.46450 23.29562
#
# Poissons Ratio (x) = 0.36191 0.18247
# Poissons Ratio (y) = 0.43269 0.05089
# Poissons Ratio (z) = 0.73479 0.17142
#
# Static dielectric constant tensor:
#      x y z
#    x 1.674220 0.000000 0.000000 
#    y 0.000000 27.982100 0.000000 
#    z 0.000000 0.000000 1.636670 
# 
# From -- ./inp_files/13384.got.cif
#   From: 2010.05.17/outbox.cif.g08.bks.cpg/sg71_7_cif.got.tgz:13384.got - 2010.06.03 16:22:01.
