data_PCOD9523924
_publ_section_title
;
Structure prediction by ZEFSAII (Michael W. Deem and Ramdas Pophale) SiO2 
 PCOD9523924
Probable space group: I M M M
;
_chemical_formula_sum "Si O2"
_cell_formula_units_Z 68
_cell_length_a 13.602324
_cell_length_b 22.596810
_cell_length_c 10.021046
_cell_angle_alpha 90.000000
_cell_angle_beta 90.000000
_cell_angle_gamma 90.000000
_cell_volume 3080.160201
_symmetry_space_group_name_H-M "I M M M"
_symmetry_group_IT_number 71
_symmetry_cell_setting 'orthorhombic'
loop_
_space_group_symop_operation_xyz
x,y,z
-x,-y,z
x,-y,-z
-x,y,-z
-x,-y,-z
x,y,-z
-x,y,z
x,-y,z
1/2+x,1/2+y,1/2+z
1/2-x,1/2-y,1/2+z
1/2+x,1/2-y,1/2-z
1/2-x,1/2+y,1/2-z
1/2-x,1/2-y,1/2-z
1/2+x,1/2+y,1/2-z
1/2-x,1/2+y,1/2+z
1/2+x,1/2-y,1/2+z
loop_
_atom_site_type_symbol
_atom_site_label
_atom_site_fract_x
_atom_site_fract_y
_atom_site_fract_z
Si Si1 0.373786 0.500000 0.000000
Si Si2 0.811991 0.569160 0.646205
Si Si3 0.880763 0.231325 0.349920
Si Si4 0.886883 0.097120 0.738533
Si Si5 0.382078 0.834168 0.651603
O O1 0.378201 0.448428 0.883896
O O2 0.847856 0.588781 0.500000
O O3 0.834799 0.500000 0.662546
O O4 0.694778 0.578005 0.655929
O O5 0.855335 0.607536 0.765602
O O6 0.845194 0.245078 0.500000
O O7 0.861582 0.163443 0.310568
O O8 0.847790 0.277975 0.238133
O O9 0.000000 0.235902 0.354169
O O10 0.000000 0.096705 0.785344
O O11 0.344607 0.835560 0.500000
O O12 0.500000 0.830626 0.644366
#
# Coordination Sequence:
#
# PCOD9523924 Si02
#       5
#     4  16  16  16  16
#     4  12  21  36  62  98 133 172 213 252 304 360
#     4  11  26  43  62  91 125 165 209 255 314 377
#     4   9  18  35  61  92 124 162 205 250 306 368
#     4  11  22  37  63  94 130 170 210 252 301 364
#     4  10  23  43  67  93 121 157 205 263 320 373
#
# _framework density 22.076774
#
# number of rings (size 3 to 8) (size 9 to 14) (size 15 to 20)
#    0.000    1.647    2.353    1.765    1.647    4.706 
#    0.000    5.882    0.000    0.000    0.000    0.000 
#    0.000    0.000    0.000    0.000    0.000    0.000 
#
# Total GULP energy -189629.721519 kJ/mol
# GULP energy per Si atom -5577.344751 kJ/mol
# Density = 2.202653 g / cm^3
# Si number density = 22.076774 Si / 1000 Ang^3
#
#
#
# Elastic Constant Matrix: (Units=GPa)
#
#
# Indices 1 2 3 4 5 6 
#
# 1 53.3592 11.6619 20.1541 0.0000 0.0000 0.0000
# 2 11.6619 162.3045 95.6106 -0.0001 0.0001 0.0000
# 3 20.1541 95.6106 174.1806 -0.0004 0.0002 0.0000
# 4 0.0000 -0.0001 -0.0004 14.2485 0.0003 0.0000
# 5 0.0000 0.0001 0.0002 0.0003 -54.6673 0.0000
# 6 0.0000 0.0000 0.0000 0.0000 0.0000 -11.6827
#
#
#
# Elastic Compliance Matrix: (Units=1/GPa)
#
#
# Indices 1 2 3 4 5 6 
#
# 1 0.019599 -0.000107 -0.002209 0.000000 0.000000 0.000000
# 2 -0.000107 0.009106 -0.004986 0.000000 0.000000 0.000000
# 3 -0.002209 -0.004986 0.008734 0.000000 0.000000 0.000000
# 4 0.000000 0.000000 0.000000 0.070183 0.000000 0.000000
# 5 0.000000 0.000000 0.000000 0.000000 -0.018292 0.000000
# 6 0.000000 0.000000 0.000000 0.000000 0.000000 -0.085597
#
#
# Mechanical properties :
#
#
# Convention : Reuss Voigt Hill
#
# Bulk Modulus (GPa) = 43.79362 71.63306 57.71334
# Shear Modulus (GPa) = 192.69425 7.07421 99.88423
#
# Velocity S-wave (km/s) = 9.35271 1.79202 6.73367
# Velocity P-wave (km/s) = 11.68379 6.06626 9.30888
#
# Compressibility (1/GPa) = 0.02283438
#
# Stress axis : x y z
#
# Youngs Moduli (GPa) = 51.02393 109.81527 114.49818
#
# Poissons Ratio (x) = 0.01174 0.25293
# Poissons Ratio (y) = 0.00545 0.57091
# Poissons Ratio (z) = 0.11271 0.54756
#
# Static dielectric constant tensor:
#      x y z
#    x 1.884330 0.000000 0.000000 
#    y 0.000000 1.756520 0.000000 
#    z 0.000000 0.000000 1.792940 
# 
# From -- ./inp_files/7643.got.cif
#   From: 2010.05.17/outbox.cif.g08.bks.cpg/sg71_4_cif.got.tgz:7643.got - 2010.06.03 16:22:01.
