data_PCOD9523789
_publ_section_title
;
Structure prediction by ZEFSAII (Michael W. Deem and Ramdas Pophale) SiO2 
 PCOD9523789
Probable space group: I M M M
;
_chemical_formula_sum "Si O2"
_cell_formula_units_Z 64
_cell_length_a 13.592025
_cell_length_b 23.983448
_cell_length_c 9.655585
_cell_angle_alpha 90.000000
_cell_angle_beta 90.000000
_cell_angle_gamma 90.000000
_cell_volume 3147.562598
_symmetry_space_group_name_H-M "I M M M"
_symmetry_group_IT_number 71
_symmetry_cell_setting 'orthorhombic'
loop_
_space_group_symop_operation_xyz
x,y,z
-x,-y,z
x,-y,-z
-x,y,-z
-x,-y,-z
x,y,-z
-x,y,z
x,-y,z
1/2+x,1/2+y,1/2+z
1/2-x,1/2-y,1/2+z
1/2+x,1/2-y,1/2-z
1/2-x,1/2+y,1/2-z
1/2-x,1/2-y,1/2-z
1/2+x,1/2+y,1/2-z
1/2-x,1/2+y,1/2+z
1/2+x,1/2-y,1/2+z
loop_
_atom_site_type_symbol
_atom_site_label
_atom_site_fract_x
_atom_site_fract_y
_atom_site_fract_z
Si Si1 0.277234 0.934278 0.656547
Si Si2 0.000000 0.316920 0.655718
Si Si3 0.500000 0.063069 0.239605
Si Si4 0.848050 0.252399 0.162530
Si Si5 0.890764 0.122265 0.838124
O O1 0.257496 0.915732 0.500000
O O2 0.395340 0.930975 0.681211
O O3 0.203705 0.901117 0.757011
O O4 0.253504 0.000000 0.670133
O O5 0.088833 0.295995 0.750349
O O6 0.000000 0.292733 0.500000
O O7 0.000000 0.383185 0.643836
O O8 0.500000 0.000000 0.180921
O O9 0.750000 0.250000 0.250000
O O10 0.890064 0.189593 0.167507
O O11 0.838368 0.267469 0.000000
O O12 0.000000 0.103424 0.788661
O O13 0.881487 0.106633 0.000000
#
# Coordination Sequence:
#
# PCOD9523789 Si02
#       5
#    16   8   8  16  16
#     4  10  22  40  64  95 127 164 213 268 325 383
#     4  12  25  40  62  94 125 163 211 256 313 382
#     4  10  23  43  65  91 129 170 209 263 327 388
#     4  11  23  41  63  91 127 166 209 263 319 378
#     4  10  22  42  63  87 126 172 213 257 315 382
#
# _framework density 20.333195
#
# number of rings (size 3 to 8) (size 9 to 14) (size 15 to 20)
#    0.000    1.500    1.250    3.000    0.000   12.250 
#    0.000    5.000    0.000    0.000    0.000    0.000 
#    0.000    0.000    0.000    0.000    0.000    0.000 
#
# Total GULP energy -178452.328249 kJ/mol
# GULP energy per Si atom -5576.635258 kJ/mol
# Density = 2.028692 g / cm^3
# Si number density = 20.333195 Si / 1000 Ang^3
#
#
#
# Elastic Constant Matrix: (Units=GPa)
#
#
# Indices 1 2 3 4 5 6 
#
# 1 160.4346 45.5096 78.0900 0.0001 0.0000 0.0000
# 2 45.5096 85.1037 54.9108 0.0000 0.0000 -0.0001
# 3 78.0900 54.9108 160.2102 0.0009 -0.0003 -0.0001
# 4 0.0001 0.0000 0.0009 23.9515 -0.0001 -0.0001
# 5 0.0000 0.0000 -0.0003 -0.0001 0.8093 0.0000
# 6 0.0000 -0.0001 -0.0001 -0.0001 0.0000 45.6964
#
#
#
# Elastic Compliance Matrix: (Units=1/GPa)
#
#
# Indices 1 2 3 4 5 6 
#
# 1 0.008542 -0.002416 -0.003336 0.000000 -0.000001 0.000000
# 2 -0.002416 0.015770 -0.004228 0.000000 -0.000001 0.000000
# 3 -0.003336 -0.004228 0.009317 0.000000 0.000003 0.000000
# 4 0.000000 0.000000 0.000000 0.041751 0.000005 0.000000
# 5 -0.000001 -0.000001 0.000003 0.000005 1.235587 0.000001
# 6 0.000000 0.000000 0.000000 0.000000 0.000001 0.021884
#
#
# Mechanical properties :
#
#
# Convention : Reuss Voigt Hill
#
# Bulk Modulus (GPa) = 73.14859 84.75216 78.95037
# Shear Modulus (GPa) = 3.68361 29.24064 16.46213
#
# Velocity S-wave (km/s) = 1.34743 3.79631 2.84847
# Velocity P-wave (km/s) = 6.20273 7.80949 7.05202
#
# Compressibility (1/GPa) = 0.01367080
#
# Stress axis : x y z
#
# Youngs Moduli (GPa) = 117.07082 63.41216 107.33549
#
# Poissons Ratio (x) = 0.15318 0.35802
# Poissons Ratio (y) = 0.28280 0.45377
# Poissons Ratio (z) = 0.39049 0.26808
#
# Static dielectric constant tensor:
#      x y z
#    x 1.671600 0.000000 0.000000 
#    y 0.000000 1.736120 0.000000 
#    z 0.000000 0.000000 1.689370 
# 
# From -- ./inp_files/5539.got.cif
#   From: 2010.05.17/outbox.cif.g08.bks.cpg/sg71_3_cif.got.tgz:5539.got - 2010.06.03 16:22:01.
