data_PCOD9523980
_publ_section_title
;
Structure prediction by ZEFSAII (Michael W. Deem and Ramdas Pophale) SiO2 
 PCOD9523980
Probable space group: I M M M
;
_chemical_formula_sum "Si O2"
_cell_formula_units_Z 104
_cell_length_a 13.893675
_cell_length_b 22.869676
_cell_length_c 22.537069
_cell_angle_alpha 90.000000
_cell_angle_beta 90.000000
_cell_angle_gamma 90.000000
_cell_volume 7161.014975
_symmetry_space_group_name_H-M "I M M M"
_symmetry_group_IT_number 71
_symmetry_cell_setting 'orthorhombic'
loop_
_space_group_symop_operation_xyz
x,y,z
-x,-y,z
x,-y,-z
-x,y,-z
-x,-y,-z
x,y,-z
-x,y,z
x,-y,z
1/2+x,1/2+y,1/2+z
1/2-x,1/2-y,1/2+z
1/2+x,1/2-y,1/2-z
1/2-x,1/2+y,1/2-z
1/2-x,1/2-y,1/2-z
1/2+x,1/2+y,1/2-z
1/2-x,1/2+y,1/2+z
1/2+x,1/2-y,1/2+z
loop_
_atom_site_type_symbol
_atom_site_label
_atom_site_fract_x
_atom_site_fract_y
_atom_site_fract_z
Si Si1 0.115227 0.149397 0.931523
Si Si2 0.609699 0.930511 0.761278
Si Si3 0.700077 0.109725 0.358929
Si Si4 0.613530 0.786494 0.570197
Si Si5 0.389348 0.570224 0.202079
Si Si6 0.798987 0.930865 0.169535
Si Si7 0.114098 0.500000 0.928855
O O1 0.133662 0.218034 0.919277
O O2 0.166811 0.108058 0.884736
O O3 0.000000 0.140994 0.927056
O O4 0.142594 0.137534 0.000000
O O5 0.500000 0.918520 0.778119
O O6 0.640103 0.896552 0.702140
O O7 0.688568 0.919256 0.811712
O O8 0.618201 0.000000 0.746767
O O9 0.676889 0.170144 0.391045
O O10 0.810709 0.100243 0.339961
O O11 0.663560 0.057093 0.400872
O O12 0.627467 0.797695 0.500000
O O13 0.500000 0.797068 0.582716
O O14 0.500000 0.586525 0.191257
O O15 0.379544 0.500000 0.194184
O O16 0.360230 0.581825 0.270596
O O17 0.809874 0.000000 0.156747
O O18 0.000000 0.500000 0.913851
O O19 0.122665 0.500000 0.000000
#
# Coordination Sequence:
#
# PCOD9523980 Si02
#       7
#    16  16  16  16  16  16   8
#     4   9  18  32  48  67  92 119 146 180 227 278
#     4   9  16  27  44  67  97 124 145 178 224 271
#     4  11  17  28  45  67  89 120 156 185 223 265
#     4   9  18  31  46  64  89 122 151 179 226 282
#     4   9  17  30  46  65  93 124 152 185 226 271
#     4   9  17  29  48  73  92 114 149 184 225 271
#     4  11  20  26  39  67  95 113 143 196 234 254
#
# _framework density 14.523080999999999
#
# number of rings (size 3 to 8) (size 9 to 14) (size 15 to 20)
#    0.000    2.538    1.538    4.154    0.000    2.462 
#    0.000    3.846    0.000    5.538    0.000    4.308 
#    0.000    0.000    0.000    0.000    0.000    0.000 
#
# Total GULP energy -289835.542162 kJ/mol
# GULP energy per Si atom -5573.760426 kJ/mol
# Density = 1.449003 g / cm^3
# Si number density = 14.523081 Si / 1000 Ang^3
#
#
#
# Elastic Constant Matrix: (Units=GPa)
#
#
# Indices 1 2 3 4 5 6 
#
# 1 121.6986 58.6208 68.2288 0.0000 0.0000 0.0000
# 2 58.6208 69.5466 71.0518 0.0000 0.0000 0.0000
# 3 68.2288 71.0518 98.0265 0.0000 0.0000 0.0000
# 4 0.0000 0.0000 0.0000 31.2721 0.0000 0.0000
# 5 0.0000 0.0000 0.0000 0.0000 19.8350 0.0000
# 6 0.0000 0.0000 0.0000 0.0000 0.0000 22.0715
#
#
#
# Elastic Compliance Matrix: (Units=1/GPa)
#
#
# Indices 1 2 3 4 5 6 
#
# 1 0.014377 -0.007303 -0.004714 0.000000 0.000000 0.000000
# 2 -0.007303 0.059121 -0.037769 0.000000 0.000000 0.000000
# 3 -0.004714 -0.037769 0.040858 0.000000 0.000000 0.000000
# 4 0.000000 0.000000 0.000000 0.031977 0.000000 0.000000
# 5 0.000000 0.000000 0.000000 0.000000 0.050416 0.000000
# 6 0.000000 0.000000 0.000000 0.000000 0.000000 0.045307
#
#
# Mechanical properties :
#
#
# Convention : Reuss Voigt Hill
#
# Bulk Modulus (GPa) = 67.63667 76.11938 71.87802
# Shear Modulus (GPa) = 14.42758 20.72708 17.57733
#
# Velocity S-wave (km/s) = 3.15528 3.78190 3.48272
# Velocity P-wave (km/s) = 7.74257 8.46149 8.11000
#
# Compressibility (1/GPa) = 0.01478488
#
# Stress axis : x y z
#
# Youngs Moduli (GPa) = 69.55317 16.91432 24.47488
#
# Poissons Ratio (x) = 0.12353 0.11536
# Poissons Ratio (y) = 0.50796 0.92440
# Poissons Ratio (z) = 0.32785 0.63884
#
# Static dielectric constant tensor:
#      x y z
#    x 1.480110 0.000000 0.000000 
#    y 0.000000 1.467170 0.000000 
#    z 0.000000 0.000000 1.462360 
# 
# From -- ./inp_files/53384.got.cif
#   From: 2010.05.17/outbox.cif.g08.bks.cpg/sg71_27_cif.got.tgz:53384.got - 2010.06.03 16:22:01.
