data_PCOD9523289
_publ_section_title
;
Structure prediction by ZEFSAII (Michael W. Deem and Ramdas Pophale) SiO2 
 PCOD9523289
Probable space group: I M M M
;
_chemical_formula_sum "Si O2"
_cell_formula_units_Z 64
_cell_length_a 8.114016
_cell_length_b 36.999670
_cell_length_c 11.452516
_cell_angle_alpha 90.000000
_cell_angle_beta 90.000000
_cell_angle_gamma 90.000000
_cell_volume 3438.227563
_symmetry_space_group_name_H-M "I M M M"
_symmetry_group_IT_number 71
_symmetry_cell_setting 'orthorhombic'
loop_
_space_group_symop_operation_xyz
x,y,z
-x,-y,z
x,-y,-z
-x,y,-z
-x,-y,-z
x,y,-z
-x,y,z
x,-y,z
1/2+x,1/2+y,1/2+z
1/2-x,1/2-y,1/2+z
1/2+x,1/2-y,1/2-z
1/2-x,1/2+y,1/2-z
1/2-x,1/2-y,1/2-z
1/2+x,1/2+y,1/2-z
1/2-x,1/2+y,1/2+z
1/2+x,1/2-y,1/2+z
loop_
_atom_site_type_symbol
_atom_site_label
_atom_site_fract_x
_atom_site_fract_y
_atom_site_fract_z
Si Si1 0.807751 0.423458 0.742124
Si Si2 0.299791 0.543358 0.500000
Si Si3 0.500000 0.457063 0.871056
Si Si4 0.304360 0.149317 0.632076
Si Si5 0.307984 0.269520 0.131444
O O1 0.777520 0.436705 0.611148
O O2 0.668740 0.445076 0.811434
O O3 0.770839 0.381572 0.773045
O O4 0.000000 0.429790 0.775010
O O5 0.265285 0.500000 0.500000
O O6 0.500000 0.547046 0.500000
O O7 0.500000 0.500000 0.872928
O O8 0.500000 0.441622 0.000000
O O9 0.265648 0.135944 0.500000
O O10 0.500000 0.156589 0.635713
O O11 0.216923 0.187517 0.648487
O O12 0.500000 0.261279 0.123296
O O13 0.250000 0.250000 0.250000
O O14 0.235514 0.261033 0.000000
#
# Coordination Sequence:
#
# PCOD9523289 Si02
#       5
#    16   8   8  16  16
#     4  11  23  40  63  90 119 157 205 253 307 365
#     4  11  23  41  63  86 119 163 208 255 311 374
#     4  11  24  39  59  89 123 158 199 251 309 365
#     4   9  19  37  61  88 119 154 195 246 302 361
#     4  10  21  37  60  90 121 160 203 245 298 360
#
# _framework density 18.614241
#
# number of rings (size 3 to 8) (size 9 to 14) (size 15 to 20)
#    0.000    1.750    1.250    2.625    1.750    5.500 
#    2.250    1.250    0.000    0.000    0.000    0.000 
#    0.000    0.000    0.000    0.000    0.000    0.000 
#
# Total GULP energy -178332.832971 kJ/mol
# GULP energy per Si atom -5572.901030 kJ/mol
# Density = 1.857187 g / cm^3
# Si number density = 18.614241 Si / 1000 Ang^3
#
#
#
# Elastic Constant Matrix: (Units=GPa)
#
#
# Indices 1 2 3 4 5 6 
#
# 1 81.1969 33.2086 54.5091 0.0000 0.0000 0.0000
# 2 33.2086 73.6199 67.6175 0.0001 0.0000 0.0000
# 3 54.5091 67.6175 165.8863 0.0003 0.0000 0.0000
# 4 0.0000 0.0001 0.0003 38.7887 0.0001 0.0000
# 5 0.0000 0.0000 0.0000 0.0001 48.3041 0.0000
# 6 0.0000 0.0000 0.0000 0.0000 0.0000 35.1609
#
#
#
# Elastic Compliance Matrix: (Units=1/GPa)
#
#
# Indices 1 2 3 4 5 6 
#
# 1 0.016484 -0.003933 -0.003813 0.000000 0.000000 0.000000
# 2 -0.003933 0.022650 -0.007940 0.000000 0.000000 0.000000
# 3 -0.003813 -0.007940 0.010518 0.000000 0.000000 0.000000
# 4 0.000000 0.000000 0.000000 0.025781 0.000000 0.000000
# 5 0.000000 0.000000 0.000000 0.000000 0.020702 0.000000
# 6 0.000000 0.000000 0.000000 0.000000 0.000000 0.028441
#
#
# Mechanical properties :
#
#
# Convention : Reuss Voigt Hill
#
# Bulk Modulus (GPa) = 54.70815 70.15262 62.43038
# Shear Modulus (GPa) = 30.85607 35.47526 33.16567
#
# Velocity S-wave (km/s) = 4.07585 4.37030 4.22564
# Velocity P-wave (km/s) = 7.18362 7.95207 7.57759
#
# Compressibility (1/GPa) = 0.01827881
#
# Stress axis : x y z
#
# Youngs Moduli (GPa) = 60.66321 44.14959 95.07722
#
# Poissons Ratio (x) = 0.17366 0.36257
# Poissons Ratio (y) = 0.23861 0.75492
# Poissons Ratio (z) = 0.23133 0.35055
#
# Static dielectric constant tensor:
#      x y z
#    x 1.616360 0.000000 0.000000 
#    y 0.000000 1.625290 0.000000 
#    z 0.000000 0.000000 2.003630 
# 
# From -- ./inp_files/16193.got.cif
#   From: 2010.05.17/outbox.cif.g08.bks.cpg/sg71_9_cif.got.tgz:16193.got - 2010.06.03 16:22:01.
