data_PCOD9523185
_publ_section_title
;
Structure prediction by ZEFSAII (Michael W. Deem and Ramdas Pophale) SiO2 
 PCOD9523185
Probable space group: I M M M
;
_chemical_formula_sum "Si O2"
_cell_formula_units_Z 72
_cell_length_a 13.201236
_cell_length_b 8.928920
_cell_length_c 31.028152
_cell_angle_alpha 90.000000
_cell_angle_beta 90.000000
_cell_angle_gamma 90.000000
_cell_volume 3657.374539
_symmetry_space_group_name_H-M "I M M M"
_symmetry_group_IT_number 71
_symmetry_cell_setting 'orthorhombic'
loop_
_space_group_symop_operation_xyz
x,y,z
-x,-y,z
x,-y,-z
-x,y,-z
-x,-y,-z
x,y,-z
-x,y,z
x,-y,z
1/2+x,1/2+y,1/2+z
1/2-x,1/2-y,1/2+z
1/2+x,1/2-y,1/2-z
1/2-x,1/2+y,1/2-z
1/2-x,1/2-y,1/2-z
1/2+x,1/2+y,1/2-z
1/2-x,1/2+y,1/2+z
1/2+x,1/2-y,1/2+z
loop_
_atom_site_type_symbol
_atom_site_label
_atom_site_fract_x
_atom_site_fract_y
_atom_site_fract_z
Si Si1 0.812108 0.823807 0.900670
Si Si2 0.883023 0.178203 0.372197
Si Si3 0.378378 0.827684 0.685248
Si Si4 0.000000 0.673475 0.948451
Si Si5 0.377316 0.828908 0.217929
O O1 0.699786 0.753335 0.903179
O O2 0.845948 0.783270 0.852080
O O3 0.898518 0.750299 0.930270
O O4 0.808737 0.000000 0.907667
O O5 0.855484 0.225059 0.322913
O O6 0.000000 0.226181 0.379683
O O7 0.878481 0.000000 0.376194
O O8 0.500000 0.832115 0.684418
O O9 0.347796 0.782185 0.733641
O O10 0.344105 0.000000 0.677127
O O11 0.000000 0.500000 0.934108
O O12 0.000000 0.679610 0.000000
O O13 0.500000 0.835436 0.219268
O O14 0.341498 0.000000 0.210249
#
# Coordination Sequence:
#
# PCOD9523185 Si02
#       5
#    16  16  16   8  16
#     4  12  24  37  60  91 121 155 193 243 301 359
#     4  10  21  37  57  82 116 162 211 254 294 346
#     4   9  17  31  52  77 113 158 202 251 300 353
#     4  11  25  47  73  97 123 153 187 235 299 369
#     4   8  15  29  49  75 109 154 204 255 303 343
#
# _framework density 19.686252
#
# number of rings (size 3 to 8) (size 9 to 14) (size 15 to 20)
#    0.000    2.111    1.111    4.333    0.000    4.000 
#    0.000    2.222    0.000    0.667    0.000    4.667 
#    0.000    0.000    0.000    0.000    0.000    0.000 
#
# Total GULP energy -201043.066136 kJ/mol
# GULP energy per Si atom -5584.529615 kJ/mol
# Density = 1.964145 g / cm^3
# Si number density = 19.686252 Si / 1000 Ang^3
#
#
#
# Elastic Constant Matrix: (Units=GPa)
#
#
# Indices 1 2 3 4 5 6 
#
# 1 125.9411 49.4088 48.6023 0.0000 0.0000 0.0000
# 2 49.4088 107.8534 41.7183 0.0000 0.0000 0.0000
# 3 48.6023 41.7183 49.5484 0.0000 0.0000 0.0000
# 4 0.0000 0.0000 0.0000 18.3541 0.0000 0.0000
# 5 0.0000 0.0000 0.0000 0.0000 12.2898 0.0000
# 6 0.0000 0.0000 0.0000 0.0000 0.0000 31.2380
#
#
#
# Elastic Compliance Matrix: (Units=1/GPa)
#
#
# Indices 1 2 3 4 5 6 
#
# 1 0.012941 -0.001510 -0.011422 0.000000 0.000000 0.000000
# 2 -0.001510 0.013926 -0.010244 0.000000 0.000000 0.000000
# 3 -0.011422 -0.010244 0.040011 0.000000 0.000000 0.000000
# 4 0.000000 0.000000 0.000000 0.054484 0.000000 0.000000
# 5 0.000000 0.000000 0.000000 0.000000 0.081368 0.000000
# 6 0.000000 0.000000 0.000000 0.000000 0.000000 0.032012
#
#
# Mechanical properties :
#
#
# Convention : Reuss Voigt Hill
#
# Bulk Modulus (GPa) = 48.71947 62.53353 55.62650
# Shear Modulus (GPa) = 17.36493 21.95062 19.65777
#
# Velocity S-wave (km/s) = 2.97321 3.34282 3.16342
# Velocity P-wave (km/s) = 6.04883 6.83617 6.45452
#
# Compressibility (1/GPa) = 0.02052568
#
# Stress axis : x y z
#
# Youngs Moduli (GPa) = 77.27649 71.80751 24.99289
#
# Poissons Ratio (x) = 0.10844 0.28547
# Poissons Ratio (y) = 0.11670 0.25603
# Poissons Ratio (z) = 0.88265 0.73560
#
# Static dielectric constant tensor:
#      x y z
#    x 1.783050 0.000000 0.000000 
#    y 0.000000 1.681250 0.000000 
#    z 0.000000 0.000000 1.658440 
# 
# From -- ./inp_files/69704.got.cif
#   From: 2010.05.17/outbox.cif.g08.bks.cpg/sg71_35_cif.got.tgz:69704.got - 2010.06.03 16:22:01.
