data_PCOD9523770
_publ_section_title
;
Structure prediction by ZEFSAII (Michael W. Deem and Ramdas Pophale) SiO2 
 PCOD9523770
Probable space group: I M M M
;
_chemical_formula_sum "Si O2"
_cell_formula_units_Z 90
_cell_length_a 27.017372
_cell_length_b 7.643651
_cell_length_c 20.279391
_cell_angle_alpha 90.000000
_cell_angle_beta 90.000000
_cell_angle_gamma 90.000000
_cell_volume 4187.924666
_symmetry_space_group_name_H-M "I M M M"
_symmetry_group_IT_number 71
_symmetry_cell_setting 'orthorhombic'
loop_
_space_group_symop_operation_xyz
x,y,z
-x,-y,z
x,-y,-z
-x,y,-z
-x,-y,-z
x,y,-z
-x,y,z
x,-y,z
1/2+x,1/2+y,1/2+z
1/2-x,1/2-y,1/2+z
1/2+x,1/2-y,1/2-z
1/2-x,1/2+y,1/2-z
1/2-x,1/2-y,1/2-z
1/2+x,1/2+y,1/2-z
1/2-x,1/2+y,1/2+z
1/2+x,1/2-y,1/2+z
loop_
_atom_site_type_symbol
_atom_site_label
_atom_site_fract_x
_atom_site_fract_y
_atom_site_fract_z
Si Si1 0.408560 0.781987 0.000000
Si Si2 0.186181 0.209960 0.000000
Si Si3 0.500000 0.500000 0.000000
Si Si4 0.350083 0.794371 0.724175
Si Si5 0.239278 0.706061 0.863850
Si Si6 0.852277 0.700451 0.366757
Si Si7 0.572411 0.201234 0.500000
Si Si8 0.946818 0.202574 0.146905
O O1 0.456596 0.657659 0.000000
O O2 0.376748 0.734771 0.065763
O O3 0.416618 0.000000 0.000000
O O4 0.213767 0.270346 0.065484
O O5 0.131506 0.286492 0.000000
O O6 0.182825 0.000000 0.000000
O O7 0.300222 0.722623 0.689845
O O8 0.364037 0.716574 0.795396
O O9 0.397126 0.782975 0.676287
O O10 0.339553 0.000000 0.733921
O O11 0.247236 0.500000 0.851572
O O12 0.292749 0.792981 0.867832
O O13 0.869486 0.500000 0.363577
O O14 0.555166 0.285458 0.567895
O O15 0.557021 0.000000 0.500000
O O16 0.000000 0.278396 0.168700
O O17 0.945671 0.000000 0.166093
#
# Coordination Sequence:
#
# PCOD9523770 Si02
#       8
#     8   8   2  16  16  16   8  16
#     4  10  24  48  75 107 138 172 227 282 339 421
#     4  12  23  36  58  87 123 168 211 256 309 368
#     4  12  26  48  84 106 136 176 218 286 362 410
#     4  10  22  40  61  91 130 173 218 265 324 393
#     4  11  22  36  61  95 132 172 218 265 318 388
#     4  10  22  42  67  96 133 173 212 266 331 397
#     4  12  23  38  61  85 117 159 212 263 310 366
#     4  11  24  41  60  88 122 165 216 270 319 373
#
# _framework density 21.490359000000002
#
# number of rings (size 3 to 8) (size 9 to 14) (size 15 to 20)
#    0.000    1.244    1.778    4.133    1.244    4.622 
#    1.600    0.000    0.000    0.000    0.000    0.000 
#    0.000    0.000    0.000    0.000    0.000    0.000 
#
# Total GULP energy -250998.550140 kJ/mol
# GULP energy per Si atom -5577.745559 kJ/mol
# Density = 2.144145 g / cm^3
# Si number density = 21.490359 Si / 1000 Ang^3
#
#
#
# Elastic Constant Matrix: (Units=GPa)
#
#
# Indices 1 2 3 4 5 6 
#
# 1 137.4983 4.7378 66.0642 0.0000 0.0000 0.0000
# 2 4.7378 72.0495 4.2972 0.0000 0.0000 0.0000
# 3 66.0642 4.2972 156.3227 0.0000 0.0000 0.0000
# 4 0.0000 0.0000 0.0000 -37.6210 0.0000 0.0000
# 5 0.0000 0.0000 0.0000 0.0000 30.2445 0.0000
# 6 0.0000 0.0000 0.0000 0.0000 0.0000 17.5931
#
#
#
# Elastic Compliance Matrix: (Units=1/GPa)
#
#
# Indices 1 2 3 4 5 6 
#
# 1 0.009136 -0.000371 -0.003851 0.000000 0.000000 0.000000
# 2 -0.000371 0.013917 -0.000226 0.000000 0.000000 0.000000
# 3 -0.003851 -0.000226 0.008031 0.000000 0.000000 0.000000
# 4 0.000000 0.000000 0.000000 -0.026581 0.000000 0.000000
# 5 0.000000 0.000000 0.000000 0.000000 0.033064 0.000000
# 6 0.000000 0.000000 0.000000 0.000000 0.000000 0.056840
#
#
# Mechanical properties :
#
#
# Convention : Reuss Voigt Hill
#
# Bulk Modulus (GPa) = 45.06839 57.34099 51.20469
# Shear Modulus (GPa) = 45.16785 21.42806 33.29795
#
# Velocity S-wave (km/s) = 4.58948 3.16112 3.94056
# Velocity P-wave (km/s) = 7.00724 6.32959 6.67702
#
# Compressibility (1/GPa) = 0.02218850
#
# Stress axis : x y z
#
# Youngs Moduli (GPa) = 109.45989 71.85344 124.52376
#
# Poissons Ratio (x) = 0.02666 0.47950
# Poissons Ratio (y) = 0.04062 0.02811
# Poissons Ratio (z) = 0.42150 0.01622
#
# Static dielectric constant tensor:
#      x y z
#    x 1.768410 0.000000 0.000000 
#    y 0.000000 1.807900 0.000000 
#    z 0.000000 0.000000 1.756550 
# 
# From -- ./inp_files/10603.got.cif
#   From: 2010.05.17/outbox.cif.g08.bks.cpg/sg71_6_cif.got.tgz:10603.got - 2010.06.03 16:22:01.
