data_PCOD9523401
_publ_section_title
;
Structure prediction by ZEFSAII (Michael W. Deem and Ramdas Pophale) SiO2 
 PCOD9523401
Probable space group: I M M M
;
_chemical_formula_sum "Si O2"
_cell_formula_units_Z 64
_cell_length_a 22.952625
_cell_length_b 16.593117
_cell_length_c 8.944871
_cell_angle_alpha 90.000000
_cell_angle_beta 90.000000
_cell_angle_gamma 90.000000
_cell_volume 3406.704141
_symmetry_space_group_name_H-M "I M M M"
_symmetry_group_IT_number 71
_symmetry_cell_setting 'orthorhombic'
loop_
_space_group_symop_operation_xyz
x,y,z
-x,-y,z
x,-y,-z
-x,y,-z
-x,-y,-z
x,y,-z
-x,y,z
x,-y,z
1/2+x,1/2+y,1/2+z
1/2-x,1/2-y,1/2+z
1/2+x,1/2-y,1/2-z
1/2-x,1/2+y,1/2-z
1/2-x,1/2-y,1/2-z
1/2+x,1/2+y,1/2-z
1/2-x,1/2+y,1/2+z
1/2+x,1/2-y,1/2+z
loop_
_atom_site_type_symbol
_atom_site_label
_atom_site_fract_x
_atom_site_fract_y
_atom_site_fract_z
Si Si1 0.069223 0.000000 0.172137
Si Si2 0.000000 0.594231 0.821042
Si Si3 0.242285 0.338931 0.320337
Si Si4 0.886432 0.674612 0.321115
Si Si5 0.359557 0.637995 0.178433
O O1 0.093269 0.922172 0.256510
O O2 0.000000 0.000000 0.173195
O O3 0.089545 0.000000 0.000000
O O4 0.058144 0.636732 0.758822
O O5 0.000000 0.500000 0.777020
O O6 0.000000 0.599221 0.000000
O O7 0.246573 0.334511 0.500000
O O8 0.250000 0.250000 0.250000
O O9 0.176341 0.365617 0.283465
O O10 0.297391 0.384364 0.252101
O O11 0.894510 0.668147 0.500000
O O12 0.877727 0.769675 0.285814
O O13 0.354597 0.632208 0.000000
#
# Coordination Sequence:
#
# PCOD9523401 Si02
#       5
#     8   8  16  16  16
#     4  11  25  41  57  85 123 160 201 244 289 343
#     4  11  25  41  57  84 117 150 193 243 292 345
#     4   9  17  33  58  88 117 148 191 240 289 346
#     4   9  20  38  62  88 114 152 194 235 291 355
#     4  10  21  38  61  89 119 155 196 240 294 350
#
# _framework density 18.786484999999999
#
# number of rings (size 3 to 8) (size 9 to 14) (size 15 to 20)
#    0.000    2.250    0.000    3.750    1.750    8.000 
#    2.250    0.000    0.000    0.000    0.000    0.000 
#    0.000    0.000    0.000    0.000    0.000    0.000 
#
# Total GULP energy -178526.918337 kJ/mol
# GULP energy per Si atom -5578.966198 kJ/mol
# Density = 1.874373 g / cm^3
# Si number density = 18.786485 Si / 1000 Ang^3
#
#
#
# Elastic Constant Matrix: (Units=GPa)
#
#
# Indices 1 2 3 4 5 6 
#
# 1 171.7614 62.7021 71.8246 0.0000 0.0000 0.0000
# 2 62.7021 64.9864 44.6790 0.0000 0.0000 0.0000
# 3 71.8246 44.6790 77.6790 0.0000 0.0000 0.0000
# 4 0.0000 0.0000 0.0000 23.9121 0.0000 0.0000
# 5 0.0000 0.0000 0.0000 0.0000 36.8913 0.0000
# 6 0.0000 0.0000 0.0000 0.0000 0.0000 20.1067
#
#
#
# Elastic Compliance Matrix: (Units=1/GPa)
#
#
# Indices 1 2 3 4 5 6 
#
# 1 0.010672 -0.005810 -0.006526 0.000000 0.000000 0.000000
# 2 -0.005810 0.028616 -0.011087 0.000000 0.000000 0.000000
# 3 -0.006526 -0.011087 0.025284 0.000000 0.000000 0.000000
# 4 0.000000 0.000000 0.000000 0.041820 0.000000 0.000000
# 5 0.000000 0.000000 0.000000 0.000000 0.027107 0.000000
# 6 0.000000 0.000000 0.000000 0.000000 0.000000 0.049735
#
#
# Mechanical properties :
#
#
# Convention : Reuss Voigt Hill
#
# Bulk Modulus (GPa) = 56.41231 74.75982 65.58607
# Shear Modulus (GPa) = 21.18748 25.19676 23.19212
#
# Velocity S-wave (km/s) = 3.36192 3.66624 3.51737
# Velocity P-wave (km/s) = 6.72037 7.60280 7.17516
#
# Compressibility (1/GPa) = 0.01772663
#
# Stress axis : x y z
#
# Youngs Moduli (GPa) = 93.70394 34.94506 39.55027
#
# Poissons Ratio (x) = 0.20304 0.25809
# Poissons Ratio (y) = 0.54445 0.43849
# Poissons Ratio (z) = 0.61148 0.38744
#
# Static dielectric constant tensor:
#      x y z
#    x 1.674500 0.000000 0.000000 
#    y 0.000000 1.616230 0.000000 
#    z 0.000000 0.000000 1.627140 
# 
# From -- ./inp_files/9552.got.cif
#   From: 2010.05.17/outbox.cif.g08.bks.cpg/sg71_5_cif.got.tgz:9552.got - 2010.06.03 16:22:01.
