data_PCOD9523105
_publ_section_title
;
Structure prediction by ZEFSAII (Michael W. Deem and Ramdas Pophale) SiO2 
 PCOD9523105
Probable space group: I M M M
;
_chemical_formula_sum "Si O2"
_cell_formula_units_Z 116
_cell_length_a 29.502053
_cell_length_b 7.925516
_cell_length_c 26.889011
_cell_angle_alpha 90.000000
_cell_angle_beta 90.000000
_cell_angle_gamma 90.000000
_cell_volume 6287.161477
_symmetry_space_group_name_H-M "I M M M"
_symmetry_group_IT_number 71
_symmetry_cell_setting 'orthorhombic'
loop_
_space_group_symop_operation_xyz
x,y,z
-x,-y,z
x,-y,-z
-x,y,-z
-x,-y,-z
x,y,-z
-x,y,z
x,-y,z
1/2+x,1/2+y,1/2+z
1/2-x,1/2-y,1/2+z
1/2+x,1/2-y,1/2-z
1/2-x,1/2+y,1/2-z
1/2-x,1/2-y,1/2-z
1/2+x,1/2+y,1/2-z
1/2-x,1/2+y,1/2+z
1/2+x,1/2-y,1/2+z
loop_
_atom_site_type_symbol
_atom_site_label
_atom_site_fract_x
_atom_site_fract_y
_atom_site_fract_z
Si Si1 0.803873 0.199603 0.844760
Si Si2 0.247370 0.000000 0.000000
Si Si3 0.051423 0.204575 0.907764
Si Si4 0.788329 0.190393 0.447339
Si Si5 0.049724 0.201576 0.206657
Si Si6 0.352975 0.801401 0.553928
Si Si7 0.300708 0.795447 0.155472
Si Si8 0.858539 0.696993 0.252057
O O1 0.828436 0.233418 0.897092
O O2 0.751967 0.260251 0.842368
O O3 0.831774 0.276472 0.799292
O O4 0.803845 0.000000 0.836782
O O5 0.254287 0.152107 0.957039
O O6 0.058216 0.260558 0.850215
O O7 0.093224 0.273139 0.939043
O O8 0.000000 0.252219 0.922640
O O9 0.053793 0.000000 0.909552
O O10 0.814762 0.192708 0.500000
O O11 0.816287 0.229657 0.398223
O O12 0.768414 0.000000 0.443403
O O13 0.090876 0.239740 0.242728
O O14 0.000000 0.264791 0.222096
O O15 0.047306 0.000000 0.202547
O O16 0.339484 0.724153 0.500000
O O17 0.344044 0.000000 0.552219
O O18 0.329888 0.730750 0.201827
O O19 0.301041 0.000000 0.155565
O O20 0.862104 0.500000 0.261586
#
# Coordination Sequence:
#
# PCOD9523105 Si02
#       8
#    16   4  16  16  16  16  16  16
#     4  11  23  38  55  71 100 143 183 221 272 329
#     4   8  14  32  52  70 116 132 175 234 255 326
#     4   9  18  34  57  79 100 130 171 219 273 335
#     4   9  17  30  53  77 102 143 180 221 270 313
#     4   9  18  34  56  80 107 139 174 217 270 329
#     4  11  24  39  53  74 105 135 174 230 283 329
#     4  10  21  37  53  76 110 145 181 229 275 323
#     4  11  22  35  55  81 110 139 173 222 276 325
#
# _framework density 18.450299000000001
#
# number of rings (size 3 to 8) (size 9 to 14) (size 15 to 20)
#    0.414    1.655    2.069    2.483    0.000    4.690 
#    0.000    5.517    0.000    0.000    0.000    0.000 
#    0.000    0.552    0.000    7.241    0.000    7.172 
#
# Total GULP energy -322957.756393 kJ/mol
# GULP energy per Si atom -5568.237179 kJ/mol
# Density = 1.840831 g / cm^3
# Si number density = 18.450299 Si / 1000 Ang^3
#
#
#
# Elastic Constant Matrix: (Units=GPa)
#
#
# Indices 1 2 3 4 5 6 
#
# 1 83.0869 2.1727 65.0636 0.0000 0.0000 0.0000
# 2 2.1727 41.6514 -5.6112 0.0000 0.0000 0.0000
# 3 65.0636 -5.6112 120.6573 0.0000 0.0000 0.0000
# 4 0.0000 0.0000 0.0000 22.3055 0.0000 0.0000
# 5 0.0000 0.0000 0.0000 0.0000 24.8704 0.0000
# 6 0.0000 0.0000 0.0000 0.0000 0.0000 5.3400
#
#
#
# Elastic Compliance Matrix: (Units=1/GPa)
#
#
# Indices 1 2 3 4 5 6 
#
# 1 0.021120 -0.002653 -0.011512 0.000000 0.000000 0.000000
# 2 -0.002653 0.024493 0.002569 0.000000 0.000000 0.000000
# 3 -0.011512 0.002569 0.014615 0.000000 0.000000 0.000000
# 4 0.000000 0.000000 0.000000 0.044832 0.000000 0.000000
# 5 0.000000 0.000000 0.000000 0.000000 0.040208 0.000000
# 6 0.000000 0.000000 0.000000 0.000000 0.000000 0.187267
#
#
# Mechanical properties :
#
#
# Convention : Reuss Voigt Hill
#
# Bulk Modulus (GPa) = 26.99931 40.96063 33.97997
# Shear Modulus (GPa) = 13.58429 22.75454 18.16942
#
# Velocity S-wave (km/s) = 2.71636 3.51563 3.14152
# Velocity P-wave (km/s) = 4.95010 6.22320 5.62280
#
# Compressibility (1/GPa) = 0.03703799
#
# Stress axis : x y z
#
# Youngs Moduli (GPa) = 47.34885 40.82744 68.42171
#
# Poissons Ratio (x) = 0.10830 0.78768
# Poissons Ratio (y) = 0.12560 -0.17581
# Poissons Ratio (z) = 0.54508 -0.10491
#
# Static dielectric constant tensor:
#      x y z
#    x 1.674430 0.000000 0.000000 
#    y 0.000000 1.684930 0.000000 
#    z 0.000000 0.000000 1.686050 
# 
# From -- ./inp_files/67187.got.cif
#   From: 2010.05.17/outbox.cif.g08.bks.cpg/sg71_34_cif.got.tgz:67187.got - 2010.06.03 16:22:01.
