data_PCOD9523846
_publ_section_title
;
Structure prediction by ZEFSAII (Michael W. Deem and Ramdas Pophale) SiO2 
 PCOD9523846
Probable space group: I M M M
;
_chemical_formula_sum "Si O2"
_cell_formula_units_Z 72
_cell_length_a 19.083590
_cell_length_b 8.397696
_cell_length_c 19.019162
_cell_angle_alpha 90.000000
_cell_angle_beta 90.000000
_cell_angle_gamma 90.000000
_cell_volume 3047.976428
_symmetry_space_group_name_H-M "I M M M"
_symmetry_group_IT_number 71
_symmetry_cell_setting 'orthorhombic'
loop_
_space_group_symop_operation_xyz
x,y,z
-x,-y,z
x,-y,-z
-x,y,-z
-x,-y,-z
x,y,-z
-x,y,z
x,-y,z
1/2+x,1/2+y,1/2+z
1/2-x,1/2-y,1/2+z
1/2+x,1/2-y,1/2-z
1/2-x,1/2+y,1/2-z
1/2-x,1/2-y,1/2-z
1/2+x,1/2+y,1/2-z
1/2-x,1/2+y,1/2+z
1/2+x,1/2-y,1/2+z
loop_
_atom_site_type_symbol
_atom_site_label
_atom_site_fract_x
_atom_site_fract_y
_atom_site_fract_z
Si Si1 0.758766 0.678671 0.000000
Si Si2 0.849787 0.815356 0.121384
Si Si3 0.500000 0.000000 0.141935
Si Si4 0.500000 0.185024 0.584605
Si Si5 0.166834 0.500000 0.500000
Si Si6 0.845538 0.824622 0.286807
Si Si7 0.852885 0.500000 0.343549
Si Si8 0.500000 0.334328 0.146685
O O1 0.806601 0.702956 0.069131
O O2 0.727642 0.500000 0.000000
O O3 0.708265 0.831879 0.000000
O O4 0.930951 0.774377 0.110029
O O5 0.836929 0.798848 0.204187
O O6 0.835276 0.000000 0.101656
O O7 0.430235 0.000000 0.190528
O O8 0.500000 0.829649 0.104594
O O9 0.500000 0.186228 0.500000
O O10 0.500000 0.000000 0.607609
O O11 0.129269 0.500000 0.425606
O O12 0.816995 0.665872 0.324499
O O13 0.928337 0.833004 0.307952
O O14 0.816222 0.000000 0.305998
O O15 0.500000 0.500000 0.105528
#
# Coordination Sequence:
#
# PCOD9523846 Si02
#       8
#     8  16   4   8   4  16   8   8
#     4  12  26  45  66  84 120 175 219 265 320 359
#     4  11  21  38  62  90 131 173 220 265 310 364
#     4   8  16  33  60  98 118 153 176 236 310 377
#     4  11  22  31  50  94 136 181 225 254 295 369
#     4  12  28  51  66  91 116 162 216 266 322 390
#     4   9  19  34  60  94 128 161 202 251 308 372
#     4  10  22  41  70  95 130 155 198 252 320 397
#     4   8  13  27  48  84 129 163 182 219 291 367
#
# _framework density 23.622229000000001
#
# number of rings (size 3 to 8) (size 9 to 14) (size 15 to 20)
#    0.000    1.889    2.222    1.667    3.111    3.333 
#    2.000    1.111    0.000    0.000    0.000    8.556 
#    0.000    0.000    0.000    0.000    0.000    0.000 
#
# Total GULP energy -201034.514477 kJ/mol
# GULP energy per Si atom -5584.292069 kJ/mol
# Density = 2.356846 g / cm^3
# Si number density = 23.622229 Si / 1000 Ang^3
#
#
#
# Elastic Constant Matrix: (Units=GPa)
#
#
# Indices 1 2 3 4 5 6 
#
# 1 72.1011 12.4611 14.4926 0.0000 0.0000 0.0000
# 2 12.4611 243.6601 57.2821 0.0000 0.0000 0.0000
# 3 14.4926 57.2821 87.1974 0.0000 0.0000 0.0000
# 4 0.0000 0.0000 0.0000 21.2100 0.0000 0.0000
# 5 0.0000 0.0000 0.0000 0.0000 -10.2740 0.0000
# 6 0.0000 0.0000 0.0000 0.0000 0.0000 -12.0861
#
#
#
# Elastic Compliance Matrix: (Units=1/GPa)
#
#
# Indices 1 2 3 4 5 6 
#
# 1 0.014357 -0.000205 -0.002252 0.000000 0.000000 0.000000
# 2 -0.000205 0.004857 -0.003156 0.000000 0.000000 0.000000
# 3 -0.002252 -0.003156 0.013916 0.000000 0.000000 0.000000
# 4 0.000000 0.000000 0.000000 0.047148 0.000000 0.000000
# 5 0.000000 0.000000 0.000000 0.000000 -0.097334 0.000000
# 6 0.000000 0.000000 0.000000 0.000000 0.000000 -0.082740
#
#
# Mechanical properties :
#
#
# Convention : Reuss Voigt Hill
#
# Bulk Modulus (GPa) = 45.65350 63.49223 54.57286
# Shear Modulus (GPa) = -61.52440 21.01817 -20.25311
#
# Velocity S-wave (km/s) = -5.10898 2.98612 -2.93127
# Velocity P-wave (km/s) = 3.92858 6.23103 3.41994
#
# Compressibility (1/GPa) = 0.02190413
#
# Stress axis : x y z
#
# Youngs Moduli (GPa) = 69.65040 205.90597 71.86000
#
# Poissons Ratio (x) = 0.04219 0.16180
# Poissons Ratio (y) = 0.01427 0.22682
# Poissons Ratio (z) = 0.15683 0.64991
#
# Static dielectric constant tensor:
#      x y z
#    x 1.954710 0.000000 0.000000 
#    y 0.000000 1.953430 0.000000 
#    z 0.000000 0.000000 1.833680 
# 
# From -- ./inp_files/54751.got.cif
#   From: 2010.05.17/outbox.cif.g08.bks.cpg/sg71_28_cif.got.tgz:54751.got - 2010.06.03 16:22:01.
