data_PCOD9523206
_publ_section_title
;
Structure prediction by ZEFSAII (Michael W. Deem and Ramdas Pophale) SiO2 
 PCOD9523206
Probable space group: I M M M
;
_chemical_formula_sum "Si O2"
_cell_formula_units_Z 64
_cell_length_a 25.045896
_cell_length_b 7.652490
_cell_length_c 18.526166
_cell_angle_alpha 90.000000
_cell_angle_beta 90.000000
_cell_angle_gamma 90.000000
_cell_volume 3550.789237
_symmetry_space_group_name_H-M "I M M M"
_symmetry_group_IT_number 71
_symmetry_cell_setting 'orthorhombic'
loop_
_space_group_symop_operation_xyz
x,y,z
-x,-y,z
x,-y,-z
-x,y,-z
-x,-y,-z
x,y,-z
-x,y,z
x,-y,z
1/2+x,1/2+y,1/2+z
1/2-x,1/2-y,1/2+z
1/2+x,1/2-y,1/2-z
1/2-x,1/2+y,1/2-z
1/2-x,1/2-y,1/2-z
1/2+x,1/2+y,1/2-z
1/2-x,1/2+y,1/2+z
1/2+x,1/2-y,1/2+z
loop_
_atom_site_type_symbol
_atom_site_label
_atom_site_fract_x
_atom_site_fract_y
_atom_site_fract_z
Si Si1 0.755787 0.500000 0.912429
Si Si2 0.938149 0.700538 0.653015
Si Si3 0.559639 0.711447 0.319964
Si Si4 0.133592 0.000000 0.413477
Si Si5 0.161493 0.794640 0.913706
O O1 0.694877 0.500000 0.887054
O O2 0.789700 0.329272 0.891187
O O3 0.753789 0.500000 0.000000
O O4 0.929659 0.500000 0.631393
O O5 0.932043 0.716940 0.739512
O O6 0.000000 0.748099 0.637050
O O7 0.897919 0.831834 0.615308
O O8 0.500000 0.763982 0.344364
O O9 0.560000 0.500000 0.314790
O O10 0.607508 0.760381 0.372892
O O11 0.133356 0.000000 0.500000
O O12 0.171658 0.000000 0.898778
O O13 0.154154 0.776645 0.000000
#
# Coordination Sequence:
#
# PCOD9523206 Si02
#       5
#     8  16  16   8  16
#     4   9  20  37  55  77 107 145 185 224 270 314
#     4  10  21  37  58  83 111 142 173 215 277 335
#     4   9  17  32  56  81 111 149 181 217 270 324
#     4  11  23  40  61  81 105 139 181 227 273 327
#     4   9  18  33  54  79 111 148 185 226 264 306
#
# _framework density 18.024163000000001
#
# number of rings (size 3 to 8) (size 9 to 14) (size 15 to 20)
#    0.000    2.500    1.250    0.375    1.750    3.000 
#    0.000    7.500    0.000    2.250    0.000    0.000 
#    0.000    0.000    0.000    0.000    0.000    0.000 
#
# Total GULP energy -178523.481864 kJ/mol
# GULP energy per Si atom -5578.858808 kJ/mol
# Density = 1.798314 g / cm^3
# Si number density = 18.024163 Si / 1000 Ang^3
#
#
#
# Elastic Constant Matrix: (Units=GPa)
#
#
# Indices 1 2 3 4 5 6 
#
# 1 192.0828 99.2506 63.6718 0.0000 0.0000 0.0000
# 2 99.2506 94.5694 36.7501 0.0000 0.0000 0.0000
# 3 63.6718 36.7501 36.0083 0.0000 0.0000 0.0000
# 4 0.0000 0.0000 0.0000 8.4248 0.0000 0.0000
# 5 0.0000 0.0000 0.0000 0.0000 143.2785 0.0000
# 6 0.0000 0.0000 0.0000 0.0000 0.0000 25.4722
#
#
#
# Elastic Compliance Matrix: (Units=1/GPa)
#
#
# Indices 1 2 3 4 5 6 
#
# 1 0.016973 -0.010193 -0.019610 0.000000 0.000000 0.000000
# 2 -0.010193 0.023646 -0.006110 0.000000 0.000000 0.000000
# 3 -0.019610 -0.006110 0.068682 0.000000 0.000000 0.000000
# 4 0.000000 0.000000 0.000000 0.118697 0.000000 0.000000
# 5 0.000000 0.000000 0.000000 0.000000 0.006979 0.000000
# 6 0.000000 0.000000 0.000000 0.000000 0.000000 0.039259
#
#
# Mechanical properties :
#
#
# Convention : Reuss Voigt Hill
#
# Bulk Modulus (GPa) = 26.68337 80.22282 53.45309
# Shear Modulus (GPa) = 13.94494 43.63429 28.78961
#
# Velocity S-wave (km/s) = 2.78453 4.92558 4.00093
# Velocity P-wave (km/s) = 5.01742 8.77232 7.14591
#
# Compressibility (1/GPa) = 0.03747653
#
# Stress axis : x y z
#
# Youngs Moduli (GPa) = 58.91684 42.29100 14.55979
#
# Poissons Ratio (x) = 0.43106 0.28552
# Poissons Ratio (y) = 0.60052 0.08895
# Poissons Ratio (z) = 1.15536 0.25838
#
# Static dielectric constant tensor:
#      x y z
#    x 1.604830 0.000000 0.000000 
#    y 0.000000 1.631320 0.000000 
#    z 0.000000 0.000000 1.592320 
# 
# From -- ./inp_files/9813.got.cif
#   From: 2010.05.17/outbox.cif.g08.bks.cpg/sg71_5_cif.got.tgz:9813.got - 2010.06.03 16:22:01.
