data_PCOD9523445
_publ_section_title
;
Structure prediction by ZEFSAII (Michael W. Deem and Ramdas Pophale) SiO2 
 PCOD9523445
Probable space group: I M M M
;
_chemical_formula_sum "Si O2"
_cell_formula_units_Z 58
_cell_length_a 8.795208
_cell_length_b 26.054819
_cell_length_c 14.674222
_cell_angle_alpha 90.000000
_cell_angle_beta 90.000000
_cell_angle_gamma 90.000000
_cell_volume 3362.708798
_symmetry_space_group_name_H-M "I M M M"
_symmetry_group_IT_number 71
_symmetry_cell_setting 'orthorhombic'
loop_
_space_group_symop_operation_xyz
x,y,z
-x,-y,z
x,-y,-z
-x,y,-z
-x,-y,-z
x,y,-z
-x,y,z
x,-y,z
1/2+x,1/2+y,1/2+z
1/2-x,1/2-y,1/2+z
1/2+x,1/2-y,1/2-z
1/2-x,1/2+y,1/2-z
1/2-x,1/2-y,1/2-z
1/2+x,1/2+y,1/2-z
1/2-x,1/2+y,1/2+z
1/2+x,1/2-y,1/2+z
loop_
_atom_site_type_symbol
_atom_site_label
_atom_site_fract_x
_atom_site_fract_y
_atom_site_fract_z
Si Si1 0.679182 0.759042 0.000000
Si Si2 0.168019 0.500000 0.810127
Si Si3 0.180922 0.299462 0.300720
Si Si4 0.000000 0.500000 0.000000
Si Si5 0.819512 0.352505 0.000000
Si Si6 0.181158 0.107874 0.310595
O O1 0.705744 0.790828 0.091847
O O2 0.500000 0.742986 0.000000
O O3 0.780462 0.707879 0.000000
O O4 0.257637 0.448464 0.787463
O O5 0.000000 0.500000 0.765819
O O6 0.129793 0.500000 0.918461
O O7 0.250000 0.250000 0.250000
O O8 0.258099 0.349881 0.260159
O O9 0.000000 0.301555 0.283588
O O10 0.748486 0.376418 0.090866
O O11 0.000000 0.362398 0.000000
O O12 0.000000 0.109179 0.314479
#
# Coordination Sequence:
#
# PCOD9523445 Si02
#       6
#     8   8  16   2   8  16
#     4  10  22  39  58  83 120 154 197 247 298 348
#     4  10  21  39  59  84 113 154 197 245 286 350
#     4  11  22  38  59  87 117 156 199 246 296 351
#     4   8  20  36  62  84 120 142 202 240 292 346
#     4  12  23  34  56  84 117 160 198 242 291 349
#     4  12  24  38  58  85 121 158 199 242 295 356
#
# _framework density 17.248000000000001
#
# number of rings (size 3 to 8) (size 9 to 14) (size 15 to 20)
#    0.414    0.552    2.759    5.793    1.931    1.103 
#    0.000    2.069    0.000    0.828    0.000    5.793 
#    0.000    0.000    0.000    0.000    0.000    0.000 
#
# Total GULP energy -161818.505834 kJ/mol
# GULP energy per Si atom -5579.948477 kJ/mol
# Density = 1.720874 g / cm^3
# Si number density = 17.248000 Si / 1000 Ang^3
#
#
#
# Elastic Constant Matrix: (Units=GPa)
#
#
# Indices 1 2 3 4 5 6 
#
# 1 170.8773 90.1519 67.4236 0.0000 0.0000 0.0000
# 2 90.1519 165.5395 59.7383 0.0000 0.0000 0.0000
# 3 67.4236 59.7383 97.6218 -0.0001 0.0000 0.0000
# 4 0.0000 0.0000 -0.0001 -4.6099 0.0000 0.0000
# 5 0.0000 0.0000 0.0000 0.0000 21.4974 0.0000
# 6 0.0000 0.0000 0.0000 0.0000 0.0000 34.6568
#
#
#
# Elastic Compliance Matrix: (Units=1/GPa)
#
#
# Indices 1 2 3 4 5 6 
#
# 1 0.009454 -0.003584 -0.004336 0.000000 0.000000 0.000000
# 2 -0.003584 0.009111 -0.003100 0.000000 0.000000 0.000000
# 3 -0.004336 -0.003100 0.015136 0.000000 0.000000 0.000000
# 4 0.000000 0.000000 0.000000 -0.216926 0.000000 0.000000
# 5 0.000000 0.000000 0.000000 0.000000 0.046517 0.000000
# 6 0.000000 0.000000 0.000000 0.000000 0.000000 0.028854
#
#
# Mechanical properties :
#
#
# Convention : Reuss Voigt Hill
#
# Bulk Modulus (GPa) = 85.76337 96.51847 91.14092
# Shear Modulus (GPa) = -61.03133 24.75719 -18.13707
#
# Velocity S-wave (km/s) = -5.95495 3.79273 -3.24627
# Velocity P-wave (km/s) = 1.59679 8.67528 6.23740
#
# Compressibility (1/GPa) = 0.01165999
#
# Stress axis : x y z
#
# Youngs Moduli (GPa) = 105.77685 109.75318 66.06788
#
# Poissons Ratio (x) = 0.39331 0.28650
# Poissons Ratio (y) = 0.37906 0.20484
# Poissons Ratio (z) = 0.45870 0.34029
#
# Static dielectric constant tensor:
#      x y z
#    x 1.583950 0.000000 0.000000 
#    y 0.000000 1.579320 0.000000 
#    z 0.000000 0.000000 1.559510 
# 
# From -- ./inp_files/31154.got.cif
#   From: 2010.05.17/outbox.cif.g08.bks.cpg/sg71_16_cif.got.tgz:31154.got - 2010.06.03 16:22:01.
