data_PCOD9523715
_publ_section_title
;
Structure prediction by ZEFSAII (Michael W. Deem and Ramdas Pophale) SiO2 
 PCOD9523715
Probable space group: I M M M
;
_chemical_formula_sum "Si O2"
_cell_formula_units_Z 72
_cell_length_a 8.820301
_cell_length_b 30.643776
_cell_length_c 14.707856
_cell_angle_alpha 90.000000
_cell_angle_beta 90.000000
_cell_angle_gamma 90.000000
_cell_volume 3975.347100
_symmetry_space_group_name_H-M "I M M M"
_symmetry_group_IT_number 71
_symmetry_cell_setting 'orthorhombic'
loop_
_space_group_symop_operation_xyz
x,y,z
-x,-y,z
x,-y,-z
-x,y,-z
-x,-y,-z
x,y,-z
-x,y,z
x,-y,z
1/2+x,1/2+y,1/2+z
1/2-x,1/2-y,1/2+z
1/2+x,1/2-y,1/2-z
1/2-x,1/2+y,1/2-z
1/2-x,1/2-y,1/2-z
1/2+x,1/2+y,1/2-z
1/2-x,1/2+y,1/2+z
1/2+x,1/2-y,1/2+z
loop_
_atom_site_type_symbol
_atom_site_label
_atom_site_fract_x
_atom_site_fract_y
_atom_site_fract_z
Si Si1 0.826198 0.053097 0.000000
Si Si2 0.182147 0.629609 0.187423
Si Si3 0.819297 0.759325 0.000000
Si Si4 0.682262 0.050103 0.809811
Si Si5 0.819244 0.837305 0.500000
Si Si6 0.181880 0.791900 0.198592
O O1 0.746744 0.066375 0.093637
O O2 0.000000 0.067435 0.000000
O O3 0.821645 0.000000 0.000000
O O4 0.224588 0.582640 0.228971
O O5 0.253635 0.640086 0.090095
O O6 0.242612 0.665854 0.257470
O O7 0.000000 0.632522 0.180867
O O8 0.733860 0.713177 0.000000
O O9 0.785497 0.785633 0.908187
O O10 0.000000 0.749651 0.000000
O O11 0.500000 0.049898 0.816600
O O12 0.732723 0.000000 0.795260
O O13 0.000000 0.839074 0.500000
O O14 0.250000 0.750000 0.250000
O O15 0.000000 0.793285 0.211145
#
# Coordination Sequence:
#
# PCOD9523715 Si02
#       6
#     8  16   8  16   8  16
#     4   9  17  30  53  84 116 150 184 228 288 342
#     4  11  23  39  60  85 116 151 192 243 292 343
#     4  10  22  39  59  81 115 154 191 236 286 337
#     4   9  19  37  60  85 115 155 199 239 282 338
#     4  12  24  38  60  84 110 150 195 237 287 355
#     4  11  22  37  58  85 116 152 191 235 284 339
#
# _framework density 18.111626999999999
#
# number of rings (size 3 to 8) (size 9 to 14) (size 15 to 20)
#    0.000    1.667    2.222    2.667    0.000    4.889 
#    0.000    2.778    0.000    3.333    0.000    0.000 
#    0.000    0.000    0.000    0.000    0.000    0.000 
#
# Total GULP energy -201085.127522 kJ/mol
# GULP energy per Si atom -5585.697987 kJ/mol
# Density = 1.807040 g / cm^3
# Si number density = 18.111627 Si / 1000 Ang^3
#
#
#
# Elastic Constant Matrix: (Units=GPa)
#
#
# Indices 1 2 3 4 5 6 
#
# 1 63.4701 44.6278 69.8545 0.0001 0.0000 0.0000
# 2 44.6278 101.8142 80.3113 0.0001 0.0000 0.0000
# 3 69.8545 80.3113 183.5771 0.0005 -0.0001 0.0000
# 4 0.0001 0.0001 0.0005 21.2154 0.0000 0.0000
# 5 0.0000 0.0000 -0.0001 0.0000 22.5027 0.0000
# 6 0.0000 0.0000 0.0000 0.0000 0.0000 22.6620
#
#
#
# Elastic Compliance Matrix: (Units=1/GPa)
#
#
# Indices 1 2 3 4 5 6 
#
# 1 0.029480 -0.006220 -0.008497 0.000000 0.000000 0.000000
# 2 -0.006220 0.016309 -0.004768 0.000000 0.000000 0.000000
# 3 -0.008497 -0.004768 0.010767 0.000000 0.000000 0.000000
# 4 0.000000 0.000000 0.000000 0.047136 0.000000 0.000000
# 5 0.000000 0.000000 0.000000 0.000000 0.044439 0.000000
# 6 0.000000 0.000000 0.000000 0.000000 0.000000 0.044127
#
#
# Mechanical properties :
#
#
# Convention : Reuss Voigt Hill
#
# Bulk Modulus (GPa) = 56.86170 82.04984 69.45577
# Shear Modulus (GPa) = 21.08914 23.54722 22.31818
#
# Velocity S-wave (km/s) = 3.41603 3.60962 3.51416
# Velocity P-wave (km/s) = 6.85728 7.92295 7.40930
#
# Compressibility (1/GPa) = 0.01758653
#
# Stress axis : x y z
#
# Youngs Moduli (GPa) = 33.92116 61.31480 92.88050
#
# Poissons Ratio (x) = 0.38135 0.78919
# Poissons Ratio (y) = 0.21098 0.44288
# Poissons Ratio (z) = 0.28822 0.29237
#
# Static dielectric constant tensor:
#      x y z
#    x 1.610490 0.000000 0.000000 
#    y 0.000000 1.617490 0.000000 
#    z 0.000000 0.000000 1.604800 
# 
# From -- ./inp_files/14380.got.cif
#   From: 2010.05.17/outbox.cif.g08.bks.cpg/sg71_8_cif.got.tgz:14380.got - 2010.06.03 16:22:01.
