data_PCOD9523178
_publ_section_title
;
Structure prediction by ZEFSAII (Michael W. Deem and Ramdas Pophale) SiO2 
 PCOD9523178
Probable space group: I M M M
;
_chemical_formula_sum "Si O2"
_cell_formula_units_Z 104
_cell_length_a 26.736482
_cell_length_b 7.806857
_cell_length_c 22.120595
_cell_angle_alpha 90.000000
_cell_angle_beta 90.000000
_cell_angle_gamma 90.000000
_cell_volume 4617.185157
_symmetry_space_group_name_H-M "I M M M"
_symmetry_group_IT_number 71
_symmetry_cell_setting 'orthorhombic'
loop_
_space_group_symop_operation_xyz
x,y,z
-x,-y,z
x,-y,-z
-x,y,-z
-x,-y,-z
x,y,-z
-x,y,z
x,-y,z
1/2+x,1/2+y,1/2+z
1/2-x,1/2-y,1/2+z
1/2+x,1/2-y,1/2-z
1/2-x,1/2+y,1/2-z
1/2-x,1/2-y,1/2-z
1/2+x,1/2+y,1/2-z
1/2-x,1/2+y,1/2+z
1/2+x,1/2-y,1/2+z
loop_
_atom_site_type_symbol
_atom_site_label
_atom_site_fract_x
_atom_site_fract_y
_atom_site_fract_z
Si Si1 0.555634 0.294279 0.664724
Si Si2 0.788599 0.199894 0.565353
Si Si3 0.500000 0.792101 0.071029
Si Si4 0.391541 0.802237 0.891300
Si Si5 0.213697 0.293316 0.837260
Si Si6 0.628609 0.794842 0.567473
Si Si7 0.139212 0.202963 0.259558
O O1 0.500000 0.228239 0.675917
O O2 0.554737 0.500000 0.669762
O O3 0.576264 0.249422 0.598711
O O4 0.596967 0.232764 0.712490
O O5 0.772884 0.274882 0.500000
O O6 0.848057 0.211853 0.571134
O O7 0.763484 0.266712 0.627445
O O8 0.773882 0.000000 0.563610
O O9 0.552267 0.732364 0.100251
O O10 0.500000 0.000000 0.076805
O O11 0.500000 0.750033 0.000000
O O12 0.373109 0.790154 0.822501
O O13 0.392019 0.000000 0.911056
O O14 0.214884 0.500000 0.831419
O O15 0.171520 0.237456 0.886286
O O16 0.192793 0.228849 0.773065
O O17 0.633911 0.726236 0.500000
O O18 0.633022 0.000000 0.564844
O O19 0.133716 0.000000 0.269452
#
# Coordination Sequence:
#
# PCOD9523178 Si02
#       7
#    16  16   8  16  16  16  16
#     4   9  19  34  50  70 100 140 181 227 282 336
#     4  10  21  38  61  89 119 151 189 234 286 341
#     4   9  20  40  63  87 117 151 188 233 286 343
#     4  11  23  39  61  88 116 151 191 235 287 344
#     4   9  18  35  58  82 112 150 189 231 279 335
#     4   9  17  30  49  74 103 137 180 228 277 328
#     4  10  21  37  57  82 113 148 190 238 286 337
#
# _framework density 22.524545
#
# number of rings (size 3 to 8) (size 9 to 14) (size 15 to 20)
#    0.000    2.385    0.000    1.846    1.077    5.538 
#    0.000    2.692    0.000    5.538    0.000    0.000 
#    0.000    0.000    0.000    0.000    0.000    0.000 
#
# Total GULP energy -290235.617810 kJ/mol
# GULP energy per Si atom -5581.454189 kJ/mol
# Density = 2.247328 g / cm^3
# Si number density = 22.524545 Si / 1000 Ang^3
#
#
#
# Elastic Constant Matrix: (Units=GPa)
#
#
# Indices 1 2 3 4 5 6 
#
# 1 138.7060 -1.8537 35.9180 0.0000 0.0000 0.0000
# 2 -1.8537 29.8074 -7.3618 0.0000 0.0000 0.0000
# 3 35.9180 -7.3618 105.8274 0.0000 0.0000 0.0000
# 4 0.0000 0.0000 0.0000 10.3497 0.0000 0.0000
# 5 0.0000 0.0000 0.0000 0.0000 21.1554 0.0000
# 6 0.0000 0.0000 0.0000 0.0000 0.0000 21.3362
#
#
#
# Elastic Compliance Matrix: (Units=1/GPa)
#
#
# Indices 1 2 3 4 5 6 
#
# 1 0.007905 -0.000174 -0.002695 0.000000 0.000000 0.000000
# 2 -0.000174 0.034139 0.002434 0.000000 0.000000 0.000000
# 3 -0.002695 0.002434 0.010533 0.000000 0.000000 0.000000
# 4 0.000000 0.000000 0.000000 0.096621 0.000000 0.000000
# 5 0.000000 0.000000 0.000000 0.000000 0.047269 0.000000
# 6 0.000000 0.000000 0.000000 0.000000 0.000000 0.046869
#
#
# Mechanical properties :
#
#
# Convention : Reuss Voigt Hill
#
# Bulk Modulus (GPa) = 19.33972 36.41623 27.87797
# Shear Modulus (GPa) = 19.12463 27.07746 23.10104
#
# Velocity S-wave (km/s) = 2.91702 3.47094 3.20596
# Velocity P-wave (km/s) = 4.46655 5.68029 5.10958
#
# Compressibility (1/GPa) = 0.05170706
#
# Stress axis : x y z
#
# Youngs Moduli (GPa) = 126.50119 29.29197 94.93625
#
# Poissons Ratio (x) = 0.00510 0.25586
# Poissons Ratio (y) = 0.02202 -0.23107
# Poissons Ratio (z) = 0.34093 -0.07129
#
# Static dielectric constant tensor:
#      x y z
#    x 1.862440 0.000000 0.000000 
#    y 0.000000 1.816500 0.000000 
#    z 0.000000 0.000000 1.857700 
# 
# From -- ./inp_files/56220.got.cif
#   From: 2010.05.17/outbox.cif.g08.bks.cpg/sg71_29_cif.got.tgz:56220.got - 2010.06.03 16:22:01.
