data_PCOD9523209
_publ_section_title
;
Structure prediction by ZEFSAII (Michael W. Deem and Ramdas Pophale) SiO2 
 PCOD9523209
Probable space group: I M M M
;
_chemical_formula_sum "Si O2"
_cell_formula_units_Z 116
_cell_length_a 22.871655
_cell_length_b 7.647401
_cell_length_c 32.354828
_cell_angle_alpha 90.000000
_cell_angle_beta 90.000000
_cell_angle_gamma 90.000000
_cell_volume 5659.141465
_symmetry_space_group_name_H-M "I M M M"
_symmetry_group_IT_number 71
_symmetry_cell_setting 'orthorhombic'
loop_
_space_group_symop_operation_xyz
x,y,z
-x,-y,z
x,-y,-z
-x,y,-z
-x,-y,-z
x,y,-z
-x,y,z
x,-y,z
1/2+x,1/2+y,1/2+z
1/2-x,1/2-y,1/2+z
1/2+x,1/2-y,1/2-z
1/2-x,1/2+y,1/2-z
1/2-x,1/2-y,1/2-z
1/2+x,1/2+y,1/2-z
1/2-x,1/2+y,1/2+z
1/2+x,1/2-y,1/2+z
loop_
_atom_site_type_symbol
_atom_site_label
_atom_site_fract_x
_atom_site_fract_y
_atom_site_fract_z
Si Si1 0.827879 0.711778 0.547640
Si Si2 0.782885 0.195650 0.708336
Si Si3 0.673648 0.292462 0.660131
Si Si4 0.659733 0.000000 0.500000
Si Si5 0.590455 0.802676 0.196781
Si Si6 0.565152 0.213955 0.105119
Si Si7 0.806777 0.207270 0.934410
Si Si8 0.063311 0.795485 0.211205
O O1 0.831745 0.773514 0.500000
O O2 0.831949 0.500000 0.546676
O O3 0.881236 0.773957 0.576378
O O4 0.763016 0.750828 0.564572
O O5 0.750000 0.250000 0.750000
O O6 0.733941 0.205656 0.673598
O O7 0.839250 0.306915 0.697826
O O8 0.805396 0.000000 0.713887
O O9 0.680663 0.500000 0.669399
O O10 0.667185 0.274283 0.611359
O O11 0.619577 0.222593 0.687246
O O12 0.663535 0.155353 0.464519
O O13 0.572243 0.725686 0.152632
O O14 0.571216 0.715979 0.239476
O O15 0.567694 0.000000 0.198401
O O16 0.500000 0.261047 0.090133
O O17 0.568118 0.000000 0.106109
O O18 0.811472 0.000000 0.946202
O O19 0.000000 0.718288 0.200357
O O20 0.061891 0.000000 0.199895
#
# Coordination Sequence:
#
# PCOD9523209 Si02
#       8
#    16  16  16   4  16  16  16  16
#     4   9  16  30  52  77 107 142 183 237 296 347
#     4  12  23  35  54  82 115 151 194 244 296 353
#     4  10  21  38  59  84 120 156 192 240 298 352
#     4  12  22  36  64  94 122 152 194 232 304 364
#     4  11  21  35  54  77 110 156 198 241 293 349
#     4   9  18  31  49  76 107 144 195 245 289 341
#     4  10  21  38  60  89 123 155 188 240 299 363
#     4  10  21  37  58  83 113 152 197 242 287 339
#
# _framework density 20.497810000000001
#
# number of rings (size 3 to 8) (size 9 to 14) (size 15 to 20)
#    0.000    1.793    2.069    3.103    0.966    3.310 
#    0.000    1.379    0.000    0.000    0.000    1.448 
#    0.000    3.310    0.000    0.000    0.000    0.000 
#
# Total GULP energy -323344.265815 kJ/mol
# GULP energy per Si atom -5574.901135 kJ/mol
# Density = 2.045116 g / cm^3
# Si number density = 20.497810 Si / 1000 Ang^3
#
#
#
# Elastic Constant Matrix: (Units=GPa)
#
#
# Indices 1 2 3 4 5 6 
#
# 1 89.1493 -0.5384 21.9365 0.0000 0.0000 0.0000
# 2 -0.5384 67.2460 13.4937 0.0000 0.0000 0.0000
# 3 21.9365 13.4937 93.1376 0.0000 0.0000 0.0000
# 4 0.0000 0.0000 0.0000 27.1401 0.0000 0.0000
# 5 0.0000 0.0000 0.0000 0.0000 -97.7854 0.0000
# 6 0.0000 0.0000 0.0000 0.0000 0.0000 3.0334
#
#
#
# Elastic Compliance Matrix: (Units=1/GPa)
#
#
# Indices 1 2 3 4 5 6 
#
# 1 0.011937 0.000680 -0.002910 0.000000 0.000000 0.000000
# 2 0.000680 0.015355 -0.002385 0.000000 0.000000 0.000000
# 3 -0.002910 -0.002385 0.011768 0.000000 0.000000 0.000000
# 4 0.000000 0.000000 0.000000 0.036846 0.000000 0.000000
# 5 0.000000 0.000000 0.000000 0.000000 -0.010226 0.000000
# 6 0.000000 0.000000 0.000000 0.000000 0.000000 0.329668
#
#
# Mechanical properties :
#
#
# Convention : Reuss Voigt Hill
#
# Bulk Modulus (GPa) = 33.52394 35.47961 34.50178
# Shear Modulus (GPa) = 12.06213 0.78701 6.42457
#
# Velocity S-wave (km/s) = 2.42845 0.62031 1.77231
# Velocity P-wave (km/s) = 4.92479 4.22606 4.58874
#
# Compressibility (1/GPa) = 0.02982943
#
# Stress axis : x y z
#
# Youngs Moduli (GPa) = 83.77110 65.12651 84.97850
#
# Poissons Ratio (x) = -0.04425 0.24729
# Poissons Ratio (y) = -0.05692 0.20264
# Poissons Ratio (z) = 0.24377 0.15530
#
# Static dielectric constant tensor:
#      x y z
#    x 1.739830 0.000000 0.000000 
#    y 0.000000 1.794290 0.000000 
#    z 0.000000 0.000000 1.717300 
# 
# From -- ./inp_files/71057.got.cif
#   From: 2010.05.17/outbox.cif.g08.bks.cpg/sg71_36_cif.got.tgz:71057.got - 2010.06.03 16:22:01.
