data_PCOD9523227
_publ_section_title
;
Structure prediction by ZEFSAII (Michael W. Deem and Ramdas Pophale) SiO2 
 PCOD9523227
Probable space group: I M M M
;
_chemical_formula_sum "Si O2"
_cell_formula_units_Z 72
_cell_length_a 27.043881
_cell_length_b 14.945329
_cell_length_c 8.837851
_cell_angle_alpha 90.000000
_cell_angle_beta 90.000000
_cell_angle_gamma 90.000000
_cell_volume 3572.079957
_symmetry_space_group_name_H-M "I M M M"
_symmetry_group_IT_number 71
_symmetry_cell_setting 'orthorhombic'
loop_
_space_group_symop_operation_xyz
x,y,z
-x,-y,z
x,-y,-z
-x,y,-z
-x,-y,-z
x,y,-z
-x,y,z
x,-y,z
1/2+x,1/2+y,1/2+z
1/2-x,1/2-y,1/2+z
1/2+x,1/2-y,1/2-z
1/2-x,1/2+y,1/2-z
1/2-x,1/2-y,1/2-z
1/2+x,1/2+y,1/2-z
1/2-x,1/2+y,1/2+z
1/2+x,1/2-y,1/2+z
loop_
_atom_site_type_symbol
_atom_site_label
_atom_site_fract_x
_atom_site_fract_y
_atom_site_fract_z
Si Si1 0.500000 0.104674 0.318323
Si Si2 0.162821 0.400703 0.175367
Si Si3 0.374099 0.397660 0.318926
Si Si4 0.912475 0.277981 0.321955
Si Si5 0.770538 0.840760 0.677032
O O1 0.500000 0.106183 0.500000
O O2 0.453021 0.159160 0.256589
O O3 0.500000 0.000000 0.270706
O O4 0.142968 0.500000 0.207123
O O5 0.139124 0.327335 0.283158
O O6 0.221906 0.402118 0.186496
O O7 0.150812 0.377634 0.000000
O O8 0.375402 0.388776 0.500000
O O9 0.387213 0.500000 0.278574
O O10 0.408458 0.321426 0.246052
O O11 0.318348 0.378034 0.261665
O O12 0.921041 0.274126 0.500000
O O13 0.782930 0.828344 0.500000
O O14 0.750000 0.750000 0.750000
#
# Coordination Sequence:
#
# PCOD9523227 Si02
#       5
#     8  16  16  16  16
#     4  11  25  47  74  99 128 165 201 246 310 379
#     4  10  21  37  58  85 122 167 210 253 307 372
#     4  11  24  42  64  90 125 171 219 264 313 372
#     4  12  25  41  65  95 127 161 203 260 316 373
#     4  11  21  35  58  88 125 169 215 261 312 367
#
# _framework density 20.156324000000001
#
# number of rings (size 3 to 8) (size 9 to 14) (size 15 to 20)
#    0.000    1.000    2.222    5.000    0.000    7.556 
#    0.000    0.556    0.000    3.333    0.000    0.000 
#    0.000    0.000    0.000    0.000    0.000    0.000 
#
# Total GULP energy -201267.505381 kJ/mol
# GULP energy per Si atom -5590.764038 kJ/mol
# Density = 2.011045 g / cm^3
# Si number density = 20.156324 Si / 1000 Ang^3
#
#
#
# Elastic Constant Matrix: (Units=GPa)
#
#
# Indices 1 2 3 4 5 6 
#
# 1 74.5738 49.0834 32.5958 0.0000 0.0000 0.0000
# 2 49.0834 183.2414 79.2415 0.0000 0.0000 0.0000
# 3 32.5958 79.2415 106.6343 0.0000 0.0000 0.0000
# 4 0.0000 0.0000 0.0000 16.4705 0.0000 0.0000
# 5 0.0000 0.0000 0.0000 0.0000 33.4959 0.0000
# 6 0.0000 0.0000 0.0000 0.0000 0.0000 27.9709
#
#
#
# Elastic Compliance Matrix: (Units=1/GPa)
#
#
# Indices 1 2 3 4 5 6 
#
# 1 0.016767 -0.003352 -0.002634 0.000000 0.000000 0.000000
# 2 -0.003352 0.008712 -0.005449 0.000000 0.000000 0.000000
# 3 -0.002634 -0.005449 0.014232 0.000000 0.000000 0.000000
# 4 0.000000 0.000000 0.000000 0.060715 0.000000 0.000000
# 5 0.000000 0.000000 0.000000 0.000000 0.029854 0.000000
# 6 0.000000 0.000000 0.000000 0.000000 0.000000 0.035751
#
#
# Mechanical properties :
#
#
# Convention : Reuss Voigt Hill
#
# Bulk Modulus (GPa) = 59.38177 76.25456 67.81816
# Shear Modulus (GPa) = 25.70481 29.15605 27.43043
#
# Velocity S-wave (km/s) = 3.57497 3.80741 3.69302
# Velocity P-wave (km/s) = 6.82386 7.56586 7.20442
#
# Compressibility (1/GPa) = 0.01684018
#
# Stress axis : x y z
#
# Youngs Moduli (GPa) = 59.63981 114.78977 70.26224
#
# Poissons Ratio (x) = 0.38479 0.18510
# Poissons Ratio (y) = 0.19992 0.38286
# Poissons Ratio (z) = 0.15712 0.62549
#
# Static dielectric constant tensor:
#      x y z
#    x 1.751460 0.000000 0.000000 
#    y 0.000000 1.736460 0.000000 
#    z 0.000000 0.000000 1.679600 
# 
# From -- ./inp_files/6011.got.cif
#   From: 2010.05.17/outbox.cif.g08.bks.cpg/sg71_4_cif.got.tgz:6011.got - 2010.06.03 16:22:01.
