data_PCOD9523961
_publ_section_title
;
Structure prediction by ZEFSAII (Michael W. Deem and Ramdas Pophale) SiO2 
 PCOD9523961
Probable space group: I M M M
;
_chemical_formula_sum "Si O2"
_cell_formula_units_Z 104
_cell_length_a 8.872856
_cell_length_b 30.292356
_cell_length_c 20.254075
_cell_angle_alpha 90.000000
_cell_angle_beta 90.000000
_cell_angle_gamma 90.000000
_cell_volume 5443.884459
_symmetry_space_group_name_H-M "I M M M"
_symmetry_group_IT_number 71
_symmetry_cell_setting 'orthorhombic'
loop_
_space_group_symop_operation_xyz
x,y,z
-x,-y,z
x,-y,-z
-x,y,-z
-x,-y,-z
x,y,-z
-x,y,z
x,-y,z
1/2+x,1/2+y,1/2+z
1/2-x,1/2-y,1/2+z
1/2+x,1/2-y,1/2-z
1/2-x,1/2+y,1/2-z
1/2-x,1/2-y,1/2-z
1/2+x,1/2+y,1/2-z
1/2-x,1/2+y,1/2+z
1/2+x,1/2-y,1/2+z
loop_
_atom_site_type_symbol
_atom_site_label
_atom_site_fract_x
_atom_site_fract_y
_atom_site_fract_z
Si Si1 0.826173 0.828451 0.392017
Si Si2 0.680305 0.130414 0.142887
Si Si3 0.679696 0.233470 0.500000
Si Si4 0.678595 0.082636 0.358200
Si Si5 0.679827 0.829935 0.000000
Si Si6 0.169716 0.000000 0.577621
Si Si7 0.673654 0.297521 0.740826
Si Si8 0.318950 0.552287 0.279747
O O1 0.748765 0.791189 0.436247
O O2 0.735660 0.873795 0.394888
O O3 0.825466 0.816976 0.314581
O O4 0.000000 0.833906 0.412862
O O5 0.500000 0.127859 0.151670
O O6 0.743220 0.169230 0.190765
O O7 0.753828 0.083749 0.163077
O O8 0.712739 0.143658 0.067243
O O9 0.500000 0.229925 0.500000
O O10 0.731521 0.284028 0.500000
O O11 0.500000 0.083612 0.350074
O O12 0.754723 0.074466 0.286925
O O13 0.737099 0.041888 0.400069
O O14 0.500000 0.820021 0.000000
O O15 0.154485 0.000000 0.500000
O O16 0.000000 0.000000 0.607760
O O17 0.500000 0.292546 0.719066
O O18 0.750000 0.250000 0.750000
O O19 0.500000 0.554776 0.279187
O O20 0.276994 0.500000 0.282913
#
# Coordination Sequence:
#
# PCOD9523961 Si02
#       8
#    16  16   8  16   8   8  16  16
#     4  11  24  42  62  86 125 170 209 256 318 378
#     4  11  23  41  67  95 128 166 215 268 324 391
#     4  12  26  42  64  94 126 168 222 271 314 379
#     4  12  24  39  63  92 124 161 211 267 313 368
#     4  10  24  46  67  93 129 172 210 256 330 401
#     4  11  25  43  63  87 123 170 213 254 314 380
#     4  11  23  38  61  91 125 162 208 260 316 377
#     4  11  23  41  66  95 130 168 211 262 327 393
#
# _framework density 19.104006999999999
#
# number of rings (size 3 to 8) (size 9 to 14) (size 15 to 20)
#    0.000    0.846    2.308    5.077    1.077    8.308 
#    0.000    0.385    0.000    2.308    0.000    0.000 
#    0.000    0.000    0.000    0.000    0.000    0.000 
#
# Total GULP energy -290761.155143 kJ/mol
# GULP energy per Si atom -5591.560676 kJ/mol
# Density = 1.906053 g / cm^3
# Si number density = 19.104007 Si / 1000 Ang^3
#
#
#
# Elastic Constant Matrix: (Units=GPa)
#
#
# Indices 1 2 3 4 5 6 
#
# 1 126.9323 54.1835 48.2362 0.0000 0.0000 0.0000
# 2 54.1835 105.2094 30.2768 -0.0004 0.0000 0.0000
# 3 48.2362 30.2768 103.7671 -0.0046 0.0000 0.0000
# 4 0.0000 -0.0004 -0.0046 -433.6793 0.0000 0.0001
# 5 0.0000 0.0000 0.0000 0.0000 28.5483 0.0000
# 6 0.0000 0.0000 0.0000 0.0001 0.0000 39.9381
#
#
#
# Elastic Compliance Matrix: (Units=1/GPa)
#
#
# Indices 1 2 3 4 5 6 
#
# 1 0.011387 -0.004739 -0.003911 0.000000 0.000000 0.000000
# 2 -0.004739 0.012348 -0.001400 0.000000 0.000000 0.000000
# 3 -0.003911 -0.001400 0.011863 0.000000 0.000000 0.000000
# 4 0.000000 0.000000 0.000000 -0.002306 0.000000 0.000000
# 5 0.000000 0.000000 0.000000 0.000000 0.035028 0.000000
# 6 0.000000 0.000000 0.000000 0.000000 0.000000 0.025039
#
#
# Mechanical properties :
#
#
# Convention : Reuss Voigt Hill
#
# Bulk Modulus (GPa) = 64.51810 66.81130 65.66470
# Shear Modulus (GPa) = 42.14916 -59.49110 -8.67097
#
# Velocity S-wave (km/s) = 4.70222 -5.58643 -2.13276
# Velocity P-wave (km/s) = 7.95780 2.56177 5.32747
#
# Compressibility (1/GPa) = 0.01549953
#
# Stress axis : x y z
#
# Youngs Moduli (GPa) = 87.81706 80.98200 84.29359
#
# Poissons Ratio (x) = 0.38379 0.32964
# Poissons Ratio (y) = 0.41618 0.11801
# Poissons Ratio (z) = 0.34342 0.11337
#
# Static dielectric constant tensor:
#      x y z
#    x 1.650850 0.000000 0.000000 
#    y 0.000000 1.700050 0.000000 
#    z 0.000000 0.000000 1.673720 
# 
# From -- ./inp_files/50957.got.cif
#   From: 2010.05.17/outbox.cif.g08.bks.cpg/sg71_26_cif.got.tgz:50957.got - 2010.06.03 16:22:01.
