data_PCOD9523444
_publ_section_title
;
Structure prediction by ZEFSAII (Michael W. Deem and Ramdas Pophale) SiO2 
 PCOD9523444
Probable space group: I M M M
;
_chemical_formula_sum "Si O2"
_cell_formula_units_Z 82
_cell_length_a 8.831100
_cell_length_b 21.086589
_cell_length_c 25.371944
_cell_angle_alpha 90.000000
_cell_angle_beta 90.000000
_cell_angle_gamma 90.000000
_cell_volume 4724.706987
_symmetry_space_group_name_H-M "I M M M"
_symmetry_group_IT_number 71
_symmetry_cell_setting 'orthorhombic'
loop_
_space_group_symop_operation_xyz
x,y,z
-x,-y,z
x,-y,-z
-x,y,-z
-x,-y,-z
x,y,-z
-x,y,z
x,-y,z
1/2+x,1/2+y,1/2+z
1/2-x,1/2-y,1/2+z
1/2+x,1/2-y,1/2-z
1/2-x,1/2+y,1/2-z
1/2-x,1/2-y,1/2-z
1/2+x,1/2+y,1/2-z
1/2-x,1/2+y,1/2+z
1/2+x,1/2-y,1/2+z
loop_
_atom_site_type_symbol
_atom_site_label
_atom_site_fract_x
_atom_site_fract_y
_atom_site_fract_z
Si Si1 0.819595 0.570589 0.285360
Si Si2 0.500000 0.000000 0.000000
Si Si3 0.170009 0.870487 0.883611
Si Si4 0.819811 0.234223 0.607997
Si Si5 0.740728 0.606967 0.500000
Si Si6 0.182135 0.307496 0.215620
Si Si7 0.817694 0.748250 0.000000
O O1 0.787123 0.500000 0.265103
O O2 0.733079 0.582295 0.339975
O O3 0.781137 0.626815 0.245201
O O4 0.000000 0.574838 0.295807
O O5 0.371711 0.056143 0.000000
O O6 0.275581 0.808213 0.882740
O O7 0.000000 0.849629 0.870133
O O8 0.166477 0.899555 0.942291
O O9 0.754937 0.196994 0.658001
O O10 0.735580 0.215801 0.553750
O O11 0.000000 0.227959 0.603566
O O12 0.768022 0.683374 0.500000
O O13 0.250000 0.250000 0.250000
O O14 0.000000 0.301292 0.212699
O O15 0.000000 0.759603 0.000000
#
# Coordination Sequence:
#
# PCOD9523444 Si02
#       7
#    16   2  16  16   8  16   8
#     4  10  23  39  57  78 108 147 191 230 275 333
#     4  12  28  36  50  72  92 156 190 240 262 342
#     4  11  22  37  55  75 105 141 184 238 287 329
#     4  11  21  34  58  85 111 144 180 226 280 339
#     4  10  24  36  50  69  98 137 188 228 277 314
#     4  11  21  36  57  83 113 146 187 235 281 331
#     4  10  21  39  59  82 110 138 175 231 288 329
#
# _framework density 17.355574000000001
#
# number of rings (size 3 to 8) (size 9 to 14) (size 15 to 20)
#    0.000    1.366    1.951    5.268    8.195    1.171 
#    0.000    1.707    0.000    0.000    0.000    0.683 
#    0.000    5.463    0.000    0.000    0.000    0.000 
#
# Total GULP energy -228468.338478 kJ/mol
# GULP energy per Si atom -5572.398499 kJ/mol
# Density = 1.731607 g / cm^3
# Si number density = 17.355574 Si / 1000 Ang^3
#
#
#
# Elastic Constant Matrix: (Units=GPa)
#
#
# Indices 1 2 3 4 5 6 
#
# 1 75.0568 43.4883 49.0269 0.0000 0.0000 0.0000
# 2 43.4883 86.0135 61.5601 0.0000 0.0000 0.0000
# 3 49.0269 61.5601 147.0079 0.0000 0.0000 0.0000
# 4 0.0000 0.0000 0.0000 15.0742 0.0000 0.0000
# 5 0.0000 0.0000 0.0000 0.0000 113.9948 0.0000
# 6 0.0000 0.0000 0.0000 0.0000 0.0000 19.0663
#
#
#
# Elastic Compliance Matrix: (Units=1/GPa)
#
#
# Indices 1 2 3 4 5 6 
#
# 1 0.020018 -0.007630 -0.003481 0.000000 0.000000 0.000000
# 2 -0.007630 0.019510 -0.005625 0.000000 0.000000 0.000000
# 3 -0.003481 -0.005625 0.010319 0.000000 0.000000 0.000000
# 4 0.000000 0.000000 0.000000 0.066339 0.000000 0.000000
# 5 0.000000 0.000000 0.000000 0.000000 0.008772 0.000000
# 6 0.000000 0.000000 0.000000 0.000000 0.000000 0.052449
#
#
# Mechanical properties :
#
#
# Convention : Reuss Voigt Hill
#
# Bulk Modulus (GPa) = 61.07052 68.46988 64.77020
# Shear Modulus (GPa) = 23.11227 39.89390 31.50308
#
# Velocity S-wave (km/s) = 3.65319 4.79960 4.26509
# Velocity P-wave (km/s) = 7.28414 8.38163 7.85208
#
# Compressibility (1/GPa) = 0.01637451
#
# Stress axis : x y z
#
# Youngs Moduli (GPa) = 49.95602 51.25683 96.91004
#
# Poissons Ratio (x) = 0.39107 0.33734
# Poissons Ratio (y) = 0.38114 0.54515
# Poissons Ratio (z) = 0.17389 0.28833
#
# Static dielectric constant tensor:
#      x y z
#    x 1.600450 0.000000 0.000000 
#    y 0.000000 1.574820 0.000000 
#    z 0.000000 0.000000 1.625520 
# 
# From -- ./inp_files/57482.got.cif
#   From: 2010.05.17/outbox.cif.g08.bks.cpg/sg71_29_cif.got.tgz:57482.got - 2010.06.03 16:22:01.
