data_PCOD9523629
_publ_section_title
;
Structure prediction by ZEFSAII (Michael W. Deem and Ramdas Pophale) SiO2 
 PCOD9523629
Probable space group: I M M M
;
_chemical_formula_sum "Si O2"
_cell_formula_units_Z 90
_cell_length_a 8.116102
_cell_length_b 23.058765
_cell_length_c 24.280396
_cell_angle_alpha 90.000000
_cell_angle_beta 90.000000
_cell_angle_gamma 90.000000
_cell_volume 4544.010281
_symmetry_space_group_name_H-M "I M M M"
_symmetry_group_IT_number 71
_symmetry_cell_setting 'orthorhombic'
loop_
_space_group_symop_operation_xyz
x,y,z
-x,-y,z
x,-y,-z
-x,y,-z
-x,-y,-z
x,y,-z
-x,y,z
x,-y,z
1/2+x,1/2+y,1/2+z
1/2-x,1/2-y,1/2+z
1/2+x,1/2-y,1/2-z
1/2-x,1/2+y,1/2-z
1/2-x,1/2-y,1/2-z
1/2+x,1/2+y,1/2-z
1/2-x,1/2+y,1/2+z
1/2+x,1/2-y,1/2+z
loop_
_atom_site_type_symbol
_atom_site_label
_atom_site_fract_x
_atom_site_fract_y
_atom_site_fract_z
Si Si1 0.801618 0.500000 0.590599
Si Si2 0.694053 0.269181 0.562170
Si Si3 0.000000 0.000000 0.000000
Si Si4 0.189136 0.627752 0.368565
Si Si5 0.302092 0.433165 0.935909
Si Si6 0.309822 0.315816 0.258014
Si Si7 0.191960 0.332558 0.140773
O O1 0.651166 0.500000 0.547057
O O2 0.780510 0.559553 0.624645
O O3 0.000000 0.500000 0.571829
O O4 0.763090 0.265369 0.500000
O O5 0.500000 0.255786 0.558149
O O6 0.711629 0.332793 0.588184
O O7 0.761213 0.222387 0.606091
O O8 0.219759 0.651111 0.307214
O O9 0.000000 0.638638 0.383102
O O10 0.500000 0.426399 0.929527
O O11 0.261389 0.500000 0.923527
O O12 0.210715 0.387869 0.897923
O O13 0.263269 0.422331 0.000000
O O14 0.500000 0.314889 0.273567
O O15 0.250000 0.250000 0.250000
O O16 0.283281 0.342980 0.198044
O O17 0.000000 0.321313 0.153871
#
# Coordination Sequence:
#
# PCOD9523629 Si02
#       7
#     8  16   2  16  16  16  16
#     4  10  27  47  69 106 139 177 231 286 334 412
#     4  10  22  37  59  91 127 163 205 255 311 384
#     4  12  26  44  84  98 140 188 234 264 364 410
#     4  11  24  44  66  92 131 169 215 271 327 384
#     4   9  19  37  60  86 121 163 206 252 303 367
#     4  12  24  41  66  93 122 163 211 258 317 385
#     4  11  22  38  60  90 124 161 205 258 317 374
#
# _framework density 19.806293
#
# number of rings (size 3 to 8) (size 9 to 14) (size 15 to 20)
#    0.000    1.422    1.778    3.867    3.733    2.489 
#    1.600    0.889    0.000    0.000    0.000    0.000 
#    0.000    0.000    0.000    0.000    0.000    0.000 
#
# Total GULP energy -250998.408124 kJ/mol
# GULP energy per Si atom -5577.742403 kJ/mol
# Density = 1.976121 g / cm^3
# Si number density = 19.806293 Si / 1000 Ang^3
#
#
#
# Elastic Constant Matrix: (Units=GPa)
#
#
# Indices 1 2 3 4 5 6 
#
# 1 40.5887 10.8466 9.0497 0.0000 0.0000 0.0000
# 2 10.8466 66.7997 44.2312 0.0000 0.0000 0.0000
# 3 9.0497 44.2312 95.2799 0.0000 0.0000 0.0000
# 4 0.0000 0.0000 0.0000 9.6612 0.0000 0.0000
# 5 0.0000 0.0000 0.0000 0.0000 29.4639 0.0000
# 6 0.0000 0.0000 0.0000 0.0000 0.0000 11.8800
#
#
#
# Elastic Compliance Matrix: (Units=1/GPa)
#
#
# Indices 1 2 3 4 5 6 
#
# 1 0.025790 -0.003704 -0.000730 0.000000 0.000000 0.000000
# 2 -0.003704 0.022146 -0.009929 0.000000 0.000000 0.000000
# 3 -0.000730 -0.009929 0.015174 0.000000 0.000000 0.000000
# 4 0.000000 0.000000 0.000000 0.103506 0.000000 0.000000
# 5 0.000000 0.000000 0.000000 0.000000 0.033940 0.000000
# 6 0.000000 0.000000 0.000000 0.000000 0.000000 0.084175
#
#
# Mechanical properties :
#
#
# Convention : Reuss Voigt Hill
#
# Bulk Modulus (GPa) = 29.08349 36.76926 32.92637
# Shear Modulus (GPa) = 15.38846 19.43707 17.41277
#
# Velocity S-wave (km/s) = 2.79040 3.13606 2.96827
# Velocity P-wave (km/s) = 5.00975 5.63187 5.32989
#
# Compressibility (1/GPa) = 0.03438377
#
# Stress axis : x y z
#
# Youngs Moduli (GPa) = 38.77460 45.15496 65.90251
#
# Poissons Ratio (x) = 0.16727 0.04810
# Poissons Ratio (y) = 0.14363 0.65434
# Poissons Ratio (z) = 0.02830 0.44834
#
# Static dielectric constant tensor:
#      x y z
#    x 1.730650 0.000000 0.000000 
#    y 0.000000 1.690880 0.000000 
#    z 0.000000 0.000000 2.390360 
# 
# From -- ./inp_files/57587.got.cif
#   From: 2010.05.17/outbox.cif.g08.bks.cpg/sg71_29_cif.got.tgz:57587.got - 2010.06.03 16:22:01.
