data_PCOD9523541
_publ_section_title
;
Structure prediction by ZEFSAII (Michael W. Deem and Ramdas Pophale) SiO2 
 PCOD9523541
Probable space group: I M M M
;
_chemical_formula_sum "Si O2"
_cell_formula_units_Z 68
_cell_length_a 17.647825
_cell_length_b 23.280666
_cell_length_c 7.834708
_cell_angle_alpha 90.000000
_cell_angle_beta 90.000000
_cell_angle_gamma 90.000000
_cell_volume 3218.914222
_symmetry_space_group_name_H-M "I M M M"
_symmetry_group_IT_number 71
_symmetry_cell_setting 'orthorhombic'
loop_
_space_group_symop_operation_xyz
x,y,z
-x,-y,z
x,-y,-z
-x,y,-z
-x,-y,-z
x,y,-z
-x,y,z
x,-y,z
1/2+x,1/2+y,1/2+z
1/2-x,1/2-y,1/2+z
1/2+x,1/2-y,1/2-z
1/2-x,1/2+y,1/2-z
1/2-x,1/2-y,1/2-z
1/2+x,1/2+y,1/2-z
1/2-x,1/2+y,1/2+z
1/2+x,1/2-y,1/2+z
loop_
_atom_site_type_symbol
_atom_site_label
_atom_site_fract_x
_atom_site_fract_y
_atom_site_fract_z
Si Si1 0.906002 0.500000 0.000000
Si Si2 0.912202 0.297324 0.200401
Si Si3 0.858116 0.582275 0.697620
Si Si4 0.085810 0.826621 0.298721
Si Si5 0.319107 0.437426 0.704015
O O1 0.903800 0.450400 0.153652
O O2 0.870685 0.349571 0.290547
O O3 0.881668 0.232921 0.226340
O O4 0.000000 0.296219 0.259713
O O5 0.911221 0.309454 0.000000
O O6 0.873641 0.565093 0.500000
O O7 0.770288 0.568611 0.738814
O O8 0.080837 0.818058 0.500000
O O9 0.134975 0.882945 0.267715
O O10 0.000000 0.834640 0.229336
O O11 0.327345 0.437978 0.500000
O O12 0.344452 0.500000 0.771008
#
# Coordination Sequence:
#
# PCOD9523541 Si02
#       5
#     4  16  16  16  16
#     4  12  22  40  65  92 125 168 196 250 306 356
#     4  10  21  40  64  89 120 160 204 252 306 360
#     4  11  23  40  64  93 124 162 207 248 302 363
#     4  10  22  38  59  88 120 158 203 250 307 366
#     4  10  22  39  60  86 119 158 201 251 304 363
#
# _framework density 21.125135
#
# number of rings (size 3 to 8) (size 9 to 14) (size 15 to 20)
#    0.000    1.647    2.353    1.765    1.647    4.706 
#    0.000    3.529    0.000    1.412    0.000    0.000 
#    0.000    0.000    0.000    0.000    0.000    0.000 
#
# Total GULP energy -189344.095784 kJ/mol
# GULP energy per Si atom -5568.943994 kJ/mol
# Density = 2.107705 g / cm^3
# Si number density = 21.125135 Si / 1000 Ang^3
#
#
#
# Elastic Constant Matrix: (Units=GPa)
#
#
# Indices 1 2 3 4 5 6 
#
# 1 27.4320 41.8544 25.6452 0.0000 0.0000 0.0000
# 2 41.8544 201.9428 38.6104 0.0000 0.0000 0.0000
# 3 25.6452 38.6104 87.4336 0.0000 0.0000 0.0000
# 4 0.0000 0.0000 0.0000 34.0509 0.0000 0.0000
# 5 0.0000 0.0000 0.0000 0.0000 11.7090 0.0000
# 6 0.0000 0.0000 0.0000 0.0000 0.0000 58.4728
#
#
#
# Elastic Compliance Matrix: (Units=1/GPa)
#
#
# Indices 1 2 3 4 5 6 
#
# 1 0.067255 -0.011105 -0.014823 0.000000 0.000000 0.000000
# 2 -0.011105 0.007242 0.000059 0.000000 0.000000 0.000000
# 3 -0.014823 0.000059 0.015759 0.000000 0.000000 0.000000
# 4 0.000000 0.000000 0.000000 0.029368 0.000000 0.000000
# 5 0.000000 0.000000 0.000000 0.000000 0.085404 0.000000
# 6 0.000000 0.000000 0.000000 0.000000 0.000000 0.017102
#
#
# Mechanical properties :
#
#
# Convention : Reuss Voigt Hill
#
# Bulk Modulus (GPa) = 25.96154 58.78091 42.37123
# Shear Modulus (GPa) = 17.43945 34.89308 26.16627
#
# Velocity S-wave (km/s) = 2.87632 4.06856 3.52324
# Velocity P-wave (km/s) = 4.83188 7.06799 6.05407
#
# Compressibility (1/GPa) = 0.03851851
#
# Stress axis : x y z
#
# Youngs Moduli (GPa) = 14.86888 138.07914 63.45676
#
# Poissons Ratio (x) = 1.53338 0.94059
# Poissons Ratio (y) = 0.16512 -0.00375
# Poissons Ratio (z) = 0.22039 -0.00816
#
# Static dielectric constant tensor:
#      x y z
#    x 1.777260 0.000000 0.000000 
#    y 0.000000 1.803480 0.000000 
#    z 0.000000 0.000000 1.755000 
# 
# From -- ./inp_files/7623.got.cif
#   From: 2010.05.17/outbox.cif.g08.bks.cpg/sg71_4_cif.got.tgz:7623.got - 2010.06.03 16:22:01.
