data_PCOD9523437
_publ_section_title
;
Structure prediction by ZEFSAII (Michael W. Deem and Ramdas Pophale) SiO2 
 PCOD9523437
Probable space group: I M M M
;
_chemical_formula_sum "Si O2"
_cell_formula_units_Z 58
_cell_length_a 16.674814
_cell_length_b 10.026817
_cell_length_c 16.455702
_cell_angle_alpha 90.000000
_cell_angle_beta 90.000000
_cell_angle_gamma 90.000000
_cell_volume 2751.316172
_symmetry_space_group_name_H-M "I M M M"
_symmetry_group_IT_number 71
_symmetry_cell_setting 'orthorhombic'
loop_
_space_group_symop_operation_xyz
x,y,z
-x,-y,z
x,-y,-z
-x,y,-z
-x,-y,-z
x,y,-z
-x,y,z
x,-y,z
1/2+x,1/2+y,1/2+z
1/2-x,1/2-y,1/2+z
1/2+x,1/2-y,1/2-z
1/2-x,1/2+y,1/2-z
1/2-x,1/2-y,1/2-z
1/2+x,1/2+y,1/2-z
1/2-x,1/2+y,1/2+z
1/2+x,1/2-y,1/2+z
loop_
_atom_site_type_symbol
_atom_site_label
_atom_site_fract_x
_atom_site_fract_y
_atom_site_fract_z
Si Si1 0.668685 0.752156 0.197707
Si Si2 0.402028 0.500000 0.901152
Si Si3 0.500000 0.000000 0.000000
Si Si4 0.598186 0.656007 0.500000
Si Si5 0.665575 0.000000 0.913264
Si Si6 0.094306 0.650455 0.142829
O O1 0.750000 0.750000 0.250000
O O2 0.636933 0.626220 0.146103
O O3 0.605120 0.796673 0.266065
O O4 0.683798 0.868969 0.134938
O O5 0.500000 0.500000 0.892501
O O6 0.386670 0.500000 0.000000
O O7 0.429319 0.000000 0.068652
O O8 0.619370 0.500000 0.500000
O O9 0.500000 0.656566 0.500000
O O10 0.625963 0.741097 0.421536
O O11 0.706627 0.000000 0.000000
O O12 0.129473 0.500000 0.134839
O O13 0.000000 0.638976 0.125809
#
# Coordination Sequence:
#
# PCOD9523437 Si02
#       6
#    16   8   2   8   8  16
#     4  12  25  44  65 102 143 181 226 290 365 435
#     4  11  27  46  73 105 148 193 244 300 362 431
#     4   8  24  36  84 102 124 166 250 310 332 388
#     4   9  19  37  58  89 125 160 213 273 334 400
#     4  10  23  43  73  98 131 173 236 292 343 413
#     4  10  21  38  65  90 122 171 229 284 332 405
#
# _framework density 21.080819000000002
#
# number of rings (size 3 to 8) (size 9 to 14) (size 15 to 20)
#    0.414    1.103    1.379    2.897    5.793    1.655 
#    4.966    0.000    0.000    0.000    0.000    0.000 
#    0.000    0.000    0.000    0.000    0.000    0.000 
#
# Total GULP energy -161506.638592 kJ/mol
# GULP energy per Si atom -5569.194434 kJ/mol
# Density = 2.103284 g / cm^3
# Si number density = 21.080819 Si / 1000 Ang^3
#
#
#
# Elastic Constant Matrix: (Units=GPa)
#
#
# Indices 1 2 3 4 5 6 
#
# 1 93.6315 37.1722 32.8494 0.0000 0.0000 0.0000
# 2 37.1722 243.2630 140.6237 0.0000 0.0000 0.0000
# 3 32.8494 140.6237 202.2183 0.0000 0.0000 0.0000
# 4 0.0000 0.0000 0.0000 26.4812 0.0000 0.0000
# 5 0.0000 0.0000 0.0000 0.0000 36.9742 0.0000
# 6 0.0000 0.0000 0.0000 0.0000 0.0000 43.6321
#
#
#
# Elastic Compliance Matrix: (Units=1/GPa)
#
#
# Indices 1 2 3 4 5 6 
#
# 1 0.011510 -0.001134 -0.001081 0.000000 0.000000 0.000000
# 2 -0.001134 0.006986 -0.004674 0.000000 0.000000 0.000000
# 3 -0.001081 -0.004674 0.008371 0.000000 0.000000 0.000000
# 4 0.000000 0.000000 0.000000 0.037763 0.000000 0.000000
# 5 0.000000 0.000000 0.000000 0.000000 0.027046 0.000000
# 6 0.000000 0.000000 0.000000 0.000000 0.000000 0.022919
#
#
# Mechanical properties :
#
#
# Convention : Reuss Voigt Hill
#
# Bulk Modulus (GPa) = 76.40111 106.71149 91.55630
# Shear Modulus (GPa) = 37.66923 43.31535 40.49229
#
# Velocity S-wave (km/s) = 4.23176 4.53783 4.38746
# Velocity P-wave (km/s) = 7.75872 8.84228 8.31816
#
# Compressibility (1/GPa) = 0.01308882
#
# Stress axis : x y z
#
# Youngs Moduli (GPa) = 86.88397 143.14739 119.46008
#
# Poissons Ratio (x) = 0.16228 0.12918
# Poissons Ratio (y) = 0.09850 0.55833
# Poissons Ratio (z) = 0.09395 0.66904
#
# Static dielectric constant tensor:
#      x y z
#    x 1.881410 0.000000 0.000000 
#    y 0.000000 1.749960 0.000000 
#    z 0.000000 0.000000 1.664890 
# 
# From -- ./inp_files/45550.got.cif
#   From: 2010.05.17/outbox.cif.g08.bks.cpg/sg71_23_cif.got.tgz:45550.got - 2010.06.03 16:22:01.
