data_PCOD9523974
_publ_section_title
;
Structure prediction by ZEFSAII (Michael W. Deem and Ramdas Pophale) SiO2 
 PCOD9523974
Probable space group: I M M M
;
_chemical_formula_sum "Si O2"
_cell_formula_units_Z 58
_cell_length_a 11.025314
_cell_length_b 26.705661
_cell_length_c 9.966881
_cell_angle_alpha 90.000000
_cell_angle_beta 90.000000
_cell_angle_gamma 90.000000
_cell_volume 2934.631479
_symmetry_space_group_name_H-M "I M M M"
_symmetry_group_IT_number 71
_symmetry_cell_setting 'orthorhombic'
loop_
_space_group_symop_operation_xyz
x,y,z
-x,-y,z
x,-y,-z
-x,y,-z
-x,-y,-z
x,y,-z
-x,y,z
x,-y,z
1/2+x,1/2+y,1/2+z
1/2-x,1/2-y,1/2+z
1/2+x,1/2-y,1/2-z
1/2-x,1/2+y,1/2-z
1/2-x,1/2-y,1/2-z
1/2+x,1/2+y,1/2-z
1/2-x,1/2+y,1/2+z
1/2+x,1/2-y,1/2+z
loop_
_atom_site_type_symbol
_atom_site_label
_atom_site_fract_x
_atom_site_fract_y
_atom_site_fract_z
Si Si1 0.357149 0.556830 0.500000
Si Si2 0.356546 0.226331 0.157123
Si Si3 0.000000 0.558869 0.656288
Si Si4 0.133556 0.894067 0.500000
Si Si5 0.000000 0.000000 0.500000
Si Si6 0.226784 0.383956 0.729230
O O1 0.303793 0.500000 0.500000
O O2 0.500000 0.551651 0.500000
O O3 0.317575 0.588883 0.372787
O O4 0.500000 0.235751 0.194189
O O5 0.250000 0.250000 0.250000
O O6 0.328485 0.167240 0.172143
O O7 0.342388 0.240625 0.000000
O O8 0.115613 0.578221 0.734709
O O9 0.000000 0.500000 0.648249
O O10 0.000000 0.577837 0.500000
O O11 0.206382 0.877935 0.630744
O O12 0.000000 0.869832 0.500000
O O13 0.103793 0.954162 0.500000
#
# Coordination Sequence:
#
# PCOD9523974 Si02
#       6
#     8  16   8   8   2  16
#     4  11  24  37  66 103 139 180 232 281 340 416
#     4  11  26  50  75 103 140 180 231 297 359 425
#     4  11  22  37  67 102 135 175 220 276 337 407
#     4  10  26  41  65  93 139 186 226 279 333 400
#     4   8  24  48  60  88 156 192 228 278 342 396
#     4  12  23  45  67  97 138 180 228 282 346 413
#
# _framework density 19.763981000000001
#
# number of rings (size 3 to 8) (size 9 to 14) (size 15 to 20)
#    0.414    0.552    4.138    1.655    5.793    3.310 
#    0.000    0.690    0.000    0.000    0.000    0.000 
#    0.000    0.000    0.000    0.000    0.000    0.000 
#
# Total GULP energy -161574.052024 kJ/mol
# GULP energy per Si atom -5571.519035 kJ/mol
# Density = 1.971900 g / cm^3
# Si number density = 19.763981 Si / 1000 Ang^3
#
#
#
# Elastic Constant Matrix: (Units=GPa)
#
#
# Indices 1 2 3 4 5 6 
#
# 1 170.6771 30.1503 78.5797 0.0000 0.0000 0.0000
# 2 30.1503 67.9728 12.0221 0.0000 0.0000 0.0000
# 3 78.5797 12.0221 142.5155 0.0000 0.0003 0.0001
# 4 0.0000 0.0000 0.0000 20.9819 0.0000 0.0000
# 5 0.0000 0.0000 0.0003 0.0000 58.2336 0.0000
# 6 0.0000 0.0000 0.0001 0.0000 0.0000 20.8438
#
#
#
# Elastic Compliance Matrix: (Units=1/GPa)
#
#
# Indices 1 2 3 4 5 6 
#
# 1 0.008397 -0.002950 -0.004381 0.000000 0.000000 0.000000
# 2 -0.002950 0.015971 0.000279 0.000000 0.000000 0.000000
# 3 -0.004381 0.000279 0.009409 0.000000 0.000000 0.000000
# 4 0.000000 0.000000 0.000000 0.047660 0.000000 0.000000
# 5 0.000000 0.000000 0.000000 0.000000 0.017172 0.000000
# 6 0.000000 0.000000 0.000000 0.000000 0.000000 0.047976
#
#
# Mechanical properties :
#
#
# Convention : Reuss Voigt Hill
#
# Bulk Modulus (GPa) = 50.83014 69.18552 60.00783
# Shear Modulus (GPa) = 29.89596 37.37273 33.63435
#
# Velocity S-wave (km/s) = 3.89350 4.35323 4.12976
# Velocity P-wave (km/s) = 6.78136 7.76848 7.29164
#
# Compressibility (1/GPa) = 0.01967337
#
# Stress axis : x y z
#
# Youngs Moduli (GPa) = 119.08724 62.61418 106.28220
#
# Poissons Ratio (x) = 0.18470 0.46564
# Poissons Ratio (y) = 0.35129 -0.02968
# Poissons Ratio (z) = 0.52174 -0.01748
#
# Static dielectric constant tensor:
#      x y z
#    x 1.137130 0.000000 0.000000 
#    y 0.000000 1.705500 0.000000 
#    z 0.000000 0.000000 1.700570 
# 
# From -- ./inp_files/3427.got.cif
#   From: 2010.05.17/outbox.cif.g08.bks.cpg/sg71_2_cif.got.tgz:3427.got - 2010.06.03 16:22:01.
