data_PCOD9523350
_publ_section_title
;
Structure prediction by ZEFSAII (Michael W. Deem and Ramdas Pophale) SiO2 
 PCOD9523350
Probable space group: I M M M
;
_chemical_formula_sum "Si O2"
_cell_formula_units_Z 96
_cell_length_a 13.451602
_cell_length_b 13.332398
_cell_length_c 29.374193
_cell_angle_alpha 90.000000
_cell_angle_beta 90.000000
_cell_angle_gamma 90.000000
_cell_volume 5268.029799
_symmetry_space_group_name_H-M "I M M M"
_symmetry_group_IT_number 71
_symmetry_cell_setting 'orthorhombic'
loop_
_space_group_symop_operation_xyz
x,y,z
-x,-y,z
x,-y,-z
-x,y,-z
-x,-y,-z
x,y,-z
-x,y,z
x,-y,z
1/2+x,1/2+y,1/2+z
1/2-x,1/2-y,1/2+z
1/2+x,1/2-y,1/2-z
1/2-x,1/2+y,1/2-z
1/2-x,1/2-y,1/2-z
1/2+x,1/2+y,1/2-z
1/2-x,1/2+y,1/2+z
1/2+x,1/2-y,1/2+z
loop_
_atom_site_type_symbol
_atom_site_label
_atom_site_fract_x
_atom_site_fract_y
_atom_site_fract_z
Si Si1 0.379721 0.500000 0.447941
Si Si2 0.880260 0.386895 0.447345
Si Si3 0.698395 0.381720 0.288530
Si Si4 0.616722 0.259454 0.203539
Si Si5 0.304556 0.693895 0.893722
Si Si6 0.381117 0.500000 0.054038
Si Si7 0.883182 0.811189 0.885079
O O1 0.500000 0.500000 0.448806
O O2 0.345091 0.500000 0.500000
O O3 0.354121 0.398422 0.420998
O O4 0.850722 0.369244 0.500000
O O5 0.847847 0.500000 0.433950
O O6 0.846348 0.296487 0.415799
O O7 0.000000 0.387753 0.446528
O O8 0.701250 0.500000 0.282690
O O9 0.642975 0.329133 0.246474
O O10 0.809375 0.335604 0.292240
O O11 0.641978 0.354052 0.335165
O O12 0.500000 0.235080 0.202418
O O13 0.649407 0.313168 0.156683
O O14 0.335371 0.599034 0.923269
O O15 0.186683 0.714654 0.891400
O O16 0.500000 0.500000 0.061516
O O17 0.363664 0.500000 0.000000
O O18 0.000000 0.790743 0.889409
#
# Coordination Sequence:
#
# PCOD9523350 Si02
#       7
#     8  16  16  16  16   8  16
#     4   9  18  32  53  85 118 147 183 229 285 345
#     4   9  18  33  54  81 113 149 187 232 294 362
#     4  10  21  38  61  86 116 155 199 235 292 366
#     4  10  22  37  57  88 120 150 192 249 298 343
#     4  11  23  37  58  86 117 152 202 245 291 346
#     4  11  24  42  62  84 116 159 204 248 292 344
#     4  10  21  38  59  84 117 154 190 235 293 356
#
# _framework density 18.223130999999999
#
# number of rings (size 3 to 8) (size 9 to 14) (size 15 to 20)
#    0.000    2.000    0.833    3.000    2.333    4.667 
#    0.000    0.417    0.000    0.500    0.000    0.000 
#    0.000    0.000    0.000    0.000    0.000    0.000 
#
# Total GULP energy -268105.795804 kJ/mol
# GULP energy per Si atom -5585.537413 kJ/mol
# Density = 1.818165 g / cm^3
# Si number density = 18.223131 Si / 1000 Ang^3
#
#
#
# Elastic Constant Matrix: (Units=GPa)
#
#
# Indices 1 2 3 4 5 6 
#
# 1 115.1508 20.3910 36.1083 0.0000 0.0000 0.0000
# 2 20.3910 82.1223 51.8499 0.0000 0.0000 0.0000
# 3 36.1083 51.8499 133.6287 0.0000 0.0000 0.0000
# 4 0.0000 0.0000 0.0000 20.8315 0.0000 0.0000
# 5 0.0000 0.0000 0.0000 0.0000 18.5713 0.0000
# 6 0.0000 0.0000 0.0000 0.0000 0.0000 17.5687
#
#
#
# Elastic Compliance Matrix: (Units=1/GPa)
#
#
# Indices 1 2 3 4 5 6 
#
# 1 0.009548 -0.000983 -0.002199 0.000000 0.000000 0.000000
# 2 -0.000983 0.016229 -0.006032 0.000000 0.000000 0.000000
# 3 -0.002199 -0.006032 0.010418 0.000000 0.000000 0.000000
# 4 0.000000 0.000000 0.000000 0.048004 0.000000 0.000000
# 5 0.000000 0.000000 0.000000 0.000000 0.053847 0.000000
# 6 0.000000 0.000000 0.000000 0.000000 0.000000 0.056919
#
#
# Mechanical properties :
#
#
# Convention : Reuss Voigt Hill
#
# Bulk Modulus (GPa) = 56.27762 60.84445 58.56104
# Shear Modulus (GPa) = 22.79839 26.23113 24.51476
#
# Velocity S-wave (km/s) = 3.54088 3.79811 3.67175
# Velocity P-wave (km/s) = 6.90411 7.25915 7.08385
#
# Compressibility (1/GPa) = 0.01776905
#
# Stress axis : x y z
#
# Youngs Moduli (GPa) = 104.73724 61.61748 95.98848
#
# Poissons Ratio (x) = 0.06054 0.21105
# Poissons Ratio (y) = 0.10290 0.57897
# Poissons Ratio (z) = 0.23028 0.37166
#
# Static dielectric constant tensor:
#      x y z
#    x 1.658010 0.000000 0.000000 
#    y 0.000000 1.584070 0.000000 
#    z 0.000000 0.000000 1.621120 
# 
# From -- ./inp_files/69898.got.cif
#   From: 2010.05.17/outbox.cif.g08.bks.cpg/sg71_35_cif.got.tgz:69898.got - 2010.06.03 16:22:01.
