data_PCOD9523613
_publ_section_title
;
Structure prediction by ZEFSAII (Michael W. Deem and Ramdas Pophale) SiO2 
 PCOD9523613
Probable space group: I M M M
;
_chemical_formula_sum "Si O2"
_cell_formula_units_Z 88
_cell_length_a 31.213419
_cell_length_b 17.260066
_cell_length_c 10.218491
_cell_angle_alpha 90.000000
_cell_angle_beta 90.000000
_cell_angle_gamma 90.000000
_cell_volume 5505.167801
_symmetry_space_group_name_H-M "I M M M"
_symmetry_group_IT_number 71
_symmetry_cell_setting 'orthorhombic'
loop_
_space_group_symop_operation_xyz
x,y,z
-x,-y,z
x,-y,-z
-x,y,-z
-x,-y,-z
x,y,-z
-x,y,z
x,-y,z
1/2+x,1/2+y,1/2+z
1/2-x,1/2-y,1/2+z
1/2+x,1/2-y,1/2-z
1/2-x,1/2+y,1/2-z
1/2-x,1/2-y,1/2-z
1/2+x,1/2+y,1/2-z
1/2-x,1/2+y,1/2+z
1/2+x,1/2-y,1/2+z
loop_
_atom_site_type_symbol
_atom_site_label
_atom_site_fract_x
_atom_site_fract_y
_atom_site_fract_z
Si Si1 0.790055 0.309861 0.248575
Si Si2 0.364478 0.686631 0.742905
Si Si3 0.264113 0.092401 0.500000
Si Si4 0.051111 0.000000 0.346671
Si Si5 0.449711 0.354952 0.656055
Si Si6 0.169468 0.911409 0.000000
Si Si7 0.661311 0.406464 0.000000
Si Si8 0.772641 0.410566 0.500000
O O1 0.750000 0.250000 0.250000
O O2 0.833382 0.260249 0.247313
O O3 0.783821 0.365192 0.124837
O O4 0.787858 0.363827 0.374560
O O5 0.413542 0.705162 0.703605
O O6 0.347272 0.632164 0.626851
O O7 0.358333 0.636743 0.874648
O O8 0.212729 0.106127 0.500000
O O9 0.270973 0.000000 0.500000
O O10 0.060632 0.073206 0.253143
O O11 0.066594 0.000000 0.500000
O O12 0.000000 0.000000 0.359198
O O13 0.444445 0.372456 0.500000
O O14 0.500000 0.334702 0.673814
O O15 0.220881 0.909699 0.000000
O O16 0.154922 0.000000 0.000000
O O17 0.656032 0.500000 0.000000
O O18 0.786282 0.500000 0.500000
#
# Coordination Sequence:
#
# PCOD9523613 Si02
#       8
#    16  16   8   8  16   8   8   8
#     4  12  21  36  55  80 110 139 179 220 266 314
#     4  12  23  34  53  76 104 143 178 227 268 306
#     4  11  22  38  56  76 109 145 178 219 262 312
#     4   9  19  35  53  73  99 137 179 227 267 303
#     4  10  22  37  52  72 101 139 184 223 266 314
#     4  11  21  33  50  76 105 143 188 219 254 309
#     4  11  23  35  48  76 109 141 180 219 264 311
#     4  11  22  38  56  76 109 149 182 215 258 320
#
# _framework density 15.984980999999999
#
# number of rings (size 3 to 8) (size 9 to 14) (size 15 to 20)
#    0.000    1.000    4.545    3.000    3.818    4.000 
#    0.000    0.000    0.000    0.000    0.000    0.000 
#    0.000    4.364    0.000    0.000    0.000    0.000 
#
# Total GULP energy -245585.791194 kJ/mol
# GULP energy per Si atom -5581.495254 kJ/mol
# Density = 1.594860 g / cm^3
# Si number density = 15.984981 Si / 1000 Ang^3
#
#
#
# Elastic Constant Matrix: (Units=GPa)
#
#
# Indices 1 2 3 4 5 6 
#
# 1 120.8595 53.1690 49.1412 0.0000 0.0000 0.0000
# 2 53.1690 99.1496 66.9142 0.0000 0.0000 0.0000
# 3 49.1412 66.9142 172.4806 0.0000 0.0000 0.0000
# 4 0.0000 0.0000 0.0000 37.3598 0.0000 0.0000
# 5 0.0000 0.0000 0.0000 0.0000 7.6914 0.0000
# 6 0.0000 0.0000 0.0000 0.0000 0.0000 20.2130
#
#
#
# Elastic Compliance Matrix: (Units=1/GPa)
#
#
# Indices 1 2 3 4 5 6 
#
# 1 0.010993 -0.005122 -0.001145 0.000000 0.000000 0.000000
# 2 -0.005122 0.016050 -0.004767 0.000000 0.000000 0.000000
# 3 -0.001145 -0.004767 0.007973 0.000000 0.000000 0.000000
# 4 0.000000 0.000000 0.000000 0.026767 0.000000 0.000000
# 5 0.000000 0.000000 0.000000 0.000000 0.130015 0.000000
# 6 0.000000 0.000000 0.000000 0.000000 0.000000 0.049473
#
#
# Mechanical properties :
#
#
# Convention : Reuss Voigt Hill
#
# Bulk Modulus (GPa) = 77.23455 81.21537 79.22496
# Shear Modulus (GPa) = 18.68075 27.93721 23.30898
#
# Velocity S-wave (km/s) = 3.42225 4.18510 3.82276
# Velocity P-wave (km/s) = 8.00235 8.61807 8.31591
#
# Compressibility (1/GPa) = 0.01294757
#
# Stress axis : x y z
#
# Youngs Moduli (GPa) = 90.96692 62.30544 125.41797
#
# Poissons Ratio (x) = 0.31916 0.14357
# Poissons Ratio (y) = 0.46597 0.59789
# Poissons Ratio (z) = 0.10413 0.29702
#
# Static dielectric constant tensor:
#      x y z
#    x 1.572470 0.000000 0.000000 
#    y 0.000000 1.530160 0.000000 
#    z 0.000000 0.000000 1.529880 
# 
# From -- ./inp_files/8957.got.cif
#   From: 2010.05.17/outbox.cif.g08.bks.cpg/sg71_5_cif.got.tgz:8957.got - 2010.06.03 16:22:01.
