data_PCOD9523399
_publ_section_title
;
Structure prediction by ZEFSAII (Michael W. Deem and Ramdas Pophale) SiO2 
 PCOD9523399
Probable space group: I M M M
;
_chemical_formula_sum "Si O2"
_cell_formula_units_Z 88
_cell_length_a 21.596134
_cell_length_b 17.562480
_cell_length_c 12.372709
_cell_angle_alpha 90.000000
_cell_angle_beta 90.000000
_cell_angle_gamma 90.000000
_cell_volume 4692.741750
_symmetry_space_group_name_H-M "I M M M"
_symmetry_group_IT_number 71
_symmetry_cell_setting 'orthorhombic'
loop_
_space_group_symop_operation_xyz
x,y,z
-x,-y,z
x,-y,-z
-x,y,-z
-x,-y,-z
x,y,-z
-x,y,z
x,-y,z
1/2+x,1/2+y,1/2+z
1/2-x,1/2-y,1/2+z
1/2+x,1/2-y,1/2-z
1/2-x,1/2+y,1/2-z
1/2-x,1/2-y,1/2-z
1/2+x,1/2+y,1/2-z
1/2-x,1/2+y,1/2+z
1/2+x,1/2-y,1/2+z
loop_
_atom_site_type_symbol
_atom_site_label
_atom_site_fract_x
_atom_site_fract_y
_atom_site_fract_z
Si Si1 0.152958 0.174395 0.370301
Si Si2 0.570520 0.591514 0.290045
Si Si3 0.352203 0.592992 0.500000
Si Si4 0.288977 0.090740 0.000000
Si Si5 0.719194 0.088621 0.629047
Si Si6 0.000000 0.591299 0.629989
Si Si7 0.632212 0.845605 0.198827
O O1 0.148369 0.181867 0.500000
O O2 0.101508 0.119422 0.319927
O O3 0.219735 0.137753 0.343764
O O4 0.141804 0.255736 0.315368
O O5 0.500000 0.618421 0.300730
O O6 0.570108 0.500000 0.292068
O O7 0.611650 0.617211 0.392239
O O8 0.351369 0.500000 0.500000
O O9 0.281449 0.620148 0.500000
O O10 0.325977 0.117617 0.104480
O O11 0.286843 0.000000 0.000000
O O12 0.711507 0.090986 0.500000
O O13 0.660649 0.123085 0.690484
O O14 0.728608 0.000000 0.661030
O O15 0.061882 0.628613 0.678591
O O16 0.000000 0.500000 0.648302
O O17 0.000000 0.603317 0.500000
#
# Coordination Sequence:
#
# PCOD9523399 Si02
#       7
#    16  16   8   8  16   8  16
#     4  11  23  40  60  89 127 162 199 253 310 357
#     4  10  21  38  61  88 122 166 210 247 295 362
#     4   9  19  36  60  90 119 152 199 259 304 346
#     4  11  20  34  62  92 117 151 204 258 308 359
#     4  10  22  41  65  90 121 160 202 248 304 368
#     4  11  22  38  61  89 122 160 204 252 307 361
#     4  12  23  40  61  90 124 159 203 254 307 363
#
# _framework density 18.752364
#
# number of rings (size 3 to 8) (size 9 to 14) (size 15 to 20)
#    0.000    1.364    1.818    4.091    1.273    4.000 
#    1.636    1.364    0.000    1.636    0.000    0.000 
#    0.000    0.000    0.000    0.000    0.000    0.000 
#
# Total GULP energy -245892.966253 kJ/mol
# GULP energy per Si atom -5588.476506 kJ/mol
# Density = 1.870968 g / cm^3
# Si number density = 18.752364 Si / 1000 Ang^3
#
#
#
# Elastic Constant Matrix: (Units=GPa)
#
#
# Indices 1 2 3 4 5 6 
#
# 1 185.4443 59.8511 49.9233 0.0000 0.0000 0.0000
# 2 59.8511 74.4235 36.0747 0.0000 0.0000 0.0000
# 3 49.9233 36.0747 37.1719 0.0000 0.0000 0.0000
# 4 0.0000 0.0000 0.0000 27.8304 0.0000 0.0000
# 5 0.0000 0.0000 0.0000 0.0000 29.9799 0.0000
# 6 0.0000 0.0000 0.0000 0.0000 0.0000 9.3563
#
#
#
# Elastic Compliance Matrix: (Units=1/GPa)
#
#
# Indices 1 2 3 4 5 6 
#
# 1 0.008688 -0.002513 -0.009230 0.000000 0.000000 0.000000
# 2 -0.002513 0.026099 -0.021953 0.000000 0.000000 0.000000
# 3 -0.009230 -0.021953 0.060603 0.000000 0.000000 0.000000
# 4 0.000000 0.000000 0.000000 0.035932 0.000000 0.000000
# 5 0.000000 0.000000 0.000000 0.000000 0.033356 0.000000
# 6 0.000000 0.000000 0.000000 0.000000 0.000000 0.106879
#
#
# Mechanical properties :
#
#
# Convention : Reuss Voigt Hill
#
# Bulk Modulus (GPa) = 35.71671 65.41532 50.56602
# Shear Modulus (GPa) = 14.35618 23.51269 18.93443
#
# Velocity S-wave (km/s) = 2.76989 3.54482 3.18104
# Velocity P-wave (km/s) = 5.41457 7.19123 6.36519
#
# Compressibility (1/GPa) = 0.02799810
#
# Stress axis : x y z
#
# Youngs Moduli (GPa) = 115.09724 38.31565 16.50084
#
# Poissons Ratio (x) = 0.09630 0.15230
# Poissons Ratio (y) = 0.28928 0.36225
# Poissons Ratio (z) = 1.06230 0.84115
#
# Static dielectric constant tensor:
#      x y z
#    x 1.628470 0.000000 0.000000 
#    y 0.000000 1.670880 0.000000 
#    z 0.000000 0.000000 1.643640 
# 
# From -- ./inp_files/25716.got.cif
#   From: 2010.05.17/outbox.cif.g08.bks.cpg/sg71_13_cif.got.tgz:25716.got - 2010.06.03 16:22:01.
