data_PCOD9523996
_publ_section_title
;
Structure prediction by ZEFSAII (Michael W. Deem and Ramdas Pophale) SiO2 
 PCOD9523996
Probable space group: I M M M
;
_chemical_formula_sum "Si O2"
_cell_formula_units_Z 88
_cell_length_a 13.932814
_cell_length_b 13.838021
_cell_length_c 28.196000
_cell_angle_alpha 90.000000
_cell_angle_beta 90.000000
_cell_angle_gamma 90.000000
_cell_volume 5436.261340
_symmetry_space_group_name_H-M "I M M M"
_symmetry_group_IT_number 71
_symmetry_cell_setting 'orthorhombic'
loop_
_space_group_symop_operation_xyz
x,y,z
-x,-y,z
x,-y,-z
-x,y,-z
-x,-y,-z
x,y,-z
-x,y,z
x,-y,z
1/2+x,1/2+y,1/2+z
1/2-x,1/2-y,1/2+z
1/2+x,1/2-y,1/2-z
1/2-x,1/2+y,1/2-z
1/2-x,1/2-y,1/2-z
1/2+x,1/2+y,1/2-z
1/2-x,1/2+y,1/2+z
1/2+x,1/2-y,1/2+z
loop_
_atom_site_type_symbol
_atom_site_label
_atom_site_fract_x
_atom_site_fract_y
_atom_site_fract_z
Si Si1 0.500000 0.608833 0.942725
Si Si2 0.289071 0.200065 0.646741
Si Si3 0.386887 0.702520 0.787194
Si Si4 0.713116 0.617168 0.055549
Si Si5 0.885413 0.395051 0.232606
Si Si6 0.385521 0.611164 0.314457
O O1 0.500000 0.500000 0.922494
O O2 0.395907 0.651722 0.932155
O O3 0.500000 0.600368 0.000000
O O4 0.184397 0.182441 0.670140
O O5 0.283575 0.167542 0.592586
O O6 0.356409 0.133560 0.679568
O O7 0.325886 0.308900 0.656523
O O8 0.500000 0.701279 0.799575
O O9 0.357212 0.807914 0.766948
O O10 0.372752 0.632906 0.741810
O O11 0.715294 0.500000 0.060887
O O12 0.731517 0.637517 0.000000
O O13 0.846241 0.500000 0.245660
O O14 0.000000 0.397764 0.235100
O O15 0.500000 0.626179 0.323213
O O16 0.361724 0.500000 0.324986
#
# Coordination Sequence:
#
# PCOD9523996 Si02
#       6
#     8  16  16  16  16  16
#     4   7  12  26  44  60  85 121 151 173 210 266
#     4  11  19  27  48  71  91 120 158 193 226 270
#     4   9  19  30  41  67  99 123 151 187 224 269
#     4   9  18  31  46  67  95 123 151 186 228 273
#     4   9  17  30  46  64  91 123 151 183 226 276
#     4   9  18  33  49  66  93 126 157 191 231 272
#
# _framework density 16.187595999999999
#
# number of rings (size 3 to 8) (size 9 to 14) (size 15 to 20)
#    0.000    2.818    0.000    5.455    1.273    3.636 
#    0.000    0.000    0.000    2.727    0.000    7.636 
#    0.000    2.182    0.000    0.000    0.000    0.000 
#
# Total GULP energy -245036.432017 kJ/mol
# GULP energy per Si atom -5569.009819 kJ/mol
# Density = 1.615075 g / cm^3
# Si number density = 16.187596 Si / 1000 Ang^3
#
#
#
# Elastic Constant Matrix: (Units=GPa)
#
#
# Indices 1 2 3 4 5 6 
#
# 1 36.6707 7.9995 13.6598 0.0000 0.0000 0.0000
# 2 7.9995 51.0708 14.9269 0.0000 0.0000 0.0000
# 3 13.6598 14.9269 72.2565 0.0000 0.0000 0.0000
# 4 0.0000 0.0000 0.0000 6.3654 0.0000 0.0000
# 5 0.0000 0.0000 0.0000 0.0000 19.7590 0.0000
# 6 0.0000 0.0000 0.0000 0.0000 0.0000 14.1776
#
#
#
# Elastic Compliance Matrix: (Units=1/GPa)
#
#
# Indices 1 2 3 4 5 6 
#
# 1 0.029824 -0.003218 -0.004973 0.000000 0.000000 0.000000
# 2 -0.003218 0.021186 -0.003768 0.000000 0.000000 0.000000
# 3 -0.004973 -0.003768 0.015558 0.000000 0.000000 0.000000
# 4 0.000000 0.000000 0.000000 0.157099 0.000000 0.000000
# 5 0.000000 0.000000 0.000000 0.000000 0.050610 0.000000
# 6 0.000000 0.000000 0.000000 0.000000 0.000000 0.070534
#
#
# Mechanical properties :
#
#
# Convention : Reuss Voigt Hill
#
# Bulk Modulus (GPa) = 23.44704 25.90784 24.67744
# Shear Modulus (GPa) = 13.05664 16.28786 14.67225
#
# Velocity S-wave (km/s) = 2.84312 3.17550 3.01389
# Velocity P-wave (km/s) = 5.02929 5.42997 5.23347
#
# Compressibility (1/GPa) = 0.04264930
#
# Stress axis : x y z
#
# Youngs Moduli (GPa) = 33.52977 47.20076 64.27458
#
# Poissons Ratio (x) = 0.15189 0.31966
# Poissons Ratio (y) = 0.10790 0.24221
# Poissons Ratio (z) = 0.16676 0.17787
#
# Static dielectric constant tensor:
#      x y z
#    x 1.595580 0.000000 0.000000 
#    y 0.000000 1.567180 0.000000 
#    z 0.000000 0.000000 1.518360 
# 
# From -- ./inp_files/39135.got.cif
#   From: 2010.05.17/outbox.cif.g08.bks.cpg/sg71_20_cif.got.tgz:39135.got - 2010.06.03 16:22:01.
