data_PCOD9523712
_publ_section_title
;
Structure prediction by ZEFSAII (Michael W. Deem and Ramdas Pophale) SiO2 
 PCOD9523712
Probable space group: I M M M
;
_chemical_formula_sum "Si O2"
_cell_formula_units_Z 60
_cell_length_a 19.323389
_cell_length_b 11.717405
_cell_length_c 14.347883
_cell_angle_alpha 90.000000
_cell_angle_beta 90.000000
_cell_angle_gamma 90.000000
_cell_volume 3248.647309
_symmetry_space_group_name_H-M "I M M M"
_symmetry_group_IT_number 71
_symmetry_cell_setting 'orthorhombic'
loop_
_space_group_symop_operation_xyz
x,y,z
-x,-y,z
x,-y,-z
-x,y,-z
-x,-y,-z
x,y,-z
-x,y,z
x,-y,z
1/2+x,1/2+y,1/2+z
1/2-x,1/2-y,1/2+z
1/2+x,1/2-y,1/2-z
1/2-x,1/2+y,1/2-z
1/2-x,1/2-y,1/2-z
1/2+x,1/2+y,1/2-z
1/2-x,1/2+y,1/2+z
1/2+x,1/2-y,1/2+z
loop_
_atom_site_type_symbol
_atom_site_label
_atom_site_fract_x
_atom_site_fract_y
_atom_site_fract_z
Si Si1 0.000000 0.751858 0.106594
Si Si2 0.894495 0.500000 0.658433
Si Si3 0.123134 0.870462 0.216161
Si Si4 0.735212 0.500000 0.613043
Si Si5 0.000000 0.500000 0.825708
Si Si6 0.419842 0.255204 0.895334
O O1 0.932766 0.801337 0.157433
O O2 0.000000 0.615760 0.116665
O O3 0.000000 0.788286 0.000000
O O4 0.811722 0.500000 0.654499
O O5 0.932948 0.500000 0.757886
O O6 0.916883 0.382012 0.610630
O O7 0.128124 0.807929 0.315255
O O8 0.097191 0.000000 0.233371
O O9 0.192129 0.892794 0.155412
O O10 0.736282 0.500000 0.500000
O O11 0.500000 0.288603 0.876349
O O12 0.401481 0.290993 0.000000
#
# Coordination Sequence:
#
# PCOD9523712 Si02
#       6
#     8   8  16   8   4  16
#     4  12  22  40  67  89 123 159 199 249 297 354
#     4  12  20  42  63  87 119 156 200 260 300 358
#     4  10  22  39  58  89 123 161 201 242 296 354
#     4  10  24  39  59  90 120 160 208 243 295 367
#     4  12  23  42  65  94 118 152 205 254 309 350
#     4  11  21  36  62  92 120 155 200 255 307 356
#
# _framework density 18.469225000000002
#
# number of rings (size 3 to 8) (size 9 to 14) (size 15 to 20)
#    0.800    0.267    5.333    2.600    0.000    3.200 
#    0.000    1.333    0.000    1.600    0.000    0.000 
#    0.000    0.000    0.000    0.000    0.000    0.000 
#
# Total GULP energy -167281.852657 kJ/mol
# GULP energy per Si atom -5576.061755 kJ/mol
# Density = 1.842719 g / cm^3
# Si number density = 18.469225 Si / 1000 Ang^3
#
#
#
# Elastic Constant Matrix: (Units=GPa)
#
#
# Indices 1 2 3 4 5 6 
#
# 1 106.5796 7.6594 36.5494 0.0000 0.0000 0.0000
# 2 7.6594 80.4846 21.6073 0.0000 0.0000 0.0000
# 3 36.5494 21.6073 127.9350 0.0000 0.0000 0.0000
# 4 0.0000 0.0000 0.0000 -6.8805 0.0000 0.0000
# 5 0.0000 0.0000 0.0000 0.0000 -2.9758 0.0000
# 6 0.0000 0.0000 0.0000 0.0000 0.0000 4.2384
#
#
#
# Elastic Compliance Matrix: (Units=1/GPa)
#
#
# Indices 1 2 3 4 5 6 
#
# 1 0.010405 -0.000201 -0.002939 0.000000 0.000000 0.000000
# 2 -0.000201 0.013019 -0.002141 0.000000 0.000000 0.000000
# 3 -0.002939 -0.002141 0.009018 0.000000 0.000000 0.000000
# 4 0.000000 0.000000 0.000000 -0.145338 0.000000 0.000000
# 5 0.000000 0.000000 0.000000 0.000000 -0.336041 0.000000
# 6 0.000000 0.000000 0.000000 0.000000 0.000000 0.235937
#
#
# Mechanical properties :
#
#
# Convention : Reuss Voigt Hill
#
# Bulk Modulus (GPa) = 45.70586 49.62569 47.66578
# Shear Modulus (GPa) = -25.62197 15.48862 -5.06668
#
# Velocity S-wave (km/s) = -3.72866 2.89903 -1.65809
# Velocity P-wave (km/s) = 2.50271 6.17524 4.71153
#
# Compressibility (1/GPa) = 0.02187903
#
# Stress axis : x y z
#
# Youngs Moduli (GPa) = 96.10915 76.81226 110.89412
#
# Poissons Ratio (x) = 0.01546 0.32587
# Poissons Ratio (y) = 0.01935 0.23745
# Poissons Ratio (z) = 0.28242 0.16448
#
# Static dielectric constant tensor:
#      x y z
#    x 1.642140 0.000000 0.000000 
#    y 0.000000 1.639960 0.000000 
#    z 0.000000 0.000000 1.637760 
# 
# From -- ./inp_files/37496.got.cif
#   From: 2010.05.17/outbox.cif.g08.bks.cpg/sg71_19_cif.got.tgz:37496.got - 2010.06.03 16:22:01.
