data_PCOD9523365
_publ_section_title
;
Structure prediction by ZEFSAII (Michael W. Deem and Ramdas Pophale) SiO2 
 PCOD9523365
Probable space group: I M M M
;
_chemical_formula_sum "Si O2"
_cell_formula_units_Z 72
_cell_length_a 8.347002
_cell_length_b 21.133146
_cell_length_c 22.124397
_cell_angle_alpha 90.000000
_cell_angle_beta 90.000000
_cell_angle_gamma 90.000000
_cell_volume 3902.708496
_symmetry_space_group_name_H-M "I M M M"
_symmetry_group_IT_number 71
_symmetry_cell_setting 'orthorhombic'
loop_
_space_group_symop_operation_xyz
x,y,z
-x,-y,z
x,-y,-z
-x,y,-z
-x,-y,-z
x,y,-z
-x,y,z
x,-y,z
1/2+x,1/2+y,1/2+z
1/2-x,1/2-y,1/2+z
1/2+x,1/2-y,1/2-z
1/2-x,1/2+y,1/2-z
1/2-x,1/2-y,1/2-z
1/2+x,1/2+y,1/2-z
1/2-x,1/2+y,1/2+z
1/2+x,1/2-y,1/2+z
loop_
_atom_site_type_symbol
_atom_site_label
_atom_site_fract_x
_atom_site_fract_y
_atom_site_fract_z
Si Si1 0.320414 0.000000 0.569700
Si Si2 0.691382 0.800164 0.197803
Si Si3 0.811024 0.753012 0.068033
Si Si4 0.813878 0.125734 0.383242
Si Si5 0.807356 0.426361 0.243554
O O1 0.215425 0.939832 0.584413
O O2 0.500000 0.000000 0.600331
O O3 0.348615 0.000000 0.500000
O O4 0.500000 0.798860 0.203055
O O5 0.750000 0.750000 0.250000
O O6 0.737812 0.782220 0.129311
O O7 0.746911 0.872951 0.208587
O O8 0.779661 0.678960 0.080087
O O9 0.000000 0.765884 0.068483
O O10 0.749855 0.769582 0.000000
O O11 0.742632 0.109332 0.317792
O O12 0.000000 0.143559 0.378411
O O13 0.748267 0.500000 0.246315
O O14 0.000000 0.430262 0.246271
#
# Coordination Sequence:
#
# PCOD9523365 Si02
#       5
#     8  16  16  16  16
#     4  11  23  37  51  69 105 157 200 235 284 349
#     4  11  22  37  62  91 120 154 197 249 299 355
#     4  11  24  41  60  83 116 158 200 244 300 360
#     4  12  23  34  54  83 114 150 194 244 292 344
#     4  10  21  38  60  84 117 158 195 235 292 358
#
# _framework density 18.448727000000002
#
# number of rings (size 3 to 8) (size 9 to 14) (size 15 to 20)
#    0.000    1.000    3.333    4.333    0.000    6.222 
#    0.000    0.000    0.000    0.667    0.000    4.667 
#    0.000    0.000    0.000    0.000    0.000    0.000 
#
# Total GULP energy -200582.766580 kJ/mol
# GULP energy per Si atom -5571.743516 kJ/mol
# Density = 1.840674 g / cm^3
# Si number density = 18.448727 Si / 1000 Ang^3
#
#
#
# Elastic Constant Matrix: (Units=GPa)
#
#
# Indices 1 2 3 4 5 6 
#
# 1 20.0734 13.0206 4.7061 0.0000 0.0000 0.0000
# 2 13.0206 64.0683 52.3085 0.0000 0.0000 0.0000
# 3 4.7061 52.3085 131.3123 0.0000 0.0000 0.0000
# 4 0.0000 0.0000 0.0000 12.9224 0.0000 0.0000
# 5 0.0000 0.0000 0.0000 0.0000 27.3638 0.0000
# 6 0.0000 0.0000 0.0000 0.0000 0.0000 22.2701
#
#
#
# Elastic Compliance Matrix: (Units=1/GPa)
#
#
# Indices 1 2 3 4 5 6 
#
# 1 0.058716 -0.015138 0.003926 0.000000 0.000000 0.000000
# 2 -0.015138 0.027034 -0.010227 0.000000 0.000000 0.000000
# 3 0.003926 -0.010227 0.011549 0.000000 0.000000 0.000000
# 4 0.000000 0.000000 0.000000 0.077385 0.000000 0.000000
# 5 0.000000 0.000000 0.000000 0.000000 0.036545 0.000000
# 6 0.000000 0.000000 0.000000 0.000000 0.000000 0.044903
#
#
# Mechanical properties :
#
#
# Convention : Reuss Voigt Hill
#
# Bulk Modulus (GPa) = 18.37513 39.50270 28.93892
# Shear Modulus (GPa) = 15.76538 22.20586 18.98562
#
# Velocity S-wave (km/s) = 2.92644 3.47313 3.21144
# Velocity P-wave (km/s) = 4.62607 6.12717 5.42875
#
# Compressibility (1/GPa) = 0.05442138
#
# Stress axis : x y z
#
# Youngs Moduli (GPa) = 17.03105 36.98981 86.59088
#
# Poissons Ratio (x) = 0.55996 -0.33996
# Poissons Ratio (y) = 0.25782 0.88554
# Poissons Ratio (z) = -0.06687 0.37828
#
# Static dielectric constant tensor:
#      x y z
#    x 1.662920 0.000000 0.000000 
#    y 0.000000 1.720760 0.000000 
#    z 0.000000 0.000000 1.722240 
# 
# From -- ./inp_files/9909.got.cif
#   From: 2010.05.17/outbox.cif.g08.bks.cpg/sg71_5_cif.got.tgz:9909.got - 2010.06.03 16:22:01.
