data_PCOD9523829
_publ_section_title
;
Structure prediction by ZEFSAII (Michael W. Deem and Ramdas Pophale) SiO2 
 PCOD9523829
Probable space group: I M M M
;
_chemical_formula_sum "Si O2"
_cell_formula_units_Z 74
_cell_length_a 15.749843
_cell_length_b 8.270458
_cell_length_c 28.272634
_cell_angle_alpha 90.000000
_cell_angle_beta 90.000000
_cell_angle_gamma 90.000000
_cell_volume 3682.748494
_symmetry_space_group_name_H-M "I M M M"
_symmetry_group_IT_number 71
_symmetry_cell_setting 'orthorhombic'
loop_
_space_group_symop_operation_xyz
x,y,z
-x,-y,z
x,-y,-z
-x,y,-z
-x,-y,-z
x,y,-z
-x,y,z
x,-y,z
1/2+x,1/2+y,1/2+z
1/2-x,1/2-y,1/2+z
1/2+x,1/2-y,1/2-z
1/2-x,1/2+y,1/2-z
1/2-x,1/2-y,1/2-z
1/2+x,1/2+y,1/2-z
1/2-x,1/2+y,1/2+z
1/2+x,1/2-y,1/2+z
loop_
_atom_site_type_symbol
_atom_site_label
_atom_site_fract_x
_atom_site_fract_y
_atom_site_fract_z
Si Si1 0.675885 0.687148 0.124925
Si Si2 0.500000 0.802834 0.710318
Si Si3 0.000000 0.500000 0.500000
Si Si4 0.000000 0.814201 0.568919
Si Si5 0.175971 0.695453 0.945542
Si Si6 0.661453 0.809632 0.230138
Si Si7 0.000000 0.807199 0.101176
O O1 0.698678 0.500000 0.135144
O O2 0.586602 0.691034 0.098366
O O3 0.749744 0.752798 0.090171
O O4 0.661991 0.771216 0.174808
O O5 0.417613 0.743720 0.739447
O O6 0.500000 0.746628 0.656042
O O7 0.500000 0.000000 0.709411
O O8 0.000000 0.648153 0.539514
O O9 0.000000 0.000000 0.548379
O O10 0.181217 0.500000 0.946833
O O11 0.084530 0.743325 0.924903
O O12 0.186971 0.752486 0.000000
O O13 0.750000 0.750000 0.250000
O O14 0.657184 0.000000 0.236069
O O15 0.000000 0.000000 0.098940
#
# Coordination Sequence:
#
# PCOD9523829 Si02
#       7
#    16   8   2   8  16  16   8
#     4  10  22  41  65  93 127 164 207 261 317 371
#     4  10  23  42  63  85 117 164 204 243 300 375
#     4  12  26  40  68  98 128 178 226 256 336 370
#     4  10  24  44  66  96 134 171 218 270 315 388
#     4  10  22  41  65  88 118 166 211 246 303 375
#     4  11  23  39  62  91 124 160 207 257 312 379
#     4  12  25  40  59  92 124 154 200 265 317 362
#
# _framework density 20.093686999999999
#
# number of rings (size 3 to 8) (size 9 to 14) (size 15 to 20)
#    0.000    1.514    0.000    4.054    3.027    9.514 
#    0.000    0.000    0.000    0.000    0.000    0.000 
#    0.000    0.000    0.000    0.000    0.000    0.000 
#
# Total GULP energy -206307.084934 kJ/mol
# GULP energy per Si atom -5575.867160 kJ/mol
# Density = 2.004795 g / cm^3
# Si number density = 20.093687 Si / 1000 Ang^3
#
#
#
# Elastic Constant Matrix: (Units=GPa)
#
#
# Indices 1 2 3 4 5 6 
#
# 1 104.1107 -2.8280 33.6423 0.0000 0.0000 0.0000
# 2 -2.8280 61.6639 19.5284 0.0000 0.0000 0.0000
# 3 33.6423 19.5284 119.0455 0.0000 0.0000 0.0000
# 4 0.0000 0.0000 0.0000 48.0972 0.0000 0.0000
# 5 0.0000 0.0000 0.0000 0.0000 11.5186 0.0000
# 6 0.0000 0.0000 0.0000 0.0000 0.0000 -36.3523
#
#
#
# Elastic Compliance Matrix: (Units=1/GPa)
#
#
# Indices 1 2 3 4 5 6 
#
# 1 0.010705 0.001528 -0.003276 0.000000 0.000000 0.000000
# 2 0.001528 0.017324 -0.003274 0.000000 0.000000 0.000000
# 3 -0.003276 -0.003274 0.009863 0.000000 0.000000 0.000000
# 4 0.000000 0.000000 0.000000 0.020791 0.000000 0.000000
# 5 0.000000 0.000000 0.000000 0.000000 0.086816 0.000000
# 6 0.000000 0.000000 0.000000 0.000000 0.000000 -0.027509
#
#
# Mechanical properties :
#
#
# Convention : Reuss Voigt Hill
#
# Bulk Modulus (GPa) = 35.90744 42.83395 39.37069
# Shear Modulus (GPa) = 36.41217 20.28452 28.34835
#
# Velocity S-wave (km/s) = 4.26152 3.18071 3.76015
# Velocity P-wave (km/s) = 6.49021 5.90361 6.20385
#
# Compressibility (1/GPa) = 0.02784939
#
# Stress axis : x y z
#
# Youngs Moduli (GPa) = 93.41169 57.72398 101.38912
#
# Poissons Ratio (x) = -0.08823 0.33216
# Poissons Ratio (y) = -0.14278 0.33192
# Poissons Ratio (z) = 0.30602 0.18898
#
# Static dielectric constant tensor:
#      x y z
#    x 0.622720 0.000000 0.000000 
#    y 0.000000 1.725690 0.000000 
#    z 0.000000 0.000000 1.661080 
# 
# From -- ./inp_files/65213.got.cif
#   From: 2010.05.17/outbox.cif.g08.bks.cpg/sg71_33_cif.got.tgz:65213.got - 2010.06.03 16:22:01.
