data_PCOD9523111
_publ_section_title
;
Structure prediction by ZEFSAII (Michael W. Deem and Ramdas Pophale) SiO2 
 PCOD9523111
Probable space group: I M M M
;
_chemical_formula_sum "Si O2"
_cell_formula_units_Z 96
_cell_length_a 24.714212
_cell_length_b 8.790081
_cell_length_c 24.534113
_cell_angle_alpha 90.000000
_cell_angle_beta 90.000000
_cell_angle_gamma 90.000000
_cell_volume 5329.788876
_symmetry_space_group_name_H-M "I M M M"
_symmetry_group_IT_number 71
_symmetry_cell_setting 'orthorhombic'
loop_
_space_group_symop_operation_xyz
x,y,z
-x,-y,z
x,-y,-z
-x,y,-z
-x,-y,-z
x,y,-z
-x,y,z
x,-y,z
1/2+x,1/2+y,1/2+z
1/2-x,1/2-y,1/2+z
1/2+x,1/2-y,1/2-z
1/2-x,1/2+y,1/2-z
1/2-x,1/2-y,1/2-z
1/2+x,1/2+y,1/2-z
1/2-x,1/2+y,1/2+z
1/2+x,1/2-y,1/2+z
loop_
_atom_site_type_symbol
_atom_site_label
_atom_site_fract_x
_atom_site_fract_y
_atom_site_fract_z
Si Si1 0.061866 0.683331 0.271187
Si Si2 0.846227 0.682744 0.062651
Si Si3 0.939541 0.314870 0.855495
Si Si4 0.138569 0.825595 0.640210
Si Si5 0.227268 0.318027 0.562540
Si Si6 0.435784 0.167862 0.936301
O O1 0.063301 0.500000 0.274684
O O2 0.068489 0.727198 0.207779
O O3 0.110172 0.749639 0.307427
O O4 0.000000 0.728808 0.288197
O O5 0.839341 0.500000 0.068716
O O6 0.891929 0.736137 0.104730
O O7 0.788398 0.760991 0.071131
O O8 0.863022 0.711056 0.000000
O O9 0.939528 0.500000 0.857050
O O10 0.000000 0.265252 0.872137
O O11 0.189159 0.746840 0.610099
O O12 0.091922 0.802728 0.595129
O O13 0.151123 0.000000 0.651285
O O14 0.211524 0.269952 0.500000
O O15 0.224931 0.500000 0.563683
O O16 0.500000 0.172086 0.930302
O O17 0.417278 0.000000 0.915593
O O18 0.423095 0.173077 0.000000
#
# Coordination Sequence:
#
# PCOD9523111 Si02
#       6
#    16  16  16  16  16  16
#     4   9  18  34  54  73  99 139 181 214 246 295
#     4   9  17  31  54  84 114 137 161 203 255 301
#     4   8  15  30  54  83 111 139 170 202 242 298
#     4  12  23  32  47  72  99 128 169 219 266 307
#     4  10  21  37  55  73  98 136 178 214 252 306
#     4   9  18  32  48  66  91 125 164 205 252 309
#
# _framework density 18.011970999999999
#
# number of rings (size 3 to 8) (size 9 to 14) (size 15 to 20)
#    0.000    2.500    0.000    4.500    0.000    6.333 
#    0.000    4.167    0.000    1.500    0.000    2.333 
#    0.000    0.000    0.000    0.000    0.000    0.000 
#
# Total GULP energy -267562.406651 kJ/mol
# GULP energy per Si atom -5574.216805 kJ/mol
# Density = 1.797097 g / cm^3
# Si number density = 18.011971 Si / 1000 Ang^3
#
#
#
# Elastic Constant Matrix: (Units=GPa)
#
#
# Indices 1 2 3 4 5 6 
#
# 1 128.4678 35.5460 84.6441 0.0000 0.0000 0.0000
# 2 35.5460 41.6333 33.0844 0.0000 0.0000 0.0000
# 3 84.6441 33.0844 99.8025 0.0000 0.0000 0.0000
# 4 0.0000 0.0000 0.0000 11.1942 0.0000 0.0000
# 5 0.0000 0.0000 0.0000 0.0000 39.6719 0.0000
# 6 0.0000 0.0000 0.0000 0.0000 0.0000 20.3468
#
#
#
# Elastic Compliance Matrix: (Units=1/GPa)
#
#
# Indices 1 2 3 4 5 6 
#
# 1 0.018231 -0.004451 -0.013986 0.000000 0.000000 0.000000
# 2 -0.004451 0.033696 -0.007395 0.000000 0.000000 0.000000
# 3 -0.013986 -0.007395 0.024334 0.000000 0.000000 0.000000
# 4 0.000000 0.000000 0.000000 0.089332 0.000000 0.000000
# 5 0.000000 0.000000 0.000000 0.000000 0.025207 0.000000
# 6 0.000000 0.000000 0.000000 0.000000 0.000000 0.049148
#
#
# Mechanical properties :
#
#
# Convention : Reuss Voigt Hill
#
# Bulk Modulus (GPa) = 40.65847 64.05028 52.35438
# Shear Modulus (GPa) = 16.67718 22.01784 19.34751
#
# Velocity S-wave (km/s) = 3.04615 3.50008 3.28097
# Velocity P-wave (km/s) = 5.91558 7.20910 6.59413
#
# Compressibility (1/GPa) = 0.02459512
#
# Stress axis : x y z
#
# Youngs Moduli (GPa) = 54.85209 29.67704 41.09557
#
# Poissons Ratio (x) = 0.13209 0.57478
# Poissons Ratio (y) = 0.24413 0.30392
# Poissons Ratio (z) = 0.76719 0.21948
#
# Static dielectric constant tensor:
#      x y z
#    x 1.615900 0.000000 0.000000 
#    y 0.000000 1.627110 0.000000 
#    z 0.000000 0.000000 1.627090 
# 
# From -- ./inp_files/61545.got.cif
#   From: 2010.05.17/outbox.cif.g08.bks.cpg/sg71_31_cif.got.tgz:61545.got - 2010.06.03 16:22:01.
