data_PCOD9523842
_publ_section_title
;
Structure prediction by ZEFSAII (Michael W. Deem and Ramdas Pophale) SiO2 
 PCOD9523842
Probable space group: I M M M
;
_chemical_formula_sum "Si O2"
_cell_formula_units_Z 104
_cell_length_a 20.660517
_cell_length_b 7.965177
_cell_length_c 27.963768
_cell_angle_alpha 90.000000
_cell_angle_beta 90.000000
_cell_angle_gamma 90.000000
_cell_volume 4601.848388
_symmetry_space_group_name_H-M "I M M M"
_symmetry_group_IT_number 71
_symmetry_cell_setting 'orthorhombic'
loop_
_space_group_symop_operation_xyz
x,y,z
-x,-y,z
x,-y,-z
-x,y,-z
-x,-y,-z
x,y,-z
-x,y,z
x,-y,z
1/2+x,1/2+y,1/2+z
1/2-x,1/2-y,1/2+z
1/2+x,1/2-y,1/2-z
1/2-x,1/2+y,1/2-z
1/2-x,1/2-y,1/2-z
1/2+x,1/2+y,1/2-z
1/2-x,1/2+y,1/2+z
1/2+x,1/2-y,1/2+z
loop_
_atom_site_type_symbol
_atom_site_label
_atom_site_fract_x
_atom_site_fract_y
_atom_site_fract_z
Si Si1 0.571077 0.203073 0.158518
Si Si2 0.368223 0.195573 0.400462
Si Si3 0.077148 0.193577 0.000000
Si Si4 0.595471 0.804061 0.947257
Si Si5 0.570614 0.303223 0.693845
Si Si6 0.177100 0.799765 0.265329
Si Si7 0.241562 0.798377 0.445859
O O1 0.500000 0.254951 0.179460
O O2 0.571729 0.265592 0.103385
O O3 0.636673 0.254725 0.186337
O O4 0.571762 0.000000 0.157659
O O5 0.399677 0.216349 0.452192
O O6 0.409046 0.290098 0.361078
O O7 0.294505 0.256994 0.407453
O O8 0.366499 0.000000 0.387320
O O9 0.000000 0.191049 0.000000
O O10 0.100463 0.000000 0.000000
O O11 0.672967 0.789456 0.943075
O O12 0.576907 0.000000 0.948556
O O13 0.578206 0.731722 0.000000
O O14 0.500000 0.226301 0.701378
O O15 0.566889 0.500000 0.706325
O O16 0.628141 0.228774 0.725131
O O17 0.250000 0.750000 0.250000
O O18 0.178788 0.000000 0.264505
O O19 0.266597 0.769357 0.500000
O O20 0.232540 0.000000 0.441063
#
# Coordination Sequence:
#
# PCOD9523842 Si02
#       7
#    16  16   8  16  16  16  16
#     4  10  22  41  66  97 134 173 214 263 319 380
#     4  11  22  36  56  84 116 154 201 254 312 370
#     4  11  23  37  53  77 113 157 204 251 302 365
#     4   9  19  35  58  91 128 167 211 254 303 368
#     4  10  23  43  63  85 117 157 201 251 310 378
#     4  11  25  45  69  96 126 163 210 264 322 384
#     4   9  18  34  52  76 114 157 198 246 303 359
#
# _framework density 22.599613999999999
#
# number of rings (size 3 to 8) (size 9 to 14) (size 15 to 20)
#    0.000    1.923    0.769    2.077    2.154    7.077 
#    0.000    1.538    0.000    0.000    0.000    3.231 
#    0.000    0.000    0.000    0.000    0.000    0.000 
#
# Total GULP energy -290154.124653 kJ/mol
# GULP energy per Si atom -5579.887013 kJ/mol
# Density = 2.254818 g / cm^3
# Si number density = 22.599614 Si / 1000 Ang^3
#
#
#
# Elastic Constant Matrix: (Units=GPa)
#
#
# Indices 1 2 3 4 5 6 
#
# 1 190.8202 24.8480 67.8541 0.0000 0.0000 0.0000
# 2 24.8480 36.5677 1.3287 0.0000 0.0000 0.0000
# 3 67.8541 1.3287 128.7607 0.0000 0.0000 0.0000
# 4 0.0000 0.0000 0.0000 20.2795 0.0000 0.0000
# 5 0.0000 0.0000 0.0000 0.0000 -10.6965 0.0000
# 6 0.0000 0.0000 0.0000 0.0000 0.0000 -9.3684
#
#
#
# Elastic Compliance Matrix: (Units=1/GPa)
#
#
# Indices 1 2 3 4 5 6 
#
# 1 0.007189 -0.004749 -0.003739 0.000000 0.000000 0.000000
# 2 -0.004749 0.030494 0.002188 0.000000 0.000000 0.000000
# 3 -0.003739 0.002188 0.009714 0.000000 0.000000 0.000000
# 4 0.000000 0.000000 0.000000 0.049311 0.000000 0.000000
# 5 0.000000 0.000000 0.000000 0.000000 -0.093488 0.000000
# 6 0.000000 0.000000 0.000000 0.000000 0.000000 -0.106741
#
#
# Mechanical properties :
#
#
# Convention : Reuss Voigt Hill
#
# Bulk Modulus (GPa) = 28.73862 60.46781 44.60321
# Shear Modulus (GPa) = -63.03344 17.51742 -22.75801
#
# Velocity S-wave (km/s) = -5.28696 2.78712 -3.17678
# Velocity P-wave (km/s) = 4.95229 6.09685 2.51459
#
# Compressibility (1/GPa) = 0.03479639
#
# Stress axis : x y z
#
# Youngs Moduli (GPa) = 139.11026 32.79343 102.94160
#
# Poissons Ratio (x) = 0.15573 0.38492
# Poissons Ratio (y) = 0.66061 -0.22522
# Poissons Ratio (z) = 0.52016 -0.07175
#
# Static dielectric constant tensor:
#      x y z
#    x 1.874640 0.000000 0.000000 
#    y 0.000000 1.828210 0.000000 
#    z 0.000000 0.000000 1.874190 
# 
# From -- ./inp_files/66433.got.cif
#   From: 2010.05.17/outbox.cif.g08.bks.cpg/sg71_34_cif.got.tgz:66433.got - 2010.06.03 16:22:01.
