data_PCOD9523880
_publ_section_title
;
Structure prediction by ZEFSAII (Michael W. Deem and Ramdas Pophale) SiO2 
 PCOD9523880
Probable space group: I M M M
;
_chemical_formula_sum "Si O2"
_cell_formula_units_Z 88
_cell_length_a 23.540895
_cell_length_b 11.047171
_cell_length_c 17.141330
_cell_angle_alpha 90.000000
_cell_angle_beta 90.000000
_cell_angle_gamma 90.000000
_cell_volume 4457.779295
_symmetry_space_group_name_H-M "I M M M"
_symmetry_group_IT_number 71
_symmetry_cell_setting 'orthorhombic'
loop_
_space_group_symop_operation_xyz
x,y,z
-x,-y,z
x,-y,-z
-x,y,-z
-x,-y,-z
x,y,-z
-x,y,z
x,-y,z
1/2+x,1/2+y,1/2+z
1/2-x,1/2-y,1/2+z
1/2+x,1/2-y,1/2-z
1/2-x,1/2+y,1/2-z
1/2-x,1/2-y,1/2-z
1/2+x,1/2+y,1/2-z
1/2-x,1/2+y,1/2+z
1/2+x,1/2-y,1/2+z
loop_
_atom_site_type_symbol
_atom_site_label
_atom_site_fract_x
_atom_site_fract_y
_atom_site_fract_z
Si Si1 0.435418 0.761950 0.156789
Si Si2 0.696178 0.651322 0.000000
Si Si3 0.848831 0.269657 0.215486
Si Si4 0.433729 0.354293 0.591993
Si Si5 0.735964 0.635229 0.833356
Si Si6 0.398054 0.137612 0.000000
Si Si7 0.068085 0.000000 0.407145
O O1 0.500000 0.752064 0.184880
O O2 0.393681 0.815474 0.220923
O O3 0.414553 0.624738 0.134566
O O4 0.433290 0.840006 0.078433
O O5 0.726458 0.687566 0.080553
O O6 0.643982 0.746468 0.000000
O O7 0.691872 0.500000 0.000000
O O8 0.887220 0.204484 0.149584
O O9 0.803339 0.361617 0.180848
O O10 0.803592 0.190319 0.265785
O O11 0.423903 0.325483 0.500000
O O12 0.500000 0.320959 0.610104
O O13 0.430152 0.500000 0.600107
O O14 0.715307 0.500000 0.837670
O O15 0.374589 0.000000 0.000000
O O16 0.080452 0.000000 0.500000
O O17 0.000000 0.000000 0.403390
#
# Coordination Sequence:
#
# PCOD9523880 Si02
#       7
#    16   8  16  16  16   8   8
#     4  11  23  38  59  91 126 166 208 255 308 369
#     4  10  22  45  71  91 118 162 214 264 310 363
#     4  11  22  37  60  90 120 153 200 255 311 361
#     4   9  19  36  58  87 123 160 198 247 310 374
#     4  10  23  41  63  88 115 152 205 258 306 360
#     4  12  25  40  61  93 134 173 203 241 306 388
#     4   9  18  32  56  86 119 157 209 257 291 346
#
# _framework density 19.740770000000001
#
# number of rings (size 3 to 8) (size 9 to 14) (size 15 to 20)
#    0.000    1.727    2.727    1.909    5.091    1.455 
#    0.000    0.909    0.000    1.636    0.000    1.273 
#    0.000    0.000    0.000    0.000    0.000    0.000 
#
# Total GULP energy -244956.400991 kJ/mol
# GULP energy per Si atom -5567.190932 kJ/mol
# Density = 1.969584 g / cm^3
# Si number density = 19.740770 Si / 1000 Ang^3
#
#
#
# Elastic Constant Matrix: (Units=GPa)
#
#
# Indices 1 2 3 4 5 6 
#
# 1 125.0456 18.0781 63.2457 0.0000 0.0000 0.0000
# 2 18.0781 42.3324 17.9594 0.0000 0.0000 0.0000
# 3 63.2457 17.9594 113.8139 0.0000 0.0000 0.0000
# 4 0.0000 0.0000 0.0000 11.2835 0.0000 0.0000
# 5 0.0000 0.0000 0.0000 0.0000 -36.1864 0.0000
# 6 0.0000 0.0000 0.0000 0.0000 0.0000 26.8475
#
#
#
# Elastic Compliance Matrix: (Units=1/GPa)
#
#
# Indices 1 2 3 4 5 6 
#
# 1 0.011333 -0.002323 -0.005931 0.000000 0.000000 0.000000
# 2 -0.002323 0.025794 -0.002779 0.000000 0.000000 0.000000
# 3 -0.005931 -0.002779 0.012521 0.000000 0.000000 0.000000
# 4 0.000000 0.000000 0.000000 0.088625 0.000000 0.000000
# 5 0.000000 0.000000 0.000000 0.000000 -0.027635 0.000000
# 6 0.000000 0.000000 0.000000 0.000000 0.000000 0.037247
#
#
# Mechanical properties :
#
#
# Convention : Reuss Voigt Hill
#
# Bulk Modulus (GPa) = 36.25779 53.30650 44.78214
# Shear Modulus (GPa) = 27.91029 12.51615 20.21322
#
# Velocity S-wave (km/s) = 3.76419 2.52072 3.20337
# Velocity P-wave (km/s) = 6.10729 5.96103 6.03460
#
# Compressibility (1/GPa) = 0.02758028
#
# Stress axis : x y z
#
# Youngs Moduli (GPa) = 88.24003 38.76901 79.86869
#
# Poissons Ratio (x) = 0.09008 0.47369
# Poissons Ratio (y) = 0.20502 0.22196
# Poissons Ratio (z) = 0.52334 0.10774
#
# Static dielectric constant tensor:
#      x y z
#    x 1.710550 0.000000 0.000000 
#    y 0.000000 1.699580 0.000000 
#    z 0.000000 0.000000 1.798290 
# 
# From -- ./inp_files/47156.got.cif
#   From: 2010.05.17/outbox.cif.g08.bks.cpg/sg71_24_cif.got.tgz:47156.got - 2010.06.03 16:22:01.
