data_PCOD9523050
_publ_section_title
;
Structure prediction by ZEFSAII (Michael W. Deem and Ramdas Pophale) SiO2 
 PCOD9523050
Probable space group: I M M M
;
_chemical_formula_sum "Si O2"
_cell_formula_units_Z 104
_cell_length_a 20.107253
_cell_length_b 17.540581
_cell_length_c 15.264631
_cell_angle_alpha 90.000000
_cell_angle_beta 90.000000
_cell_angle_gamma 90.000000
_cell_volume 5383.726974
_symmetry_space_group_name_H-M "I M M M"
_symmetry_group_IT_number 71
_symmetry_cell_setting 'orthorhombic'
loop_
_space_group_symop_operation_xyz
x,y,z
-x,-y,z
x,-y,-z
-x,y,-z
-x,-y,-z
x,y,-z
-x,y,z
x,-y,z
1/2+x,1/2+y,1/2+z
1/2-x,1/2-y,1/2+z
1/2+x,1/2-y,1/2-z
1/2-x,1/2+y,1/2-z
1/2-x,1/2-y,1/2-z
1/2+x,1/2+y,1/2-z
1/2-x,1/2+y,1/2+z
1/2+x,1/2-y,1/2+z
loop_
_atom_site_type_symbol
_atom_site_label
_atom_site_fract_x
_atom_site_fract_y
_atom_site_fract_z
Si Si1 0.321659 0.291086 0.403604
Si Si2 0.155442 0.415388 0.597119
Si Si3 0.720001 0.588063 0.725070
Si Si4 0.419446 0.000000 0.397649
Si Si5 0.201061 0.175402 0.399414
Si Si6 0.075540 0.273644 0.354169
Si Si7 0.576873 0.167980 0.654577
O O1 0.324271 0.326195 0.500000
O O2 0.327165 0.353950 0.328281
O O3 0.251690 0.246791 0.392171
O O4 0.376384 0.224979 0.397864
O O5 0.187515 0.412942 0.500000
O O6 0.126317 0.500000 0.608248
O O7 0.210032 0.404813 0.672992
O O8 0.101044 0.350125 0.599488
O O9 0.699801 0.500000 0.719938
O O10 0.722477 0.616023 0.824971
O O11 0.399166 0.080044 0.353283
O O12 0.500000 0.000000 0.394794
O O13 0.399219 0.000000 0.500000
O O14 0.204277 0.148122 0.500000
O O15 0.128058 0.208103 0.377599
O O16 0.078598 0.298833 0.252570
O O17 0.000000 0.253706 0.376508
O O18 0.500000 0.169595 0.624180
#
# Coordination Sequence:
#
# PCOD9523050 Si02
#       7
#    16  16  16   8  16  16  16
#     4  11  21  37  63  89 119 159 200 250 305 361
#     4  10  21  36  56  87 125 161 196 237 293 364
#     4  11  22  39  63  88 120 159 198 249 305 362
#     4   9  18  34  54  82 125 167 202 240 289 364
#     4  11  23  41  62  87 119 154 201 256 310 363
#     4  11  22  37  59  85 118 160 206 253 302 356
#     4  10  21  36  58  87 122 165 207 247 301 367
#
# _framework density 19.317473
#
# number of rings (size 3 to 8) (size 9 to 14) (size 15 to 20)
#    0.000    1.462    3.077    2.769    1.077    3.692 
#    1.385    0.769    0.000    1.846    0.000    2.154 
#    0.000    0.000    0.000    0.000    0.000    0.000 
#
# Total GULP energy -290365.926155 kJ/mol
# GULP energy per Si atom -5583.960118 kJ/mol
# Density = 1.927351 g / cm^3
# Si number density = 19.317473 Si / 1000 Ang^3
#
#
#
# Elastic Constant Matrix: (Units=GPa)
#
#
# Indices 1 2 3 4 5 6 
#
# 1 78.2517 27.6310 34.3036 0.0000 0.0000 0.0000
# 2 27.6310 78.6767 51.5362 0.0000 0.0000 0.0000
# 3 34.3036 51.5362 128.2426 0.0000 0.0000 0.0000
# 4 0.0000 0.0000 0.0000 17.9434 0.0000 0.0000
# 5 0.0000 0.0000 0.0000 0.0000 8.8851 0.0000
# 6 0.0000 0.0000 0.0000 0.0000 0.0000 22.8717
#
#
#
# Elastic Compliance Matrix: (Units=1/GPa)
#
#
# Indices 1 2 3 4 5 6 
#
# 1 0.015205 -0.003632 -0.002608 0.000000 0.000000 0.000000
# 2 -0.003632 0.018119 -0.006310 0.000000 0.000000 0.000000
# 3 -0.002608 -0.006310 0.011031 0.000000 0.000000 0.000000
# 4 0.000000 0.000000 0.000000 0.055731 0.000000 0.000000
# 5 0.000000 0.000000 0.000000 0.000000 0.112547 0.000000
# 6 0.000000 0.000000 0.000000 0.000000 0.000000 0.043722
#
#
# Mechanical properties :
#
#
# Convention : Reuss Voigt Hill
#
# Bulk Modulus (GPa) = 51.93171 56.90141 54.41656
# Shear Modulus (GPa) = 17.36879 21.38671 19.37775
#
# Velocity S-wave (km/s) = 3.00179 3.33095 3.17064
# Velocity P-wave (km/s) = 6.24147 6.65684 6.45250
#
# Compressibility (1/GPa) = 0.01925606
#
# Stress axis : x y z
#
# Youngs Moduli (GPa) = 65.76874 55.19085 90.65376
#
# Poissons Ratio (x) = 0.20044 0.23639
# Poissons Ratio (y) = 0.23886 0.57202
# Poissons Ratio (z) = 0.17150 0.34825
#
# Static dielectric constant tensor:
#      x y z
#    x 1.678950 0.000000 0.000000 
#    y 0.000000 1.664540 0.000000 
#    z 0.000000 0.000000 1.729140 
# 
# From -- ./inp_files/38089.got.cif
#   From: 2010.05.17/outbox.cif.g08.bks.cpg/sg71_20_cif.got.tgz:38089.got - 2010.06.03 16:22:01.
