data_PCOD9523602
_publ_section_title
;
Structure prediction by ZEFSAII (Michael W. Deem and Ramdas Pophale) SiO2 
 PCOD9523602
Probable space group: I M M M
;
_chemical_formula_sum "Si O2"
_cell_formula_units_Z 116
_cell_length_a 25.250213
_cell_length_b 27.613504
_cell_length_c 7.718038
_cell_angle_alpha 90.000000
_cell_angle_beta 90.000000
_cell_angle_gamma 90.000000
_cell_volume 5381.377743
_symmetry_space_group_name_H-M "I M M M"
_symmetry_group_IT_number 71
_symmetry_cell_setting 'orthorhombic'
loop_
_space_group_symop_operation_xyz
x,y,z
-x,-y,z
x,-y,-z
-x,y,-z
-x,-y,-z
x,y,-z
-x,y,z
x,-y,z
1/2+x,1/2+y,1/2+z
1/2-x,1/2-y,1/2+z
1/2+x,1/2-y,1/2-z
1/2-x,1/2+y,1/2-z
1/2-x,1/2-y,1/2-z
1/2+x,1/2+y,1/2-z
1/2-x,1/2+y,1/2+z
1/2+x,1/2-y,1/2+z
loop_
_atom_site_type_symbol
_atom_site_label
_atom_site_fract_x
_atom_site_fract_y
_atom_site_fract_z
Si Si1 0.189316 0.234813 0.707398
Si Si2 0.000000 0.233631 0.500000
Si Si3 0.650404 0.370949 0.207729
Si Si4 0.061207 0.054288 0.791383
Si Si5 0.078032 0.269023 0.203296
Si Si6 0.346064 0.054514 0.201479
Si Si7 0.232896 0.946060 0.701414
Si Si8 0.943334 0.619634 0.792311
O O1 0.186582 0.235507 0.500000
O O2 0.250000 0.250000 0.750000
O O3 0.168546 0.181886 0.771636
O O4 0.141719 0.268204 0.776609
O O5 0.953149 0.236494 0.655587
O O6 0.595015 0.398634 0.239497
O O7 0.692718 0.408918 0.282662
O O8 0.655121 0.367186 0.000000
O O9 0.000000 0.058654 0.734318
O O10 0.080728 0.000000 0.733057
O O11 0.061581 0.053036 0.000000
O O12 0.060538 0.323672 0.247675
O O13 0.065251 0.258680 0.000000
O O14 0.292880 0.072116 0.292186
O O15 0.394954 0.089363 0.223419
O O16 0.358200 0.000000 0.265393
O O17 0.332871 0.051734 0.000000
O O18 0.217960 0.950150 0.500000
O O19 0.231617 0.000000 0.777637
O O20 0.000000 0.601089 0.728250
O O21 0.942096 0.615737 0.000000
#
# Coordination Sequence:
#
# PCOD9523602 Si02
#       8
#    16   4  16  16  16  16  16  16
#     4  11  25  45  65  93 134 176 223 283 348 411
#     4  12  22  44  76 102 133 170 223 274 344 394
#     4  10  22  39  61  91 123 159 207 262 319 382
#     4   9  19  37  60  89 128 170 210 255 313 384
#     4  11  24  44  69 101 133 171 220 280 334 399
#     4  10  22  36  53  83 120 155 196 249 308 369
#     4   9  18  35  58  84 117 157 198 247 305 367
#     4  10  22  39  61  87 116 155 205 254 308 374
#
# _framework density 21.555817999999999
#
# number of rings (size 3 to 8) (size 9 to 14) (size 15 to 20)
#    0.000    1.931    1.379    1.862    2.897    4.138 
#    1.241    3.448    0.000    0.000    0.000    0.000 
#    0.000    0.000    0.000    0.000    0.000    0.000 
#
# Total GULP energy -322973.588151 kJ/mol
# GULP energy per Si atom -5568.510141 kJ/mol
# Density = 2.150676 g / cm^3
# Si number density = 21.555818 Si / 1000 Ang^3
#
#
#
# Elastic Constant Matrix: (Units=GPa)
#
#
# Indices 1 2 3 4 5 6 
#
# 1 120.4674 44.5290 10.8863 0.0000 0.0000 0.0000
# 2 44.5290 57.4153 10.2316 0.0000 0.0000 0.0000
# 3 10.8863 10.2316 62.2562 0.0000 0.0000 0.0000
# 4 0.0000 0.0000 0.0000 7.8876 0.0000 0.0000
# 5 0.0000 0.0000 0.0000 0.0000 30.8219 0.0000
# 6 0.0000 0.0000 0.0000 0.0000 0.0000 32.0477
#
#
#
# Elastic Compliance Matrix: (Units=1/GPa)
#
#
# Indices 1 2 3 4 5 6 
#
# 1 0.011657 -0.008939 -0.000569 0.000000 0.000000 0.000000
# 2 -0.008939 0.024797 -0.002512 0.000000 0.000000 0.000000
# 3 -0.000569 -0.002512 0.016575 0.000000 0.000000 0.000000
# 4 0.000000 0.000000 0.000000 0.126781 0.000000 0.000000
# 5 0.000000 0.000000 0.000000 0.000000 0.032444 0.000000
# 6 0.000000 0.000000 0.000000 0.000000 0.000000 0.031203
#
#
# Mechanical properties :
#
#
# Convention : Reuss Voigt Hill
#
# Bulk Modulus (GPa) = 34.49688 41.27030 37.88359
# Shear Modulus (GPa) = 18.04002 25.78425 21.91214
#
# Velocity S-wave (km/s) = 2.89606 3.46231 3.19177
# Velocity P-wave (km/s) = 5.21739 5.93050 5.58533
#
# Compressibility (1/GPa) = 0.02898813
#
# Stress axis : x y z
#
# Youngs Moduli (GPa) = 85.78844 40.32691 60.33154
#
# Poissons Ratio (x) = 0.36048 0.03434
# Poissons Ratio (y) = 0.76686 0.15157
# Poissons Ratio (z) = 0.04883 0.10131
#
# Static dielectric constant tensor:
#      x y z
#    x 3.199570 0.000000 0.000000 
#    y 0.000000 1.836460 0.000000 
#    z 0.000000 0.000000 1.803770 
# 
# From -- ./inp_files/13421.got.cif
#   From: 2010.05.17/outbox.cif.g08.bks.cpg/sg71_7_cif.got.tgz:13421.got - 2010.06.03 16:22:01.
