data_PCOD9523892
_publ_section_title
;
Structure prediction by ZEFSAII (Michael W. Deem and Ramdas Pophale) SiO2 
 PCOD9523892
Probable space group: I M M M
;
_chemical_formula_sum "Si O2"
_cell_formula_units_Z 90
_cell_length_a 7.886049
_cell_length_b 25.271713
_cell_length_c 21.020006
_cell_angle_alpha 90.000000
_cell_angle_beta 90.000000
_cell_angle_gamma 90.000000
_cell_volume 4189.160383
_symmetry_space_group_name_H-M "I M M M"
_symmetry_group_IT_number 71
_symmetry_cell_setting 'orthorhombic'
loop_
_space_group_symop_operation_xyz
x,y,z
-x,-y,z
x,-y,-z
-x,y,-z
-x,-y,-z
x,y,-z
-x,y,z
x,-y,z
1/2+x,1/2+y,1/2+z
1/2-x,1/2-y,1/2+z
1/2+x,1/2-y,1/2-z
1/2-x,1/2+y,1/2-z
1/2-x,1/2-y,1/2-z
1/2+x,1/2+y,1/2-z
1/2-x,1/2+y,1/2+z
1/2+x,1/2-y,1/2+z
loop_
_atom_site_type_symbol
_atom_site_label
_atom_site_fract_x
_atom_site_fract_y
_atom_site_fract_z
Si Si1 0.794900 0.440714 0.877780
Si Si2 0.794971 0.440237 0.729649
Si Si3 0.189201 0.241746 0.321472
Si Si4 0.194342 0.850057 0.131642
Si Si5 0.201631 0.830527 0.569384
Si Si6 0.500000 0.000000 0.000000
Si Si7 0.700331 0.589048 0.500000
O O1 0.741242 0.500000 0.896828
O O2 0.746676 0.432984 0.803458
O O3 0.725512 0.392656 0.918434
O O4 0.000000 0.439305 0.880547
O O5 0.744017 0.500000 0.710021
O O6 0.724129 0.395434 0.684112
O O7 0.000000 0.438137 0.726354
O O8 0.250000 0.250000 0.250000
O O9 0.194075 0.299017 0.354243
O O10 0.277051 0.201189 0.370410
O O11 0.000000 0.221005 0.313343
O O12 0.000000 0.831919 0.135952
O O13 0.222607 0.875841 0.063141
O O14 0.272564 0.815803 0.500000
O O15 0.000000 0.819182 0.567276
O O16 0.347613 0.954525 0.000000
O O17 0.500000 0.570476 0.500000
#
# Coordination Sequence:
#
# PCOD9523892 Si02
#       7
#    16  16  16  16  16   2   8
#     4   9  19  37  59  88 123 156 195 247 300 365
#     4   9  19  35  59  88 119 157 207 255 304 380
#     4  11  24  42  67  93 123 162 212 266 324 397
#     4  11  24  41  60  88 129 164 209 274 329 382
#     4  10  23  41  60  87 119 156 201 252 303 367
#     4  12  26  44  76  90 132 196 234 264 372 402
#     4  10  27  45  63 100 137 175 233 290 332 420
#
# _framework density 21.484017999999999
#
# number of rings (size 3 to 8) (size 9 to 14) (size 15 to 20)
#    0.000    1.956    0.000    3.333    4.978    6.400 
#    0.000    3.556    0.000    0.000    0.000    0.000 
#    0.000    0.000    0.000    0.000    0.000    0.000 
#
# Total GULP energy -251050.033649 kJ/mol
# GULP energy per Si atom -5578.889637 kJ/mol
# Density = 2.143512 g / cm^3
# Si number density = 21.484018 Si / 1000 Ang^3
#
#
#
# Elastic Constant Matrix: (Units=GPa)
#
#
# Indices 1 2 3 4 5 6 
#
# 1 44.7017 4.4927 26.7300 0.0000 0.0000 0.0000
# 2 4.4927 86.8213 54.7080 0.0001 0.0000 0.0000
# 3 26.7300 54.7080 127.3008 0.0006 0.0000 0.0000
# 4 0.0000 0.0001 0.0006 294.9100 0.0000 0.0000
# 5 0.0000 0.0000 0.0000 0.0000 21.2775 0.0000
# 6 0.0000 0.0000 0.0000 0.0000 0.0000 24.1056
#
#
#
# Elastic Compliance Matrix: (Units=1/GPa)
#
#
# Indices 1 2 3 4 5 6 
#
# 1 0.026099 0.002883 -0.006719 0.000000 0.000000 0.000000
# 2 0.002883 0.016114 -0.007530 0.000000 0.000000 0.000000
# 3 -0.006719 -0.007530 0.012502 0.000000 0.000000 0.000000
# 4 0.000000 0.000000 0.000000 0.003391 0.000000 0.000000
# 5 0.000000 0.000000 0.000000 0.000000 0.046998 0.000000
# 6 0.000000 0.000000 0.000000 0.000000 0.000000 0.041484
#
#
# Mechanical properties :
#
#
# Convention : Reuss Voigt Hill
#
# Bulk Modulus (GPa) = 31.26716 47.85391 39.56053
# Shear Modulus (GPa) = 27.78071 79.58482 53.68277
#
# Velocity S-wave (km/s) = 3.59985 6.09296 5.00415
# Velocity P-wave (km/s) = 5.64481 8.47475 7.20018
#
# Compressibility (1/GPa) = 0.03198244
#
# Stress axis : x y z
#
# Youngs Moduli (GPa) = 38.31627 62.05875 79.98410
#
# Poissons Ratio (x) = -0.17894 0.53743
# Poissons Ratio (y) = -0.11048 0.60231
# Poissons Ratio (z) = 0.25745 0.46733
#
# Static dielectric constant tensor:
#      x y z
#    x 1.804750 0.000000 0.000000 
#    y 0.000000 1.743810 0.000000 
#    z 0.000000 0.000000 1.792960 
# 
# From -- ./inp_files/50551.got.cif
#   From: 2010.05.17/outbox.cif.g08.bks.cpg/sg71_26_cif.got.tgz:50551.got - 2010.06.03 16:22:01.
