data_PCOD9523753
_publ_section_title
;
Structure prediction by ZEFSAII (Michael W. Deem and Ramdas Pophale) SiO2 
 PCOD9523753
Probable space group: I M M M
;
_chemical_formula_sum "Si O2"
_cell_formula_units_Z 74
_cell_length_a 29.517618
_cell_length_b 15.646992
_cell_length_c 8.679948
_cell_angle_alpha 90.000000
_cell_angle_beta 90.000000
_cell_angle_gamma 90.000000
_cell_volume 4008.937559
_symmetry_space_group_name_H-M "I M M M"
_symmetry_group_IT_number 71
_symmetry_cell_setting 'orthorhombic'
loop_
_space_group_symop_operation_xyz
x,y,z
-x,-y,z
x,-y,-z
-x,y,-z
-x,-y,-z
x,y,-z
-x,y,z
x,-y,z
1/2+x,1/2+y,1/2+z
1/2-x,1/2-y,1/2+z
1/2+x,1/2-y,1/2-z
1/2-x,1/2+y,1/2-z
1/2-x,1/2-y,1/2-z
1/2+x,1/2+y,1/2-z
1/2-x,1/2+y,1/2+z
1/2+x,1/2-y,1/2+z
loop_
_atom_site_type_symbol
_atom_site_label
_atom_site_fract_x
_atom_site_fract_y
_atom_site_fract_z
Si Si1 0.336582 0.905999 0.184087
Si Si2 0.500000 0.178169 0.671532
Si Si3 0.755916 0.154743 0.315081
Si Si4 0.000000 0.500000 0.000000
Si Si5 0.096747 0.736922 0.185180
Si Si6 0.857481 0.097410 0.314075
O O1 0.285797 0.898132 0.247755
O O2 0.366609 0.830482 0.252453
O O3 0.355112 0.000000 0.225200
O O4 0.335458 0.897848 0.000000
O O5 0.500000 0.220071 0.500000
O O6 0.500000 0.077143 0.632299
O O7 0.547127 0.208189 0.743842
O O8 0.752984 0.156143 0.500000
O O9 0.750000 0.250000 0.250000
O O10 0.805207 0.118467 0.272651
O O11 0.111050 0.830855 0.239308
O O12 0.097592 0.731604 0.000000
O O13 0.860652 0.104100 0.500000
O O14 0.868181 0.000000 0.269821
#
# Coordination Sequence:
#
# PCOD9523753 Si02
#       6
#    16   8  16   2  16  16
#     4  11  24  38  55  83 121 158 196 242 293 353
#     4   8  20  36  60  89 119 148 191 239 296 359
#     4  11  21  36  58  85 117 156 199 245 293 349
#     4   8  16  40  64  88 124 156 184 244 298 376
#     4  11  22  38  62  89 115 149 195 248 303 356
#     4  10  22  40  61  83 117 160 201 243 295 353
#
# _framework density 18.458756999999999
#
# number of rings (size 3 to 8) (size 9 to 14) (size 15 to 20)
#    0.324    1.297    2.162    2.595    1.514    3.892 
#    0.000    2.703    0.000    4.541    0.000    0.000 
#    0.000    0.000    0.000    0.000    0.000    0.000 
#
# Total GULP energy -206260.004160 kJ/mol
# GULP energy per Si atom -5574.594707 kJ/mol
# Density = 1.841674 g / cm^3
# Si number density = 18.458757 Si / 1000 Ang^3
#
#
#
# Elastic Constant Matrix: (Units=GPa)
#
#
# Indices 1 2 3 4 5 6 
#
# 1 121.7432 70.4599 25.9708 0.0000 0.0000 0.0000
# 2 70.4599 172.5364 42.4590 0.0000 0.0000 0.0000
# 3 25.9708 42.4590 37.9337 0.0000 0.0000 0.0000
# 4 0.0000 0.0000 0.0000 18.3329 0.0000 0.0000
# 5 0.0000 0.0000 0.0000 0.0000 14.7548 0.0000
# 6 0.0000 0.0000 0.0000 0.0000 0.0000 4.8065
#
#
#
# Elastic Compliance Matrix: (Units=1/GPa)
#
#
# Indices 1 2 3 4 5 6 
#
# 1 0.011079 -0.003668 -0.003479 0.000000 0.000000 0.000000
# 2 -0.003668 0.009214 -0.007801 0.000000 0.000000 0.000000
# 3 -0.003479 -0.007801 0.037476 0.000000 0.000000 0.000000
# 4 0.000000 0.000000 0.000000 0.054547 0.000000 0.000000
# 5 0.000000 0.000000 0.000000 0.000000 0.067775 0.000000
# 6 0.000000 0.000000 0.000000 0.000000 0.000000 0.208052
#
#
# Mechanical properties :
#
#
# Convention : Reuss Voigt Hill
#
# Bulk Modulus (GPa) = 35.87983 67.77696 51.82840
# Shear Modulus (GPa) = 11.70053 20.46709 16.08381
#
# Velocity S-wave (km/s) = 2.52042 3.33348 2.95505
# Velocity P-wave (km/s) = 5.28678 7.18428 6.30729
#
# Compressibility (1/GPa) = 0.02787081
#
# Stress axis : x y z
#
# Youngs Moduli (GPa) = 90.25841 108.53312 26.68370
#
# Poissons Ratio (x) = 0.39813 0.09284
# Poissons Ratio (y) = 0.33110 0.20817
# Poissons Ratio (z) = 0.31404 0.84672
#
# Static dielectric constant tensor:
#      x y z
#    x 1.649490 0.000000 0.000000 
#    y 0.000000 1.631740 0.000000 
#    z 0.000000 0.000000 1.628300 
# 
# From -- ./inp_files/16427.got.cif
#   From: 2010.05.17/outbox.cif.g08.bks.cpg/sg71_9_cif.got.tgz:16427.got - 2010.06.03 16:22:01.
