data_PCOD9523530
_publ_section_title
;
Structure prediction by ZEFSAII (Michael W. Deem and Ramdas Pophale) SiO2 
 PCOD9523530
Probable space group: I M M M
;
_chemical_formula_sum "Si O2"
_cell_formula_units_Z 100
_cell_length_a 29.983572
_cell_length_b 19.926982
_cell_length_c 8.428423
_cell_angle_alpha 90.000000
_cell_angle_beta 90.000000
_cell_angle_gamma 90.000000
_cell_volume 5035.831870
_symmetry_space_group_name_H-M "I M M M"
_symmetry_group_IT_number 71
_symmetry_cell_setting 'orthorhombic'
loop_
_space_group_symop_operation_xyz
x,y,z
-x,-y,z
x,-y,-z
-x,y,-z
-x,-y,-z
x,y,-z
-x,y,z
x,-y,z
1/2+x,1/2+y,1/2+z
1/2-x,1/2-y,1/2+z
1/2+x,1/2-y,1/2-z
1/2-x,1/2+y,1/2-z
1/2-x,1/2-y,1/2-z
1/2+x,1/2+y,1/2-z
1/2-x,1/2+y,1/2+z
1/2+x,1/2-y,1/2+z
loop_
_atom_site_type_symbol
_atom_site_label
_atom_site_fract_x
_atom_site_fract_y
_atom_site_fract_z
Si Si1 0.449189 0.741358 0.306897
Si Si2 0.371645 0.357686 0.689026
Si Si3 0.927173 0.604883 0.811343
Si Si4 0.300067 0.256092 0.810935
Si Si5 0.156330 0.000000 0.312589
Si Si6 0.000000 0.500000 0.709057
Si Si7 0.257654 0.000000 0.191029
Si Si8 0.331134 0.107442 0.809300
O O1 0.449087 0.739036 0.500000
O O2 0.500000 0.729564 0.253889
O O3 0.413564 0.686347 0.250096
O O4 0.434467 0.817151 0.266352
O O5 0.374804 0.360734 0.500000
O O6 0.327257 0.316615 0.734341
O O7 0.367415 0.432650 0.752379
O O8 0.876391 0.585532 0.775042
O O9 0.961248 0.558123 0.719232
O O10 0.936878 0.597066 0.000000
O O11 0.250000 0.250000 0.750000
O O12 0.323479 0.185419 0.772001
O O13 0.300145 0.264400 0.000000
O O14 0.208035 0.000000 0.257686
O O15 0.155885 0.000000 0.500000
O O16 0.287837 0.064168 0.236932
O O17 0.253623 0.000000 0.000000
O O18 0.336462 0.100051 0.000000
#
# Coordination Sequence:
#
# PCOD9523530 Si02
#       8
#    16  16  16  16   8   4   8  16
#     4   9  18  35  61  90 121 158 206 256 305 363
#     4  11  22  40  65  91 121 159 202 255 315 379
#     4  11  20  34  56  86 122 164 208 252 298 348
#     4  11  22  36  58  89 124 163 211 262 312 370
#     4  12  26  43  65  93 122 154 194 250 314 385
#     4  12  23  34  59  94 129 162 207 264 303 334
#     4  10  21  40  61  84 121 168 210 252 301 361
#     4  10  22  38  56  82 121 164 205 252 302 352
#
# _framework density 19.857692
#
# number of rings (size 3 to 8) (size 9 to 14) (size 15 to 20)
#    0.000    1.440    2.400    3.840    0.000    2.560 
#    0.000    1.200    0.000    6.240    0.000    0.000 
#    0.000    0.000    0.000    0.000    0.000    0.000 
#
# Total GULP energy -279030.120227 kJ/mol
# GULP energy per Si atom -5580.602405 kJ/mol
# Density = 1.981250 g / cm^3
# Si number density = 19.857692 Si / 1000 Ang^3
#
#
#
# Elastic Constant Matrix: (Units=GPa)
#
#
# Indices 1 2 3 4 5 6 
#
# 1 139.1077 66.4292 17.7879 0.0000 0.0000 0.0000
# 2 66.4292 166.0692 33.7607 0.0000 0.0000 0.0000
# 3 17.7879 33.7607 23.6931 0.0000 0.0000 0.0000
# 4 0.0000 0.0000 0.0000 -7.5129 0.0000 0.0000
# 5 0.0000 0.0000 0.0000 0.0000 -11.3929 0.0000
# 6 0.0000 0.0000 0.0000 0.0000 0.0000 28.5125
#
#
#
# Elastic Compliance Matrix: (Units=1/GPa)
#
#
# Indices 1 2 3 4 5 6 
#
# 1 0.008973 -0.003125 -0.002284 0.000000 0.000000 0.000000
# 2 -0.003125 0.009566 -0.011284 0.000000 0.000000 0.000000
# 3 -0.002284 -0.011284 0.060000 0.000000 0.000000 0.000000
# 4 0.000000 0.000000 0.000000 -0.133104 0.000000 0.000000
# 5 0.000000 0.000000 0.000000 0.000000 -0.087774 0.000000
# 6 0.000000 0.000000 0.000000 0.000000 0.000000 0.035072
#
#
# Mechanical properties :
#
#
# Convention : Reuss Voigt Hill
#
# Bulk Modulus (GPa) = 22.14707 62.75840 42.45274
# Shear Modulus (GPa) = -84.98956 15.98081 -34.50438
#
# Velocity S-wave (km/s) = -6.54922 2.83992 -4.17295
# Velocity P-wave (km/s) = 6.78325 6.51354 1.33909
#
# Compressibility (1/GPa) = 0.04515269
#
# Stress axis : x y z
#
# Youngs Moduli (GPa) = 111.44529 104.54160 16.66680
#
# Poissons Ratio (x) = 0.32669 0.03806
# Poissons Ratio (y) = 0.34827 0.18807
# Poissons Ratio (z) = 0.25451 1.17964
#
# Static dielectric constant tensor:
#      x y z
#    x 1.681700 0.000000 0.000000 
#    y 0.000000 1.690560 0.000000 
#    z 0.000000 0.000000 1.701770 
# 
# From -- ./inp_files/15060.got.cif
#   From: 2010.05.17/outbox.cif.g08.bks.cpg/sg71_8_cif.got.tgz:15060.got - 2010.06.03 16:22:01.
