data_PCOD9523622
_publ_section_title
;
Structure prediction by ZEFSAII (Michael W. Deem and Ramdas Pophale) SiO2 
 PCOD9523622
Probable space group: I M M M
;
_chemical_formula_sum "Si O2"
_cell_formula_units_Z 96
_cell_length_a 29.641375
_cell_length_b 12.179959
_cell_length_c 14.365932
_cell_angle_alpha 90.000000
_cell_angle_beta 90.000000
_cell_angle_gamma 90.000000
_cell_volume 5186.542949
_symmetry_space_group_name_H-M "I M M M"
_symmetry_group_IT_number 71
_symmetry_cell_setting 'orthorhombic'
loop_
_space_group_symop_operation_xyz
x,y,z
-x,-y,z
x,-y,-z
-x,y,-z
-x,-y,-z
x,y,-z
-x,y,z
x,-y,z
1/2+x,1/2+y,1/2+z
1/2-x,1/2-y,1/2+z
1/2+x,1/2-y,1/2-z
1/2-x,1/2+y,1/2-z
1/2-x,1/2-y,1/2-z
1/2+x,1/2+y,1/2-z
1/2-x,1/2+y,1/2+z
1/2+x,1/2-y,1/2+z
loop_
_atom_site_type_symbol
_atom_site_label
_atom_site_fract_x
_atom_site_fract_y
_atom_site_fract_z
Si Si1 0.445285 0.500000 0.896572
Si Si2 0.946426 0.815137 0.749143
Si Si3 0.700528 0.370384 0.610838
Si Si4 0.672774 0.000000 0.388502
Si Si5 0.054073 0.000000 0.101603
Si Si6 0.203495 0.751441 0.611013
Si Si7 0.722932 0.500000 0.112171
Si Si8 0.141287 0.705612 0.223981
O O1 0.500000 0.500000 0.900361
O O2 0.433662 0.608191 0.838707
O O3 0.426397 0.500000 0.000000
O O4 0.911476 0.717547 0.755254
O O5 0.000000 0.790855 0.745664
O O6 0.936951 0.892687 0.837969
O O7 0.690703 0.361365 0.500000
O O8 0.705783 0.500000 0.632791
O O9 0.747055 0.302317 0.626593
O O10 0.662226 0.312274 0.671908
O O11 0.650508 0.893273 0.345380
O O12 0.671048 0.000000 0.500000
O O13 0.725058 0.000000 0.358472
O O14 0.000000 0.000000 0.092284
O O15 0.075571 0.000000 0.000000
O O16 0.194084 0.741832 0.500000
O O17 0.168415 0.693499 0.679440
O O18 0.203092 0.881301 0.637780
O O19 0.722479 0.500000 0.000000
#
# Coordination Sequence:
#
# PCOD9523622 Si02
#       8
#     8  16  16   8   8  16   8  16
#     4   8  15  32  59  84 114 158 192 225 283 346
#     4   9  20  36  52  82 119 147 188 238 282 332
#     4  10  22  37  56  86 119 147 185 240 290 341
#     4  11  24  42  60  82 109 149 204 241 279 348
#     4   8  15  30  52  75 105 145 176 211 278 347
#     4  10  22  38  57  86 120 151 188 233 282 340
#     4   9  18  36  57  80 118 155 182 227 276 327
#     4  12  24  36  61  83 109 155 196 235 291 344
#
# _framework density 18.509439
#
# number of rings (size 3 to 8) (size 9 to 14) (size 15 to 20)
#    0.000    2.167    1.667    2.000    4.667    2.000 
#    0.000    1.250    0.000    0.500    0.000    0.000 
#    0.000    4.000    0.000    0.000    0.000    0.000 
#
# Total GULP energy -267854.474274 kJ/mol
# GULP energy per Si atom -5580.301547 kJ/mol
# Density = 1.846731 g / cm^3
# Si number density = 18.509439 Si / 1000 Ang^3
#
#
#
# Elastic Constant Matrix: (Units=GPa)
#
#
# Indices 1 2 3 4 5 6 
#
# 1 76.6402 15.6339 37.5131 0.0000 0.0000 0.0000
# 2 15.6339 67.3823 29.9388 0.0000 0.0000 0.0000
# 3 37.5131 29.9388 100.1900 0.0000 0.0000 0.0000
# 4 0.0000 0.0000 0.0000 16.5667 0.0000 0.0000
# 5 0.0000 0.0000 0.0000 0.0000 6.4982 0.0000
# 6 0.0000 0.0000 0.0000 0.0000 0.0000 -128.8591
#
#
#
# Elastic Compliance Matrix: (Units=1/GPa)
#
#
# Indices 1 2 3 4 5 6 
#
# 1 0.016062 -0.001216 -0.005650 0.000000 0.000000 0.000000
# 2 -0.001216 0.017205 -0.004686 0.000000 0.000000 0.000000
# 3 -0.005650 -0.004686 0.013497 0.000000 0.000000 0.000000
# 4 0.000000 0.000000 0.000000 0.060362 0.000000 0.000000
# 5 0.000000 0.000000 0.000000 0.000000 0.153890 0.000000
# 6 0.000000 0.000000 0.000000 0.000000 0.000000 -0.007760
#
#
# Mechanical properties :
#
#
# Convention : Reuss Voigt Hill
#
# Bulk Modulus (GPa) = 42.26760 45.59826 43.93293
# Shear Modulus (GPa) = 17.59042 -10.41706 3.58668
#
# Velocity S-wave (km/s) = 3.08612 -2.37491 1.39354
# Velocity P-wave (km/s) = 5.96524 4.14347 5.13578
#
# Compressibility (1/GPa) = 0.02365878
#
# Stress axis : x y z
#
# Youngs Moduli (GPa) = 62.25963 58.12332 74.09114
#
# Poissons Ratio (x) = 0.07068 0.41865
# Poissons Ratio (y) = 0.07571 0.34718
# Poissons Ratio (z) = 0.35180 0.27236
#
# Static dielectric constant tensor:
#      x y z
#    x 1.629270 0.000000 0.000000 
#    y 0.000000 1.664460 0.000000 
#    z 0.000000 0.000000 1.676390 
# 
# From -- ./inp_files/40929.got.cif
#   From: 2010.05.17/outbox.cif.g08.bks.cpg/sg71_21_cif.got.tgz:40929.got - 2010.06.03 16:22:01.
