data_PCOD9523073
_publ_section_title
;
Structure prediction by ZEFSAII (Michael W. Deem and Ramdas Pophale) SiO2 
 PCOD9523073
Probable space group: I M M M
;
_chemical_formula_sum "Si O2"
_cell_formula_units_Z 88
_cell_length_a 23.308780
_cell_length_b 23.064212
_cell_length_c 8.452444
_cell_angle_alpha 90.000000
_cell_angle_beta 90.000000
_cell_angle_gamma 90.000000
_cell_volume 4544.022428
_symmetry_space_group_name_H-M "I M M M"
_symmetry_group_IT_number 71
_symmetry_cell_setting 'orthorhombic'
loop_
_space_group_symop_operation_xyz
x,y,z
-x,-y,z
x,-y,-z
-x,y,-z
-x,-y,-z
x,y,-z
-x,y,z
x,-y,z
1/2+x,1/2+y,1/2+z
1/2-x,1/2-y,1/2+z
1/2+x,1/2-y,1/2-z
1/2-x,1/2+y,1/2-z
1/2-x,1/2-y,1/2-z
1/2+x,1/2+y,1/2-z
1/2-x,1/2+y,1/2+z
1/2+x,1/2-y,1/2+z
loop_
_atom_site_type_symbol
_atom_site_label
_atom_site_fract_x
_atom_site_fract_y
_atom_site_fract_z
Si Si1 0.567071 0.000000 0.310818
Si Si2 0.565265 0.436532 0.307418
Si Si3 0.379584 0.879982 0.811414
Si Si4 0.563991 0.762305 0.809385
Si Si5 0.233485 0.314349 0.185412
Si Si6 0.352753 0.665510 0.310620
O O1 0.600711 0.058308 0.257644
O O2 0.500000 0.000000 0.253053
O O3 0.565237 0.000000 0.500000
O O4 0.564427 0.435672 0.500000
O O5 0.500000 0.429506 0.253824
O O6 0.586147 0.500000 0.258685
O O7 0.604103 0.384280 0.256551
O O8 0.425769 0.829764 0.771483
O O9 0.319226 0.850597 0.758418
O O10 0.377490 0.886240 0.000000
O O11 0.500000 0.743745 0.758332
O O12 0.614963 0.725070 0.733508
O O13 0.567785 0.756060 0.000000
O O14 0.250000 0.250000 0.250000
O O15 0.293087 0.345540 0.224626
O O16 0.222654 0.308656 0.000000
O O17 0.344155 0.663910 0.500000
#
# Coordination Sequence:
#
# PCOD9523073 Si02
#       6
#     8  16  16  16  16  16
#     4  11  25  45  69  99 135 173 214 265 324 385
#     4   8  15  30  52  80 115 152 191 237 287 343
#     4  11  23  42  67  93 123 166 214 260 315 378
#     4  10  21  36  57  87 122 157 196 248 310 372
#     4  12  24  41  63  88 121 160 202 253 311 374
#     4  11  21  34  57  87 118 156 202 251 304 368
#
# _framework density 19.366101
#
# number of rings (size 3 to 8) (size 9 to 14) (size 15 to 20)
#    0.000    1.545    1.818    4.636    0.000    3.273 
#    1.636    0.000    0.000    1.636    0.000    6.364 
#    0.000    0.000    0.000    0.000    0.000    0.000 
#
# Total GULP energy -245522.955072 kJ/mol
# GULP energy per Si atom -5580.067161 kJ/mol
# Density = 1.932202 g / cm^3
# Si number density = 19.366101 Si / 1000 Ang^3
#
#
#
# Elastic Constant Matrix: (Units=GPa)
#
#
# Indices 1 2 3 4 5 6 
#
# 1 110.8264 54.2912 21.8862 0.0000 0.0000 0.0000
# 2 54.2912 131.1981 27.1461 0.0000 0.0000 0.0000
# 3 21.8862 27.1461 46.4649 0.0000 0.0000 0.0000
# 4 0.0000 0.0000 0.0000 23.1494 0.0000 0.0000
# 5 0.0000 0.0000 0.0000 0.0000 26.9296 0.0000
# 6 0.0000 0.0000 0.0000 0.0000 0.0000 20.4959
#
#
#
# Elastic Compliance Matrix: (Units=1/GPa)
#
#
# Indices 1 2 3 4 5 6 
#
# 1 0.011685 -0.004205 -0.003047 0.000000 0.000000 0.000000
# 2 -0.004205 0.010183 -0.003969 0.000000 0.000000 0.000000
# 3 -0.003047 -0.003969 0.025276 0.000000 0.000000 0.000000
# 4 0.000000 0.000000 0.000000 0.043198 0.000000 0.000000
# 5 0.000000 0.000000 0.000000 0.000000 0.037134 0.000000
# 6 0.000000 0.000000 0.000000 0.000000 0.000000 0.048790
#
#
# Mechanical properties :
#
#
# Convention : Reuss Voigt Hill
#
# Bulk Modulus (GPa) = 40.48263 55.01519 47.74891
# Shear Modulus (GPa) = 24.16150 26.45938 25.31044
#
# Velocity S-wave (km/s) = 3.53600 3.70032 3.61909
# Velocity P-wave (km/s) = 6.13354 6.83565 6.49409
#
# Compressibility (1/GPa) = 0.02470195
#
# Stress axis : x y z
#
# Youngs Moduli (GPa) = 85.58193 98.20087 39.56380
#
# Poissons Ratio (x) = 0.41291 0.12056
# Poissons Ratio (y) = 0.35985 0.15702
# Poissons Ratio (z) = 0.26079 0.38974
#
# Static dielectric constant tensor:
#      x y z
#    x 1.702000 0.000000 0.000000 
#    y 0.000000 1.698510 0.000000 
#    z 0.000000 0.000000 1.669740 
# 
# From -- ./inp_files/12499.got.cif
#   From: 2010.05.17/outbox.cif.g08.bks.cpg/sg71_7_cif.got.tgz:12499.got - 2010.06.03 16:22:01.
