data_PCOD9523500
_publ_section_title
;
Structure prediction by ZEFSAII (Michael W. Deem and Ramdas Pophale) SiO2 
 PCOD9523500
Probable space group: I M M M
;
_chemical_formula_sum "Si O2"
_cell_formula_units_Z 72
_cell_length_a 8.184999
_cell_length_b 15.110246
_cell_length_c 30.058928
_cell_angle_alpha 90.000000
_cell_angle_beta 90.000000
_cell_angle_gamma 90.000000
_cell_volume 3717.608511
_symmetry_space_group_name_H-M "I M M M"
_symmetry_group_IT_number 71
_symmetry_cell_setting 'orthorhombic'
loop_
_space_group_symop_operation_xyz
x,y,z
-x,-y,z
x,-y,-z
-x,y,-z
-x,-y,-z
x,y,-z
-x,y,z
x,-y,z
1/2+x,1/2+y,1/2+z
1/2-x,1/2-y,1/2+z
1/2+x,1/2-y,1/2-z
1/2-x,1/2+y,1/2-z
1/2-x,1/2-y,1/2-z
1/2+x,1/2+y,1/2-z
1/2-x,1/2+y,1/2+z
1/2+x,1/2-y,1/2+z
loop_
_atom_site_type_symbol
_atom_site_label
_atom_site_fract_x
_atom_site_fract_y
_atom_site_fract_z
Si Si1 0.802881 0.500000 0.177051
Si Si2 0.318107 0.788638 0.947323
Si Si3 0.190015 0.000000 0.777197
Si Si4 0.806248 0.697801 0.294636
Si Si5 0.000000 0.099047 0.945990
Si Si6 0.191610 0.320415 0.126773
O O1 0.713479 0.500000 0.223955
O O2 0.762462 0.587501 0.149587
O O3 0.000000 0.500000 0.185662
O O4 0.500000 0.826454 0.939746
O O5 0.293756 0.703232 0.916805
O O6 0.167216 0.851458 0.933880
O O7 0.303230 0.770657 0.000000
O O8 0.266410 0.093331 0.792683
O O9 0.000000 0.000000 0.789096
O O10 0.750000 0.750000 0.250000
O O11 0.721346 0.744792 0.336392
O O12 0.000000 0.709114 0.298659
O O13 0.000000 0.000000 0.928205
O O14 0.000000 0.095482 0.000000
O O15 0.000000 0.324169 0.115294
#
# Coordination Sequence:
#
# PCOD9523500 Si02
#       6
#     8  16   8  16   8  16
#     4  10  22  38  63  91 120 158 206 257 306 370
#     4  10  21  39  63  91 125 165 209 258 314 372
#     4  12  24  40  62  89 120 163 206 251 309 368
#     4  12  24  40  61  88 123 160 202 252 305 367
#     4   9  18  36  62  89 119 159 203 252 308 367
#     4  11  22  40  64  92 123 161 208 258 313 370
#
# _framework density 19.367290000000001
#
# number of rings (size 3 to 8) (size 9 to 14) (size 15 to 20)
#    0.000    1.222    3.333    3.667    0.000    1.333 
#    2.000    2.778    0.000    3.333    0.000    0.000 
#    0.000    0.000    0.000    0.000    0.000    0.000 
#
# Total GULP energy -201119.005236 kJ/mol
# GULP energy per Si atom -5586.639034 kJ/mol
# Density = 1.932321 g / cm^3
# Si number density = 19.367290 Si / 1000 Ang^3
#
#
#
# Elastic Constant Matrix: (Units=GPa)
#
#
# Indices 1 2 3 4 5 6 
#
# 1 93.4760 22.4515 20.0804 0.0000 0.0000 0.0000
# 2 22.4515 125.5463 31.2230 0.0000 0.0000 0.0000
# 3 20.0804 31.2230 53.5147 0.0000 0.0000 0.0000
# 4 0.0000 0.0000 0.0000 3.2660 0.0000 0.0000
# 5 0.0000 0.0000 0.0000 0.0000 28.7750 0.0000
# 6 0.0000 0.0000 0.0000 0.0000 0.0000 12.6683
#
#
#
# Elastic Compliance Matrix: (Units=1/GPa)
#
#
# Indices 1 2 3 4 5 6 
#
# 1 0.011783 -0.001179 -0.003734 0.000000 0.000000 0.000000
# 2 -0.001179 0.009435 -0.005063 0.000000 0.000000 0.000000
# 3 -0.003734 -0.005063 0.023041 0.000000 0.000000 0.000000
# 4 0.000000 0.000000 0.000000 0.306188 0.000000 0.000000
# 5 0.000000 0.000000 0.000000 0.000000 0.034752 0.000000
# 6 0.000000 0.000000 0.000000 0.000000 0.000000 0.078937
#
#
# Mechanical properties :
#
#
# Convention : Reuss Voigt Hill
#
# Bulk Modulus (GPa) = 41.13620 46.67184 43.90402
# Shear Modulus (GPa) = 10.15868 22.19398 16.17633
#
# Velocity S-wave (km/s) = 2.29274 3.38886 2.89319
# Velocity P-wave (km/s) = 5.31931 6.28197 5.82057
#
# Compressibility (1/GPa) = 0.02430949
#
# Stress axis : x y z
#
# Youngs Moduli (GPa) = 84.86736 105.98824 43.40051
#
# Poissons Ratio (x) = 0.12492 0.16205
# Poissons Ratio (y) = 0.10003 0.21972
# Poissons Ratio (z) = 0.31687 0.53657
#
# Static dielectric constant tensor:
#      x y z
#    x 1.685650 0.000000 0.000000 
#    y 0.000000 1.685560 0.000000 
#    z 0.000000 0.000000 1.665860 
# 
# From -- ./inp_files/62898.got.cif
#   From: 2010.05.17/outbox.cif.g08.bks.cpg/sg71_32_cif.got.tgz:62898.got - 2010.06.03 16:22:01.
