data_PCOD9523126
_publ_section_title
;
Structure prediction by ZEFSAII (Michael W. Deem and Ramdas Pophale) SiO2 
 PCOD9523126
Probable space group: I M M M
;
_chemical_formula_sum "Si O2"
_cell_formula_units_Z 68
_cell_length_a 28.178835
_cell_length_b 7.281418
_cell_length_c 16.420473
_cell_angle_alpha 90.000000
_cell_angle_beta 90.000000
_cell_angle_gamma 90.000000
_cell_volume 3369.183461
_symmetry_space_group_name_H-M "I M M M"
_symmetry_group_IT_number 71
_symmetry_cell_setting 'orthorhombic'
loop_
_space_group_symop_operation_xyz
x,y,z
-x,-y,z
x,-y,-z
-x,y,-z
-x,-y,-z
x,y,-z
-x,y,z
x,-y,z
1/2+x,1/2+y,1/2+z
1/2-x,1/2-y,1/2+z
1/2+x,1/2-y,1/2-z
1/2-x,1/2+y,1/2-z
1/2-x,1/2-y,1/2-z
1/2+x,1/2+y,1/2-z
1/2-x,1/2+y,1/2+z
1/2+x,1/2-y,1/2+z
loop_
_atom_site_type_symbol
_atom_site_label
_atom_site_fract_x
_atom_site_fract_y
_atom_site_fract_z
Si Si1 0.581864 0.000000 0.500000
Si Si2 0.140769 0.222076 0.752952
Si Si3 0.809915 0.220699 0.589908
Si Si4 0.944232 0.781383 0.856761
Si Si5 0.197578 0.783513 0.910399
O O1 0.576502 0.839931 0.429092
O O2 0.160711 0.289552 0.667165
O O3 0.086549 0.260078 0.776323
O O4 0.171530 0.288770 0.830496
O O5 0.146079 0.000000 0.750925
O O6 0.824322 0.287481 0.500000
O O7 0.754043 0.262396 0.599631
O O8 0.813981 0.000000 0.588704
O O9 0.000000 0.742547 0.848709
O O10 0.938833 0.000000 0.873901
O O11 0.186974 0.000000 0.914058
O O12 0.184435 0.704681 0.000000
#
# Coordination Sequence:
#
# PCOD9523126 Si02
#       5
#     4  16  16  16  16
#     4  12  23  38  56  82 112 138 178 222 260 314
#     4   9  18  32  50  71  99 136 173 211 261 316
#     4   9  17  31  49  70  98 131 171 219 265 308
#     4  10  21  37  56  77 107 145 177 213 264 318
#     4   9  17  29  45  66  97 132 167 211 259 313
#
# _framework density 20.182931
#
# number of rings (size 3 to 8) (size 9 to 14) (size 15 to 20)
#    0.000    2.588    0.000    2.118    1.647    0.941 
#    4.235    0.000    0.000    0.706    0.000    4.941 
#    0.000    1.882    0.000    0.235    0.000    0.000 
#
# Total GULP energy -189303.686060 kJ/mol
# GULP energy per Si atom -5567.755472 kJ/mol
# Density = 2.013699 g / cm^3
# Si number density = 20.182931 Si / 1000 Ang^3
#
#
#
# Elastic Constant Matrix: (Units=GPa)
#
#
# Indices 1 2 3 4 5 6 
#
# 1 63.7140 -0.8107 72.5593 0.0000 0.0000 0.0000
# 2 -0.8107 89.6390 16.4506 0.0000 0.0000 0.0000
# 3 72.5593 16.4506 174.3170 0.0000 0.0000 0.0000
# 4 0.0000 0.0000 0.0000 -7.6622 0.0000 0.0000
# 5 0.0000 0.0000 0.0000 0.0000 4.8181 0.0000
# 6 0.0000 0.0000 0.0000 0.0000 0.0000 5.1879
#
#
#
# Elastic Compliance Matrix: (Units=1/GPa)
#
#
# Indices 1 2 3 4 5 6 
#
# 1 0.030446 0.002647 -0.012923 0.000000 0.000000 0.000000
# 2 0.002647 0.011583 -0.002195 0.000000 0.000000 0.000000
# 3 -0.012923 -0.002195 0.011323 0.000000 0.000000 0.000000
# 4 0.000000 0.000000 0.000000 -0.130511 0.000000 0.000000
# 5 0.000000 0.000000 0.000000 0.000000 0.207552 0.000000
# 6 0.000000 0.000000 0.000000 0.000000 0.000000 0.192757
#
#
# Mechanical properties :
#
#
# Convention : Reuss Voigt Hill
#
# Bulk Modulus (GPa) = 35.19913 56.00758 45.60335
# Shear Modulus (GPa) = 13.98365 16.43348 15.20856
#
# Velocity S-wave (km/s) = 2.63505 2.85656 2.74804
# Velocity P-wave (km/s) = 5.17068 6.22014 5.71953
#
# Compressibility (1/GPa) = 0.02840980
#
# Stress axis : x y z
#
# Youngs Moduli (GPa) = 32.84544 86.33637 88.31667
#
# Poissons Ratio (x) = -0.22853 1.14129
# Poissons Ratio (y) = -0.08694 0.19384
# Poissons Ratio (z) = 0.42445 0.18950
#
# Static dielectric constant tensor:
#      x y z
#    x 1.718890 0.000000 0.000000 
#    y 0.000000 1.754350 0.000000 
#    z 0.000000 0.000000 1.618880 
# 
# From -- ./inp_files/49100.got.cif
#   From: 2010.05.17/outbox.cif.g08.bks.cpg/sg71_25_cif.got.tgz:49100.got - 2010.06.03 16:22:01.
