data_PCOD9523393
_publ_section_title
;
Structure prediction by ZEFSAII (Michael W. Deem and Ramdas Pophale) SiO2 
 PCOD9523393
Probable space group: I M M M
;
_chemical_formula_sum "Si O2"
_cell_formula_units_Z 72
_cell_length_a 7.381590
_cell_length_b 33.625999
_cell_length_c 14.191736
_cell_angle_alpha 90.000000
_cell_angle_beta 90.000000
_cell_angle_gamma 90.000000
_cell_volume 3522.578164
_symmetry_space_group_name_H-M "I M M M"
_symmetry_group_IT_number 71
_symmetry_cell_setting 'orthorhombic'
loop_
_space_group_symop_operation_xyz
x,y,z
-x,-y,z
x,-y,-z
-x,y,-z
-x,-y,-z
x,y,-z
-x,y,z
x,-y,z
1/2+x,1/2+y,1/2+z
1/2-x,1/2-y,1/2+z
1/2+x,1/2-y,1/2-z
1/2-x,1/2+y,1/2-z
1/2-x,1/2-y,1/2-z
1/2+x,1/2+y,1/2-z
1/2-x,1/2+y,1/2+z
1/2+x,1/2-y,1/2+z
loop_
_atom_site_type_symbol
_atom_site_label
_atom_site_fract_x
_atom_site_fract_y
_atom_site_fract_z
Si Si1 0.219725 0.314221 0.610166
Si Si2 0.219919 0.603411 0.708267
Si Si3 0.000000 0.047097 0.887866
Si Si4 0.216774 0.771335 0.611806
Si Si5 0.211654 0.640369 0.105513
O O1 0.270276 0.315898 0.500000
O O2 0.273902 0.354946 0.658714
O O3 0.283095 0.271302 0.650031
O O4 0.000000 0.313137 0.613985
O O5 0.325166 0.568105 0.658083
O O6 0.279310 0.609850 0.816592
O O7 0.000000 0.599451 0.702675
O O8 0.000000 0.000000 0.871424
O O9 0.000000 0.054217 0.000000
O O10 0.264646 0.770929 0.500000
O O11 0.279015 0.814435 0.645522
O O12 0.000000 0.771746 0.618198
O O13 0.000000 0.631805 0.096556
O O14 0.291608 0.639536 0.000000
#
# Coordination Sequence:
#
# PCOD9523393 Si02
#       5
#    16  16   8  16  16
#     4   8  14  27  47  72 106 148 195 242 285 336
#     4  10  21  38  61  87 116 155 193 233 290 349
#     4  11  26  46  67  95 121 137 174 236 297 369
#     4   8  14  25  43  69 105 152 199 243 285 321
#     4   9  18  32  50  78 117 158 203 244 276 322
#
# _framework density 20.439575999999999
#
# number of rings (size 3 to 8) (size 9 to 14) (size 15 to 20)
#    0.000    3.000    0.000    2.000    1.556    2.667 
#    2.000    1.111    0.000    1.333    0.000    3.111 
#    0.000    0.000    0.000    0.000    0.000    0.000 
#
# Total GULP energy -200831.692657 kJ/mol
# GULP energy per Si atom -5578.658129 kJ/mol
# Density = 2.039305 g / cm^3
# Si number density = 20.439576 Si / 1000 Ang^3
#
#
#
# Elastic Constant Matrix: (Units=GPa)
#
#
# Indices 1 2 3 4 5 6 
#
# 1 83.7391 37.9520 25.6199 0.0000 0.0000 0.0000
# 2 37.9520 128.3693 85.1493 0.0001 0.0000 0.0000
# 3 25.6199 85.1493 102.9578 0.0004 0.0001 0.0001
# 4 0.0000 0.0001 0.0004 29.4199 0.0001 0.0000
# 5 0.0000 0.0000 0.0001 0.0001 7.3304 0.0000
# 6 0.0000 0.0000 0.0001 0.0000 0.0000 40.2591
#
#
#
# Elastic Compliance Matrix: (Units=1/GPa)
#
#
# Indices 1 2 3 4 5 6 
#
# 1 0.013790 -0.003989 -0.000132 0.000000 0.000000 0.000000
# 2 -0.003989 0.018411 -0.014234 0.000000 0.000000 0.000000
# 3 -0.000132 -0.014234 0.021517 0.000000 0.000000 0.000000
# 4 0.000000 0.000000 0.000000 0.033991 0.000000 0.000000
# 5 0.000000 0.000000 0.000000 0.000000 0.136419 0.000000
# 6 0.000000 0.000000 0.000000 0.000000 0.000000 0.024839
#
#
# Mechanical properties :
#
#
# Convention : Reuss Voigt Hill
#
# Bulk Modulus (GPa) = 58.79587 68.05651 63.42619
# Shear Modulus (GPa) = 17.16169 26.49153 21.82661
#
# Velocity S-wave (km/s) = 2.90078 3.60403 3.27136
# Velocity P-wave (km/s) = 6.32831 7.11951 6.73554
#
# Compressibility (1/GPa) = 0.01700800
#
# Stress axis : x y z
#
# Youngs Moduli (GPa) = 72.51447 54.31578 46.47421
#
# Poissons Ratio (x) = 0.21668 0.00615
# Poissons Ratio (y) = 0.28928 0.66150
# Poissons Ratio (z) = 0.00959 0.77311
#
# Static dielectric constant tensor:
#      x y z
#    x 1.745400 0.000000 0.000000 
#    y 0.000000 1.688210 0.000000 
#    z 0.000000 0.000000 1.798830 
# 
# From -- ./inp_files/16375.got.cif
#   From: 2010.05.17/outbox.cif.g08.bks.cpg/sg71_9_cif.got.tgz:16375.got - 2010.06.03 16:22:01.
