data_PCOD9523446
_publ_section_title
;
Structure prediction by ZEFSAII (Michael W. Deem and Ramdas Pophale) SiO2 
 PCOD9523446
Probable space group: I M M M
;
_chemical_formula_sum "Si O2"
_cell_formula_units_Z 82
_cell_length_a 20.945917
_cell_length_b 7.706428
_cell_length_c 24.436048
_cell_angle_alpha 90.000000
_cell_angle_beta 90.000000
_cell_angle_gamma 90.000000
_cell_volume 3944.422914
_symmetry_space_group_name_H-M "I M M M"
_symmetry_group_IT_number 71
_symmetry_cell_setting 'orthorhombic'
loop_
_space_group_symop_operation_xyz
x,y,z
-x,-y,z
x,-y,-z
-x,y,-z
-x,-y,-z
x,y,-z
-x,y,z
x,-y,z
1/2+x,1/2+y,1/2+z
1/2-x,1/2-y,1/2+z
1/2+x,1/2-y,1/2-z
1/2-x,1/2+y,1/2-z
1/2-x,1/2-y,1/2-z
1/2+x,1/2+y,1/2-z
1/2-x,1/2+y,1/2+z
1/2+x,1/2-y,1/2+z
loop_
_atom_site_type_symbol
_atom_site_label
_atom_site_fract_x
_atom_site_fract_y
_atom_site_fract_z
Si Si1 0.734502 0.788235 0.438286
Si Si2 0.000000 0.700790 0.908108
Si Si3 0.500000 0.712386 0.936485
Si Si4 0.321139 0.300968 0.232575
Si Si5 0.500000 0.500000 0.500000
Si Si6 0.366904 0.287493 0.883738
Si Si7 0.866664 0.295719 0.152466
O O1 0.718343 0.730400 0.500000
O O2 0.806379 0.739869 0.421482
O O3 0.685265 0.727489 0.391477
O O4 0.731242 0.000000 0.438617
O O5 0.063640 0.722452 0.872543
O O6 0.000000 0.500000 0.928880
O O7 0.000000 0.846931 0.953323
O O8 0.500000 0.500000 0.935665
O O9 0.564899 0.770711 0.906670
O O10 0.500000 0.764545 0.000000
O O11 0.315539 0.500000 0.217781
O O12 0.250000 0.250000 0.250000
O O13 0.350535 0.220958 0.177487
O O14 0.362004 0.281147 0.287277
O O15 0.369617 0.500000 0.884413
O O16 0.852394 0.500000 0.159240
#
# Coordination Sequence:
#
# PCOD9523446 Si02
#       7
#    16   8   8  16   2  16  16
#     4   9  16  28  50  76 105 144 190 237 291 356
#     4  10  25  44  64  93 126 167 211 262 318 377
#     4   9  16  27  46  75 114 146 173 223 287 352
#     4  11  21  35  57  83 116 155 198 251 307 363
#     4  12  26  44  72  90 132 168 214 250 322 394
#     4   9  17  29  46  76 110 146 187 232 291 354
#     4  10  21  39  59  84 119 156 203 252 305 364
#
# _framework density 20.788845999999999
#
# number of rings (size 3 to 8) (size 9 to 14) (size 15 to 20)
#    0.000    2.244    1.951    1.317    2.732    3.122 
#    0.000    0.976    0.000    0.000    0.000    0.000 
#    0.000    3.122    0.000    0.000    0.000    0.000 
#
# Total GULP energy -228581.495311 kJ/mol
# GULP energy per Si atom -5575.158422 kJ/mol
# Density = 2.074153 g / cm^3
# Si number density = 20.788846 Si / 1000 Ang^3
#
#
#
# Elastic Constant Matrix: (Units=GPa)
#
#
# Indices 1 2 3 4 5 6 
#
# 1 129.8633 14.8063 54.5910 0.0000 0.0000 0.0000
# 2 14.8063 42.6394 11.5312 0.0000 0.0000 0.0000
# 3 54.5910 11.5312 144.7491 0.0000 0.0000 0.0000
# 4 0.0000 0.0000 0.0000 13.9446 0.0000 0.0000
# 5 0.0000 0.0000 0.0000 0.0000 33.1810 0.0000
# 6 0.0000 0.0000 0.0000 0.0000 0.0000 2.5180
#
#
#
# Elastic Compliance Matrix: (Units=1/GPa)
#
#
# Indices 1 2 3 4 5 6 
#
# 1 0.009376 -0.002350 -0.003349 0.000000 0.000000 0.000000
# 2 -0.002350 0.024558 -0.001070 0.000000 0.000000 0.000000
# 3 -0.003349 -0.001070 0.008257 0.000000 0.000000 0.000000
# 4 0.000000 0.000000 0.000000 0.071712 0.000000 0.000000
# 5 0.000000 0.000000 0.000000 0.000000 0.030138 0.000000
# 6 0.000000 0.000000 0.000000 0.000000 0.000000 0.397145
#
#
# Mechanical properties :
#
#
# Convention : Reuss Voigt Hill
#
# Bulk Modulus (GPa) = 34.90077 53.23430 44.06754
# Shear Modulus (GPa) = 8.86093 25.68361 17.27227
#
# Velocity S-wave (km/s) = 2.06679 3.51871 2.88556
# Velocity P-wave (km/s) = 4.74554 6.49393 5.68732
#
# Compressibility (1/GPa) = 0.02865266
#
# Stress axis : x y z
#
# Youngs Moduli (GPa) = 106.65353 40.72001 121.11282
#
# Poissons Ratio (x) = 0.09570 0.40560
# Poissons Ratio (y) = 0.25065 0.12959
# Poissons Ratio (z) = 0.35717 0.04357
#
# Static dielectric constant tensor:
#      x y z
#    x 1.719130 0.000000 0.000000 
#    y 0.000000 1.809680 0.000000 
#    z 0.000000 0.000000 1.750280 
# 
# From -- ./inp_files/57473.got.cif
#   From: 2010.05.17/outbox.cif.g08.bks.cpg/sg71_29_cif.got.tgz:57473.got - 2010.06.03 16:22:01.
