data_PCOD9523998
_publ_section_title
;
Structure prediction by ZEFSAII (Michael W. Deem and Ramdas Pophale) SiO2 
 PCOD9523998
Probable space group: I M M M
;
_chemical_formula_sum "Si O2"
_cell_formula_units_Z 72
_cell_length_a 8.292264
_cell_length_b 28.765090
_cell_length_c 19.968536
_cell_angle_alpha 90.000000
_cell_angle_beta 90.000000
_cell_angle_gamma 90.000000
_cell_volume 4763.049369
_symmetry_space_group_name_H-M "I M M M"
_symmetry_group_IT_number 71
_symmetry_cell_setting 'orthorhombic'
loop_
_space_group_symop_operation_xyz
x,y,z
-x,-y,z
x,-y,-z
-x,y,-z
-x,-y,-z
x,y,-z
-x,y,z
x,-y,z
1/2+x,1/2+y,1/2+z
1/2-x,1/2-y,1/2+z
1/2+x,1/2-y,1/2-z
1/2-x,1/2+y,1/2-z
1/2-x,1/2-y,1/2-z
1/2+x,1/2+y,1/2-z
1/2-x,1/2+y,1/2+z
1/2+x,1/2-y,1/2+z
loop_
_atom_site_type_symbol
_atom_site_label
_atom_site_fract_x
_atom_site_fract_y
_atom_site_fract_z
Si Si1 0.195289 0.178553 0.779695
Si Si2 0.304614 0.738007 0.000000
Si Si3 0.191431 0.500000 0.577210
Si Si4 0.804816 0.228533 0.647055
Si Si5 0.191676 0.902607 0.129867
Si Si6 0.693557 0.847429 0.000000
O O1 0.249150 0.193053 0.705116
O O2 0.252376 0.220209 0.828350
O O3 0.250939 0.128833 0.807842
O O4 0.000000 0.178807 0.780513
O O5 0.246691 0.718854 0.928424
O O6 0.268195 0.792970 0.000000
O O7 0.500000 0.733488 0.000000
O O8 0.257443 0.500000 0.500000
O O9 0.241204 0.546294 0.616508
O O10 0.000000 0.500000 0.571359
O O11 0.000000 0.228302 0.646182
O O12 0.000000 0.906718 0.135315
O O13 0.236117 0.872386 0.064837
O O14 0.500000 0.852685 0.000000
#
# Coordination Sequence:
#
# PCOD9523998 Si02
#       6
#    16   8   8  16  16   8
#     4   9  18  29  42  61  85 112 142 175 212 251
#     4   9  16  25  42  64  85 114 148 178 205 238
#     4  11  23  35  47  63  82 109 146 183 215 252
#     4   9  16  28  43  61  85 113 145 175 205 246
#     4  11  21  32  45  62  85 114 144 180 221 254
#     4  11  19  28  42  63  85 115 151 181 208 246
#
# _framework density 15.116367
#
# number of rings (size 3 to 8) (size 9 to 14) (size 15 to 20)
#    0.000    2.111    3.333    1.333    0.000    1.333 
#    0.000    0.556    0.000    0.000    0.000    0.000 
#    0.000    0.889    0.000   11.333    0.000    1.111 
#
# Total GULP energy -200638.957150 kJ/mol
# GULP energy per Si atom -5573.304365 kJ/mol
# Density = 1.508196 g / cm^3
# Si number density = 15.116367 Si / 1000 Ang^3
#
#
#
# Elastic Constant Matrix: (Units=GPa)
#
#
# Indices 1 2 3 4 5 6 
#
# 1 13.3270 18.6956 9.9982 0.0000 0.0000 0.0000
# 2 18.6956 100.6006 64.7273 0.0000 0.0000 0.0000
# 3 9.9982 64.7273 139.0359 0.0000 0.0000 0.0000
# 4 0.0000 0.0000 0.0000 20.3190 0.0000 0.0000
# 5 0.0000 0.0000 0.0000 0.0000 11.5476 0.0000
# 6 0.0000 0.0000 0.0000 0.0000 0.0000 15.0074
#
#
#
# Elastic Compliance Matrix: (Units=1/GPa)
#
#
# Indices 1 2 3 4 5 6 
#
# 1 0.101934 -0.020311 0.002125 0.000000 0.000000 0.000000
# 2 -0.020311 0.018238 -0.007030 0.000000 0.000000 0.000000
# 3 0.002125 -0.007030 0.010312 0.000000 0.000000 0.000000
# 4 0.000000 0.000000 0.000000 0.049215 0.000000 0.000000
# 5 0.000000 0.000000 0.000000 0.000000 0.086598 0.000000
# 6 0.000000 0.000000 0.000000 0.000000 0.000000 0.066634
#
#
# Mechanical properties :
#
#
# Convention : Reuss Voigt Hill
#
# Bulk Modulus (GPa) = 12.49162 48.86728 30.67945
# Shear Modulus (GPa) = 12.19371 20.01096 16.10233
#
# Velocity S-wave (km/s) = 2.84325 3.64235 3.26732
# Velocity P-wave (km/s) = 4.36581 7.07718 5.87992
#
# Compressibility (1/GPa) = 0.08005369
#
# Stress axis : x y z
#
# Youngs Moduli (GPa) = 9.81023 54.83027 96.97117
#
# Poissons Ratio (x) = 1.11366 -0.20611
# Poissons Ratio (y) = 0.19926 0.68171
# Poissons Ratio (z) = -0.02085 0.38546
#
# Static dielectric constant tensor:
#      x y z
#    x 1.520910 0.000000 0.000000 
#    y 0.000000 1.488980 0.000000 
#    z 0.000000 0.000000 1.538180 
# 
# From -- ./inp_files/10688.got.cif
#   From: 2010.05.17/outbox.cif.g08.bks.cpg/sg71_6_cif.got.tgz:10688.got - 2010.06.03 16:22:01.
