data_PCOD9523729
_publ_section_title
;
Structure prediction by ZEFSAII (Michael W. Deem and Ramdas Pophale) SiO2 
 PCOD9523729
Probable space group: I M M M
;
_chemical_formula_sum "Si O2"
_cell_formula_units_Z 56
_cell_length_a 18.427890
_cell_length_b 10.410842
_cell_length_c 13.882951
_cell_angle_alpha 90.000000
_cell_angle_beta 90.000000
_cell_angle_gamma 90.000000
_cell_volume 2663.442083
_symmetry_space_group_name_H-M "I M M M"
_symmetry_group_IT_number 71
_symmetry_cell_setting 'orthorhombic'
loop_
_space_group_symop_operation_xyz
x,y,z
-x,-y,z
x,-y,-z
-x,y,-z
-x,-y,-z
x,y,-z
-x,y,z
x,-y,z
1/2+x,1/2+y,1/2+z
1/2-x,1/2-y,1/2+z
1/2+x,1/2-y,1/2-z
1/2-x,1/2+y,1/2-z
1/2-x,1/2-y,1/2-z
1/2+x,1/2+y,1/2-z
1/2-x,1/2+y,1/2+z
1/2+x,1/2-y,1/2+z
loop_
_atom_site_type_symbol
_atom_site_label
_atom_site_fract_x
_atom_site_fract_y
_atom_site_fract_z
Si Si1 0.917164 0.771587 0.796462
Si Si2 0.087023 0.500000 0.109589
Si Si3 0.227331 0.138509 0.884644
Si Si4 0.845496 0.848127 0.613490
O O1 0.897077 0.627921 0.830838
O O2 0.853607 0.853865 0.844140
O O3 0.908783 0.798120 0.683079
O O4 0.000000 0.798329 0.826954
O O5 0.000000 0.500000 0.098817
O O6 0.118538 0.500000 0.000000
O O7 0.276612 0.260310 0.858064
O O8 0.260074 0.000000 0.856030
O O9 0.222622 0.141866 0.000000
O O10 0.860079 0.829036 0.500000
O O11 0.832652 0.000000 0.628318
#
# Coordination Sequence:
#
# PCOD9523729 Si02
#       4
#    16   8  16  16
#     4  11  23  38  61  92 125 163 205 257 316 375
#     4   9  20  38  59  89 127 163 199 244 308 382
#     4  10  22  39  62  91 122 160 207 261 317 373
#     4  10  23  42  64  90 123 169 218 259 305 366
#
# _framework density 21.025426
#
# number of rings (size 3 to 8) (size 9 to 14) (size 15 to 20)
#    0.000    1.857    0.000    2.571    4.000    4.571 
#    0.000    2.857    0.000    2.571    0.000    0.000 
#    0.000    0.000    0.000    0.000    0.000    0.000 
#
# Total GULP energy -156281.125035 kJ/mol
# GULP energy per Si atom -5581.468751 kJ/mol
# Density = 2.097757 g / cm^3
# Si number density = 21.025426 Si / 1000 Ang^3
#
#
#
# Elastic Constant Matrix: (Units=GPa)
#
#
# Indices 1 2 3 4 5 6 
#
# 1 70.9118 32.4139 9.9528 0.0000 0.0000 0.0000
# 2 32.4139 151.9502 59.8875 0.0000 0.0000 0.0000
# 3 9.9528 59.8875 80.5822 0.0000 0.0000 0.0000
# 4 0.0000 0.0000 0.0000 28.7833 0.0000 0.0000
# 5 0.0000 0.0000 0.0000 0.0000 24.5644 0.0000
# 6 0.0000 0.0000 0.0000 0.0000 0.0000 19.7642
#
#
#
# Elastic Compliance Matrix: (Units=1/GPa)
#
#
# Indices 1 2 3 4 5 6 
#
# 1 0.015660 -0.003646 0.000776 0.000000 0.000000 0.000000
# 2 -0.003646 0.010156 -0.007098 0.000000 0.000000 0.000000
# 3 0.000776 -0.007098 0.017589 0.000000 0.000000 0.000000
# 4 0.000000 0.000000 0.000000 0.034742 0.000000 0.000000
# 5 0.000000 0.000000 0.000000 0.000000 0.040709 0.000000
# 6 0.000000 0.000000 0.000000 0.000000 0.000000 0.050597
#
#
# Mechanical properties :
#
#
# Convention : Reuss Voigt Hill
#
# Bulk Modulus (GPa) = 42.61043 56.43919 49.52481
# Shear Modulus (GPa) = 25.35335 28.03502 26.69418
#
# Velocity S-wave (km/s) = 3.47629 3.65552 3.56703
# Velocity P-wave (km/s) = 6.03514 6.68720 6.36952
#
# Compressibility (1/GPa) = 0.02346843
#
# Stress axis : x y z
#
# Youngs Moduli (GPa) = 63.85749 98.46113 56.85450
#
# Poissons Ratio (x) = 0.35902 -0.04410
# Poissons Ratio (y) = 0.23284 0.40353
# Poissons Ratio (z) = -0.04953 0.69884
#
# Static dielectric constant tensor:
#      x y z
#    x 1.733470 0.000000 0.000000 
#    y 0.000000 1.785800 0.000000 
#    z 0.000000 0.000000 1.810670 
# 
# From -- ./inp_files/5000.got.cif
#   From: 2010.05.17/outbox.cif.g08.bks.cpg/sg71_3_cif.got.tgz:5000.got - 2010.06.03 16:22:01.
