data_PCOD9523101
_publ_section_title
;
Structure prediction by ZEFSAII (Michael W. Deem and Ramdas Pophale) SiO2 
 PCOD9523101
Probable space group: I M M M
;
_chemical_formula_sum "Si O2"
_cell_formula_units_Z 88
_cell_length_a 13.227559
_cell_length_b 14.339026
_cell_length_c 22.804103
_cell_angle_alpha 90.000000
_cell_angle_beta 90.000000
_cell_angle_gamma 90.000000
_cell_volume 4325.261340
_symmetry_space_group_name_H-M "I M M M"
_symmetry_group_IT_number 71
_symmetry_cell_setting 'orthorhombic'
loop_
_space_group_symop_operation_xyz
x,y,z
-x,-y,z
x,-y,-z
-x,y,-z
-x,-y,-z
x,y,-z
-x,y,z
x,-y,z
1/2+x,1/2+y,1/2+z
1/2-x,1/2-y,1/2+z
1/2+x,1/2-y,1/2-z
1/2-x,1/2+y,1/2-z
1/2-x,1/2-y,1/2-z
1/2+x,1/2+y,1/2-z
1/2-x,1/2+y,1/2+z
1/2+x,1/2-y,1/2+z
loop_
_atom_site_type_symbol
_atom_site_label
_atom_site_fract_x
_atom_site_fract_y
_atom_site_fract_z
Si Si1 0.500000 0.891942 0.593446
Si Si2 0.719855 0.104963 0.114824
Si Si3 0.885892 0.108990 0.354275
Si Si4 0.176479 0.829998 0.772609
Si Si5 0.000000 0.300241 0.209029
Si Si6 0.285153 0.795764 0.433450
Si Si7 0.500000 0.111349 0.838321
O O1 0.500000 0.885129 0.664338
O O2 0.602736 0.839302 0.574125
O O3 0.500000 0.000000 0.574761
O O4 0.767927 0.107206 0.180101
O O5 0.776229 0.184988 0.078532
O O6 0.602038 0.130674 0.125469
O O7 0.726480 0.000000 0.090961
O O8 0.867403 0.119853 0.284520
O O9 0.795287 0.159300 0.388353
O O10 0.000000 0.144481 0.367126
O O11 0.882606 0.000000 0.369245
O O12 0.250000 0.750000 0.750000
O O13 0.092323 0.767926 0.803538
O O14 0.000000 0.333545 0.276559
O O15 0.252786 0.815319 0.500000
O O16 0.500000 0.000000 0.825360
#
# Coordination Sequence:
#
# PCOD9523101 Si02
#       7
#     8  16  16  16   8  16   8
#     4  12  26  46  70  97 131 173 224 278 327 391
#     4  11  24  43  67  98 135 173 219 272 330 397
#     4  11  24  42  66  98 134 172 213 265 334 404
#     4  12  20  36  64  93 133 169 204 258 325 396
#     4  12  19  35  62  96 130 166 209 251 318 394
#     4  12  27  46  68  94 128 175 228 280 330 381
#     4  10  21  36  62 100 134 168 209 261 326 396
#
# _framework density 20.345590999999999
#
# number of rings (size 3 to 8) (size 9 to 14) (size 15 to 20)
#    0.000    0.545    6.364    1.636    1.273    2.545 
#    0.000    2.273    0.000    2.727    0.000    0.000 
#    0.000    0.000    0.000    0.000    0.000    0.000 
#
# Total GULP energy -245800.782611 kJ/mol
# GULP energy per Si atom -5586.381423 kJ/mol
# Density = 2.029928 g / cm^3
# Si number density = 20.345591 Si / 1000 Ang^3
#
#
#
# Elastic Constant Matrix: (Units=GPa)
#
#
# Indices 1 2 3 4 5 6 
#
# 1 138.3595 47.3137 14.5709 0.0000 0.0000 0.0000
# 2 47.3137 115.0278 10.5159 0.0000 0.0000 0.0000
# 3 14.5709 10.5159 62.0761 0.0000 0.0000 0.0000
# 4 0.0000 0.0000 0.0000 3.1549 0.0000 0.0000
# 5 0.0000 0.0000 0.0000 0.0000 12.4511 0.0000
# 6 0.0000 0.0000 0.0000 0.0000 0.0000 28.9211
#
#
#
# Elastic Compliance Matrix: (Units=1/GPa)
#
#
# Indices 1 2 3 4 5 6 
#
# 1 0.008534 -0.003379 -0.001431 0.000000 0.000000 0.000000
# 2 -0.003379 0.010169 -0.000929 0.000000 0.000000 0.000000
# 3 -0.001431 -0.000929 0.016603 0.000000 0.000000 0.000000
# 4 0.000000 0.000000 0.000000 0.316963 0.000000 0.000000
# 5 0.000000 0.000000 0.000000 0.000000 0.080314 0.000000
# 6 0.000000 0.000000 0.000000 0.000000 0.000000 0.034577
#
#
# Mechanical properties :
#
#
# Convention : Reuss Voigt Hill
#
# Bulk Modulus (GPa) = 41.97073 51.14048 46.55560
# Shear Modulus (GPa) = 10.27581 25.10963 17.69272
#
# Velocity S-wave (km/s) = 2.24980 3.51687 2.95211
# Velocity P-wave (km/s) = 5.23665 6.45613 5.87810
#
# Compressibility (1/GPa) = 0.02382613
#
# Stress axis : x y z
#
# Youngs Moduli (GPa) = 117.18070 98.34258 60.23188
#
# Poissons Ratio (x) = 0.33234 0.08617
# Poissons Ratio (y) = 0.39600 0.05598
# Poissons Ratio (z) = 0.16764 0.09140
#
# Static dielectric constant tensor:
#      x y z
#    x 1.703170 0.000000 0.000000 
#    y 0.000000 1.733240 0.000000 
#    z 0.000000 0.000000 1.717590 
# 
# From -- ./inp_files/58755.got.cif
#   From: 2010.05.17/outbox.cif.g08.bks.cpg/sg71_30_cif.got.tgz:58755.got - 2010.06.03 16:22:01.
