data_PCOD9523976
_publ_section_title
;
Structure prediction by ZEFSAII (Michael W. Deem and Ramdas Pophale) SiO2 
 PCOD9523976
Probable space group: I M M M
;
_chemical_formula_sum "Si O2"
_cell_formula_units_Z 44
_cell_length_a 12.332964
_cell_length_b 7.487520
_cell_length_c 26.892035
_cell_angle_alpha 90.000000
_cell_angle_beta 90.000000
_cell_angle_gamma 90.000000
_cell_volume 2483.299648
_symmetry_space_group_name_H-M "I M M M"
_symmetry_group_IT_number 71
_symmetry_cell_setting 'orthorhombic'
loop_
_space_group_symop_operation_xyz
x,y,z
-x,-y,z
x,-y,-z
-x,y,-z
-x,-y,-z
x,y,-z
-x,y,z
x,-y,z
1/2+x,1/2+y,1/2+z
1/2-x,1/2-y,1/2+z
1/2+x,1/2-y,1/2-z
1/2-x,1/2+y,1/2-z
1/2-x,1/2-y,1/2-z
1/2+x,1/2+y,1/2-z
1/2-x,1/2+y,1/2+z
1/2+x,1/2-y,1/2+z
loop_
_atom_site_type_symbol
_atom_site_label
_atom_site_fract_x
_atom_site_fract_y
_atom_site_fract_z
Si Si1 0.500000 0.789794 0.171770
Si Si2 0.500000 0.500000 0.743316
Si Si3 0.213747 0.210719 0.393229
Si Si4 0.377443 0.500000 0.354059
Si Si5 0.875202 0.782871 0.500000
O O1 0.500000 0.671142 0.221225
O O2 0.394121 0.741941 0.139445
O O3 0.500000 0.000000 0.182395
O O4 0.398328 0.500000 0.705395
O O5 0.309915 0.328727 0.371204
O O6 0.184542 0.269201 0.449401
O O7 0.238773 0.000000 0.393132
O O8 0.500000 0.500000 0.375079
O O9 0.000000 0.720661 0.500000
O O10 0.879084 0.000000 0.500000
#
# Coordination Sequence:
#
# PCOD9523976 Si02
#       5
#     8   4  16   8   8
#     4  12  22  39  65  99 125 156 203 265 330 381
#     4  10  26  46  60  88 124 172 222 258 316 360
#     4  11  21  40  67  94 133 161 200 263 319 381
#     4  10  26  46  58  89 123 172 232 252 298 369
#     4   9  18  33  63 102 131 157 192 250 336 389
#
# _framework density 17.718363
#
# number of rings (size 3 to 8) (size 9 to 14) (size 15 to 20)
#    0.545    0.909    5.455    0.000    0.000    4.364 
#    0.000    3.636    0.000    3.273    0.000    0.000 
#    0.000    0.000    0.000    0.000    0.000    0.000 
#
# Total GULP energy -122811.273455 kJ/mol
# GULP energy per Si atom -5582.330612 kJ/mol
# Density = 1.767803 g / cm^3
# Si number density = 17.718363 Si / 1000 Ang^3
#
#
#
# Elastic Constant Matrix: (Units=GPa)
#
#
# Indices 1 2 3 4 5 6 
#
# 1 144.6130 57.9523 75.0178 0.0000 0.0000 0.0000
# 2 57.9523 139.3995 70.2143 0.0000 0.0000 0.0000
# 3 75.0178 70.2143 176.0752 0.0000 0.0000 0.0000
# 4 0.0000 0.0000 0.0000 -99.3099 0.0000 0.0000
# 5 0.0000 0.0000 0.0000 0.0000 48.8164 0.0000
# 6 0.0000 0.0000 0.0000 0.0000 0.0000 23.5730
#
#
#
# Elastic Compliance Matrix: (Units=1/GPa)
#
#
# Indices 1 2 3 4 5 6 
#
# 1 0.009470 -0.002383 -0.003084 0.000000 0.000000 0.000000
# 2 -0.002383 0.009577 -0.002803 0.000000 0.000000 0.000000
# 3 -0.003084 -0.002803 0.008111 0.000000 0.000000 0.000000
# 4 0.000000 0.000000 0.000000 -0.010069 0.000000 0.000000
# 5 0.000000 0.000000 0.000000 0.000000 0.020485 0.000000
# 6 0.000000 0.000000 0.000000 0.000000 0.000000 0.042421
#
#
# Mechanical properties :
#
#
# Convention : Reuss Voigt Hill
#
# Bulk Modulus (GPa) = 94.19996 96.27295 95.23646
# Shear Modulus (GPa) = 49.96205 11.74277 30.85241
#
# Velocity S-wave (km/s) = 5.31593 2.57718 4.17738
# Velocity P-wave (km/s) = 9.53726 7.95669 8.78260
#
# Compressibility (1/GPa) = 0.01061572
#
# Stress axis : x y z
#
# Youngs Moduli (GPa) = 105.59490 104.42181 123.28288
#
# Poissons Ratio (x) = 0.24888 0.38025
# Poissons Ratio (y) = 0.25168 0.34561
# Poissons Ratio (z) = 0.32569 0.29274
#
# Static dielectric constant tensor:
#      x y z
#    x 1.568300 0.000000 0.000000 
#    y 0.000000 1.613030 0.000000 
#    z 0.000000 0.000000 1.594130 
# 
# From -- ./inp_files/13887.got.cif
#   From: 2010.05.17/outbox.cif.g08.bks.cpg/sg71_7_cif.got.tgz:13887.got - 2010.06.03 16:22:01.
