data_PCOD9523180
_publ_section_title
;
Structure prediction by ZEFSAII (Michael W. Deem and Ramdas Pophale) SiO2 
 PCOD9523180
Probable space group: I M M M
;
_chemical_formula_sum "Si O2"
_cell_formula_units_Z 80
_cell_length_a 8.055813
_cell_length_b 29.021504
_cell_length_c 17.373009
_cell_angle_alpha 90.000000
_cell_angle_beta 90.000000
_cell_angle_gamma 90.000000
_cell_volume 4061.667205
_symmetry_space_group_name_H-M "I M M M"
_symmetry_group_IT_number 71
_symmetry_cell_setting 'orthorhombic'
loop_
_space_group_symop_operation_xyz
x,y,z
-x,-y,z
x,-y,-z
-x,y,-z
-x,-y,-z
x,y,-z
-x,y,z
x,-y,z
1/2+x,1/2+y,1/2+z
1/2-x,1/2-y,1/2+z
1/2+x,1/2-y,1/2-z
1/2-x,1/2+y,1/2-z
1/2-x,1/2-y,1/2-z
1/2+x,1/2+y,1/2-z
1/2-x,1/2+y,1/2+z
1/2+x,1/2-y,1/2+z
loop_
_atom_site_type_symbol
_atom_site_label
_atom_site_fract_x
_atom_site_fract_y
_atom_site_fract_z
Si Si1 0.810362 0.922269 0.500000
Si Si2 0.298597 0.640688 0.260482
Si Si3 0.810816 0.675433 0.000000
Si Si4 0.807615 0.221583 0.651077
Si Si5 0.196712 0.181277 0.912632
Si Si6 0.198060 0.550280 0.834842
O O1 0.687961 0.879126 0.500000
O O2 0.778382 0.947390 0.580382
O O3 0.000000 0.905594 0.500000
O O4 0.500000 0.642501 0.258452
O O5 0.238881 0.687214 0.216363
O O6 0.240962 0.644725 0.349121
O O7 0.248127 0.594545 0.215682
O O8 0.713092 0.691807 0.074247
O O9 0.000000 0.693916 0.000000
O O10 0.721555 0.269223 0.628145
O O11 0.000000 0.231336 0.667882
O O12 0.000000 0.174012 0.919698
O O13 0.266626 0.181137 0.000000
O O14 0.241394 0.500000 0.800387
O O15 0.000000 0.552160 0.844656
#
# Coordination Sequence:
#
# PCOD9523180 Si02
#       6
#     8  16   8  16  16  16
#     4  12  23  37  58  85 116 152 190 227 273 331
#     4  10  22  38  57  82 113 150 190 234 283 335
#     4  12  22  33  53  80 116 159 191 225 272 319
#     4  11  21  34  54  82 115 151 192 232 273 328
#     4  10  21  37  57  82 114 151 189 232 283 339
#     4  11  24  40  59  84 113 147 188 233 282 336
#
# _framework density 19.696345000000001
#
# number of rings (size 3 to 8) (size 9 to 14) (size 15 to 20)
#    0.000    1.200    3.000    3.900    0.000    4.400 
#    0.000    0.000    0.000    0.600    0.000    4.200 
#    0.000    0.000    0.000    0.000    0.000    0.000 
#
# Total GULP energy -223230.961527 kJ/mol
# GULP energy per Si atom -5580.774038 kJ/mol
# Density = 1.965151 g / cm^3
# Si number density = 19.696345 Si / 1000 Ang^3
#
#
#
# Elastic Constant Matrix: (Units=GPa)
#
#
# Indices 1 2 3 4 5 6 
#
# 1 40.3725 2.6618 14.1310 0.0000 0.0000 0.0000
# 2 2.6618 86.1515 76.9935 0.0000 0.0000 0.0000
# 3 14.1310 76.9935 161.5231 0.0000 0.0000 0.0000
# 4 0.0000 0.0000 0.0000 6.9973 0.0000 0.0000
# 5 0.0000 0.0000 0.0000 0.0000 16.5767 0.0000
# 6 0.0000 0.0000 0.0000 0.0000 0.0000 18.3490
#
#
#
# Elastic Compliance Matrix: (Units=1/GPa)
#
#
# Indices 1 2 3 4 5 6 
#
# 1 0.025773 0.002123 -0.003267 0.000000 0.000000 0.000000
# 2 0.002123 0.020397 -0.009908 0.000000 0.000000 0.000000
# 3 -0.003267 -0.009908 0.011200 0.000000 0.000000 0.000000
# 4 0.000000 0.000000 0.000000 0.142912 0.000000 0.000000
# 5 0.000000 0.000000 0.000000 0.000000 0.060326 0.000000
# 6 0.000000 0.000000 0.000000 0.000000 0.000000 0.054499
#
#
# Mechanical properties :
#
#
# Convention : Reuss Voigt Hill
#
# Bulk Modulus (GPa) = 28.35614 52.84662 40.60138
# Shear Modulus (GPa) = 14.32806 21.33535 17.83170
#
# Velocity S-wave (km/s) = 2.70005 3.29479 3.01214
# Velocity P-wave (km/s) = 4.91409 6.43142 5.72326
#
# Compressibility (1/GPa) = 0.03526573
#
# Stress axis : x y z
#
# Youngs Moduli (GPa) = 38.80064 49.02685 89.28628
#
# Poissons Ratio (x) = -0.10410 0.29169
# Poissons Ratio (y) = -0.08239 0.88469
# Poissons Ratio (z) = 0.12676 0.48578
#
# Static dielectric constant tensor:
#      x y z
#    x 1.692420 0.000000 0.000000 
#    y 0.000000 1.691410 0.000000 
#    z 0.000000 0.000000 1.721700 
# 
# From -- ./inp_files/42403.got.cif
#   From: 2010.05.17/outbox.cif.g08.bks.cpg/sg71_22_cif.got.tgz:42403.got - 2010.06.03 16:22:01.
