data_PCOD9523084
_publ_section_title
;
Structure prediction by ZEFSAII (Michael W. Deem and Ramdas Pophale) SiO2 
 PCOD9523084
Probable space group: I M M M
;
_chemical_formula_sum "Si O2"
_cell_formula_units_Z 100
_cell_length_a 20.559645
_cell_length_b 29.753375
_cell_length_c 7.848624
_cell_angle_alpha 90.000000
_cell_angle_beta 90.000000
_cell_angle_gamma 90.000000
_cell_volume 4801.151071
_symmetry_space_group_name_H-M "I M M M"
_symmetry_group_IT_number 71
_symmetry_cell_setting 'orthorhombic'
loop_
_space_group_symop_operation_xyz
x,y,z
-x,-y,z
x,-y,-z
-x,y,-z
-x,-y,-z
x,y,-z
-x,y,z
x,-y,z
1/2+x,1/2+y,1/2+z
1/2-x,1/2-y,1/2+z
1/2+x,1/2-y,1/2-z
1/2-x,1/2+y,1/2-z
1/2-x,1/2-y,1/2-z
1/2+x,1/2+y,1/2-z
1/2-x,1/2+y,1/2+z
1/2+x,1/2-y,1/2+z
loop_
_atom_site_type_symbol
_atom_site_label
_atom_site_fract_x
_atom_site_fract_y
_atom_site_fract_z
Si Si1 0.573855 0.624633 0.202579
Si Si2 0.671811 0.051174 0.299504
Si Si3 0.109227 0.359534 0.297899
Si Si4 0.074342 0.225946 0.801270
Si Si5 0.693748 0.782631 0.188955
Si Si6 0.319688 0.551032 0.703823
Si Si7 0.000000 0.347817 0.000000
O O1 0.500000 0.611548 0.253443
O O2 0.588070 0.672893 0.286279
O O3 0.626085 0.586878 0.245294
O O4 0.574188 0.632087 0.000000
O O5 0.656361 0.052502 0.500000
O O6 0.628526 0.088338 0.209056
O O7 0.748338 0.061353 0.276182
O O8 0.661843 0.000000 0.237653
O O9 0.094215 0.348328 0.500000
O O10 0.172394 0.330444 0.237493
O O11 0.055787 0.349298 0.154361
O O12 0.127316 0.254000 0.700803
O O13 0.000000 0.233363 0.742952
O O14 0.077586 0.239368 0.000000
O O15 0.750000 0.750000 0.250000
O O16 0.714265 0.793975 0.000000
O O17 0.314214 0.551334 0.500000
O O18 0.337049 0.500000 0.758580
#
# Coordination Sequence:
#
# PCOD9523084 Si02
#       7
#    16  16  16  16  16  16   4
#     4  10  21  37  56  82 119 162 212 267 323 387
#     4  10  21  41  69  99 132 174 222 273 337 406
#     4  11  26  46  72 106 139 179 229 278 335 407
#     4  10  22  39  63  89 120 165 210 256 319 389
#     4  11  26  43  65  97 132 171 221 273 326 390
#     4  10  21  36  58  87 120 163 213 267 330 397
#     4  12  26  48  77 104 144 186 220 282 343 408
#
# _framework density 20.828337999999999
#
# number of rings (size 3 to 8) (size 9 to 14) (size 15 to 20)
#    0.000    1.600    0.800    2.640    5.600    4.160 
#    0.000    2.400    0.000    0.960    0.000    0.000 
#    0.000    0.000    0.000    0.000    0.000    0.000 
#
# Total GULP energy -278604.094852 kJ/mol
# GULP energy per Si atom -5572.081897 kJ/mol
# Density = 2.078093 g / cm^3
# Si number density = 20.828338 Si / 1000 Ang^3
#
#
#
# Elastic Constant Matrix: (Units=GPa)
#
#
# Indices 1 2 3 4 5 6 
#
# 1 48.8585 38.5802 21.1643 0.0000 0.0000 0.0000
# 2 38.5802 75.9629 18.3032 0.0000 0.0000 0.0000
# 3 21.1643 18.3032 81.2017 0.0000 0.0000 0.0000
# 4 0.0000 0.0000 0.0000 27.7825 0.0000 0.0000
# 5 0.0000 0.0000 0.0000 0.0000 33.1670 0.0000
# 6 0.0000 0.0000 0.0000 0.0000 0.0000 2.9745
#
#
#
# Elastic Compliance Matrix: (Units=1/GPa)
#
#
# Indices 1 2 3 4 5 6 
#
# 1 0.036457 -0.017158 -0.005635 0.000000 0.000000 0.000000
# 2 -0.017158 0.021996 -0.000486 0.000000 0.000000 0.000000
# 3 -0.005635 -0.000486 0.013893 0.000000 0.000000 0.000000
# 4 0.000000 0.000000 0.000000 0.035994 0.000000 0.000000
# 5 0.000000 0.000000 0.000000 0.000000 0.030150 0.000000
# 6 0.000000 0.000000 0.000000 0.000000 0.000000 0.336190
#
#
# Mechanical properties :
#
#
# Convention : Reuss Voigt Hill
#
# Bulk Modulus (GPa) = 38.77694 40.23539 39.50617
# Shear Modulus (GPa) = 9.43694 21.31650 15.37672
#
# Velocity S-wave (km/s) = 2.13088 3.20259 2.72004
# Velocity P-wave (km/s) = 4.97112 5.74761 5.37341
#
# Compressibility (1/GPa) = 0.02578852
#
# Stress axis : x y z
#
# Youngs Moduli (GPa) = 27.42988 45.46350 71.97816
#
# Poissons Ratio (x) = 0.78006 0.40556
# Poissons Ratio (y) = 0.47064 0.03497
# Poissons Ratio (z) = 0.15455 0.02209
#
# Static dielectric constant tensor:
#      x y z
#    x 1.763670 0.000000 0.000000 
#    y 0.000000 1.782990 0.000000 
#    z 0.000000 0.000000 1.761840 
# 
# From -- ./inp_files/11169.got.cif
#   From: 2010.05.17/outbox.cif.g08.bks.cpg/sg71_6_cif.got.tgz:11169.got - 2010.06.03 16:22:01.
