data_PCOD9523413
_publ_section_title
;
Structure prediction by ZEFSAII (Michael W. Deem and Ramdas Pophale) SiO2 
 PCOD9523413
Probable space group: I M M M
;
_chemical_formula_sum "Si O2"
_cell_formula_units_Z 90
_cell_length_a 24.812281
_cell_length_b 8.015705
_cell_length_c 22.588550
_cell_angle_alpha 90.000000
_cell_angle_beta 90.000000
_cell_angle_gamma 90.000000
_cell_volume 4492.589835
_symmetry_space_group_name_H-M "I M M M"
_symmetry_group_IT_number 71
_symmetry_cell_setting 'orthorhombic'
loop_
_space_group_symop_operation_xyz
x,y,z
-x,-y,z
x,-y,-z
-x,y,-z
-x,-y,-z
x,y,-z
-x,y,z
x,-y,z
1/2+x,1/2+y,1/2+z
1/2-x,1/2-y,1/2+z
1/2+x,1/2-y,1/2-z
1/2-x,1/2+y,1/2-z
1/2-x,1/2-y,1/2-z
1/2+x,1/2+y,1/2-z
1/2-x,1/2+y,1/2+z
1/2+x,1/2-y,1/2+z
loop_
_atom_site_type_symbol
_atom_site_label
_atom_site_fract_x
_atom_site_fract_y
_atom_site_fract_z
Si Si1 0.670238 0.690426 0.093300
Si Si2 0.381649 0.193036 0.206760
Si Si3 0.500000 0.309633 0.793792
Si Si4 0.291573 0.298722 0.566479
Si Si5 0.913297 0.688620 0.500000
Si Si6 0.382873 0.296903 0.343152
Si Si7 0.500000 0.308976 0.650059
Si Si8 0.000000 0.000000 0.500000
O O1 0.665449 0.500000 0.073938
O O2 0.655403 0.705562 0.162165
O O3 0.730753 0.749183 0.081630
O O4 0.626497 0.793947 0.056399
O O5 0.444220 0.224168 0.189167
O O6 0.375404 0.244271 0.275129
O O7 0.368618 0.000000 0.200335
O O8 0.500000 0.500000 0.816265
O O9 0.500000 0.314586 0.722055
O O10 0.304504 0.240419 0.500000
O O11 0.294133 0.500000 0.566571
O O12 0.334783 0.239604 0.614756
O O13 0.936643 0.500000 0.500000
O O14 0.953402 0.847674 0.500000
O O15 0.385122 0.500000 0.343477
O O16 0.441810 0.234269 0.364885
O O17 0.500000 0.500000 0.627926
#
# Coordination Sequence:
#
# PCOD9523413 Si02
#       8
#    16  16   8  16   8  16   8   2
#     4  12  24  42  64  89 121 167 217 265 323 386
#     4  11  22  36  58  89 122 159 203 258 320 378
#     4   9  17  34  56  82 116 158 197 240 298 372
#     4  10  21  38  62  88 118 161 213 266 320 380
#     4  12  25  47  71  96 133 172 223 278 327 383
#     4   9  18  35  58  88 123 163 207 255 316 384
#     4   7  12  27  53  80 115 155 190 236 297 368
#     4  12  26  48  68 106 132 176 226 278 330 382
#
# _framework density 20.032989000000001
#
# number of rings (size 3 to 8) (size 9 to 14) (size 15 to 20)
#    0.000    1.778    1.778    4.667    0.000    2.133 
#    1.600    2.222    0.000    2.667    0.000    0.000 
#    0.000    5.689    0.000    0.000    0.000    0.000 
#
# Total GULP energy -250946.437065 kJ/mol
# GULP energy per Si atom -5576.587490 kJ/mol
# Density = 1.998739 g / cm^3
# Si number density = 20.032989 Si / 1000 Ang^3
#
#
#
# Elastic Constant Matrix: (Units=GPa)
#
#
# Indices 1 2 3 4 5 6 
#
# 1 122.3999 25.8864 65.8191 0.0000 0.0000 0.0000
# 2 25.8864 76.2081 12.0580 0.0000 0.0000 0.0000
# 3 65.8191 12.0580 96.9370 0.0000 0.0000 0.0000
# 4 0.0000 0.0000 0.0000 15.5455 0.0000 0.0000
# 5 0.0000 0.0000 0.0000 0.0000 -115.1436 0.0000
# 6 0.0000 0.0000 0.0000 0.0000 0.0000 26.4172
#
#
#
# Elastic Compliance Matrix: (Units=1/GPa)
#
#
# Indices 1 2 3 4 5 6 
#
# 1 0.013602 -0.003223 -0.008835 0.000000 0.000000 0.000000
# 2 -0.003223 0.014149 0.000428 0.000000 0.000000 0.000000
# 3 -0.008835 0.000428 0.016262 0.000000 0.000000 0.000000
# 4 0.000000 0.000000 0.000000 0.064327 0.000000 0.000000
# 5 0.000000 0.000000 0.000000 0.000000 -0.008685 0.000000
# 6 0.000000 0.000000 0.000000 0.000000 0.000000 0.037854
#
#
# Mechanical properties :
#
#
# Convention : Reuss Voigt Hill
#
# Bulk Modulus (GPa) = 48.18368 55.89690 52.04029
# Shear Modulus (GPa) = 29.81758 -1.85075 13.98342
#
# Velocity S-wave (km/s) = 3.86220 -0.96221 2.64487
# Velocity P-wave (km/s) = 6.63273 5.16996 5.94650
#
# Compressibility (1/GPa) = 0.02075391
#
# Stress axis : x y z
#
# Youngs Moduli (GPa) = 73.51647 70.67705 61.49463
#
# Poissons Ratio (x) = 0.22776 0.54331
# Poissons Ratio (y) = 0.23691 -0.02633
# Poissons Ratio (z) = 0.64952 -0.03026
#
# Static dielectric constant tensor:
#      x y z
#    x 1.701550 0.000000 0.000000 
#    y 0.000000 1.721260 0.000000 
#    z 0.000000 0.000000 1.707100 
# 
# From -- ./inp_files/61184.got.cif
#   From: 2010.05.17/outbox.cif.g08.bks.cpg/sg71_31_cif.got.tgz:61184.got - 2010.06.03 16:22:01.
