data_PCOD9523576
_publ_section_title
;
Structure prediction by ZEFSAII (Michael W. Deem and Ramdas Pophale) SiO2 
 PCOD9523576
Probable space group: I M M M
;
_chemical_formula_sum "Si O2"
_cell_formula_units_Z 50
_cell_length_a 8.065717
_cell_length_b 17.504013
_cell_length_c 17.862312
_cell_angle_alpha 90.000000
_cell_angle_beta 90.000000
_cell_angle_gamma 90.000000
_cell_volume 2521.844350
_symmetry_space_group_name_H-M "I M M M"
_symmetry_group_IT_number 71
_symmetry_cell_setting 'orthorhombic'
loop_
_space_group_symop_operation_xyz
x,y,z
-x,-y,z
x,-y,-z
-x,y,-z
-x,-y,-z
x,y,-z
-x,y,z
x,-y,z
1/2+x,1/2+y,1/2+z
1/2-x,1/2-y,1/2+z
1/2+x,1/2-y,1/2-z
1/2-x,1/2+y,1/2-z
1/2-x,1/2-y,1/2-z
1/2+x,1/2+y,1/2-z
1/2-x,1/2+y,1/2+z
1/2+x,1/2-y,1/2+z
loop_
_atom_site_type_symbol
_atom_site_label
_atom_site_fract_x
_atom_site_fract_y
_atom_site_fract_z
Si Si1 0.500000 0.500000 0.000000
Si Si2 0.198753 0.088992 0.000000
Si Si3 0.183873 0.500000 0.887166
Si Si4 0.694291 0.353158 0.188302
Si Si5 0.698265 0.185303 0.146106
O O1 0.349487 0.500000 0.937173
O O2 0.254353 0.135678 0.926124
O O3 0.000000 0.086957 0.000000
O O4 0.257808 0.000000 0.000000
O O5 0.200196 0.424087 0.838104
O O6 0.000000 0.500000 0.921484
O O7 0.500000 0.366372 0.173732
O O8 0.742127 0.275540 0.144010
O O9 0.719120 0.342263 0.276933
O O10 0.500000 0.181468 0.155478
#
# Coordination Sequence:
#
# PCOD9523576 Si02
#       5
#     2   8   8  16  16
#     4  12  26  48  60  98 136 166 220 284 328 382
#     4  11  25  42  61  92 131 177 216 273 343 392
#     4  12  25  43  71  99 132 180 224 270 337 401
#     4  10  21  42  67  96 134 176 218 275 331 391
#     4  10  22  40  66  96 131 172 224 273 331 399
#
# _framework density 19.82676
#
# number of rings (size 3 to 8) (size 9 to 14) (size 15 to 20)
#    0.000    1.440    1.600    2.640    2.240    6.400 
#    0.000    0.000    0.000    0.000    0.000    0.000 
#    0.000    0.000    0.000    0.000    0.000    0.000 
#
# Total GULP energy -139270.252833 kJ/mol
# GULP energy per Si atom -5570.810113 kJ/mol
# Density = 1.978163 g / cm^3
# Si number density = 19.826760 Si / 1000 Ang^3
#
#
#
# Elastic Constant Matrix: (Units=GPa)
#
#
# Indices 1 2 3 4 5 6 
#
# 1 107.1666 50.9395 23.7443 0.0000 0.0000 0.0000
# 2 50.9395 165.4277 87.0101 0.0000 0.0000 0.0000
# 3 23.7443 87.0101 94.4986 0.0000 0.0000 0.0000
# 4 0.0000 0.0000 0.0000 47.9575 0.0000 0.0000
# 5 0.0000 0.0000 0.0000 0.0000 -203.1534 0.0000
# 6 0.0000 0.0000 0.0000 0.0000 0.0000 0.6895
#
#
#
# Elastic Compliance Matrix: (Units=1/GPa)
#
#
# Indices 1 2 3 4 5 6 
#
# 1 0.010954 -0.003733 0.000685 0.000000 0.000000 0.000000
# 2 -0.003733 0.012994 -0.011026 0.000000 0.000000 0.000000
# 3 0.000685 -0.011026 0.020562 0.000000 0.000000 0.000000
# 4 0.000000 0.000000 0.000000 0.020852 0.000000 0.000000
# 5 0.000000 0.000000 0.000000 0.000000 -0.004922 0.000000
# 6 0.000000 0.000000 0.000000 0.000000 0.000000 1.450385
#
#
# Mechanical properties :
#
#
# Convention : Reuss Voigt Hill
#
# Bulk Modulus (GPa) = 61.11868 76.72008 68.91938
# Shear Modulus (GPa) = 3.23745 -17.20802 -6.98529
#
# Velocity S-wave (km/s) = 1.27922 -2.94924 -1.87905
# Velocity P-wave (km/s) = 5.75110 5.21362 5.48894
#
# Compressibility (1/GPa) = 0.01636161
#
# Stress axis : x y z
#
# Youngs Moduli (GPa) = 91.29027 76.95828 48.63225
#
# Poissons Ratio (x) = 0.28732 -0.03332
# Poissons Ratio (y) = 0.34083 0.53623
# Poissons Ratio (z) = -0.06255 0.84856
#
# Static dielectric constant tensor:
#      x y z
#    x 1.692810 0.000000 0.000000 
#    y 0.000000 1.708890 0.000000 
#    z 0.000000 0.000000 1.655370 
# 
# From -- ./inp_files/30839.got.cif
#   From: 2010.05.17/outbox.cif.g08.bks.cpg/sg71_16_cif.got.tgz:30839.got - 2010.06.03 16:22:01.
