data_PCOD9523723
_publ_section_title
;
Structure prediction by ZEFSAII (Michael W. Deem and Ramdas Pophale) SiO2 
 PCOD9523723
Probable space group: I M M M
;
_chemical_formula_sum "Si O2"
_cell_formula_units_Z 104
_cell_length_a 22.153912
_cell_length_b 28.000518
_cell_length_c 8.881479
_cell_angle_alpha 90.000000
_cell_angle_beta 90.000000
_cell_angle_gamma 90.000000
_cell_volume 5509.368039
_symmetry_space_group_name_H-M "I M M M"
_symmetry_group_IT_number 71
_symmetry_cell_setting 'orthorhombic'
loop_
_space_group_symop_operation_xyz
x,y,z
-x,-y,z
x,-y,-z
-x,y,-z
-x,-y,-z
x,y,-z
-x,y,z
x,-y,z
1/2+x,1/2+y,1/2+z
1/2-x,1/2-y,1/2+z
1/2+x,1/2-y,1/2-z
1/2-x,1/2+y,1/2-z
1/2-x,1/2-y,1/2-z
1/2+x,1/2+y,1/2-z
1/2-x,1/2+y,1/2+z
1/2+x,1/2-y,1/2+z
loop_
_atom_site_type_symbol
_atom_site_label
_atom_site_fract_x
_atom_site_fract_y
_atom_site_fract_z
Si Si1 0.000000 0.101971 0.179648
Si Si2 0.069695 0.400143 0.681250
Si Si3 0.618474 0.444177 0.821414
Si Si4 0.170975 0.675566 0.318909
Si Si5 0.624895 0.269506 0.320528
Si Si6 0.801667 0.134236 0.179960
Si Si7 0.500000 0.707887 0.179593
Si Si8 0.073300 0.500000 0.827179
O O1 0.940764 0.074165 0.234599
O O2 0.000000 0.154330 0.253731
O O3 0.000000 0.107138 0.000000
O O4 0.070234 0.403307 0.500000
O O5 0.114489 0.357735 0.725260
O O6 0.091159 0.450953 0.746292
O O7 0.000000 0.391782 0.728626
O O8 0.628609 0.500000 0.791064
O O9 0.673415 0.411338 0.766998
O O10 0.608636 0.438067 0.000000
O O11 0.169212 0.682932 0.500000
O O12 0.165530 0.726102 0.237379
O O13 0.233373 0.648910 0.283619
O O14 0.617318 0.267028 0.500000
O O15 0.655922 0.320237 0.284746
O O16 0.560347 0.267134 0.239722
O O17 0.805697 0.125812 0.000000
O O18 0.500000 0.706588 0.000000
O O19 0.000000 0.500000 0.823676
O O20 0.093007 0.500000 0.000000
#
# Coordination Sequence:
#
# PCOD9523723 Si02
#       8
#     8  16  16  16  16  16   8   8
#     4  12  23  39  64  95 128 162 205 255 313 370
#     4   9  18  34  56  81 111 147 191 239 289 351
#     4  11  24  41  63  92 125 164 211 259 310 369
#     4  10  22  39  60  89 120 159 205 246 300 366
#     4  11  23  39  61  90 122 158 201 250 303 361
#     4  10  22  41  62  85 120 163 207 252 301 364
#     4  12  24  39  63  92 124 164 203 252 309 364
#     4   9  17  31  53  79 107 141 181 228 289 348
#
# _framework density 18.876937999999999
#
# number of rings (size 3 to 8) (size 9 to 14) (size 15 to 20)
#    0.000    1.615    1.538    3.231    1.077    4.923 
#    1.385    0.000    0.000    0.000    0.000    0.000 
#    0.000    0.000    0.000    0.000    0.000    0.000 
#
# Total GULP energy -290627.340564 kJ/mol
# GULP energy per Si atom -5588.987319 kJ/mol
# Density = 1.883397 g / cm^3
# Si number density = 18.876938 Si / 1000 Ang^3
#
#
#
# Elastic Constant Matrix: (Units=GPa)
#
#
# Indices 1 2 3 4 5 6 
#
# 1 90.1878 25.9653 34.4762 0.0000 0.0000 0.0000
# 2 25.9653 76.4215 35.3625 0.0000 0.0000 0.0000
# 3 34.4762 35.3625 52.6543 0.0000 0.0000 0.0000
# 4 0.0000 0.0000 0.0000 25.7355 0.0000 0.0000
# 5 0.0000 0.0000 0.0000 0.0000 21.2560 0.0000
# 6 0.0000 0.0000 0.0000 0.0000 0.0000 1.5524
#
#
#
# Elastic Compliance Matrix: (Units=1/GPa)
#
#
# Indices 1 2 3 4 5 6 
#
# 1 0.014823 -0.000791 -0.009174 0.000000 0.000000 0.000000
# 2 -0.000791 0.019028 -0.012261 0.000000 0.000000 0.000000
# 3 -0.009174 -0.012261 0.033233 0.000000 0.000000 0.000000
# 4 0.000000 0.000000 0.000000 0.038857 0.000000 0.000000
# 5 0.000000 0.000000 0.000000 0.000000 0.047045 0.000000
# 6 0.000000 0.000000 0.000000 0.000000 0.000000 0.644181
#
#
# Mechanical properties :
#
#
# Convention : Reuss Voigt Hill
#
# Bulk Modulus (GPa) = 44.18681 45.65240 44.91960
# Shear Modulus (GPa) = 5.88816 17.93942 11.91379
#
# Velocity S-wave (km/s) = 1.76805 3.08610 2.51495
# Velocity P-wave (km/s) = 5.25611 6.07745 5.68164
#
# Compressibility (1/GPa) = 0.02263119
#
# Stress axis : x y z
#
# Youngs Moduli (GPa) = 67.46398 52.55528 30.09053
#
# Poissons Ratio (x) = 0.04158 0.27605
# Poissons Ratio (y) = 0.05337 0.36894
# Poissons Ratio (z) = 0.61892 0.64437
#
# Static dielectric constant tensor:
#      x y z
#    x 1.648480 0.000000 0.000000 
#    y 0.000000 1.632310 0.000000 
#    z 0.000000 0.000000 1.630750 
# 
# From -- ./inp_files/11177.got.cif
#   From: 2010.05.17/outbox.cif.g08.bks.cpg/sg71_6_cif.got.tgz:11177.got - 2010.06.03 16:22:01.
