data_PCOD9523662
_publ_section_title
;
Structure prediction by ZEFSAII (Michael W. Deem and Ramdas Pophale) SiO2 
 PCOD9523662
Probable space group: I M M M
;
_chemical_formula_sum "Si O2"
_cell_formula_units_Z 68
_cell_length_a 18.572330
_cell_length_b 9.873315
_cell_length_c 18.733376
_cell_angle_alpha 90.000000
_cell_angle_beta 90.000000
_cell_angle_gamma 90.000000
_cell_volume 3435.147856
_symmetry_space_group_name_H-M "I M M M"
_symmetry_group_IT_number 71
_symmetry_cell_setting 'orthorhombic'
loop_
_space_group_symop_operation_xyz
x,y,z
-x,-y,z
x,-y,-z
-x,y,-z
-x,-y,-z
x,y,-z
-x,y,z
x,-y,z
1/2+x,1/2+y,1/2+z
1/2-x,1/2-y,1/2+z
1/2+x,1/2-y,1/2-z
1/2-x,1/2+y,1/2-z
1/2-x,1/2-y,1/2-z
1/2+x,1/2+y,1/2-z
1/2-x,1/2+y,1/2+z
1/2+x,1/2-y,1/2+z
loop_
_atom_site_type_symbol
_atom_site_label
_atom_site_fract_x
_atom_site_fract_y
_atom_site_fract_z
Si Si1 0.584936 0.500000 0.381570
Si Si2 0.684939 0.295913 0.119305
Si Si3 0.327913 0.500000 0.247242
Si Si4 0.853410 0.288062 0.919564
Si Si5 0.178376 0.500000 0.669255
Si Si6 0.916414 0.500000 0.188674
Si Si7 0.634586 0.500000 0.000000
O O1 0.500000 0.500000 0.395770
O O2 0.602189 0.500000 0.296883
O O3 0.622223 0.366621 0.412890
O O4 0.677331 0.369477 0.196044
O O5 0.768611 0.306255 0.095674
O O6 0.666424 0.138271 0.126215
O O7 0.640074 0.381859 0.062553
O O8 0.260260 0.500000 0.301006
O O9 0.895446 0.372342 0.860212
O O10 0.868202 0.335925 0.000000
O O11 0.129406 0.500000 0.739553
O O12 0.000000 0.500000 0.205352
#
# Coordination Sequence:
#
# PCOD9523662 Si02
#       7
#     8  16   8  16   8   8   4
#     4  12  26  40  55  84 126 167 209 249 287 349
#     4  11  21  36  63  91 120 154 197 257 304 352
#     4  11  20  37  61  86 114 160 207 254 309 341
#     4  12  23  38  60  85 123 167 206 242 294 355
#     4  12  21  37  63  90 114 158 210 251 304 351
#     4  12  26  40  59  89 125 164 204 245 294 358
#     4  10  22  38  56  94 128 136 186 252 314 366
#
# _framework density 19.795362000000001
#
# number of rings (size 3 to 8) (size 9 to 14) (size 15 to 20)
#    0.000    0.471    5.882    4.235    0.000    3.294 
#    0.000    0.000    0.000    0.000    0.000   15.647 
#    0.000    0.000    0.000    0.000    0.000    0.000 
#
# Total GULP energy -189678.728360 kJ/mol
# GULP energy per Si atom -5578.786128 kJ/mol
# Density = 1.975031 g / cm^3
# Si number density = 19.795362 Si / 1000 Ang^3
#
#
#
# Elastic Constant Matrix: (Units=GPa)
#
#
# Indices 1 2 3 4 5 6 
#
# 1 33.4401 -14.1951 1.9041 0.0000 0.0000 0.0000
# 2 -14.1951 155.0476 33.7285 0.0000 0.0000 0.0000
# 3 1.9041 33.7285 91.8049 0.0000 0.0000 0.0000
# 4 0.0000 0.0000 0.0000 -45.8033 0.0000 0.0000
# 5 0.0000 0.0000 0.0000 0.0000 -9.5260 0.0000
# 6 0.0000 0.0000 0.0000 0.0000 0.0000 21.9864
#
#
#
# Elastic Compliance Matrix: (Units=1/GPa)
#
#
# Indices 1 2 3 4 5 6 
#
# 1 0.031402 0.003279 -0.001856 0.000000 0.000000 0.000000
# 2 0.003279 0.007352 -0.002769 0.000000 0.000000 0.000000
# 3 -0.001856 -0.002769 0.011949 0.000000 0.000000 0.000000
# 4 0.000000 0.000000 0.000000 -0.021832 0.000000 0.000000
# 5 0.000000 0.000000 0.000000 0.000000 -0.104976 0.000000
# 6 0.000000 0.000000 0.000000 0.000000 0.000000 0.045483
#
#
# Mechanical properties :
#
#
# Convention : Reuss Voigt Hill
#
# Bulk Modulus (GPa) = 20.82914 35.90751 28.36833
# Shear Modulus (GPa) = -419.20425 10.58843 -204.30791
#
# Velocity S-wave (km/s) = -14.56807 2.31529 -10.17025
# Velocity P-wave (km/s) = 16.50535 5.03251 11.11531
#
# Compressibility (1/GPa) = 0.04800966
#
# Stress axis : x y z
#
# Youngs Moduli (GPa) = 31.84547 136.01384 83.69235
#
# Poissons Ratio (x) = -0.44594 0.15532
# Poissons Ratio (y) = -0.10441 0.23176
# Poissons Ratio (z) = 0.05910 0.37664
#
# Static dielectric constant tensor:
#      x y z
#    x 1.670380 0.000000 0.000000 
#    y 0.000000 1.718260 0.000000 
#    z 0.000000 0.000000 1.680120 
# 
# From -- ./inp_files/9690.got.cif
#   From: 2010.05.17/outbox.cif.g08.bks.cpg/sg71_5_cif.got.tgz:9690.got - 2010.06.03 16:22:01.
