data_PCOD9523137
_publ_section_title
;
Structure prediction by ZEFSAII (Michael W. Deem and Ramdas Pophale) SiO2 
 PCOD9523137
Probable space group: I M M M
;
_chemical_formula_sum "Si O2"
_cell_formula_units_Z 72
_cell_length_a 8.988139
_cell_length_b 14.143189
_cell_length_c 29.561866
_cell_angle_alpha 90.000000
_cell_angle_beta 90.000000
_cell_angle_gamma 90.000000
_cell_volume 3757.932449
_symmetry_space_group_name_H-M "I M M M"
_symmetry_group_IT_number 71
_symmetry_cell_setting 'orthorhombic'
loop_
_space_group_symop_operation_xyz
x,y,z
-x,-y,z
x,-y,-z
-x,y,-z
-x,-y,-z
x,y,-z
-x,y,z
x,-y,z
1/2+x,1/2+y,1/2+z
1/2-x,1/2-y,1/2+z
1/2+x,1/2-y,1/2-z
1/2-x,1/2+y,1/2-z
1/2-x,1/2-y,1/2-z
1/2+x,1/2+y,1/2-z
1/2-x,1/2+y,1/2+z
1/2+x,1/2-y,1/2+z
loop_
_atom_site_type_symbol
_atom_site_label
_atom_site_fract_x
_atom_site_fract_y
_atom_site_fract_z
Si Si1 0.177289 0.886798 0.675338
Si Si2 0.818721 0.608753 0.000000
Si Si3 0.171433 0.884799 0.224331
Si Si4 0.323385 0.110445 0.869188
Si Si5 0.677984 0.783106 0.409260
O O1 0.224927 0.854923 0.725830
O O2 0.262859 0.838685 0.634546
O O3 0.000000 0.868262 0.671793
O O4 0.197814 0.000000 0.672510
O O5 0.772481 0.663322 0.954688
O O6 0.767972 0.500000 0.000000
O O7 0.000000 0.607191 0.000000
O O8 0.269703 0.860092 0.181143
O O9 0.000000 0.853977 0.217635
O O10 0.168666 0.000000 0.226021
O O11 0.500000 0.120874 0.872171
O O12 0.243223 0.178220 0.904576
O O13 0.285107 0.000000 0.875198
O O14 0.500000 0.780162 0.408570
#
# Coordination Sequence:
#
# PCOD9523137 Si02
#       5
#    16   8  16  16  16
#     4   9  18  33  53  80 115 149 182 225 273 322
#     4   9  20  40  62  85 112 138 171 219 270 321
#     4   8  15  30  52  77 108 147 186 223 265 314
#     4  10  21  37  56  79 110 146 183 226 272 319
#     4  11  22  36  58  83 107 141 183 227 275 326
#
# _framework density 19.159469999999999
#
# number of rings (size 3 to 8) (size 9 to 14) (size 15 to 20)
#    0.000    2.556    0.000    3.333    0.000    4.444 
#    0.000    5.000    0.000    7.333    0.000    0.000 
#    0.000    0.000    0.000    0.000    0.000    0.000 
#
# Total GULP energy -201025.302811 kJ/mol
# GULP energy per Si atom -5584.036189 kJ/mol
# Density = 1.911586 g / cm^3
# Si number density = 19.159470 Si / 1000 Ang^3
#
#
#
# Elastic Constant Matrix: (Units=GPa)
#
#
# Indices 1 2 3 4 5 6 
#
# 1 45.2061 45.2567 47.1236 0.0000 0.0000 0.0000
# 2 45.2567 110.6288 86.8284 0.0000 0.0000 0.0000
# 3 47.1236 86.8284 139.3037 0.0000 0.0000 0.0000
# 4 0.0000 0.0000 0.0000 35.8128 0.0000 0.0000
# 5 0.0000 0.0000 0.0000 0.0000 25.3273 0.0000
# 6 0.0000 0.0000 0.0000 0.0000 0.0000 29.0828
#
#
#
# Elastic Compliance Matrix: (Units=1/GPa)
#
#
# Indices 1 2 3 4 5 6 
#
# 1 0.040322 -0.011335 -0.006575 0.000000 0.000000 0.000000
# 2 -0.011335 0.020883 -0.009182 0.000000 0.000000 0.000000
# 3 -0.006575 -0.009182 0.015126 0.000000 0.000000 0.000000
# 4 0.000000 0.000000 0.000000 0.027923 0.000000 0.000000
# 5 0.000000 0.000000 0.000000 0.000000 0.039483 0.000000
# 6 0.000000 0.000000 0.000000 0.000000 0.000000 0.034385
#
#
# Mechanical properties :
#
#
# Convention : Reuss Voigt Hill
#
# Bulk Modulus (GPa) = 45.15227 72.61733 58.88480
# Shear Modulus (GPa) = 20.86046 25.77324 23.31685
#
# Velocity S-wave (km/s) = 3.30325 3.67167 3.49232
# Velocity P-wave (km/s) = 6.17789 7.48055 6.86021
#
# Compressibility (1/GPa) = 0.02214728
#
# Stress axis : x y z
#
# Youngs Moduli (GPa) = 24.80010 47.88677 66.11126
#
# Poissons Ratio (x) = 0.54277 0.43471
# Poissons Ratio (y) = 0.28110 0.60703
# Poissons Ratio (z) = 0.16307 0.43969
#
# Static dielectric constant tensor:
#      x y z
#    x 1.639790 0.000000 0.000000 
#    y 0.000000 1.710760 0.000000 
#    z 0.000000 0.000000 1.645810 
# 
# From -- ./inp_files/6009.got.cif
#   From: 2010.05.17/outbox.cif.g08.bks.cpg/sg71_4_cif.got.tgz:6009.got - 2010.06.03 16:22:01.
