data_PCOD9523358
_publ_section_title
;
Structure prediction by ZEFSAII (Michael W. Deem and Ramdas Pophale) SiO2 
 PCOD9523358
Probable space group: I M M M
;
_chemical_formula_sum "Si O2"
_cell_formula_units_Z 88
_cell_length_a 20.183162
_cell_length_b 9.651645
_cell_length_c 24.565292
_cell_angle_alpha 90.000000
_cell_angle_beta 90.000000
_cell_angle_gamma 90.000000
_cell_volume 4785.336436
_symmetry_space_group_name_H-M "I M M M"
_symmetry_group_IT_number 71
_symmetry_cell_setting 'orthorhombic'
loop_
_space_group_symop_operation_xyz
x,y,z
-x,-y,z
x,-y,-z
-x,y,-z
-x,-y,-z
x,y,-z
-x,y,z
x,-y,z
1/2+x,1/2+y,1/2+z
1/2-x,1/2-y,1/2+z
1/2+x,1/2-y,1/2-z
1/2-x,1/2+y,1/2-z
1/2-x,1/2-y,1/2-z
1/2+x,1/2+y,1/2-z
1/2-x,1/2+y,1/2+z
1/2+x,1/2-y,1/2+z
loop_
_atom_site_type_symbol
_atom_site_label
_atom_site_fract_x
_atom_site_fract_y
_atom_site_fract_z
Si Si1 0.184247 0.342932 0.562271
Si Si2 0.811295 0.336159 0.914209
Si Si3 0.694368 0.836487 0.283265
Si Si4 0.924897 0.843450 0.384274
Si Si5 0.576459 0.167263 0.500000
Si Si6 0.424369 0.655062 0.753381
O O1 0.161228 0.347018 0.500000
O O2 0.194764 0.500000 0.581634
O O3 0.251952 0.257323 0.564093
O O4 0.128954 0.264102 0.596296
O O5 0.800407 0.500000 0.925568
O O6 0.806788 0.319473 0.848825
O O7 0.879101 0.296819 0.946408
O O8 0.750000 0.750000 0.250000
O O9 0.624385 0.774293 0.264907
O O10 0.702219 0.000000 0.271741
O O11 0.924889 0.846181 0.318874
O O12 0.000000 0.810978 0.402128
O O13 0.908468 0.000000 0.403043
O O14 0.500000 0.219401 0.500000
O O15 0.572002 0.000000 0.500000
O O16 0.500000 0.675318 0.734854
O O17 0.402314 0.500000 0.735741
#
# Coordination Sequence:
#
# PCOD9523358 Si02
#       6
#    16  16  16  16   8  16
#     4  11  23  36  53  79 111 145 181 227 281 335
#     4  10  21  38  60  83 110 148 192 235 284 345
#     4  11  23  36  55  86 118 151 192 238 287 344
#     4   9  19  36  57  80 107 144 190 232 268 319
#     4   9  18  36  63  89 110 139 186 245 297 338
#     4   9  19  37  58  80 110 147 185 226 277 335
#
# _framework density 18.389510999999999
#
# number of rings (size 3 to 8) (size 9 to 14) (size 15 to 20)
#    0.000    2.091    0.909    3.273    0.000    9.455 
#    0.000    5.455    0.000    1.091    0.000    0.000 
#    0.000    0.000    0.000    0.000    0.000    0.000 
#
# Total GULP energy -245322.231261 kJ/mol
# GULP energy per Si atom -5575.505256 kJ/mol
# Density = 1.834766 g / cm^3
# Si number density = 18.389511 Si / 1000 Ang^3
#
#
#
# Elastic Constant Matrix: (Units=GPa)
#
#
# Indices 1 2 3 4 5 6 
#
# 1 90.0363 67.3813 42.8967 0.0000 0.0000 0.0000
# 2 67.3813 96.9366 49.1791 0.0000 0.0000 0.0000
# 3 42.8967 49.1791 65.7609 0.0000 0.0000 0.0000
# 4 0.0000 0.0000 0.0000 18.2679 0.0000 0.0000
# 5 0.0000 0.0000 0.0000 0.0000 31.5726 0.0000
# 6 0.0000 0.0000 0.0000 0.0000 0.0000 24.1096
#
#
#
# Elastic Compliance Matrix: (Units=1/GPa)
#
#
# Indices 1 2 3 4 5 6 
#
# 1 0.024190 -0.014195 -0.005164 0.000000 0.000000 0.000000
# 2 -0.014195 0.024952 -0.009401 0.000000 0.000000 0.000000
# 3 -0.005164 -0.009401 0.025606 0.000000 0.000000 0.000000
# 4 0.000000 0.000000 0.000000 0.054741 0.000000 0.000000
# 5 0.000000 0.000000 0.000000 0.000000 0.031673 0.000000
# 6 0.000000 0.000000 0.000000 0.000000 0.000000 0.041477
#
#
# Mechanical properties :
#
#
# Convention : Reuss Voigt Hill
#
# Bulk Modulus (GPa) = 58.04364 63.51643 60.78003
# Shear Modulus (GPa) = 18.80393 21.00846 19.90620
#
# Velocity S-wave (km/s) = 3.20118 3.38363 3.29367
# Velocity P-wave (km/s) = 6.73018 7.06256 6.89837
#
# Compressibility (1/GPa) = 0.01722842
#
# Stress axis : x y z
#
# Youngs Moduli (GPa) = 41.33941 40.07627 39.05386
#
# Poissons Ratio (x) = 0.56888 0.20167
# Poissons Ratio (y) = 0.58681 0.36715
# Poissons Ratio (z) = 0.21347 0.37676
#
# Static dielectric constant tensor:
#      x y z
#    x 1.628100 0.000000 0.000000 
#    y 0.000000 1.626710 0.000000 
#    z 0.000000 0.000000 1.687670 
# 
# From -- ./inp_files/10496.got.cif
#   From: 2010.05.17/outbox.cif.g08.bks.cpg/sg71_6_cif.got.tgz:10496.got - 2010.06.03 16:22:01.
