data_PCOD9523592
_publ_section_title
;
Structure prediction by ZEFSAII (Michael W. Deem and Ramdas Pophale) SiO2 
 PCOD9523592
Probable space group: I M M M
;
_chemical_formula_sum "Si O2"
_cell_formula_units_Z 116
_cell_length_a 7.689404
_cell_length_b 28.287232
_cell_length_c 28.768442
_cell_angle_alpha 90.000000
_cell_angle_beta 90.000000
_cell_angle_gamma 90.000000
_cell_volume 6257.480059
_symmetry_space_group_name_H-M "I M M M"
_symmetry_group_IT_number 71
_symmetry_cell_setting 'orthorhombic'
loop_
_space_group_symop_operation_xyz
x,y,z
-x,-y,z
x,-y,-z
-x,y,-z
-x,-y,-z
x,y,-z
-x,y,z
x,-y,z
1/2+x,1/2+y,1/2+z
1/2-x,1/2-y,1/2+z
1/2+x,1/2-y,1/2-z
1/2-x,1/2+y,1/2-z
1/2-x,1/2-y,1/2-z
1/2+x,1/2+y,1/2-z
1/2-x,1/2+y,1/2+z
1/2+x,1/2-y,1/2+z
loop_
_atom_site_type_symbol
_atom_site_label
_atom_site_fract_x
_atom_site_fract_y
_atom_site_fract_z
Si Si1 0.297773 0.446555 0.205347
Si Si2 0.712348 0.190263 0.552166
Si Si3 0.202632 0.360259 0.144732
Si Si4 0.798052 0.576897 0.692712
Si Si5 0.795740 0.325313 0.649698
Si Si6 0.207841 0.232704 0.698215
Si Si7 0.500000 0.500000 0.328599
Si Si8 0.790312 0.200354 0.948678
O O1 0.500000 0.449485 0.219208
O O2 0.241869 0.500000 0.192821
O O3 0.281950 0.407948 0.165204
O O4 0.201373 0.429396 0.251571
O O5 0.763398 0.174837 0.500000
O O6 0.500000 0.190354 0.553386
O O7 0.774336 0.159381 0.595672
O O8 0.767282 0.245019 0.557758
O O9 0.219468 0.317561 0.181860
O O10 0.000000 0.370132 0.137824
O O11 0.736965 0.629381 0.678299
O O12 0.655755 0.540666 0.673565
O O13 0.000000 0.569950 0.676679
O O14 0.720791 0.274890 0.665554
O O15 0.769785 0.330032 0.594779
O O16 0.000000 0.321820 0.659588
O O17 0.250000 0.250000 0.750000
O O18 0.000000 0.228199 0.693637
O O19 0.000000 0.200594 0.948473
O O20 0.732624 0.184826 0.000000
#
# Coordination Sequence:
#
# PCOD9523592 Si02
#       8
#    16  16  16  16  16  16   4  16
#     4  11  22  39  58  79 107 145 193 240 291 338
#     4   8  15  30  51  77 108 143 184 227 275 338
#     4  11  21  33  54  82 108 144 183 228 288 336
#     4  11  22  39  60  86 117 150 195 245 284 342
#     4  10  22  35  52  80 114 149 186 229 282 335
#     4  11  22  36  50  72 109 149 186 219 265 339
#     4  12  22  40  60  90 113 154 199 232 306 324
#     4   9  17  31  54  80 109 146 185 227 275 335
#
# _framework density 18.537813
#
# number of rings (size 3 to 8) (size 9 to 14) (size 15 to 20)
#    0.000    1.793    2.759    3.103    0.966    2.759 
#    0.000    0.000    0.000    2.069    0.000    3.862 
#    0.000    2.207    0.000    0.000    0.000    0.000 
#
# Total GULP energy -323074.821595 kJ/mol
# GULP energy per Si atom -5570.255545 kJ/mol
# Density = 1.849562 g / cm^3
# Si number density = 18.537813 Si / 1000 Ang^3
#
#
#
# Elastic Constant Matrix: (Units=GPa)
#
#
# Indices 1 2 3 4 5 6 
#
# 1 56.3480 13.4264 -8.6684 0.0000 0.0000 0.0000
# 2 13.4264 102.4926 41.7682 0.0000 0.0000 0.0000
# 3 -8.6684 41.7682 85.9813 -0.0001 0.0000 0.0000
# 4 0.0000 0.0000 -0.0001 252.5152 0.0000 0.0000
# 5 0.0000 0.0000 0.0000 0.0000 16.2242 0.0000
# 6 0.0000 0.0000 0.0000 0.0000 0.0000 21.6272
#
#
#
# Elastic Compliance Matrix: (Units=1/GPa)
#
#
# Indices 1 2 3 4 5 6 
#
# 1 0.019346 -0.004151 0.003967 0.000000 0.000000 0.000000
# 2 -0.004151 0.013056 -0.006761 0.000000 0.000000 0.000000
# 3 0.003967 -0.006761 0.015315 0.000000 0.000000 0.000000
# 4 0.000000 0.000000 0.000000 0.003960 0.000000 0.000000
# 5 0.000000 0.000000 0.000000 0.000000 0.061636 0.000000
# 6 0.000000 0.000000 0.000000 0.000000 0.000000 0.046238
#
#
# Mechanical properties :
#
#
# Convention : Reuss Voigt Hill
#
# Bulk Modulus (GPa) = 29.56223 37.54159 33.55191
# Shear Modulus (GPa) = 27.06854 71.29302 49.18078
#
# Velocity S-wave (km/s) = 3.82538 6.20819 5.15631
# Velocity P-wave (km/s) = 5.95760 8.46665 7.32042
#
# Compressibility (1/GPa) = 0.03382695
#
# Stress axis : x y z
#
# Youngs Moduli (GPa) = 51.68981 76.59471 65.29714
#
# Poissons Ratio (x) = 0.31794 -0.25903
# Poissons Ratio (y) = 0.21456 0.44146
# Poissons Ratio (z) = -0.20505 0.51784
#
# Static dielectric constant tensor:
#      x y z
#    x 1.685920 0.000000 0.000000 
#    y 0.000000 1.649260 0.000000 
#    z 0.000000 0.000000 1.663030 
# 
# From -- ./inp_files/63819.got.cif
#   From: 2010.05.17/outbox.cif.g08.bks.cpg/sg71_32_cif.got.tgz:63819.got - 2010.06.03 16:22:01.
