data_PCOD9523919
_publ_section_title
;
Structure prediction by ZEFSAII (Michael W. Deem and Ramdas Pophale) SiO2 
 PCOD9523919
Probable space group: I M M M
;
_chemical_formula_sum "Si O2"
_cell_formula_units_Z 112
_cell_length_a 13.563926
_cell_length_b 27.944088
_cell_length_c 13.827446
_cell_angle_alpha 90.000000
_cell_angle_beta 90.000000
_cell_angle_gamma 90.000000
_cell_volume 5241.038176
_symmetry_space_group_name_H-M "I M M M"
_symmetry_group_IT_number 71
_symmetry_cell_setting 'orthorhombic'
loop_
_space_group_symop_operation_xyz
x,y,z
-x,-y,z
x,-y,-z
-x,y,-z
-x,-y,-z
x,y,-z
-x,y,z
x,-y,z
1/2+x,1/2+y,1/2+z
1/2-x,1/2-y,1/2+z
1/2+x,1/2-y,1/2-z
1/2-x,1/2+y,1/2-z
1/2-x,1/2-y,1/2-z
1/2+x,1/2+y,1/2-z
1/2-x,1/2+y,1/2+z
1/2+x,1/2-y,1/2+z
loop_
_atom_site_type_symbol
_atom_site_label
_atom_site_fract_x
_atom_site_fract_y
_atom_site_fract_z
Si Si1 0.879989 0.300243 0.200170
Si Si2 0.885572 0.853305 0.383930
Si Si3 0.881088 0.093519 0.885748
Si Si4 0.120360 0.747066 0.610078
Si Si5 0.382270 0.902440 0.613328
Si Si6 0.209951 0.052450 0.705022
Si Si7 0.114620 0.200585 0.115939
O O1 0.854235 0.293858 0.312963
O O2 0.851244 0.349064 0.147771
O O3 0.843937 0.251153 0.150746
O O4 0.000000 0.300213 0.193284
O O5 0.878358 0.851365 0.500000
O O6 0.850716 0.800198 0.352256
O O7 0.838848 0.902264 0.347970
O O8 0.000000 0.856041 0.356528
O O9 0.821847 0.058596 0.816103
O O10 0.849352 0.147742 0.856786
O O11 0.000000 0.089206 0.871422
O O12 0.863478 0.086831 0.000000
O O13 0.154790 0.738979 0.500000
O O14 0.000000 0.748587 0.606060
O O15 0.357108 0.908607 0.500000
O O16 0.500000 0.906459 0.622432
O O17 0.324420 0.939581 0.680107
O O18 0.178396 0.000000 0.670517
O O19 0.000000 0.200809 0.147336
O O20 0.115320 0.201295 0.000000
#
# Coordination Sequence:
#
# PCOD9523919 Si02
#       7
#    16  16  16  16  16  16  16
#     4   9  15  27  52  81 108 142 186 234 283 337
#     4   9  18  33  53  81 120 158 186 219 273 343
#     4   9  19  37  61  91 128 163 189 218 265 333
#     4   8  14  26  47  77 115 156 185 206 252 332
#     4  10  23  43  63  83 109 143 189 248 309 357
#     4  12  25  39  58  82 108 144 195 250 297 340
#     4   8  13  24  48  82 116 150 185 218 261 327
#
# _framework density 21.369812
#
# number of rings (size 3 to 8) (size 9 to 14) (size 15 to 20)
#    0.000    2.714    0.000    3.857    0.000    6.857 
#    0.000    5.714    0.000    4.714    0.000    1.000 
#    0.000    0.000    0.000    0.000    0.000    0.000 
#
# Total GULP energy -312775.440425 kJ/mol
# GULP energy per Si atom -5585.275722 kJ/mol
# Density = 2.132117 g / cm^3
# Si number density = 21.369812 Si / 1000 Ang^3
#
#
#
# Elastic Constant Matrix: (Units=GPa)
#
#
# Indices 1 2 3 4 5 6 
#
# 1 74.6175 32.7087 19.3667 0.0000 0.0000 0.0000
# 2 32.7087 97.7427 40.5949 -0.0001 0.0000 0.0000
# 3 19.3667 40.5949 91.5263 0.0000 0.0000 0.0000
# 4 0.0000 -0.0001 0.0000 10.4270 0.0000 0.0000
# 5 0.0000 0.0000 0.0000 0.0000 14.8699 0.0000
# 6 0.0000 0.0000 0.0000 0.0000 0.0000 9.0190
#
#
#
# Elastic Compliance Matrix: (Units=1/GPa)
#
#
# Indices 1 2 3 4 5 6 
#
# 1 0.015817 -0.004784 -0.001225 0.000000 0.000000 0.000000
# 2 -0.004784 0.013988 -0.005192 0.000000 0.000000 0.000000
# 3 -0.001225 -0.005192 0.013488 0.000000 0.000000 0.000000
# 4 0.000000 0.000000 0.000000 0.095904 0.000000 0.000000
# 5 0.000000 0.000000 0.000000 0.000000 0.067250 0.000000
# 6 0.000000 0.000000 0.000000 0.000000 0.000000 0.110877
#
#
# Mechanical properties :
#
#
# Convention : Reuss Voigt Hill
#
# Bulk Modulus (GPa) = 47.86782 49.91412 48.89097
# Shear Modulus (GPa) = 14.42211 18.27760 16.34986
#
# Velocity S-wave (km/s) = 2.60067 2.92772 2.76903
# Velocity P-wave (km/s) = 5.60949 5.90227 5.75774
#
# Compressibility (1/GPa) = 0.02089086
#
# Stress axis : x y z
#
# Youngs Moduli (GPa) = 63.22403 71.48835 74.14120
#
# Poissons Ratio (x) = 0.34202 0.09081
# Poissons Ratio (y) = 0.30248 0.38494
# Poissons Ratio (z) = 0.07744 0.37116
#
# Static dielectric constant tensor:
#      x y z
#    x 1.848790 0.000000 0.000000 
#    y 0.000000 1.742220 0.000000 
#    z 0.000000 0.000000 1.781080 
# 
# From -- ./inp_files/35115.got.cif
#   From: 2010.05.17/outbox.cif.g08.bks.cpg/sg71_18_cif.got.tgz:35115.got - 2010.06.03 16:22:01.
