data_PCOD9523284
_publ_section_title
;
Structure prediction by ZEFSAII (Michael W. Deem and Ramdas Pophale) SiO2 
 PCOD9523284
Probable space group: I M M M
;
_chemical_formula_sum "Si O2"
_cell_formula_units_Z 90
_cell_length_a 9.618021
_cell_length_b 19.380120
_cell_length_c 25.143191
_cell_angle_alpha 90.000000
_cell_angle_beta 90.000000
_cell_angle_gamma 90.000000
_cell_volume 4686.650602
_symmetry_space_group_name_H-M "I M M M"
_symmetry_group_IT_number 71
_symmetry_cell_setting 'orthorhombic'
loop_
_space_group_symop_operation_xyz
x,y,z
-x,-y,z
x,-y,-z
-x,y,-z
-x,-y,-z
x,y,-z
-x,y,z
x,-y,z
1/2+x,1/2+y,1/2+z
1/2-x,1/2-y,1/2+z
1/2+x,1/2-y,1/2-z
1/2-x,1/2+y,1/2-z
1/2-x,1/2-y,1/2-z
1/2+x,1/2+y,1/2-z
1/2-x,1/2+y,1/2+z
1/2+x,1/2-y,1/2+z
loop_
_atom_site_type_symbol
_atom_site_label
_atom_site_fract_x
_atom_site_fract_y
_atom_site_fract_z
Si Si1 0.161733 0.848457 0.402449
Si Si2 0.662664 0.304455 0.215872
Si Si3 0.158731 0.918407 0.801590
Si Si4 0.500000 0.000000 0.500000
Si Si5 0.158956 0.416563 0.599558
Si Si6 0.658594 0.369830 0.500000
Si Si7 0.657295 0.205037 0.500000
Si Si8 0.213549 0.000000 0.439622
O O1 0.203991 0.818141 0.345094
O O2 0.259861 0.819578 0.448472
O O3 0.000000 0.829695 0.411670
O O4 0.173199 0.931249 0.407929
O O5 0.500000 0.284035 0.216073
O O6 0.750000 0.250000 0.250000
O O7 0.674119 0.376291 0.247719
O O8 0.268627 0.894238 0.845623
O O9 0.000000 0.907333 0.821507
O O10 0.176286 0.000000 0.793220
O O11 0.376614 0.000000 0.454101
O O12 0.156266 0.500000 0.599564
O O13 0.255334 0.393462 0.551244
O O14 0.000000 0.391865 0.594500
O O15 0.500000 0.397001 0.500000
O O16 0.651114 0.287285 0.500000
O O17 0.500000 0.175490 0.500000
O O18 0.150364 0.000000 0.500000
#
# Coordination Sequence:
#
# PCOD9523284 Si02
#       8
#    16  16  16   2  16   8   8   8
#     4  11  24  41  66  93 125 162 207 254 312 371
#     4  10  24  43  63  92 123 163 207 255 308 366
#     4   9  19  38  63  86 116 157 201 245 294 354
#     4   8  20  36  58  96 140 160 202 248 318 382
#     4  10  21  37  60  88 120 150 191 248 306 354
#     4  11  24  39  57  86 117 157 204 242 294 360
#     4  11  26  42  60  87 123 163 203 247 302 366
#     4  10  21  38  66  95 132 161 210 254 315 374
#
# _framework density 19.203479999999999
#
# number of rings (size 3 to 8) (size 9 to 14) (size 15 to 20)
#    0.267    1.600    0.889    1.600    6.222    5.333 
#    0.000    0.000    0.000    0.000    0.000    0.000 
#    0.000    0.000    0.000    0.000    0.000    0.000 
#
# Total GULP energy -251000.933995 kJ/mol
# GULP energy per Si atom -5577.798533 kJ/mol
# Density = 1.915977 g / cm^3
# Si number density = 19.203480 Si / 1000 Ang^3
#
#
#
# Elastic Constant Matrix: (Units=GPa)
#
#
# Indices 1 2 3 4 5 6 
#
# 1 152.7008 32.7316 92.7169 0.0000 0.0000 0.0000
# 2 32.7316 39.3465 42.6912 0.0000 0.0000 0.0000
# 3 92.7169 42.6912 166.6640 0.0000 0.0000 0.0000
# 4 0.0000 0.0000 0.0000 30.1017 0.0000 0.0000
# 5 0.0000 0.0000 0.0000 0.0000 -2.9895 0.0000
# 6 0.0000 0.0000 0.0000 0.0000 0.0000 22.7359
#
#
#
# Elastic Compliance Matrix: (Units=1/GPa)
#
#
# Indices 1 2 3 4 5 6 
#
# 1 0.010175 -0.003217 -0.004836 0.000000 0.000000 0.000000
# 2 -0.003217 0.036214 -0.007487 0.000000 0.000000 0.000000
# 3 -0.004836 -0.007487 0.010608 0.000000 0.000000 0.000000
# 4 0.000000 0.000000 0.000000 0.033221 0.000000 0.000000
# 5 0.000000 0.000000 0.000000 0.000000 -0.334499 0.000000
# 6 0.000000 0.000000 0.000000 0.000000 0.000000 0.043983
#
#
# Mechanical properties :
#
#
# Convention : Reuss Voigt Hill
#
# Bulk Modulus (GPa) = 38.58369 77.22119 57.90244
# Shear Modulus (GPa) = -31.13751 22.67439 -4.23156
#
# Velocity S-wave (km/s) = -4.03109 3.43992 -1.48604
# Velocity P-wave (km/s) = 1.23719 7.48845 5.22236
#
# Compressibility (1/GPa) = 0.02591769
#
# Stress axis : x y z
#
# Youngs Moduli (GPa) = 98.28179 27.61329 94.26489
#
# Poissons Ratio (x) = 0.08882 0.45590
# Poissons Ratio (y) = 0.31615 0.70575
# Poissons Ratio (z) = 0.47533 0.20674
#
# Static dielectric constant tensor:
#      x y z
#    x 1.671500 0.000000 0.000000 
#    y 0.000000 1.704620 0.000000 
#    z 0.000000 0.000000 1.635060 
# 
# From -- ./inp_files/57650.got.cif
#   From: 2010.05.17/outbox.cif.g08.bks.cpg/sg71_29_cif.got.tgz:57650.got - 2010.06.03 16:22:01.
