data_PCOD9523136
_publ_section_title
;
Structure prediction by ZEFSAII (Michael W. Deem and Ramdas Pophale) SiO2 
 PCOD9523136
Probable space group: I M M M
;
_chemical_formula_sum "Si O2"
_cell_formula_units_Z 104
_cell_length_a 20.613606
_cell_length_b 33.103280
_cell_length_c 8.925686
_cell_angle_alpha 90.000000
_cell_angle_beta 90.000000
_cell_angle_gamma 90.000000
_cell_volume 6090.691504
_symmetry_space_group_name_H-M "I M M M"
_symmetry_group_IT_number 71
_symmetry_cell_setting 'orthorhombic'
loop_
_space_group_symop_operation_xyz
x,y,z
-x,-y,z
x,-y,-z
-x,y,-z
-x,-y,-z
x,y,-z
-x,y,z
x,-y,z
1/2+x,1/2+y,1/2+z
1/2-x,1/2-y,1/2+z
1/2+x,1/2-y,1/2-z
1/2-x,1/2+y,1/2-z
1/2-x,1/2-y,1/2-z
1/2+x,1/2+y,1/2-z
1/2-x,1/2+y,1/2+z
1/2+x,1/2-y,1/2+z
loop_
_atom_site_type_symbol
_atom_site_label
_atom_site_fract_x
_atom_site_fract_y
_atom_site_fract_z
Si Si1 0.713341 0.545050 0.179131
Si Si2 0.321749 0.365325 0.179161
Si Si3 0.925125 0.193639 0.177527
Si Si4 0.151528 0.431138 0.322056
Si Si5 0.672212 0.153949 0.320453
Si Si6 0.923859 0.500000 0.167949
Si Si7 0.075086 0.718418 0.679680
O O1 0.685679 0.500000 0.208708
O O2 0.675310 0.586570 0.214665
O O3 0.780178 0.549914 0.268522
O O4 0.726879 0.547164 0.000000
O O5 0.375572 0.339659 0.263350
O O6 0.249418 0.348403 0.216480
O O7 0.329916 0.361068 0.000000
O O8 0.914766 0.236061 0.261901
O O9 0.000000 0.181444 0.204294
O O10 0.916746 0.199978 0.000000
O O11 0.149756 0.427622 0.500000
O O12 0.145077 0.387771 0.245298
O O13 0.098274 0.461074 0.258566
O O14 0.667164 0.154731 0.500000
O O15 0.629651 0.189803 0.251283
O O16 0.000000 0.500000 0.154131
O O17 0.894227 0.500000 0.000000
O O18 0.080075 0.717093 0.500000
O O19 0.000000 0.707020 0.720028
#
# Coordination Sequence:
#
# PCOD9523136 Si02
#       7
#    16  16  16  16  16   8  16
#     4   9  17  32  55  78 106 140 173 212 260 318
#     4   9  19  34  54  83 110 139 180 222 268 317
#     4  10  21  37  57  80 107 142 180 218 267 328
#     4  11  21  33  51  75 102 133 172 220 269 315
#     4  10  21  37  56  79 109 143 179 221 269 323
#     4  11  23  37  51  67  93 135 182 223 268 319
#     4  10  21  37  57  80 106 140 182 226 271 320
#
# _framework density 17.075237000000001
#
# number of rings (size 3 to 8) (size 9 to 14) (size 15 to 20)
#    0.000    2.077    0.769    3.923    0.000    6.769 
#    0.000    0.000    0.000    0.462    0.000    3.231 
#    0.000    0.000    0.000    0.000    0.000    0.000 
#
# Total GULP energy -290018.611708 kJ/mol
# GULP energy per Si atom -5577.280994 kJ/mol
# Density = 1.703637 g / cm^3
# Si number density = 17.075237 Si / 1000 Ang^3
#
#
#
# Elastic Constant Matrix: (Units=GPa)
#
#
# Indices 1 2 3 4 5 6 
#
# 1 83.6878 82.4188 54.1831 0.0000 0.0000 0.0000
# 2 82.4188 135.0753 60.4787 0.0000 0.0000 -0.0001
# 3 54.1831 60.4787 70.5030 0.0006 -0.0004 0.0012
# 4 0.0000 0.0000 0.0006 34.5396 0.0000 0.0001
# 5 0.0000 0.0000 -0.0004 0.0000 26.2104 0.0000
# 6 0.0000 -0.0001 0.0012 0.0001 0.0000 68.2785
#
#
#
# Elastic Compliance Matrix: (Units=1/GPa)
#
#
# Indices 1 2 3 4 5 6 
#
# 1 0.037705 -0.016288 -0.015005 0.000000 0.000000 0.000000
# 2 -0.016288 0.019056 -0.003829 0.000000 0.000000 0.000000
# 3 -0.015005 -0.003829 0.029000 -0.000001 0.000000 -0.000001
# 4 0.000000 0.000000 -0.000001 0.028952 0.000000 0.000000
# 5 0.000000 0.000000 0.000000 0.000000 0.038153 0.000000
# 6 0.000000 0.000000 -0.000001 0.000000 0.000000 0.014646
#
#
# Mechanical properties :
#
#
# Convention : Reuss Voigt Hill
#
# Bulk Modulus (GPa) = 64.44459 75.93637 70.19048
# Shear Modulus (GPa) = 20.58211 31.95140 26.26675
#
# Velocity S-wave (km/s) = 3.47562 4.33044 3.92637
# Velocity P-wave (km/s) = 7.34371 8.34097 7.85818
#
# Compressibility (1/GPa) = 0.01551721
#
# Stress axis : x y z
#
# Youngs Moduli (GPa) = 26.52139 52.47609 34.48290
#
# Poissons Ratio (x) = 0.85475 0.51741
# Poissons Ratio (y) = 0.43199 0.13203
# Poissons Ratio (z) = 0.39795 0.20092
#
# Static dielectric constant tensor:
#      x y z
#    x 1.564290 0.000000 0.000000 
#    y 0.000000 1.572970 0.000000 
#    z 0.000000 0.000000 1.570870 
# 
# From -- ./inp_files/11548.got.cif
#   From: 2010.05.17/outbox.cif.g08.bks.cpg/sg71_6_cif.got.tgz:11548.got - 2010.06.03 16:22:01.
