data_PCOD9523157
_publ_section_title
;
Structure prediction by ZEFSAII (Michael W. Deem and Ramdas Pophale) SiO2 
 PCOD9523157
Probable space group: I M M M
;
_chemical_formula_sum "Si O2"
_cell_formula_units_Z 88
_cell_length_a 7.456953
_cell_length_b 19.642565
_cell_length_c 24.676590
_cell_angle_alpha 90.000000
_cell_angle_beta 90.000000
_cell_angle_gamma 90.000000
_cell_volume 3614.471046
_symmetry_space_group_name_H-M "I M M M"
_symmetry_group_IT_number 71
_symmetry_cell_setting 'orthorhombic'
loop_
_space_group_symop_operation_xyz
x,y,z
-x,-y,z
x,-y,-z
-x,y,-z
-x,-y,-z
x,y,-z
-x,y,z
x,-y,z
1/2+x,1/2+y,1/2+z
1/2-x,1/2-y,1/2+z
1/2+x,1/2-y,1/2-z
1/2-x,1/2+y,1/2-z
1/2-x,1/2-y,1/2-z
1/2+x,1/2+y,1/2-z
1/2-x,1/2+y,1/2+z
1/2+x,1/2-y,1/2+z
loop_
_atom_site_type_symbol
_atom_site_label
_atom_site_fract_x
_atom_site_fract_y
_atom_site_fract_z
Si Si1 0.281374 0.213579 0.668702
Si Si2 0.709532 0.637669 0.324201
Si Si3 0.792293 0.500000 0.934109
Si Si4 0.718772 0.148802 0.561298
Si Si5 0.216022 0.420922 0.440098
Si Si6 0.206078 0.573622 0.219465
O O1 0.500000 0.215215 0.672518
O O2 0.216310 0.286805 0.688205
O O3 0.232748 0.203973 0.605627
O O4 0.216947 0.144688 0.697502
O O5 0.500000 0.636756 0.311326
O O6 0.727233 0.620654 0.387477
O O7 0.794557 0.582800 0.284317
O O8 0.717471 0.573751 0.919356
O O9 0.000000 0.500000 0.917089
O O10 0.790158 0.500000 0.000000
O O11 0.778976 0.161442 0.500000
O O12 0.500000 0.145218 0.559884
O O13 0.276246 0.396820 0.500000
O O14 0.273053 0.500000 0.434195
O O15 0.000000 0.420536 0.440495
O O16 0.285570 0.500000 0.204830
O O17 0.000000 0.572547 0.200320
#
# Coordination Sequence:
#
# PCOD9523157 Si02
#       6
#    16  16   8  16  16  16
#     4   9  19  32  47  72 105 140 177 218 265 318
#     4  11  22  35  53  79 112 145 174 213 271 331
#     4   7  10  16  30  54  82 116 155 193 236 285
#     4   8  13  22  38  62  94 129 162 200 250 304
#     4   9  19  37  60  84 110 142 181 222 261 307
#     4  10  21  37  57  77  99 135 184 232 272 315
#
# _framework density 24.346578000000001
#
# number of rings (size 3 to 8) (size 9 to 14) (size 15 to 20)
#    0.000    2.818    0.000    3.273    1.273    4.000 
#    0.000    3.636    0.000    0.000    0.000    0.000 
#    0.000    0.000    0.000    3.636    0.000    3.273 
#
# Total GULP energy -245756.930737 kJ/mol
# GULP energy per Si atom -5585.384789 kJ/mol
# Density = 2.429116 g / cm^3
# Si number density = 24.346578 Si / 1000 Ang^3
#
#
#
# Elastic Constant Matrix: (Units=GPa)
#
#
# Indices 1 2 3 4 5 6 
#
# 1 77.8457 6.3242 -3.5943 0.0000 0.0000 0.0000
# 2 6.3242 126.7437 39.7293 0.0000 0.0000 0.0000
# 3 -3.5943 39.7293 104.2671 0.0000 0.0000 0.0000
# 4 0.0000 0.0000 0.0000 43.7146 0.0000 0.0000
# 5 0.0000 0.0000 0.0000 0.0000 10.0885 0.0000
# 6 0.0000 0.0000 0.0000 0.0000 0.0000 1.9828
#
#
#
# Elastic Compliance Matrix: (Units=1/GPa)
#
#
# Indices 1 2 3 4 5 6 
#
# 1 0.012955 -0.000893 0.000787 0.000000 0.000000 0.000000
# 2 -0.000893 0.009022 -0.003468 0.000000 0.000000 0.000000
# 3 0.000787 -0.003468 0.010939 0.000000 0.000000 0.000000
# 4 0.000000 0.000000 0.000000 0.022876 0.000000 0.000000
# 5 0.000000 0.000000 0.000000 0.000000 0.099123 0.000000
# 6 0.000000 0.000000 0.000000 0.000000 0.000000 0.504332
#
#
# Mechanical properties :
#
#
# Convention : Reuss Voigt Hill
#
# Bulk Modulus (GPa) = 38.80958 43.75276 41.28117
# Shear Modulus (GPa) = 7.40758 28.91701 18.16229
#
# Velocity S-wave (km/s) = 1.74618 3.45008 2.73424
# Velocity P-wave (km/s) = 4.47667 5.82070 5.19236
#
# Compressibility (1/GPa) = 0.02576684
#
# Stress axis : x y z
#
# Youngs Moduli (GPa) = 77.19145 110.84389 91.41234
#
# Poissons Ratio (x) = 0.09899 -0.07193
# Poissons Ratio (y) = 0.06894 0.31705
# Poissons Ratio (z) = -0.06074 0.38445
#
# Static dielectric constant tensor:
#      x y z
#    x 1.979180 0.000000 0.000000 
#    y 0.000000 1.924870 0.000000 
#    z 0.000000 0.000000 1.949940 
# 
# From -- ./inp_files/57549.got.cif
#   From: 2010.05.17/outbox.cif.g08.bks.cpg/sg71_29_cif.got.tgz:57549.got - 2010.06.03 16:22:01.
