data_PCOD9523821
_publ_section_title
;
Structure prediction by ZEFSAII (Michael W. Deem and Ramdas Pophale) SiO2 
 PCOD9523821
Probable space group: I M M M
;
_chemical_formula_sum "Si O2"
_cell_formula_units_Z 72
_cell_length_a 18.222177
_cell_length_b 8.091967
_cell_length_c 24.234929
_cell_angle_alpha 90.000000
_cell_angle_beta 90.000000
_cell_angle_gamma 90.000000
_cell_volume 3573.519165
_symmetry_space_group_name_H-M "I M M M"
_symmetry_group_IT_number 71
_symmetry_cell_setting 'orthorhombic'
loop_
_space_group_symop_operation_xyz
x,y,z
-x,-y,z
x,-y,-z
-x,y,-z
-x,-y,-z
x,y,-z
-x,y,z
x,-y,z
1/2+x,1/2+y,1/2+z
1/2-x,1/2-y,1/2+z
1/2+x,1/2-y,1/2-z
1/2-x,1/2+y,1/2-z
1/2-x,1/2-y,1/2-z
1/2+x,1/2+y,1/2-z
1/2-x,1/2+y,1/2+z
1/2+x,1/2-y,1/2+z
loop_
_atom_site_type_symbol
_atom_site_label
_atom_site_fract_x
_atom_site_fract_y
_atom_site_fract_z
Si Si1 0.877077 0.192825 0.500000
Si Si2 0.218637 0.809787 0.000000
Si Si3 0.918450 0.700160 0.379000
Si Si4 0.722626 0.190164 0.190634
Si Si5 0.500000 0.202258 0.435217
Si Si6 0.846563 0.308304 0.888578
O O1 0.805664 0.307066 0.500000
O O2 0.914984 0.230600 0.558533
O O3 0.856543 0.000000 0.500000
O O4 0.191583 0.710922 0.052542
O O5 0.192117 0.000000 0.000000
O O6 0.912653 0.500000 0.383292
O O7 0.849375 0.761875 0.341618
O O8 0.000000 0.738810 0.356086
O O9 0.750000 0.250000 0.250000
O O10 0.793719 0.211825 0.152170
O O11 0.703714 0.000000 0.197876
O O12 0.500000 0.255717 0.500000
O O13 0.571717 0.253946 0.401366
O O14 0.500000 0.000000 0.437176
O O15 0.849582 0.500000 0.871202
#
# Coordination Sequence:
#
# PCOD9523821 Si02
#       6
#     8   8  16  16   8  16
#     4  12  23  35  59  94 127 160 198 243 302 364
#     4  12  22  34  56  88 124 163 201 244 303 365
#     4  10  22  41  64  90 123 161 200 244 300 366
#     4  11  24  43  65  87 118 160 208 254 302 356
#     4   9  18  34  58  92 128 160 196 239 294 365
#     4  11  21  38  63  89 120 160 204 250 301 358
#
# _framework density 20.148205000000001
#
# number of rings (size 3 to 8) (size 9 to 14) (size 15 to 20)
#    0.000    1.222    3.333    3.667    0.000    2.667 
#    2.000    2.778    0.000    0.000    0.000    0.000 
#    0.000    0.000    0.000    0.000    0.000    0.000 
#
# Total GULP energy -200796.578379 kJ/mol
# GULP energy per Si atom -5577.682733 kJ/mol
# Density = 2.010235 g / cm^3
# Si number density = 20.148205 Si / 1000 Ang^3
#
#
#
# Elastic Constant Matrix: (Units=GPa)
#
#
# Indices 1 2 3 4 5 6 
#
# 1 158.0220 3.8312 63.3972 0.0000 0.0000 0.0000
# 2 3.8312 39.2907 3.8095 0.0000 0.0000 0.0000
# 3 63.3972 3.8095 135.8983 0.0000 0.0000 0.0000
# 4 0.0000 0.0000 0.0000 1722.7165 0.0000 0.0000
# 5 0.0000 0.0000 0.0000 0.0000 15.7196 0.0000
# 6 0.0000 0.0000 0.0000 0.0000 0.0000 20.6423
#
#
#
# Elastic Compliance Matrix: (Units=1/GPa)
#
#
# Indices 1 2 3 4 5 6 
#
# 1 0.007792 -0.000408 -0.003623 0.000000 0.000000 0.000000
# 2 -0.000408 0.025542 -0.000525 0.000000 0.000000 0.000000
# 3 -0.003623 -0.000525 0.009064 0.000000 0.000000 0.000000
# 4 0.000000 0.000000 0.000000 0.000580 0.000000 0.000000
# 5 0.000000 0.000000 0.000000 0.000000 0.063615 0.000000
# 6 0.000000 0.000000 0.000000 0.000000 0.000000 0.048444
#
#
# Mechanical properties :
#
#
# Convention : Reuss Voigt Hill
#
# Bulk Modulus (GPa) = 30.04562 52.80965 41.42764
# Shear Modulus (GPa) = 28.53131 369.29388 198.91259
#
# Velocity S-wave (km/s) = 3.76716 13.55310 9.94681
# Velocity P-wave (km/s) = 5.81950 16.46763 12.35009
#
# Compressibility (1/GPa) = 0.03328272
#
# Stress axis : x y z
#
# Youngs Moduli (GPa) = 128.33926 39.15104 110.33206
#
# Poissons Ratio (x) = 0.01599 0.39979
# Poissons Ratio (y) = 0.05242 0.05797
# Poissons Ratio (z) = 0.46504 0.02057
#
# Static dielectric constant tensor:
#      x y z
#    x 1.803320 0.000000 0.000000 
#    y 0.000000 1.705140 0.000000 
#    z 0.000000 0.000000 1.690440 
# 
# From -- ./inp_files/60397.got.cif
#   From: 2010.05.17/outbox.cif.g08.bks.cpg/sg71_31_cif.got.tgz:60397.got - 2010.06.03 16:22:01.
