data_PCOD9523925
_publ_section_title
;
Structure prediction by ZEFSAII (Michael W. Deem and Ramdas Pophale) SiO2 
 PCOD9523925
Probable space group: I M M M
;
_chemical_formula_sum "Si O2"
_cell_formula_units_Z 50
_cell_length_a 7.821128
_cell_length_b 10.307342
_cell_length_c 29.939612
_cell_angle_alpha 90.000000
_cell_angle_beta 90.000000
_cell_angle_gamma 90.000000
_cell_volume 2413.583053
_symmetry_space_group_name_H-M "I M M M"
_symmetry_group_IT_number 71
_symmetry_cell_setting 'orthorhombic'
loop_
_space_group_symop_operation_xyz
x,y,z
-x,-y,z
x,-y,-z
-x,y,-z
-x,-y,-z
x,y,-z
-x,y,z
x,-y,z
1/2+x,1/2+y,1/2+z
1/2-x,1/2-y,1/2+z
1/2+x,1/2-y,1/2-z
1/2-x,1/2+y,1/2-z
1/2-x,1/2-y,1/2-z
1/2+x,1/2+y,1/2-z
1/2-x,1/2+y,1/2+z
1/2+x,1/2-y,1/2+z
loop_
_atom_site_type_symbol
_atom_site_label
_atom_site_fract_x
_atom_site_fract_y
_atom_site_fract_z
Si Si1 0.500000 0.000000 0.000000
Si Si2 0.794336 0.144606 0.286980
Si Si3 0.203441 0.236939 0.384349
Si Si4 0.794465 0.500000 0.051583
Si Si5 0.690237 0.500000 0.427483
O O1 0.347964 0.000000 0.038380
O O2 0.750000 0.250000 0.250000
O O3 0.734454 0.185609 0.336366
O O4 0.000000 0.138389 0.289413
O O5 0.730558 0.000000 0.275912
O O6 0.233831 0.126802 0.421667
O O7 0.290958 0.370166 0.398313
O O8 0.000000 0.259601 0.381462
O O9 0.000000 0.500000 0.051437
O O10 0.735321 0.500000 0.000000
O O11 0.500000 0.500000 0.447859
#
# Coordination Sequence:
#
# PCOD9523925 Si02
#       5
#     2  16  16   8   8
#     4  12  26  52  68 104 144 188 238 286 360 410
#     4  10  23  43  67  97 135 177 227 283 346 420
#     4  11  23  46  68  96 137 185 231 286 352 419
#     4  11  25  41  64  99 135 174 231 287 341 413
#     4  12  27  45  72 103 139 186 236 291 347 419
#
# _framework density 20.716087999999999
#
# number of rings (size 3 to 8) (size 9 to 14) (size 15 to 20)
#    0.000    1.120    3.200    1.680    4.480    4.480 
#    0.000    0.000    0.000    0.000    0.000    0.000 
#    0.000    0.000    0.000    0.000    0.000    0.000 
#
# Total GULP energy -139534.441524 kJ/mol
# GULP energy per Si atom -5581.377661 kJ/mol
# Density = 2.066894 g / cm^3
# Si number density = 20.716088 Si / 1000 Ang^3
#
#
#
# Elastic Constant Matrix: (Units=GPa)
#
#
# Indices 1 2 3 4 5 6 
#
# 1 103.6733 23.9090 23.0540 0.0000 0.0000 0.0000
# 2 23.9090 205.1584 103.5672 0.0000 0.0000 0.0000
# 3 23.0540 103.5672 181.5850 0.0000 0.0000 0.0000
# 4 0.0000 0.0000 0.0000 -56.9175 0.0000 0.0000
# 5 0.0000 0.0000 0.0000 0.0000 15.4247 0.0000
# 6 0.0000 0.0000 0.0000 0.0000 0.0000 38.7733
#
#
#
# Elastic Compliance Matrix: (Units=1/GPa)
#
#
# Indices 1 2 3 4 5 6 
#
# 1 0.010005 -0.000737 -0.000850 0.000000 0.000000 0.000000
# 2 -0.000737 0.006899 -0.003842 0.000000 0.000000 0.000000
# 3 -0.000850 -0.003842 0.007806 0.000000 0.000000 0.000000
# 4 0.000000 0.000000 0.000000 -0.017569 0.000000 0.000000
# 5 0.000000 0.000000 0.000000 0.000000 0.064831 0.000000
# 6 0.000000 0.000000 0.000000 0.000000 0.000000 0.025791
#
#
# Mechanical properties :
#
#
# Convention : Reuss Voigt Hill
#
# Bulk Modulus (GPa) = 72.18453 87.94190 80.06322
# Shear Modulus (GPa) = 44.15510 22.11519 33.13515
#
# Velocity S-wave (km/s) = 4.62176 3.27086 4.00370
# Velocity P-wave (km/s) = 7.96249 7.53710 7.75271
#
# Compressibility (1/GPa) = 0.01385338
#
# Stress axis : x y z
#
# Youngs Moduli (GPa) = 99.95383 144.93945 128.10665
#
# Poissons Ratio (x) = 0.10680 0.10888
# Poissons Ratio (y) = 0.07366 0.49213
# Poissons Ratio (z) = 0.08495 0.55679
#
# Static dielectric constant tensor:
#      x y z
#    x 1.751680 0.000000 0.000000 
#    y 0.000000 1.721350 0.000000 
#    z 0.000000 0.000000 1.711570 
# 
# From -- ./inp_files/2242.got.cif
#   From: 2010.05.17/outbox.cif.g08.bks.cpg/sg71_2_cif.got.tgz:2242.got - 2010.06.03 16:22:01.
