data_PCOD9523860
_publ_section_title
;
Structure prediction by ZEFSAII (Michael W. Deem and Ramdas Pophale) SiO2 
 PCOD9523860
Probable space group: I M M M
;
_chemical_formula_sum "Si O2"
_cell_formula_units_Z 104
_cell_length_a 22.404207
_cell_length_b 8.390303
_cell_length_c 27.682621
_cell_angle_alpha 90.000000
_cell_angle_beta 90.000000
_cell_angle_gamma 90.000000
_cell_volume 5203.726089
_symmetry_space_group_name_H-M "I M M M"
_symmetry_group_IT_number 71
_symmetry_cell_setting 'orthorhombic'
loop_
_space_group_symop_operation_xyz
x,y,z
-x,-y,z
x,-y,-z
-x,y,-z
-x,-y,-z
x,y,-z
-x,y,z
x,-y,z
1/2+x,1/2+y,1/2+z
1/2-x,1/2-y,1/2+z
1/2+x,1/2-y,1/2-z
1/2-x,1/2+y,1/2-z
1/2-x,1/2-y,1/2-z
1/2+x,1/2+y,1/2-z
1/2-x,1/2+y,1/2+z
1/2+x,1/2-y,1/2+z
loop_
_atom_site_type_symbol
_atom_site_label
_atom_site_fract_x
_atom_site_fract_y
_atom_site_fract_z
Si Si1 0.500000 0.305682 0.685453
Si Si2 0.792241 0.312447 0.054590
Si Si3 0.624544 0.315449 0.184055
Si Si4 0.570248 0.193983 0.000000
Si Si5 0.875587 0.813413 0.137315
Si Si6 0.000000 0.309397 0.703054
Si Si7 0.336437 0.189110 0.083775
Si Si8 0.689775 0.183567 0.272323
O O1 0.500000 0.500000 0.690037
O O2 0.440452 0.256962 0.656248
O O3 0.500000 0.236617 0.739790
O O4 0.779031 0.500000 0.058935
O O5 0.844005 0.268784 0.092154
O O6 0.729812 0.222204 0.063818
O O7 0.811938 0.278148 0.000000
O O8 0.632438 0.500000 0.197813
O O9 0.556299 0.269983 0.177494
O O10 0.658582 0.277013 0.134947
O O11 0.644042 0.205435 0.228545
O O12 0.611011 0.240781 0.046507
O O13 0.500000 0.245956 0.000000
O O14 0.568974 0.000000 0.000000
O O15 0.831777 0.784853 0.182463
O O16 0.880893 0.000000 0.126777
O O17 0.000000 0.500000 0.698187
O O18 0.343577 0.000000 0.091650
O O19 0.750000 0.250000 0.250000
O O20 0.695466 0.000000 0.286809
#
# Coordination Sequence:
#
# PCOD9523860 Si02
#       8
#     8  16  16   8  16   8  16  16
#     4  10  22  42  67  95 131 170 208 262 330 399
#     4  11  24  43  66  93 128 169 217 272 329 387
#     4  12  25  41  60  89 128 166 205 256 310 371
#     4   9  20  38  61  91 123 160 208 267 322 378
#     4  11  23  41  67  96 128 166 211 265 330 398
#     4  12  24  40  64  92 124 170 216 259 309 380
#     4  11  22  40  66  94 125 166 216 269 326 385
#     4  12  24  40  61  90 125 164 209 256 313 378
#
# _framework density 19.985679999999999
#
# number of rings (size 3 to 8) (size 9 to 14) (size 15 to 20)
#    0.000    0.846    2.308    5.769    1.077    1.538 
#    0.000    0.385    0.000    4.154    0.000    0.000 
#    0.000    0.000    0.000    0.000    0.000    0.000 
#
# Total GULP energy -290703.178274 kJ/mol
# GULP energy per Si atom -5590.445736 kJ/mol
# Density = 1.994019 g / cm^3
# Si number density = 19.985680 Si / 1000 Ang^3
#
#
#
# Elastic Constant Matrix: (Units=GPa)
#
#
# Indices 1 2 3 4 5 6 
#
# 1 71.5454 4.9868 9.6007 0.0000 0.0000 0.0000
# 2 4.9868 40.7102 -0.1101 0.0000 0.0000 0.0000
# 3 9.6007 -0.1101 88.8576 0.0000 0.0000 0.0000
# 4 0.0000 0.0000 0.0000 24.4937 0.0000 0.0000
# 5 0.0000 0.0000 0.0000 0.0000 40.7754 0.0000
# 6 0.0000 0.0000 0.0000 0.0000 0.0000 23.2605
#
#
#
# Elastic Compliance Matrix: (Units=1/GPa)
#
#
# Indices 1 2 3 4 5 6 
#
# 1 0.014307 -0.001757 -0.001548 0.000000 0.000000 0.000000
# 2 -0.001757 0.024780 0.000221 0.000000 0.000000 0.000000
# 3 -0.001548 0.000221 0.011421 0.000000 0.000000 0.000000
# 4 0.000000 0.000000 0.000000 0.040827 0.000000 0.000000
# 5 0.000000 0.000000 0.000000 0.000000 0.024525 0.000000
# 6 0.000000 0.000000 0.000000 0.000000 0.000000 0.042991
#
#
# Mechanical properties :
#
#
# Convention : Reuss Voigt Hill
#
# Bulk Modulus (GPa) = 22.55303 25.56311 24.05807
# Shear Modulus (GPa) = 27.80871 30.14830 28.97850
#
# Velocity S-wave (km/s) = 3.73424 3.88815 3.81197
# Velocity P-wave (km/s) = 5.46825 5.74242 5.60701
#
# Compressibility (1/GPa) = 0.04433993
#
# Stress axis : x y z
#
# Youngs Moduli (GPa) = 69.89433 40.35566 87.55426
#
# Poissons Ratio (x) = 0.07090 0.13554
# Poissons Ratio (y) = 0.12279 -0.01931
# Poissons Ratio (z) = 0.10820 -0.00890
#
# Static dielectric constant tensor:
#      x y z
#    x 1.062180 0.000000 0.000000 
#    y 0.000000 1.676360 0.000000 
#    z 0.000000 0.000000 1.746680 
# 
# From -- ./inp_files/66481.got.cif
#   From: 2010.05.17/outbox.cif.g08.bks.cpg/sg71_34_cif.got.tgz:66481.got - 2010.06.03 16:22:01.
