data_PCOD9523610
_publ_section_title
;
Structure prediction by ZEFSAII (Michael W. Deem and Ramdas Pophale) SiO2 
 PCOD9523610
Probable space group: I M M M
;
_chemical_formula_sum "Si O2"
_cell_formula_units_Z 96
_cell_length_a 16.855269
_cell_length_b 16.829117
_cell_length_c 14.849832
_cell_angle_alpha 90.000000
_cell_angle_beta 90.000000
_cell_angle_gamma 90.000000
_cell_volume 4212.292862
_symmetry_space_group_name_H-M "I M M M"
_symmetry_group_IT_number 71
_symmetry_cell_setting 'orthorhombic'
loop_
_space_group_symop_operation_xyz
x,y,z
-x,-y,z
x,-y,-z
-x,y,-z
-x,-y,-z
x,y,-z
-x,y,z
x,-y,z
1/2+x,1/2+y,1/2+z
1/2-x,1/2-y,1/2+z
1/2+x,1/2-y,1/2-z
1/2-x,1/2+y,1/2-z
1/2-x,1/2-y,1/2-z
1/2+x,1/2+y,1/2-z
1/2-x,1/2+y,1/2+z
1/2+x,1/2-y,1/2+z
loop_
_atom_site_type_symbol
_atom_site_label
_atom_site_fract_x
_atom_site_fract_y
_atom_site_fract_z
Si Si1 0.415139 0.586915 0.315276
Si Si2 0.586668 0.686342 0.141385
Si Si3 0.587481 0.092264 0.610099
Si Si4 0.415461 0.876525 0.892223
Si Si5 0.262507 0.190295 0.394250
Si Si6 0.747255 0.630720 0.392353
O O1 0.500000 0.592188 0.365253
O O2 0.414974 0.500000 0.268466
O O3 0.414011 0.658249 0.244393
O O4 0.335368 0.590396 0.371273
O O5 0.500000 0.658280 0.105133
O O6 0.587176 0.780810 0.122617
O O7 0.673102 0.655867 0.109997
O O8 0.588763 0.093257 0.500000
O O9 0.500000 0.123879 0.636852
O O10 0.664142 0.140152 0.643665
O O11 0.592866 0.000000 0.636354
O O12 0.500000 0.905333 0.854852
O O13 0.330177 0.905997 0.858576
O O14 0.418053 0.890856 0.000000
O O15 0.280192 0.199268 0.500000
O O16 0.259573 0.279219 0.355740
O O17 0.755635 0.634556 0.500000
#
# Coordination Sequence:
#
# PCOD9523610 Si02
#       6
#    16  16  16  16  16  16
#     4  10  22  37  49  64  91 130 173 211 247 286
#     4   9  17  30  48  68  94 128 159 188 229 283
#     4   8  14  25  40  59  88 125 157 185 225 278
#     4   8  14  27  50  79 106 127 148 182 234 295
#     4   9  17  28  47  77 103 122 153 197 239 284
#     4   9  18  32  51  74  95 118 154 202 252 295
#
# _framework density 22.790438999999999
#
# number of rings (size 3 to 8) (size 9 to 14) (size 15 to 20)
#    0.000    3.167    0.000    2.000    0.000    5.667 
#    0.000    2.500    0.000    3.000    0.000   15.167 
#    0.000    0.000    0.000    0.000    0.000    0.000 
#
# Total GULP energy -267214.886723 kJ/mol
# GULP energy per Si atom -5566.976807 kJ/mol
# Density = 2.273857 g / cm^3
# Si number density = 22.790439 Si / 1000 Ang^3
#
#
#
# Elastic Constant Matrix: (Units=GPa)
#
#
# Indices 1 2 3 4 5 6 
#
# 1 275.7795 63.5275 12.5661 0.0000 0.0000 0.0000
# 2 63.5275 48.0023 4.4014 0.0000 0.0000 0.0000
# 3 12.5661 4.4014 31.0229 0.0000 0.0000 0.0000
# 4 0.0000 0.0000 0.0000 1.4675 0.0000 0.0000
# 5 0.0000 0.0000 0.0000 0.0000 -67.0549 0.0000
# 6 0.0000 0.0000 0.0000 0.0000 0.0000 19.1502
#
#
#
# Elastic Compliance Matrix: (Units=1/GPa)
#
#
# Indices 1 2 3 4 5 6 
#
# 1 0.005257 -0.006851 -0.001157 0.000000 0.000000 0.000000
# 2 -0.006851 0.030036 -0.001486 0.000000 0.000000 0.000000
# 3 -0.001157 -0.001486 0.032914 0.000000 0.000000 0.000000
# 4 0.000000 0.000000 0.000000 0.681422 0.000000 0.000000
# 5 0.000000 0.000000 0.000000 0.000000 -0.014913 0.000000
# 6 0.000000 0.000000 0.000000 0.000000 0.000000 0.052219
#
#
# Mechanical properties :
#
#
# Convention : Reuss Voigt Hill
#
# Bulk Modulus (GPa) = 20.31815 57.31051 38.81433
# Shear Modulus (GPa) = 6.08029 8.99988 7.54008
#
# Velocity S-wave (km/s) = 1.63515 1.98936 1.82089
# Velocity P-wave (km/s) = 3.53546 5.52069 4.63560
#
# Compressibility (1/GPa) = 0.04921708
#
# Stress axis : x y z
#
# Youngs Moduli (GPa) = 190.22136 33.29379 30.38232
#
# Poissons Ratio (x) = 0.22810 0.03516
# Poissons Ratio (y) = 1.30324 0.04515
# Poissons Ratio (z) = 0.22016 0.04948
#
# Static dielectric constant tensor:
#      x y z
#    x 1.928990 0.000000 0.000000 
#    y 0.000000 1.848780 0.000000 
#    z 0.000000 0.000000 1.877230 
# 
# From -- ./inp_files/34515.got.cif
#   From: 2010.05.17/outbox.cif.g08.bks.cpg/sg71_18_cif.got.tgz:34515.got - 2010.06.03 16:22:01.
