data_PCOD9523795
_publ_section_title
;
Structure prediction by ZEFSAII (Michael W. Deem and Ramdas Pophale) SiO2 
 PCOD9523795
Probable space group: I M M M
;
_chemical_formula_sum "Si O2"
_cell_formula_units_Z 112
_cell_length_a 15.297436
_cell_length_b 27.186032
_cell_length_c 13.659089
_cell_angle_alpha 90.000000
_cell_angle_beta 90.000000
_cell_angle_gamma 90.000000
_cell_volume 5680.495282
_symmetry_space_group_name_H-M "I M M M"
_symmetry_group_IT_number 71
_symmetry_cell_setting 'orthorhombic'
loop_
_space_group_symop_operation_xyz
x,y,z
-x,-y,z
x,-y,-z
-x,y,-z
-x,-y,-z
x,y,-z
-x,y,z
x,-y,z
1/2+x,1/2+y,1/2+z
1/2-x,1/2-y,1/2+z
1/2+x,1/2-y,1/2-z
1/2-x,1/2+y,1/2-z
1/2-x,1/2-y,1/2-z
1/2+x,1/2+y,1/2-z
1/2-x,1/2+y,1/2+z
1/2+x,1/2-y,1/2+z
loop_
_atom_site_type_symbol
_atom_site_label
_atom_site_fract_x
_atom_site_fract_y
_atom_site_fract_z
Si Si1 0.594713 0.814680 0.119422
Si Si2 0.596003 0.127745 0.380626
Si Si3 0.710340 0.662711 0.382134
Si Si4 0.630120 0.296742 0.886078
Si Si5 0.400747 0.606145 0.763616
Si Si6 0.253923 0.556877 0.115758
Si Si7 0.166336 0.728039 0.885917
O O1 0.500000 0.835888 0.147399
O O2 0.687301 0.838877 0.147653
O O3 0.598708 0.756999 0.147167
O O4 0.597302 0.814528 0.000000
O O5 0.599971 0.129716 0.500000
O O6 0.500000 0.108877 0.354463
O O7 0.675736 0.092872 0.351085
O O8 0.607625 0.184106 0.344857
O O9 0.706513 0.661672 0.500000
O O10 0.651911 0.621022 0.333865
O O11 0.673584 0.716362 0.347809
O O12 0.598641 0.343186 0.826082
O O13 0.735523 0.293475 0.882596
O O14 0.605748 0.302600 0.000000
O O15 0.500000 0.590234 0.746563
O O16 0.341339 0.568899 0.825032
O O17 0.228651 0.500000 0.127027
O O18 0.269239 0.566190 0.000000
O O19 0.141078 0.733879 0.000000
#
# Coordination Sequence:
#
# PCOD9523795 Si02
#       7
#    16  16  16  16  16  16  16
#     4   8  14  27  49  75 104 143 186 223 264 314
#     4   9  16  29  53  82 111 147 185 214 251 313
#     4   9  20  36  53  75 110 152 186 223 267 313
#     4   9  16  29  48  71 104 141 179 225 268 308
#     4  12  24  35  53  79 104 139 188 232 272 326
#     4  10  22  41  61  81 109 139 171 223 285 336
#     4   8  14  28  50  74 107 150 186 215 252 303
#
# _framework density 19.71659
#
# number of rings (size 3 to 8) (size 9 to 14) (size 15 to 20)
#    0.000    2.714    1.429    2.571    0.000    5.429 
#    0.000    4.286    0.000    0.429    0.000    1.000 
#    0.000    0.000    0.000    4.857    0.000    0.143 
#
# Total GULP energy -312593.817084 kJ/mol
# GULP energy per Si atom -5582.032448 kJ/mol
# Density = 1.967171 g / cm^3
# Si number density = 19.716590 Si / 1000 Ang^3
#
#
#
# Elastic Constant Matrix: (Units=GPa)
#
#
# Indices 1 2 3 4 5 6 
#
# 1 130.0010 34.5731 20.2059 0.0000 0.0000 0.0000
# 2 34.5731 52.8252 18.9495 0.0000 0.0000 0.0000
# 3 20.2059 18.9495 68.9543 0.0001 0.0000 0.0000
# 4 0.0000 0.0000 0.0001 24.1071 0.0000 0.0000
# 5 0.0000 0.0000 0.0000 0.0000 19.2419 0.0000
# 6 0.0000 0.0000 0.0000 0.0000 0.0000 -3.1276
#
#
#
# Elastic Compliance Matrix: (Units=1/GPa)
#
#
# Indices 1 2 3 4 5 6 
#
# 1 0.009399 -0.005728 -0.001180 0.000000 0.000000 0.000000
# 2 -0.005728 0.024492 -0.005052 0.000000 0.000000 0.000000
# 3 -0.001180 -0.005052 0.016237 0.000000 0.000000 0.000000
# 4 0.000000 0.000000 0.000000 0.041482 0.000000 0.000000
# 5 0.000000 0.000000 0.000000 0.000000 0.051970 0.000000
# 6 0.000000 0.000000 0.000000 0.000000 0.000000 -0.319734
#
#
# Mechanical properties :
#
#
# Convention : Reuss Voigt Hill
#
# Bulk Modulus (GPa) = 38.15831 44.35972 41.25901
# Shear Modulus (GPa) = -34.84350 19.91440 -7.46455
#
# Velocity S-wave (km/s) = -4.20839 3.18155 -1.94786
# Velocity P-wave (km/s) = 2.05393 6.00365 3.98906
#
# Compressibility (1/GPa) = 0.02620661
#
# Stress axis : x y z
#
# Youngs Moduli (GPa) = 106.39384 40.83025 61.58953
#
# Poissons Ratio (x) = 0.23388 0.07268
# Poissons Ratio (y) = 0.60944 0.31115
# Poissons Ratio (z) = 0.12555 0.20628
#
# Static dielectric constant tensor:
#      x y z
#    x 1.726680 0.000000 0.000000 
#    y 0.000000 1.647720 0.000000 
#    z 0.000000 0.000000 1.758340 
# 
# From -- ./inp_files/35123.got.cif
#   From: 2010.05.17/outbox.cif.g08.bks.cpg/sg71_18_cif.got.tgz:35123.got - 2010.06.03 16:22:01.
