data_PCOD9523088
_publ_section_title
;
Structure prediction by ZEFSAII (Michael W. Deem and Ramdas Pophale) SiO2 
 PCOD9523088
Probable space group: I M M M
;
_chemical_formula_sum "Si O2"
_cell_formula_units_Z 116
_cell_length_a 7.864473
_cell_length_b 24.696568
_cell_length_c 29.471071
_cell_angle_alpha 90.000000
_cell_angle_beta 90.000000
_cell_angle_gamma 90.000000
_cell_volume 5724.033271
_symmetry_space_group_name_H-M "I M M M"
_symmetry_group_IT_number 71
_symmetry_cell_setting 'orthorhombic'
loop_
_space_group_symop_operation_xyz
x,y,z
-x,-y,z
x,-y,-z
-x,y,-z
-x,-y,-z
x,y,-z
-x,y,z
x,-y,z
1/2+x,1/2+y,1/2+z
1/2-x,1/2-y,1/2+z
1/2+x,1/2-y,1/2-z
1/2-x,1/2+y,1/2-z
1/2-x,1/2-y,1/2-z
1/2+x,1/2+y,1/2-z
1/2-x,1/2+y,1/2+z
1/2+x,1/2-y,1/2+z
loop_
_atom_site_type_symbol
_atom_site_label
_atom_site_fract_x
_atom_site_fract_y
_atom_site_fract_z
Si Si1 0.188034 0.921221 0.815757
Si Si2 0.796740 0.213384 0.706951
Si Si3 0.699661 0.279142 0.550789
Si Si4 0.204211 0.940973 0.383716
Si Si5 0.295139 0.654712 0.051935
Si Si6 0.500000 0.000000 0.837890
Si Si7 0.305393 0.909135 0.283635
Si Si8 0.696835 0.809447 0.146382
O O1 0.203828 0.925537 0.761192
O O2 0.206654 0.858325 0.829780
O O3 0.000000 0.939197 0.829989
O O4 0.347773 0.953328 0.835912
O O5 0.750000 0.250000 0.750000
O O6 0.708929 0.155610 0.710484
O O7 0.745421 0.250578 0.664341
O O8 0.000000 0.203461 0.705158
O O9 0.765498 0.291207 0.500000
O O10 0.500000 0.291720 0.552009
O O11 0.722360 0.214702 0.557820
O O12 0.785969 0.309755 0.592330
O O13 0.268566 0.890050 0.412723
O O14 0.243860 0.933859 0.330769
O O15 0.000000 0.940697 0.388950
O O16 0.267590 0.000000 0.398994
O O17 0.500000 0.659891 0.057055
O O18 0.260803 0.637503 0.000000
O O19 0.500000 0.925184 0.275399
O O20 0.500000 0.814278 0.160039
#
# Coordination Sequence:
#
# PCOD9523088 Si02
#       8
#    16  16  16  16  16   4  16  16
#     4  12  25  43  67  91 124 167 208 262 313 359
#     4  11  22  35  56  84 119 160 200 249 309 374
#     4  10  21  36  58  90 125 160 199 244 305 379
#     4  10  22  37  54  78 107 150 207 263 322 376
#     4   9  18  35  57  81 112 151 198 255 318 383
#     4  12  26  48  64  94 125 162 223 256 302 368
#     4  12  24  39  55  82 120 158 210 261 312 375
#     4  11  22  39  61  92 128 161 207 256 306 379
#
# _framework density 20.265431
#
# number of rings (size 3 to 8) (size 9 to 14) (size 15 to 20)
#    0.000    1.241    2.759    3.517    0.966    6.897 
#    0.000    1.379    0.000    0.000    0.000    3.862 
#    0.000    2.207    0.000    0.000    0.000    0.000 
#
# Total GULP energy -323699.490094 kJ/mol
# GULP energy per Si atom -5581.025691 kJ/mol
# Density = 2.021931 g / cm^3
# Si number density = 20.265431 Si / 1000 Ang^3
#
#
#
# Elastic Constant Matrix: (Units=GPa)
#
#
# Indices 1 2 3 4 5 6 
#
# 1 84.9618 8.4192 -1.9464 0.0000 0.0000 0.0000
# 2 8.4192 36.3669 -11.2005 0.0000 0.0000 0.0000
# 3 -1.9464 -11.2005 68.6834 0.0000 0.0000 0.0000
# 4 0.0000 0.0000 0.0000 34.0694 0.0000 0.0000
# 5 0.0000 0.0000 0.0000 0.0000 18.5043 0.0000
# 6 0.0000 0.0000 0.0000 0.0000 0.0000 12.8239
#
#
#
# Elastic Compliance Matrix: (Units=1/GPa)
#
#
# Indices 1 2 3 4 5 6 
#
# 1 0.012047 -0.002826 -0.000119 0.000000 0.000000 0.000000
# 2 -0.002826 0.029614 0.004749 0.000000 0.000000 0.000000
# 3 -0.000119 0.004749 0.015331 0.000000 0.000000 0.000000
# 4 0.000000 0.000000 0.000000 0.029352 0.000000 0.000000
# 5 0.000000 0.000000 0.000000 0.000000 0.054042 0.000000
# 6 0.000000 0.000000 0.000000 0.000000 0.000000 0.077979
#
#
# Mechanical properties :
#
#
# Convention : Reuss Voigt Hill
#
# Bulk Modulus (GPa) = 16.50153 20.06187 18.28170
# Shear Modulus (GPa) = 21.28046 26.06217 23.67132
#
# Velocity S-wave (km/s) = 3.24402 3.59003 3.42140
# Velocity P-wave (km/s) = 4.71083 5.20629 4.96475
#
# Compressibility (1/GPa) = 0.06060045
#
# Stress axis : x y z
#
# Youngs Moduli (GPa) = 83.00630 33.76733 65.22877
#
# Poissons Ratio (x) = 0.09542 0.00779
# Poissons Ratio (y) = 0.23456 -0.30979
# Poissons Ratio (z) = 0.00991 -0.16037
#
# Static dielectric constant tensor:
#      x y z
#    x 1.734510 0.000000 0.000000 
#    y 0.000000 1.729850 0.000000 
#    z 0.000000 0.000000 1.720560 
# 
# From -- ./inp_files/63630.got.cif
#   From: 2010.05.17/outbox.cif.g08.bks.cpg/sg71_32_cif.got.tgz:63630.got - 2010.06.03 16:22:01.
