data_PCOD9523855
_publ_section_title
;
Structure prediction by ZEFSAII (Michael W. Deem and Ramdas Pophale) SiO2 
 PCOD9523855
Probable space group: I M M M
;
_chemical_formula_sum "Si O2"
_cell_formula_units_Z 72
_cell_length_a 27.573995
_cell_length_b 14.764767
_cell_length_c 9.724185
_cell_angle_alpha 90.000000
_cell_angle_beta 90.000000
_cell_angle_gamma 90.000000
_cell_volume 3958.945315
_symmetry_space_group_name_H-M "I M M M"
_symmetry_group_IT_number 71
_symmetry_cell_setting 'orthorhombic'
loop_
_space_group_symop_operation_xyz
x,y,z
-x,-y,z
x,-y,-z
-x,y,-z
-x,-y,-z
x,y,-z
-x,y,z
x,-y,z
1/2+x,1/2+y,1/2+z
1/2-x,1/2-y,1/2+z
1/2+x,1/2-y,1/2-z
1/2-x,1/2+y,1/2-z
1/2-x,1/2-y,1/2-z
1/2+x,1/2+y,1/2-z
1/2-x,1/2+y,1/2+z
1/2+x,1/2-y,1/2+z
loop_
_atom_site_type_symbol
_atom_site_label
_atom_site_fract_x
_atom_site_fract_y
_atom_site_fract_z
Si Si1 0.442385 0.108126 0.500000
Si Si2 0.944900 0.000000 0.664906
Si Si3 0.054035 0.393388 0.500000
Si Si4 0.380073 0.161949 0.252433
Si Si5 0.140649 0.136396 0.333098
Si Si6 0.792040 0.000000 0.831099
Si Si7 0.191837 0.500000 0.165868
O O1 0.500000 0.111077 0.500000
O O2 0.418675 0.159256 0.373895
O O3 0.428688 0.000000 0.500000
O O4 0.911127 0.912849 0.697053
O O5 0.949153 0.000000 0.500000
O O6 0.000000 0.000000 0.721161
O O7 0.047639 0.500000 0.500000
O O8 0.087110 0.369301 0.627114
O O9 0.000000 0.351053 0.500000
O O10 0.359918 0.259701 0.212191
O O11 0.339394 0.088967 0.294687
O O12 0.149332 0.127343 0.500000
O O13 0.179528 0.084383 0.238602
O O14 0.738892 0.000000 0.763194
O O15 0.792304 0.000000 0.000000
O O16 0.201830 0.500000 0.000000
#
# Coordination Sequence:
#
# PCOD9523855 Si02
#       7
#     8   8   8  16  16   8   8
#     4  11  22  40  60  88 134 184 220 253 312 377
#     4   8  16  34  60  87 119 162 209 252 298 362
#     4  11  22  36  58  94 138 176 212 259 308 371
#     4  12  22  39  64  94 131 173 216 262 316 379
#     4  10  22  42  65  93 133 168 207 261 323 379
#     4  11  27  45  72  95 118 162 210 271 330 385
#     4  12  25  45  67  91 129 166 216 266 327 389
#
# _framework density 18.186662999999999
#
# number of rings (size 3 to 8) (size 9 to 14) (size 15 to 20)
#    0.000    1.222    4.444    2.333    3.111    4.444 
#    0.000    0.000    0.000    1.333    0.000    0.000 
#    0.000    0.000    0.000    0.000    0.000    0.000 
#
# Total GULP energy -200655.653568 kJ/mol
# GULP energy per Si atom -5573.768155 kJ/mol
# Density = 1.814527 g / cm^3
# Si number density = 18.186663 Si / 1000 Ang^3
#
#
#
# Elastic Constant Matrix: (Units=GPa)
#
#
# Indices 1 2 3 4 5 6 
#
# 1 133.9758 53.5292 67.4120 0.0000 0.0000 0.0000
# 2 53.5292 132.0117 51.5183 0.0000 0.0000 0.0000
# 3 67.4120 51.5183 179.5691 0.0000 0.0000 0.0000
# 4 0.0000 0.0000 0.0000 36.2830 0.0000 0.0000
# 5 0.0000 0.0000 0.0000 0.0000 36.0611 0.0000
# 6 0.0000 0.0000 0.0000 0.0000 0.0000 10.0057
#
#
#
# Elastic Compliance Matrix: (Units=1/GPa)
#
#
# Indices 1 2 3 4 5 6 
#
# 1 0.010132 -0.002955 -0.002956 0.000000 0.000000 0.000000
# 2 -0.002955 0.009392 -0.001585 0.000000 0.000000 0.000000
# 3 -0.002956 -0.001585 0.007133 0.000000 0.000000 0.000000
# 4 0.000000 0.000000 0.000000 0.027561 0.000000 0.000000
# 5 0.000000 0.000000 0.000000 0.000000 0.027731 0.000000
# 6 0.000000 0.000000 0.000000 0.000000 0.000000 0.099943
#
#
# Mechanical properties :
#
#
# Convention : Reuss Voigt Hill
#
# Bulk Modulus (GPa) = 85.72478 87.83062 86.77770
# Shear Modulus (GPa) = 24.90385 34.67644 29.79015
#
# Velocity S-wave (km/s) = 3.70448 4.37131 4.05164
# Velocity P-wave (km/s) = 8.09543 8.59515 8.34903
#
# Compressibility (1/GPa) = 0.01166524
#
# Stress axis : x y z
#
# Youngs Moduli (GPa) = 98.69806 106.47482 140.18633
#
# Poissons Ratio (x) = 0.31461 0.41437
# Poissons Ratio (y) = 0.29164 0.22223
# Poissons Ratio (z) = 0.29174 0.16879
#
# Static dielectric constant tensor:
#      x y z
#    x 1.650210 0.000000 0.000000 
#    y 0.000000 1.409040 0.000000 
#    z 0.000000 0.000000 1.547640 
# 
# From -- ./inp_files/14401.got.cif
#   From: 2010.05.17/outbox.cif.g08.bks.cpg/sg71_8_cif.got.tgz:14401.got - 2010.06.03 16:22:01.
