data_PCOD9523370
_publ_section_title
;
Structure prediction by ZEFSAII (Michael W. Deem and Ramdas Pophale) SiO2 
 PCOD9523370
Probable space group: I M M M
;
_chemical_formula_sum "Si O2"
_cell_formula_units_Z 88
_cell_length_a 29.437277
_cell_length_b 8.961309
_cell_length_c 17.420949
_cell_angle_alpha 90.000000
_cell_angle_beta 90.000000
_cell_angle_gamma 90.000000
_cell_volume 4595.585988
_symmetry_space_group_name_H-M "I M M M"
_symmetry_group_IT_number 71
_symmetry_cell_setting 'orthorhombic'
loop_
_space_group_symop_operation_xyz
x,y,z
-x,-y,z
x,-y,-z
-x,y,-z
-x,-y,-z
x,y,-z
-x,y,z
x,-y,z
1/2+x,1/2+y,1/2+z
1/2-x,1/2-y,1/2+z
1/2+x,1/2-y,1/2-z
1/2-x,1/2+y,1/2-z
1/2-x,1/2-y,1/2-z
1/2+x,1/2+y,1/2-z
1/2-x,1/2+y,1/2+z
1/2+x,1/2-y,1/2+z
loop_
_atom_site_type_symbol
_atom_site_label
_atom_site_fract_x
_atom_site_fract_y
_atom_site_fract_z
Si Si1 0.947143 0.171029 0.661112
Si Si2 0.677287 0.829905 0.000000
Si Si3 0.069005 0.670884 0.500000
Si Si4 0.411297 0.820818 0.688045
Si Si5 0.500000 0.181516 0.589063
Si Si6 0.184682 0.822022 0.186653
Si Si7 0.777596 0.177440 0.356274
O O1 0.944854 0.243903 0.577235
O O2 0.921101 0.264144 0.725610
O O3 0.000000 0.168979 0.684069
O O4 0.930233 0.000000 0.658706
O O5 0.623262 0.833487 0.000000
O O6 0.694176 0.744441 0.074578
O O7 0.694484 0.000000 0.000000
O O8 0.052356 0.500000 0.500000
O O9 0.454123 0.773877 0.634672
O O10 0.363147 0.750876 0.664248
O O11 0.408615 0.000000 0.686918
O O12 0.500000 0.230601 0.500000
O O13 0.500000 0.000000 0.588932
O O14 0.196504 0.790385 0.276261
O O15 0.227983 0.752284 0.144078
O O16 0.182957 0.000000 0.176430
O O17 0.772793 0.000000 0.362552
#
# Coordination Sequence:
#
# PCOD9523370 Si02
#       7
#    16   8   8  16   8  16  16
#     4  11  23  38  57  83 120 160 200 247 299 350
#     4  11  23  38  56  83 118 153 189 242 296 343
#     4  11  24  38  57  86 120 160 205 245 288 347
#     4  11  21  37  63  90 117 154 201 247 298 362
#     4   9  20  40  63  88 117 150 193 247 300 353
#     4  10  21  38  61  88 119 153 193 243 297 352
#     4  10  21  38  60  85 115 155 198 239 287 352
#
# _framework density 19.148810000000001
#
# number of rings (size 3 to 8) (size 9 to 14) (size 15 to 20)
#    0.000    1.545    0.909    4.091    0.000    8.727 
#    1.636    0.000    0.000    3.818    0.000    0.000 
#    0.000    0.000    0.000    0.000    0.000    0.000 
#
# Total GULP energy -245884.561311 kJ/mol
# GULP energy per Si atom -5588.285484 kJ/mol
# Density = 1.910523 g / cm^3
# Si number density = 19.148810 Si / 1000 Ang^3
#
#
#
# Elastic Constant Matrix: (Units=GPa)
#
#
# Indices 1 2 3 4 5 6 
#
# 1 140.3880 46.0140 28.3872 0.0000 0.0000 0.0000
# 2 46.0140 73.8490 22.5110 0.0000 0.0000 0.0000
# 3 28.3872 22.5110 56.9750 0.0000 0.0000 0.0000
# 4 0.0000 0.0000 0.0000 43.5960 0.0000 0.0000
# 5 0.0000 0.0000 0.0000 0.0000 27.2812 0.0000
# 6 0.0000 0.0000 0.0000 0.0000 0.0000 35.8024
#
#
#
# Elastic Compliance Matrix: (Units=1/GPa)
#
#
# Indices 1 2 3 4 5 6 
#
# 1 0.009294 -0.004979 -0.002663 0.000000 0.000000 0.000000
# 2 -0.004979 0.018063 -0.004656 0.000000 0.000000 0.000000
# 3 -0.002663 -0.004656 0.020718 0.000000 0.000000 0.000000
# 4 0.000000 0.000000 0.000000 0.022938 0.000000 0.000000
# 5 0.000000 0.000000 0.000000 0.000000 0.036655 0.000000
# 6 0.000000 0.000000 0.000000 0.000000 0.000000 0.027931
#
#
# Mechanical properties :
#
#
# Convention : Reuss Voigt Hill
#
# Bulk Modulus (GPa) = 42.59274 51.67071 47.13173
# Shear Modulus (GPa) = 29.75828 32.95591 31.35710
#
# Velocity S-wave (km/s) = 3.94643 4.15305 4.05105
# Velocity P-wave (km/s) = 6.56178 7.07385 6.82262
#
# Compressibility (1/GPa) = 0.02347818
#
# Stress axis : x y z
#
# Youngs Moduli (GPa) = 107.60202 55.36308 48.26706
#
# Poissons Ratio (x) = 0.27564 0.12855
# Poissons Ratio (y) = 0.53573 0.22473
# Poissons Ratio (z) = 0.28657 0.25777
#
# Static dielectric constant tensor:
#      x y z
#    x 1.659930 0.000000 0.000000 
#    y 0.000000 1.649210 0.000000 
#    z 0.000000 0.000000 1.664150 
# 
# From -- ./inp_files/49271.got.cif
#   From: 2010.05.17/outbox.cif.g08.bks.cpg/sg71_25_cif.got.tgz:49271.got - 2010.06.03 16:22:01.
