data_PCOD9523658
_publ_section_title
;
Structure prediction by ZEFSAII (Michael W. Deem and Ramdas Pophale) SiO2 
 PCOD9523658
Probable space group: I M M M
;
_chemical_formula_sum "Si O2"
_cell_formula_units_Z 88
_cell_length_a 7.734605
_cell_length_b 15.150527
_cell_length_c 33.751096
_cell_angle_alpha 90.000000
_cell_angle_beta 90.000000
_cell_angle_gamma 90.000000
_cell_volume 3955.066222
_symmetry_space_group_name_H-M "I M M M"
_symmetry_group_IT_number 71
_symmetry_cell_setting 'orthorhombic'
loop_
_space_group_symop_operation_xyz
x,y,z
-x,-y,z
x,-y,-z
-x,y,-z
-x,-y,-z
x,y,-z
-x,y,z
x,-y,z
1/2+x,1/2+y,1/2+z
1/2-x,1/2-y,1/2+z
1/2+x,1/2-y,1/2-z
1/2-x,1/2+y,1/2-z
1/2-x,1/2-y,1/2-z
1/2+x,1/2+y,1/2-z
1/2-x,1/2+y,1/2+z
1/2+x,1/2-y,1/2+z
loop_
_atom_site_type_symbol
_atom_site_label
_atom_site_fract_x
_atom_site_fract_y
_atom_site_fract_z
Si Si1 0.802613 0.682154 0.420477
Si Si2 0.304260 0.103209 0.630075
Si Si3 0.801619 0.355577 0.956487
Si Si4 0.500000 0.608925 0.814525
Si Si5 0.794258 0.606174 0.337222
Si Si6 0.000000 0.106815 0.775857
Si Si7 0.803914 0.000000 0.953197
O O1 0.701215 0.751090 0.447459
O O2 0.743673 0.664177 0.375544
O O3 0.792378 0.586732 0.439598
O O4 0.000000 0.713507 0.419412
O O5 0.500000 0.140891 0.630846
O O6 0.231242 0.108682 0.585172
O O7 0.168587 0.140191 0.661420
O O8 0.320053 0.000000 0.639319
O O9 0.000000 0.387023 0.957912
O O10 0.724383 0.373904 0.000000
O O11 0.500000 0.500000 0.815152
O O12 0.500000 0.639033 0.769207
O O13 0.769468 0.500000 0.345630
O O14 0.671036 0.630266 0.300776
O O15 0.000000 0.617670 0.330103
O O16 0.000000 0.000000 0.773525
O O17 0.000000 0.000000 0.936681
O O18 0.814815 0.000000 0.000000
#
# Coordination Sequence:
#
# PCOD9523658 Si02
#       7
#    16  16  16   8  16   8   8
#     4  11  22  35  53  78 110 151 194 238 285 335
#     4   9  19  37  61  86 114 150 185 230 288 347
#     4  10  22  38  56  83 113 147 192 235 282 342
#     4   9  18  34  57  90 117 139 184 228 283 352
#     4   9  18  32  50  78 109 143 192 233 276 328
#     4   9  18  30  54  85 112 145 178 234 288 334
#     4  11  23  35  51  75 107 151 197 243 285 331
#
# _framework density 22.249942999999998
#
# number of rings (size 3 to 8) (size 9 to 14) (size 15 to 20)
#    0.000    2.273    0.909    1.364    3.818    4.364 
#    0.000    5.455    0.000    2.727    0.000    0.000 
#    0.000    0.000    0.000    0.000    0.000    0.000 
#
# Total GULP energy -245589.369679 kJ/mol
# GULP energy per Si atom -5581.576584 kJ/mol
# Density = 2.219930 g / cm^3
# Si number density = 22.249943 Si / 1000 Ang^3
#
#
#
# Elastic Constant Matrix: (Units=GPa)
#
#
# Indices 1 2 3 4 5 6 
#
# 1 91.7645 6.1404 68.4374 0.0000 0.0000 0.0000
# 2 6.1404 36.1704 -8.7304 0.0000 0.0000 0.0000
# 3 68.4374 -8.7304 177.4574 0.0000 0.0000 0.0000
# 4 0.0000 0.0000 0.0000 19.7096 0.0000 0.0000
# 5 0.0000 0.0000 0.0000 0.0000 67.5822 0.0000
# 6 0.0000 0.0000 0.0000 0.0000 0.0000 14.6959
#
#
#
# Elastic Compliance Matrix: (Units=1/GPa)
#
#
# Indices 1 2 3 4 5 6 
#
# 1 0.015913 -0.004233 -0.006345 0.000000 0.000000 0.000000
# 2 -0.004233 0.029105 0.003064 0.000000 0.000000 0.000000
# 3 -0.006345 0.003064 0.008233 0.000000 0.000000 0.000000
# 4 0.000000 0.000000 0.000000 0.050737 0.000000 0.000000
# 5 0.000000 0.000000 0.000000 0.000000 0.014797 0.000000
# 6 0.000000 0.000000 0.000000 0.000000 0.000000 0.068046
#
#
# Mechanical properties :
#
#
# Convention : Reuss Voigt Hill
#
# Bulk Modulus (GPa) = 26.16189 48.56522 37.36356
# Shear Modulus (GPa) = 23.29923 36.36720 29.83322
#
# Velocity S-wave (km/s) = 3.23949 4.04726 3.66570
# Velocity P-wave (km/s) = 5.07702 6.61173 5.89454
#
# Compressibility (1/GPa) = 0.03822353
#
# Stress axis : x y z
#
# Youngs Moduli (GPa) = 62.84227 34.35819 121.46332
#
# Poissons Ratio (x) = 0.14544 0.77070
# Poissons Ratio (y) = 0.26601 -0.37220
# Poissons Ratio (z) = 0.39874 -0.10528
#
# Static dielectric constant tensor:
#      x y z
#    x 1.854210 0.000000 0.000000 
#    y 0.000000 1.855110 0.000000 
#    z 0.000000 0.000000 1.802030 
# 
# From -- ./inp_files/68092.got.cif
#   From: 2010.05.17/outbox.cif.g08.bks.cpg/sg71_35_cif.got.tgz:68092.got - 2010.06.03 16:22:01.
