data_PCOD9523270
_publ_section_title
;
Structure prediction by ZEFSAII (Michael W. Deem and Ramdas Pophale) SiO2 
 PCOD9523270
Probable space group: I M M M
;
_chemical_formula_sum "Si O2"
_cell_formula_units_Z 72
_cell_length_a 9.685467
_cell_length_b 13.733894
_cell_length_c 27.622657
_cell_angle_alpha 90.000000
_cell_angle_beta 90.000000
_cell_angle_gamma 90.000000
_cell_volume 3674.343104
_symmetry_space_group_name_H-M "I M M M"
_symmetry_group_IT_number 71
_symmetry_cell_setting 'orthorhombic'
loop_
_space_group_symop_operation_xyz
x,y,z
-x,-y,z
x,-y,-z
-x,y,-z
-x,-y,-z
x,y,-z
-x,y,z
x,-y,z
1/2+x,1/2+y,1/2+z
1/2-x,1/2-y,1/2+z
1/2+x,1/2-y,1/2-z
1/2-x,1/2+y,1/2-z
1/2-x,1/2-y,1/2-z
1/2+x,1/2+y,1/2-z
1/2-x,1/2+y,1/2+z
1/2+x,1/2-y,1/2+z
loop_
_atom_site_type_symbol
_atom_site_label
_atom_site_fract_x
_atom_site_fract_y
_atom_site_fract_z
Si Si1 0.833533 0.745544 0.700008
Si Si2 0.159537 0.614965 0.132319
Si Si3 0.851324 0.801539 0.443097
Si Si4 0.500000 0.615522 0.444488
Si Si5 0.218170 0.385623 0.387776
O O1 0.750000 0.750000 0.750000
O O2 0.764761 0.831358 0.668365
O O3 0.800873 0.649219 0.667616
O O4 0.000000 0.753893 0.705560
O O5 0.161672 0.500000 0.139996
O O6 0.223958 0.642031 0.080459
O O7 0.000000 0.648200 0.137493
O O8 0.834083 0.791677 0.500000
O O9 0.860759 0.694615 0.419285
O O10 0.000000 0.850934 0.433130
O O11 0.500000 0.500000 0.451891
O O12 0.500000 0.657928 0.500000
O O13 0.630878 0.633468 0.410449
O O14 0.184256 0.500000 0.393444
#
# Coordination Sequence:
#
# PCOD9523270 Si02
#       5
#    16  16  16   8  16
#     4  11  25  42  64  92 122 162 208 260 322 378
#     4  10  22  41  64  88 116 155 204 258 313 370
#     4  10  22  37  56  87 124 163 204 249 307 369
#     4   9  18  32  54  88 125 163 205 245 295 358
#     4  10  21  37  59  88 125 163 204 252 301 368
#
# _framework density 19.59534
#
# number of rings (size 3 to 8) (size 9 to 14) (size 15 to 20)
#    0.000    1.889    0.000    4.000    7.778    6.667 
#    0.000    3.333    0.000    0.000    0.000    0.000 
#    0.000    0.000    0.000    0.000    0.000    0.000 
#
# Total GULP energy -200547.540283 kJ/mol
# GULP energy per Si atom -5570.765008 kJ/mol
# Density = 1.955074 g / cm^3
# Si number density = 19.595340 Si / 1000 Ang^3
#
#
#
# Elastic Constant Matrix: (Units=GPa)
#
#
# Indices 1 2 3 4 5 6 
#
# 1 179.3689 29.3144 62.9700 0.0000 0.0000 0.0000
# 2 29.3144 66.4592 7.0559 0.0000 0.0000 0.0000
# 3 62.9700 7.0559 121.3351 0.0000 0.0000 0.0000
# 4 0.0000 0.0000 0.0000 7.3214 0.0000 0.0000
# 5 0.0000 0.0000 0.0000 0.0000 35.6551 0.0000
# 6 0.0000 0.0000 0.0000 0.0000 0.0000 6.7325
#
#
#
# Elastic Compliance Matrix: (Units=1/GPa)
#
#
# Indices 1 2 3 4 5 6 
#
# 1 0.007314 -0.002841 -0.003631 0.000000 0.000000 0.000000
# 2 -0.002841 0.016244 0.000530 0.000000 0.000000 0.000000
# 3 -0.003631 0.000530 0.010095 0.000000 0.000000 0.000000
# 4 0.000000 0.000000 0.000000 0.136587 0.000000 0.000000
# 5 0.000000 0.000000 0.000000 0.000000 0.028046 0.000000
# 6 0.000000 0.000000 0.000000 0.000000 0.000000 0.148533
#
#
# Mechanical properties :
#
#
# Convention : Reuss Voigt Hill
#
# Bulk Modulus (GPa) = 45.93615 62.87155 54.40385
# Shear Modulus (GPa) = 13.66278 27.79665 20.72972
#
# Velocity S-wave (km/s) = 2.64341 3.77043 3.25605
# Velocity P-wave (km/s) = 5.72801 7.14909 6.47764
#
# Compressibility (1/GPa) = 0.02176935
#
# Stress axis : x y z
#
# Youngs Moduli (GPa) = 136.72588 61.56283 99.05887
#
# Poissons Ratio (x) = 0.17488 0.35964
# Poissons Ratio (y) = 0.38839 -0.05246
# Poissons Ratio (z) = 0.49639 -0.03260
#
# Static dielectric constant tensor:
#      x y z
#    x 1.763470 0.000000 0.000000 
#    y 0.000000 1.689960 0.000000 
#    z 0.000000 0.000000 1.737210 
# 
# From -- ./inp_files/62866.got.cif
#   From: 2010.05.17/outbox.cif.g08.bks.cpg/sg71_32_cif.got.tgz:62866.got - 2010.06.03 16:22:01.
