data_PCOD9523510
_publ_section_title
;
Structure prediction by ZEFSAII (Michael W. Deem and Ramdas Pophale) SiO2 
 PCOD9523510
Probable space group: I M M M
;
_chemical_formula_sum "Si O2"
_cell_formula_units_Z 60
_cell_length_a 22.380650
_cell_length_b 10.611498
_cell_length_c 13.039037
_cell_angle_alpha 90.000000
_cell_angle_beta 90.000000
_cell_angle_gamma 90.000000
_cell_volume 3096.669879
_symmetry_space_group_name_H-M "I M M M"
_symmetry_group_IT_number 71
_symmetry_cell_setting 'orthorhombic'
loop_
_space_group_symop_operation_xyz
x,y,z
-x,-y,z
x,-y,-z
-x,y,-z
-x,-y,-z
x,y,-z
-x,y,z
x,-y,z
1/2+x,1/2+y,1/2+z
1/2-x,1/2-y,1/2+z
1/2+x,1/2-y,1/2-z
1/2-x,1/2+y,1/2-z
1/2-x,1/2-y,1/2-z
1/2+x,1/2+y,1/2-z
1/2-x,1/2+y,1/2+z
1/2+x,1/2-y,1/2+z
loop_
_atom_site_type_symbol
_atom_site_label
_atom_site_fract_x
_atom_site_fract_y
_atom_site_fract_z
Si Si1 0.654685 0.254537 0.387520
Si Si2 0.659451 0.000000 0.000000
Si Si3 0.231716 0.500000 0.113694
Si Si4 0.929526 0.853981 0.280044
Si Si5 0.267376 0.500000 0.656389
Si Si6 0.570727 0.236586 0.000000
O O1 0.625402 0.260640 0.500000
O O2 0.691535 0.125571 0.381774
O O3 0.608264 0.267992 0.295848
O O4 0.699133 0.373453 0.378512
O O5 0.616140 0.120451 0.000000
O O6 0.702939 0.000000 0.099868
O O7 0.267416 0.500000 0.219818
O O8 0.261853 0.500000 0.000000
O O9 0.918820 0.817307 0.397711
O O10 0.000000 0.839088 0.260711
O O11 0.913989 0.000000 0.261624
O O12 0.500000 0.198402 0.000000
#
# Coordination Sequence:
#
# PCOD9523510 Si02
#       6
#    16   4   8  16   8   8
#     4  11  22  42  60  88 125 160 201 266 301 360
#     4  12  23  38  68  90 121 174 204 250 322 362
#     4  10  24  40  60  83 121 162 201 251 313 363
#     4  10  21  39  64  91 122 163 206 256 314 368
#     4  12  22  41  61  87 124 159 212 252 297 371
#     4  10  22  40  61  93 128 157 207 261 308 372
#
# _framework density 19.375653
#
# number of rings (size 3 to 8) (size 9 to 14) (size 15 to 20)
#    0.000    1.333    2.667    3.000    0.000    2.133 
#    2.400    3.333    0.000    2.400    0.000    0.000 
#    0.000    0.000    0.000    0.000    0.000    0.000 
#
# Total GULP energy -167606.736038 kJ/mol
# GULP energy per Si atom -5586.891201 kJ/mol
# Density = 1.933155 g / cm^3
# Si number density = 19.375653 Si / 1000 Ang^3
#
#
#
# Elastic Constant Matrix: (Units=GPa)
#
#
# Indices 1 2 3 4 5 6 
#
# 1 36.6789 13.7326 29.4163 0.0000 0.0000 0.0000
# 2 13.7326 101.4723 7.0282 0.0000 0.0000 0.0000
# 3 29.4163 7.0282 143.5896 0.0000 0.0000 0.0000
# 4 0.0000 0.0000 0.0000 32.4701 0.0000 0.0000
# 5 0.0000 0.0000 0.0000 0.0000 21.4276 0.0000
# 6 0.0000 0.0000 0.0000 0.0000 0.0000 30.2605
#
#
#
# Elastic Compliance Matrix: (Units=1/GPa)
#
#
# Indices 1 2 3 4 5 6 
#
# 1 0.034295 -0.004169 -0.006822 0.000000 0.000000 0.000000
# 2 -0.004169 0.010395 0.000345 0.000000 0.000000 0.000000
# 3 -0.006822 0.000345 0.008345 0.000000 0.000000 0.000000
# 4 0.000000 0.000000 0.000000 0.030798 0.000000 0.000000
# 5 0.000000 0.000000 0.000000 0.000000 0.046669 0.000000
# 6 0.000000 0.000000 0.000000 0.000000 0.000000 0.033046
#
#
# Mechanical properties :
#
#
# Convention : Reuss Voigt Hill
#
# Bulk Modulus (GPa) = 31.50130 42.45501 36.97816
# Shear Modulus (GPa) = 25.58580 32.26921 28.92751
#
# Velocity S-wave (km/s) = 3.63783 4.08542 3.86810
# Velocity P-wave (km/s) = 5.82568 6.64931 6.25107
#
# Compressibility (1/GPa) = 0.03174472
#
# Stress axis : x y z
#
# Youngs Moduli (GPa) = 29.15835 96.19851 119.83300
#
# Poissons Ratio (x) = 0.40103 0.81748
# Poissons Ratio (y) = 0.12156 -0.04137
# Poissons Ratio (z) = 0.19891 -0.03321
#
# Static dielectric constant tensor:
#      x y z
#    x 1.661780 0.000000 0.000000 
#    y 0.000000 1.644270 0.000000 
#    z 0.000000 0.000000 1.688330 
# 
# From -- ./inp_files/19677.got.cif
#   From: 2010.05.17/outbox.cif.g08.bks.cpg/sg71_10_cif.got.tgz:19677.got - 2010.06.03 16:22:01.
