data_PCOD9523409
_publ_section_title
;
Structure prediction by ZEFSAII (Michael W. Deem and Ramdas Pophale) SiO2 
 PCOD9523409
Probable space group: I M M M
;
_chemical_formula_sum "Si O2"
_cell_formula_units_Z 80
_cell_length_a 27.182746
_cell_length_b 17.725754
_cell_length_c 10.003995
_cell_angle_alpha 90.000000
_cell_angle_beta 90.000000
_cell_angle_gamma 90.000000
_cell_volume 4820.271616
_symmetry_space_group_name_H-M "I M M M"
_symmetry_group_IT_number 71
_symmetry_cell_setting 'orthorhombic'
loop_
_space_group_symop_operation_xyz
x,y,z
-x,-y,z
x,-y,-z
-x,y,-z
-x,-y,-z
x,y,-z
-x,y,z
x,-y,z
1/2+x,1/2+y,1/2+z
1/2-x,1/2-y,1/2+z
1/2+x,1/2-y,1/2-z
1/2-x,1/2+y,1/2-z
1/2-x,1/2-y,1/2-z
1/2+x,1/2+y,1/2-z
1/2-x,1/2+y,1/2+z
1/2+x,1/2-y,1/2+z
loop_
_atom_site_type_symbol
_atom_site_label
_atom_site_fract_x
_atom_site_fract_y
_atom_site_fract_z
Si Si1 0.443836 0.331679 0.160185
Si Si2 0.200877 0.240450 0.336392
Si Si3 0.650651 0.418065 0.839067
Si Si4 0.442930 0.089978 0.000000
Si Si5 0.898133 0.677202 0.254914
Si Si6 0.059700 0.591189 0.000000
O O1 0.500000 0.351996 0.184148
O O2 0.405263 0.396446 0.197066
O O3 0.428830 0.255103 0.234412
O O4 0.437666 0.316682 0.000000
O O5 0.205737 0.248545 0.500000
O O6 0.250000 0.250000 0.250000
O O7 0.182524 0.155180 0.306549
O O8 0.158058 0.296606 0.282322
O O9 0.665411 0.500000 0.785167
O O10 0.652258 0.422500 0.000000
O O11 0.415871 0.124079 0.873815
O O12 0.500000 0.114644 0.000000
O O13 0.441912 0.000000 0.000000
O O14 0.913570 0.631138 0.124539
O O15 0.066104 0.500000 0.000000
O O16 0.000000 0.604496 0.000000
#
# Coordination Sequence:
#
# PCOD9523409 Si02
#       6
#    16  16  16   8  16   8
#     4   9  15  25  47  77 105 137 174 213 260 320
#     4  10  21  38  62  84 107 143 188 234 285 337
#     4   8  15  29  48  75 108 136 166 208 261 318
#     4  11  20  32  55  80 109 151 186 225 288 348
#     4  11  20  36  54  79 110 144 190 237 277 340
#     4  11  24  38  53  80 119 157 192 237 294 348
#
# _framework density 16.596577
#
# number of rings (size 3 to 8) (size 9 to 14) (size 15 to 20)
#    0.000    2.200    2.000    3.600    1.400    2.000 
#    0.000    4.000    0.000    0.000    0.000    0.000 
#    0.000    7.600    0.000    0.000    0.000    0.000 
#
# Total GULP energy -222751.878024 kJ/mol
# GULP energy per Si atom -5568.796951 kJ/mol
# Density = 1.655880 g / cm^3
# Si number density = 16.596577 Si / 1000 Ang^3
#
#
#
# Elastic Constant Matrix: (Units=GPa)
#
#
# Indices 1 2 3 4 5 6 
#
# 1 151.9264 71.4081 60.9112 0.0000 0.0000 0.0000
# 2 71.4081 112.8886 51.3126 0.0000 0.0000 0.0000
# 3 60.9112 51.3126 106.8531 0.0000 0.0000 0.0000
# 4 0.0000 0.0000 0.0000 19.0524 0.0000 0.0000
# 5 0.0000 0.0000 0.0000 0.0000 27.9286 0.0000
# 6 0.0000 0.0000 0.0000 0.0000 0.0000 13.0730
#
#
#
# Elastic Compliance Matrix: (Units=1/GPa)
#
#
# Indices 1 2 3 4 5 6 
#
# 1 0.010302 -0.004922 -0.003509 0.000000 0.000000 0.000000
# 2 -0.004922 0.013683 -0.003765 0.000000 0.000000 0.000000
# 3 -0.003509 -0.003765 0.013167 0.000000 0.000000 0.000000
# 4 0.000000 0.000000 0.000000 0.052487 0.000000 0.000000
# 5 0.000000 0.000000 0.000000 0.000000 0.035806 0.000000
# 6 0.000000 0.000000 0.000000 0.000000 0.000000 0.076493
#
#
# Mechanical properties :
#
#
# Convention : Reuss Voigt Hill
#
# Bulk Modulus (GPa) = 78.36914 82.10354 80.23634
# Shear Modulus (GPa) = 21.68404 24.54656 23.11530
#
# Velocity S-wave (km/s) = 3.61853 3.84997 3.73604
# Velocity P-wave (km/s) = 8.04866 8.32710 8.18906
#
# Compressibility (1/GPa) = 0.01276012
#
# Stress axis : x y z
#
# Youngs Moduli (GPa) = 97.06469 73.08373 75.94594
#
# Poissons Ratio (x) = 0.35969 0.26652
# Poissons Ratio (y) = 0.47772 0.28595
# Poissons Ratio (z) = 0.34064 0.27517
#
# Static dielectric constant tensor:
#      x y z
#    x 1.569020 0.000000 0.000000 
#    y 0.000000 1.571030 0.000000 
#    z 0.000000 0.000000 1.517910 
# 
# From -- ./inp_files/14596.got.cif
#   From: 2010.05.17/outbox.cif.g08.bks.cpg/sg71_8_cif.got.tgz:14596.got - 2010.06.03 16:22:01.
