data_PCOD9523382
_publ_section_title
;
Structure prediction by ZEFSAII (Michael W. Deem and Ramdas Pophale) SiO2 
 PCOD9523382
Probable space group: I M M M
;
_chemical_formula_sum "Si O2"
_cell_formula_units_Z 64
_cell_length_a 17.413104
_cell_length_b 9.081494
_cell_length_c 21.409848
_cell_angle_alpha 90.000000
_cell_angle_beta 90.000000
_cell_angle_gamma 90.000000
_cell_volume 3385.689122
_symmetry_space_group_name_H-M "I M M M"
_symmetry_group_IT_number 71
_symmetry_cell_setting 'orthorhombic'
loop_
_space_group_symop_operation_xyz
x,y,z
-x,-y,z
x,-y,-z
-x,y,-z
-x,-y,-z
x,y,-z
-x,y,z
x,-y,z
1/2+x,1/2+y,1/2+z
1/2-x,1/2-y,1/2+z
1/2+x,1/2-y,1/2-z
1/2-x,1/2+y,1/2-z
1/2-x,1/2-y,1/2-z
1/2+x,1/2+y,1/2-z
1/2-x,1/2+y,1/2+z
1/2+x,1/2-y,1/2+z
loop_
_atom_site_type_symbol
_atom_site_label
_atom_site_fract_x
_atom_site_fract_y
_atom_site_fract_z
Si Si1 0.661234 0.322371 0.427052
Si Si2 0.907217 0.666564 0.500000
Si Si3 0.908490 0.828556 0.627284
Si Si4 0.000000 0.331652 0.075444
Si Si5 0.775760 0.675478 0.686254
O O1 0.679349 0.280466 0.500000
O O2 0.654711 0.500000 0.426532
O O3 0.578994 0.252171 0.408668
O O4 0.724014 0.280965 0.374446
O O5 0.874960 0.500000 0.500000
O O6 0.887206 0.758684 0.560656
O O7 0.000000 0.653944 0.500000
O O8 0.861813 0.731606 0.675385
O O9 0.000000 0.817741 0.634748
O O10 0.887221 0.000000 0.630741
O O11 0.000000 0.500000 0.098783
O O12 0.000000 0.336702 0.000000
O O13 0.772103 0.500000 0.690914
O O14 0.750000 0.750000 0.750000
#
# Coordination Sequence:
#
# PCOD9523382 Si02
#       5
#    16   8  16   8  16
#     4   9  19  37  61  87 115 152 194 238 292 351
#     4   9  17  31  55  87 119 152 193 240 289 345
#     4  10  21  38  60  87 120 157 198 245 298 355
#     4   9  17  31  55  89 121 147 184 237 292 347
#     4  11  24  41  61  86 120 158 199 247 299 357
#
# _framework density 18.903093999999999
#
# number of rings (size 3 to 8) (size 9 to 14) (size 15 to 20)
#    0.000    2.250    0.000    2.250    1.750    6.500 
#    2.250    0.000    0.000    0.000    0.000    0.000 
#    0.000    0.000    0.000    0.000    0.000    0.000 
#
# Total GULP energy -178507.298049 kJ/mol
# GULP energy per Si atom -5578.353064 kJ/mol
# Density = 1.886007 g / cm^3
# Si number density = 18.903094 Si / 1000 Ang^3
#
#
#
# Elastic Constant Matrix: (Units=GPa)
#
#
# Indices 1 2 3 4 5 6 
#
# 1 63.8202 43.7273 41.9133 0.0000 0.0000 0.0000
# 2 43.7273 75.9962 46.1328 0.0000 0.0000 0.0000
# 3 41.9133 46.1328 98.5616 0.0000 0.0000 0.0000
# 4 0.0000 0.0000 0.0000 30.3830 0.0000 0.0000
# 5 0.0000 0.0000 0.0000 0.0000 -11.9049 0.0000
# 6 0.0000 0.0000 0.0000 0.0000 0.0000 26.1527
#
#
#
# Elastic Compliance Matrix: (Units=1/GPa)
#
#
# Indices 1 2 3 4 5 6 
#
# 1 0.028319 -0.012550 -0.006169 0.000000 0.000000 0.000000
# 2 -0.012550 0.023943 -0.005870 0.000000 0.000000 0.000000
# 3 -0.006169 -0.005870 0.015517 0.000000 0.000000 0.000000
# 4 0.000000 0.000000 0.000000 0.032913 0.000000 0.000000
# 5 0.000000 0.000000 0.000000 0.000000 -0.083999 0.000000
# 6 0.000000 0.000000 0.000000 0.000000 0.000000 0.038237
#
#
# Mechanical properties :
#
#
# Convention : Reuss Voigt Hill
#
# Bulk Modulus (GPa) = 53.75818 55.76942 54.76380
# Shear Modulus (GPa) = 45.32842 16.03314 30.68078
#
# Velocity S-wave (km/s) = 4.90219 2.91550 4.03309
# Velocity P-wave (km/s) = 7.78090 6.39534 7.12190
#
# Compressibility (1/GPa) = 0.01860182
#
# Stress axis : x y z
#
# Youngs Moduli (GPa) = 35.31234 41.76627 64.44720
#
# Poissons Ratio (x) = 0.52415 0.39754
# Poissons Ratio (y) = 0.44316 0.37830
# Poissons Ratio (z) = 0.21782 0.24516
#
# Static dielectric constant tensor:
#      x y z
#    x 1.700940 0.000000 0.000000 
#    y 0.000000 1.632540 0.000000 
#    z 0.000000 0.000000 1.591270 
# 
# From -- ./inp_files/9555.got.cif
#   From: 2010.05.17/outbox.cif.g08.bks.cpg/sg71_5_cif.got.tgz:9555.got - 2010.06.03 16:22:01.
