data_PCOD9523210
_publ_section_title
;
Structure prediction by ZEFSAII (Michael W. Deem and Ramdas Pophale) SiO2 
 PCOD9523210
Probable space group: I M M M
;
_chemical_formula_sum "Si O2"
_cell_formula_units_Z 88
_cell_length_a 8.852903
_cell_length_b 18.660444
_cell_length_c 28.666789
_cell_angle_alpha 90.000000
_cell_angle_beta 90.000000
_cell_angle_gamma 90.000000
_cell_volume 4735.727762
_symmetry_space_group_name_H-M "I M M M"
_symmetry_group_IT_number 71
_symmetry_cell_setting 'orthorhombic'
loop_
_space_group_symop_operation_xyz
x,y,z
-x,-y,z
x,-y,-z
-x,y,-z
-x,-y,-z
x,y,-z
-x,y,z
x,-y,z
1/2+x,1/2+y,1/2+z
1/2-x,1/2-y,1/2+z
1/2+x,1/2-y,1/2-z
1/2-x,1/2+y,1/2-z
1/2-x,1/2-y,1/2-z
1/2+x,1/2+y,1/2-z
1/2-x,1/2+y,1/2+z
1/2+x,1/2-y,1/2+z
loop_
_atom_site_type_symbol
_atom_site_label
_atom_site_fract_x
_atom_site_fract_y
_atom_site_fract_z
Si Si1 0.820687 0.791726 0.114248
Si Si2 0.820654 0.416486 0.795178
Si Si3 0.180647 0.140677 0.388352
Si Si4 0.679312 0.081342 0.944272
Si Si5 0.816037 0.000000 0.553827
Si Si6 0.179797 0.309581 0.283881
O O1 0.752731 0.715983 0.097124
O O2 0.768936 0.857214 0.082017
O O3 0.755739 0.805758 0.165945
O O4 0.000000 0.786160 0.116218
O O5 0.782208 0.500000 0.797009
O O6 0.730191 0.375329 0.835261
O O7 0.794095 0.383260 0.744296
O O8 0.000000 0.407998 0.804970
O O9 0.000000 0.145971 0.391141
O O10 0.231131 0.072102 0.419023
O O11 0.500000 0.089488 0.934650
O O12 0.722691 0.000000 0.930533
O O13 0.699321 0.087184 0.000000
O O14 0.767040 0.000000 0.500000
O O15 0.000000 0.000000 0.554250
O O16 0.250000 0.250000 0.250000
O O17 0.000000 0.298589 0.288721
#
# Coordination Sequence:
#
# PCOD9523210 Si02
#       6
#    16  16  16  16   8  16
#     4  12  25  39  59  91 129 165 202 251 303 362
#     4  10  21  37  58  83 114 152 194 244 303 365
#     4  11  21  36  60  86 113 156 207 255 304 359
#     4   9  20  42  70  95 120 155 200 251 308 369
#     4   9  20  38  59  87 119 151 197 257 312 359
#     4  11  22  37  58  85 118 159 200 246 299 352
#
# _framework density 18.582148
#
# number of rings (size 3 to 8) (size 9 to 14) (size 15 to 20)
#    0.000    1.545    2.727    3.273    0.000    2.909 
#    0.000    4.545    0.000    3.818    0.000    0.000 
#    0.000    0.000    0.000    0.000    0.000    0.000 
#
# Total GULP energy -245821.434754 kJ/mol
# GULP energy per Si atom -5586.850790 kJ/mol
# Density = 1.853985 g / cm^3
# Si number density = 18.582148 Si / 1000 Ang^3
#
#
#
# Elastic Constant Matrix: (Units=GPa)
#
#
# Indices 1 2 3 4 5 6 
#
# 1 79.3581 69.2194 38.6997 0.0000 0.0000 0.0000
# 2 69.2194 150.4476 54.7808 0.0000 0.0000 0.0000
# 3 38.6997 54.7808 72.2170 0.0000 0.0000 0.0000
# 4 0.0000 0.0000 0.0000 34.4296 0.0000 0.0000
# 5 0.0000 0.0000 0.0000 0.0000 27.7285 0.0000
# 6 0.0000 0.0000 0.0000 0.0000 0.0000 24.6098
#
#
#
# Elastic Compliance Matrix: (Units=1/GPa)
#
#
# Indices 1 2 3 4 5 6 
#
# 1 0.022714 -0.008315 -0.005864 0.000000 0.000000 0.000000
# 2 -0.008315 0.012227 -0.004819 0.000000 0.000000 0.000000
# 3 -0.005864 -0.004819 0.020645 0.000000 0.000000 0.000000
# 4 0.000000 0.000000 0.000000 0.029045 0.000000 0.000000
# 5 0.000000 0.000000 0.000000 0.000000 0.036064 0.000000
# 6 0.000000 0.000000 0.000000 0.000000 0.000000 0.040634
#
#
# Mechanical properties :
#
#
# Convention : Reuss Voigt Hill
#
# Bulk Modulus (GPa) = 56.85343 69.71362 63.28352
# Shear Modulus (GPa) = 24.36773 26.64177 25.50475
#
# Velocity S-wave (km/s) = 3.62519 3.79057 3.70880
# Velocity P-wave (km/s) = 6.94153 7.53364 7.24364
#
# Compressibility (1/GPa) = 0.01758909
#
# Stress axis : x y z
#
# Youngs Moduli (GPa) = 44.02655 81.78460 48.43678
#
# Poissons Ratio (x) = 0.68003 0.28405
# Poissons Ratio (y) = 0.36608 0.23343
# Poissons Ratio (z) = 0.25819 0.39414
#
# Static dielectric constant tensor:
#      x y z
#    x 1.625260 0.000000 0.000000 
#    y 0.000000 1.649910 0.000000 
#    z 0.000000 0.000000 1.616710 
# 
# From -- ./inp_files/8780.got.cif
#   From: 2010.05.17/outbox.cif.g08.bks.cpg/sg71_5_cif.got.tgz:8780.got - 2010.06.03 16:22:01.
