data_PCOD9523504
_publ_section_title
;
Structure prediction by ZEFSAII (Michael W. Deem and Ramdas Pophale) SiO2 
 PCOD9523504
Probable space group: I M M M
;
_chemical_formula_sum "Si O2"
_cell_formula_units_Z 68
_cell_length_a 18.267042
_cell_length_b 16.684066
_cell_length_c 12.839956
_cell_angle_alpha 90.000000
_cell_angle_beta 90.000000
_cell_angle_gamma 90.000000
_cell_volume 3913.214571
_symmetry_space_group_name_H-M "I M M M"
_symmetry_group_IT_number 71
_symmetry_cell_setting 'orthorhombic'
loop_
_space_group_symop_operation_xyz
x,y,z
-x,-y,z
x,-y,-z
-x,y,-z
-x,-y,-z
x,y,-z
-x,y,z
x,-y,z
1/2+x,1/2+y,1/2+z
1/2-x,1/2-y,1/2+z
1/2+x,1/2-y,1/2-z
1/2-x,1/2+y,1/2-z
1/2-x,1/2-y,1/2-z
1/2+x,1/2+y,1/2-z
1/2-x,1/2+y,1/2+z
1/2+x,1/2-y,1/2+z
loop_
_atom_site_type_symbol
_atom_site_label
_atom_site_fract_x
_atom_site_fract_y
_atom_site_fract_z
Si Si1 0.365613 0.222600 0.717971
Si Si2 0.587882 0.091144 0.883542
Si Si3 0.500000 0.675041 0.375089
Si Si4 0.854816 0.000000 0.620865
Si Si5 0.000000 0.000000 0.235592
Si Si6 0.721103 0.668715 0.118644
O O1 0.392310 0.150172 0.790985
O O2 0.429875 0.274103 0.665196
O O3 0.323314 0.280357 0.797718
O O4 0.306357 0.186953 0.637958
O O5 0.500000 0.088670 0.887893
O O6 0.614244 0.000000 0.865928
O O7 0.613435 0.116455 0.000000
O O8 0.500000 0.670991 0.500000
O O9 0.500000 0.584013 0.329040
O O10 0.804190 0.077655 0.636068
O O11 0.879851 0.000000 0.500000
O O12 0.926225 0.000000 0.694029
O O13 0.701748 0.690111 0.000000
#
# Coordination Sequence:
#
# PCOD9523504 Si02
#       6
#    16  16   8   8   4  16
#     4  11  21  38  61  83 119 158 197 245 294 354
#     4   9  18  33  55  85 116 146 186 236 288 342
#     4  12  25  41  62  89 121 157 202 249 297 366
#     4  10  21  39  63  93 123 151 196 250 300 358
#     4  12  22  44  64  92 116 162 190 250 312 354
#     4  10  22  38  58  85 118 156 197 242 299 357
#
# _framework density 17.377016999999999
#
# number of rings (size 3 to 8) (size 9 to 14) (size 15 to 20)
#    0.000    1.647    3.529    2.471    1.647    0.000 
#    0.000    0.000    0.000    0.706    0.000    0.000 
#    0.000    0.000    0.000    0.000    0.000    0.000 
#
# Total GULP energy -189558.542273 kJ/mol
# GULP energy per Si atom -5575.251243 kJ/mol
# Density = 1.733747 g / cm^3
# Si number density = 17.377017 Si / 1000 Ang^3
#
#
#
# Elastic Constant Matrix: (Units=GPa)
#
#
# Indices 1 2 3 4 5 6 
#
# 1 108.6362 56.9800 53.2798 0.0000 0.0000 0.0000
# 2 56.9800 124.5585 71.3944 0.0000 0.0000 0.0000
# 3 53.2798 71.3944 114.5526 0.0000 0.0000 0.0000
# 4 0.0000 0.0000 0.0000 27.1908 0.0000 0.0000
# 5 0.0000 0.0000 0.0000 0.0000 26.2018 0.0000
# 6 0.0000 0.0000 0.0000 0.0000 0.0000 20.7410
#
#
#
# Elastic Compliance Matrix: (Units=1/GPa)
#
#
# Indices 1 2 3 4 5 6 
#
# 1 0.013022 -0.003867 -0.003647 0.000000 0.000000 0.000000
# 2 -0.003867 0.013638 -0.006702 0.000000 0.000000 0.000000
# 3 -0.003647 -0.006702 0.014603 0.000000 0.000000 0.000000
# 4 0.000000 0.000000 0.000000 0.036777 0.000000 0.000000
# 5 0.000000 0.000000 0.000000 0.000000 0.038165 0.000000
# 6 0.000000 0.000000 0.000000 0.000000 0.000000 0.048214
#
#
# Mechanical properties :
#
#
# Convention : Reuss Voigt Hill
#
# Bulk Modulus (GPa) = 77.92634 79.00618 78.46626
# Shear Modulus (GPa) = 25.36449 25.89959 25.63204
#
# Velocity S-wave (km/s) = 3.82469 3.86482 3.84481
# Velocity P-wave (km/s) = 8.02784 8.09200 8.05998
#
# Compressibility (1/GPa) = 0.01283263
#
# Stress axis : x y z
#
# Youngs Moduli (GPa) = 76.79584 73.32222 68.48139
#
# Poissons Ratio (x) = 0.28351 0.24973
# Poissons Ratio (y) = 0.29694 0.45894
# Poissons Ratio (z) = 0.28005 0.49138
#
# Static dielectric constant tensor:
#      x y z
#    x 1.581960 0.000000 0.000000 
#    y 0.000000 1.589740 0.000000 
#    z 0.000000 0.000000 1.581340 
# 
# From -- ./inp_files/23519.got.cif
#   From: 2010.05.17/outbox.cif.g08.bks.cpg/sg71_12_cif.got.tgz:23519.got - 2010.06.03 16:22:01.
