data_PCOD9523196
_publ_section_title
;
Structure prediction by ZEFSAII (Michael W. Deem and Ramdas Pophale) SiO2 
 PCOD9523196
Probable space group: I M M M
;
_chemical_formula_sum "Si O2"
_cell_formula_units_Z 72
_cell_length_a 24.563993
_cell_length_b 7.793883
_cell_length_c 18.253135
_cell_angle_alpha 90.000000
_cell_angle_beta 90.000000
_cell_angle_gamma 90.000000
_cell_volume 3494.542388
_symmetry_space_group_name_H-M "I M M M"
_symmetry_group_IT_number 71
_symmetry_cell_setting 'orthorhombic'
loop_
_space_group_symop_operation_xyz
x,y,z
-x,-y,z
x,-y,-z
-x,y,-z
-x,-y,-z
x,y,-z
-x,y,z
x,-y,z
1/2+x,1/2+y,1/2+z
1/2-x,1/2-y,1/2+z
1/2+x,1/2-y,1/2-z
1/2-x,1/2+y,1/2-z
1/2-x,1/2-y,1/2-z
1/2+x,1/2+y,1/2-z
1/2-x,1/2+y,1/2+z
1/2+x,1/2-y,1/2+z
loop_
_atom_site_type_symbol
_atom_site_label
_atom_site_fract_x
_atom_site_fract_y
_atom_site_fract_z
Si Si1 0.563017 0.789423 0.790306
Si Si2 0.373538 0.795139 0.645246
Si Si3 0.061497 0.794884 0.000000
Si Si4 0.357487 0.203729 0.082554
Si Si5 0.752934 0.294989 0.835747
O O1 0.500000 0.736316 0.790035
O O2 0.594962 0.730828 0.717385
O O3 0.596708 0.729919 0.861334
O O4 0.563365 0.000000 0.789879
O O5 0.407448 0.761426 0.572688
O O6 0.311887 0.728887 0.638219
O O7 0.368875 0.000000 0.655069
O O8 0.000000 0.726799 0.000000
O O9 0.059512 0.000000 0.000000
O O10 0.298587 0.226634 0.119828
O O11 0.366914 0.000000 0.077270
O O12 0.358998 0.275120 0.000000
O O13 0.751219 0.500000 0.843480
O O14 0.750000 0.250000 0.750000
#
# Coordination Sequence:
#
# PCOD9523196 Si02
#       5
#    16  16   8  16  16
#     4   9  17  33  58  85 112 146 191 238 283 337
#     4  10  21  38  60  84 113 153 199 240 284 346
#     4  11  25  41  57  85 123 155 190 241 298 351
#     4  10  21  37  57  86 122 155 191 238 290 339
#     4  11  22  38  61  86 115 148 191 240 290 347
#
# _framework density 20.603555
#
# number of rings (size 3 to 8) (size 9 to 14) (size 15 to 20)
#    0.000    1.889    2.222    1.667    1.556    4.444 
#    0.000    2.222    0.000    0.667    0.000    1.556 
#    0.000    0.000    0.000    0.000    0.000    0.000 
#
# Total GULP energy -201112.422945 kJ/mol
# GULP energy per Si atom -5586.456193 kJ/mol
# Density = 2.055666 g / cm^3
# Si number density = 20.603555 Si / 1000 Ang^3
#
#
#
# Elastic Constant Matrix: (Units=GPa)
#
#
# Indices 1 2 3 4 5 6 
#
# 1 162.9616 -4.1617 69.7322 0.0000 0.0000 0.0000
# 2 -4.1617 22.2997 -7.2666 0.0000 0.0000 0.0000
# 3 69.7322 -7.2666 160.4200 0.0000 0.0000 0.0000
# 4 0.0000 0.0000 0.0000 5.7741 0.0000 0.0000
# 5 0.0000 0.0000 0.0000 0.0000 33.7056 0.0000
# 6 0.0000 0.0000 0.0000 0.0000 0.0000 22.3618
#
#
#
# Elastic Compliance Matrix: (Units=1/GPa)
#
#
# Indices 1 2 3 4 5 6 
#
# 1 0.007541 0.000344 -0.003262 0.000000 0.000000 0.000000
# 2 0.000344 0.045531 0.001913 0.000000 0.000000 0.000000
# 3 -0.003262 0.001913 0.007738 0.000000 0.000000 0.000000
# 4 0.000000 0.000000 0.000000 0.173186 0.000000 0.000000
# 5 0.000000 0.000000 0.000000 0.000000 0.029669 0.000000
# 6 0.000000 0.000000 0.000000 0.000000 0.000000 0.044719
#
#
# Mechanical properties :
#
#
# Convention : Reuss Voigt Hill
#
# Bulk Modulus (GPa) = 17.00677 51.36546 34.18612
# Shear Modulus (GPa) = 15.15171 31.52681 23.33926
#
# Velocity S-wave (km/s) = 2.71476 3.91597 3.36933
# Velocity P-wave (km/s) = 4.25426 6.74025 5.63603
#
# Compressibility (1/GPa) = 0.05880010
#
# Stress axis : x y z
#
# Youngs Moduli (GPa) = 132.60426 21.96294 129.22526
#
# Poissons Ratio (x) = -0.00756 0.42159
# Poissons Ratio (y) = -0.04565 -0.24718
# Poissons Ratio (z) = 0.43262 -0.04201
#
# Static dielectric constant tensor:
#      x y z
#    x 1.723130 0.000000 0.000000 
#    y 0.000000 1.776440 0.000000 
#    z 0.000000 0.000000 1.664310 
# 
# From -- ./inp_files/12179.got.cif
#   From: 2010.05.17/outbox.cif.g08.bks.cpg/sg71_7_cif.got.tgz:12179.got - 2010.06.03 16:22:01.
