data_PCOD9523204
_publ_section_title
;
Structure prediction by ZEFSAII (Michael W. Deem and Ramdas Pophale) SiO2 
 PCOD9523204
Probable space group: I M M M
;
_chemical_formula_sum "Si O2"
_cell_formula_units_Z 90
_cell_length_a 7.826918
_cell_length_b 20.592461
_cell_length_c 25.809333
_cell_angle_alpha 90.000000
_cell_angle_beta 90.000000
_cell_angle_gamma 90.000000
_cell_volume 4159.832246
_symmetry_space_group_name_H-M "I M M M"
_symmetry_group_IT_number 71
_symmetry_cell_setting 'orthorhombic'
loop_
_space_group_symop_operation_xyz
x,y,z
-x,-y,z
x,-y,-z
-x,y,-z
-x,-y,-z
x,y,-z
-x,y,z
x,-y,z
1/2+x,1/2+y,1/2+z
1/2-x,1/2-y,1/2+z
1/2+x,1/2-y,1/2-z
1/2-x,1/2+y,1/2-z
1/2-x,1/2-y,1/2-z
1/2+x,1/2+y,1/2-z
1/2-x,1/2+y,1/2+z
1/2+x,1/2-y,1/2+z
loop_
_atom_site_type_symbol
_atom_site_label
_atom_site_fract_x
_atom_site_fract_y
_atom_site_fract_z
Si Si1 0.201814 0.855121 0.393012
Si Si2 0.706472 0.311473 0.215097
Si Si3 0.203507 0.927263 0.785059
Si Si4 0.500000 0.000000 0.500000
Si Si5 0.206488 0.424741 0.598719
Si Si6 0.802169 0.348089 0.500000
Si Si7 0.692105 0.204851 0.500000
Si Si8 0.200540 0.000000 0.412443
O O1 0.268267 0.813893 0.344311
O O2 0.279967 0.837285 0.448465
O O3 0.000000 0.842019 0.398859
O O4 0.220455 0.932023 0.382215
O O5 0.500000 0.315078 0.212228
O O6 0.750000 0.250000 0.250000
O O7 0.772476 0.374862 0.245179
O O8 0.231085 0.905794 0.844329
O O9 0.000000 0.930990 0.776684
O O10 0.275010 0.000000 0.779686
O O11 0.347381 0.000000 0.455451
O O12 0.255714 0.500000 0.589131
O O13 0.270940 0.378951 0.552571
O O14 0.000000 0.422211 0.600730
O O15 0.799636 0.270558 0.500000
O O16 0.000000 0.369272 0.500000
O O17 0.500000 0.229019 0.500000
O O18 0.000000 0.000000 0.431585
#
# Coordination Sequence:
#
# PCOD9523204 Si02
#       8
#    16  16  16   2  16   8   8   8
#     4  10  23  44  67  91 122 162 211 257 318 383
#     4  10  23  41  64  91 123 163 204 255 312 374
#     4   9  19  36  60  87 117 152 194 242 295 354
#     4  12  22  36  68 102 144 168 214 260 354 380
#     4   9  18  34  58  86 115 149 195 244 295 350
#     4  10  21  37  58  82 116 158 197 242 295 362
#     4  12  27  41  59  87 122 160 200 253 305 368
#     4  10  23  41  69 100 129 171 220 274 324 401
#
# _framework density 21.635487999999999
#
# number of rings (size 3 to 8) (size 9 to 14) (size 15 to 20)
#    0.000    2.133    0.000    1.733    6.222    4.622 
#    0.000    0.000    0.000    2.667    0.000    0.000 
#    0.000    0.000    0.000    0.000    0.000    0.000 
#
# Total GULP energy -250953.933876 kJ/mol
# GULP energy per Si atom -5576.754086 kJ/mol
# Density = 2.158624 g / cm^3
# Si number density = 21.635488 Si / 1000 Ang^3
#
#
#
# Elastic Constant Matrix: (Units=GPa)
#
#
# Indices 1 2 3 4 5 6 
#
# 1 48.5737 -1.2253 7.0988 0.0000 0.0000 0.0000
# 2 -1.2253 68.0136 69.4708 0.0000 0.0000 0.0000
# 3 7.0988 69.4708 146.8078 0.0000 0.0000 0.0000
# 4 0.0000 0.0000 0.0000 44.8333 0.0000 0.0000
# 5 0.0000 0.0000 0.0000 0.0000 38.0043 0.0000
# 6 0.0000 0.0000 0.0000 0.0000 0.0000 13.8998
#
#
#
# Elastic Compliance Matrix: (Units=1/GPa)
#
#
# Indices 1 2 3 4 5 6 
#
# 1 0.020994 0.002739 -0.002311 0.000000 0.000000 0.000000
# 2 0.002739 0.028815 -0.013768 0.000000 0.000000 0.000000
# 3 -0.002311 -0.013768 0.013439 0.000000 0.000000 0.000000
# 4 0.000000 0.000000 0.000000 0.022305 0.000000 0.000000
# 5 0.000000 0.000000 0.000000 0.000000 0.026313 0.000000
# 6 0.000000 0.000000 0.000000 0.000000 0.000000 0.071943
#
#
# Mechanical properties :
#
#
# Convention : Reuss Voigt Hill
#
# Bulk Modulus (GPa) = 27.34682 46.00931 36.67806
# Shear Modulus (GPa) = 22.45383 31.88419 27.16901
#
# Velocity S-wave (km/s) = 3.22502 3.84304 3.54752
# Velocity P-wave (km/s) = 5.15121 6.40342 5.81114
#
# Compressibility (1/GPa) = 0.03656732
#
# Stress axis : x y z
#
# Youngs Moduli (GPa) = 47.63231 34.70365 74.41245
#
# Poissons Ratio (x) = -0.09505 0.17199
# Poissons Ratio (y) = -0.13047 1.02452
# Poissons Ratio (z) = 0.11009 0.47781
#
# Static dielectric constant tensor:
#      x y z
#    x 1.797510 0.000000 0.000000 
#    y 0.000000 1.779050 0.000000 
#    z 0.000000 0.000000 1.782180 
# 
# From -- ./inp_files/57648.got.cif
#   From: 2010.05.17/outbox.cif.g08.bks.cpg/sg71_29_cif.got.tgz:57648.got - 2010.06.03 16:22:01.
