data_PCOD9523601
_publ_section_title
;
Structure prediction by ZEFSAII (Michael W. Deem and Ramdas Pophale) SiO2 
 PCOD9523601
Probable space group: I M M M
;
_chemical_formula_sum "Si O2"
_cell_formula_units_Z 72
_cell_length_a 32.130628
_cell_length_b 8.828339
_cell_length_c 13.609042
_cell_angle_alpha 90.000000
_cell_angle_beta 90.000000
_cell_angle_gamma 90.000000
_cell_volume 3860.341892
_symmetry_space_group_name_H-M "I M M M"
_symmetry_group_IT_number 71
_symmetry_cell_setting 'orthorhombic'
loop_
_space_group_symop_operation_xyz
x,y,z
-x,-y,z
x,-y,-z
-x,y,-z
-x,-y,-z
x,y,-z
-x,y,z
x,-y,z
1/2+x,1/2+y,1/2+z
1/2-x,1/2-y,1/2+z
1/2+x,1/2-y,1/2-z
1/2-x,1/2+y,1/2-z
1/2-x,1/2-y,1/2-z
1/2+x,1/2+y,1/2-z
1/2-x,1/2+y,1/2+z
1/2+x,1/2-y,1/2+z
loop_
_atom_site_type_symbol
_atom_site_label
_atom_site_fract_x
_atom_site_fract_y
_atom_site_fract_z
Si Si1 0.585797 0.316597 0.196818
Si Si2 0.780621 0.169861 0.175588
Si Si3 0.133939 0.821852 0.500000
Si Si4 0.216499 0.659159 0.500000
Si Si5 0.500000 0.182527 0.117437
Si Si6 0.367727 0.817871 0.615243
O O1 0.585740 0.500000 0.201575
O O2 0.614421 0.265746 0.103240
O O3 0.540528 0.253542 0.168514
O O4 0.602403 0.252265 0.300777
O O5 0.750000 0.250000 0.250000
O O6 0.821595 0.260942 0.145036
O O7 0.793378 0.000000 0.207547
O O8 0.748606 0.159556 0.087312
O O9 0.182777 0.789171 0.500000
O O10 0.125664 0.000000 0.500000
O O11 0.191886 0.500000 0.500000
O O12 0.500000 0.000000 0.126953
O O13 0.500000 0.218309 0.000000
O O14 0.375789 0.774511 0.500000
O O15 0.369659 0.000000 0.620544
#
# Coordination Sequence:
#
# PCOD9523601 Si02
#       6
#    16  16   8   8   8  16
#     4  11  23  41  66  95 129 168 210 260 317 383
#     4  11  22  38  58  84 117 160 211 261 314 369
#     4  10  22  37  57  90 127 162 205 259 314 372
#     4  10  22  36  53  79 116 157 202 252 300 356
#     4  11  23  41  68 101 134 167 203 253 317 386
#     4  11  24  42  63  90 126 170 218 267 319 379
#
# _framework density 18.651198000000001
#
# number of rings (size 3 to 8) (size 9 to 14) (size 15 to 20)
#    0.000    1.222    2.222    3.667    0.000    8.889 
#    0.000    0.556    0.000    3.333    0.000    0.000 
#    0.000    0.000    0.000    0.000    0.000    0.000 
#
# Total GULP energy -200749.735578 kJ/mol
# GULP energy per Si atom -5576.381544 kJ/mol
# Density = 1.860875 g / cm^3
# Si number density = 18.651198 Si / 1000 Ang^3
#
#
#
# Elastic Constant Matrix: (Units=GPa)
#
#
# Indices 1 2 3 4 5 6 
#
# 1 128.8983 40.2285 74.6439 0.0000 0.0000 0.0000
# 2 40.2285 83.4697 70.8184 0.0000 0.0000 0.0000
# 3 74.6439 70.8184 178.0672 0.0000 0.0000 0.0000
# 4 0.0000 0.0000 0.0000 25.8842 0.0000 0.0000
# 5 0.0000 0.0000 0.0000 0.0000 40.5269 0.0000
# 6 0.0000 0.0000 0.0000 0.0000 0.0000 31.7013
#
#
#
# Elastic Compliance Matrix: (Units=1/GPa)
#
#
# Indices 1 2 3 4 5 6 
#
# 1 0.010460 -0.001994 -0.003592 0.000000 0.000000 0.000000
# 2 -0.001994 0.018462 -0.006506 0.000000 0.000000 0.000000
# 3 -0.003592 -0.006506 0.009709 0.000000 0.000000 0.000000
# 4 0.000000 0.000000 0.000000 0.038634 0.000000 0.000000
# 5 0.000000 0.000000 0.000000 0.000000 0.024675 0.000000
# 6 0.000000 0.000000 0.000000 0.000000 0.000000 0.031544
#
#
# Mechanical properties :
#
#
# Convention : Reuss Voigt Hill
#
# Bulk Modulus (GPa) = 69.22018 84.64630 76.93324
# Shear Modulus (GPa) = 30.77217 33.27211 32.02214
#
# Velocity S-wave (km/s) = 4.06627 4.22822 4.14804
# Velocity P-wave (km/s) = 7.69673 8.32583 8.01746
#
# Compressibility (1/GPa) = 0.01444665
#
# Stress axis : x y z
#
# Youngs Moduli (GPa) = 95.59881 54.16620 102.99508
#
# Poissons Ratio (x) = 0.10801 0.36995
# Poissons Ratio (y) = 0.19062 0.67014
# Poissons Ratio (z) = 0.34338 0.35243
#
# Static dielectric constant tensor:
#      x y z
#    x 1.577860 0.000000 0.000000 
#    y 0.000000 1.689220 0.000000 
#    z 0.000000 0.000000 1.470440 
# 
# From -- ./inp_files/40727.got.cif
#   From: 2010.05.17/outbox.cif.g08.bks.cpg/sg71_21_cif.got.tgz:40727.got - 2010.06.03 16:22:01.
