data_PCOD9523841
_publ_section_title
;
Structure prediction by ZEFSAII (Michael W. Deem and Ramdas Pophale) SiO2 
 PCOD9523841
Probable space group: I M M M
;
_chemical_formula_sum "Si O2"
_cell_formula_units_Z 72
_cell_length_a 15.193451
_cell_length_b 7.513526
_cell_length_c 29.665458
_cell_angle_alpha 90.000000
_cell_angle_beta 90.000000
_cell_angle_gamma 90.000000
_cell_volume 3386.501567
_symmetry_space_group_name_H-M "I M M M"
_symmetry_group_IT_number 71
_symmetry_cell_setting 'orthorhombic'
loop_
_space_group_symop_operation_xyz
x,y,z
-x,-y,z
x,-y,-z
-x,y,-z
-x,-y,-z
x,y,-z
-x,y,z
x,-y,z
1/2+x,1/2+y,1/2+z
1/2-x,1/2-y,1/2+z
1/2+x,1/2-y,1/2-z
1/2-x,1/2+y,1/2-z
1/2-x,1/2-y,1/2-z
1/2+x,1/2+y,1/2-z
1/2-x,1/2+y,1/2+z
1/2+x,1/2-y,1/2+z
loop_
_atom_site_type_symbol
_atom_site_label
_atom_site_fract_x
_atom_site_fract_y
_atom_site_fract_z
Si Si1 0.311726 0.198705 0.381516
Si Si2 0.812296 0.294305 0.548217
Si Si3 0.201326 0.786957 0.297005
Si Si4 0.000000 0.786934 0.575724
Si Si5 0.104484 0.000000 0.945268
Si Si6 0.000000 0.784589 0.318474
O O1 0.223699 0.183247 0.411043
O O2 0.270941 0.277325 0.335375
O O3 0.367389 0.328295 0.414343
O O4 0.350201 0.000000 0.374578
O O5 0.781460 0.226630 0.500000
O O6 0.784732 0.500000 0.553247
O O7 0.915494 0.287319 0.551521
O O8 0.250000 0.750000 0.250000
O O9 0.097918 0.724667 0.300147
O O10 0.196907 0.000000 0.303963
O O11 0.000000 0.738957 0.628546
O O12 0.000000 0.000000 0.572530
O O13 0.000000 0.000000 0.946083
O O14 0.128130 0.000000 0.000000
O O15 0.000000 0.000000 0.313423
#
# Coordination Sequence:
#
# PCOD9523841 Si02
#       6
#    16  16  16   8   8   8
#     4  11  23  42  68  98 133 170 217 281 342 405
#     4  11  22  35  54  86 128 171 214 257 309 381
#     4  10  22  41  66  95 128 171 223 278 341 408
#     4  11  20  34  55  82 124 170 214 257 310 373
#     4  11  26  48  72  99 133 179 233 286 351 423
#     4   9  18  38  60  85 122 166 210 261 326 393
#
# _framework density 21.26088
#
# number of rings (size 3 to 8) (size 9 to 14) (size 15 to 20)
#    0.000    1.444    3.333    2.000    1.556    4.889 
#    2.000    1.667    0.000    0.000    0.000    0.000 
#    0.000    0.000    0.000    0.000    0.000    0.000 
#
# Total GULP energy -200476.478256 kJ/mol
# GULP energy per Si atom -5568.791063 kJ/mol
# Density = 2.121249 g / cm^3
# Si number density = 21.260880 Si / 1000 Ang^3
#
#
#
# Elastic Constant Matrix: (Units=GPa)
#
#
# Indices 1 2 3 4 5 6 
#
# 1 117.1907 27.2357 55.9591 0.0000 0.0000 0.0000
# 2 27.2357 86.7157 30.0485 0.0000 0.0000 0.0000
# 3 55.9591 30.0485 180.0956 0.0000 0.0000 0.0000
# 4 0.0000 0.0000 0.0000 -59.8586 0.0000 0.0000
# 5 0.0000 0.0000 0.0000 0.0000 50.2420 0.0000
# 6 0.0000 0.0000 0.0000 0.0000 0.0000 20.2102
#
#
#
# Elastic Compliance Matrix: (Units=1/GPa)
#
#
# Indices 1 2 3 4 5 6 
#
# 1 0.010429 -0.002285 -0.002859 0.000000 0.000000 0.000000
# 2 -0.002285 0.012740 -0.001416 0.000000 0.000000 0.000000
# 3 -0.002859 -0.001416 0.006677 0.000000 0.000000 0.000000
# 4 0.000000 0.000000 0.000000 -0.016706 0.000000 0.000000
# 5 0.000000 0.000000 0.000000 0.000000 0.019904 0.000000
# 6 0.000000 0.000000 0.000000 0.000000 0.000000 0.049480
#
#
# Mechanical properties :
#
#
# Convention : Reuss Voigt Hill
#
# Bulk Modulus (GPa) = 59.78380 67.83207 63.80793
# Shear Modulus (GPa) = 49.39727 20.16930 34.78328
#
# Velocity S-wave (km/s) = 4.82538 3.08337 4.04917
# Velocity P-wave (km/s) = 7.69584 6.68208 7.20681
#
# Compressibility (1/GPa) = 0.01672694
#
# Stress axis : x y z
#
# Youngs Moduli (GPa) = 95.88187 78.49214 149.76139
#
# Poissons Ratio (x) = 0.17934 0.42823
# Poissons Ratio (y) = 0.21908 0.21202
# Poissons Ratio (z) = 0.27417 0.11112
#
# Static dielectric constant tensor:
#      x y z
#    x 1.852240 0.000000 0.000000 
#    y 0.000000 1.829480 0.000000 
#    z 0.000000 0.000000 1.737190 
# 
# From -- ./inp_files/69718.got.cif
#   From: 2010.05.17/outbox.cif.g08.bks.cpg/sg71_35_cif.got.tgz:69718.got - 2010.06.03 16:22:01.
