data_PCOD9523794
_publ_section_title
;
Structure prediction by ZEFSAII (Michael W. Deem and Ramdas Pophale) SiO2 
 PCOD9523794
Probable space group: I M M M
;
_chemical_formula_sum "Si O2"
_cell_formula_units_Z 112
_cell_length_a 24.065533
_cell_length_b 17.084096
_cell_length_c 13.965698
_cell_angle_alpha 90.000000
_cell_angle_beta 90.000000
_cell_angle_gamma 90.000000
_cell_volume 5741.827413
_symmetry_space_group_name_H-M "I M M M"
_symmetry_group_IT_number 71
_symmetry_cell_setting 'orthorhombic'
loop_
_space_group_symop_operation_xyz
x,y,z
-x,-y,z
x,-y,-z
-x,y,-z
-x,-y,-z
x,y,-z
-x,y,z
x,-y,z
1/2+x,1/2+y,1/2+z
1/2-x,1/2-y,1/2+z
1/2+x,1/2-y,1/2-z
1/2-x,1/2+y,1/2-z
1/2-x,1/2-y,1/2-z
1/2+x,1/2+y,1/2-z
1/2-x,1/2+y,1/2+z
1/2+x,1/2-y,1/2+z
loop_
_atom_site_type_symbol
_atom_site_label
_atom_site_fract_x
_atom_site_fract_y
_atom_site_fract_z
Si Si1 0.274925 0.170381 0.888215
Si Si2 0.622319 0.909493 0.789496
Si Si3 0.063301 0.836643 0.885149
Si Si4 0.330720 0.334505 0.111235
Si Si5 0.938472 0.268369 0.614435
Si Si6 0.171593 0.088808 0.804949
Si Si7 0.435186 0.848822 0.613118
O O1 0.317651 0.122409 0.821823
O O2 0.287827 0.262304 0.876792
O O3 0.213215 0.146686 0.859927
O O4 0.286365 0.151878 0.000000
O O5 0.579486 0.851179 0.842141
O O6 0.607142 0.896416 0.678525
O O7 0.616458 0.000000 0.815352
O O8 0.109386 0.887727 0.833584
O O9 0.071512 0.743918 0.865192
O O10 0.000000 0.857105 0.859408
O O11 0.068796 0.845859 0.000000
O O12 0.390604 0.294788 0.134004
O O13 0.320144 0.398320 0.191672
O O14 0.330069 0.359383 0.000000
O O15 0.939037 0.276684 0.500000
O O16 0.000000 0.245587 0.647433
O O17 0.183831 0.000000 0.832583
O O18 0.426392 0.859866 0.500000
O O19 0.500000 0.869186 0.633442
#
# Coordination Sequence:
#
# PCOD9523794 Si02
#       7
#    16  16  16  16  16  16  16
#     4  10  22  41  61  79 105 144 187 226 266 321
#     4  11  21  32  50  77 110 146 181 224 278 326
#     4   9  19  37  59  81 107 141 182 228 276 330
#     4   9  20  39  60  80 105 143 187 224 258 306
#     4   9  18  33  54  79 106 140 182 224 267 318
#     4  12  24  36  57  87 115 143 174 218 279 335
#     4   9  19  36  56  78 108 149 193 232 270 317
#
# _framework density 19.505984999999999
#
# number of rings (size 3 to 8) (size 9 to 14) (size 15 to 20)
#    0.000    2.143    0.000    5.571    0.000    6.571 
#    0.000    4.286    0.000    1.714    0.000    3.000 
#    0.000    0.000    0.000    0.000    0.000    0.000 
#
# Total GULP energy -312764.923016 kJ/mol
# GULP energy per Si atom -5585.087911 kJ/mol
# Density = 1.946159 g / cm^3
# Si number density = 19.505985 Si / 1000 Ang^3
#
#
#
# Elastic Constant Matrix: (Units=GPa)
#
#
# Indices 1 2 3 4 5 6 
#
# 1 72.1256 10.5935 14.1754 0.0000 0.0000 0.0000
# 2 10.5935 16.2998 7.1453 0.0000 0.0000 0.0000
# 3 14.1754 7.1453 57.4440 0.0000 0.0000 0.0000
# 4 0.0000 0.0000 0.0000 6.5123 0.0000 0.0000
# 5 0.0000 0.0000 0.0000 0.0000 16.7409 0.0000
# 6 0.0000 0.0000 0.0000 0.0000 0.0000 4.9339
#
#
#
# Elastic Compliance Matrix: (Units=1/GPa)
#
#
# Indices 1 2 3 4 5 6 
#
# 1 0.015731 -0.009014 -0.002761 0.000000 0.000000 0.000000
# 2 -0.009014 0.070053 -0.006489 0.000000 0.000000 0.000000
# 3 -0.002761 -0.006489 0.018897 0.000000 0.000000 0.000000
# 4 0.000000 0.000000 0.000000 0.153556 0.000000 0.000000
# 5 0.000000 0.000000 0.000000 0.000000 0.059734 0.000000
# 6 0.000000 0.000000 0.000000 0.000000 0.000000 0.202678
#
#
# Mechanical properties :
#
#
# Convention : Reuss Voigt Hill
#
# Bulk Modulus (GPa) = 14.67279 23.29973 18.98626
# Shear Modulus (GPa) = 8.62226 13.23445 10.92836
#
# Velocity S-wave (km/s) = 2.10474 2.60759 2.36954
# Velocity P-wave (km/s) = 3.66675 4.58660 4.15223
#
# Compressibility (1/GPa) = 0.06815336
#
# Stress axis : x y z
#
# Youngs Moduli (GPa) = 63.56798 14.27489 52.91920
#
# Poissons Ratio (x) = 0.12867 0.14610
# Poissons Ratio (y) = 0.57298 0.34341
# Poissons Ratio (z) = 0.17550 0.09263
#
# Static dielectric constant tensor:
#      x y z
#    x 1.683170 0.000000 0.000000 
#    y 0.000000 1.640490 0.000000 
#    z 0.000000 0.000000 1.717340 
# 
# From -- ./inp_files/39246.got.cif
#   From: 2010.05.17/outbox.cif.g08.bks.cpg/sg71_20_cif.got.tgz:39246.got - 2010.06.03 16:22:01.
