data_PCOD9523973
_publ_section_title
;
Structure prediction by ZEFSAII (Michael W. Deem and Ramdas Pophale) SiO2 
 PCOD9523973
Probable space group: I M M M
;
_chemical_formula_sum "Si O2"
_cell_formula_units_Z 58
_cell_length_a 10.330569
_cell_length_b 16.399913
_cell_length_c 18.553332
_cell_angle_alpha 90.000000
_cell_angle_beta 90.000000
_cell_angle_gamma 90.000000
_cell_volume 3143.313538
_symmetry_space_group_name_H-M "I M M M"
_symmetry_group_IT_number 71
_symmetry_cell_setting 'orthorhombic'
loop_
_space_group_symop_operation_xyz
x,y,z
-x,-y,z
x,-y,-z
-x,y,-z
-x,-y,-z
x,y,-z
-x,y,z
x,-y,z
1/2+x,1/2+y,1/2+z
1/2-x,1/2-y,1/2+z
1/2+x,1/2-y,1/2-z
1/2-x,1/2+y,1/2-z
1/2-x,1/2-y,1/2-z
1/2+x,1/2+y,1/2-z
1/2-x,1/2+y,1/2+z
1/2+x,1/2-y,1/2+z
loop_
_atom_site_type_symbol
_atom_site_label
_atom_site_fract_x
_atom_site_fract_y
_atom_site_fract_z
Si Si1 0.656334 0.348185 0.319157
Si Si2 0.000000 0.500000 0.500000
Si Si3 0.000000 0.906244 0.585711
Si Si4 0.269613 0.500000 0.580381
Si Si5 0.750545 0.833780 0.341516
Si Si6 0.000000 0.596706 0.081868
O O1 0.500000 0.340148 0.313393
O O2 0.690462 0.420697 0.373813
O O3 0.719020 0.262387 0.343047
O O4 0.716379 0.361825 0.239776
O O5 0.116477 0.500000 0.561922
O O6 0.125609 0.858929 0.612491
O O7 0.000000 0.909691 0.500000
O O8 0.000000 0.000000 0.613335
O O9 0.331759 0.500000 0.500000
O O10 0.625913 0.876236 0.374969
O O11 0.000000 0.500000 0.076622
O O12 0.000000 0.630685 0.000000
#
# Coordination Sequence:
#
# PCOD9523973 Si02
#       6
#    16   2   8   8  16   8
#     4  11  24  44  68 100 134 174 234 280 335 412
#     4   8  24  52  58 108 128 172 236 270 344 424
#     4  11  24  42  67 101 137 176 223 272 339 407
#     4  10  25  46  70  99 137 176 228 283 344 407
#     4  11  24  43  68 101 135 180 225 280 338 405
#     4  11  24  42  65  99 137 175 223 275 340 407
#
# _framework density 18.451865999999999
#
# number of rings (size 3 to 8) (size 9 to 14) (size 15 to 20)
#    0.414    0.828    2.759    2.069    3.862    7.724 
#    2.483    0.000    0.000    0.000    0.000    0.000 
#    0.000    0.000    0.000    0.000    0.000    0.000 
#
# Total GULP energy -161654.999748 kJ/mol
# GULP energy per Si atom -5574.310336 kJ/mol
# Density = 1.840987 g / cm^3
# Si number density = 18.451866 Si / 1000 Ang^3
#
#
#
# Elastic Constant Matrix: (Units=GPa)
#
#
# Indices 1 2 3 4 5 6 
#
# 1 196.6721 65.9767 83.0693 0.0000 0.0000 0.0000
# 2 65.9767 106.4546 100.1044 0.0000 0.0000 0.0000
# 3 83.0693 100.1044 144.9541 0.0000 0.0000 0.0000
# 4 0.0000 0.0000 0.0000 3.0536 0.0000 0.0000
# 5 0.0000 0.0000 0.0000 0.0000 37.4903 0.0000
# 6 0.0000 0.0000 0.0000 0.0000 0.0000 14.2834
#
#
#
# Elastic Compliance Matrix: (Units=1/GPa)
#
#
# Indices 1 2 3 4 5 6 
#
# 1 0.006799 -0.001568 -0.002813 0.000000 0.000000 0.000000
# 2 -0.001568 0.027155 -0.017854 0.000000 0.000000 0.000000
# 3 -0.002813 -0.017854 0.020841 0.000000 0.000000 0.000000
# 4 0.000000 0.000000 0.000000 0.327479 0.000000 0.000000
# 5 0.000000 0.000000 0.000000 0.000000 0.026674 0.000000
# 6 0.000000 0.000000 0.000000 0.000000 0.000000 0.070011
#
#
# Mechanical properties :
#
#
# Convention : Reuss Voigt Hill
#
# Bulk Modulus (GPa) = 96.86908 105.15350 101.01129
# Shear Modulus (GPa) = 9.48999 24.22749 16.85874
#
# Velocity S-wave (km/s) = 2.27030 3.62748 3.02596
# Velocity P-wave (km/s) = 7.71262 8.64040 8.18966
#
# Compressibility (1/GPa) = 0.01032321
#
# Stress axis : x y z
#
# Youngs Moduli (GPa) = 147.08135 36.82579 47.98249
#
# Poissons Ratio (x) = 0.05776 0.13498
# Poissons Ratio (y) = 0.23067 0.85669
# Poissons Ratio (z) = 0.41377 0.65750
#
# Static dielectric constant tensor:
#      x y z
#    x 1.596710 0.000000 0.000000 
#    y 0.000000 1.627460 0.000000 
#    z 0.000000 0.000000 1.639400 
# 
# From -- ./inp_files/41774.got.cif
#   From: 2010.05.17/outbox.cif.g08.bks.cpg/sg71_21_cif.got.tgz:41774.got - 2010.06.03 16:22:01.
