data_PCOD9523019
_publ_section_title
;
Structure prediction by ZEFSAII (Michael W. Deem and Ramdas Pophale) SiO2 
 PCOD9523019
Probable space group: I M M M
;
_chemical_formula_sum "Si O2"
_cell_formula_units_Z 116
_cell_length_a 25.175453
_cell_length_b 19.907442
_cell_length_c 12.972653
_cell_angle_alpha 90.000000
_cell_angle_beta 90.000000
_cell_angle_gamma 90.000000
_cell_volume 6501.619577
_symmetry_space_group_name_H-M "I M M M"
_symmetry_group_IT_number 71
_symmetry_cell_setting 'orthorhombic'
loop_
_space_group_symop_operation_xyz
x,y,z
-x,-y,z
x,-y,-z
-x,y,-z
-x,-y,-z
x,y,-z
-x,y,z
x,-y,z
1/2+x,1/2+y,1/2+z
1/2-x,1/2-y,1/2+z
1/2+x,1/2-y,1/2-z
1/2-x,1/2+y,1/2-z
1/2-x,1/2-y,1/2-z
1/2+x,1/2+y,1/2-z
1/2-x,1/2+y,1/2+z
1/2+x,1/2-y,1/2+z
loop_
_atom_site_type_symbol
_atom_site_label
_atom_site_fract_x
_atom_site_fract_y
_atom_site_fract_z
Si Si1 0.558712 0.578543 0.203997
Si Si2 0.196091 0.756271 0.121106
Si Si3 0.500000 0.257511 0.500000
Si Si4 0.855664 0.575588 0.378327
Si Si5 0.421051 0.708771 0.685656
Si Si6 0.438263 0.804135 0.881103
Si Si7 0.763080 0.640538 0.742311
Si Si8 0.173017 0.919531 0.614178
O O1 0.500000 0.587175 0.154848
O O2 0.562574 0.500000 0.234637
O O3 0.562267 0.631460 0.296835
O O4 0.610784 0.593765 0.136335
O O5 0.140656 0.785900 0.159971
O O6 0.205461 0.684956 0.174706
O O7 0.242185 0.806579 0.157872
O O8 0.195944 0.749646 0.000000
O O9 0.545796 0.260463 0.591867
O O10 0.842472 0.579755 0.500000
O O11 0.875800 0.500000 0.358214
O O12 0.899140 0.633529 0.358406
O O13 0.803335 0.589509 0.311214
O O14 0.430766 0.747644 0.793762
O O15 0.500000 0.825371 0.877334
O O16 0.427702 0.781477 0.000000
O O17 0.712313 0.609400 0.800041
O O18 0.186815 0.893583 0.500000
O O19 0.179028 0.000000 0.614282
#
# Coordination Sequence:
#
# PCOD9523019 Si02
#       8
#    16  16   4  16  16  16  16  16
#     4  10  21  38  58  80 115 152 191 241 295 354
#     4  11  23  36  57  85 116 151 199 246 293 350
#     4  12  24  36  71  84 117 160 196 248 302 352
#     4  10  21  37  60  91 123 156 195 241 296 356
#     4  12  21  40  58  88 118 154 198 242 298 347
#     4  10  21  38  62  90 121 154 193 240 295 355
#     4  11  21  38  57  82 116 160 190 246 294 352
#     4  10  21  36  56  82 112 150 196 240 286 347
#
# _framework density 17.841708000000001
#
# number of rings (size 3 to 8) (size 9 to 14) (size 15 to 20)
#    0.000    1.379    4.828    1.241    0.000    1.103 
#    0.000    3.448    0.000    0.828    0.000    0.483 
#    0.000    0.000    0.000    0.000    0.000    0.000 
#
# Total GULP energy -323006.611120 kJ/mol
# GULP energy per Si atom -5569.079502 kJ/mol
# Density = 1.780110 g / cm^3
# Si number density = 17.841708 Si / 1000 Ang^3
#
#
#
# Elastic Constant Matrix: (Units=GPa)
#
#
# Indices 1 2 3 4 5 6 
#
# 1 79.2287 24.7012 45.1232 0.0000 0.0000 0.0000
# 2 24.7012 66.3675 39.7528 0.0000 0.0000 0.0000
# 3 45.1232 39.7528 97.6211 0.0000 0.0000 0.0000
# 4 0.0000 0.0000 0.0000 11.9310 0.0000 0.0000
# 5 0.0000 0.0000 0.0000 0.0000 40.2679 0.0000
# 6 0.0000 0.0000 0.0000 0.0000 0.0000 22.0362
#
#
#
# Elastic Compliance Matrix: (Units=1/GPa)
#
#
# Indices 1 2 3 4 5 6 
#
# 1 0.017369 -0.002190 -0.007137 0.000000 0.000000 0.000000
# 2 -0.002190 0.020204 -0.007215 0.000000 0.000000 0.000000
# 3 -0.007137 -0.007215 0.016481 0.000000 0.000000 0.000000
# 4 0.000000 0.000000 0.000000 0.083815 0.000000 0.000000
# 5 0.000000 0.000000 0.000000 0.000000 0.024834 0.000000
# 6 0.000000 0.000000 0.000000 0.000000 0.000000 0.045380
#
#
# Mechanical properties :
#
#
# Convention : Reuss Voigt Hill
#
# Bulk Modulus (GPa) = 47.68632 51.37464 49.53048
# Shear Modulus (GPa) = 20.14855 23.75636 21.95245
#
# Velocity S-wave (km/s) = 3.36414 3.65294 3.51151
# Velocity P-wave (km/s) = 6.47112 6.83002 6.65299
#
# Compressibility (1/GPa) = 0.02097037
#
# Stress axis : x y z
#
# Youngs Moduli (GPa) = 57.57393 49.49396 60.67704
#
# Poissons Ratio (x) = 0.10838 0.43303
# Poissons Ratio (y) = 0.12607 0.43781
# Poissons Ratio (z) = 0.41089 0.35712
#
# Static dielectric constant tensor:
#      x y z
#    x 1.618870 0.000000 0.000000 
#    y 0.000000 1.611780 0.000000 
#    z 0.000000 0.000000 1.597750 
# 
# From -- ./inp_files/28972.got.cif
#   From: 2010.05.17/outbox.cif.g08.bks.cpg/sg71_15_cif.got.tgz:28972.got - 2010.06.03 16:22:01.
