data_PCOD9523693
_publ_section_title
;
Structure prediction by ZEFSAII (Michael W. Deem and Ramdas Pophale) SiO2 
 PCOD9523693
Probable space group: I M M M
;
_chemical_formula_sum "Si O2"
_cell_formula_units_Z 72
_cell_length_a 14.817097
_cell_length_b 32.660554
_cell_length_c 8.399484
_cell_angle_alpha 90.000000
_cell_angle_beta 90.000000
_cell_angle_gamma 90.000000
_cell_volume 4064.800902
_symmetry_space_group_name_H-M "I M M M"
_symmetry_group_IT_number 71
_symmetry_cell_setting 'orthorhombic'
loop_
_space_group_symop_operation_xyz
x,y,z
-x,-y,z
x,-y,-z
-x,y,-z
-x,-y,-z
x,y,-z
-x,y,z
x,-y,z
1/2+x,1/2+y,1/2+z
1/2-x,1/2-y,1/2+z
1/2+x,1/2-y,1/2-z
1/2-x,1/2+y,1/2-z
1/2-x,1/2-y,1/2-z
1/2+x,1/2+y,1/2-z
1/2-x,1/2+y,1/2+z
1/2+x,1/2-y,1/2+z
loop_
_atom_site_type_symbol
_atom_site_label
_atom_site_fract_x
_atom_site_fract_y
_atom_site_fract_z
Si Si1 0.500000 0.048260 0.821526
Si Si2 0.805497 0.210697 0.808634
Si Si3 0.000000 0.333948 0.310811
Si Si4 0.500000 0.740284 0.692166
Si Si5 0.306895 0.133651 0.691338
Si Si6 0.195698 0.454131 0.811545
O O1 0.589996 0.054340 0.721332
O O2 0.500000 0.000000 0.847706
O O3 0.500000 0.067614 0.000000
O O4 0.750000 0.250000 0.750000
O O5 0.908734 0.217669 0.756072
O O6 0.758211 0.170269 0.742790
O O7 0.802659 0.209467 0.000000
O O8 0.000000 0.287316 0.248148
O O9 0.092246 0.355844 0.254088
O O10 0.000000 0.332616 0.500000
O O11 0.500000 0.741317 0.500000
O O12 0.312692 0.132341 0.500000
O O13 0.267181 0.089518 0.748757
O O14 0.217382 0.500000 0.745446
O O15 0.212553 0.456461 0.000000
#
# Coordination Sequence:
#
# PCOD9523693 Si02
#       6
#     8  16   8   8  16  16
#     4   9  16  25  40  64  94 127 165 212 257 296
#     4  11  22  37  57  80 106 137 174 215 260 312
#     4  12  23  33  51  76 105 143 184 219 256 314
#     4  10  22  39  57  75 104 140 173 214 262 308
#     4  11  22  35  52  76 108 141 176 222 267 311
#     4   9  18  32  48  66  93 134 177 212 254 309
#
# _framework density 17.713045000000001
#
# number of rings (size 3 to 8) (size 9 to 14) (size 15 to 20)
#    0.000    1.667    2.222    3.333    0.000    6.667 
#    0.000    0.000    0.000    0.000    0.000    0.778 
#    0.000    6.222    0.000    0.000    0.000    0.000 
#
# Total GULP energy -200612.841324 kJ/mol
# GULP energy per Si atom -5572.578926 kJ/mol
# Density = 1.767273 g / cm^3
# Si number density = 17.713045 Si / 1000 Ang^3
#
#
#
# Elastic Constant Matrix: (Units=GPa)
#
#
# Indices 1 2 3 4 5 6 
#
# 1 95.4650 63.3994 18.6069 -0.0002 0.0000 -0.0022
# 2 63.3994 195.2803 12.8358 -0.0016 0.0007 -0.0018
# 3 18.6069 12.8358 25.6811 -0.0040 0.0022 -0.0037
# 4 -0.0002 -0.0016 -0.0040 19.9705 0.0013 -0.0016
# 5 0.0000 0.0007 0.0022 0.0013 19.9151 0.0023
# 6 -0.0022 -0.0018 -0.0037 -0.0016 0.0023 -41.1166
#
#
#
# Elastic Compliance Matrix: (Units=1/GPa)
#
#
# Indices 1 2 3 4 5 6 
#
# 1 0.015041 -0.004308 -0.008744 -0.000002 0.000001 0.000000
# 2 -0.004308 0.006529 -0.000142 0.000000 0.000000 0.000000
# 3 -0.008744 -0.000142 0.045345 0.000009 -0.000005 -0.000004
# 4 -0.000002 0.000000 0.000009 0.050074 -0.000003 -0.000002
# 5 0.000001 0.000000 -0.000005 -0.000003 0.050213 0.000003
# 6 0.000000 0.000000 -0.000004 -0.000002 0.000003 -0.024321
#
#
# Mechanical properties :
#
#
# Convention : Reuss Voigt Hill
#
# Bulk Modulus (GPa) = 24.67515 56.23453 40.45484
# Shear Modulus (GPa) = 27.35565 14.52609 20.94087
#
# Velocity S-wave (km/s) = 3.93412 2.86681 3.44209
# Velocity P-wave (km/s) = 5.88193 6.54023 6.21980
#
# Compressibility (1/GPa) = 0.04052661
#
# Stress axis : x y z
#
# Youngs Moduli (GPa) = 66.48714 153.16561 22.05298
#
# Poissons Ratio (x) = 0.65988 0.19283
# Poissons Ratio (y) = 0.28645 0.00313
# Poissons Ratio (z) = 0.58137 0.02171
#
# Static dielectric constant tensor:
#      x y z
#    x 1.639890 0.000000 0.000000 
#    y 0.000000 1.676900 0.000000 
#    z 0.000000 0.000000 1.635340 
# 
# From -- ./inp_files/6516.got.cif
#   From: 2010.05.17/outbox.cif.g08.bks.cpg/sg71_4_cif.got.tgz:6516.got - 2010.06.03 16:22:01.
