data_PCOD9523483
_publ_section_title
;
Structure prediction by ZEFSAII (Michael W. Deem and Ramdas Pophale) SiO2 
 PCOD9523483
Probable space group: I M M M
;
_chemical_formula_sum "Si O2"
_cell_formula_units_Z 72
_cell_length_a 9.114880
_cell_length_b 17.842033
_cell_length_c 22.572667
_cell_angle_alpha 90.000000
_cell_angle_beta 90.000000
_cell_angle_gamma 90.000000
_cell_volume 3670.947458
_symmetry_space_group_name_H-M "I M M M"
_symmetry_group_IT_number 71
_symmetry_cell_setting 'orthorhombic'
loop_
_space_group_symop_operation_xyz
x,y,z
-x,-y,z
x,-y,-z
-x,y,-z
-x,-y,-z
x,y,-z
-x,y,z
x,-y,z
1/2+x,1/2+y,1/2+z
1/2-x,1/2-y,1/2+z
1/2+x,1/2-y,1/2-z
1/2-x,1/2+y,1/2-z
1/2-x,1/2-y,1/2-z
1/2+x,1/2+y,1/2-z
1/2-x,1/2+y,1/2+z
1/2+x,1/2-y,1/2+z
loop_
_atom_site_type_symbol
_atom_site_label
_atom_site_fract_x
_atom_site_fract_y
_atom_site_fract_z
Si Si1 0.832686 0.589381 0.569491
Si Si2 0.173248 0.186042 0.836881
Si Si3 0.176005 0.648606 0.118794
Si Si4 0.324693 0.411006 0.000000
Si Si5 0.824243 0.583221 0.756972
O O1 0.816955 0.606735 0.500000
O O2 0.818773 0.500000 0.576303
O O3 0.717112 0.632430 0.608872
O O4 0.000000 0.609491 0.587616
O O5 0.218277 0.269350 0.856564
O O6 0.252607 0.149537 0.780557
O O7 0.000000 0.187084 0.826112
O O8 0.207556 0.593182 0.173493
O O9 0.000000 0.648542 0.108333
O O10 0.256881 0.625878 0.058912
O O11 0.290988 0.500000 0.000000
O O12 0.500000 0.401824 0.000000
O O13 0.777105 0.500000 0.736637
O O14 0.000000 0.587976 0.749894
#
# Coordination Sequence:
#
# PCOD9523483 Si02
#       5
#    16  16  16   8  16
#     4   9  19  36  56  78 109 154 204 246 290 353
#     4  11  23  36  56  88 123 154 192 245 302 352
#     4  10  23  42  63  88 121 161 202 242 292 358
#     4  11  25  43  65  95 124 153 196 249 301 348
#     4  10  21  39  63  87 114 157 207 246 290 356
#
# _framework density 19.613464
#
# number of rings (size 3 to 8) (size 9 to 14) (size 15 to 20)
#    0.000    1.889    0.000    3.667    1.556    8.444 
#    0.000    1.111    0.000    0.000    0.000    0.000 
#    0.000    0.000    0.000    0.000    0.000    0.000 
#
# Total GULP energy -201145.072181 kJ/mol
# GULP energy per Si atom -5587.363116 kJ/mol
# Density = 1.956882 g / cm^3
# Si number density = 19.613464 Si / 1000 Ang^3
#
#
#
# Elastic Constant Matrix: (Units=GPa)
#
#
# Indices 1 2 3 4 5 6 
#
# 1 39.8998 49.3167 48.0122 0.0000 0.0000 0.0000
# 2 49.3167 101.8864 72.9364 0.0000 0.0000 0.0000
# 3 48.0122 72.9364 126.2377 0.0000 0.0000 0.0000
# 4 0.0000 0.0000 0.0000 39.5518 0.0000 0.0000
# 5 0.0000 0.0000 0.0000 0.0000 18.6005 0.0000
# 6 0.0000 0.0000 0.0000 0.0000 0.0000 28.5750
#
#
#
# Elastic Compliance Matrix: (Units=1/GPa)
#
#
# Indices 1 2 3 4 5 6 
#
# 1 0.072218 -0.026081 -0.012398 0.000000 0.000000 0.000000
# 2 -0.026081 0.026156 -0.005193 0.000000 0.000000 0.000000
# 3 -0.012398 -0.005193 0.015637 0.000000 0.000000 0.000000
# 4 0.000000 0.000000 0.000000 0.025283 0.000000 0.000000
# 5 0.000000 0.000000 0.000000 0.000000 0.053762 0.000000
# 6 0.000000 0.000000 0.000000 0.000000 0.000000 0.034996
#
#
# Mechanical properties :
#
#
# Convention : Reuss Voigt Hill
#
# Bulk Modulus (GPa) = 37.49844 67.61717 52.55780
# Shear Modulus (GPa) = 15.41854 23.86269 19.64062
#
# Velocity S-wave (km/s) = 2.80683 3.49183 3.16790
# Velocity P-wave (km/s) = 5.44652 7.12790 6.34317
#
# Compressibility (1/GPa) = 0.02666778
#
# Stress axis : x y z
#
# Youngs Moduli (GPa) = 13.84705 38.23166 63.94971
#
# Poissons Ratio (x) = 0.99711 0.79285
# Poissons Ratio (y) = 0.36114 0.33209
# Poissons Ratio (z) = 0.17168 0.19854
#
# Static dielectric constant tensor:
#      x y z
#    x 1.660960 0.000000 0.000000 
#    y 0.000000 1.691710 0.000000 
#    z 0.000000 0.000000 1.675910 
# 
# From -- ./inp_files/57303.got.cif
#   From: 2010.05.17/outbox.cif.g08.bks.cpg/sg71_29_cif.got.tgz:57303.got - 2010.06.03 16:22:01.
