data_PCOD9523645
_publ_section_title
;
Structure prediction by ZEFSAII (Michael W. Deem and Ramdas Pophale) SiO2 
 PCOD9523645
Probable space group: I M M M
;
_chemical_formula_sum "Si O2"
_cell_formula_units_Z 80
_cell_length_a 13.918757
_cell_length_b 9.715746
_cell_length_c 29.745008
_cell_angle_alpha 90.000000
_cell_angle_beta 90.000000
_cell_angle_gamma 90.000000
_cell_volume 4022.450379
_symmetry_space_group_name_H-M "I M M M"
_symmetry_group_IT_number 71
_symmetry_cell_setting 'orthorhombic'
loop_
_space_group_symop_operation_xyz
x,y,z
-x,-y,z
x,-y,-z
-x,y,-z
-x,-y,-z
x,y,-z
-x,y,z
x,-y,z
1/2+x,1/2+y,1/2+z
1/2-x,1/2-y,1/2+z
1/2+x,1/2-y,1/2-z
1/2-x,1/2+y,1/2-z
1/2-x,1/2-y,1/2-z
1/2+x,1/2+y,1/2-z
1/2-x,1/2+y,1/2+z
1/2+x,1/2-y,1/2+z
loop_
_atom_site_type_symbol
_atom_site_label
_atom_site_fract_x
_atom_site_fract_y
_atom_site_fract_z
Si Si1 0.382643 0.341306 0.268598
Si Si2 0.610790 0.339982 0.900750
Si Si3 0.299452 0.837610 0.449869
Si Si4 0.616976 0.157310 0.185132
Si Si5 0.615699 0.658245 0.370246
O O1 0.500000 0.340174 0.268312
O O2 0.354704 0.500000 0.259498
O O3 0.351228 0.237797 0.229704
O O4 0.353215 0.303155 0.319444
O O5 0.500000 0.312082 0.912718
O O6 0.616277 0.500000 0.885701
O O7 0.685328 0.323459 0.941098
O O8 0.640528 0.241702 0.859783
O O9 0.325435 0.790224 0.500000
O O10 0.348417 0.755341 0.409716
O O11 0.322459 0.000000 0.446469
O O12 0.500000 0.154857 0.186461
O O13 0.650272 0.000000 0.183845
O O14 0.500000 0.660954 0.370158
O O15 0.645671 0.500000 0.378121
#
# Coordination Sequence:
#
# PCOD9523645 Si02
#       5
#    16  16  16  16  16
#     4   8  14  27  48  73 102 136 172 207 245 296
#     4   9  18  34  55  76 102 139 177 212 256 311
#     4  10  22  38  55  78 105 132 170 222 272 313
#     4   9  16  26  45  76 109 137 168 208 253 302
#     4   9  19  36  57  80 106 139 177 213 253 307
#
# _framework density 19.888375
#
# number of rings (size 3 to 8) (size 9 to 14) (size 15 to 20)
#    0.000    3.000    0.000    1.800    0.000    5.600 
#    0.000    7.000    0.000    0.000    0.000    4.200 
#    0.000    0.000    0.000    0.000    0.000    0.000 
#
# Total GULP energy -223319.504950 kJ/mol
# GULP energy per Si atom -5582.987624 kJ/mol
# Density = 1.984311 g / cm^3
# Si number density = 19.888375 Si / 1000 Ang^3
#
#
#
# Elastic Constant Matrix: (Units=GPa)
#
#
# Indices 1 2 3 4 5 6 
#
# 1 38.6543 10.4674 6.8665 0.0000 0.0000 0.0000
# 2 10.4674 71.3984 62.1335 0.0000 0.0000 0.0000
# 3 6.8665 62.1335 118.0966 0.0000 0.0000 0.0000
# 4 0.0000 0.0000 0.0000 30.8165 0.0000 0.0000
# 5 0.0000 0.0000 0.0000 0.0000 22.1377 0.0000
# 6 0.0000 0.0000 0.0000 0.0000 0.0000 18.3693
#
#
#
# Elastic Compliance Matrix: (Units=1/GPa)
#
#
# Indices 1 2 3 4 5 6 
#
# 1 0.026997 -0.004781 0.000946 0.000000 0.000000 0.000000
# 2 -0.004781 0.026681 -0.013759 0.000000 0.000000 0.000000
# 3 0.000946 -0.013759 0.015652 0.000000 0.000000 0.000000
# 4 0.000000 0.000000 0.000000 0.032450 0.000000 0.000000
# 5 0.000000 0.000000 0.000000 0.000000 0.045172 0.000000
# 6 0.000000 0.000000 0.000000 0.000000 0.000000 0.054439
#
#
# Mechanical properties :
#
#
# Convention : Reuss Voigt Hill
#
# Bulk Modulus (GPa) = 29.29085 43.00932 36.15009
# Shear Modulus (GPa) = 20.16458 24.17682 22.17070
#
# Velocity S-wave (km/s) = 3.18761 3.49037 3.34242
# Velocity P-wave (km/s) = 5.32047 6.15758 5.75427
#
# Compressibility (1/GPa) = 0.03414036
#
# Stress axis : x y z
#
# Youngs Moduli (GPa) = 37.04116 37.48023 63.89031
#
# Poissons Ratio (x) = 0.17919 -0.06042
# Poissons Ratio (y) = 0.17709 0.87909
# Poissons Ratio (z) = -0.03503 0.51571
#
# Static dielectric constant tensor:
#      x y z
#    x 1.768520 0.000000 0.000000 
#    y 0.000000 1.667490 0.000000 
#    z 0.000000 0.000000 1.653030 
# 
# From -- ./inp_files/42236.got.cif
#   From: 2010.05.17/outbox.cif.g08.bks.cpg/sg71_22_cif.got.tgz:42236.got - 2010.06.03 16:22:01.
