data_PCOD9523648
_publ_section_title
;
Structure prediction by ZEFSAII (Michael W. Deem and Ramdas Pophale) SiO2 
 PCOD9523648
Probable space group: I M M M
;
_chemical_formula_sum "Si O2"
_cell_formula_units_Z 80
_cell_length_a 8.847365
_cell_length_b 26.111364
_cell_length_c 18.710764
_cell_angle_alpha 90.000000
_cell_angle_beta 90.000000
_cell_angle_gamma 90.000000
_cell_volume 4322.500225
_symmetry_space_group_name_H-M "I M M M"
_symmetry_group_IT_number 71
_symmetry_cell_setting 'orthorhombic'
loop_
_space_group_symop_operation_xyz
x,y,z
-x,-y,z
x,-y,-z
-x,y,-z
-x,-y,-z
x,y,-z
-x,y,z
x,-y,z
1/2+x,1/2+y,1/2+z
1/2-x,1/2-y,1/2+z
1/2+x,1/2-y,1/2-z
1/2-x,1/2+y,1/2-z
1/2-x,1/2-y,1/2-z
1/2+x,1/2+y,1/2-z
1/2-x,1/2+y,1/2+z
1/2+x,1/2-y,1/2+z
loop_
_atom_site_type_symbol
_atom_site_label
_atom_site_fract_x
_atom_site_fract_y
_atom_site_fract_z
Si Si1 0.318454 0.248177 0.328982
Si Si2 0.317735 0.650827 0.417606
Si Si3 0.180374 0.154482 0.583433
Si Si4 0.318492 0.940757 0.661785
Si Si5 0.681920 0.941465 0.171350
O O1 0.500000 0.246839 0.324716
O O2 0.250000 0.250000 0.250000
O O3 0.272330 0.298809 0.373228
O O4 0.259769 0.198452 0.370468
O O5 0.267820 0.654256 0.500000
O O6 0.500000 0.648760 0.416924
O O7 0.254536 0.600526 0.379306
O O8 0.219508 0.160159 0.500000
O O9 0.235161 0.099798 0.612628
O O10 0.000000 0.158790 0.591113
O O11 0.500000 0.934753 0.654896
O O12 0.279769 0.931629 0.745332
O O13 0.282191 0.000000 0.645295
O O14 0.500000 0.938887 0.165890
O O15 0.727423 0.000000 0.154271
#
# Coordination Sequence:
#
# PCOD9523648 Si02
#       5
#    16  16  16  16  16
#     4  11  23  40  62  85 111 145 187 234 284 339
#     4  10  22  38  55  79 111 145 181 222 271 327
#     4  11  24  39  56  83 118 152 188 232 282 336
#     4   9  19  37  60  84 111 147 191 235 281 337
#     4   9  19  36  57  82 111 143 182 227 273 323
#
# _framework density 18.507805999999999
#
# number of rings (size 3 to 8) (size 9 to 14) (size 15 to 20)
#    0.000    2.000    0.000    4.200    0.000   10.000 
#    0.000    6.000    0.000    0.000    0.000    0.000 
#    0.000    0.000    0.000    0.000    0.000    0.000 
#
# Total GULP energy -223497.329127 kJ/mol
# GULP energy per Si atom -5587.433228 kJ/mol
# Density = 1.846568 g / cm^3
# Si number density = 18.507806 Si / 1000 Ang^3
#
#
#
# Elastic Constant Matrix: (Units=GPa)
#
#
# Indices 1 2 3 4 5 6 
#
# 1 34.3968 46.7135 58.4226 0.0001 0.0000 0.0000
# 2 46.7135 128.6927 104.5941 0.0000 0.0000 0.0000
# 3 58.4226 104.5941 158.2788 0.0011 0.0000 0.0000
# 4 0.0001 0.0000 0.0011 -102.6161 0.0000 0.0000
# 5 0.0000 0.0000 0.0000 0.0000 33.3772 0.0000
# 6 0.0000 0.0000 0.0000 0.0000 0.0000 35.7013
#
#
#
# Elastic Compliance Matrix: (Units=1/GPa)
#
#
# Indices 1 2 3 4 5 6 
#
# 1 0.085257 -0.011601 -0.023803 0.000000 0.000000 0.000000
# 2 -0.011601 0.018364 -0.007853 0.000000 0.000000 0.000000
# 3 -0.023803 -0.007853 0.020294 0.000000 0.000000 0.000000
# 4 0.000000 0.000000 0.000000 -0.009745 0.000000 0.000000
# 5 0.000000 0.000000 0.000000 0.000000 0.029961 0.000000
# 6 0.000000 0.000000 0.000000 0.000000 0.000000 0.028010
#
#
# Mechanical properties :
#
#
# Convention : Reuss Voigt Hill
#
# Bulk Modulus (GPa) = 26.73814 82.31430 54.52622
# Shear Modulus (GPa) = 18.44180 0.73502 9.58841
#
# Velocity S-wave (km/s) = 3.16006 0.63087 2.27859
# Velocity P-wave (km/s) = 5.27190 6.71585 6.03720
#
# Compressibility (1/GPa) = 0.03739976
#
# Stress axis : x y z
#
# Youngs Moduli (GPa) = 11.72919 54.45338 49.27651
#
# Poissons Ratio (x) = 0.63173 1.17293
# Poissons Ratio (y) = 0.13607 0.38699
# Poissons Ratio (z) = 0.27919 0.42764
#
# Static dielectric constant tensor:
#      x y z
#    x 1.622760 0.000000 0.000000 
#    y 0.000000 1.613330 0.000000 
#    z 0.000000 0.000000 1.614060 
# 
# From -- ./inp_files/8304.got.cif
#   From: 2010.05.17/outbox.cif.g08.bks.cpg/sg71_5_cif.got.tgz:8304.got - 2010.06.03 16:22:01.
