data_PCOD9523731
_publ_section_title
;
Structure prediction by ZEFSAII (Michael W. Deem and Ramdas Pophale) SiO2 
 PCOD9523731
Probable space group: I M M M
;
_chemical_formula_sum "Si O2"
_cell_formula_units_Z 64
_cell_length_a 7.816642
_cell_length_b 15.808470
_cell_length_c 26.091534
_cell_angle_alpha 90.000000
_cell_angle_beta 90.000000
_cell_angle_gamma 90.000000
_cell_volume 3224.108693
_symmetry_space_group_name_H-M "I M M M"
_symmetry_group_IT_number 71
_symmetry_cell_setting 'orthorhombic'
loop_
_space_group_symop_operation_xyz
x,y,z
-x,-y,z
x,-y,-z
-x,y,-z
-x,-y,-z
x,y,-z
-x,y,z
x,-y,z
1/2+x,1/2+y,1/2+z
1/2-x,1/2-y,1/2+z
1/2+x,1/2-y,1/2-z
1/2-x,1/2+y,1/2-z
1/2-x,1/2-y,1/2-z
1/2+x,1/2+y,1/2-z
1/2-x,1/2+y,1/2+z
1/2+x,1/2-y,1/2+z
loop_
_atom_site_type_symbol
_atom_site_label
_atom_site_fract_x
_atom_site_fract_y
_atom_site_fract_z
Si Si1 0.500000 0.600457 0.055789
Si Si2 0.796810 0.402138 0.500000
Si Si3 0.295317 0.661102 0.387789
Si Si4 0.795767 0.000000 0.826991
Si Si5 0.293476 0.850183 0.631767
Si Si6 0.795300 0.500000 0.208766
O O1 0.500000 0.500000 0.051995
O O2 0.326049 0.623426 0.084810
O O3 0.500000 0.641227 0.000000
O O4 0.727626 0.500000 0.500000
O O5 0.747695 0.353941 0.447591
O O6 0.000000 0.408469 0.500000
O O7 0.500000 0.658784 0.385190
O O8 0.224457 0.583164 0.354852
O O9 0.248530 0.751149 0.362940
O O10 0.768994 0.000000 0.766479
O O11 0.000000 0.000000 0.835616
O O12 0.500000 0.857773 0.623203
O O13 0.246354 0.915222 0.677336
O O14 0.000000 0.500000 0.210800
#
# Coordination Sequence:
#
# PCOD9523731 Si02
#       6
#     8   8  16   8  16   8
#     4  11  24  40  64  95 125 165 211 254 310 368
#     4  11  23  37  59  90 127 164 201 251 312 367
#     4  10  22  40  60  89 124 162 205 252 306 373
#     4  10  22  39  63  90 118 157 213 257 304 371
#     4  10  23  42  63  91 128 165 208 253 312 372
#     4  10  22  42  63  84 120 163 204 261 315 361
#
# _framework density 19.850448
#
# number of rings (size 3 to 8) (size 9 to 14) (size 15 to 20)
#    0.000    1.750    2.500    0.375    5.250    3.000 
#    0.000    1.250    0.000    0.000    0.000    0.000 
#    0.000    0.000    0.000    0.000    0.000    0.000 
#
# Total GULP energy -178473.248542 kJ/mol
# GULP energy per Si atom -5577.289017 kJ/mol
# Density = 1.980527 g / cm^3
# Si number density = 19.850448 Si / 1000 Ang^3
#
#
#
# Elastic Constant Matrix: (Units=GPa)
#
#
# Indices 1 2 3 4 5 6 
#
# 1 26.5092 25.6123 10.9926 0.0000 0.0000 0.0000
# 2 25.6123 188.5079 87.5682 0.0000 0.0000 0.0000
# 3 10.9926 87.5682 145.4809 0.0000 0.0000 0.0000
# 4 0.0000 0.0000 0.0000 -3.4756 0.0000 0.0000
# 5 0.0000 0.0000 0.0000 0.0000 315.7870 0.0000
# 6 0.0000 0.0000 0.0000 0.0000 0.0000 4.9689
#
#
#
# Elastic Compliance Matrix: (Units=1/GPa)
#
#
# Indices 1 2 3 4 5 6 
#
# 1 0.043438 -0.006076 0.000375 0.000000 0.000000 0.000000
# 2 -0.006076 0.008214 -0.004485 0.000000 0.000000 0.000000
# 3 0.000375 -0.004485 0.009545 0.000000 0.000000 0.000000
# 4 0.000000 0.000000 0.000000 -0.287718 0.000000 0.000000
# 5 0.000000 0.000000 0.000000 0.000000 0.003167 0.000000
# 6 0.000000 0.000000 0.000000 0.000000 0.000000 0.201251
#
#
# Mechanical properties :
#
#
# Convention : Reuss Voigt Hill
#
# Bulk Modulus (GPa) = 24.49496 67.64935 46.07216
# Shear Modulus (GPa) = 421.00727 79.21106 250.10917
#
# Velocity S-wave (km/s) = 14.57909 6.32381 11.23700
# Velocity P-wave (km/s) = 17.19786 9.35277 13.84270
#
# Compressibility (1/GPa) = 0.04082472
#
# Stress axis : x y z
#
# Youngs Moduli (GPa) = 23.02148 121.74674 104.76705
#
# Poissons Ratio (x) = 0.73975 -0.03931
# Poissons Ratio (y) = 0.13988 0.46987
# Poissons Ratio (z) = -0.00864 0.54603
#
# Static dielectric constant tensor:
#      x y z
#    x 1.696680 0.000000 0.000000 
#    y 0.000000 1.802920 0.000000 
#    z 0.000000 0.000000 1.678010 
# 
# From -- ./inp_files/5625.got.cif
#   From: 2010.05.17/outbox.cif.g08.bks.cpg/sg71_3_cif.got.tgz:5625.got - 2010.06.03 16:22:01.
