data_PCOD9523681
_publ_section_title
;
Structure prediction by ZEFSAII (Michael W. Deem and Ramdas Pophale) SiO2 
 PCOD9523681
Probable space group: I M M M
;
_chemical_formula_sum "Si O2"
_cell_formula_units_Z 66
_cell_length_a 18.006715
_cell_length_b 9.291892
_cell_length_c 20.919563
_cell_angle_alpha 90.000000
_cell_angle_beta 90.000000
_cell_angle_gamma 90.000000
_cell_volume 3500.187039
_symmetry_space_group_name_H-M "I M M M"
_symmetry_group_IT_number 71
_symmetry_cell_setting 'orthorhombic'
loop_
_space_group_symop_operation_xyz
x,y,z
-x,-y,z
x,-y,-z
-x,y,-z
-x,-y,-z
x,y,-z
-x,y,z
x,-y,z
1/2+x,1/2+y,1/2+z
1/2-x,1/2-y,1/2+z
1/2+x,1/2-y,1/2-z
1/2-x,1/2+y,1/2-z
1/2-x,1/2-y,1/2-z
1/2+x,1/2+y,1/2-z
1/2-x,1/2+y,1/2+z
1/2+x,1/2-y,1/2+z
loop_
_atom_site_type_symbol
_atom_site_label
_atom_site_fract_x
_atom_site_fract_y
_atom_site_fract_z
Si Si1 0.820046 0.666656 0.126022
Si Si2 0.000000 0.000000 0.000000
Si Si3 0.084750 0.674375 0.751462
Si Si4 0.916942 0.706730 0.000000
Si Si5 0.410963 0.331452 0.000000
Si Si6 0.334919 0.173273 0.881463
O O1 0.797142 0.500000 0.137459
O O2 0.868848 0.718293 0.186327
O O3 0.870659 0.669078 0.062890
O O4 0.748348 0.765715 0.118068
O O5 0.064174 0.125171 0.000000
O O6 0.081371 0.500000 0.753638
O O7 0.126407 0.711688 0.686014
O O8 0.000000 0.728214 0.752704
O O9 0.000000 0.642974 0.000000
O O10 0.379113 0.250206 0.938298
O O11 0.388380 0.500000 0.000000
O O12 0.500000 0.324945 0.000000
O O13 0.336151 0.000000 0.888682
#
# Coordination Sequence:
#
# PCOD9523681 Si02
#       6
#    16   2  16   8   8  16
#     4  11  22  37  61  89 123 161 198 240 292 351
#     4   8  24  40  58  84 128 148 188 262 292 344
#     4   9  19  37  59  87 120 155 197 245 292 347
#     4  10  22  38  61  82 118 156 194 242 295 342
#     4  11  24  42  64  86 118 153 195 249 301 354
#     4  11  23  38  62  89 120 157 198 245 294 350
#
# _framework density 18.856134000000001
#
# number of rings (size 3 to 8) (size 9 to 14) (size 15 to 20)
#    0.364    1.333    0.000    4.364    1.697    3.879 
#    0.000    1.212    0.000    2.909    0.000    0.000 
#    0.000    0.000    0.000    0.000    0.000    0.000 
#
# Total GULP energy -183991.294098 kJ/mol
# GULP energy per Si atom -5575.493761 kJ/mol
# Density = 1.881322 g / cm^3
# Si number density = 18.856134 Si / 1000 Ang^3
#
#
#
# Elastic Constant Matrix: (Units=GPa)
#
#
# Indices 1 2 3 4 5 6 
#
# 1 150.0890 49.4920 89.1222 0.0000 0.0000 0.0000
# 2 49.4920 107.7074 44.5467 0.0000 0.0000 0.0000
# 3 89.1222 44.5467 187.3497 0.0000 0.0000 0.0000
# 4 0.0000 0.0000 0.0000 20.1802 0.0000 0.0000
# 5 0.0000 0.0000 0.0000 0.0000 38.5353 0.0000
# 6 0.0000 0.0000 0.0000 0.0000 0.0000 -0.4129
#
#
#
# Elastic Compliance Matrix: (Units=1/GPa)
#
#
# Indices 1 2 3 4 5 6 
#
# 1 0.010056 -0.002930 -0.004087 0.000000 0.000000 0.000000
# 2 -0.002930 0.011151 -0.001257 0.000000 0.000000 0.000000
# 3 -0.004087 -0.001257 0.007581 0.000000 0.000000 0.000000
# 4 0.000000 0.000000 0.000000 0.049553 0.000000 0.000000
# 5 0.000000 0.000000 0.000000 0.000000 0.025950 0.000000
# 6 0.000000 0.000000 0.000000 0.000000 0.000000 -2.421885
#
#
# Mechanical properties :
#
#
# Convention : Reuss Voigt Hill
#
# Bulk Modulus (GPa) = 81.71096 90.16308 85.93702
# Shear Modulus (GPa) = -2.17678 29.12620 13.47471
#
# Velocity S-wave (km/s) = -1.07560 3.93447 2.67611
# Velocity P-wave (km/s) = 6.47189 8.28011 7.43120
#
# Compressibility (1/GPa) = 0.01223826
#
# Stress axis : x y z
#
# Youngs Moduli (GPa) = 99.44612 89.67806 131.91491
#
# Poissons Ratio (x) = 0.26279 0.53910
# Poissons Ratio (y) = 0.29142 0.16587
# Poissons Ratio (z) = 0.40641 0.11276
#
# Static dielectric constant tensor:
#      x y z
#    x 1.634380 0.000000 0.000000 
#    y 0.000000 1.637110 0.000000 
#    z 0.000000 0.000000 1.632970 
# 
# From -- ./inp_files/53749.got.cif
#   From: 2010.05.17/outbox.cif.g08.bks.cpg/sg71_27_cif.got.tgz:53749.got - 2010.06.03 16:22:01.
