data_PCOD9523762
_publ_section_title
;
Structure prediction by ZEFSAII (Michael W. Deem and Ramdas Pophale) SiO2 
 PCOD9523762
Probable space group: I M M M
;
_chemical_formula_sum "Si O2"
_cell_formula_units_Z 96
_cell_length_a 15.165291
_cell_length_b 16.972243
_cell_length_c 19.279386
_cell_angle_alpha 90.000000
_cell_angle_beta 90.000000
_cell_angle_gamma 90.000000
_cell_volume 4962.301961
_symmetry_space_group_name_H-M "I M M M"
_symmetry_group_IT_number 71
_symmetry_cell_setting 'orthorhombic'
loop_
_space_group_symop_operation_xyz
x,y,z
-x,-y,z
x,-y,-z
-x,y,-z
-x,-y,-z
x,y,-z
-x,y,z
x,-y,z
1/2+x,1/2+y,1/2+z
1/2-x,1/2-y,1/2+z
1/2+x,1/2-y,1/2-z
1/2-x,1/2+y,1/2-z
1/2-x,1/2-y,1/2-z
1/2+x,1/2+y,1/2-z
1/2-x,1/2+y,1/2+z
1/2+x,1/2-y,1/2+z
loop_
_atom_site_type_symbol
_atom_site_label
_atom_site_fract_x
_atom_site_fract_y
_atom_site_fract_z
Si Si1 0.152650 0.352338 0.853026
Si Si2 0.149371 0.906701 0.319274
Si Si3 0.604700 0.912796 0.500000
Si Si4 0.196487 0.807630 0.803972
Si Si5 0.000000 0.654230 0.392232
Si Si6 0.500000 0.910467 0.744919
Si Si7 0.694716 0.093614 0.080110
Si Si8 0.000000 0.839096 0.419161
O O1 0.250280 0.384932 0.838628
O O2 0.132409 0.370466 0.931317
O O3 0.142224 0.259050 0.843081
O O4 0.085282 0.396196 0.802115
O O5 0.140046 0.865983 0.243891
O O6 0.084256 0.870439 0.376456
O O7 0.136959 0.000000 0.315710
O O8 0.500000 0.919117 0.500000
O O9 0.644307 0.000000 0.500000
O O10 0.250000 0.750000 0.750000
O O11 0.256975 0.855284 0.859333
O O12 0.000000 0.648970 0.308824
O O13 0.909646 0.612871 0.415753
O O14 0.000000 0.744358 0.416180
O O15 0.500000 0.000000 0.772036
O O16 0.708087 0.000000 0.092452
O O17 0.723042 0.111475 0.000000
O O18 0.000000 0.863849 0.500000
#
# Coordination Sequence:
#
# PCOD9523762 Si02
#       8
#    16  16   8  16   8   8  16   8
#     4  11  23  38  62  90 124 163 205 253 315 375
#     4  11  23  42  65  88 120 164 215 260 313 372
#     4  11  22  38  58  89 128 160 199 251 312 375
#     4  10  22  40  61  88 118 160 207 255 308 370
#     4  12  22  36  61  88 127 167 204 250 318 380
#     4  12  22  37  61  94 129 160 204 257 305 374
#     4  11  23  39  62  93 129 165 210 263 317 380
#     4  12  27  44  62  90 127 166 212 268 313 372
#
# _framework density 19.345860999999999
#
# number of rings (size 3 to 8) (size 9 to 14) (size 15 to 20)
#    0.000    0.917    0.833    8.750    2.333    1.333 
#    0.000    0.000    0.000    0.000    0.000    0.000 
#    0.000    5.333    0.000    0.000    0.000    0.000 
#
# Total GULP energy -268096.383708 kJ/mol
# GULP energy per Si atom -5585.341327 kJ/mol
# Density = 1.930183 g / cm^3
# Si number density = 19.345861 Si / 1000 Ang^3
#
#
#
# Elastic Constant Matrix: (Units=GPa)
#
#
# Indices 1 2 3 4 5 6 
#
# 1 75.1333 25.0439 35.2623 0.0000 0.0000 0.0000
# 2 25.0439 130.6654 63.9543 0.0000 0.0000 0.0000
# 3 35.2623 63.9543 162.2876 0.0000 0.0000 0.0000
# 4 0.0000 0.0000 0.0000 35.2119 0.0000 0.0000
# 5 0.0000 0.0000 0.0000 0.0000 27.1668 0.0000
# 6 0.0000 0.0000 0.0000 0.0000 0.0000 32.9288
#
#
#
# Elastic Compliance Matrix: (Units=1/GPa)
#
#
# Indices 1 2 3 4 5 6 
#
# 1 0.015085 -0.001594 -0.002649 0.000000 0.000000 0.000000
# 2 -0.001594 0.009651 -0.003457 0.000000 0.000000 0.000000
# 3 -0.002649 -0.003457 0.008100 0.000000 0.000000 0.000000
# 4 0.000000 0.000000 0.000000 0.028399 0.000000 0.000000
# 5 0.000000 0.000000 0.000000 0.000000 0.036810 0.000000
# 6 0.000000 0.000000 0.000000 0.000000 0.000000 0.030369
#
#
# Mechanical properties :
#
#
# Convention : Reuss Voigt Hill
#
# Bulk Modulus (GPa) = 57.35893 68.51193 62.93543
# Shear Modulus (GPa) = 33.41693 35.31654 34.36673
#
# Velocity S-wave (km/s) = 4.16064 4.27726 4.21935
# Velocity P-wave (km/s) = 7.26600 7.73850 7.50597
#
# Compressibility (1/GPa) = 0.01743408
#
# Stress axis : x y z
#
# Youngs Moduli (GPa) = 66.29306 103.62040 123.46074
#
# Poissons Ratio (x) = 0.16522 0.32708
# Poissons Ratio (y) = 0.10570 0.42676
# Poissons Ratio (z) = 0.17563 0.35818
#
# Static dielectric constant tensor:
#      x y z
#    x 1.663350 0.000000 0.000000 
#    y 0.000000 1.735110 0.000000 
#    z 0.000000 0.000000 1.699270 
# 
# From -- ./inp_files/53054.got.cif
#   From: 2010.05.17/outbox.cif.g08.bks.cpg/sg71_27_cif.got.tgz:53054.got - 2010.06.03 16:22:01.
