data_PCOD9523937
_publ_section_title
;
Structure prediction by ZEFSAII (Michael W. Deem and Ramdas Pophale) SiO2 
 PCOD9523937
Probable space group: I M M M
;
_chemical_formula_sum "Si O2"
_cell_formula_units_Z 58
_cell_length_a 10.040524
_cell_length_b 11.007992
_cell_length_c 26.214159
_cell_angle_alpha 90.000000
_cell_angle_beta 90.000000
_cell_angle_gamma 90.000000
_cell_volume 2897.346344
_symmetry_space_group_name_H-M "I M M M"
_symmetry_group_IT_number 71
_symmetry_cell_setting 'orthorhombic'
loop_
_space_group_symop_operation_xyz
x,y,z
-x,-y,z
x,-y,-z
-x,y,-z
-x,-y,-z
x,y,-z
-x,y,z
x,-y,z
1/2+x,1/2+y,1/2+z
1/2-x,1/2-y,1/2+z
1/2+x,1/2-y,1/2-z
1/2-x,1/2+y,1/2-z
1/2-x,1/2-y,1/2-z
1/2+x,1/2+y,1/2-z
1/2-x,1/2+y,1/2+z
1/2+x,1/2-y,1/2+z
loop_
_atom_site_type_symbol
_atom_site_label
_atom_site_fract_x
_atom_site_fract_y
_atom_site_fract_z
Si Si1 0.500000 0.144633 0.941461
Si Si2 0.150325 0.500000 0.060055
Si Si3 0.343866 0.642264 0.772182
Si Si4 0.000000 0.000000 0.000000
Si Si5 0.000000 0.867192 0.891037
Si Si6 0.232615 0.776591 0.616559
O O1 0.372127 0.190308 0.911083
O O2 0.500000 0.000000 0.943045
O O3 0.500000 0.189343 0.000000
O O4 0.227253 0.617040 0.078632
O O5 0.000000 0.500000 0.082059
O O6 0.140771 0.500000 0.000000
O O7 0.500000 0.659156 0.758337
O O8 0.307366 0.500000 0.760348
O O9 0.250000 0.750000 0.750000
O O10 0.327231 0.663697 0.832814
O O11 0.000000 0.895448 0.047069
O O12 0.131714 0.797268 0.874339
O O13 0.000000 0.000000 0.866641
#
# Coordination Sequence:
#
# PCOD9523937 Si02
#       6
#     8   8  16   2   8  16
#     4  11  26  41  66 101 145 186 230 283 346 414
#     4  11  24  37  67 104 139 183 233 280 333 405
#     4  11  27  51  75 103 140 180 231 299 363 431
#     4   8  24  40  60  96 144 188 248 286 326 388
#     4  10  24  37  65  93 135 188 232 281 333 394
#     4  12  23  45  67  99 140 181 231 284 348 419
#
# _framework density 20.018318000000001
#
# number of rings (size 3 to 8) (size 9 to 14) (size 15 to 20)
#    0.414    0.552    4.138    1.655    5.793    3.310 
#    0.000    1.379    0.000    0.000    0.000    0.000 
#    0.000    0.000    0.000    0.000    0.000    0.000 
#
# Total GULP energy -161693.280214 kJ/mol
# GULP energy per Si atom -5575.630352 kJ/mol
# Density = 1.997276 g / cm^3
# Si number density = 20.018318 Si / 1000 Ang^3
#
#
#
# Elastic Constant Matrix: (Units=GPa)
#
#
# Indices 1 2 3 4 5 6 
#
# 1 144.2896 71.5044 19.9545 0.0000 0.0000 0.0000
# 2 71.5044 153.5538 23.6389 0.0000 0.0000 0.0000
# 3 19.9545 23.6389 60.9185 0.0000 0.0000 0.0000
# 4 0.0000 0.0000 0.0000 44.7494 0.0000 0.0000
# 5 0.0000 0.0000 0.0000 0.0000 28.0735 0.0000
# 6 0.0000 0.0000 0.0000 0.0000 0.0000 31.7829
#
#
#
# Elastic Compliance Matrix: (Units=1/GPa)
#
#
# Indices 1 2 3 4 5 6 
#
# 1 0.009124 -0.004030 -0.001425 0.000000 0.000000 0.000000
# 2 -0.004030 0.008706 -0.002058 0.000000 0.000000 0.000000
# 3 -0.001425 -0.002058 0.017681 0.000000 0.000000 0.000000
# 4 0.000000 0.000000 0.000000 0.022347 0.000000 0.000000
# 5 0.000000 0.000000 0.000000 0.000000 0.035621 0.000000
# 6 0.000000 0.000000 0.000000 0.000000 0.000000 0.031463
#
#
# Mechanical properties :
#
#
# Convention : Reuss Voigt Hill
#
# Bulk Modulus (GPa) = 48.81598 65.43972 57.12785
# Shear Modulus (GPa) = 34.06082 37.16544 35.61313
#
# Velocity S-wave (km/s) = 4.12938 4.31347 4.22243
# Velocity P-wave (km/s) = 6.86835 7.58742 7.23682
#
# Compressibility (1/GPa) = 0.02048510
#
# Stress axis : x y z
#
# Youngs Moduli (GPa) = 109.59518 114.86808 56.55818
#
# Poissons Ratio (x) = 0.46287 0.08061
# Poissons Ratio (y) = 0.44162 0.11641
# Poissons Ratio (z) = 0.15619 0.23643
#
# Static dielectric constant tensor:
#      x y z
#    x 1.638910 0.000000 0.000000 
#    y 0.000000 1.683970 0.000000 
#    z 0.000000 0.000000 1.713640 
# 
# From -- ./inp_files/62720.got.cif
#   From: 2010.05.17/outbox.cif.g08.bks.cpg/sg71_32_cif.got.tgz:62720.got - 2010.06.03 16:22:01.
