data_PCOD9523901
_publ_section_title
;
Structure prediction by ZEFSAII (Michael W. Deem and Ramdas Pophale) SiO2 
 PCOD9523901
Probable space group: I M M M
;
_chemical_formula_sum "Si O2"
_cell_formula_units_Z 88
_cell_length_a 20.103955
_cell_length_b 12.001503
_cell_length_c 18.487620
_cell_angle_alpha 90.000000
_cell_angle_beta 90.000000
_cell_angle_gamma 90.000000
_cell_volume 4460.649993
_symmetry_space_group_name_H-M "I M M M"
_symmetry_group_IT_number 71
_symmetry_cell_setting 'orthorhombic'
loop_
_space_group_symop_operation_xyz
x,y,z
-x,-y,z
x,-y,-z
-x,y,-z
-x,-y,-z
x,y,-z
-x,y,z
x,-y,z
1/2+x,1/2+y,1/2+z
1/2-x,1/2-y,1/2+z
1/2+x,1/2-y,1/2-z
1/2-x,1/2+y,1/2-z
1/2-x,1/2-y,1/2-z
1/2+x,1/2+y,1/2-z
1/2-x,1/2+y,1/2+z
1/2+x,1/2-y,1/2+z
loop_
_atom_site_type_symbol
_atom_site_label
_atom_site_fract_x
_atom_site_fract_y
_atom_site_fract_z
Si Si1 0.195780 0.211318 0.919414
Si Si2 0.779463 0.122826 0.233418
Si Si3 0.664023 0.702146 0.869433
Si Si4 0.576820 0.868699 0.620745
Si Si5 0.427103 0.631528 0.000000
Si Si6 0.426148 0.868905 0.206430
O O1 0.193912 0.132928 0.848339
O O2 0.263901 0.280497 0.905614
O O3 0.132339 0.292509 0.915060
O O4 0.198784 0.160715 0.000000
O O5 0.750000 0.250000 0.250000
O O6 0.831065 0.122937 0.299707
O O7 0.743699 0.000000 0.239049
O O8 0.613771 0.663224 0.929637
O O9 0.633501 0.816157 0.837988
O O10 0.500000 0.842775 0.601180
O O11 0.583404 0.852342 0.707564
O O12 0.587530 0.000000 0.605743
O O13 0.433360 0.500000 0.000000
O O14 0.500000 0.684559 0.000000
O O15 0.500000 0.823281 0.187790
O O16 0.427723 0.000000 0.193920
#
# Coordination Sequence:
#
# PCOD9523901 Si02
#       6
#    16  16  16  16   8  16
#     4  11  23  39  59  92 131 167 213 266 327 389
#     4  10  23  41  65  93 127 172 221 270 326 390
#     4  11  21  40  62  90 125 164 215 258 323 384
#     4   9  19  37  62  94 129 167 217 276 335 393
#     4  11  24  40  59  85 122 164 207 260 319 383
#     4   9  18  35  63  96 128 165 211 267 324 384
#
# _framework density 19.728065999999998
#
# number of rings (size 3 to 8) (size 9 to 14) (size 15 to 20)
#    0.000    1.909    2.727    2.182    0.000    7.636 
#    0.000    1.364    0.000    3.273    0.000    1.273 
#    0.000    0.000    0.000    0.000    0.000    0.000 
#
# Total GULP energy -245032.300286 kJ/mol
# GULP energy per Si atom -5568.915916 kJ/mol
# Density = 1.968316 g / cm^3
# Si number density = 19.728066 Si / 1000 Ang^3
#
#
#
# Elastic Constant Matrix: (Units=GPa)
#
#
# Indices 1 2 3 4 5 6 
#
# 1 114.1136 34.9791 39.7763 0.0000 0.0000 0.0000
# 2 34.9791 86.1906 35.7769 0.0000 0.0000 0.0000
# 3 39.7763 35.7769 141.0233 0.0000 0.0000 0.0000
# 4 0.0000 0.0000 0.0000 6.8934 0.0000 0.0000
# 5 0.0000 0.0000 0.0000 0.0000 29.3054 0.0000
# 6 0.0000 0.0000 0.0000 0.0000 0.0000 25.3729
#
#
#
# Elastic Compliance Matrix: (Units=1/GPa)
#
#
# Indices 1 2 3 4 5 6 
#
# 1 0.010542 -0.003402 -0.002110 0.000000 0.000000 0.000000
# 2 -0.003402 0.014066 -0.002609 0.000000 0.000000 0.000000
# 3 -0.002110 -0.002609 0.008348 0.000000 0.000000 0.000000
# 4 0.000000 0.000000 0.000000 0.145066 0.000000 0.000000
# 5 0.000000 0.000000 0.000000 0.000000 0.034123 0.000000
# 6 0.000000 0.000000 0.000000 0.000000 0.000000 0.039412
#
#
# Mechanical properties :
#
#
# Convention : Reuss Voigt Hill
#
# Bulk Modulus (GPa) = 59.83350 62.48801 61.16076
# Shear Modulus (GPa) = 18.29019 27.70070 22.99544
#
# Velocity S-wave (km/s) = 3.04816 3.75123 3.41782
# Velocity P-wave (km/s) = 6.54090 7.10674 6.82968
#
# Compressibility (1/GPa) = 0.01671304
#
# Stress axis : x y z
#
# Youngs Moduli (GPa) = 94.86203 71.09426 119.78832
#
# Poissons Ratio (x) = 0.24188 0.25278
# Poissons Ratio (y) = 0.32274 0.31251
# Poissons Ratio (z) = 0.20018 0.18547
#
# Static dielectric constant tensor:
#      x y z
#    x 1.768950 0.000000 0.000000 
#    y 0.000000 1.719440 0.000000 
#    z 0.000000 0.000000 1.793780 
# 
# From -- ./inp_files/47116.got.cif
#   From: 2010.05.17/outbox.cif.g08.bks.cpg/sg71_24_cif.got.tgz:47116.got - 2010.06.03 16:22:01.
