data_PCOD9523917
_publ_section_title
;
Structure prediction by ZEFSAII (Michael W. Deem and Ramdas Pophale) SiO2 
 PCOD9523917
Probable space group: I M M M
;
_chemical_formula_sum "Si O2"
_cell_formula_units_Z 72
_cell_length_a 9.472730
_cell_length_b 14.737859
_cell_length_c 27.566304
_cell_angle_alpha 90.000000
_cell_angle_beta 90.000000
_cell_angle_gamma 90.000000
_cell_volume 3848.469928
_symmetry_space_group_name_H-M "I M M M"
_symmetry_group_IT_number 71
_symmetry_cell_setting 'orthorhombic'
loop_
_space_group_symop_operation_xyz
x,y,z
-x,-y,z
x,-y,-z
-x,y,-z
-x,-y,-z
x,y,-z
-x,y,z
x,-y,z
1/2+x,1/2+y,1/2+z
1/2-x,1/2-y,1/2+z
1/2+x,1/2-y,1/2-z
1/2-x,1/2+y,1/2-z
1/2-x,1/2-y,1/2-z
1/2+x,1/2+y,1/2-z
1/2-x,1/2+y,1/2+z
1/2+x,1/2-y,1/2+z
loop_
_atom_site_type_symbol
_atom_site_label
_atom_site_fract_x
_atom_site_fract_y
_atom_site_fract_z
Si Si1 0.172416 0.631250 0.867737
Si Si2 0.330842 0.000000 0.192831
Si Si3 0.251080 0.837176 0.120715
Si Si4 0.500000 0.605706 0.446785
Si Si5 0.000000 0.391978 0.442480
Si Si6 0.671892 0.500000 0.941415
Si Si7 0.672740 0.500000 0.794541
O O1 0.207595 0.737205 0.863224
O O2 0.247741 0.584928 0.915054
O O3 0.253984 0.583208 0.823272
O O4 0.000000 0.617334 0.868007
O O5 0.293017 0.090435 0.161992
O O6 0.500000 0.000000 0.203201
O O7 0.232977 0.000000 0.240284
O O8 0.373759 0.838992 0.081587
O O9 0.127833 0.873068 0.087449
O O10 0.500000 0.500000 0.454705
O O11 0.500000 0.651246 0.500000
O O12 0.000000 0.500000 0.428344
O O13 0.000000 0.389758 0.500000
O O14 0.500000 0.500000 0.931320
O O15 0.688606 0.500000 0.000000
O O16 0.500000 0.500000 0.796938
#
# Coordination Sequence:
#
# PCOD9523917 Si02
#       7
#    16   8  16   8   8   8   8
#     4  11  24  44  67  94 133 170 213 267 327 387
#     4  12  25  45  69  96 133 168 216 267 328 390
#     4  12  23  40  65  97 133 173 218 266 317 383
#     4  11  22  38  60  92 138 180 214 259 314 379
#     4  11  22  40  62  92 134 182 222 259 316 377
#     4  10  23  42  66  94 127 170 221 274 320 377
#     4  11  27  46  74  97 120 165 213 275 336 389
#
# _framework density 18.708734
#
# number of rings (size 3 to 8) (size 9 to 14) (size 15 to 20)
#    0.000    0.778    4.444    4.000    4.667    5.333 
#    0.000    0.000    0.000    0.000    0.000    0.000 
#    0.000    0.000    0.000    0.000    0.000    0.000 
#
# Total GULP energy -200560.596560 kJ/mol
# GULP energy per Si atom -5571.127682 kJ/mol
# Density = 1.866615 g / cm^3
# Si number density = 18.708734 Si / 1000 Ang^3
#
#
#
# Elastic Constant Matrix: (Units=GPa)
#
#
# Indices 1 2 3 4 5 6 
#
# 1 212.8669 50.7450 65.5219 0.0000 0.0000 0.0000
# 2 50.7450 136.0775 50.1942 0.0000 0.0000 0.0000
# 3 65.5219 50.1942 127.7217 0.0000 0.0000 0.0000
# 4 0.0000 0.0000 0.0000 4.3837 0.0000 0.0000
# 5 0.0000 0.0000 0.0000 0.0000 47.5039 0.0000
# 6 0.0000 0.0000 0.0000 0.0000 0.0000 44.3618
#
#
#
# Elastic Compliance Matrix: (Units=1/GPa)
#
#
# Indices 1 2 3 4 5 6 
#
# 1 0.005751 -0.001235 -0.002465 0.000000 0.000000 0.000000
# 2 -0.001235 0.008860 -0.002848 0.000000 0.000000 0.000000
# 3 -0.002465 -0.002848 0.010213 0.000000 0.000000 0.000000
# 4 0.000000 0.000000 0.000000 0.228119 0.000000 0.000000
# 5 0.000000 0.000000 0.000000 0.000000 0.021051 0.000000
# 6 0.000000 0.000000 0.000000 0.000000 0.000000 0.022542
#
#
# Mechanical properties :
#
#
# Convention : Reuss Voigt Hill
#
# Bulk Modulus (GPa) = 85.26931 89.95423 87.61177
# Shear Modulus (GPa) = 15.94683 39.93022 27.93853
#
# Velocity S-wave (km/s) = 2.92271 4.62487 3.86857
# Velocity P-wave (km/s) = 7.55420 8.75814 8.17835
#
# Compressibility (1/GPa) = 0.01172755
#
# Stress axis : x y z
#
# Youngs Moduli (GPa) = 173.88428 112.86602 97.91176
#
# Poissons Ratio (x) = 0.13944 0.24133
# Poissons Ratio (y) = 0.21482 0.27887
# Poissons Ratio (z) = 0.42858 0.32146
#
# Static dielectric constant tensor:
#      x y z
#    x 1.608810 0.000000 0.000000 
#    y 0.000000 1.701720 0.000000 
#    z 0.000000 0.000000 1.682610 
# 
# From -- ./inp_files/62932.got.cif
#   From: 2010.05.17/outbox.cif.g08.bks.cpg/sg71_32_cif.got.tgz:62932.got - 2010.06.03 16:22:01.
