data_PCOD9523277
_publ_section_title
;
Structure prediction by ZEFSAII (Michael W. Deem and Ramdas Pophale) SiO2 
 PCOD9523277
Probable space group: I M M M
;
_chemical_formula_sum "Si O2"
_cell_formula_units_Z 76
_cell_length_a 15.696541
_cell_length_b 7.211252
_cell_length_c 24.890275
_cell_angle_alpha 90.000000
_cell_angle_beta 90.000000
_cell_angle_gamma 90.000000
_cell_volume 2817.372856
_symmetry_space_group_name_H-M "I M M M"
_symmetry_group_IT_number 71
_symmetry_cell_setting 'orthorhombic'
loop_
_space_group_symop_operation_xyz
x,y,z
-x,-y,z
x,-y,-z
-x,y,-z
-x,-y,-z
x,y,-z
-x,y,z
x,-y,z
1/2+x,1/2+y,1/2+z
1/2-x,1/2-y,1/2+z
1/2+x,1/2-y,1/2-z
1/2-x,1/2+y,1/2-z
1/2-x,1/2-y,1/2-z
1/2+x,1/2+y,1/2-z
1/2-x,1/2+y,1/2+z
1/2+x,1/2-y,1/2+z
loop_
_atom_site_type_symbol
_atom_site_label
_atom_site_fract_x
_atom_site_fract_y
_atom_site_fract_z
Si Si1 0.366632 0.211465 0.057878
Si Si2 0.344841 0.776677 0.289978
Si Si3 0.500000 0.211905 0.564107
Si Si4 0.313600 0.777077 0.594901
Si Si5 0.000000 0.000000 0.805760
Si Si6 0.401992 0.224040 0.177573
O O1 0.263944 0.208499 0.059551
O O2 0.390222 0.292781 0.116364
O O3 0.398167 0.000000 0.058549
O O4 0.393041 0.292150 0.000000
O O5 0.290555 0.732064 0.343356
O O6 0.427792 0.662485 0.305039
O O7 0.338537 0.720039 0.226820
O O8 0.355079 0.000000 0.290197
O O9 0.500000 0.208683 0.500000
O O10 0.591490 0.291874 0.580928
O O11 0.500000 0.000000 0.585079
O O12 0.315437 0.000000 0.588304
O O13 0.500000 0.274857 0.193389
O O14 0.397986 0.000000 0.175435
#
# Coordination Sequence:
#
# PCOD9523277 Si02
#       6
#    16  16   8  16   4  16
#     4  10  22  39  59  86 120 158 205 259 311 367
#     4  10  21  37  59  91 127 162 204 251 306 373
#     4   9  17  30  52  78 105 145 197 239 281 354
#     4  10  21  38  59  83 117 160 201 248 304 365
#     4  12  20  32  62  96 126 168 194 250 312 366
#     4   9  18  37  62  85 120 161 199 252 310 372
#
# _framework density 26.975484999999999
#
# number of rings (size 3 to 8) (size 9 to 14) (size 15 to 20)
#    0.000    2.211    1.053    1.579    1.474    4.211 
#    1.895    2.105    0.000    1.895    0.000    2.211 
#    0.000    0.000    0.000    0.000    0.000    0.000 
#
# Total GULP energy -211601.669746 kJ/mol
# GULP energy per Si atom -5568.464993 kJ/mol
# Density = 2.691409 g / cm^3
# Si number density = 26.975485 Si / 1000 Ang^3
#
#
#
# Elastic Constant Matrix: (Units=GPa)
#
#
# Indices 1 2 3 4 5 6 
#
# 1 78.2874 -9.7964 32.0283 0.0000 0.0000 0.0000
# 2 -9.7964 114.7931 6.4919 0.0000 0.0000 0.0000
# 3 32.0283 6.4919 231.4360 0.0000 0.0000 0.0000
# 4 0.0000 0.0000 0.0000 -5.8372 0.0000 0.0000
# 5 0.0000 0.0000 0.0000 0.0000 34.2475 0.0000
# 6 0.0000 0.0000 0.0000 0.0000 0.0000 13.3173
#
#
#
# Elastic Compliance Matrix: (Units=1/GPa)
#
#
# Indices 1 2 3 4 5 6 
#
# 1 0.013726 0.001281 -0.001935 0.000000 0.000000 0.000000
# 2 0.001281 0.008845 -0.000425 0.000000 0.000000 0.000000
# 3 -0.001935 -0.000425 0.004601 0.000000 0.000000 0.000000
# 4 0.000000 0.000000 0.000000 -0.171314 0.000000 0.000000
# 5 0.000000 0.000000 0.000000 0.000000 0.029199 0.000000
# 6 0.000000 0.000000 0.000000 0.000000 0.000000 0.075090
#
#
# Mechanical properties :
#
#
# Convention : Reuss Voigt Hill
#
# Bulk Modulus (GPa) = 39.98259 53.55155 46.76707
# Shear Modulus (GPa) = -170.31864 34.73169 -67.79347
#
# Velocity S-wave (km/s) = -7.95458 3.59211 -5.01857
# Velocity P-wave (km/s) = 8.33746 6.09092 4.02578
#
# Compressibility (1/GPa) = 0.02501089
#
# Stress axis : x y z
#
# Youngs Moduli (GPa) = 72.85709 113.06232 217.36213
#
# Poissons Ratio (x) = -0.14481 0.42068
# Poissons Ratio (y) = -0.09331 0.09245
# Poissons Ratio (z) = 0.14101 0.04809
#
# Static dielectric constant tensor:
#      x y z
#    x 2.109230 0.000000 0.000000 
#    y 0.000000 2.047260 0.000000 
#    z 0.000000 0.000000 2.167490 
# 
# From -- ./inp_files/65837.got.cif
#   From: 2010.05.17/outbox.cif.g08.bks.cpg/sg71_33_cif.got.tgz:65837.got - 2010.06.03 16:22:01.
