data_PCOD9523380
_publ_section_title
;
Structure prediction by ZEFSAII (Michael W. Deem and Ramdas Pophale) SiO2 
 PCOD9523380
Probable space group: I M M M
;
_chemical_formula_sum "Si O2"
_cell_formula_units_Z 72
_cell_length_a 8.932795
_cell_length_b 22.681524
_cell_length_c 19.534011
_cell_angle_alpha 90.000000
_cell_angle_beta 90.000000
_cell_angle_gamma 90.000000
_cell_volume 3957.774330
_symmetry_space_group_name_H-M "I M M M"
_symmetry_group_IT_number 71
_symmetry_cell_setting 'orthorhombic'
loop_
_space_group_symop_operation_xyz
x,y,z
-x,-y,z
x,-y,-z
-x,y,-z
-x,-y,-z
x,y,-z
-x,y,z
x,-y,z
1/2+x,1/2+y,1/2+z
1/2-x,1/2-y,1/2+z
1/2+x,1/2-y,1/2-z
1/2-x,1/2+y,1/2-z
1/2-x,1/2-y,1/2-z
1/2+x,1/2+y,1/2-z
1/2-x,1/2+y,1/2+z
1/2+x,1/2-y,1/2+z
loop_
_atom_site_type_symbol
_atom_site_label
_atom_site_fract_x
_atom_site_fract_y
_atom_site_fract_z
Si Si1 0.821529 0.848923 0.579584
Si Si2 0.177588 0.000000 0.081559
Si Si3 0.820394 0.430915 0.192175
Si Si4 0.820457 0.611953 0.656412
Si Si5 0.821308 0.221819 0.080552
O O1 0.787386 0.862747 0.500000
O O2 0.760054 0.898388 0.630099
O O3 0.744491 0.786311 0.595700
O O4 0.000000 0.843060 0.586326
O O5 0.252350 0.057660 0.113971
O O6 0.000000 0.000000 0.095795
O O7 0.198168 0.000000 0.000000
O O8 0.780579 0.500000 0.196672
O O9 0.783382 0.399535 0.264057
O O10 0.000000 0.427202 0.183001
O O11 0.753293 0.672099 0.627012
O O12 0.000000 0.611910 0.649597
O O13 0.000000 0.221826 0.089651
O O14 0.790035 0.209189 0.000000
#
# Coordination Sequence:
#
# PCOD9523380 Si02
#       5
#    16   8  16  16  16
#     4  10  22  40  62  89 117 148 192 243 295 351
#     4  11  23  37  55  83 118 157 200 241 285 342
#     4  10  22  41  61  84 117 155 196 240 289 349
#     4  11  22  38  59  85 118 156 197 242 289 341
#     4  10  21  38  60  87 119 155 196 241 291 349
#
# _framework density 18.192043999999999
#
# number of rings (size 3 to 8) (size 9 to 14) (size 15 to 20)
#    0.000    1.667    1.111    3.000    0.000    9.778 
#    0.000    2.222    0.000    0.000    0.000    0.000 
#    0.000    0.000    0.000    0.000    0.000    0.000 
#
# Total GULP energy -201211.635478 kJ/mol
# GULP energy per Si atom -5589.212097 kJ/mol
# Density = 1.815064 g / cm^3
# Si number density = 18.192044 Si / 1000 Ang^3
#
#
#
# Elastic Constant Matrix: (Units=GPa)
#
#
# Indices 1 2 3 4 5 6 
#
# 1 65.9263 55.7173 67.7222 0.0000 0.0000 0.0000
# 2 55.7173 108.9122 83.9804 0.0000 0.0000 0.0000
# 3 67.7222 83.9804 108.9603 0.0000 0.0000 0.0000
# 4 0.0000 0.0000 0.0000 50.2611 0.0000 0.0000
# 5 0.0000 0.0000 0.0000 0.0000 34.2292 0.0000
# 6 0.0000 0.0000 0.0000 0.0000 0.0000 40.5498
#
#
#
# Elastic Compliance Matrix: (Units=1/GPa)
#
#
# Indices 1 2 3 4 5 6 
#
# 1 0.042455 -0.003383 -0.023780 0.000000 0.000000 0.000000
# 2 -0.003383 0.022902 -0.015549 0.000000 0.000000 0.000000
# 3 -0.023780 -0.015549 0.035942 0.000000 0.000000 0.000000
# 4 0.000000 0.000000 0.000000 0.019896 0.000000 0.000000
# 5 0.000000 0.000000 0.000000 0.000000 0.029215 0.000000
# 6 0.000000 0.000000 0.000000 0.000000 0.000000 0.024661
#
#
# Mechanical properties :
#
#
# Convention : Reuss Voigt Hill
#
# Bulk Modulus (GPa) = 62.99020 77.62652 70.30836
# Shear Modulus (GPa) = 18.81217 30.09995 24.45606
#
# Velocity S-wave (km/s) = 3.21921 4.07205 3.67048
# Velocity P-wave (km/s) = 6.96549 8.05432 7.52961
#
# Compressibility (1/GPa) = 0.01587549
#
# Stress axis : x y z
#
# Youngs Moduli (GPa) = 23.55429 43.66468 27.82286
#
# Poissons Ratio (x) = 0.14772 0.66162
# Poissons Ratio (y) = 0.07968 0.43261
# Poissons Ratio (z) = 0.56012 0.67893
#
# Static dielectric constant tensor:
#      x y z
#    x 1.605040 0.000000 0.000000 
#    y 0.000000 1.587810 0.000000 
#    z 0.000000 0.000000 1.607270 
# 
# From -- ./inp_files/7881.got.cif
#   From: 2010.05.17/outbox.cif.g08.bks.cpg/sg71_4_cif.got.tgz:7881.got - 2010.06.03 16:22:01.
