data_PCOD9523694
_publ_section_title
;
Structure prediction by ZEFSAII (Michael W. Deem and Ramdas Pophale) SiO2 
 PCOD9523694
Probable space group: I M M M
;
_chemical_formula_sum "Si O2"
_cell_formula_units_Z 96
_cell_length_a 19.190263
_cell_length_b 29.027880
_cell_length_c 8.977894
_cell_angle_alpha 90.000000
_cell_angle_beta 90.000000
_cell_angle_gamma 90.000000
_cell_volume 5001.159658
_symmetry_space_group_name_H-M "I M M M"
_symmetry_group_IT_number 71
_symmetry_cell_setting 'orthorhombic'
loop_
_space_group_symop_operation_xyz
x,y,z
-x,-y,z
x,-y,-z
-x,y,-z
-x,-y,-z
x,y,-z
-x,y,z
x,-y,z
1/2+x,1/2+y,1/2+z
1/2-x,1/2-y,1/2+z
1/2+x,1/2-y,1/2-z
1/2-x,1/2+y,1/2-z
1/2-x,1/2-y,1/2-z
1/2+x,1/2+y,1/2-z
1/2-x,1/2+y,1/2+z
1/2+x,1/2-y,1/2+z
loop_
_atom_site_type_symbol
_atom_site_label
_atom_site_fract_x
_atom_site_fract_y
_atom_site_fract_z
Si Si1 0.415601 0.700941 0.830653
Si Si2 0.175168 0.382132 0.827110
Si Si3 0.917000 0.553103 0.664355
Si Si4 0.418705 0.797493 0.320116
Si Si5 0.713446 0.447979 0.320873
Si Si6 0.919966 0.105707 0.821157
O O1 0.500000 0.699712 0.834519
O O2 0.398824 0.747454 0.742387
O O3 0.394912 0.653675 0.750852
O O4 0.389655 0.702731 0.000000
O O5 0.113404 0.418580 0.799207
O O6 0.139031 0.334889 0.771706
O O7 0.238158 0.407341 0.742806
O O8 0.192952 0.376728 0.000000
O O9 0.894225 0.570937 0.500000
O O10 0.895130 0.500000 0.672060
O O11 0.000000 0.554514 0.666527
O O12 0.419030 0.796877 0.500000
O O13 0.500000 0.807954 0.274010
O O14 0.720173 0.448050 0.500000
O O15 0.730166 0.500000 0.268041
O O16 0.634025 0.434428 0.283355
O O17 0.000000 0.096752 0.775206
O O18 0.919744 0.111302 0.000000
#
# Coordination Sequence:
#
# PCOD9523694 Si02
#       6
#    16  16  16  16  16  16
#     4   9  17  30  52  83 113 138 168 210 261 316
#     4  11  22  34  50  74 105 142 182 222 265 312
#     4   9  18  32  49  69  95 131 176 224 271 316
#     4   9  18  33  52  75 106 143 182 222 260 300
#     4  10  22  39  57  78 106 140 177 218 266 321
#     4   9  18  35  60  85 107 134 169 212 265 323
#
# _framework density 19.195547000000001
#
# number of rings (size 3 to 8) (size 9 to 14) (size 15 to 20)
#    0.000    2.500    0.000    2.500    0.000    8.000 
#    0.000    5.000    0.000    0.000    0.000    3.500 
#    0.000    0.000    0.000    0.000    0.000    0.000 
#
# Total GULP energy -267467.407427 kJ/mol
# GULP energy per Si atom -5572.237655 kJ/mol
# Density = 1.915186 g / cm^3
# Si number density = 19.195547 Si / 1000 Ang^3
#
#
#
# Elastic Constant Matrix: (Units=GPa)
#
#
# Indices 1 2 3 4 5 6 
#
# 1 81.7808 49.4373 17.6216 0.0000 0.0000 0.0000
# 2 49.4373 72.8507 16.6499 0.0000 0.0000 0.0000
# 3 17.6216 16.6499 14.6499 0.0000 0.0000 0.0000
# 4 0.0000 0.0000 0.0000 21.8546 0.0000 0.0000
# 5 0.0000 0.0000 0.0000 0.0000 18.8065 0.0000
# 6 0.0000 0.0000 0.0000 0.0000 0.0000 46.7008
#
#
#
# Elastic Compliance Matrix: (Units=1/GPa)
#
#
# Indices 1 2 3 4 5 6 
#
# 1 0.022449 -0.012243 -0.013088 0.000000 0.000000 0.000000
# 2 -0.012243 0.025220 -0.013937 0.000000 0.000000 0.000000
# 3 -0.013088 -0.013937 0.099843 0.000000 0.000000 0.000000
# 4 0.000000 0.000000 0.000000 0.045757 0.000000 0.000000
# 5 0.000000 0.000000 0.000000 0.000000 0.053173 0.000000
# 6 0.000000 0.000000 0.000000 0.000000 0.000000 0.021413
#
#
# Mechanical properties :
#
#
# Convention : Reuss Voigt Hill
#
# Bulk Modulus (GPa) = 14.49794 37.41099 25.95447
# Shear Modulus (GPa) = 13.53611 23.17722 18.35667
#
# Velocity S-wave (km/s) = 2.65838 3.47857 3.09576
# Velocity P-wave (km/s) = 4.12211 5.97208 5.13116
#
# Compressibility (1/GPa) = 0.06897533
#
# Stress axis : x y z
#
# Youngs Moduli (GPa) = 44.54580 39.65103 10.01577
#
# Poissons Ratio (x) = 0.48544 0.13109
# Poissons Ratio (y) = 0.54536 0.13959
# Poissons Ratio (z) = 0.58303 0.55262
#
# Static dielectric constant tensor:
#      x y z
#    x 1.705750 0.000000 0.000000 
#    y 0.000000 1.654960 0.000000 
#    z 0.000000 0.000000 1.671780 
# 
# From -- ./inp_files/10973.got.cif
#   From: 2010.05.17/outbox.cif.g08.bks.cpg/sg71_6_cif.got.tgz:10973.got - 2010.06.03 16:22:01.
