data_PCOD9523231
_publ_section_title
;
Structure prediction by ZEFSAII (Michael W. Deem and Ramdas Pophale) SiO2 
 PCOD9523231
Probable space group: I M M M
;
_chemical_formula_sum "Si O2"
_cell_formula_units_Z 68
_cell_length_a 15.285390
_cell_length_b 9.092535
_cell_length_c 23.235946
_cell_angle_alpha 90.000000
_cell_angle_beta 90.000000
_cell_angle_gamma 90.000000
_cell_volume 3229.400172
_symmetry_space_group_name_H-M "I M M M"
_symmetry_group_IT_number 71
_symmetry_cell_setting 'orthorhombic'
loop_
_space_group_symop_operation_xyz
x,y,z
-x,-y,z
x,-y,-z
-x,y,-z
-x,-y,-z
x,y,-z
-x,y,z
x,-y,z
1/2+x,1/2+y,1/2+z
1/2-x,1/2-y,1/2+z
1/2+x,1/2-y,1/2-z
1/2-x,1/2+y,1/2-z
1/2-x,1/2-y,1/2-z
1/2+x,1/2+y,1/2-z
1/2-x,1/2+y,1/2+z
1/2+x,1/2-y,1/2+z
loop_
_atom_site_type_symbol
_atom_site_label
_atom_site_fract_x
_atom_site_fract_y
_atom_site_fract_z
Si Si1 0.141489 0.828741 0.589960
Si Si2 0.345319 0.171161 0.436175
Si Si3 0.393555 0.169551 0.792664
Si Si4 0.500000 0.772812 0.000000
Si Si5 0.895438 0.165196 0.178985
O O1 0.239998 0.823235 0.566956
O O2 0.139151 0.767851 0.654554
O O3 0.076153 0.737290 0.550149
O O4 0.112517 0.000000 0.587452
O O5 0.373873 0.219288 0.500000
O O6 0.378273 0.265646 0.383065
O O7 0.371287 0.000000 0.428708
O O8 0.500000 0.174177 0.794123
O O9 0.363179 0.234134 0.731490
O O10 0.367276 0.000000 0.799400
O O11 0.000000 0.157109 0.185967
O O12 0.859536 0.000000 0.182973
#
# Coordination Sequence:
#
# PCOD9523231 Si02
#       5
#    16  16  16   4  16
#     4  11  21  36  61  90 121 160 201 238 282 343
#     4  10  22  39  59  88 122 155 194 240 293 351
#     4  10  21  37  58  87 120 155 196 245 297 347
#     4  12  21  36  65  94 123 164 203 236 277 338
#     4  10  22  41  64  87 112 150 199 247 297 353
#
# _framework density 21.056543000000001
#
# number of rings (size 3 to 8) (size 9 to 14) (size 15 to 20)
#    0.000    1.647    2.353    2.471    0.000    5.176 
#    0.000    3.529    0.000    0.000    0.000    0.000 
#    0.000    0.000    0.000    0.000    0.000    0.000 
#
# Total GULP energy -189542.309017 kJ/mol
# GULP energy per Si atom -5574.773795 kJ/mol
# Density = 2.100862 g / cm^3
# Si number density = 21.056543 Si / 1000 Ang^3
#
#
#
# Elastic Constant Matrix: (Units=GPa)
#
#
# Indices 1 2 3 4 5 6 
#
# 1 20.5338 5.8082 -0.7781 0.0000 0.0000 0.0000
# 2 5.8082 26.8131 20.2929 0.0000 0.0000 0.0000
# 3 -0.7781 20.2929 148.3573 0.0000 0.0000 0.0000
# 4 0.0000 0.0000 0.0000 -65.1741 0.0000 0.0000
# 5 0.0000 0.0000 0.0000 0.0000 -552.4678 0.0000
# 6 0.0000 0.0000 0.0000 0.0000 0.0000 15.7883
#
#
#
# Elastic Compliance Matrix: (Units=1/GPa)
#
#
# Indices 1 2 3 4 5 6 
#
# 1 0.052426 -0.012900 0.002039 0.000000 0.000000 0.000000
# 2 -0.012900 0.044776 -0.006192 0.000000 0.000000 0.000000
# 3 0.002039 -0.006192 0.007598 0.000000 0.000000 0.000000
# 4 0.000000 0.000000 0.000000 -0.015344 0.000000 0.000000
# 5 0.000000 0.000000 0.000000 0.000000 -0.001810 0.000000
# 6 0.000000 0.000000 0.000000 0.000000 0.000000 0.063338
#
#
# Mechanical properties :
#
#
# Convention : Reuss Voigt Hill
#
# Bulk Modulus (GPa) = 14.14527 27.37224 20.75875
# Shear Modulus (GPa) = 23.96292 -109.01197 -42.52452
#
# Velocity S-wave (km/s) = 3.37713 -7.20302 -4.49880
# Velocity P-wave (km/s) = 4.68391 7.49335 4.13590
#
# Compressibility (1/GPa) = 0.07069503
#
# Stress axis : x y z
#
# Youngs Moduli (GPa) = 19.07438 22.33330 131.61020
#
# Poissons Ratio (x) = 0.28810 -0.26842
# Poissons Ratio (y) = 0.24606 0.81497
# Poissons Ratio (z) = -0.03890 0.13830
#
# Static dielectric constant tensor:
#      x y z
#    x 1.775980 0.000000 0.000000 
#    y 0.000000 1.750610 0.000000 
#    z 0.000000 0.000000 1.725050 
# 
# From -- ./inp_files/7612.got.cif
#   From: 2010.05.17/outbox.cif.g08.bks.cpg/sg71_4_cif.got.tgz:7612.got - 2010.06.03 16:22:01.
