data_PCOD9523143
_publ_section_title
;
Structure prediction by ZEFSAII (Michael W. Deem and Ramdas Pophale) SiO2 
 PCOD9523143
Probable space group: I M M M
;
_chemical_formula_sum "Si O2"
_cell_formula_units_Z 112
_cell_length_a 13.615652
_cell_length_b 27.581121
_cell_length_c 12.849067
_cell_angle_alpha 90.000000
_cell_angle_beta 90.000000
_cell_angle_gamma 90.000000
_cell_volume 4825.273673
_symmetry_space_group_name_H-M "I M M M"
_symmetry_group_IT_number 71
_symmetry_cell_setting 'orthorhombic'
loop_
_space_group_symop_operation_xyz
x,y,z
-x,-y,z
x,-y,-z
-x,y,-z
-x,-y,-z
x,y,-z
-x,y,z
x,-y,z
1/2+x,1/2+y,1/2+z
1/2-x,1/2-y,1/2+z
1/2+x,1/2-y,1/2-z
1/2-x,1/2+y,1/2-z
1/2-x,1/2-y,1/2-z
1/2+x,1/2+y,1/2-z
1/2-x,1/2+y,1/2+z
1/2+x,1/2-y,1/2+z
loop_
_atom_site_type_symbol
_atom_site_label
_atom_site_fract_x
_atom_site_fract_y
_atom_site_fract_z
Si Si1 0.816933 0.553261 0.167437
Si Si2 0.819653 0.800991 0.374994
Si Si3 0.384065 0.913614 0.880348
Si Si4 0.607480 0.841944 0.378626
Si Si5 0.315332 0.808479 0.120093
Si Si6 0.607443 0.654741 0.676914
Si Si7 0.111113 0.944724 0.738264
O O1 0.844798 0.500000 0.127746
O O2 0.834307 0.554401 0.292181
O O3 0.874328 0.599959 0.126742
O O4 0.699924 0.561179 0.156372
O O5 0.831122 0.807158 0.500000
O O6 0.707551 0.815397 0.343654
O O7 0.839330 0.745402 0.343447
O O8 0.886009 0.833348 0.300270
O O9 0.500000 0.923103 0.879485
O O10 0.365165 0.858176 0.842588
O O11 0.349456 0.919031 0.000000
O O12 0.603083 0.828862 0.500000
O O13 0.500000 0.829418 0.333834
O O14 0.198350 0.817564 0.126903
O O15 0.345744 0.807115 0.000000
O O16 0.500000 0.667518 0.636518
O O17 0.622899 0.596822 0.674495
O O18 0.000000 0.939107 0.696796
O O19 0.119194 0.000000 0.777180
#
# Coordination Sequence:
#
# PCOD9523143 Si02
#       7
#    16  16  16  16  16  16  16
#     4  11  21  36  60  83 109 145 182 225 276 327
#     4  10  21  38  58  81 112 147 186 229 273 324
#     4  10  21  37  56  80 112 147 183 225 274 327
#     4  10  21  37  56  80 112 147 183 225 274 327
#     4  10  21  38  58  81 112 147 186 229 273 324
#     4  11  21  35  58  85 113 144 181 227 276 326
#     4   9  18  34  57  83 111 144 181 224 275 328
#
# _framework density 23.211119
#
# number of rings (size 3 to 8) (size 9 to 14) (size 15 to 20)
#    0.000    1.857    2.857    0.857    0.000    3.429 
#    0.000    4.286    0.000    1.714    0.000    8.000 
#    0.000    0.000    0.000    0.000    0.000    0.000 
#
# Total GULP energy -312541.857585 kJ/mol
# GULP energy per Si atom -5581.104600 kJ/mol
# Density = 2.315829 g / cm^3
# Si number density = 23.211119 Si / 1000 Ang^3
#
#
#
# Elastic Constant Matrix: (Units=GPa)
#
#
# Indices 1 2 3 4 5 6 
#
# 1 84.0624 0.5713 -1.6841 0.0000 0.0000 0.0000
# 2 0.5713 100.2284 3.4802 -0.0001 0.0000 0.0000
# 3 -1.6841 3.4802 60.4179 0.0003 0.0001 0.0000
# 4 0.0000 -0.0001 0.0003 15.4176 0.0000 0.0000
# 5 0.0000 0.0000 0.0001 0.0000 19.4969 0.0000
# 6 0.0000 0.0000 0.0000 0.0000 0.0000 8.7915
#
#
#
# Elastic Compliance Matrix: (Units=1/GPa)
#
#
# Indices 1 2 3 4 5 6 
#
# 1 0.011903 -0.000080 0.000336 0.000000 0.000000 0.000000
# 2 -0.000080 0.009998 -0.000578 0.000000 0.000000 0.000000
# 3 0.000336 -0.000578 0.016594 0.000000 0.000000 0.000000
# 4 0.000000 0.000000 0.000000 0.064861 0.000000 0.000000
# 5 0.000000 0.000000 0.000000 0.000000 0.051290 0.000000
# 6 0.000000 0.000000 0.000000 0.000000 0.000000 0.113747
#
#
# Mechanical properties :
#
#
# Convention : Reuss Voigt Hill
#
# Bulk Modulus (GPa) = 26.41838 27.71597 27.06717
# Shear Modulus (GPa) = 17.75235 24.89728 21.32481
#
# Velocity S-wave (km/s) = 2.76854 3.27868 3.03435
# Velocity P-wave (km/s) = 4.65040 5.12832 4.89520
#
# Compressibility (1/GPa) = 0.03785244
#
# Stress axis : x y z
#
# Youngs Moduli (GPa) = 84.01104 100.02265 60.26257
#
# Poissons Ratio (x) = 0.00795 -0.02027
# Poissons Ratio (y) = 0.00668 0.03484
# Poissons Ratio (z) = -0.02826 0.05782
#
# Static dielectric constant tensor:
#      x y z
#    x 1.876570 0.000000 0.000000 
#    y 0.000000 1.862570 0.000000 
#    z 0.000000 0.000000 1.899640 
# 
# From -- ./inp_files/35130.got.cif
#   From: 2010.05.17/outbox.cif.g08.bks.cpg/sg71_18_cif.got.tgz:35130.got - 2010.06.03 16:22:01.
