data_PCOD9523011
_publ_section_title
;
Structure prediction by ZEFSAII (Michael W. Deem and Ramdas Pophale) SiO2 
 PCOD9523011
Probable space group: I M M M
;
_chemical_formula_sum "Si O2"
_cell_formula_units_Z 64
_cell_length_a 11.497813
_cell_length_b 17.187388
_cell_length_c 13.560503
_cell_angle_alpha 90.000000
_cell_angle_beta 90.000000
_cell_angle_gamma 90.000000
_cell_volume 2679.790982
_symmetry_space_group_name_H-M "I M M M"
_symmetry_group_IT_number 71
_symmetry_cell_setting 'orthorhombic'
loop_
_space_group_symop_operation_xyz
x,y,z
-x,-y,z
x,-y,-z
-x,y,-z
-x,-y,-z
x,y,-z
-x,y,z
x,-y,z
1/2+x,1/2+y,1/2+z
1/2-x,1/2-y,1/2+z
1/2+x,1/2-y,1/2-z
1/2-x,1/2+y,1/2-z
1/2-x,1/2-y,1/2-z
1/2+x,1/2+y,1/2-z
1/2-x,1/2+y,1/2+z
1/2+x,1/2-y,1/2+z
loop_
_atom_site_type_symbol
_atom_site_label
_atom_site_fract_x
_atom_site_fract_y
_atom_site_fract_z
Si Si1 0.703514 0.000000 0.616010
Si Si2 0.127017 0.671219 0.118972
Si Si3 0.826950 0.415226 0.617889
Si Si4 0.365248 0.500000 0.705885
Si Si5 0.374373 0.257880 0.879714
O O1 0.635048 0.078925 0.638165
O O2 0.731716 0.000000 0.500000
O O3 0.817809 0.000000 0.683151
O O4 0.251624 0.705496 0.152238
O O5 0.000000 0.701633 0.151691
O O6 0.127718 0.680983 0.000000
O O7 0.837566 0.414442 0.500000
O O8 0.875115 0.500000 0.650966
O O9 0.693528 0.426222 0.650931
O O10 0.873678 0.332923 0.651699
O O11 0.500000 0.500000 0.698958
O O12 0.500000 0.293578 0.850716
O O13 0.372863 0.259664 0.000000
#
# Coordination Sequence:
#
# PCOD9523011 Si02
#       5
#     8  16  16   8  16
#     4  10  21  38  59  81 107 145 194 243 291 340
#     4   9  18  34  57  83 111 148 195 243 287 336
#     4   8  17  34  56  84 115 150 188 226 272 332
#     4  10  21  36  55  84 118 150 190 238 284 336
#     4   9  17  31  54  87 122 152 186 231 283 341
#
# _framework density 23.882459000000001
#
# number of rings (size 3 to 8) (size 9 to 14) (size 15 to 20)
#    0.750    2.250    0.000    0.375    0.000    5.250 
#    0.000   11.250    0.000    0.000    0.000    0.000 
#    0.000    0.000    0.000    0.000    0.000    0.000 
#
# Total GULP energy -178450.013192 kJ/mol
# GULP energy per Si atom -5576.562912 kJ/mol
# Density = 2.382810 g / cm^3
# Si number density = 23.882459 Si / 1000 Ang^3
#
#
#
# Elastic Constant Matrix: (Units=GPa)
#
#
# Indices 1 2 3 4 5 6 
#
# 1 261.5901 72.5492 10.7416 0.0000 0.0000 0.0000
# 2 72.5492 84.5250 19.4926 0.0000 0.0000 0.0000
# 3 10.7416 19.4926 66.1644 0.0001 0.0000 0.0000
# 4 0.0000 0.0000 0.0001 27.7193 0.0000 0.0000
# 5 0.0000 0.0000 0.0000 0.0000 10.4569 0.0000
# 6 0.0000 0.0000 0.0000 0.0000 0.0000 16.5804
#
#
#
# Elastic Compliance Matrix: (Units=1/GPa)
#
#
# Indices 1 2 3 4 5 6 
#
# 1 0.005032 -0.004432 0.000489 0.000000 0.000000 0.000000
# 2 -0.004432 0.016596 -0.004170 0.000000 0.000000 0.000000
# 3 0.000489 -0.004170 0.016263 0.000000 0.000000 0.000000
# 4 0.000000 0.000000 0.000000 0.036076 0.000000 0.000000
# 5 0.000000 0.000000 0.000000 0.000000 0.095630 0.000000
# 6 0.000000 0.000000 0.000000 0.000000 0.000000 0.060312
#
#
# Mechanical properties :
#
#
# Convention : Reuss Voigt Hill
#
# Bulk Modulus (GPa) = 46.15664 68.64960 57.40312
# Shear Modulus (GPa) = 19.73503 31.58440 25.65972
#
# Velocity S-wave (km/s) = 2.87773 3.64056 3.28139
# Velocity P-wave (km/s) = 5.51456 6.81753 6.20036
#
# Compressibility (1/GPa) = 0.02166535
#
# Stress axis : x y z
#
# Youngs Moduli (GPa) = 198.73826 60.25507 61.48917
#
# Poissons Ratio (x) = 0.26702 -0.03005
# Poissons Ratio (y) = 0.88071 0.25640
# Poissons Ratio (z) = -0.09712 0.25126
#
# Static dielectric constant tensor:
#      x y z
#    x 1.940910 0.000000 0.000000 
#    y 0.000000 1.912930 0.000000 
#    z 0.000000 0.000000 1.943670 
# 
# From -- ./inp_files/43040.got.cif
#   From: 2010.05.17/outbox.cif.g08.bks.cpg/sg71_22_cif.got.tgz:43040.got - 2010.06.03 16:22:01.
