data_PCOD9523673
_publ_section_title
;
Structure prediction by ZEFSAII (Michael W. Deem and Ramdas Pophale) SiO2 
 PCOD9523673
Probable space group: I M M M
;
_chemical_formula_sum "Si O2"
_cell_formula_units_Z 74
_cell_length_a 7.753030
_cell_length_b 25.012876
_cell_length_c 21.418540
_cell_angle_alpha 90.000000
_cell_angle_beta 90.000000
_cell_angle_gamma 90.000000
_cell_volume 4153.602750
_symmetry_space_group_name_H-M "I M M M"
_symmetry_group_IT_number 71
_symmetry_cell_setting 'orthorhombic'
loop_
_space_group_symop_operation_xyz
x,y,z
-x,-y,z
x,-y,-z
-x,y,-z
-x,-y,-z
x,y,-z
-x,y,z
x,-y,z
1/2+x,1/2+y,1/2+z
1/2-x,1/2-y,1/2+z
1/2+x,1/2-y,1/2-z
1/2-x,1/2+y,1/2-z
1/2-x,1/2-y,1/2-z
1/2+x,1/2+y,1/2-z
1/2-x,1/2+y,1/2+z
1/2+x,1/2-y,1/2+z
loop_
_atom_site_type_symbol
_atom_site_label
_atom_site_fract_x
_atom_site_fract_y
_atom_site_fract_z
Si Si1 0.702387 0.242371 0.926098
Si Si2 0.000000 0.157259 0.926490
Si Si3 0.000000 0.939148 0.831165
Si Si4 0.206971 0.143965 0.377650
Si Si5 0.688149 0.915795 0.500000
Si Si6 0.199787 0.560884 0.229964
Si Si7 0.000000 0.000000 0.500000
O O1 0.500000 0.228666 0.918077
O O2 0.743758 0.292787 0.881667
O O3 0.832006 0.193934 0.914036
O O4 0.723522 0.257661 0.000000
O O5 0.000000 0.105150 0.884127
O O6 0.000000 0.143913 0.000000
O O7 0.166873 0.933094 0.786519
O O8 0.000000 0.000000 0.855553
O O9 0.294126 0.119557 0.438488
O O10 0.265417 0.107691 0.319738
O O11 0.000000 0.138599 0.382838
O O12 0.500000 0.941380 0.500000
O O13 0.848851 0.954667 0.500000
O O14 0.228975 0.500000 0.203469
O O15 0.000000 0.563326 0.249425
#
# Coordination Sequence:
#
# PCOD9523673 Si02
#       7
#    16   8   8  16   8  16   2
#     4   9  19  35  57  85 122 159 194 236 294 350
#     4  10  22  39  67  97 116 147 188 238 300 374
#     4  10  22  44  66  87 121 151 186 243 306 360
#     4  11  20  36  57  82 117 162 208 254 295 346
#     4  12  25  35  53  78 115 161 212 266 314 342
#     4  10  22  38  59  83 114 161 207 245 292 352
#     4  12  26  40  40  70 120 156 210 280 304 342
#
# _framework density 17.815860000000001
#
# number of rings (size 3 to 8) (size 9 to 14) (size 15 to 20)
#    0.000    1.730    3.243    0.811    4.541    1.081 
#    0.000    1.081    0.000    0.000    0.000    6.054 
#    0.000    0.000    0.000    0.000    0.000    0.000 
#
# Total GULP energy -206156.190921 kJ/mol
# GULP energy per Si atom -5571.788944 kJ/mol
# Density = 1.777531 g / cm^3
# Si number density = 17.815860 Si / 1000 Ang^3
#
#
#
# Elastic Constant Matrix: (Units=GPa)
#
#
# Indices 1 2 3 4 5 6 
#
# 1 134.7860 80.4390 49.2589 0.0000 0.0000 0.0000
# 2 80.4390 156.4252 86.9100 0.0000 0.0000 0.0000
# 3 49.2589 86.9100 70.8935 0.0000 0.0000 0.0000
# 4 0.0000 0.0000 0.0000 25.4693 0.0000 0.0000
# 5 0.0000 0.0000 0.0000 0.0000 -8.7104 0.0000
# 6 0.0000 0.0000 0.0000 0.0000 0.0000 24.4568
#
#
#
# Elastic Compliance Matrix: (Units=1/GPa)
#
#
# Indices 1 2 3 4 5 6 
#
# 1 0.010811 -0.004346 -0.002184 0.000000 0.000000 0.000000
# 2 -0.004346 0.021795 -0.023699 0.000000 0.000000 0.000000
# 3 -0.002184 -0.023699 0.044677 0.000000 0.000000 0.000000
# 4 0.000000 0.000000 0.000000 0.039263 0.000000 0.000000
# 5 0.000000 0.000000 0.000000 0.000000 -0.114806 0.000000
# 6 0.000000 0.000000 0.000000 0.000000 0.000000 0.040888
#
#
# Mechanical properties :
#
#
# Convention : Reuss Voigt Hill
#
# Bulk Modulus (GPa) = 59.43821 88.36895 73.90358
# Shear Modulus (GPa) = 46.00022 17.94294 31.97158
#
# Velocity S-wave (km/s) = 5.08683 3.17698 4.24082
# Velocity P-wave (km/s) = 8.24234 7.94774 8.09638
#
# Compressibility (1/GPa) = 0.01682420
#
# Stress axis : x y z
#
# Youngs Moduli (GPa) = 92.49900 45.88199 22.38294
#
# Poissons Ratio (x) = 0.19940 0.04888
# Poissons Ratio (y) = 0.40199 0.53046
# Poissons Ratio (z) = 0.20202 1.08738
#
# Static dielectric constant tensor:
#      x y z
#    x 1.613400 0.000000 0.000000 
#    y 0.000000 1.607200 0.000000 
#    z 0.000000 0.000000 1.577380 
# 
# From -- ./inp_files/50367.got.cif
#   From: 2010.05.17/outbox.cif.g08.bks.cpg/sg71_26_cif.got.tgz:50367.got - 2010.06.03 16:22:01.
