data_PCOD9523439
_publ_section_title
;
Structure prediction by ZEFSAII (Michael W. Deem and Ramdas Pophale) SiO2 
 PCOD9523439
Probable space group: I M M M
;
_chemical_formula_sum "Si O2"
_cell_formula_units_Z 42
_cell_length_a 9.528572
_cell_length_b 10.637655
_cell_length_c 18.849414
_cell_angle_alpha 90.000000
_cell_angle_beta 90.000000
_cell_angle_gamma 90.000000
_cell_volume 1910.607923
_symmetry_space_group_name_H-M "I M M M"
_symmetry_group_IT_number 71
_symmetry_cell_setting 'orthorhombic'
loop_
_space_group_symop_operation_xyz
x,y,z
-x,-y,z
x,-y,-z
-x,y,-z
-x,-y,-z
x,y,-z
-x,y,z
x,-y,z
1/2+x,1/2+y,1/2+z
1/2-x,1/2-y,1/2+z
1/2+x,1/2-y,1/2-z
1/2-x,1/2+y,1/2-z
1/2-x,1/2-y,1/2-z
1/2+x,1/2+y,1/2-z
1/2-x,1/2+y,1/2+z
1/2+x,1/2-y,1/2+z
loop_
_atom_site_type_symbol
_atom_site_label
_atom_site_fract_x
_atom_site_fract_y
_atom_site_fract_z
Si Si1 0.833432 0.859078 0.790064
Si Si2 0.658958 0.220584 0.084618
Si Si3 0.500000 0.000000 0.500000
Si Si4 0.210168 0.000000 0.578829
O O1 0.750000 0.750000 0.750000
O O2 0.774091 0.851637 0.870295
O O3 0.000000 0.837410 0.787882
O O4 0.804416 0.000000 0.762600
O O5 0.500000 0.174505 0.096648
O O6 0.666385 0.366570 0.109552
O O7 0.687086 0.217513 0.000000
O O8 0.375705 0.000000 0.561306
O O9 0.144667 0.000000 0.500000
#
# Coordination Sequence:
#
# PCOD9523439 Si02
#       4
#    16  16   2   8
#     4  11  27  48  70  97 132 176 225 276 337 403
#     4  10  21  38  65  98 136 175 218 271 331 392
#     4   8  16  28  50  92 138 168 226 252 324 384
#     4   8  17  30  54  91 133 170 213 262 316 384
#
# _framework density 21.982531000000002
#
# number of rings (size 3 to 8) (size 9 to 14) (size 15 to 20)
#    0.571    1.524    0.000    1.714    5.333    6.857 
#    0.000    3.810    0.000    0.000    0.000    0.000 
#    0.000    0.000    0.000    0.000    0.000    0.000 
#
# Total GULP energy -116975.790676 kJ/mol
# GULP energy per Si atom -5570.275746 kJ/mol
# Density = 2.193250 g / cm^3
# Si number density = 21.982531 Si / 1000 Ang^3
#
#
#
# Elastic Constant Matrix: (Units=GPa)
#
#
# Indices 1 2 3 4 5 6 
#
# 1 175.2247 70.9128 45.3241 0.0000 0.0000 0.0000
# 2 70.9128 134.7329 46.4944 0.0000 0.0000 0.0000
# 3 45.3241 46.4944 82.1711 0.0000 0.0000 0.0000
# 4 0.0000 0.0000 0.0000 35.2704 0.0000 0.0000
# 5 0.0000 0.0000 0.0000 0.0000 33.7273 0.0000
# 6 0.0000 0.0000 0.0000 0.0000 0.0000 18.2049
#
#
#
# Elastic Compliance Matrix: (Units=1/GPa)
#
#
# Indices 1 2 3 4 5 6 
#
# 1 0.007615 -0.003179 -0.002401 0.000000 0.000000 0.000000
# 2 -0.003179 0.010550 -0.004216 0.000000 0.000000 0.000000
# 3 -0.002401 -0.004216 0.015880 0.000000 0.000000 0.000000
# 4 0.000000 0.000000 0.000000 0.028352 0.000000 0.000000
# 5 0.000000 0.000000 0.000000 0.000000 0.029650 0.000000
# 6 0.000000 0.000000 0.000000 0.000000 0.000000 0.054930
#
#
# Mechanical properties :
#
#
# Convention : Reuss Voigt Hill
#
# Bulk Modulus (GPa) = 69.19561 79.73239 74.46400
# Shear Modulus (GPa) = 29.17373 32.73367 30.95370
#
# Velocity S-wave (km/s) = 3.64693 3.86304 3.75654
# Velocity P-wave (km/s) = 7.01993 7.49980 7.26383
#
# Compressibility (1/GPa) = 0.01445178
#
# Stress axis : x y z
#
# Youngs Moduli (GPa) = 131.32566 94.78484 62.97322
#
# Poissons Ratio (x) = 0.30133 0.15122
# Poissons Ratio (y) = 0.41750 0.26550
# Poissons Ratio (z) = 0.31535 0.39961
#
# Static dielectric constant tensor:
#      x y z
#    x 1.737860 0.000000 0.000000 
#    y 0.000000 1.848420 0.000000 
#    z 0.000000 0.000000 1.866550 
# 
# From -- ./inp_files/49696.got.cif
#   From: 2010.05.17/outbox.cif.g08.bks.cpg/sg71_25_cif.got.tgz:49696.got - 2010.06.03 16:22:01.
