data_PCOD9523644
_publ_section_title
;
Structure prediction by ZEFSAII (Michael W. Deem and Ramdas Pophale) SiO2 
 PCOD9523644
Probable space group: I M M M
;
_chemical_formula_sum "Si O2"
_cell_formula_units_Z 96
_cell_length_a 24.683611
_cell_length_b 21.664719
_cell_length_c 9.714652
_cell_angle_alpha 90.000000
_cell_angle_beta 90.000000
_cell_angle_gamma 90.000000
_cell_volume 5195.041268
_symmetry_space_group_name_H-M "I M M M"
_symmetry_group_IT_number 71
_symmetry_cell_setting 'orthorhombic'
loop_
_space_group_symop_operation_xyz
x,y,z
-x,-y,z
x,-y,-z
-x,y,-z
-x,-y,-z
x,y,-z
-x,y,z
x,-y,z
1/2+x,1/2+y,1/2+z
1/2-x,1/2-y,1/2+z
1/2+x,1/2-y,1/2-z
1/2-x,1/2+y,1/2-z
1/2-x,1/2-y,1/2-z
1/2+x,1/2+y,1/2-z
1/2-x,1/2+y,1/2+z
1/2+x,1/2-y,1/2+z
loop_
_atom_site_type_symbol
_atom_site_label
_atom_site_fract_x
_atom_site_fract_y
_atom_site_fract_z
Si Si1 0.679362 0.432079 0.167977
Si Si2 0.063983 0.426906 0.343449
Si Si3 0.748657 0.312598 0.839564
Si Si4 0.559121 0.407004 0.162915
Si Si5 0.874822 0.332435 0.841950
Si Si6 0.438204 0.740900 0.159465
O O1 0.702329 0.500000 0.206483
O O2 0.710601 0.369407 0.210250
O O3 0.616692 0.430335 0.216292
O O4 0.679319 0.429907 0.000000
O O5 0.078230 0.408489 0.500000
O O6 0.072169 0.500000 0.331328
O O7 0.098133 0.389731 0.234246
O O8 0.000000 0.415081 0.325570
O O9 0.750000 0.250000 0.750000
O O10 0.810257 0.336538 0.837913
O O11 0.733972 0.298618 0.000000
O O12 0.500000 0.426183 0.219864
O O13 0.562094 0.332809 0.172544
O O14 0.558077 0.422583 0.000000
O O15 0.896143 0.273043 0.759244
O O16 0.892218 0.328604 0.000000
O O17 0.500000 0.761959 0.188303
O O18 0.426215 0.755432 0.000000
#
# Coordination Sequence:
#
# PCOD9523644 Si02
#       6
#    16  16  16  16  16  16
#     4   9  17  30  49  72 100 134 168 206 256 309
#     4   9  19  36  55  74  99 134 175 214 255 313
#     4  10  22  38  55  76 103 140 183 221 261 313
#     4   8  14  25  44  72 100 125 158 199 244 297
#     4  11  22  32  47  74 102 129 168 218 268 313
#     4   9  17  30  49  72 100 135 170 203 246 306
#
# _framework density 18.479161000000001
#
# number of rings (size 3 to 8) (size 9 to 14) (size 15 to 20)
#    0.000    2.667    0.000    3.500    0.000    6.667 
#    0.000    4.167    0.000    0.500    0.000    0.000 
#    0.000    0.000    0.000   14.333    0.000   11.667 
#
# Total GULP energy -267530.206575 kJ/mol
# GULP energy per Si atom -5573.545970 kJ/mol
# Density = 1.843710 g / cm^3
# Si number density = 18.479161 Si / 1000 Ang^3
#
#
#
# Elastic Constant Matrix: (Units=GPa)
#
#
# Indices 1 2 3 4 5 6 
#
# 1 79.3356 48.0742 40.2617 0.0000 0.0000 0.0000
# 2 48.0742 127.2291 34.4057 0.0000 0.0000 0.0000
# 3 40.2617 34.4057 50.6994 0.0000 0.0000 0.0000
# 4 0.0000 0.0000 0.0000 28.3772 0.0000 0.0000
# 5 0.0000 0.0000 0.0000 0.0000 18.8275 0.0000
# 6 0.0000 0.0000 0.0000 0.0000 0.0000 19.6244
#
#
#
# Elastic Compliance Matrix: (Units=1/GPa)
#
#
# Indices 1 2 3 4 5 6 
#
# 1 0.023139 -0.004622 -0.015238 0.000000 0.000000 0.000000
# 2 -0.004622 0.010550 -0.003489 0.000000 0.000000 0.000000
# 3 -0.015238 -0.003489 0.034193 0.000000 0.000000 0.000000
# 4 0.000000 0.000000 0.000000 0.035240 0.000000 0.000000
# 5 0.000000 0.000000 0.000000 0.000000 0.053114 0.000000
# 6 0.000000 0.000000 0.000000 0.000000 0.000000 0.050957
#
#
# Mechanical properties :
#
#
# Convention : Reuss Voigt Hill
#
# Bulk Modulus (GPa) = 47.20814 55.86081 51.53448
# Shear Modulus (GPa) = 19.16066 22.33399 20.74733
#
# Velocity S-wave (km/s) = 3.22355 3.48027 3.35437
# Velocity P-wave (km/s) = 6.28150 6.81501 6.55369
#
# Compressibility (1/GPa) = 0.02118279
#
# Stress axis : x y z
#
# Youngs Moduli (GPa) = 43.21728 94.78840 29.24598
#
# Poissons Ratio (x) = 0.43814 0.44566
# Poissons Ratio (y) = 0.19977 0.10203
# Poissons Ratio (z) = 0.65856 0.33068
#
# Static dielectric constant tensor:
#      x y z
#    x 1.663580 0.000000 0.000000 
#    y 0.000000 1.665450 0.000000 
#    z 0.000000 0.000000 1.610210 
# 
# From -- ./inp_files/12851.got.cif
#   From: 2010.05.17/outbox.cif.g08.bks.cpg/sg71_7_cif.got.tgz:12851.got - 2010.06.03 16:22:01.
