data_PCOD9523992
_publ_section_title
;
Structure prediction by ZEFSAII (Michael W. Deem and Ramdas Pophale) SiO2 
 PCOD9523992
Probable space group: I M M M
;
_chemical_formula_sum "Si O2"
_cell_formula_units_Z 58
_cell_length_a 15.160293
_cell_length_b 10.799923
_cell_length_c 19.959193
_cell_angle_alpha 90.000000
_cell_angle_beta 90.000000
_cell_angle_gamma 90.000000
_cell_volume 3267.918611
_symmetry_space_group_name_H-M "I M M M"
_symmetry_group_IT_number 71
_symmetry_cell_setting 'orthorhombic'
loop_
_space_group_symop_operation_xyz
x,y,z
-x,-y,z
x,-y,-z
-x,y,-z
-x,-y,-z
x,y,-z
-x,y,z
x,-y,z
1/2+x,1/2+y,1/2+z
1/2-x,1/2-y,1/2+z
1/2+x,1/2-y,1/2-z
1/2-x,1/2+y,1/2-z
1/2-x,1/2-y,1/2-z
1/2+x,1/2+y,1/2-z
1/2-x,1/2+y,1/2+z
1/2+x,1/2-y,1/2+z
loop_
_atom_site_type_symbol
_atom_site_label
_atom_site_fract_x
_atom_site_fract_y
_atom_site_fract_z
Si Si1 0.642803 0.500000 0.378147
Si Si2 0.157548 0.736898 0.288079
Si Si3 0.342667 0.000000 0.113618
Si Si4 0.605338 0.500000 0.221150
Si Si5 0.000000 0.500000 0.500000
Si Si6 0.500000 0.698786 0.421750
Si Si7 0.000000 0.355570 0.198593
O O1 0.740114 0.500000 0.409275
O O2 0.646265 0.500000 0.296657
O O3 0.584960 0.617306 0.400830
O O4 0.250000 0.750000 0.250000
O O5 0.152128 0.625007 0.340964
O O6 0.084235 0.705901 0.232875
O O7 0.134595 0.873911 0.314963
O O8 0.420683 0.000000 0.059043
O O9 0.500000 0.500000 0.229686
O O10 0.500000 0.718426 0.500000
O O11 0.500000 0.822825 0.379028
O O12 0.000000 0.500000 0.212127
#
# Coordination Sequence:
#
# PCOD9523992 Si02
#       7
#     8  16   8   8   2   8   8
#     4  11  18  38  62  90 116 156 202 260 314 383
#     4  12  21  39  65  95 123 161 212 273 327 366
#     4  12  25  43  65  88 133 174 214 261 309 380
#     4  12  20  34  63  96 128 143 200 276 338 381
#     4  12  32  44  56  96 140 192 230 238 312 410
#     4  11  22  36  59  88 124 159 198 251 331 387
#     4  12  22  36  57  88 126 161 203 259 317 394
#
# _framework density 17.7483
#
# number of rings (size 3 to 8) (size 9 to 14) (size 15 to 20)
#    0.000    0.276    9.655    1.655    1.931    0.276 
#    0.000    0.000    0.000    1.655    0.000    0.000 
#    0.000    0.000    0.000    0.000    0.000    0.000 
#
# Total GULP energy -161627.862574 kJ/mol
# GULP energy per Si atom -5573.374572 kJ/mol
# Density = 1.770790 g / cm^3
# Si number density = 17.748300 Si / 1000 Ang^3
#
#
#
# Elastic Constant Matrix: (Units=GPa)
#
#
# Indices 1 2 3 4 5 6 
#
# 1 165.7779 39.2268 44.7681 0.0000 0.0000 0.0000
# 2 39.2268 148.1285 38.0400 0.0000 0.0000 0.0000
# 3 44.7681 38.0400 88.1630 0.0000 0.0000 0.0000
# 4 0.0000 0.0000 0.0000 12.3674 0.0000 0.0000
# 5 0.0000 0.0000 0.0000 0.0000 20.8318 0.0000
# 6 0.0000 0.0000 0.0000 0.0000 0.0000 12.8284
#
#
#
# Elastic Compliance Matrix: (Units=1/GPa)
#
#
# Indices 1 2 3 4 5 6 
#
# 1 0.007141 -0.001079 -0.003160 0.000000 0.000000 0.000000
# 2 -0.001079 0.007755 -0.002798 0.000000 0.000000 0.000000
# 3 -0.003160 -0.002798 0.014155 0.000000 0.000000 0.000000
# 4 0.000000 0.000000 0.000000 0.080858 0.000000 0.000000
# 5 0.000000 0.000000 0.000000 0.000000 0.048004 0.000000
# 6 0.000000 0.000000 0.000000 0.000000 0.000000 0.077952
#
#
# Mechanical properties :
#
#
# Convention : Reuss Voigt Hill
#
# Bulk Modulus (GPa) = 66.77683 71.79324 69.28503
# Shear Modulus (GPa) = 19.61311 27.87449 23.74380
#
# Velocity S-wave (km/s) = 3.32786 3.96731 3.66157
# Velocity P-wave (km/s) = 7.24377 7.84376 7.54973
#
# Compressibility (1/GPa) = 0.01497525
#
# Stress axis : x y z
#
# Youngs Moduli (GPa) = 140.03541 128.94387 70.64781
#
# Poissons Ratio (x) = 0.13919 0.22327
# Poissons Ratio (y) = 0.15116 0.19768
# Poissons Ratio (z) = 0.44256 0.36079
#
# Static dielectric constant tensor:
#      x y z
#    x 1.622930 0.000000 0.000000 
#    y 0.000000 1.642530 0.000000 
#    z 0.000000 0.000000 1.592900 
# 
# From -- ./inp_files/23189.got.cif
#   From: 2010.05.17/outbox.cif.g08.bks.cpg/sg71_12_cif.got.tgz:23189.got - 2010.06.03 16:22:01.
