data_PCOD9523441
_publ_section_title
;
Structure prediction by ZEFSAII (Michael W. Deem and Ramdas Pophale) SiO2 
 PCOD9523441
Probable space group: I M M M
;
_chemical_formula_sum "Si O2"
_cell_formula_units_Z 68
_cell_length_a 19.641086
_cell_length_b 20.408071
_cell_length_c 7.681207
_cell_angle_alpha 90.000000
_cell_angle_beta 90.000000
_cell_angle_gamma 90.000000
_cell_volume 3078.909494
_symmetry_space_group_name_H-M "I M M M"
_symmetry_group_IT_number 71
_symmetry_cell_setting 'orthorhombic'
loop_
_space_group_symop_operation_xyz
x,y,z
-x,-y,z
x,-y,-z
-x,y,-z
-x,-y,-z
x,y,-z
-x,y,z
x,-y,z
1/2+x,1/2+y,1/2+z
1/2-x,1/2-y,1/2+z
1/2+x,1/2-y,1/2-z
1/2-x,1/2+y,1/2-z
1/2-x,1/2-y,1/2-z
1/2+x,1/2+y,1/2-z
1/2-x,1/2+y,1/2+z
1/2+x,1/2-y,1/2+z
loop_
_atom_site_type_symbol
_atom_site_label
_atom_site_fract_x
_atom_site_fract_y
_atom_site_fract_z
Si Si1 0.729632 0.000000 0.205926
Si Si2 0.614788 0.104333 0.198336
Si Si3 0.500000 0.090774 0.500000
Si Si4 0.423375 0.357891 0.788930
Si Si5 0.616511 0.500000 0.800488
Si Si6 0.828016 0.261003 0.199647
O O1 0.682525 0.937267 0.242282
O O2 0.801759 0.000000 0.298847
O O3 0.745068 0.000000 0.000000
O O4 0.559005 0.091177 0.345380
O O5 0.635287 0.180668 0.198320
O O6 0.593999 0.085803 0.000000
O O7 0.500000 0.337974 0.740829
O O8 0.408834 0.431453 0.723942
O O9 0.369033 0.306135 0.722326
O O10 0.418628 0.358155 0.000000
O O11 0.591341 0.500000 0.000000
O O12 0.750000 0.250000 0.250000
O O13 0.830578 0.281813 0.000000
#
# Coordination Sequence:
#
# PCOD9523441 Si02
#       6
#     8  16   4  16   8  16
#     4  10  24  43  66  95 133 177 225 282 342 396
#     4  11  25  45  68 100 138 179 228 285 339 405
#     4  12  26  45  70 102 136 179 232 270 352 417
#     4  10  22  40  65  96 133 175 220 279 344 405
#     4  10  21  38  66  97 131 173 224 277 337 411
#     4  12  25  43  65  97 132 177 231 282 343 410
#
# _framework density 22.085742
#
# number of rings (size 3 to 8) (size 9 to 14) (size 15 to 20)
#    0.000    1.176    1.176    4.235    3.294    7.529 
#    0.000    1.765    0.000    2.118    0.000    0.000 
#    0.000    0.000    0.000    0.000    0.000    0.000 
#
# Total GULP energy -189687.578488 kJ/mol
# GULP energy per Si atom -5579.046426 kJ/mol
# Density = 2.203547 g / cm^3
# Si number density = 22.085742 Si / 1000 Ang^3
#
#
#
# Elastic Constant Matrix: (Units=GPa)
#
#
# Indices 1 2 3 4 5 6 
#
# 1 132.6739 22.8904 34.3589 0.0000 0.0000 0.0000
# 2 22.8904 101.7111 -3.6964 0.0000 0.0000 0.0000
# 3 34.3589 -3.6964 113.7686 0.0000 0.0000 0.0000
# 4 0.0000 0.0000 0.0000 -98.8628 0.0000 0.0000
# 5 0.0000 0.0000 0.0000 0.0000 29.3089 0.0000
# 6 0.0000 0.0000 0.0000 0.0000 0.0000 -0.6250
#
#
#
# Elastic Compliance Matrix: (Units=1/GPa)
#
#
# Indices 1 2 3 4 5 6 
#
# 1 0.008575 -0.002026 -0.002655 0.000000 0.000000 0.000000
# 2 -0.002026 0.010322 0.000947 0.000000 0.000000 0.000000
# 3 -0.002655 0.000947 0.009623 0.000000 0.000000 0.000000
# 4 0.000000 0.000000 0.000000 -0.010115 0.000000 0.000000
# 5 0.000000 0.000000 0.000000 0.000000 0.034119 0.000000
# 6 0.000000 0.000000 0.000000 0.000000 0.000000 -1.599915
#
#
# Mechanical properties :
#
#
# Convention : Reuss Voigt Hill
#
# Bulk Modulus (GPa) = 47.50457 50.58437 49.04447
# Shear Modulus (GPa) = -3.26178 5.60426 1.17124
#
# Velocity S-wave (km/s) = -1.21658 1.59468 0.72902
# Velocity P-wave (km/s) = 4.42520 5.13264 4.79200
#
# Compressibility (1/GPa) = 0.02105061
#
# Stress axis : x y z
#
# Youngs Moduli (GPa) = 116.62434 96.87847 103.92306
#
# Poissons Ratio (x) = 0.19630 0.27596
# Poissons Ratio (y) = 0.23631 -0.09845
# Poissons Ratio (z) = 0.30968 -0.09177
#
# Static dielectric constant tensor:
#      x y z
#    x 1.759780 0.000000 0.000000 
#    y 0.000000 1.860480 0.000000 
#    z 0.000000 0.000000 1.814640 
# 
# From -- ./inp_files/7675.got.cif
#   From: 2010.05.17/outbox.cif.g08.bks.cpg/sg71_4_cif.got.tgz:7675.got - 2010.06.03 16:22:01.
