data_PCOD9523058
_publ_section_title
;
Structure prediction by ZEFSAII (Michael W. Deem and Ramdas Pophale) SiO2 
 PCOD9523058
Probable space group: I M M M
;
_chemical_formula_sum "Si O2"
_cell_formula_units_Z 88
_cell_length_a 17.728963
_cell_length_b 12.670270
_cell_length_c 20.646550
_cell_angle_alpha 90.000000
_cell_angle_beta 90.000000
_cell_angle_gamma 90.000000
_cell_volume 4637.849971
_symmetry_space_group_name_H-M "I M M M"
_symmetry_group_IT_number 71
_symmetry_cell_setting 'orthorhombic'
loop_
_space_group_symop_operation_xyz
x,y,z
-x,-y,z
x,-y,-z
-x,y,-z
-x,-y,-z
x,y,-z
-x,y,z
x,-y,z
1/2+x,1/2+y,1/2+z
1/2-x,1/2-y,1/2+z
1/2+x,1/2-y,1/2-z
1/2-x,1/2+y,1/2-z
1/2-x,1/2-y,1/2-z
1/2+x,1/2+y,1/2-z
1/2-x,1/2+y,1/2+z
1/2+x,1/2-y,1/2+z
loop_
_atom_site_type_symbol
_atom_site_label
_atom_site_fract_x
_atom_site_fract_y
_atom_site_fract_z
Si Si1 0.590618 0.000000 0.074835
Si Si2 0.648279 0.839491 0.821520
Si Si3 0.418256 0.240027 0.425942
Si Si4 0.090100 0.115887 0.295416
Si Si5 0.372548 0.000000 0.426830
Si Si6 0.590312 0.000000 0.284983
Si Si7 0.178504 0.118892 0.162101
O O1 0.621882 0.099287 0.114463
O O2 0.500000 0.000000 0.078800
O O3 0.613112 0.000000 0.000000
O O4 0.626010 0.718179 0.827655
O O5 0.737537 0.854886 0.814335
O O6 0.608494 0.898531 0.760507
O O7 0.415061 0.276858 0.500000
O O8 0.500000 0.269765 0.397778
O O9 0.413298 0.113258 0.428020
O O10 0.351684 0.293481 0.386665
O O11 0.122569 0.118095 0.222883
O O12 0.000000 0.125768 0.295375
O O13 0.109795 0.000000 0.323158
O O14 0.355076 0.000000 0.348353
O O15 0.332524 0.000000 0.500000
O O16 0.500000 0.000000 0.301288
O O17 0.179120 0.000000 0.133896
#
# Coordination Sequence:
#
# PCOD9523058 Si02
#       7
#     8  16  16  16   8   8  16
#     4  10  21  38  64  91 114 148 197 255 310 353
#     4  11  21  39  58  88 118 154 195 250 301 356
#     4  10  21  37  58  84 117 161 207 244 287 353
#     4  10  21  36  57  82 116 155 190 233 289 357
#     4  10  21  38  59  86 119 154 197 247 291 335
#     4  11  20  32  60  90 115 152 199 249 297 350
#     4  11  22  38  55  85 119 157 195 244 301 345
#
# _framework density 18.974311
#
# number of rings (size 3 to 8) (size 9 to 14) (size 15 to 20)
#    0.000    1.545    1.818    5.182    0.000    4.182 
#    1.636    0.909    0.000    0.545    0.000    2.545 
#    0.000    0.000    0.000    0.000    0.000    0.727 
#
# Total GULP energy -245192.691333 kJ/mol
# GULP energy per Si atom -5572.561167 kJ/mol
# Density = 1.893112 g / cm^3
# Si number density = 18.974311 Si / 1000 Ang^3
#
#
#
# Elastic Constant Matrix: (Units=GPa)
#
#
# Indices 1 2 3 4 5 6 
#
# 1 37.7864 27.9286 1.3178 0.0000 0.0000 0.0000
# 2 27.9286 146.0314 33.8586 0.0000 0.0000 0.0000
# 3 1.3178 33.8586 85.9582 0.0000 0.0000 0.0000
# 4 0.0000 0.0000 0.0000 13.2818 0.0000 0.0000
# 5 0.0000 0.0000 0.0000 0.0000 -7.9933 0.0000
# 6 0.0000 0.0000 0.0000 0.0000 0.0000 59.0945
#
#
#
# Elastic Compliance Matrix: (Units=1/GPa)
#
#
# Indices 1 2 3 4 5 6 
#
# 1 0.031148 -0.006434 0.002057 0.000000 0.000000 0.000000
# 2 -0.006434 0.008865 -0.003393 0.000000 0.000000 0.000000
# 3 0.002057 -0.003393 0.012939 0.000000 0.000000 0.000000
# 4 0.000000 0.000000 0.000000 0.075291 0.000000 0.000000
# 5 0.000000 0.000000 0.000000 0.000000 -0.125105 0.000000
# 6 0.000000 0.000000 0.000000 0.000000 0.000000 0.016922
#
#
# Mechanical properties :
#
#
# Convention : Reuss Voigt Hill
#
# Bulk Modulus (GPa) = 26.73008 43.99845 35.36426
# Shear Modulus (GPa) = 104.01265 26.65468 65.33367
#
# Velocity S-wave (km/s) = 7.41192 3.75210 5.87430
# Velocity P-wave (km/s) = 9.34703 6.48150 8.04291
#
# Compressibility (1/GPa) = 0.03741104
#
# Stress axis : x y z
#
# Youngs Moduli (GPa) = 32.10449 112.80164 77.28793
#
# Poissons Ratio (x) = 0.72577 -0.15897
# Poissons Ratio (y) = 0.20656 0.26226
# Poissons Ratio (z) = -0.06603 0.38277
#
# Static dielectric constant tensor:
#      x y z
#    x 1.652840 0.000000 0.000000 
#    y 0.000000 1.680100 0.000000 
#    z 0.000000 0.000000 1.666090 
# 
# From -- ./inp_files/53965.got.cif
#   From: 2010.05.17/outbox.cif.g08.bks.cpg/sg71_27_cif.got.tgz:53965.got - 2010.06.03 16:22:01.
