data_PCOD9523744
_publ_section_title
;
Structure prediction by ZEFSAII (Michael W. Deem and Ramdas Pophale) SiO2 
 PCOD9523744
Probable space group: I M M M
;
_chemical_formula_sum "Si O2"
_cell_formula_units_Z 64
_cell_length_a 29.411058
_cell_length_b 13.674286
_cell_length_c 8.334161
_cell_angle_alpha 90.000000
_cell_angle_beta 90.000000
_cell_angle_gamma 90.000000
_cell_volume 3351.793022
_symmetry_space_group_name_H-M "I M M M"
_symmetry_group_IT_number 71
_symmetry_cell_setting 'orthorhombic'
loop_
_space_group_symop_operation_xyz
x,y,z
-x,-y,z
x,-y,-z
-x,y,-z
-x,-y,-z
x,y,-z
-x,y,z
x,-y,z
1/2+x,1/2+y,1/2+z
1/2-x,1/2-y,1/2+z
1/2+x,1/2-y,1/2-z
1/2-x,1/2+y,1/2-z
1/2-x,1/2-y,1/2-z
1/2+x,1/2+y,1/2-z
1/2-x,1/2+y,1/2+z
1/2+x,1/2-y,1/2+z
loop_
_atom_site_type_symbol
_atom_site_label
_atom_site_fract_x
_atom_site_fract_y
_atom_site_fract_z
Si Si1 0.746915 0.000000 0.692933
Si Si2 0.552897 0.109022 0.193089
Si Si3 0.146745 0.000000 0.195700
Si Si4 0.386143 0.287963 0.687246
Si Si5 0.794652 0.696966 0.689625
O O1 0.718362 0.911512 0.764646
O O2 0.746505 0.000000 0.500000
O O3 0.800376 0.000000 0.745895
O O4 0.500000 0.115679 0.242211
O O5 0.579197 0.207106 0.243713
O O6 0.569977 0.000000 0.248052
O O7 0.554542 0.106550 0.000000
O O8 0.120833 0.099870 0.248701
O O9 0.148697 0.000000 0.000000
O O10 0.396549 0.296958 0.500000
O O11 0.337308 0.239056 0.716662
O O12 0.802079 0.709866 0.500000
O O13 0.750000 0.750000 0.750000
#
# Coordination Sequence:
#
# PCOD9523744 Si02
#       5
#     8  16   8  16  16
#     4  12  24  38  58  83 114 159 208 251 301 356
#     4   9  20  41  66  90 119 154 193 243 305 365
#     4  10  22  40  59  81 120 164 201 246 299 350
#     4  11  23  39  61  89 120 157 203 249 299 361
#     4  12  24  39  58  84 120 160 203 251 299 354
#
# _framework density 19.094258
#
# number of rings (size 3 to 8) (size 9 to 14) (size 15 to 20)
#    0.000    1.250    2.500    4.875    1.750    2.000 
#    0.000    1.875    0.000    3.750    0.000    0.000 
#    0.000    0.000    0.000    0.000    0.000    0.000 
#
# Total GULP energy -178402.943562 kJ/mol
# GULP energy per Si atom -5575.091986 kJ/mol
# Density = 1.905080 g / cm^3
# Si number density = 19.094258 Si / 1000 Ang^3
#
#
#
# Elastic Constant Matrix: (Units=GPa)
#
#
# Indices 1 2 3 4 5 6 
#
# 1 72.8841 57.3384 -8.2378 0.0000 0.0000 0.0000
# 2 57.3384 197.2326 -7.4723 0.0000 0.0000 0.0000
# 3 -8.2378 -7.4723 16.2813 0.0000 0.0000 0.0000
# 4 0.0000 0.0000 0.0000 28.9005 0.0000 0.0000
# 5 0.0000 0.0000 0.0000 0.0000 28.5127 0.0000
# 6 0.0000 0.0000 0.0000 0.0000 0.0000 39.2710
#
#
#
# Elastic Compliance Matrix: (Units=1/GPa)
#
#
# Indices 1 2 3 4 5 6 
#
# 1 0.018548 -0.005126 0.007032 0.000000 0.000000 0.000000
# 2 -0.005126 0.006576 0.000425 0.000000 0.000000 0.000000
# 3 0.007032 0.000425 0.065173 0.000000 0.000000 0.000000
# 4 0.000000 0.000000 0.000000 0.034601 0.000000 0.000000
# 5 0.000000 0.000000 0.000000 0.000000 0.035072 0.000000
# 6 0.000000 0.000000 0.000000 0.000000 0.000000 0.025464
#
#
# Mechanical properties :
#
#
# Convention : Reuss Voigt Hill
#
# Bulk Modulus (GPa) = 10.53083 41.07276 25.80180
# Shear Modulus (GPa) = 23.53768 35.65481 29.59624
#
# Velocity S-wave (km/s) = 3.51481 4.32592 3.94128
# Velocity P-wave (km/s) = 4.69031 6.81973 5.85268
#
# Compressibility (1/GPa) = 0.09495927
#
# Stress axis : x y z
#
# Youngs Moduli (GPa) = 53.91534 152.06000 15.34378
#
# Poissons Ratio (x) = 0.77941 -0.10790
# Poissons Ratio (y) = 0.27635 -0.00652
# Poissons Ratio (z) = -0.37913 -0.06460
#
# Static dielectric constant tensor:
#      x y z
#    x 1.627110 0.000000 0.000000 
#    y 0.000000 1.663240 0.000000 
#    z 0.000000 0.000000 1.660450 
# 
# From -- ./inp_files/3756.got.cif
#   From: 2010.05.17/outbox.cif.g08.bks.cpg/sg71_2_cif.got.tgz:3756.got - 2010.06.03 16:22:01.
