data_PCOD9523940
_publ_section_title
;
Structure prediction by ZEFSAII (Michael W. Deem and Ramdas Pophale) SiO2 
 PCOD9523940
Probable space group: I M M M
;
_chemical_formula_sum "Si O2"
_cell_formula_units_Z 58
_cell_length_a 14.466103
_cell_length_b 19.281920
_cell_length_c 12.195091
_cell_angle_alpha 90.000000
_cell_angle_beta 90.000000
_cell_angle_gamma 90.000000
_cell_volume 3401.628449
_symmetry_space_group_name_H-M "I M M M"
_symmetry_group_IT_number 71
_symmetry_cell_setting 'orthorhombic'
loop_
_space_group_symop_operation_xyz
x,y,z
-x,-y,z
x,-y,-z
-x,y,-z
-x,-y,-z
x,y,-z
-x,y,z
x,-y,z
1/2+x,1/2+y,1/2+z
1/2-x,1/2-y,1/2+z
1/2+x,1/2-y,1/2-z
1/2-x,1/2+y,1/2-z
1/2-x,1/2-y,1/2-z
1/2+x,1/2+y,1/2-z
1/2-x,1/2+y,1/2+z
1/2+x,1/2-y,1/2+z
loop_
_atom_site_type_symbol
_atom_site_label
_atom_site_fract_x
_atom_site_fract_y
_atom_site_fract_z
Si Si1 0.106849 0.080391 0.868071
Si Si2 0.272878 0.172409 0.786404
Si Si3 0.606868 0.920361 0.631554
Si Si4 0.896909 0.354425 0.500000
Si Si5 0.500000 0.000000 0.000000
O O1 0.178911 0.131567 0.813422
O O2 0.000000 0.095110 0.839549
O O3 0.126361 0.000000 0.839680
O O4 0.114962 0.086263 0.000000
O O5 0.250000 0.250000 0.750000
O O6 0.326577 0.132554 0.690306
O O7 0.338598 0.166633 0.893254
O O8 0.612148 0.915744 0.500000
O O9 0.500000 0.907591 0.663911
O O10 0.628152 0.000000 0.663290
O O11 0.920249 0.437256 0.500000
O O12 0.000000 0.321772 0.500000
#
# Coordination Sequence:
#
# PCOD9523940 Si02
#       5
#    16  16  16   8   2
#     4   9  19  36  59  84 110 144 194 248 289 337
#     4  12  24  35  59  85 125 161 194 237 307 373
#     4   9  20  38  61  87 114 150 197 246 293 352
#     4  10  24  40  61  98 119 152 201 259 323 358
#     4   8  24  40  72  92 128 148 202 280 328 358
#
# _framework density 17.050656
#
# number of rings (size 3 to 8) (size 9 to 14) (size 15 to 20)
#    0.414    1.655    1.379    3.310    5.793    2.207 
#    0.000    2.759    0.000    0.000    0.000    3.862 
#    0.000    0.000    0.000    0.000    0.000    0.000 
#
# Total GULP energy -161541.305403 kJ/mol
# GULP energy per Si atom -5570.389841 kJ/mol
# Density = 1.701185 g / cm^3
# Si number density = 17.050656 Si / 1000 Ang^3
#
#
#
# Elastic Constant Matrix: (Units=GPa)
#
#
# Indices 1 2 3 4 5 6 
#
# 1 137.7731 121.2650 55.0984 0.0000 0.0000 0.0000
# 2 121.2650 164.8953 65.9885 0.0000 0.0000 0.0000
# 3 55.0984 65.9885 47.4430 0.0000 0.0000 0.0000
# 4 0.0000 0.0000 0.0000 9.8739 0.0000 0.0000
# 5 0.0000 0.0000 0.0000 0.0000 27.0825 0.0000
# 6 0.0000 0.0000 0.0000 0.0000 0.0000 -1.1203
#
#
#
# Elastic Compliance Matrix: (Units=1/GPa)
#
#
# Indices 1 2 3 4 5 6 
#
# 1 0.021486 -0.013115 -0.006711 0.000000 0.000000 0.000000
# 2 -0.013115 0.021684 -0.014928 0.000000 0.000000 0.000000
# 3 -0.006711 -0.014928 0.049635 0.000000 0.000000 0.000000
# 4 0.000000 0.000000 0.000000 0.101277 0.000000 0.000000
# 5 0.000000 0.000000 0.000000 0.000000 0.036924 0.000000
# 6 0.000000 0.000000 0.000000 0.000000 0.000000 -0.892588
#
#
# Mechanical properties :
#
#
# Convention : Reuss Voigt Hill
#
# Bulk Modulus (GPa) = 42.92547 92.75725 67.84136
# Shear Modulus (GPa) = -8.55712 14.35118 2.89703
#
# Velocity S-wave (km/s) = -2.24266 2.90432 1.30490
# Velocity P-wave (km/s) = 4.30394 8.10961 6.49191
#
# Compressibility (1/GPa) = 0.02329619
#
# Stress axis : x y z
#
# Youngs Moduli (GPa) = 46.54209 46.11801 20.14706
#
# Poissons Ratio (x) = 0.60485 0.13520
# Poissons Ratio (y) = 0.61041 0.30076
# Poissons Ratio (z) = 0.31233 0.68845
#
# Static dielectric constant tensor:
#      x y z
#    x 1.573550 0.000000 0.000000 
#    y 0.000000 1.552630 0.000000 
#    z 0.000000 0.000000 1.587560 
# 
# From -- ./inp_files/21128.got.cif
#   From: 2010.05.17/outbox.cif.g08.bks.cpg/sg71_11_cif.got.tgz:21128.got - 2010.06.03 16:22:01.
