data_PCOD9523285
_publ_section_title
;
Structure prediction by ZEFSAII (Michael W. Deem and Ramdas Pophale) SiO2 
 PCOD9523285
Probable space group: I M M M
;
_chemical_formula_sum "Si O2"
_cell_formula_units_Z 72
_cell_length_a 17.695271
_cell_length_b 7.531971
_cell_length_c 27.776394
_cell_angle_alpha 90.000000
_cell_angle_beta 90.000000
_cell_angle_gamma 90.000000
_cell_volume 3702.045237
_symmetry_space_group_name_H-M "I M M M"
_symmetry_group_IT_number 71
_symmetry_cell_setting 'orthorhombic'
loop_
_space_group_symop_operation_xyz
x,y,z
-x,-y,z
x,-y,-z
-x,y,-z
-x,-y,-z
x,y,-z
-x,y,z
x,-y,z
1/2+x,1/2+y,1/2+z
1/2-x,1/2-y,1/2+z
1/2+x,1/2-y,1/2-z
1/2-x,1/2+y,1/2-z
1/2-x,1/2-y,1/2-z
1/2+x,1/2+y,1/2-z
1/2-x,1/2+y,1/2+z
1/2+x,1/2-y,1/2+z
loop_
_atom_site_type_symbol
_atom_site_label
_atom_site_fract_x
_atom_site_fract_y
_atom_site_fract_z
Si Si1 0.907470 0.500000 0.196617
Si Si2 0.000000 0.784408 0.054235
Si Si3 0.364015 0.295133 0.377115
Si Si4 0.411731 0.289596 0.115487
Si Si5 0.771765 0.213776 0.554089
Si Si6 0.591177 0.000000 0.192627
O O1 0.874497 0.330169 0.168592
O O2 0.883490 0.500000 0.252357
O O3 0.000000 0.500000 0.193432
O O4 0.926502 0.732671 0.084098
O O5 0.000000 0.000000 0.051981
O O6 0.000000 0.716998 0.000000
O O7 0.379030 0.500000 0.364537
O O8 0.285267 0.282008 0.405333
O O9 0.500000 0.252890 0.105197
O O10 0.404511 0.500000 0.125435
O O11 0.356577 0.245097 0.071403
O O12 0.387719 0.172235 0.161284
O O13 0.755429 0.279019 0.500000
O O14 0.764270 0.000000 0.553435
O O15 0.500000 0.000000 0.195055
#
# Coordination Sequence:
#
# PCOD9523285 Si02
#       6
#     8   8  16  16  16   8
#     4  11  22  40  62  87 115 153 200 253 296 340
#     4   9  18  33  53  79 110 149 197 234 277 345
#     4  11  22  37  57  83 119 158 196 240 292 347
#     4   9  19  38  62  87 118 153 192 241 295 357
#     4  10  21  37  60  88 121 157 194 239 295 353
#     4   9  20  38  63  88 113 148 198 248 300 349
#
# _framework density 19.448708
#
# number of rings (size 3 to 8) (size 9 to 14) (size 15 to 20)
#    0.000    2.111    2.222    0.667    1.556    2.667 
#    0.000    6.111    0.000    2.000    0.000    0.000 
#    0.000    0.000    0.000    0.000    0.000    0.000 
#
# Total GULP energy -200948.684940 kJ/mol
# GULP energy per Si atom -5581.907915 kJ/mol
# Density = 1.940444 g / cm^3
# Si number density = 19.448708 Si / 1000 Ang^3
#
#
#
# Elastic Constant Matrix: (Units=GPa)
#
#
# Indices 1 2 3 4 5 6 
#
# 1 70.7097 12.3165 12.0753 0.0000 0.0000 0.0000
# 2 12.3165 71.5976 20.1432 0.0000 0.0000 0.0000
# 3 12.0753 20.1432 62.5390 0.0000 0.0000 0.0000
# 4 0.0000 0.0000 0.0000 -20.8286 0.0000 0.0000
# 5 0.0000 0.0000 0.0000 0.0000 396.2301 0.0000
# 6 0.0000 0.0000 0.0000 0.0000 0.0000 10.9649
#
#
#
# Elastic Compliance Matrix: (Units=1/GPa)
#
#
# Indices 1 2 3 4 5 6 
#
# 1 0.014862 -0.001924 -0.002250 0.000000 0.000000 0.000000
# 2 -0.001924 0.015608 -0.004656 0.000000 0.000000 0.000000
# 3 -0.002250 -0.004656 0.017924 0.000000 0.000000 0.000000
# 4 0.000000 0.000000 0.000000 -0.048011 0.000000 0.000000
# 5 0.000000 0.000000 0.000000 0.000000 0.002524 0.000000
# 6 0.000000 0.000000 0.000000 0.000000 0.000000 0.091200
#
#
# Mechanical properties :
#
#
# Convention : Reuss Voigt Hill
#
# Bulk Modulus (GPa) = 32.53631 32.65735 32.59683
# Shear Modulus (GPa) = 40.98035 87.96070 64.47052
#
# Velocity S-wave (km/s) = 4.59529 6.73240 5.76376
# Velocity P-wave (km/s) = 6.70233 8.78986 7.81610
#
# Compressibility (1/GPa) = 0.03073489
#
# Stress axis : x y z
#
# Youngs Moduli (GPa) = 67.28743 64.07109 55.79112
#
# Poissons Ratio (x) = 0.12324 0.12553
# Poissons Ratio (y) = 0.12943 0.25974
# Poissons Ratio (z) = 0.15140 0.29829
#
# Static dielectric constant tensor:
#      x y z
#    x 1.693370 0.000000 0.000000 
#    y 0.000000 1.699290 0.000000 
#    z 0.000000 0.000000 1.644940 
# 
# From -- ./inp_files/65179.got.cif
#   From: 2010.05.17/outbox.cif.g08.bks.cpg/sg71_33_cif.got.tgz:65179.got - 2010.06.03 16:22:01.
