data_PCOD9523863
_publ_section_title
;
Structure prediction by ZEFSAII (Michael W. Deem and Ramdas Pophale) SiO2 
 PCOD9523863
Probable space group: I M M M
;
_chemical_formula_sum "Si O2"
_cell_formula_units_Z 72
_cell_length_a 7.982666
_cell_length_b 16.321606
_cell_length_c 27.096490
_cell_angle_alpha 90.000000
_cell_angle_beta 90.000000
_cell_angle_gamma 90.000000
_cell_volume 3530.399766
_symmetry_space_group_name_H-M "I M M M"
_symmetry_group_IT_number 71
_symmetry_cell_setting 'orthorhombic'
loop_
_space_group_symop_operation_xyz
x,y,z
-x,-y,z
x,-y,-z
-x,y,-z
-x,-y,-z
x,y,-z
-x,y,z
x,-y,z
1/2+x,1/2+y,1/2+z
1/2-x,1/2-y,1/2+z
1/2+x,1/2-y,1/2-z
1/2-x,1/2+y,1/2-z
1/2-x,1/2-y,1/2-z
1/2+x,1/2+y,1/2-z
1/2-x,1/2+y,1/2+z
1/2+x,1/2-y,1/2+z
loop_
_atom_site_type_symbol
_atom_site_label
_atom_site_fract_x
_atom_site_fract_y
_atom_site_fract_z
Si Si1 0.801177 0.000000 0.400900
Si Si2 0.799470 0.337598 0.728033
Si Si3 0.704020 0.000000 0.714009
Si Si4 0.306781 0.171834 0.113449
Si Si5 0.301796 0.173853 0.442843
Si Si6 0.500000 0.402863 0.555176
O O1 0.759883 0.000000 0.342695
O O2 0.728213 0.918905 0.426153
O O3 0.000000 0.000000 0.407543
O O4 0.750000 0.250000 0.750000
O O5 0.736952 0.417304 0.757929
O O6 0.754613 0.337815 0.670385
O O7 0.000000 0.342059 0.730137
O O8 0.500000 0.000000 0.714499
O O9 0.500000 0.144248 0.107923
O O10 0.293015 0.265049 0.094035
O O11 0.169466 0.124769 0.081670
O O12 0.250053 0.185224 0.500000
O O13 0.500000 0.191695 0.439041
O O14 0.500000 0.500000 0.553180
O O15 0.500000 0.368036 0.500000
#
# Coordination Sequence:
#
# PCOD9523863 Si02
#       6
#     8  16   8  16  16   8
#     4  12  25  39  58  95 134 170 223 272 323 393
#     4  10  23  40  63  95 128 170 222 272 328 396
#     4  10  22  43  65  86 126 174 216 265 329 392
#     4  11  24  43  69  99 134 172 222 275 330 393
#     4  11  23  41  65  93 128 174 222 268 328 393
#     4  11  26  46  68  99 133 171 223 274 336 403
#
# _framework density 20.394292
#
# number of rings (size 3 to 8) (size 9 to 14) (size 15 to 20)
#    0.000    1.222    1.111    4.000    3.111    9.333 
#    0.000    1.111    0.000    0.000    0.000    0.000 
#    0.000    0.000    0.000    0.000    0.000    0.000 
#
# Total GULP energy -201304.430820 kJ/mol
# GULP energy per Si atom -5591.789745 kJ/mol
# Density = 2.034787 g / cm^3
# Si number density = 20.394292 Si / 1000 Ang^3
#
#
#
# Elastic Constant Matrix: (Units=GPa)
#
#
# Indices 1 2 3 4 5 6 
#
# 1 72.4526 6.7170 30.0520 0.0000 0.0000 0.0000
# 2 6.7170 94.4141 12.9974 0.0000 0.0000 0.0000
# 3 30.0520 12.9974 102.7580 0.0000 0.0000 0.0000
# 4 0.0000 0.0000 0.0000 31.5538 0.0000 0.0000
# 5 0.0000 0.0000 0.0000 0.0000 32.9303 0.0000
# 6 0.0000 0.0000 0.0000 0.0000 0.0000 22.6246
#
#
#
# Elastic Compliance Matrix: (Units=1/GPa)
#
#
# Indices 1 2 3 4 5 6 
#
# 1 0.015730 -0.000494 -0.004538 0.000000 0.000000 0.000000
# 2 -0.000494 0.010795 -0.001221 0.000000 0.000000 0.000000
# 3 -0.004538 -0.001221 0.011213 0.000000 0.000000 0.000000
# 4 0.000000 0.000000 0.000000 0.031692 0.000000 0.000000
# 5 0.000000 0.000000 0.000000 0.000000 0.030367 0.000000
# 6 0.000000 0.000000 0.000000 0.000000 0.000000 0.044200
#
#
# Mechanical properties :
#
#
# Convention : Reuss Voigt Hill
#
# Bulk Modulus (GPa) = 39.63206 41.01750 40.32478
# Shear Modulus (GPa) = 30.31887 32.07895 31.19891
#
# Velocity S-wave (km/s) = 3.85987 3.97033 3.91549
# Velocity P-wave (km/s) = 6.27216 6.41669 6.34484
#
# Compressibility (1/GPa) = 0.02523210
#
# Stress axis : x y z
#
# Youngs Moduli (GPa) = 63.57207 92.63655 89.18123
#
# Poissons Ratio (x) = 0.04580 0.40469
# Poissons Ratio (y) = 0.03143 0.10887
# Poissons Ratio (z) = 0.28848 0.11309
#
# Static dielectric constant tensor:
#      x y z
#    x 1.638440 0.000000 0.000000 
#    y 0.000000 1.750130 0.000000 
#    z 0.000000 0.000000 1.755400 
# 
# From -- ./inp_files/62918.got.cif
#   From: 2010.05.17/outbox.cif.g08.bks.cpg/sg71_32_cif.got.tgz:62918.got - 2010.06.03 16:22:01.
