data_PCOD9523384
_publ_section_title
;
Structure prediction by ZEFSAII (Michael W. Deem and Ramdas Pophale) SiO2 
 PCOD9523384
Probable space group: I M M M
;
_chemical_formula_sum "Si O2"
_cell_formula_units_Z 72
_cell_length_a 8.006904
_cell_length_b 26.551463
_cell_length_c 15.688184
_cell_angle_alpha 90.000000
_cell_angle_beta 90.000000
_cell_angle_gamma 90.000000
_cell_volume 3335.229718
_symmetry_space_group_name_H-M "I M M M"
_symmetry_group_IT_number 71
_symmetry_cell_setting 'orthorhombic'
loop_
_space_group_symop_operation_xyz
x,y,z
-x,-y,z
x,-y,-z
-x,y,-z
-x,-y,-z
x,y,-z
-x,y,z
x,-y,z
1/2+x,1/2+y,1/2+z
1/2-x,1/2-y,1/2+z
1/2+x,1/2-y,1/2-z
1/2-x,1/2+y,1/2-z
1/2-x,1/2-y,1/2-z
1/2+x,1/2+y,1/2-z
1/2-x,1/2+y,1/2+z
1/2+x,1/2-y,1/2+z
loop_
_atom_site_type_symbol
_atom_site_label
_atom_site_fract_x
_atom_site_fract_y
_atom_site_fract_z
Si Si1 0.295713 0.714450 0.500000
Si Si2 0.308041 0.055042 0.897915
Si Si3 0.799444 0.668217 0.000000
Si Si4 0.188172 0.844458 0.165012
Si Si5 0.303187 0.608756 0.166674
Si Si6 0.698411 0.000000 0.599563
O O1 0.500000 0.708550 0.500000
O O2 0.254145 0.773074 0.500000
O O3 0.234955 0.688329 0.587950
O O4 0.500000 0.065221 0.870295
O O5 0.187592 0.099129 0.871820
O O6 0.259472 0.000000 0.865333
O O7 0.311145 0.053184 0.000000
O O8 0.730947 0.639503 0.918430
O O9 0.000000 0.664472 0.000000
O O10 0.270487 0.856783 0.256333
O O11 0.000000 0.824437 0.178744
O O12 0.500000 0.605431 0.183967
O O13 0.244964 0.551422 0.149408
O O14 0.500000 0.000000 0.592446
O O15 0.764763 0.000000 0.500000
#
# Coordination Sequence:
#
# PCOD9523384 Si02
#       6
#     8  16   8  16  16   8
#     4   9  20  41  65  87 119 160 206 256 299 356
#     4   9  18  32  50  77 115 155 194 241 293 345
#     4  11  23  42  66  88 114 159 209 254 311 366
#     4  10  21  38  60  87 120 160 203 245 299 360
#     4  11  24  40  62  94 128 158 198 254 309 360
#     4  11  23  41  67  94 122 163 207 243 299 371
#
# _framework density 21.587717000000001
#
# number of rings (size 3 to 8) (size 9 to 14) (size 15 to 20)
#    0.000    1.889    2.222    2.000    1.556    3.556 
#    0.000    3.333    0.000    0.000    0.000    0.000 
#    0.000    0.000    0.000    0.000    0.000    0.000 
#
# Total GULP energy -200729.680887 kJ/mol
# GULP energy per Si atom -5575.824469 kJ/mol
# Density = 2.153858 g / cm^3
# Si number density = 21.587717 Si / 1000 Ang^3
#
#
#
# Elastic Constant Matrix: (Units=GPa)
#
#
# Indices 1 2 3 4 5 6 
#
# 1 28.1717 10.9921 1.9256 0.0000 0.0000 0.0000
# 2 10.9921 127.1772 69.3885 -0.0001 0.0000 0.0001
# 3 1.9256 69.3885 163.8429 -0.0004 0.0000 0.0003
# 4 0.0000 -0.0001 -0.0004 1.5933 0.0000 0.0003
# 5 0.0000 0.0000 0.0000 0.0000 9.5487 0.0001
# 6 0.0000 0.0001 0.0003 0.0003 0.0001 -5.4542
#
#
#
# Elastic Compliance Matrix: (Units=1/GPa)
#
#
# Indices 1 2 3 4 5 6 
#
# 1 0.036914 -0.003841 0.001193 0.000001 0.000000 0.000000
# 2 -0.003841 0.010626 -0.004455 -0.000001 0.000000 0.000000
# 3 0.001193 -0.004455 0.007976 0.000002 0.000000 0.000000
# 4 0.000001 -0.000001 0.000002 0.627643 0.000003 0.000034
# 5 0.000000 0.000000 0.000000 0.000003 0.104726 0.000002
# 6 0.000000 0.000000 0.000000 0.000034 0.000002 -0.183345
#
#
# Mechanical properties :
#
#
# Convention : Reuss Voigt Hill
#
# Bulk Modulus (GPa) = 24.20777 53.75602 38.98189
# Shear Modulus (GPa) = 7.90495 16.92994 12.41744
#
# Velocity S-wave (km/s) = 1.91565 2.80347 2.40095
# Velocity P-wave (km/s) = 4.01634 5.95269 5.07767
#
# Compressibility (1/GPa) = 0.04130906
#
# Stress axis : x y z
#
# Youngs Moduli (GPa) = 27.09005 94.11166 125.37518
#
# Poissons Ratio (x) = 0.36152 -0.14958
# Poissons Ratio (y) = 0.10406 0.55853
# Poissons Ratio (z) = -0.03232 0.41926
#
# Static dielectric constant tensor:
#      x y z
#    x 1.807310 0.000000 0.000000 
#    y 0.000000 1.740140 0.000000 
#    z 0.000000 0.000000 1.860390 
# 
# From -- ./inp_files/31497.got.cif
#   From: 2010.05.17/outbox.cif.g08.bks.cpg/sg71_16_cif.got.tgz:31497.got - 2010.06.03 16:22:01.
