data_PCOD9523635
_publ_section_title
;
Structure prediction by ZEFSAII (Michael W. Deem and Ramdas Pophale) SiO2 
 PCOD9523635
Probable space group: I M M M
;
_chemical_formula_sum "Si O2"
_cell_formula_units_Z 72
_cell_length_a 8.020620
_cell_length_b 15.099629
_cell_length_c 39.436602
_cell_angle_alpha 90.000000
_cell_angle_beta 90.000000
_cell_angle_gamma 90.000000
_cell_volume 4776.103231
_symmetry_space_group_name_H-M "I M M M"
_symmetry_group_IT_number 71
_symmetry_cell_setting 'orthorhombic'
loop_
_space_group_symop_operation_xyz
x,y,z
-x,-y,z
x,-y,-z
-x,y,-z
-x,-y,-z
x,y,-z
-x,y,z
x,-y,z
1/2+x,1/2+y,1/2+z
1/2-x,1/2-y,1/2+z
1/2+x,1/2-y,1/2-z
1/2-x,1/2+y,1/2-z
1/2-x,1/2-y,1/2-z
1/2+x,1/2+y,1/2-z
1/2-x,1/2+y,1/2+z
1/2+x,1/2-y,1/2+z
loop_
_atom_site_type_symbol
_atom_site_label
_atom_site_fract_x
_atom_site_fract_y
_atom_site_fract_z
Si Si1 0.682625 0.500000 0.296493
Si Si2 0.804040 0.336796 0.661982
Si Si3 0.000000 0.892729 0.038638
Si Si4 0.810370 0.500000 0.225242
Si Si5 0.305314 0.893502 0.087107
Si Si6 0.799352 0.303232 0.784283
O O1 0.500000 0.500000 0.280447
O O2 0.704829 0.585563 0.319439
O O3 0.811941 0.500000 0.266065
O O4 0.768571 0.342022 0.622049
O O5 0.763639 0.248572 0.682702
O O6 0.000000 0.357026 0.665661
O O7 0.832024 0.868818 0.059131
O O8 0.000000 0.000000 0.037306
O O9 0.000000 0.859829 0.000000
O O10 0.735267 0.595451 0.215945
O O11 0.000000 0.500000 0.212047
O O12 0.500000 0.878344 0.077548
O O13 0.290106 0.000000 0.093763
O O14 0.750000 0.250000 0.750000
O O15 0.000000 0.305215 0.784449
#
# Coordination Sequence:
#
# PCOD9523635 Si02
#       6
#     8  16   8   8  16  16
#     4  12  22  28  48  70  86 117 159 204 246 288
#     4  11  21  33  47  67  94 122 157 206 248 282
#     4   9  18  30  46  68  96 127 161 197 231 278
#     4  10  22  38  48  60  92 122 153 202 251 294
#     4   9  18  30  46  67  94 126 158 194 237 279
#     4  11  22  34  49  67  88 121 159 200 247 293
#
# _framework density 15.075049999999999
#
# number of rings (size 3 to 8) (size 9 to 14) (size 15 to 20)
#    0.000    1.667    3.333    2.333    3.111    1.333 
#    0.000    2.222    0.000    0.000    0.000    0.000 
#    0.000    0.000    0.000    2.000    0.000    8.889 
#
# Total GULP energy -200720.704632 kJ/mol
# GULP energy per Si atom -5575.575129 kJ/mol
# Density = 1.504074 g / cm^3
# Si number density = 15.075050 Si / 1000 Ang^3
#
#
#
# Elastic Constant Matrix: (Units=GPa)
#
#
# Indices 1 2 3 4 5 6 
#
# 1 64.8541 19.5755 50.7988 0.0000 0.0000 0.0000
# 2 19.5755 89.0767 42.3593 0.0000 0.0000 0.0000
# 3 50.7988 42.3593 112.0163 0.0000 0.0000 0.0000
# 4 0.0000 0.0000 0.0000 -18.0008 0.0000 0.0000
# 5 0.0000 0.0000 0.0000 0.0000 22.1220 0.0000
# 6 0.0000 0.0000 0.0000 0.0000 0.0000 -210.1453
#
#
#
# Elastic Compliance Matrix: (Units=1/GPa)
#
#
# Indices 1 2 3 4 5 6 
#
# 1 0.023915 -0.000120 -0.010800 0.000000 0.000000 0.000000
# 2 -0.000120 0.013688 -0.005122 0.000000 0.000000 0.000000
# 3 -0.010800 -0.005122 0.015762 0.000000 0.000000 0.000000
# 4 0.000000 0.000000 0.000000 -0.055553 0.000000 0.000000
# 5 0.000000 0.000000 0.000000 0.000000 0.045204 0.000000
# 6 0.000000 0.000000 0.000000 0.000000 0.000000 -0.004759
#
#
# Mechanical properties :
#
#
# Convention : Reuss Voigt Hill
#
# Bulk Modulus (GPa) = 46.98893 54.60158 50.79525
# Shear Modulus (GPa) = 64.57118 -30.99058 16.79030
#
# Velocity S-wave (km/s) = 6.55180 -4.53896 3.34096
# Velocity P-wave (km/s) = 9.40598 2.97135 6.97501
#
# Compressibility (1/GPa) = 0.02128161
#
# Stress axis : x y z
#
# Youngs Moduli (GPa) = 41.81534 73.05526 63.44430
#
# Poissons Ratio (x) = 0.00875 0.68519
# Poissons Ratio (y) = 0.00501 0.32496
# Poissons Ratio (z) = 0.45160 0.37419
#
# Static dielectric constant tensor:
#      x y z
#    x 1.539880 0.000000 0.000000 
#    y 0.000000 1.506160 0.000000 
#    z 0.000000 0.000000 1.481360 
# 
# From -- ./inp_files/6522.got.cif
#   From: 2010.05.17/outbox.cif.g08.bks.cpg/sg71_4_cif.got.tgz:6522.got - 2010.06.03 16:22:01.
