data_PCOD9523243
_publ_section_title
;
Structure prediction by ZEFSAII (Michael W. Deem and Ramdas Pophale) SiO2 
 PCOD9523243
Probable space group: I M M M
;
_chemical_formula_sum "Si O2"
_cell_formula_units_Z 80
_cell_length_a 17.289579
_cell_length_b 21.014111
_cell_length_c 12.289936
_cell_angle_alpha 90.000000
_cell_angle_beta 90.000000
_cell_angle_gamma 90.000000
_cell_volume 4465.242623
_symmetry_space_group_name_H-M "I M M M"
_symmetry_group_IT_number 71
_symmetry_cell_setting 'orthorhombic'
loop_
_space_group_symop_operation_xyz
x,y,z
-x,-y,z
x,-y,-z
-x,y,-z
-x,-y,-z
x,y,-z
-x,y,z
x,-y,z
1/2+x,1/2+y,1/2+z
1/2-x,1/2-y,1/2+z
1/2+x,1/2-y,1/2-z
1/2-x,1/2+y,1/2-z
1/2-x,1/2-y,1/2-z
1/2+x,1/2+y,1/2-z
1/2-x,1/2+y,1/2+z
1/2+x,1/2-y,1/2+z
loop_
_atom_site_type_symbol
_atom_site_label
_atom_site_fract_x
_atom_site_fract_y
_atom_site_fract_z
Si Si1 0.860557 0.782421 0.184925
Si Si2 0.673950 0.924600 0.224734
Si Si3 0.741550 0.323406 0.874474
Si Si4 0.500000 0.797640 0.626382
Si Si5 0.500000 0.928869 0.283956
Si Si6 0.245178 0.427609 0.500000
Si Si7 0.910960 0.879370 0.000000
O O1 0.789263 0.742953 0.133643
O O2 0.832362 0.812355 0.297465
O O3 0.894765 0.835458 0.105017
O O4 0.926785 0.729531 0.189748
O O5 0.707751 0.879992 0.320050
O O6 0.580711 0.921577 0.219497
O O7 0.712340 0.899966 0.112382
O O8 0.693891 0.000000 0.240828
O O9 0.725077 0.336984 0.000000
O O10 0.500000 0.776034 0.500000
O O11 0.500000 0.873194 0.628665
O O12 0.500000 0.000000 0.330726
O O13 0.216398 0.500000 0.500000
O O14 0.338078 0.426618 0.500000
O O15 0.000000 0.902071 0.000000
#
# Coordination Sequence:
#
# PCOD9523243 Si02
#       7
#    16  16  16   8   8   8   8
#     4  11  21  35  55  83 111 144 188 230 290 338
#     4  10  21  37  59  83 114 152 194 235 278 336
#     4  11  22  36  56  80 114 151 190 234 276 341
#     4  12  20  35  58  82 112 149 189 240 290 331
#     4  10  22  36  52  84 120 156 194 231 277 335
#     4  10  22  40  60  84 113 149 192 239 287 335
#     4  12  20  35  63  89 112 142 183 238 295 344
#
# _framework density 17.916160000000001
#
# number of rings (size 3 to 8) (size 9 to 14) (size 15 to 20)
#    0.000    1.200    7.000    0.000    0.000    1.200 
#    0.000    4.500    2.200    0.000    0.000    0.000 
#    0.000    4.800    0.000    0.000    0.000    0.000 
#
# Total GULP energy -222940.803985 kJ/mol
# GULP energy per Si atom -5573.520100 kJ/mol
# Density = 1.787538 g / cm^3
# Si number density = 17.916160 Si / 1000 Ang^3
#
#
#
# Elastic Constant Matrix: (Units=GPa)
#
#
# Indices 1 2 3 4 5 6 
#
# 1 111.1740 24.9770 59.0738 0.0000 0.0000 0.0000
# 2 24.9770 63.9091 33.9151 0.0000 0.0000 0.0000
# 3 59.0738 33.9151 136.0648 0.0000 0.0000 0.0000
# 4 0.0000 0.0000 0.0000 15.7363 0.0000 0.0000
# 5 0.0000 0.0000 0.0000 0.0000 15.4123 0.0000
# 6 0.0000 0.0000 0.0000 0.0000 0.0000 31.8224
#
#
#
# Elastic Compliance Matrix: (Units=1/GPa)
#
#
# Indices 1 2 3 4 5 6 
#
# 1 0.011957 -0.002211 -0.004640 0.000000 0.000000 0.000000
# 2 -0.002211 0.018441 -0.003637 0.000000 0.000000 0.000000
# 3 -0.004640 -0.003637 0.010271 0.000000 0.000000 0.000000
# 4 0.000000 0.000000 0.000000 0.063547 0.000000 0.000000
# 5 0.000000 0.000000 0.000000 0.000000 0.064883 0.000000
# 6 0.000000 0.000000 0.000000 0.000000 0.000000 0.031424
#
#
# Mechanical properties :
#
#
# Convention : Reuss Voigt Hill
#
# Bulk Modulus (GPa) = 50.77838 60.78665 55.78252
# Shear Modulus (GPa) = 21.92368 25.47301 23.69835
#
# Velocity S-wave (km/s) = 3.50191 3.77475 3.64089
# Velocity P-wave (km/s) = 6.68991 7.28014 6.99126
#
# Compressibility (1/GPa) = 0.01969342
#
# Stress axis : x y z
#
# Youngs Moduli (GPa) = 83.63117 54.22656 97.36541
#
# Poissons Ratio (x) = 0.11987 0.45181
# Poissons Ratio (y) = 0.18488 0.35410
# Poissons Ratio (z) = 0.38808 0.19721
#
# Static dielectric constant tensor:
#      x y z
#    x 1.634240 0.000000 0.000000 
#    y 0.000000 1.644670 0.000000 
#    z 0.000000 0.000000 1.608110 
# 
# From -- ./inp_files/21971.got.cif
#   From: 2010.05.17/outbox.cif.g08.bks.cpg/sg71_11_cif.got.tgz:21971.got - 2010.06.03 16:22:01.
