data_PCOD9523121
_publ_section_title
;
Structure prediction by ZEFSAII (Michael W. Deem and Ramdas Pophale) SiO2 
 PCOD9523121
Probable space group: I M M M
;
_chemical_formula_sum "Si O2"
_cell_formula_units_Z 96
_cell_length_a 14.764157
_cell_length_b 22.337070
_cell_length_c 14.864083
_cell_angle_alpha 90.000000
_cell_angle_beta 90.000000
_cell_angle_gamma 90.000000
_cell_volume 4901.996329
_symmetry_space_group_name_H-M "I M M M"
_symmetry_group_IT_number 71
_symmetry_cell_setting 'orthorhombic'
loop_
_space_group_symop_operation_xyz
x,y,z
-x,-y,z
x,-y,-z
-x,y,-z
-x,-y,-z
x,y,-z
-x,y,z
x,-y,z
1/2+x,1/2+y,1/2+z
1/2-x,1/2-y,1/2+z
1/2+x,1/2-y,1/2-z
1/2-x,1/2+y,1/2-z
1/2-x,1/2-y,1/2-z
1/2+x,1/2+y,1/2-z
1/2-x,1/2+y,1/2+z
1/2+x,1/2-y,1/2+z
loop_
_atom_site_type_symbol
_atom_site_label
_atom_site_fract_x
_atom_site_fract_y
_atom_site_fract_z
Si Si1 0.601404 0.071518 0.596972
Si Si2 0.840481 0.934390 0.897304
Si Si3 0.893996 0.163286 0.393555
Si Si4 0.261103 0.116870 0.740472
Si Si5 0.604965 0.701823 0.401806
Si Si6 0.607505 0.223592 0.223769
O O1 0.634323 0.094043 0.500000
O O2 0.500000 0.094963 0.610315
O O3 0.666546 0.088894 0.674649
O O4 0.596406 0.000000 0.592871
O O5 0.767003 0.927272 0.819882
O O6 0.890967 0.870262 0.887760
O O7 0.886554 0.000000 0.886668
O O8 0.805939 0.933668 0.000000
O O9 0.873290 0.155533 0.500000
O O10 0.825274 0.131475 0.323815
O O11 0.888147 0.232198 0.361436
O O12 0.000000 0.145024 0.379450
O O13 0.316793 0.172557 0.782301
O O14 0.648220 0.715181 0.500000
O O15 0.500000 0.717454 0.408907
O O16 0.634198 0.738574 0.314087
O O17 0.500000 0.205381 0.231737
#
# Coordination Sequence:
#
# PCOD9523121 Si02
#       6
#    16  16  16  16  16  16
#     4   9  19  36  57  83 114 145 183 237 295 344
#     4  10  22  37  54  80 113 149 193 240 283 333
#     4  10  22  38  54  77 114 153 186 223 273 340
#     4  12  21  35  59  87 109 151 193 239 282 346
#     4   9  18  34  55  80 112 144 180 234 293 344
#     4  10  21  37  55  84 115 144 186 235 293 351
#
# _framework density 19.583856999999998
#
# number of rings (size 3 to 8) (size 9 to 14) (size 15 to 20)
#    0.000    2.000    1.667    2.500    0.000    2.333 
#    0.000    3.333    0.000    3.000    0.000   11.667 
#    0.000    0.000    0.000    0.000    0.000    0.000 
#
# Total GULP energy -267244.462670 kJ/mol
# GULP energy per Si atom -5567.592972 kJ/mol
# Density = 1.953928 g / cm^3
# Si number density = 19.583857 Si / 1000 Ang^3
#
#
#
# Elastic Constant Matrix: (Units=GPa)
#
#
# Indices 1 2 3 4 5 6 
#
# 1 51.2510 0.5765 20.2399 0.0000 0.0000 0.0000
# 2 0.5765 38.1734 2.6566 0.0000 0.0000 0.0000
# 3 20.2399 2.6566 81.8399 0.0000 0.0000 0.0000
# 4 0.0000 0.0000 0.0000 33.0045 0.0000 0.0000
# 5 0.0000 0.0000 0.0000 0.0000 24.2566 0.0000
# 6 0.0000 0.0000 0.0000 0.0000 0.0000 27.1365
#
#
#
# Elastic Compliance Matrix: (Units=1/GPa)
#
#
# Indices 1 2 3 4 5 6 
#
# 1 0.021624 0.000046 -0.005349 0.000000 0.000000 0.000000
# 2 0.000046 0.026256 -0.000864 0.000000 0.000000 0.000000
# 3 -0.005349 -0.000864 0.013570 0.000000 0.000000 0.000000
# 4 0.000000 0.000000 0.000000 0.030299 0.000000 0.000000
# 5 0.000000 0.000000 0.000000 0.000000 0.041226 0.000000
# 6 0.000000 0.000000 0.000000 0.000000 0.000000 0.036851
#
#
# Mechanical properties :
#
#
# Convention : Reuss Voigt Hill
#
# Bulk Modulus (GPa) = 20.36035 24.24559 22.30297
# Shear Modulus (GPa) = 25.18498 26.73226 25.95862
#
# Velocity S-wave (km/s) = 3.58998 3.69862 3.64471
# Velocity P-wave (km/s) = 5.25386 5.53597 5.39676
#
# Compressibility (1/GPa) = 0.04911506
#
# Stress axis : x y z
#
# Youngs Moduli (GPa) = 46.24533 38.08704 73.69228
#
# Poissons Ratio (x) = -0.00174 0.39420
# Poissons Ratio (y) = -0.00211 0.06364
# Poissons Ratio (z) = 0.24738 0.03289
#
# Static dielectric constant tensor:
#      x y z
#    x 1.701970 0.000000 0.000000 
#    y 0.000000 2.029550 0.000000 
#    z 0.000000 0.000000 1.722990 
# 
# From -- ./inp_files/34525.got.cif
#   From: 2010.05.17/outbox.cif.g08.bks.cpg/sg71_18_cif.got.tgz:34525.got - 2010.06.03 16:22:01.
