data_PCOD9523783
_publ_section_title
;
Structure prediction by ZEFSAII (Michael W. Deem and Ramdas Pophale) SiO2 
 PCOD9523783
Probable space group: I M M M
;
_chemical_formula_sum "Si O2"
_cell_formula_units_Z 84
_cell_length_a 25.865405
_cell_length_b 12.020615
_cell_length_c 14.629691
_cell_angle_alpha 90.000000
_cell_angle_beta 90.000000
_cell_angle_gamma 90.000000
_cell_volume 4548.635368
_symmetry_space_group_name_H-M "I M M M"
_symmetry_group_IT_number 71
_symmetry_cell_setting 'orthorhombic'
loop_
_space_group_symop_operation_xyz
x,y,z
-x,-y,z
x,-y,-z
-x,y,-z
-x,-y,-z
x,y,-z
-x,y,z
x,-y,z
1/2+x,1/2+y,1/2+z
1/2-x,1/2-y,1/2+z
1/2+x,1/2-y,1/2-z
1/2-x,1/2+y,1/2-z
1/2-x,1/2-y,1/2-z
1/2+x,1/2+y,1/2-z
1/2-x,1/2+y,1/2+z
1/2+x,1/2-y,1/2+z
loop_
_atom_site_type_symbol
_atom_site_label
_atom_site_fract_x
_atom_site_fract_y
_atom_site_fract_z
Si Si1 0.561387 0.632557 0.500000
Si Si2 0.706219 0.280350 0.106695
Si Si3 0.092268 0.869000 0.351011
Si Si4 0.438592 0.000000 0.604205
Si Si5 0.705075 0.872945 0.726999
Si Si6 0.601764 0.233738 0.671519
Si Si7 0.000000 0.849800 0.500000
O O1 0.567152 0.500000 0.500000
O O2 0.500000 0.658936 0.500000
O O3 0.587472 0.688455 0.412601
O O4 0.647589 0.326117 0.111126
O O5 0.710715 0.168093 0.168108
O O6 0.743823 0.360247 0.165465
O O7 0.720957 0.269477 0.000000
O O8 0.082032 0.794596 0.262005
O O9 0.045665 0.854763 0.421450
O O10 0.096718 0.000000 0.328662
O O11 0.422113 0.112497 0.654150
O O12 0.500000 0.000000 0.597878
O O13 0.417035 0.000000 0.500000
O O14 0.662557 0.790319 0.684096
O O15 0.687373 0.000000 0.724396
#
# Coordination Sequence:
#
# PCOD9523783 Si02
#       7
#     8  16  16   8  16  16   4
#     4  11  24  41  60  88 126 167 204 251 314 375
#     4  10  22  40  64  90 124 162 207 263 318 371
#     4  11  23  40  62  92 123 161 208 263 316 373
#     4  11  22  38  60  86 122 164 206 246 304 372
#     4  10  22  40  63  92 123 163 209 258 315 381
#     4  11  23  40  63  92 124 161 209 257 312 372
#     4  12  25  40  66  93 124 167 216 262 321 376
#
# _framework density 18.467078000000001
#
# number of rings (size 3 to 8) (size 9 to 14) (size 15 to 20)
#    0.000    1.333    2.857    2.571    4.000    1.524 
#    0.000    0.952    0.000    1.143    0.000    0.000 
#    0.000    0.000    0.000    0.000    0.000    0.000 
#
# Total GULP energy -233862.067463 kJ/mol
# GULP energy per Si atom -5568.144463 kJ/mol
# Density = 1.842505 g / cm^3
# Si number density = 18.467078 Si / 1000 Ang^3
#
#
#
# Elastic Constant Matrix: (Units=GPa)
#
#
# Indices 1 2 3 4 5 6 
#
# 1 92.7424 37.9678 54.6866 0.0000 0.0000 0.0000
# 2 37.9678 99.3891 79.1647 0.0000 0.0000 0.0000
# 3 54.6866 79.1647 170.4607 0.0000 0.0000 0.0000
# 4 0.0000 0.0000 0.0000 260.3163 0.0000 0.0000
# 5 0.0000 0.0000 0.0000 0.0000 27.9758 0.0000
# 6 0.0000 0.0000 0.0000 0.0000 0.0000 11.2610
#
#
#
# Elastic Compliance Matrix: (Units=1/GPa)
#
#
# Indices 1 2 3 4 5 6 
#
# 1 0.013760 -0.002762 -0.003132 0.000000 0.000000 0.000000
# 2 -0.002762 0.016523 -0.006787 0.000000 0.000000 0.000000
# 3 -0.003132 -0.006787 0.010023 0.000000 0.000000 0.000000
# 4 0.000000 0.000000 0.000000 0.003841 0.000000 0.000000
# 5 0.000000 0.000000 0.000000 0.000000 0.035745 0.000000
# 6 0.000000 0.000000 0.000000 0.000000 0.000000 0.088802
#
#
# Mechanical properties :
#
#
# Convention : Reuss Voigt Hill
#
# Bulk Modulus (GPa) = 66.91682 78.47003 72.69343
# Shear Modulus (GPa) = 25.12079 72.62882 48.87480
#
# Velocity S-wave (km/s) = 3.69223 6.27807 5.15008
# Velocity P-wave (km/s) = 7.38181 9.75379 8.64949
#
# Compressibility (1/GPa) = 0.01494393
#
# Stress axis : x y z
#
# Youngs Moduli (GPa) = 72.67473 60.52239 99.76746
#
# Poissons Ratio (x) = 0.16716 0.31244
# Poissons Ratio (y) = 0.20073 0.67716
# Poissons Ratio (z) = 0.22759 0.41079
#
# Static dielectric constant tensor:
#      x y z
#    x 1.651510 0.000000 0.000000 
#    y 0.000000 1.624600 0.000000 
#    z 0.000000 0.000000 1.641630 
# 
# From -- ./inp_files/39048.got.cif
#   From: 2010.05.17/outbox.cif.g08.bks.cpg/sg71_20_cif.got.tgz:39048.got - 2010.06.03 16:22:01.
