data_PCOD9523984
_publ_section_title
;
Structure prediction by ZEFSAII (Michael W. Deem and Ramdas Pophale) SiO2 
 PCOD9523984
Probable space group: I M M M
;
_chemical_formula_sum "Si O2"
_cell_formula_units_Z 80
_cell_length_a 27.021254
_cell_length_b 13.454081
_cell_length_c 13.941368
_cell_angle_alpha 90.000000
_cell_angle_beta 90.000000
_cell_angle_gamma 90.000000
_cell_volume 5068.330523
_symmetry_space_group_name_H-M "I M M M"
_symmetry_group_IT_number 71
_symmetry_cell_setting 'orthorhombic'
loop_
_space_group_symop_operation_xyz
x,y,z
-x,-y,z
x,-y,-z
-x,y,-z
-x,-y,-z
x,y,-z
-x,y,z
x,-y,z
1/2+x,1/2+y,1/2+z
1/2-x,1/2-y,1/2+z
1/2+x,1/2-y,1/2-z
1/2-x,1/2+y,1/2-z
1/2-x,1/2-y,1/2-z
1/2+x,1/2+y,1/2-z
1/2-x,1/2+y,1/2+z
1/2+x,1/2-y,1/2+z
loop_
_atom_site_type_symbol
_atom_site_label
_atom_site_fract_x
_atom_site_fract_y
_atom_site_fract_z
Si Si1 0.059347 0.384433 0.112227
Si Si2 0.865229 0.246322 0.212826
Si Si3 0.203363 0.881298 0.894908
Si Si4 0.667198 0.382035 0.888024
Si Si5 0.730649 0.116978 0.712847
O O1 0.072326 0.500000 0.133876
O O2 0.086820 0.307039 0.181220
O O3 0.000000 0.375848 0.119564
O O4 0.072876 0.366624 0.000000
O O5 0.849219 0.162099 0.136899
O O6 0.774407 0.132997 0.364367
O O7 0.819526 0.323254 0.203382
O O8 0.243238 0.855641 0.813639
O O9 0.200694 0.000000 0.895465
O O10 0.217509 0.845050 0.000000
O O11 0.657564 0.500000 0.866934
O O12 0.637752 0.690737 0.815686
O O13 0.657307 0.635754 0.000000
O O14 0.719630 0.000000 0.713037
#
# Coordination Sequence:
#
# PCOD9523984 Si02
#       5
#    16  16  16  16  16
#     4   9  19  35  52  71  95 119 144 181 231 280
#     4  11  18  27  48  70  88 118 160 195 223 265
#     4   9  17  28  41  61  93 125 148 178 223 271
#     4   9  18  31  45  65  97 131 158 188 227 269
#     4   9  18  28  39  63  95 123 154 189 223 265
#
# _framework density 15.78429
#
# number of rings (size 3 to 8) (size 9 to 14) (size 15 to 20)
#    0.000    2.600    0.000    6.000    0.000    4.000 
#    0.000    2.000    0.000    4.800    0.000    9.800 
#    0.000    0.000    0.000    0.000    0.000    0.000 
#
# Total GULP energy -222792.650407 kJ/mol
# GULP energy per Si atom -5569.816260 kJ/mol
# Density = 1.574836 g / cm^3
# Si number density = 15.784290 Si / 1000 Ang^3
#
#
#
# Elastic Constant Matrix: (Units=GPa)
#
#
# Indices 1 2 3 4 5 6 
#
# 1 43.2648 28.8648 27.1423 0.0000 0.0000 0.0000
# 2 28.8648 66.2842 32.3815 0.0000 0.0000 0.0000
# 3 27.1423 32.3815 86.4786 0.0000 0.0000 0.0000
# 4 0.0000 0.0000 0.0000 26.2760 0.0000 0.0000
# 5 0.0000 0.0000 0.0000 0.0000 8.5912 0.0000
# 6 0.0000 0.0000 0.0000 0.0000 0.0000 29.6349
#
#
#
# Elastic Compliance Matrix: (Units=1/GPa)
#
#
# Indices 1 2 3 4 5 6 
#
# 1 0.035351 -0.012207 -0.006524 0.000000 0.000000 0.000000
# 2 -0.012207 0.022679 -0.004661 0.000000 0.000000 0.000000
# 3 -0.006524 -0.004661 0.015357 0.000000 0.000000 0.000000
# 4 0.000000 0.000000 0.000000 0.038058 0.000000 0.000000
# 5 0.000000 0.000000 0.000000 0.000000 0.116398 0.000000
# 6 0.000000 0.000000 0.000000 0.000000 0.000000 0.033744
#
#
# Mechanical properties :
#
#
# Convention : Reuss Voigt Hill
#
# Bulk Modulus (GPa) = 37.59092 41.42276 39.50684
# Shear Modulus (GPa) = 15.76109 20.07636 17.91872
#
# Velocity S-wave (km/s) = 3.16338 3.57027 3.37297
# Velocity P-wave (km/s) = 6.09998 6.57995 6.34451
#
# Compressibility (1/GPa) = 0.02660217
#
# Stress axis : x y z
#
# Youngs Moduli (GPa) = 28.28811 44.09333 65.11874
#
# Poissons Ratio (x) = 0.53824 0.42486
# Poissons Ratio (y) = 0.34531 0.30351
# Poissons Ratio (z) = 0.18456 0.20551
#
# Static dielectric constant tensor:
#      x y z
#    x 1.501820 0.000000 0.000000 
#    y 0.000000 1.581820 0.000000 
#    z 0.000000 0.000000 1.549730 
# 
# From -- ./inp_files/40763.got.cif
#   From: 2010.05.17/outbox.cif.g08.bks.cpg/sg71_21_cif.got.tgz:40763.got - 2010.06.03 16:22:01.
