data_PCOD9523462
_publ_section_title
;
Structure prediction by ZEFSAII (Michael W. Deem and Ramdas Pophale) SiO2 
 PCOD9523462
Probable space group: I M M M
;
_chemical_formula_sum "Si O2"
_cell_formula_units_Z 96
_cell_length_a 24.986089
_cell_length_b 8.299385
_cell_length_c 23.176804
_cell_angle_alpha 90.000000
_cell_angle_beta 90.000000
_cell_angle_gamma 90.000000
_cell_volume 4806.154661
_symmetry_space_group_name_H-M "I M M M"
_symmetry_group_IT_number 71
_symmetry_cell_setting 'orthorhombic'
loop_
_space_group_symop_operation_xyz
x,y,z
-x,-y,z
x,-y,-z
-x,y,-z
-x,-y,-z
x,y,-z
-x,y,z
x,-y,z
1/2+x,1/2+y,1/2+z
1/2-x,1/2-y,1/2+z
1/2+x,1/2-y,1/2-z
1/2-x,1/2+y,1/2-z
1/2-x,1/2-y,1/2-z
1/2+x,1/2+y,1/2-z
1/2-x,1/2+y,1/2+z
1/2+x,1/2-y,1/2+z
loop_
_atom_site_type_symbol
_atom_site_label
_atom_site_fract_x
_atom_site_fract_y
_atom_site_fract_z
Si Si1 0.500000 0.807455 0.212248
Si Si2 0.806457 0.690103 0.903608
Si Si3 0.386262 0.305740 0.171985
Si Si4 0.806864 0.805752 0.225392
Si Si5 0.081283 0.189696 0.937573
Si Si6 0.685828 0.696709 0.935033
Si Si7 0.000000 0.690554 0.843981
O O1 0.553547 0.752398 0.179975
O O2 0.500000 0.742397 0.278680
O O3 0.500000 0.000000 0.214724
O O4 0.810296 0.500000 0.916486
O O5 0.813645 0.721506 0.835791
O O6 0.855627 0.778984 0.933158
O O7 0.747007 0.745643 0.921346
O O8 0.386365 0.500000 0.169996
O O9 0.352048 0.258900 0.228438
O O10 0.354641 0.248222 0.114929
O O11 0.750000 0.750000 0.250000
O O12 0.807750 0.000000 0.218482
O O13 0.050909 0.260683 0.882604
O O14 0.070670 0.000000 0.936719
O O15 0.062934 0.254827 0.000000
O O16 0.685847 0.500000 0.933476
O O17 0.671349 0.746361 0.000000
O O18 0.000000 0.500000 0.838702
#
# Coordination Sequence:
#
# PCOD9523462 Si02
#       7
#     8  16  16  16  16  16   8
#     4  11  25  42  61  88 116 149 190 245 304 355
#     4  11  21  36  58  88 122 159 202 244 293 352
#     4  10  21  39  61  87 116 152 196 239 290 352
#     4  11  21  35  57  88 122 156 196 244 300 356
#     4  11  24  40  58  85 122 161 201 246 297 354
#     4   9  18  35  59  86 116 150 193 242 287 341
#     4  11  24  42  63  85 111 150 204 253 298 355
#
# _framework density 19.974388000000001
#
# number of rings (size 3 to 8) (size 9 to 14) (size 15 to 20)
#    0.000    1.500    1.667    3.750    0.000    8.333 
#    0.000    0.417    0.000    5.000    0.000    0.000 
#    0.000    0.000    0.000    0.000    0.000    0.000 
#
# Total GULP energy -268272.054971 kJ/mol
# GULP energy per Si atom -5589.001145 kJ/mol
# Density = 1.992893 g / cm^3
# Si number density = 19.974388 Si / 1000 Ang^3
#
#
#
# Elastic Constant Matrix: (Units=GPa)
#
#
# Indices 1 2 3 4 5 6 
#
# 1 148.8181 3.2440 58.0016 0.0000 0.0000 0.0000
# 2 3.2440 15.0475 1.6148 0.0000 0.0000 0.0000
# 3 58.0016 1.6148 131.2604 0.0000 0.0000 0.0000
# 4 0.0000 0.0000 0.0000 18.4153 0.0000 0.0000
# 5 0.0000 0.0000 0.0000 0.0000 -3.8472 0.0000
# 6 0.0000 0.0000 0.0000 0.0000 0.0000 24.1165
#
#
#
# Elastic Compliance Matrix: (Units=1/GPa)
#
#
# Indices 1 2 3 4 5 6 
#
# 1 0.008146 -0.001372 -0.003583 0.000000 0.000000 0.000000
# 2 -0.001372 0.066775 -0.000215 0.000000 0.000000 0.000000
# 3 -0.003583 -0.000215 0.009204 0.000000 0.000000 0.000000
# 4 0.000000 0.000000 0.000000 0.054303 0.000000 0.000000
# 5 0.000000 0.000000 0.000000 0.000000 -0.259931 0.000000
# 6 0.000000 0.000000 0.000000 0.000000 0.000000 0.041465
#
#
# Mechanical properties :
#
#
# Convention : Reuss Voigt Hill
#
# Bulk Modulus (GPa) = 13.55273 46.76075 30.15674
# Shear Modulus (GPa) = -110.85703 23.22131 -43.81786
#
# Velocity S-wave (km/s) = -7.45789 3.41332 -4.68878
# Velocity P-wave (km/s) = 8.20733 6.24464 3.76595
#
# Compressibility (1/GPa) = 0.07378586
#
# Stress axis : x y z
#
# Youngs Moduli (GPa) = 122.76210 14.97564 108.64617
#
# Poissons Ratio (x) = 0.02054 0.38924
# Poissons Ratio (y) = 0.16838 0.02340
# Poissons Ratio (z) = 0.43981 0.00323
#
# Static dielectric constant tensor:
#      x y z
#    x 1.666710 0.000000 0.000000 
#    y 0.000000 1.695500 0.000000 
#    z 0.000000 0.000000 1.685930 
# 
# From -- ./inp_files/61566.got.cif
#   From: 2010.05.17/outbox.cif.g08.bks.cpg/sg71_31_cif.got.tgz:61566.got - 2010.06.03 16:22:01.
