data_PCOD9523711
_publ_section_title
;
Structure prediction by ZEFSAII (Michael W. Deem and Ramdas Pophale) SiO2 
 PCOD9523711
Probable space group: I M M M
;
_chemical_formula_sum "Si O2"
_cell_formula_units_Z 58
_cell_length_a 14.313996
_cell_length_b 7.744156
_cell_length_c 25.537183
_cell_angle_alpha 90.000000
_cell_angle_beta 90.000000
_cell_angle_gamma 90.000000
_cell_volume 2830.792088
_symmetry_space_group_name_H-M "I M M M"
_symmetry_group_IT_number 71
_symmetry_cell_setting 'orthorhombic'
loop_
_space_group_symop_operation_xyz
x,y,z
-x,-y,z
x,-y,-z
-x,y,-z
-x,-y,-z
x,y,-z
-x,y,z
x,-y,z
1/2+x,1/2+y,1/2+z
1/2-x,1/2-y,1/2+z
1/2+x,1/2-y,1/2-z
1/2-x,1/2+y,1/2-z
1/2-x,1/2-y,1/2-z
1/2+x,1/2+y,1/2-z
1/2-x,1/2+y,1/2+z
1/2+x,1/2-y,1/2+z
loop_
_atom_site_type_symbol
_atom_site_label
_atom_site_fract_x
_atom_site_fract_y
_atom_site_fract_z
Si Si1 0.500000 0.202045 0.737192
Si Si2 0.805003 0.292721 0.197602
Si Si3 0.000000 0.500000 0.000000
Si Si4 0.327043 0.715440 0.500000
Si Si5 0.000000 0.192937 0.644010
Si Si6 0.306951 0.197009 0.903952
O O1 0.591875 0.274684 0.710108
O O2 0.500000 0.206170 0.800644
O O3 0.500000 0.000000 0.724021
O O4 0.805330 0.500000 0.189505
O O5 0.750000 0.250000 0.250000
O O6 0.753789 0.210098 0.148697
O O7 0.916901 0.343211 0.000000
O O8 0.345852 0.500000 0.500000
O O9 0.261034 0.758072 0.549885
O O10 0.093318 0.219238 0.609917
O O11 0.000000 0.000000 0.664293
O O12 0.329999 0.000000 0.916602
#
# Coordination Sequence:
#
# PCOD9523711 Si02
#       6
#     8  16   2   8   8  16
#     4  10  22  39  58  87 131 181 222 270 344 405
#     4  11  22  37  61  94 132 175 229 278 335 408
#     4  12  26  48  88  96 148 172 238 296 344 406
#     4  10  27  50  76 109 138 183 233 287 354 410
#     4  12  24  37  66 101 135 174 228 277 336 418
#     4  11  24  45  68  96 140 180 226 284 345 412
#
# _framework density 20.488963999999999
#
# number of rings (size 3 to 8) (size 9 to 14) (size 15 to 20)
#    0.000    1.103    2.759    3.103    3.862    2.759 
#    2.483    4.138    0.000    0.000    0.000    0.000 
#    0.000    0.000    0.000    0.000    0.000    0.000 
#
# Total GULP energy -161499.916458 kJ/mol
# GULP energy per Si atom -5568.962636 kJ/mol
# Density = 2.044233 g / cm^3
# Si number density = 20.488964 Si / 1000 Ang^3
#
#
#
# Elastic Constant Matrix: (Units=GPa)
#
#
# Indices 1 2 3 4 5 6 
#
# 1 205.9354 23.4523 65.9235 0.0000 0.0000 0.0000
# 2 23.4523 62.1870 -6.5837 0.0000 0.0000 0.0000
# 3 65.9235 -6.5837 122.2931 0.0000 0.0000 0.0000
# 4 0.0000 0.0000 0.0000 18.9780 0.0000 0.0000
# 5 0.0000 0.0000 0.0000 0.0000 11.7740 0.0000
# 6 0.0000 0.0000 0.0000 0.0000 0.0000 34.9345
#
#
#
# Elastic Compliance Matrix: (Units=1/GPa)
#
#
# Indices 1 2 3 4 5 6 
#
# 1 0.006305 -0.002753 -0.003547 0.000000 0.000000 0.000000
# 2 -0.002753 0.017375 0.002420 0.000000 0.000000 0.000000
# 3 -0.003547 0.002420 0.010219 0.000000 0.000000 0.000000
# 4 0.000000 0.000000 0.000000 0.052693 0.000000 0.000000
# 5 0.000000 0.000000 0.000000 0.000000 0.084933 0.000000
# 6 0.000000 0.000000 0.000000 0.000000 0.000000 0.028625
#
#
# Mechanical properties :
#
#
# Convention : Reuss Voigt Hill
#
# Bulk Modulus (GPa) = 38.25849 61.77774 50.01812
# Shear Modulus (GPa) = 23.08151 33.64552 28.36351
#
# Velocity S-wave (km/s) = 3.36003 4.05672 3.72470
# Velocity P-wave (km/s) = 5.81088 7.22217 6.55462
#
# Compressibility (1/GPa) = 0.02613799
#
# Stress axis : x y z
#
# Youngs Moduli (GPa) = 158.60749 57.55397 97.85356
#
# Poissons Ratio (x) = 0.15846 0.34708
# Poissons Ratio (y) = 0.43668 -0.23676
# Poissons Ratio (z) = 0.56257 -0.13926
#
# Static dielectric constant tensor:
#      x y z
#    x 1.319310 0.000000 0.000000 
#    y 0.000000 1.751220 0.000000 
#    z 0.000000 0.000000 1.662540 
# 
# From -- ./inp_files/5144.got.cif
#   From: 2010.05.17/outbox.cif.g08.bks.cpg/sg71_3_cif.got.tgz:5144.got - 2010.06.03 16:22:01.
