data_PCOD9523686
_publ_section_title
;
Structure prediction by ZEFSAII (Michael W. Deem and Ramdas Pophale) SiO2 
 PCOD9523686
Probable space group: I M M M
;
_chemical_formula_sum "Si O2"
_cell_formula_units_Z 104
_cell_length_a 23.716764
_cell_length_b 25.222213
_cell_length_c 8.394146
_cell_angle_alpha 90.000000
_cell_angle_beta 90.000000
_cell_angle_gamma 90.000000
_cell_volume 5021.288096
_symmetry_space_group_name_H-M "I M M M"
_symmetry_group_IT_number 71
_symmetry_cell_setting 'orthorhombic'
loop_
_space_group_symop_operation_xyz
x,y,z
-x,-y,z
x,-y,-z
-x,y,-z
-x,-y,-z
x,y,-z
-x,y,z
x,-y,z
1/2+x,1/2+y,1/2+z
1/2-x,1/2-y,1/2+z
1/2+x,1/2-y,1/2-z
1/2-x,1/2+y,1/2-z
1/2-x,1/2-y,1/2-z
1/2+x,1/2+y,1/2-z
1/2-x,1/2+y,1/2+z
1/2+x,1/2-y,1/2+z
loop_
_atom_site_type_symbol
_atom_site_label
_atom_site_fract_x
_atom_site_fract_y
_atom_site_fract_z
Si Si1 0.283677 0.798878 0.316903
Si Si2 0.268440 0.599005 0.316525
Si Si3 0.156177 0.557227 0.189093
Si Si4 0.893783 0.134091 0.806364
Si Si5 0.500000 0.561264 0.693838
Si Si6 0.439895 0.134170 0.811780
Si Si7 0.605499 0.246270 0.187185
O O1 0.270984 0.813045 0.500000
O O2 0.250000 0.750000 0.250000
O O3 0.265126 0.845953 0.202530
O O4 0.346241 0.777749 0.298687
O O5 0.273782 0.582690 0.500000
O O6 0.222502 0.562082 0.232230
O O7 0.332078 0.611181 0.256314
O O8 0.135789 0.500000 0.250774
O O9 0.115207 0.604265 0.246625
O O10 0.152715 0.558223 0.000000
O O11 0.944014 0.094073 0.759693
O O12 0.905428 0.193149 0.738567
O O13 0.892520 0.138219 0.000000
O O14 0.500000 0.500000 0.748640
O O15 0.500000 0.559978 0.500000
O O16 0.500000 0.114961 0.743788
O O17 0.438522 0.198259 0.797070
O O18 0.439015 0.123469 0.000000
O O19 0.622778 0.247399 0.000000
#
# Coordination Sequence:
#
# PCOD9523686 Si02
#       7
#    16  16  16  16   8  16  16
#     4  12  22  34  56  87 126 166 203 247 307 376
#     4  11  22  37  59  90 124 159 205 257 312 373
#     4  11  25  43  63  89 121 160 209 265 319 373
#     4  10  22  38  62  94 126 161 206 257 312 372
#     4   9  20  42  67  91 123 165 214 263 308 363
#     4  10  23  42  63  89 123 164 210 257 309 374
#     4  11  22  36  59  90 127 166 204 251 307 372
#
# _framework density 20.711815999999999
#
# number of rings (size 3 to 8) (size 9 to 14) (size 15 to 20)
#    0.000    1.308    3.077    2.769    1.077    3.692 
#    0.000    3.077    0.000    0.923    0.000    0.000 
#    0.000    0.000    0.000    0.000    0.000    0.000 
#
# Total GULP energy -289767.820785 kJ/mol
# GULP energy per Si atom -5572.458092 kJ/mol
# Density = 2.066468 g / cm^3
# Si number density = 20.711816 Si / 1000 Ang^3
#
#
#
# Elastic Constant Matrix: (Units=GPa)
#
#
# Indices 1 2 3 4 5 6 
#
# 1 134.8024 74.7706 27.8537 0.0000 0.0000 0.0000
# 2 74.7706 132.3338 8.9935 0.0000 0.0000 0.0000
# 3 27.8537 8.9935 40.6535 0.0000 0.0000 0.0000
# 4 0.0000 0.0000 0.0000 15.2125 0.0000 0.0000
# 5 0.0000 0.0000 0.0000 0.0000 6.8440 0.0000
# 6 0.0000 0.0000 0.0000 0.0000 0.0000 14.9253
#
#
#
# Elastic Compliance Matrix: (Units=1/GPa)
#
#
# Indices 1 2 3 4 5 6 
#
# 1 0.012562 -0.006612 -0.007144 0.000000 0.000000 0.000000
# 2 -0.006612 0.011152 0.002063 0.000000 0.000000 0.000000
# 3 -0.007144 0.002063 0.029036 0.000000 0.000000 0.000000
# 4 0.000000 0.000000 0.000000 0.065735 0.000000 0.000000
# 5 0.000000 0.000000 0.000000 0.000000 0.146114 0.000000
# 6 0.000000 0.000000 0.000000 0.000000 0.000000 0.067000
#
#
# Mechanical properties :
#
#
# Convention : Reuss Voigt Hill
#
# Bulk Modulus (GPa) = 34.05454 59.00282 46.52868
# Shear Modulus (GPa) = 13.70710 20.47449 17.09080
#
# Velocity S-wave (km/s) = 2.57534 3.14752 2.87570
# Velocity P-wave (km/s) = 5.03199 6.46208 5.79135
#
# Compressibility (1/GPa) = 0.02936466
#
# Stress axis : x y z
#
# Youngs Moduli (GPa) = 79.60519 89.66650 34.43950
#
# Poissons Ratio (x) = 0.59289 0.24604
# Poissons Ratio (y) = 0.52637 -0.07105
# Poissons Ratio (z) = 0.56870 -0.18500
#
# Static dielectric constant tensor:
#      x y z
#    x 1.759690 0.000000 0.000000 
#    y 0.000000 1.703990 0.000000 
#    z 0.000000 0.000000 1.709090 
# 
# From -- ./inp_files/11154.got.cif
#   From: 2010.05.17/outbox.cif.g08.bks.cpg/sg71_6_cif.got.tgz:11154.got - 2010.06.03 16:22:01.
