data_PCOD9523812
_publ_section_title
;
Structure prediction by ZEFSAII (Michael W. Deem and Ramdas Pophale) SiO2 
 PCOD9523812
Probable space group: I M M M
;
_chemical_formula_sum "Si O2"
_cell_formula_units_Z 90
_cell_length_a 25.931427
_cell_length_b 21.563031
_cell_length_c 7.706708
_cell_angle_alpha 90.000000
_cell_angle_beta 90.000000
_cell_angle_gamma 90.000000
_cell_volume 4309.284111
_symmetry_space_group_name_H-M "I M M M"
_symmetry_group_IT_number 71
_symmetry_cell_setting 'orthorhombic'
loop_
_space_group_symop_operation_xyz
x,y,z
-x,-y,z
x,-y,-z
-x,y,-z
-x,-y,-z
x,y,-z
-x,y,z
x,-y,z
1/2+x,1/2+y,1/2+z
1/2-x,1/2-y,1/2+z
1/2+x,1/2-y,1/2-z
1/2-x,1/2+y,1/2-z
1/2-x,1/2-y,1/2-z
1/2+x,1/2+y,1/2-z
1/2-x,1/2+y,1/2+z
1/2+x,1/2-y,1/2+z
loop_
_atom_site_type_symbol
_atom_site_label
_atom_site_fract_x
_atom_site_fract_y
_atom_site_fract_z
Si Si1 0.500000 0.500000 0.500000
Si Si2 0.784766 0.431630 0.290601
Si Si3 0.106189 0.817519 0.696946
Si Si4 0.000000 0.113397 0.716167
Si Si5 0.094970 0.432082 0.709682
Si Si6 0.443278 0.200183 0.702613
Si Si7 0.718810 0.687869 0.201666
O O1 0.500000 0.554124 0.343231
O O2 0.783218 0.430779 0.500000
O O3 0.765807 0.500000 0.233590
O O4 0.844833 0.426956 0.240452
O O5 0.753330 0.372941 0.226909
O O6 0.109651 0.841002 0.500000
O O7 0.096894 0.743579 0.701099
O O8 0.162280 0.825025 0.784381
O O9 0.052987 0.848885 0.761346
O O10 0.000000 0.103480 0.500000
O O11 0.092256 0.430251 0.500000
O O12 0.075891 0.500000 0.765435
O O13 0.066401 0.372449 0.779302
O O14 0.440758 0.216427 0.500000
O O15 0.500000 0.214295 0.772156
O O16 0.750000 0.750000 0.250000
O O17 0.708302 0.696815 0.000000
#
# Coordination Sequence:
#
# PCOD9523812 Si02
#       7
#     2  16  16   8  16  16  16
#     4  12  26  44  76 106 132 168 224 272 328 432
#     4   9  19  38  59  83 114 151 192 239 294 354
#     4  10  22  41  64  86 119 162 207 254 312 378
#     4  10  23  47  71  98 134 172 213 273 334 387
#     4   9  19  36  57  79 111 155 201 241 286 353
#     4  11  23  35  54  84 116 148 192 249 302 353
#     4  11  23  38  58  90 123 159 203 253 310 373
#
# _framework density 20.88514
#
# number of rings (size 3 to 8) (size 9 to 14) (size 15 to 20)
#    0.000    1.956    0.889    3.333    1.244    8.533 
#    1.600    3.556    0.000    0.000    0.000    0.000 
#    0.000    0.000    0.000    0.000    0.000    0.000 
#
# Total GULP energy -250639.385462 kJ/mol
# GULP energy per Si atom -5569.764121 kJ/mol
# Density = 2.083760 g / cm^3
# Si number density = 20.885140 Si / 1000 Ang^3
#
#
#
# Elastic Constant Matrix: (Units=GPa)
#
#
# Indices 1 2 3 4 5 6 
#
# 1 73.3342 32.0819 14.5140 0.0000 0.0000 0.0000
# 2 32.0819 114.4290 9.9213 0.0000 0.0000 0.0000
# 3 14.5140 9.9213 52.8773 0.0000 0.0000 0.0000
# 4 0.0000 0.0000 0.0000 35.7004 0.0000 0.0000
# 5 0.0000 0.0000 0.0000 0.0000 15.8734 0.0000
# 6 0.0000 0.0000 0.0000 0.0000 0.0000 27.4472
#
#
#
# Elastic Compliance Matrix: (Units=1/GPa)
#
#
# Indices 1 2 3 4 5 6 
#
# 1 0.016209 -0.004228 -0.003656 0.000000 0.000000 0.000000
# 2 -0.004228 0.009986 -0.000713 0.000000 0.000000 0.000000
# 3 -0.003656 -0.000713 0.020049 0.000000 0.000000 0.000000
# 4 0.000000 0.000000 0.000000 0.028011 0.000000 0.000000
# 5 0.000000 0.000000 0.000000 0.000000 0.062998 0.000000
# 6 0.000000 0.000000 0.000000 0.000000 0.000000 0.036434
#
#
# Mechanical properties :
#
#
# Convention : Reuss Voigt Hill
#
# Bulk Modulus (GPa) = 34.42241 39.29720 36.85980
# Shear Modulus (GPa) = 24.92963 28.07909 26.50436
#
# Velocity S-wave (km/s) = 3.45868 3.67066 3.56624
# Velocity P-wave (km/s) = 5.69803 6.06809 5.88596
#
# Compressibility (1/GPa) = 0.02905084
#
# Stress axis : x y z
#
# Youngs Moduli (GPa) = 61.69330 100.13879 49.87766
#
# Poissons Ratio (x) = 0.42334 0.18235
# Poissons Ratio (y) = 0.26081 0.03558
# Poissons Ratio (z) = 0.22555 0.07143
#
# Static dielectric constant tensor:
#      x y z
#    x 1.801750 0.000000 0.000000 
#    y 0.000000 1.738350 0.000000 
#    z 0.000000 0.000000 1.814300 
# 
# From -- ./inp_files/12598.got.cif
#   From: 2010.05.17/outbox.cif.g08.bks.cpg/sg71_7_cif.got.tgz:12598.got - 2010.06.03 16:22:01.
