data_PCOD9523161
_publ_section_title
;
Structure prediction by ZEFSAII (Michael W. Deem and Ramdas Pophale) SiO2 
 PCOD9523161
Probable space group: I M M M
;
_chemical_formula_sum "Si O2"
_cell_formula_units_Z 72
_cell_length_a 14.914661
_cell_length_b 30.964586
_cell_length_c 8.310607
_cell_angle_alpha 90.000000
_cell_angle_beta 90.000000
_cell_angle_gamma 90.000000
_cell_volume 3838.056908
_symmetry_space_group_name_H-M "I M M M"
_symmetry_group_IT_number 71
_symmetry_cell_setting 'orthorhombic'
loop_
_space_group_symop_operation_xyz
x,y,z
-x,-y,z
x,-y,-z
-x,y,-z
-x,-y,-z
x,y,-z
-x,y,z
x,-y,z
1/2+x,1/2+y,1/2+z
1/2-x,1/2-y,1/2+z
1/2+x,1/2-y,1/2-z
1/2-x,1/2+y,1/2-z
1/2-x,1/2-y,1/2-z
1/2+x,1/2+y,1/2-z
1/2-x,1/2+y,1/2+z
1/2+x,1/2-y,1/2+z
loop_
_atom_site_type_symbol
_atom_site_label
_atom_site_fract_x
_atom_site_fract_y
_atom_site_fract_z
Si Si1 0.500000 0.052611 0.814425
Si Si2 0.692458 0.208969 0.307492
Si Si3 0.000000 0.736108 0.692414
Si Si4 0.804698 0.450437 0.694699
Si Si5 0.190879 0.872300 0.305631
Si Si6 0.000000 0.836288 0.303442
O O1 0.403402 0.064645 0.743137
O O2 0.500000 0.000000 0.818032
O O3 0.500000 0.067761 0.000000
O O4 0.693746 0.208800 0.500000
O O5 0.750000 0.250000 0.250000
O O6 0.590819 0.213649 0.249792
O O7 0.741672 0.165525 0.250132
O O8 0.000000 0.736811 0.500000
O O9 0.000000 0.786214 0.748760
O O10 0.809767 0.450783 0.500000
O O11 0.789899 0.500000 0.746620
O O12 0.728401 0.417840 0.747951
O O13 0.190359 0.872157 0.500000
O O14 0.090864 0.859883 0.251182
O O15 0.000000 0.835744 0.500000
#
# Coordination Sequence:
#
# PCOD9523161 Si02
#       6
#     8  16   8  16  16   8
#     4   7  12  27  51  74 100 137 172 207 260 321
#     4  11  22  37  57  84 114 147 188 236 285 338
#     4  11  21  38  60  82 114 153 191 235 284 339
#     4   9  18  34  56  82 111 142 182 230 275 327
#     4  10  21  37  57  79 109 145 185 231 278 333
#     4   9  18  37  57  75 103 146 189 225 272 331
#
# _framework density 18.759492000000002
#
# number of rings (size 3 to 8) (size 9 to 14) (size 15 to 20)
#    0.000    2.333    2.222    2.333    0.000    3.111 
#    0.000    3.889    0.000    5.333    0.000    0.000 
#    0.000    0.000    0.000    0.000    0.000    0.000 
#
# Total GULP energy -200845.261989 kJ/mol
# GULP energy per Si atom -5579.035055 kJ/mol
# Density = 1.871679 g / cm^3
# Si number density = 18.759492 Si / 1000 Ang^3
#
#
#
# Elastic Constant Matrix: (Units=GPa)
#
#
# Indices 1 2 3 4 5 6 
#
# 1 198.9592 89.4190 22.8072 -0.0001 0.0002 0.0001
# 2 89.4190 112.3594 14.9311 0.0001 -0.0001 0.0001
# 3 22.8072 14.9311 17.5766 -0.0019 0.0029 0.0005
# 4 -0.0001 0.0001 -0.0019 26.6990 0.0008 0.0001
# 5 0.0002 -0.0001 0.0029 0.0008 25.2355 0.0000
# 6 0.0001 0.0001 0.0005 0.0001 0.0000 29.7630
#
#
#
# Elastic Compliance Matrix: (Units=1/GPa)
#
#
# Indices 1 2 3 4 5 6 
#
# 1 0.008323 -0.005849 -0.005832 0.000000 0.000001 0.000000
# 2 -0.005849 0.014143 -0.004424 0.000000 0.000001 0.000000
# 3 -0.005832 -0.004424 0.068220 0.000005 -0.000008 -0.000001
# 4 0.000000 0.000000 0.000005 0.037455 -0.000001 0.000000
# 5 0.000001 0.000001 -0.000008 -0.000001 0.039627 0.000000
# 6 0.000000 0.000000 -0.000001 0.000000 0.000000 0.033599
#
#
# Mechanical properties :
#
#
# Convention : Reuss Voigt Hill
#
# Bulk Modulus (GPa) = 17.10123 64.80108 40.95115
# Shear Modulus (GPa) = 19.75753 29.78870 24.77312
#
# Velocity S-wave (km/s) = 3.24883 3.98920 3.63790
# Velocity P-wave (km/s) = 4.81757 7.47238 6.28671
#
# Compressibility (1/GPa) = 0.05847534
#
# Stress axis : x y z
#
# Youngs Moduli (GPa) = 120.14278 70.70712 14.65856
#
# Poissons Ratio (x) = 0.41357 0.08548
# Poissons Ratio (y) = 0.70273 0.06486
# Poissons Ratio (z) = 0.70063 0.31284
#
# Static dielectric constant tensor:
#      x y z
#    x 1.653430 0.000000 0.000000 
#    y 0.000000 1.631190 0.000000 
#    z 0.000000 0.000000 1.661440 
# 
# From -- ./inp_files/6232.got.cif
#   From: 2010.05.17/outbox.cif.g08.bks.cpg/sg71_4_cif.got.tgz:6232.got - 2010.06.03 16:22:01.
