data_PCOD9523225
_publ_section_title
;
Structure prediction by ZEFSAII (Michael W. Deem and Ramdas Pophale) SiO2 
 PCOD9523225
Probable space group: I M M M
;
_chemical_formula_sum "Si O2"
_cell_formula_units_Z 104
_cell_length_a 8.238969
_cell_length_b 23.190357
_cell_length_c 28.142107
_cell_angle_alpha 90.000000
_cell_angle_beta 90.000000
_cell_angle_gamma 90.000000
_cell_volume 5376.961330
_symmetry_space_group_name_H-M "I M M M"
_symmetry_group_IT_number 71
_symmetry_cell_setting 'orthorhombic'
loop_
_space_group_symop_operation_xyz
x,y,z
-x,-y,z
x,-y,-z
-x,y,-z
-x,-y,-z
x,y,-z
-x,y,z
x,-y,z
1/2+x,1/2+y,1/2+z
1/2-x,1/2-y,1/2+z
1/2+x,1/2-y,1/2-z
1/2-x,1/2+y,1/2-z
1/2-x,1/2-y,1/2-z
1/2+x,1/2+y,1/2-z
1/2-x,1/2+y,1/2+z
1/2+x,1/2-y,1/2+z
loop_
_atom_site_type_symbol
_atom_site_label
_atom_site_fract_x
_atom_site_fract_y
_atom_site_fract_z
Si Si1 0.193964 0.168639 0.363275
Si Si2 0.688752 0.271663 0.699953
Si Si3 0.198746 0.934289 0.000000
Si Si4 0.185435 0.395695 0.690943
Si Si5 0.194803 0.753374 0.445696
Si Si6 0.807009 0.868419 0.907019
Si Si7 0.196135 0.566906 0.796099
O O1 0.285715 0.217856 0.333943
O O2 0.235433 0.187215 0.417498
O O3 0.239360 0.108705 0.337658
O O4 0.000000 0.175827 0.357889
O O5 0.500000 0.289663 0.700038
O O6 0.750000 0.250000 0.750000
O O7 0.799700 0.326519 0.690102
O O8 0.254949 0.901755 0.953144
O O9 0.000000 0.932940 0.000000
O O10 0.250048 0.000000 0.000000
O O11 0.265528 0.406002 0.639822
O O12 0.253140 0.415737 0.742337
O O13 0.000000 0.415591 0.689323
O O14 0.258998 0.750266 0.500000
O O15 0.246763 0.697501 0.414726
O O16 0.000000 0.751113 0.448347
O O17 0.000000 0.863916 0.908032
O O18 0.237068 0.500000 0.804264
O O19 0.000000 0.572938 0.795652
#
# Coordination Sequence:
#
# PCOD9523225 Si02
#       7
#    16  16   8  16  16  16  16
#     4  11  22  36  59  88 116 151 191 235 292 354
#     4  12  22  33  53  83 117 149 185 229 278 337
#     4   9  20  38  55  75 109 153 200 249 294 339
#     4  11  22  36  55  82 117 153 190 236 288 342
#     4  10  21  37  58  85 119 151 183 236 301 354
#     4  11  21  34  56  84 113 151 197 243 291 345
#     4  10  23  42  61  81 113 157 198 241 291 344
#
# _framework density 19.341778999999999
#
# number of rings (size 3 to 8) (size 9 to 14) (size 15 to 20)
#    0.000    1.308    3.846    2.769    0.000    2.154 
#    0.000    0.000    0.000    3.692    0.000    3.231 
#    0.000    0.000    0.000    0.000    0.000    0.000 
#
# Total GULP energy -289836.383002 kJ/mol
# GULP energy per Si atom -5573.776596 kJ/mol
# Density = 1.929776 g / cm^3
# Si number density = 19.341779 Si / 1000 Ang^3
#
#
#
# Elastic Constant Matrix: (Units=GPa)
#
#
# Indices 1 2 3 4 5 6 
#
# 1 34.8268 6.9115 17.5847 0.0000 0.0000 0.0000
# 2 6.9115 97.4407 46.5168 0.0000 0.0000 0.0000
# 3 17.5847 46.5168 109.0719 0.0000 0.0000 0.0000
# 4 0.0000 0.0000 0.0000 16.7155 0.0000 0.0000
# 5 0.0000 0.0000 0.0000 0.0000 21.4489 0.0000
# 6 0.0000 0.0000 0.0000 0.0000 0.0000 16.0563
#
#
#
# Elastic Compliance Matrix: (Units=1/GPa)
#
#
# Indices 1 2 3 4 5 6 
#
# 1 0.031262 0.000237 -0.005141 0.000000 0.000000 0.000000
# 2 0.000237 0.012888 -0.005535 0.000000 0.000000 0.000000
# 3 -0.005141 -0.005535 0.012358 0.000000 0.000000 0.000000
# 4 0.000000 0.000000 0.000000 0.059825 0.000000 0.000000
# 5 0.000000 0.000000 0.000000 0.000000 0.046623 0.000000
# 6 0.000000 0.000000 0.000000 0.000000 0.000000 0.062281
#
#
# Mechanical properties :
#
#
# Convention : Reuss Voigt Hill
#
# Bulk Modulus (GPa) = 28.06621 42.59617 35.33119
# Shear Modulus (GPa) = 19.38052 22.19920 20.78986
#
# Velocity S-wave (km/s) = 3.16888 3.39150 3.28207
# Velocity P-wave (km/s) = 5.28500 6.11613 5.71569
#
# Compressibility (1/GPa) = 0.03563003
#
# Stress axis : x y z
#
# Youngs Moduli (GPa) = 31.98731 77.59150 80.92223
#
# Poissons Ratio (x) = -0.01838 0.41604
# Poissons Ratio (y) = -0.00758 0.44788
# Poissons Ratio (z) = 0.16445 0.42944
#
# Static dielectric constant tensor:
#      x y z
#    x 1.531660 0.000000 0.000000 
#    y 0.000000 1.695430 0.000000 
#    z 0.000000 0.000000 1.515040 
# 
# From -- ./inp_files/63573.got.cif
#   From: 2010.05.17/outbox.cif.g08.bks.cpg/sg71_32_cif.got.tgz:63573.got - 2010.06.03 16:22:01.
