data_PCOD9523254
_publ_section_title
;
Structure prediction by ZEFSAII (Michael W. Deem and Ramdas Pophale) SiO2 
 PCOD9523254
Probable space group: I M M M
;
_chemical_formula_sum "Si O2"
_cell_formula_units_Z 104
_cell_length_a 30.494923
_cell_length_b 7.391019
_cell_length_c 22.178360
_cell_angle_alpha 90.000000
_cell_angle_beta 90.000000
_cell_angle_gamma 90.000000
_cell_volume 4998.748519
_symmetry_space_group_name_H-M "I M M M"
_symmetry_group_IT_number 71
_symmetry_cell_setting 'orthorhombic'
loop_
_space_group_symop_operation_xyz
x,y,z
-x,-y,z
x,-y,-z
-x,y,-z
-x,-y,-z
x,y,-z
-x,y,z
x,-y,z
1/2+x,1/2+y,1/2+z
1/2-x,1/2-y,1/2+z
1/2+x,1/2-y,1/2-z
1/2-x,1/2+y,1/2-z
1/2-x,1/2-y,1/2-z
1/2+x,1/2+y,1/2-z
1/2-x,1/2+y,1/2+z
1/2+x,1/2-y,1/2+z
loop_
_atom_site_type_symbol
_atom_site_label
_atom_site_fract_x
_atom_site_fract_y
_atom_site_fract_z
Si Si1 0.204488 0.781621 0.824281
Si Si2 0.802995 0.713242 0.315047
Si Si3 0.143612 0.778871 0.933939
Si Si4 0.451522 0.707863 0.596451
Si Si5 0.396157 0.780782 0.148321
Si Si6 0.551356 0.500000 0.928106
Si Si7 0.549155 0.782910 0.264305
O O1 0.189441 0.734911 0.756711
O O2 0.254678 0.713446 0.829767
O O3 0.172747 0.717652 0.877491
O O4 0.205435 0.000000 0.827152
O O5 0.801008 0.500000 0.327078
O O6 0.845459 0.778960 0.350637
O O7 0.093346 0.713687 0.929102
O O8 0.142331 0.000000 0.930779
O O9 0.161407 0.730747 0.000000
O O10 0.500000 0.787823 0.584422
O O11 0.453491 0.500000 0.575752
O O12 0.444999 0.707688 0.668835
O O13 0.424530 0.674636 0.099699
O O14 0.416265 0.731436 0.213783
O O15 0.399076 0.000000 0.141923
O O16 0.500000 0.500000 0.911504
O O17 0.554726 0.500000 0.000000
O O18 0.500000 0.733483 0.243764
O O19 0.550899 0.000000 0.270525
#
# Coordination Sequence:
#
# PCOD9523254 Si02
#       7
#    16  16  16  16  16   8  16
#     4   9  17  30  51  79 108 143 183 224 280 338
#     4   9  18  32  52  83 112 137 175 227 287 346
#     4   9  17  29  45  66  95 133 177 219 258 310
#     4   9  17  27  42  68  99 132 173 220 267 312
#     4  10  21  37  59  86 116 148 187 235 289 346
#     4  11  26  44  62  86 114 152 199 241 290 354
#     4   9  17  29  47  73 103 133 164 206 265 320
#
# _framework density 20.805205999999998
#
# number of rings (size 3 to 8) (size 9 to 14) (size 15 to 20)
#    0.000    2.692    0.000    1.385    2.154    1.538 
#    0.000    3.077    0.000    4.615    0.000    2.154 
#    0.000    0.000    0.000    0.000    0.000    0.000 
#
# Total GULP energy -290222.732526 kJ/mol
# GULP energy per Si atom -5581.206395 kJ/mol
# Density = 2.075785 g / cm^3
# Si number density = 20.805206 Si / 1000 Ang^3
#
#
#
# Elastic Constant Matrix: (Units=GPa)
#
#
# Indices 1 2 3 4 5 6 
#
# 1 143.8500 16.5235 61.7574 0.0000 0.0000 0.0000
# 2 16.5235 71.4981 -0.3398 0.0000 0.0000 0.0000
# 3 61.7574 -0.3398 70.8631 0.0000 0.0000 0.0000
# 4 0.0000 0.0000 0.0000 -249.6239 0.0000 0.0000
# 5 0.0000 0.0000 0.0000 0.0000 19.2552 0.0000
# 6 0.0000 0.0000 0.0000 0.0000 0.0000 3.5388
#
#
#
# Elastic Compliance Matrix: (Units=1/GPa)
#
#
# Indices 1 2 3 4 5 6 
#
# 1 0.011618 -0.002733 -0.010138 0.000000 0.000000 0.000000
# 2 -0.002733 0.014630 0.002452 0.000000 0.000000 0.000000
# 3 -0.010138 0.002452 0.022959 0.000000 0.000000 0.000000
# 4 0.000000 0.000000 0.000000 -0.004006 0.000000 0.000000
# 5 0.000000 0.000000 0.000000 0.000000 0.051934 0.000000
# 6 0.000000 0.000000 0.000000 0.000000 0.000000 0.282583
#
#
# Mechanical properties :
#
#
# Convention : Reuss Voigt Hill
#
# Bulk Modulus (GPa) = 35.25088 49.12149 42.18619
# Shear Modulus (GPa) = 12.19475 -31.48131 -9.64328
#
# Velocity S-wave (km/s) = 2.42366 -3.89414 -2.15525
# Velocity P-wave (km/s) = 4.98119 1.85536 3.75863
#
# Compressibility (1/GPa) = 0.02836809
#
# Stress axis : x y z
#
# Youngs Moduli (GPa) = 86.07144 68.35412 43.55561
#
# Poissons Ratio (x) = 0.18683 0.44159
# Poissons Ratio (y) = 0.23525 -0.10680
# Poissons Ratio (z) = 0.87263 -0.16761
#
# Static dielectric constant tensor:
#      x y z
#    x 1.769350 0.000000 0.000000 
#    y 0.000000 1.769250 0.000000 
#    z 0.000000 0.000000 1.695580 
# 
# From -- ./inp_files/62311.got.cif
#   From: 2010.05.17/outbox.cif.g08.bks.cpg/sg71_32_cif.got.tgz:62311.got - 2010.06.03 16:22:01.
