data_PCOD9523749
_publ_section_title
;
Structure prediction by ZEFSAII (Michael W. Deem and Ramdas Pophale) SiO2 
 PCOD9523749
Probable space group: I M M M
;
_chemical_formula_sum "Si O2"
_cell_formula_units_Z 72
_cell_length_a 27.776061
_cell_length_b 15.125205
_cell_length_c 8.657415
_cell_angle_alpha 90.000000
_cell_angle_beta 90.000000
_cell_angle_gamma 90.000000
_cell_volume 3637.141214
_symmetry_space_group_name_H-M "I M M M"
_symmetry_group_IT_number 71
_symmetry_cell_setting 'orthorhombic'
loop_
_space_group_symop_operation_xyz
x,y,z
-x,-y,z
x,-y,-z
-x,y,-z
-x,-y,-z
x,y,-z
-x,y,z
x,-y,z
1/2+x,1/2+y,1/2+z
1/2-x,1/2-y,1/2+z
1/2+x,1/2-y,1/2-z
1/2-x,1/2+y,1/2-z
1/2-x,1/2-y,1/2-z
1/2+x,1/2+y,1/2-z
1/2-x,1/2+y,1/2+z
1/2+x,1/2-y,1/2+z
loop_
_atom_site_type_symbol
_atom_site_label
_atom_site_fract_x
_atom_site_fract_y
_atom_site_fract_z
Si Si1 0.000000 0.397227 0.811405
Si Si2 0.409885 0.223150 0.315799
Si Si3 0.873406 0.899569 0.686386
Si Si4 0.735155 0.345508 0.814372
Si Si5 0.331528 0.903626 0.183197
O O1 0.953587 0.339943 0.762691
O O2 0.000000 0.500000 0.759506
O O3 0.000000 0.399828 0.000000
O O4 0.411839 0.228767 0.500000
O O5 0.407466 0.321953 0.248903
O O6 0.361663 0.172751 0.263900
O O7 0.874802 0.897232 0.500000
O O8 0.818273 0.875841 0.732836
O O9 0.884752 0.000000 0.735918
O O10 0.750000 0.250000 0.750000
O O11 0.777702 0.404823 0.747705
O O12 0.736478 0.345005 0.000000
O O13 0.354188 0.000000 0.212482
O O14 0.330487 0.887582 0.000000
#
# Coordination Sequence:
#
# PCOD9523749 Si02
#       5
#     8  16  16  16  16
#     4   9  20  40  64  91 120 148 185 237 300 365
#     4  11  22  38  63  89 115 150 193 246 301 355
#     4  10  22  40  60  83 118 161 200 241 290 346
#     4  11  21  35  57  84 117 158 201 243 290 341
#     4  11  23  37  55  83 120 158 197 242 290 347
#
# _framework density 19.795767000000001
#
# number of rings (size 3 to 8) (size 9 to 14) (size 15 to 20)
#    0.000    1.444    2.222    3.333    0.000    4.889 
#    0.000    2.778    0.000    7.333    0.000    0.000 
#    0.000    0.000    0.000    0.000    0.000    0.000 
#
# Total GULP energy -201056.568901 kJ/mol
# GULP energy per Si atom -5584.904692 kJ/mol
# Density = 1.975071 g / cm^3
# Si number density = 19.795767 Si / 1000 Ang^3
#
#
#
# Elastic Constant Matrix: (Units=GPa)
#
#
# Indices 1 2 3 4 5 6 
#
# 1 84.1111 64.7737 10.3780 0.0000 0.0000 0.0000
# 2 64.7737 201.2677 38.3403 0.0000 0.0000 0.0000
# 3 10.3780 38.3403 26.0381 0.0000 0.0000 0.0000
# 4 0.0000 0.0000 0.0000 26.2026 0.0000 0.0000
# 5 0.0000 0.0000 0.0000 0.0000 16.9103 0.0000
# 6 0.0000 0.0000 0.0000 0.0000 0.0000 29.8988
#
#
#
# Elastic Compliance Matrix: (Units=1/GPa)
#
#
# Indices 1 2 3 4 5 6 
#
# 1 0.015858 -0.005420 0.001660 0.000000 0.000000 0.000000
# 2 -0.005420 0.008758 -0.010735 0.000000 0.000000 0.000000
# 3 0.001660 -0.010735 0.053551 0.000000 0.000000 0.000000
# 4 0.000000 0.000000 0.000000 0.038164 0.000000 0.000000
# 5 0.000000 0.000000 0.000000 0.000000 0.059136 0.000000
# 6 0.000000 0.000000 0.000000 0.000000 0.000000 0.033446
#
#
# Mechanical properties :
#
#
# Convention : Reuss Voigt Hill
#
# Bulk Modulus (GPa) = 20.33493 59.82234 40.07864
# Shear Modulus (GPa) = 19.66217 27.79733 23.72975
#
# Velocity S-wave (km/s) = 3.15501 3.75134 3.46602
# Velocity P-wave (km/s) = 4.85456 7.00348 6.02559
#
# Compressibility (1/GPa) = 0.04917646
#
# Stress axis : x y z
#
# Youngs Moduli (GPa) = 63.05984 114.18434 18.67372
#
# Poissons Ratio (x) = 0.61885 -0.03100
# Poissons Ratio (y) = 0.34177 0.20047
# Poissons Ratio (z) = -0.10467 1.22581
#
# Static dielectric constant tensor:
#      x y z
#    x 1.690450 0.000000 0.000000 
#    y 0.000000 1.736950 0.000000 
#    z 0.000000 0.000000 1.664820 
# 
# From -- ./inp_files/6023.got.cif
#   From: 2010.05.17/outbox.cif.g08.bks.cpg/sg71_4_cif.got.tgz:6023.got - 2010.06.03 16:22:01.
