data_PCOD9523339
_publ_section_title
;
Structure prediction by ZEFSAII (Michael W. Deem and Ramdas Pophale) SiO2 
 PCOD9523339
Probable space group: I M M M
;
_chemical_formula_sum "Si O2"
_cell_formula_units_Z 88
_cell_length_a 23.321142
_cell_length_b 22.981090
_cell_length_c 8.613462
_cell_angle_alpha 90.000000
_cell_angle_beta 90.000000
_cell_angle_gamma 90.000000
_cell_volume 4616.344159
_symmetry_space_group_name_H-M "I M M M"
_symmetry_group_IT_number 71
_symmetry_cell_setting 'orthorhombic'
loop_
_space_group_symop_operation_xyz
x,y,z
-x,-y,z
x,-y,-z
-x,y,-z
-x,-y,-z
x,y,-z
-x,y,z
x,-y,z
1/2+x,1/2+y,1/2+z
1/2-x,1/2-y,1/2+z
1/2+x,1/2-y,1/2-z
1/2-x,1/2+y,1/2-z
1/2-x,1/2-y,1/2-z
1/2+x,1/2+y,1/2-z
1/2-x,1/2+y,1/2+z
1/2+x,1/2-y,1/2+z
loop_
_atom_site_type_symbol
_atom_site_label
_atom_site_fract_x
_atom_site_fract_y
_atom_site_fract_z
Si Si1 0.090746 0.659753 0.186519
Si Si2 0.062814 0.215240 0.313326
Si Si3 0.788292 0.376759 0.814455
Si Si4 0.000000 0.431680 0.313416
Si Si5 0.290068 0.000000 0.175788
Si Si6 0.348555 0.500000 0.324677
Si Si7 0.657977 0.375583 0.187572
O O1 0.065647 0.720937 0.240899
O O2 0.157448 0.660317 0.239354
O O3 0.054751 0.605556 0.254018
O O4 0.088611 0.655470 0.000000
O O5 0.067629 0.221155 0.500000
O O6 0.114145 0.173817 0.258626
O O7 0.000000 0.189450 0.279406
O O8 0.805197 0.442044 0.766604
O O9 0.723653 0.365103 0.755704
O O10 0.785318 0.372458 0.000000
O O11 0.000000 0.500000 0.264121
O O12 0.000000 0.430798 0.500000
O O13 0.220892 0.000000 0.168385
O O14 0.312813 0.000000 0.000000
O O15 0.370853 0.500000 0.500000
O O16 0.362365 0.560457 0.240420
O O17 0.659106 0.375336 0.000000
#
# Coordination Sequence:
#
# PCOD9523339 Si02
#       7
#    16  16  16   8   8   8  16
#     4  11  23  38  58  83 112 147 186 230 280 333
#     4  10  21  38  59  81 108 147 192 232 274 328
#     4   9  19  34  52  79 111 144 182 225 277 334
#     4  11  25  43  61  83 113 150 191 234 273 321
#     4   9  17  29  49  77 109 143 180 219 271 330
#     4   9  17  31  52  82 114 141 176 227 278 326
#     4   9  18  35  58  81 111 150 186 225 275 333
#
# _framework density 19.062704
#
# number of rings (size 3 to 8) (size 9 to 14) (size 15 to 20)
#    0.000    2.273    0.909    1.364    1.273    5.818 
#    0.000    0.455    0.000    2.727    0.000    0.000 
#    0.000    0.000    0.000    0.000    0.000    0.000 
#
# Total GULP energy -245278.133352 kJ/mol
# GULP energy per Si atom -5574.503031 kJ/mol
# Density = 1.901932 g / cm^3
# Si number density = 19.062704 Si / 1000 Ang^3
#
#
#
# Elastic Constant Matrix: (Units=GPa)
#
#
# Indices 1 2 3 4 5 6 
#
# 1 130.0582 68.6653 26.7688 0.0000 0.0000 0.0000
# 2 68.6653 103.7724 16.0747 0.0000 0.0000 0.0000
# 3 26.7688 16.0747 11.9155 0.0000 0.0000 0.0000
# 4 0.0000 0.0000 0.0000 17.1101 0.0000 0.0000
# 5 0.0000 0.0000 0.0000 0.0000 15.1891 0.0000
# 6 0.0000 0.0000 0.0000 0.0000 0.0000 41.9213
#
#
#
# Elastic Compliance Matrix: (Units=1/GPa)
#
#
# Indices 1 2 3 4 5 6 
#
# 1 0.017540 -0.006956 -0.030021 0.000000 0.000000 0.000000
# 2 -0.006956 0.014941 -0.004529 0.000000 0.000000 0.000000
# 3 -0.030021 -0.004529 0.157478 0.000000 0.000000 0.000000
# 4 0.000000 0.000000 0.000000 0.058445 0.000000 0.000000
# 5 0.000000 0.000000 0.000000 0.000000 0.065837 0.000000
# 6 0.000000 0.000000 0.000000 0.000000 0.000000 0.023854
#
#
# Mechanical properties :
#
#
# Convention : Reuss Voigt Hill
#
# Bulk Modulus (GPa) = 9.35045 52.08484 30.71764
# Shear Modulus (GPa) = 10.94675 23.79325 17.37000
#
# Velocity S-wave (km/s) = 2.39895 3.53676 3.02189
# Velocity P-wave (km/s) = 3.54810 6.63780 5.32210
#
# Compressibility (1/GPa) = 0.10694677
#
# Stress axis : x y z
#
# Youngs Moduli (GPa) = 57.01168 66.93137 6.35008
#
# Poissons Ratio (x) = 0.46556 0.19064
# Poissons Ratio (y) = 0.39656 0.02876
# Poissons Ratio (z) = 1.71156 0.30315
#
# Static dielectric constant tensor:
#      x y z
#    x 1.700940 0.000000 0.000000 
#    y 0.000000 1.604510 0.000000 
#    z 0.000000 0.000000 1.651800 
# 
# From -- ./inp_files/12610.got.cif
#   From: 2010.05.17/outbox.cif.g08.bks.cpg/sg71_7_cif.got.tgz:12610.got - 2010.06.03 16:22:01.
