data_PCOD9523946
_publ_section_title
;
Structure prediction by ZEFSAII (Michael W. Deem and Ramdas Pophale) SiO2 
 PCOD9523946
Probable space group: I M M M
;
_chemical_formula_sum "Si O2"
_cell_formula_units_Z 58
_cell_length_a 9.897265
_cell_length_b 21.714901
_cell_length_c 13.582927
_cell_angle_alpha 90.000000
_cell_angle_beta 90.000000
_cell_angle_gamma 90.000000
_cell_volume 2919.217266
_symmetry_space_group_name_H-M "I M M M"
_symmetry_group_IT_number 71
_symmetry_cell_setting 'orthorhombic'
loop_
_space_group_symop_operation_xyz
x,y,z
-x,-y,z
x,-y,-z
-x,y,-z
-x,-y,-z
x,y,-z
-x,y,z
x,-y,z
1/2+x,1/2+y,1/2+z
1/2-x,1/2-y,1/2+z
1/2+x,1/2-y,1/2-z
1/2-x,1/2+y,1/2-z
1/2-x,1/2-y,1/2-z
1/2+x,1/2+y,1/2-z
1/2-x,1/2+y,1/2+z
1/2+x,1/2-y,1/2+z
loop_
_atom_site_type_symbol
_atom_site_label
_atom_site_fract_x
_atom_site_fract_y
_atom_site_fract_z
Si Si1 0.500000 0.500000 0.000000
Si Si2 0.292650 0.868908 0.385893
Si Si3 0.263077 0.000000 0.109377
Si Si4 0.000000 0.400567 0.606703
Si Si5 0.500000 0.203664 0.732686
Si Si6 0.269497 0.500000 0.826361
Si Si7 0.000000 0.813611 0.386538
O O1 0.381651 0.500000 0.087504
O O2 0.331023 0.870583 0.500000
O O3 0.370568 0.812735 0.333994
O O4 0.314744 0.936773 0.341203
O O5 0.133392 0.854977 0.378919
O O6 0.366852 0.942637 0.112341
O O7 0.181958 0.000000 0.211944
O O8 0.196703 0.000000 0.000000
O O9 0.000000 0.349982 0.687881
O O10 0.000000 0.370092 0.500000
O O11 0.500000 0.265559 0.796412
O O12 0.000000 0.788009 0.500000
#
# Coordination Sequence:
#
# PCOD9523946 Si02
#       7
#     2  16   8   8   8   8   8
#     4  12  24  36  62  86 128 176 224 224 320 406
#     4  11  23  39  61  91 129 160 212 266 321 384
#     4   9  18  34  55  86 125 159 198 259 322 371
#     4   9  17  31  54  84 118 154 195 248 314 377
#     4  12  21  37  61  91 122 160 201 272 323 369
#     4  12  21  38  63  95 125 168 209 263 317 384
#     4  10  24  43  61  83 119 171 221 255 305 396
#
# _framework density 19.86834
#
# number of rings (size 3 to 8) (size 9 to 14) (size 15 to 20)
#    0.000    1.379    4.138    3.310    1.931    0.552 
#    0.000    1.724    0.000    1.655    0.000    0.000 
#    0.000    0.000    0.000    0.000    0.000    0.000 
#
# Total GULP energy -161456.852183 kJ/mol
# GULP energy per Si atom -5567.477661 kJ/mol
# Density = 1.982312 g / cm^3
# Si number density = 19.868340 Si / 1000 Ang^3
#
#
#
# Elastic Constant Matrix: (Units=GPa)
#
#
# Indices 1 2 3 4 5 6 
#
# 1 69.8296 2.6462 21.3915 0.0000 0.0000 0.0000
# 2 2.6462 88.8993 31.9076 0.0000 0.0000 0.0000
# 3 21.3915 31.9076 182.9046 0.0000 0.0000 0.0000
# 4 0.0000 0.0000 0.0000 25.0963 0.0000 0.0000
# 5 0.0000 0.0000 0.0000 0.0000 37.8832 0.0000
# 6 0.0000 0.0000 0.0000 0.0000 0.0000 25.7492
#
#
#
# Elastic Compliance Matrix: (Units=1/GPa)
#
#
# Indices 1 2 3 4 5 6 
#
# 1 0.014856 0.000194 -0.001771 0.000000 0.000000 0.000000
# 2 0.000194 0.012003 -0.002116 0.000000 0.000000 0.000000
# 3 -0.001771 -0.002116 0.006044 0.000000 0.000000 0.000000
# 4 0.000000 0.000000 0.000000 0.039847 0.000000 0.000000
# 5 0.000000 0.000000 0.000000 0.000000 0.026397 0.000000
# 6 0.000000 0.000000 0.000000 0.000000 0.000000 0.038836
#
#
# Mechanical properties :
#
#
# Convention : Reuss Voigt Hill
#
# Bulk Modulus (GPa) = 39.19456 50.39159 44.79307
# Shear Modulus (GPa) = 32.49400 36.79163 34.64281
#
# Velocity S-wave (km/s) = 4.04848 4.30789 4.18020
# Velocity P-wave (km/s) = 6.45163 7.08249 6.77441
#
# Compressibility (1/GPa) = 0.02551375
#
# Stress axis : x y z
#
# Youngs Moduli (GPa) = 67.31360 83.31558 165.46161
#
# Poissons Ratio (x) = -0.01612 0.29307
# Poissons Ratio (y) = -0.01303 0.35019
# Poissons Ratio (z) = 0.11923 0.17633
#
# Static dielectric constant tensor:
#      x y z
#    x 1.716910 0.000000 0.000000 
#    y 0.000000 1.692740 0.000000 
#    z 0.000000 0.000000 1.731450 
# 
# From -- ./inp_files/19425.got.cif
#   From: 2010.05.17/outbox.cif.g08.bks.cpg/sg71_10_cif.got.tgz:19425.got - 2010.06.03 16:22:01.
