data_PCOD9523172
_publ_section_title
;
Structure prediction by ZEFSAII (Michael W. Deem and Ramdas Pophale) SiO2 
 PCOD9523172
Probable space group: I M M M
;
_chemical_formula_sum "Si O2"
_cell_formula_units_Z 104
_cell_length_a 9.186514
_cell_length_b 27.457118
_cell_length_c 21.498794
_cell_angle_alpha 90.000000
_cell_angle_beta 90.000000
_cell_angle_gamma 90.000000
_cell_volume 5422.752581
_symmetry_space_group_name_H-M "I M M M"
_symmetry_group_IT_number 71
_symmetry_cell_setting 'orthorhombic'
loop_
_space_group_symop_operation_xyz
x,y,z
-x,-y,z
x,-y,-z
-x,y,-z
-x,-y,-z
x,y,-z
-x,y,z
x,-y,z
1/2+x,1/2+y,1/2+z
1/2-x,1/2-y,1/2+z
1/2+x,1/2-y,1/2-z
1/2-x,1/2+y,1/2-z
1/2-x,1/2-y,1/2-z
1/2+x,1/2+y,1/2-z
1/2-x,1/2+y,1/2+z
1/2+x,1/2-y,1/2+z
loop_
_atom_site_type_symbol
_atom_site_label
_atom_site_fract_x
_atom_site_fract_y
_atom_site_fract_z
Si Si1 0.175113 0.243015 0.574481
Si Si2 0.163561 0.642820 0.925940
Si Si3 0.831320 0.057282 0.634530
Si Si4 0.669237 0.719728 0.303711
Si Si5 0.332147 0.059706 0.000000
Si Si6 0.826098 0.554910 0.369386
Si Si7 0.160255 0.892460 0.768873
O O1 0.209929 0.252821 0.500000
O O2 0.232243 0.188318 0.590278
O O3 0.251314 0.275373 0.628714
O O4 0.000000 0.245819 0.580094
O O5 0.229619 0.590955 0.907243
O O6 0.000000 0.649325 0.899886
O O7 0.153764 0.644181 0.000000
O O8 0.825440 0.084175 0.701167
O O9 0.000000 0.059577 0.613214
O O10 0.791619 0.000000 0.638581
O O11 0.500000 0.734967 0.311168
O O12 0.750000 0.750000 0.250000
O O13 0.668149 0.665199 0.276051
O O14 0.265001 0.074696 0.934798
O O15 0.500000 0.076659 0.000000
O O16 0.335402 0.000000 0.000000
O O17 0.772263 0.500000 0.360105
O O18 0.783691 0.586405 0.311918
O O19 0.000000 0.552636 0.375865
O O20 0.000000 0.907796 0.792585
#
# Coordination Sequence:
#
# PCOD9523172 Si02
#       7
#    16  16  16  16   8  16  16
#     4  10  21  39  63  89 118 154 197 244 296 358
#     4  10  21  37  59  87 117 149 186 232 288 348
#     4  10  21  37  57  81 113 154 196 238 284 339
#     4  11  23  39  61  87 116 151 193 243 296 352
#     4   7  12  26  47  71  99 131 169 213 257 299
#     4   9  17  31  53  78 104 138 180 223 266 316
#     4  10  22  38  54  78 110 144 181 227 283 333
#
# _framework density 19.178452
#
# number of rings (size 3 to 8) (size 9 to 14) (size 15 to 20)
#    0.000    2.231    0.000    3.692    0.000    6.462 
#    1.385    1.923    0.000    1.385    0.000    0.000 
#    0.000    0.000    0.000    0.000    0.000    0.000 
#
# Total GULP energy -289659.740186 kJ/mol
# GULP energy per Si atom -5570.379619 kJ/mol
# Density = 1.913480 g / cm^3
# Si number density = 19.178452 Si / 1000 Ang^3
#
#
#
# Elastic Constant Matrix: (Units=GPa)
#
#
# Indices 1 2 3 4 5 6 
#
# 1 57.4944 5.9450 19.2827 0.0000 -0.0003 0.0000
# 2 5.9450 38.0447 -5.0779 0.0000 0.0001 0.0000
# 3 19.2827 -5.0779 29.6217 0.0000 -0.0004 0.0000
# 4 0.0000 0.0000 0.0000 38.6892 -0.0014 0.0000
# 5 -0.0003 0.0001 -0.0004 -0.0014 1079.5887 0.0002
# 6 0.0000 0.0000 0.0000 0.0000 0.0002 21.9285
#
#
#
# Elastic Compliance Matrix: (Units=1/GPa)
#
#
# Indices 1 2 3 4 5 6 
#
# 1 0.023452 -0.005836 -0.016267 0.000000 0.000000 0.000000
# 2 -0.005836 0.028353 0.008659 0.000000 0.000000 0.000000
# 3 -0.016267 0.008659 0.045833 0.000000 0.000000 0.000000
# 4 0.000000 0.000000 0.000000 0.025847 0.000000 0.000000
# 5 0.000000 0.000000 0.000000 0.000000 0.000926 0.000000
# 6 0.000000 0.000000 0.000000 0.000000 0.000000 0.045603
#
#
# Mechanical properties :
#
#
# Convention : Reuss Voigt Hill
#
# Bulk Modulus (GPa) = 14.13423 18.38450 16.25937
# Shear Modulus (GPa) = 22.67742 235.04202 128.85972
#
# Velocity S-wave (km/s) = 3.44240 11.08248 8.20583
# Velocity P-wave (km/s) = 4.81518 13.16695 9.91349
#
# Compressibility (1/GPa) = 0.07075024
#
# Stress axis : x y z
#
# Youngs Moduli (GPa) = 42.64016 35.27019 21.81853
#
# Poissons Ratio (x) = 0.20583 0.35492
# Poissons Ratio (y) = 0.24884 -0.18893
# Poissons Ratio (z) = 0.69362 -0.30541
#
# Static dielectric constant tensor:
#      x y z
#    x 1.697580 0.000000 0.000000 
#    y 0.000000 1.563380 0.000000 
#    z 0.000000 0.000000 1.714460 
# 
# From -- ./inp_files/50926.got.cif
#   From: 2010.05.17/outbox.cif.g08.bks.cpg/sg71_26_cif.got.tgz:50926.got - 2010.06.03 16:22:01.
