data_PCOD9523683
_publ_section_title
;
Structure prediction by ZEFSAII (Michael W. Deem and Ramdas Pophale) SiO2 
 PCOD9523683
Probable space group: I M M M
;
_chemical_formula_sum "Si O2"
_cell_formula_units_Z 76
_cell_length_a 12.190539
_cell_length_b 10.780402
_cell_length_c 29.351661
_cell_angle_alpha 90.000000
_cell_angle_beta 90.000000
_cell_angle_gamma 90.000000
_cell_volume 3857.363325
_symmetry_space_group_name_H-M "I M M M"
_symmetry_group_IT_number 71
_symmetry_cell_setting 'orthorhombic'
loop_
_space_group_symop_operation_xyz
x,y,z
-x,-y,z
x,-y,-z
-x,y,-z
-x,-y,-z
x,y,-z
-x,y,z
x,-y,z
1/2+x,1/2+y,1/2+z
1/2-x,1/2-y,1/2+z
1/2+x,1/2-y,1/2-z
1/2-x,1/2+y,1/2-z
1/2-x,1/2-y,1/2-z
1/2+x,1/2+y,1/2-z
1/2-x,1/2+y,1/2+z
1/2+x,1/2-y,1/2+z
loop_
_atom_site_type_symbol
_atom_site_label
_atom_site_fract_x
_atom_site_fract_y
_atom_site_fract_z
Si Si1 0.229236 0.360305 0.000000
Si Si2 0.500000 0.858482 0.395900
Si Si3 0.123902 0.500000 0.407783
Si Si4 0.741366 0.500000 0.315645
Si Si5 0.300969 0.769253 0.661131
Si Si6 0.500000 0.805784 0.500000
Si Si7 0.367874 0.000000 0.722755
Si Si8 0.628710 0.274590 0.917256
O O1 0.303859 0.348090 0.044829
O O2 0.180937 0.500000 0.000000
O O3 0.128664 0.261456 0.000000
O O4 0.605745 0.789384 0.376779
O O5 0.500000 0.862590 0.449799
O O6 0.500000 0.000000 0.378852
O O7 0.204009 0.500000 0.365290
O O8 0.136723 0.630104 0.432800
O O9 0.000000 0.500000 0.389147
O O10 0.683933 0.634754 0.315499
O O11 0.827212 0.500000 0.274573
O O12 0.187521 0.781678 0.632350
O O13 0.319879 0.879031 0.697151
O O14 0.500000 0.000000 0.721402
O O15 0.500000 0.308271 0.915034
#
# Coordination Sequence:
#
# PCOD9523683 Si02
#       8
#     8   8   8   8  16   4   8  16
#     4  12  24  37  57  90 122 155 210 253 304 367
#     4  12  21  41  67  96 129 174 223 258 319 387
#     4   8  17  39  61  81 109 159 206 241 298 376
#     4  10  23  39  63  94 125 158 206 268 324 374
#     4  11  22  41  66  92 128 165 211 259 323 381
#     4  12  25  38  68  95 122 177 222 269 300 393
#     4  12  23  42  68  93 123 169 219 264 310 392
#     4  10  22  38  61  87 122 161 202 254 312 371
#
# _framework density 19.702577000000002
#
# number of rings (size 3 to 8) (size 9 to 14) (size 15 to 20)
#    0.000    1.263    4.211    2.211    1.474    2.526 
#    0.000    1.579    2.316    2.526    0.000    0.000 
#    0.000    0.000    0.000    0.000    0.000    0.000 
#
# Total GULP energy -211692.546478 kJ/mol
# GULP energy per Si atom -5570.856486 kJ/mol
# Density = 1.965773 g / cm^3
# Si number density = 19.702577 Si / 1000 Ang^3
#
#
#
# Elastic Constant Matrix: (Units=GPa)
#
#
# Indices 1 2 3 4 5 6 
#
# 1 117.7570 29.9228 25.1138 0.0000 0.0000 0.0000
# 2 29.9228 123.1331 26.9029 0.0000 0.0000 0.0000
# 3 25.1138 26.9029 68.1221 0.0000 0.0000 0.0000
# 4 0.0000 0.0000 0.0000 -0.0381 0.0000 0.0000
# 5 0.0000 0.0000 0.0000 0.0000 39.8922 0.0000
# 6 0.0000 0.0000 0.0000 0.0000 0.0000 -6.9906
#
#
#
# Elastic Compliance Matrix: (Units=1/GPa)
#
#
# Indices 1 2 3 4 5 6 
#
# 1 0.009529 -0.001694 -0.002844 0.000000 0.000000 0.000000
# 2 -0.001694 0.009189 -0.003004 0.000000 0.000000 0.000000
# 3 -0.002844 -0.003004 0.016914 0.000000 0.000000 0.000000
# 4 0.000000 0.000000 0.000000-26.273787 0.000000 -0.000003
# 5 0.000000 0.000000 0.000000 0.000000 0.025068 0.000000
# 6 0.000000 0.000000 0.000000 -0.000003 0.000000 -0.143049
#
#
# Mechanical properties :
#
#
# Convention : Reuss Voigt Hill
#
# Bulk Modulus (GPa) = 48.66727 52.54346 50.60537
# Shear Modulus (GPa) = -0.18987 21.71089 10.76051
#
# Velocity S-wave (km/s) = -0.31077 3.32314 2.33951
# Velocity P-wave (km/s) = 4.96244 6.43821 5.74788
#
# Compressibility (1/GPa) = 0.02054769
#
# Stress axis : x y z
#
# Youngs Moduli (GPa) = 104.94163 108.82013 59.12095
#
# Poissons Ratio (x) = 0.18438 0.16813
# Poissons Ratio (y) = 0.17781 0.17763
# Poissons Ratio (z) = 0.29844 0.32695
#
# Static dielectric constant tensor:
#      x y z
#    x 1.709740 0.000000 0.000000 
#    y 0.000000 1.748330 0.000000 
#    z 0.000000 0.000000 1.661440 
# 
# From -- ./inp_files/69077.got.cif
#   From: 2010.05.17/outbox.cif.g08.bks.cpg/sg71_35_cif.got.tgz:69077.got - 2010.06.03 16:22:01.
