data_PCOD9523904
_publ_section_title
;
Structure prediction by ZEFSAII (Michael W. Deem and Ramdas Pophale) SiO2 
 PCOD9523904
Probable space group: I M M M
;
_chemical_formula_sum "Si O2"
_cell_formula_units_Z 96
_cell_length_a 23.775748
_cell_length_b 8.350630
_cell_length_c 26.498554
_cell_angle_alpha 90.000000
_cell_angle_beta 90.000000
_cell_angle_gamma 90.000000
_cell_volume 5261.088482
_symmetry_space_group_name_H-M "I M M M"
_symmetry_group_IT_number 71
_symmetry_cell_setting 'orthorhombic'
loop_
_space_group_symop_operation_xyz
x,y,z
-x,-y,z
x,-y,-z
-x,y,-z
-x,-y,-z
x,y,-z
-x,y,z
x,-y,z
1/2+x,1/2+y,1/2+z
1/2-x,1/2-y,1/2+z
1/2+x,1/2-y,1/2-z
1/2-x,1/2+y,1/2-z
1/2-x,1/2-y,1/2-z
1/2+x,1/2+y,1/2-z
1/2-x,1/2+y,1/2+z
1/2+x,1/2-y,1/2+z
loop_
_atom_site_type_symbol
_atom_site_label
_atom_site_fract_x
_atom_site_fract_y
_atom_site_fract_z
Si Si1 0.436254 0.307432 0.245601
Si Si2 0.262417 0.314669 0.695073
Si Si3 0.809224 0.306904 0.558776
Si Si4 0.178245 0.192721 0.942793
Si Si5 0.374965 0.816789 0.654425
Si Si6 0.851551 0.809528 0.344290
O O1 0.500000 0.246870 0.240797
O O2 0.437325 0.500000 0.244434
O O3 0.411003 0.259855 0.300138
O O4 0.398272 0.259641 0.197065
O O5 0.280911 0.500000 0.694287
O O6 0.250000 0.250000 0.750000
O O7 0.311201 0.205319 0.673455
O O8 0.203802 0.292822 0.667577
O O9 0.819957 0.270771 0.500000
O O10 0.811421 0.500000 0.564692
O O11 0.743351 0.256239 0.568262
O O12 0.854505 0.225571 0.596019
O O13 0.132151 0.244634 0.901629
O O14 0.180134 0.000000 0.941919
O O15 0.165144 0.245030 0.000000
O O16 0.391776 0.000000 0.650396
O O17 0.841869 0.000000 0.336846
#
# Coordination Sequence:
#
# PCOD9523904 Si02
#       6
#    16  16  16  16  16  16
#     4  10  23  42  60  77 104 145 188 231 279 330
#     4  12  22  33  50  77 112 146 179 217 268 332
#     4   9  18  32  51  77 112 151 184 217 263 322
#     4   9  18  33  53  78 112 152 186 217 260 321
#     4  12  23  34  54  83 114 146 179 224 275 327
#     4  11  21  33  54  82 110 141 180 227 275 328
#
# _framework density 18.247174999999999
#
# number of rings (size 3 to 8) (size 9 to 14) (size 15 to 20)
#    0.000    1.500    3.333    4.500    0.000    1.667 
#    0.000    1.667    0.000    1.000    0.000    7.000 
#    0.000    0.000    0.000    0.000    0.000    0.000 
#
# Total GULP energy -267430.419932 kJ/mol
# GULP energy per Si atom -5571.467082 kJ/mol
# Density = 1.820564 g / cm^3
# Si number density = 18.247175 Si / 1000 Ang^3
#
#
#
# Elastic Constant Matrix: (Units=GPa)
#
#
# Indices 1 2 3 4 5 6 
#
# 1 64.7937 -0.1956 38.5512 0.0000 0.0000 0.0000
# 2 -0.1956 26.7192 11.7621 0.0000 0.0000 0.0000
# 3 38.5512 11.7621 138.8314 0.0000 0.0000 0.0000
# 4 0.0000 0.0000 0.0000 26.9481 0.0000 0.0000
# 5 0.0000 0.0000 0.0000 0.0000 10.1654 0.0000
# 6 0.0000 0.0000 0.0000 0.0000 0.0000 14.9037
#
#
#
# Elastic Compliance Matrix: (Units=1/GPa)
#
#
# Indices 1 2 3 4 5 6 
#
# 1 0.018649 0.002510 -0.005391 0.000000 0.000000 0.000000
# 2 0.002510 0.039214 -0.004019 0.000000 0.000000 0.000000
# 3 -0.005391 -0.004019 0.009041 0.000000 0.000000 0.000000
# 4 0.000000 0.000000 0.000000 0.037108 0.000000 0.000000
# 5 0.000000 0.000000 0.000000 0.000000 0.098373 0.000000
# 6 0.000000 0.000000 0.000000 0.000000 0.000000 0.067098
#
#
# Mechanical properties :
#
#
# Convention : Reuss Voigt Hill
#
# Bulk Modulus (GPa) = 18.83165 36.73111 27.78138
# Shear Modulus (GPa) = 16.61216 22.41853 19.51535
#
# Velocity S-wave (km/s) = 3.02055 3.50895 3.27387
# Velocity P-wave (km/s) = 4.74423 6.04900 5.43590
#
# Compressibility (1/GPa) = 0.05310208
#
# Stress axis : x y z
#
# Youngs Moduli (GPa) = 53.62281 25.50115 110.61309
#
# Poissons Ratio (x) = -0.06400 0.59633
# Poissons Ratio (y) = -0.13458 0.44458
# Poissons Ratio (z) = 0.28909 0.10249
#
# Static dielectric constant tensor:
#      x y z
#    x 1.617110 0.000000 0.000000 
#    y 0.000000 1.631640 0.000000 
#    z 0.000000 0.000000 1.735130 
# 
# From -- ./inp_files/10867.got.cif
#   From: 2010.05.17/outbox.cif.g08.bks.cpg/sg71_6_cif.got.tgz:10867.got - 2010.06.03 16:22:01.
