data_PCOD9523097
_publ_section_title
;
Structure prediction by ZEFSAII (Michael W. Deem and Ramdas Pophale) SiO2 
 PCOD9523097
Probable space group: I M M M
;
_chemical_formula_sum "Si O2"
_cell_formula_units_Z 64
_cell_length_a 15.800523
_cell_length_b 9.451909
_cell_length_c 20.204303
_cell_angle_alpha 90.000000
_cell_angle_beta 90.000000
_cell_angle_gamma 90.000000
_cell_volume 3017.413764
_symmetry_space_group_name_H-M "I M M M"
_symmetry_group_IT_number 71
_symmetry_cell_setting 'orthorhombic'
loop_
_space_group_symop_operation_xyz
x,y,z
-x,-y,z
x,-y,-z
-x,y,-z
-x,-y,-z
x,y,-z
-x,y,z
x,-y,z
1/2+x,1/2+y,1/2+z
1/2-x,1/2-y,1/2+z
1/2+x,1/2-y,1/2-z
1/2-x,1/2+y,1/2-z
1/2-x,1/2-y,1/2-z
1/2+x,1/2+y,1/2-z
1/2-x,1/2+y,1/2+z
1/2+x,1/2-y,1/2+z
loop_
_atom_site_type_symbol
_atom_site_label
_atom_site_fract_x
_atom_site_fract_y
_atom_site_fract_z
Si Si1 0.709744 0.336354 0.000000
Si Si2 0.662466 0.833190 0.247786
Si Si3 0.596438 0.753598 0.500000
Si Si4 0.402352 0.331994 0.122720
Si Si5 0.902890 0.850169 0.854353
O O1 0.664566 0.280296 0.933143
O O2 0.684017 0.500000 0.000000
O O3 0.811741 0.330376 0.000000
O O4 0.750000 0.750000 0.250000
O O5 0.609932 0.758916 0.189078
O O6 0.627544 0.791692 0.319771
O O7 0.667936 0.000000 0.238631
O O8 0.500000 0.820757 0.500000
O O9 0.600159 0.664552 0.432861
O O10 0.500000 0.319750 0.099491
O O11 0.387177 0.500000 0.136971
O O12 0.000000 0.860011 0.834111
O O13 0.860708 0.000000 0.834196
#
# Coordination Sequence:
#
# PCOD9523097 Si02
#       5
#     8  16   8  16  16
#     4  10  21  38  61  90 124 162 207 260 316 375
#     4  12  25  40  60  88 123 162 206 255 308 368
#     4  10  21  36  59  91 125 165 211 256 307 373
#     4  10  21  40  66  93 123 163 210 260 317 379
#     4  10  21  39  62  87 118 157 200 247 303 368
#
# _framework density 21.210218000000001
#
# number of rings (size 3 to 8) (size 9 to 14) (size 15 to 20)
#    0.000    1.500    0.000    5.250    0.000   10.250 
#    0.000    4.375    0.000    1.500    0.000    0.000 
#    0.000    0.000    0.000    0.000    0.000    0.000 
#
# Total GULP energy -178351.040746 kJ/mol
# GULP energy per Si atom -5573.470023 kJ/mol
# Density = 2.116194 g / cm^3
# Si number density = 21.210218 Si / 1000 Ang^3
#
#
#
# Elastic Constant Matrix: (Units=GPa)
#
#
# Indices 1 2 3 4 5 6 
#
# 1 98.9336 32.5757 33.8106 0.0000 0.0000 0.0000
# 2 32.5757 124.5818 44.9197 0.0000 0.0000 0.0000
# 3 33.8106 44.9197 98.8580 0.0000 0.0000 0.0000
# 4 0.0000 0.0000 0.0000 -10.0992 0.0000 0.0000
# 5 0.0000 0.0000 0.0000 0.0000 44.0329 0.0000
# 6 0.0000 0.0000 0.0000 0.0000 0.0000 20.2739
#
#
#
# Elastic Compliance Matrix: (Units=1/GPa)
#
#
# Indices 1 2 3 4 5 6 
#
# 1 0.011831 -0.001955 -0.003158 0.000000 0.000000 0.000000
# 2 -0.001955 0.009923 -0.003840 0.000000 0.000000 0.000000
# 3 -0.003158 -0.003840 0.012940 0.000000 0.000000 0.000000
# 4 0.000000 0.000000 0.000000 -0.099018 0.000000 0.000000
# 5 0.000000 0.000000 0.000000 0.000000 0.022710 0.000000
# 6 0.000000 0.000000 0.000000 0.000000 0.000000 0.049324
#
#
# Mechanical properties :
#
#
# Convention : Reuss Voigt Hill
#
# Bulk Modulus (GPa) = 59.56666 60.55391 60.06029
# Shear Modulus (GPa) = 160.19358 24.91269 92.55313
#
# Velocity S-wave (km/s) = 8.70003 3.43090 6.61293
# Velocity P-wave (km/s) = 11.36071 6.65629 9.31053
#
# Compressibility (1/GPa) = 0.01678791
#
# Stress axis : x y z
#
# Youngs Moduli (GPa) = 84.52584 100.77986 77.27688
#
# Poissons Ratio (x) = 0.19701 0.24404
# Poissons Ratio (y) = 0.16523 0.29675
# Poissons Ratio (z) = 0.26693 0.38701
#
# Static dielectric constant tensor:
#      x y z
#    x 1.794160 0.000000 0.000000 
#    y 0.000000 2.148960 0.000000 
#    z 0.000000 0.000000 1.821190 
# 
# From -- ./inp_files/44312.got.cif
#   From: 2010.05.17/outbox.cif.g08.bks.cpg/sg71_23_cif.got.tgz:44312.got - 2010.06.03 16:22:01.
