data_PCOD9523643
_publ_section_title
;
Structure prediction by ZEFSAII (Michael W. Deem and Ramdas Pophale) SiO2 
 PCOD9523643
Probable space group: I M M M
;
_chemical_formula_sum "Si O2"
_cell_formula_units_Z 56
_cell_length_a 25.575254
_cell_length_b 15.115106
_cell_length_c 8.100226
_cell_angle_alpha 90.000000
_cell_angle_beta 90.000000
_cell_angle_gamma 90.000000
_cell_volume 3131.326034
_symmetry_space_group_name_H-M "I M M M"
_symmetry_group_IT_number 71
_symmetry_cell_setting 'orthorhombic'
loop_
_space_group_symop_operation_xyz
x,y,z
-x,-y,z
x,-y,-z
-x,y,-z
-x,-y,-z
x,y,-z
-x,y,z
x,-y,z
1/2+x,1/2+y,1/2+z
1/2-x,1/2-y,1/2+z
1/2+x,1/2-y,1/2-z
1/2-x,1/2+y,1/2-z
1/2-x,1/2-y,1/2-z
1/2+x,1/2+y,1/2-z
1/2-x,1/2+y,1/2+z
1/2+x,1/2-y,1/2+z
loop_
_atom_site_type_symbol
_atom_site_label
_atom_site_fract_x
_atom_site_fract_y
_atom_site_fract_z
Si Si1 0.000000 0.396548 0.200732
Si Si2 0.697211 0.303137 0.198570
Si Si3 0.678989 0.000000 0.813756
Si Si4 0.886841 0.335124 0.197755
Si Si5 0.289999 0.500000 0.811693
O O1 0.052844 0.345881 0.250126
O O2 0.000000 0.500000 0.255814
O O3 0.000000 0.399747 0.000000
O O4 0.750000 0.250000 0.250000
O O5 0.645630 0.251784 0.256734
O O6 0.696147 0.404361 0.262882
O O7 0.698428 0.305842 0.000000
O O8 0.644199 0.085290 0.782607
O O9 0.727191 0.000000 0.690236
O O10 0.699828 0.000000 0.000000
O O11 0.884629 0.347222 0.000000
O O12 0.309935 0.500000 0.000000
#
# Coordination Sequence:
#
# PCOD9523643 Si02
#       5
#     8  16   8  16   8
#     4   9  18  34  56  79 106 147 185 216 268 336
#     4  11  22  36  55  81 110 145 184 224 272 326
#     4  12  22  31  51  82 114 145 182 223 267 326
#     4  11  21  36  56  79 111 147 184 225 273 326
#     4  10  22  38  55  74 109 152 184 217 268 328
#
# _framework density 17.883797999999999
#
# number of rings (size 3 to 8) (size 9 to 14) (size 15 to 20)
#    0.000    1.286    4.286    3.000    0.000    1.143 
#    0.000    3.571    0.000    0.857    0.000    6.000 
#    0.000    0.000    0.000    0.000    0.000    0.000 
#
# Total GULP energy -156236.865215 kJ/mol
# GULP energy per Si atom -5579.888043 kJ/mol
# Density = 1.784309 g / cm^3
# Si number density = 17.883798 Si / 1000 Ang^3
#
#
#
# Elastic Constant Matrix: (Units=GPa)
#
#
# Indices 1 2 3 4 5 6 
#
# 1 128.6812 74.8528 -0.2869 0.0000 0.0000 0.0000
# 2 74.8528 162.1021 6.3542 0.0000 0.0000 0.0000
# 3 -0.2869 6.3542 46.7112 0.0000 0.0000 0.0000
# 4 0.0000 0.0000 0.0000 20.3951 0.0000 0.0000
# 5 0.0000 0.0000 0.0000 0.0000 21.5647 0.0000
# 6 0.0000 0.0000 0.0000 0.0000 0.0000 32.2832
#
#
#
# Elastic Compliance Matrix: (Units=1/GPa)
#
#
# Indices 1 2 3 4 5 6 
#
# 1 0.010650 -0.004947 0.000738 0.000000 0.000000 0.000000
# 2 -0.004947 0.008500 -0.001187 0.000000 0.000000 0.000000
# 3 0.000738 -0.001187 0.021574 0.000000 0.000000 0.000000
# 4 0.000000 0.000000 0.000000 0.049031 0.000000 0.000000
# 5 0.000000 0.000000 0.000000 0.000000 0.046372 0.000000
# 6 0.000000 0.000000 0.000000 0.000000 0.000000 0.030976
#
#
# Mechanical properties :
#
#
# Convention : Reuss Voigt Hill
#
# Bulk Modulus (GPa) = 33.40693 55.48163 44.44428
# Shear Modulus (GPa) = 26.61389 31.95356 29.28372
#
# Velocity S-wave (km/s) = 3.86185 4.23156 4.05092
# Velocity P-wave (km/s) = 6.21335 7.41388 6.84000
#
# Compressibility (1/GPa) = 0.02993391
#
# Stress axis : x y z
#
# Youngs Moduli (GPa) = 93.89356 117.65041 46.35185
#
# Poissons Ratio (x) = 0.58200 -0.03422
# Poissons Ratio (y) = 0.46448 0.05500
# Poissons Ratio (z) = -0.06933 0.13961
#
# Static dielectric constant tensor:
#      x y z
#    x 1.588970 0.000000 0.000000 
#    y 0.000000 1.639190 0.000000 
#    z 0.000000 0.000000 1.647670 
# 
# From -- ./inp_files/5117.got.cif
#   From: 2010.05.17/outbox.cif.g08.bks.cpg/sg71_3_cif.got.tgz:5117.got - 2010.06.03 16:22:01.
