data_PCOD9523112
_publ_section_title
;
Structure prediction by ZEFSAII (Michael W. Deem and Ramdas Pophale) SiO2 
 PCOD9523112
Probable space group: I M M M
;
_chemical_formula_sum "Si O2"
_cell_formula_units_Z 88
_cell_length_a 24.859887
_cell_length_b 23.495015
_cell_length_c 8.806475
_cell_angle_alpha 90.000000
_cell_angle_beta 90.000000
_cell_angle_gamma 90.000000
_cell_volume 5143.716018
_symmetry_space_group_name_H-M "I M M M"
_symmetry_group_IT_number 71
_symmetry_cell_setting 'orthorhombic'
loop_
_space_group_symop_operation_xyz
x,y,z
-x,-y,z
x,-y,-z
-x,y,-z
-x,-y,-z
x,y,-z
-x,y,z
x,-y,z
1/2+x,1/2+y,1/2+z
1/2-x,1/2-y,1/2+z
1/2+x,1/2-y,1/2-z
1/2-x,1/2+y,1/2-z
1/2-x,1/2-y,1/2-z
1/2+x,1/2+y,1/2-z
1/2-x,1/2+y,1/2+z
1/2+x,1/2-y,1/2+z
loop_
_atom_site_type_symbol
_atom_site_label
_atom_site_fract_x
_atom_site_fract_y
_atom_site_fract_z
Si Si1 0.646098 0.564881 0.685022
Si Si2 0.123864 0.609216 0.180371
Si Si3 0.768633 0.432179 0.680805
Si Si4 0.063165 0.284033 0.681327
Si Si5 0.562352 0.339238 0.316725
Si Si6 0.063814 0.500000 0.681274
O O1 0.645505 0.563867 0.500000
O O2 0.634942 0.500000 0.735117
O O3 0.707281 0.580445 0.728080
O O4 0.602265 0.610779 0.734140
O O5 0.185465 0.601339 0.231796
O O6 0.098733 0.667146 0.243987
O O7 0.091170 0.556049 0.250231
O O8 0.119603 0.607618 0.000000
O O9 0.773715 0.421742 0.500000
O O10 0.776909 0.500000 0.703924
O O11 0.069255 0.285425 0.500000
O O12 0.076379 0.221446 0.744142
O O13 0.000000 0.294619 0.716913
O O14 0.565918 0.334418 0.500000
O O15 0.500000 0.352074 0.279024
O O16 0.072165 0.500000 0.500000
O O17 0.000000 0.500000 0.711194
#
# Coordination Sequence:
#
# PCOD9523112 Si02
#       6
#    16  16  16  16  16   8
#     4   8  15  29  52  82 110 139 175 211 255 311
#     4  12  23  34  52  78 105 133 173 223 269 307
#     4   9  17  32  53  73 101 142 181 214 254 310
#     4  10  21  37  55  73  99 139 181 215 257 319
#     4   9  17  31  53  81 111 138 169 215 264 309
#     4  11  23  37  53  75 105 139 174 211 256 313
#
# _framework density 17.108253999999999
#
# number of rings (size 3 to 8) (size 9 to 14) (size 15 to 20)
#    0.000    2.273    0.909    4.091    0.000    4.364 
#    0.000    3.636    0.000    1.636    0.000    2.545 
#    0.000    0.000    0.000    0.000    0.000    0.000 
#
# Total GULP energy -245552.160802 kJ/mol
# GULP energy per Si atom -5580.730927 kJ/mol
# Density = 1.706931 g / cm^3
# Si number density = 17.108254 Si / 1000 Ang^3
#
#
#
# Elastic Constant Matrix: (Units=GPa)
#
#
# Indices 1 2 3 4 5 6 
#
# 1 136.4609 118.5297 56.0662 0.0000 0.0000 0.0000
# 2 118.5297 145.4410 52.9043 0.0000 0.0000 0.0000
# 3 56.0662 52.9043 45.2751 0.0000 0.0000 0.0000
# 4 0.0000 0.0000 0.0000 17.2272 0.0000 0.0000
# 5 0.0000 0.0000 0.0000 0.0000 11.2253 0.0000
# 6 0.0000 0.0000 0.0000 0.0000 0.0000 19.4071
#
#
#
# Elastic Compliance Matrix: (Units=1/GPa)
#
#
# Indices 1 2 3 4 5 6 
#
# 1 0.029922 -0.018971 -0.014887 0.000000 0.000000 0.000000
# 2 -0.018971 0.023986 -0.004536 0.000000 0.000000 0.000000
# 3 -0.014887 -0.004536 0.045822 0.000000 0.000000 0.000000
# 4 0.000000 0.000000 0.000000 0.058048 0.000000 0.000000
# 5 0.000000 0.000000 0.000000 0.000000 0.089085 0.000000
# 6 0.000000 0.000000 0.000000 0.000000 0.000000 0.051528
#
#
# Mechanical properties :
#
#
# Convention : Reuss Voigt Hill
#
# Bulk Modulus (GPa) = 43.58391 86.90859 65.24625
# Shear Modulus (GPa) = 13.06082 16.21703 14.63892
#
# Velocity S-wave (km/s) = 2.76601 3.08215 2.92835
# Velocity P-wave (km/s) = 5.97760 7.97344 7.04654
#
# Compressibility (1/GPa) = 0.02294425
#
# Stress axis : x y z
#
# Youngs Moduli (GPa) = 33.41982 41.69114 21.82360
#
# Poissons Ratio (x) = 0.79091 0.32488
# Poissons Ratio (y) = 0.63400 0.09898
# Poissons Ratio (z) = 0.49751 0.18909
#
# Static dielectric constant tensor:
#      x y z
#    x 1.579750 0.000000 0.000000 
#    y 0.000000 1.549550 0.000000 
#    z 0.000000 0.000000 1.569480 
# 
# From -- ./inp_files/10403.got.cif
#   From: 2010.05.17/outbox.cif.g08.bks.cpg/sg71_6_cif.got.tgz:10403.got - 2010.06.03 16:22:01.
