data_PCOD9523411
_publ_section_title
;
Structure prediction by ZEFSAII (Michael W. Deem and Ramdas Pophale) SiO2 
 PCOD9523411
Probable space group: I M M M
;
_chemical_formula_sum "Si O2"
_cell_formula_units_Z 72
_cell_length_a 13.833902
_cell_length_b 16.956169
_cell_length_c 15.882943
_cell_angle_alpha 90.000000
_cell_angle_beta 90.000000
_cell_angle_gamma 90.000000
_cell_volume 3725.661626
_symmetry_space_group_name_H-M "I M M M"
_symmetry_group_IT_number 71
_symmetry_cell_setting 'orthorhombic'
loop_
_space_group_symop_operation_xyz
x,y,z
-x,-y,z
x,-y,-z
-x,y,-z
-x,-y,-z
x,y,-z
-x,y,z
x,-y,z
1/2+x,1/2+y,1/2+z
1/2-x,1/2-y,1/2+z
1/2+x,1/2-y,1/2-z
1/2-x,1/2+y,1/2-z
1/2-x,1/2-y,1/2-z
1/2+x,1/2+y,1/2-z
1/2-x,1/2+y,1/2+z
1/2+x,1/2-y,1/2+z
loop_
_atom_site_type_symbol
_atom_site_label
_atom_site_fract_x
_atom_site_fract_y
_atom_site_fract_z
Si Si1 0.390094 0.907771 0.760710
Si Si2 0.889182 0.906779 0.676788
Si Si3 0.889996 0.093650 0.000000
Si Si4 0.296167 0.330640 0.337993
Si Si5 0.299161 0.848561 0.597494
O O1 0.500000 0.883673 0.777809
O O2 0.311019 0.857503 0.811046
O O3 0.366290 0.896931 0.661743
O O4 0.378326 0.000000 0.782010
O O5 0.862861 0.854851 0.758798
O O6 0.808750 0.883443 0.608724
O O7 0.000000 0.894090 0.651230
O O8 0.877644 0.000000 0.697828
O O9 0.834521 0.121973 0.082234
O O10 0.000000 0.125443 0.000000
O O11 0.894840 0.000000 0.000000
O O12 0.299060 0.239722 0.364490
O O13 0.328004 0.848776 0.500000
#
# Coordination Sequence:
#
# PCOD9523411 Si02
#       5
#    16  16   8  16  16
#     4  10  22  40  62  84 111 155 202 241 283 336
#     4  10  21  38  62  87 113 152 197 242 294 349
#     4  11  22  36  59  89 120 153 189 235 289 344
#     4  11  21  38  59  86 120 152 191 239 293 342
#     4  11  23  38  56  87 121 152 192 237 293 346
#
# _framework density 19.325427000000001
#
# number of rings (size 3 to 8) (size 9 to 14) (size 15 to 20)
#    0.000    1.444    1.111    7.333    0.000    8.889 
#    0.000    2.778    0.000    2.000    0.000    0.000 
#    0.000    0.000    0.000    0.000    0.000    0.000 
#
# Total GULP energy -201130.925254 kJ/mol
# GULP energy per Si atom -5586.970146 kJ/mol
# Density = 1.928144 g / cm^3
# Si number density = 19.325427 Si / 1000 Ang^3
#
#
#
# Elastic Constant Matrix: (Units=GPa)
#
#
# Indices 1 2 3 4 5 6 
#
# 1 84.3879 11.6111 4.4569 0.0000 0.0000 0.0000
# 2 11.6111 44.5531 -1.1126 0.0000 0.0000 0.0000
# 3 4.4569 -1.1126 81.2978 0.0000 0.0000 0.0000
# 4 0.0000 0.0000 0.0000 35.7110 0.0000 0.0000
# 5 0.0000 0.0000 0.0000 0.0000 9.9400 0.0000
# 6 0.0000 0.0000 0.0000 0.0000 0.0000 156.5641
#
#
#
# Elastic Compliance Matrix: (Units=1/GPa)
#
#
# Indices 1 2 3 4 5 6 
#
# 1 0.012333 -0.003232 -0.000720 0.000000 0.000000 0.000000
# 2 -0.003232 0.023300 0.000496 0.000000 0.000000 0.000000
# 3 -0.000720 0.000496 0.012347 0.000000 0.000000 0.000000
# 4 0.000000 0.000000 0.000000 0.028003 0.000000 0.000000
# 5 0.000000 0.000000 0.000000 0.000000 0.100604 0.000000
# 6 0.000000 0.000000 0.000000 0.000000 0.000000 0.006387
#
#
# Mechanical properties :
#
#
# Convention : Reuss Voigt Hill
#
# Bulk Modulus (GPa) = 24.35067 26.68330 25.51698
# Shear Modulus (GPa) = 24.56104 53.46191 39.01148
#
# Velocity S-wave (km/s) = 3.56886 5.26537 4.49782
# Velocity P-wave (km/s) = 5.44151 7.12761 6.34085
#
# Compressibility (1/GPa) = 0.04106664
#
# Stress axis : x y z
#
# Youngs Moduli (GPa) = 81.08467 42.91879 80.99310
#
# Poissons Ratio (x) = 0.13872 0.05834
# Poissons Ratio (y) = 0.26207 -0.04018
# Poissons Ratio (z) = 0.05841 -0.02129
#
# Static dielectric constant tensor:
#      x y z
#    x 1.669770 0.000000 0.000000 
#    y 0.000000 1.682100 0.000000 
#    z 0.000000 0.000000 1.653850 
# 
# From -- ./inp_files/34088.got.cif
#   From: 2010.05.17/outbox.cif.g08.bks.cpg/sg71_18_cif.got.tgz:34088.got - 2010.06.03 16:22:01.
