data_PCOD9523718
_publ_section_title
;
Structure prediction by ZEFSAII (Michael W. Deem and Ramdas Pophale) SiO2 
 PCOD9523718
Probable space group: I M M M
;
_chemical_formula_sum "Si O2"
_cell_formula_units_Z 104
_cell_length_a 9.769597
_cell_length_b 18.867195
_cell_length_c 27.079824
_cell_angle_alpha 90.000000
_cell_angle_beta 90.000000
_cell_angle_gamma 90.000000
_cell_volume 4991.485625
_symmetry_space_group_name_H-M "I M M M"
_symmetry_group_IT_number 71
_symmetry_cell_setting 'orthorhombic'
loop_
_space_group_symop_operation_xyz
x,y,z
-x,-y,z
x,-y,-z
-x,y,-z
-x,-y,-z
x,y,-z
-x,y,z
x,-y,z
1/2+x,1/2+y,1/2+z
1/2-x,1/2-y,1/2+z
1/2+x,1/2-y,1/2-z
1/2-x,1/2+y,1/2-z
1/2-x,1/2-y,1/2-z
1/2+x,1/2+y,1/2-z
1/2-x,1/2+y,1/2+z
1/2+x,1/2-y,1/2+z
loop_
_atom_site_type_symbol
_atom_site_label
_atom_site_fract_x
_atom_site_fract_y
_atom_site_fract_z
Si Si1 0.844463 0.414781 0.843042
Si Si2 0.840005 0.663373 0.054165
Si Si3 0.660928 0.585025 0.251612
Si Si4 0.000000 0.254921 0.774915
Si Si5 0.651076 0.419706 0.559461
Si Si6 0.846538 0.293145 0.580252
Si Si7 0.775172 0.288288 0.690689
O O1 0.844971 0.500000 0.847057
O O2 0.814602 0.383444 0.896920
O O3 0.734371 0.397651 0.800523
O O4 0.000000 0.393718 0.826159
O O5 0.744394 0.731542 0.056797
O O6 0.000000 0.683814 0.056306
O O7 0.819146 0.628154 0.000000
O O8 0.500000 0.607025 0.252217
O O9 0.667995 0.500000 0.258749
O O10 0.738745 0.630857 0.292590
O O11 0.879148 0.259814 0.731967
O O12 0.874518 0.247002 0.814921
O O13 0.646042 0.421755 0.500000
O O14 0.500000 0.395997 0.577132
O O15 0.672512 0.500000 0.577294
O O16 0.769798 0.367069 0.573329
O O17 0.846754 0.281234 0.638668
O O18 0.000000 0.293717 0.560765
#
# Coordination Sequence:
#
# PCOD9523718 Si02
#       7
#    16  16  16   8  16  16  16
#     4   9  20  37  61  89 117 154 197 242 294 349
#     4  10  23  40  61  87 118 155 196 246 299 354
#     4  10  22  39  59  85 118 154 194 238 285 343
#     4  10  24  40  60  82 120 150 200 240 288 344
#     4   9  20  41  67  90 116 154 198 241 289 354
#     4  12  26  39  57  91 123 155 195 246 297 349
#     4  11  24  40  59  88 115 159 194 243 287 350
#
# _framework density 20.83548
#
# number of rings (size 3 to 8) (size 9 to 14) (size 15 to 20)
#    0.000    1.846    1.538    1.385    7.538    4.308 
#    0.000    3.846    0.000    0.000    0.000    3.231 
#    0.000    0.000    0.000    0.000    0.000    0.000 
#
# Total GULP energy -289590.256527 kJ/mol
# GULP energy per Si atom -5569.043395 kJ/mol
# Density = 2.078806 g / cm^3
# Si number density = 20.835480 Si / 1000 Ang^3
#
#
#
# Elastic Constant Matrix: (Units=GPa)
#
#
# Indices 1 2 3 4 5 6 
#
# 1 125.4887 30.1591 11.5678 0.0000 0.0000 0.0000
# 2 30.1591 46.2838 -1.9228 0.0000 0.0000 0.0000
# 3 11.5678 -1.9228 57.7302 0.0000 0.0000 0.0000
# 4 0.0000 0.0000 0.0000 249.5274 0.0000 0.0000
# 5 0.0000 0.0000 0.0000 0.0000 6.6362 0.0000
# 6 0.0000 0.0000 0.0000 0.0000 0.0000 15.6696
#
#
#
# Elastic Compliance Matrix: (Units=1/GPa)
#
#
# Indices 1 2 3 4 5 6 
#
# 1 0.009710 -0.006417 -0.002159 0.000000 0.000000 0.000000
# 2 -0.006417 0.025876 0.002148 0.000000 0.000000 0.000000
# 3 -0.002159 0.002148 0.017826 0.000000 0.000000 0.000000
# 4 0.000000 0.000000 0.000000 0.004008 0.000000 0.000000
# 5 0.000000 0.000000 0.000000 0.000000 0.150688 0.000000
# 6 0.000000 0.000000 0.000000 0.000000 0.000000 0.063818
#
#
# Mechanical properties :
#
#
# Convention : Reuss Voigt Hill
#
# Bulk Modulus (GPa) = 24.65763 34.34564 29.50164
# Shear Modulus (GPa) = 16.76155 67.01322 41.88739
#
# Velocity S-wave (km/s) = 2.83940 5.67740 4.48860
# Velocity P-wave (km/s) = 4.75497 7.71344 6.40729
#
# Compressibility (1/GPa) = 0.04055539
#
# Stress axis : x y z
#
# Youngs Moduli (GPa) = 102.98541 38.64517 56.09726
#
# Poissons Ratio (x) = 0.24798 0.12114
# Poissons Ratio (y) = 0.66085 -0.12048
# Poissons Ratio (z) = 0.22239 -0.08300
#
# Static dielectric constant tensor:
#      x y z
#    x 1.734590 0.000000 0.000000 
#    y 0.000000 1.875230 0.000000 
#    z 0.000000 0.000000 1.774660 
# 
# From -- ./inp_files/63314.got.cif
#   From: 2010.05.17/outbox.cif.g08.bks.cpg/sg71_32_cif.got.tgz:63314.got - 2010.06.03 16:22:01.
