data_PCOD9523849
_publ_section_title
;
Structure prediction by ZEFSAII (Michael W. Deem and Ramdas Pophale) SiO2 
 PCOD9523849
Probable space group: I M M M
;
_chemical_formula_sum "Si O2"
_cell_formula_units_Z 90
_cell_length_a 11.599480
_cell_length_b 17.705249
_cell_length_c 21.623831
_cell_angle_alpha 90.000000
_cell_angle_beta 90.000000
_cell_angle_gamma 90.000000
_cell_volume 4440.922537
_symmetry_space_group_name_H-M "I M M M"
_symmetry_group_IT_number 71
_symmetry_cell_setting 'orthorhombic'
loop_
_space_group_symop_operation_xyz
x,y,z
-x,-y,z
x,-y,-z
-x,y,-z
-x,-y,-z
x,y,-z
-x,y,z
x,-y,z
1/2+x,1/2+y,1/2+z
1/2-x,1/2-y,1/2+z
1/2+x,1/2-y,1/2-z
1/2-x,1/2+y,1/2-z
1/2-x,1/2-y,1/2-z
1/2+x,1/2+y,1/2-z
1/2-x,1/2+y,1/2+z
1/2+x,1/2-y,1/2+z
loop_
_atom_site_type_symbol
_atom_site_label
_atom_site_fract_x
_atom_site_fract_y
_atom_site_fract_z
Si Si1 0.270390 0.085242 0.571914
Si Si2 0.500000 0.087974 0.221618
Si Si3 0.260040 0.916072 0.000000
Si Si4 0.500000 0.000000 0.000000
Si Si5 0.500000 0.913071 0.368824
Si Si6 0.865914 0.088324 0.122151
Si Si7 0.721841 0.807302 0.805890
Si Si8 0.635215 0.270812 0.070211
O O1 0.303836 0.081074 0.500000
O O2 0.380345 0.120160 0.607136
O O3 0.162098 0.140026 0.575122
O O4 0.247677 0.000000 0.594592
O O5 0.500000 0.084322 0.295604
O O6 0.613477 0.135760 0.203907
O O7 0.500000 0.000000 0.197469
O O8 0.212268 0.885476 0.935782
O O9 0.396128 0.934773 0.000000
O O10 0.202433 0.000000 0.000000
O O11 0.500000 0.000000 0.392939
O O12 0.830874 0.139507 0.179826
O O13 0.000000 0.095649 0.106603
O O14 0.840621 0.000000 0.135152
O O15 0.750000 0.750000 0.750000
O O16 0.692862 0.762650 0.868705
O O17 0.500000 0.254484 0.072861
O O18 0.674860 0.247731 0.000000
#
# Coordination Sequence:
#
# PCOD9523849 Si02
#       8
#    16   8   8   2   8  16  16  16
#     4   9  17  32  59  92 124 161 210 263 320 394
#     4  11  24  44  67  93 126 174 231 286 337 412
#     4   8  17  36  62 103 136 170 213 279 329 398
#     4   8  16  32  62 108 152 164 228 266 344 392
#     4   9  17  32  56  87 122 157 202 265 326 379
#     4  10  22  42  69  97 132 173 222 278 341 412
#     4  12  26  43  67  93 135 176 224 280 355 417
#     4  10  22  42  62  88 129 171 215 271 338 398
#
# _framework density 20.26606
#
# number of rings (size 3 to 8) (size 9 to 14) (size 15 to 20)
#    0.267    1.778    0.889    2.133    2.489    3.200 
#    3.200    2.667    0.000    0.533    0.000    0.000 
#    0.000    0.000    0.000    0.000    0.000    0.000 
#
# Total GULP energy -250546.967101 kJ/mol
# GULP energy per Si atom -5567.710380 kJ/mol
# Density = 2.021993 g / cm^3
# Si number density = 20.266060 Si / 1000 Ang^3
#
#
#
# Elastic Constant Matrix: (Units=GPa)
#
#
# Indices 1 2 3 4 5 6 
#
# 1 82.7881 47.0717 36.8094 0.0000 0.0000 0.0000
# 2 47.0717 100.3290 64.5618 0.0000 0.0000 0.0000
# 3 36.8094 64.5618 101.2008 0.0000 0.0000 0.0000
# 4 0.0000 0.0000 0.0000 38.2544 0.0000 0.0000
# 5 0.0000 0.0000 0.0000 0.0000 346.6641 0.0000
# 6 0.0000 0.0000 0.0000 0.0000 0.0000 26.5419
#
#
#
# Elastic Compliance Matrix: (Units=1/GPa)
#
#
# Indices 1 2 3 4 5 6 
#
# 1 0.016669 -0.006649 -0.001821 0.000000 0.000000 0.000000
# 2 -0.006649 0.019560 -0.010060 0.000000 0.000000 0.000000
# 3 -0.001821 -0.010060 0.016962 0.000000 0.000000 0.000000
# 4 0.000000 0.000000 0.000000 0.026141 0.000000 0.000000
# 5 0.000000 0.000000 0.000000 0.000000 0.002885 0.000000
# 6 0.000000 0.000000 0.000000 0.000000 0.000000 0.037676
#
#
# Mechanical properties :
#
#
# Convention : Reuss Voigt Hill
#
# Bulk Modulus (GPa) = 61.99425 64.57819 63.28622
# Shear Modulus (GPa) = 30.80120 91.35041 61.07581
#
# Velocity S-wave (km/s) = 3.90274 6.72112 5.49567
# Velocity P-wave (km/s) = 7.13899 9.60029 8.45963
#
# Compressibility (1/GPa) = 0.01613053
#
# Stress axis : x y z
#
# Youngs Moduli (GPa) = 59.99102 51.12353 58.95525
#
# Poissons Ratio (x) = 0.33990 0.10739
# Poissons Ratio (y) = 0.39886 0.59312
# Poissons Ratio (z) = 0.10927 0.51433
#
# Static dielectric constant tensor:
#      x y z
#    x 1.723890 0.000000 0.000000 
#    y 0.000000 1.816920 0.000000 
#    z 0.000000 0.000000 1.730050 
# 
# From -- ./inp_files/51855.got.cif
#   From: 2010.05.17/outbox.cif.g08.bks.cpg/sg71_26_cif.got.tgz:51855.got - 2010.06.03 16:22:01.
