data_PCOD9523559
_publ_section_title
;
Structure prediction by ZEFSAII (Michael W. Deem and Ramdas Pophale) SiO2 
 PCOD9523559
Probable space group: I M M M
;
_chemical_formula_sum "Si O2"
_cell_formula_units_Z 66
_cell_length_a 29.669980
_cell_length_b 7.911907
_cell_length_c 14.781947
_cell_angle_alpha 90.000000
_cell_angle_beta 90.000000
_cell_angle_gamma 90.000000
_cell_volume 3470.004741
_symmetry_space_group_name_H-M "I M M M"
_symmetry_group_IT_number 71
_symmetry_cell_setting 'orthorhombic'
loop_
_space_group_symop_operation_xyz
x,y,z
-x,-y,z
x,-y,-z
-x,y,-z
-x,-y,-z
x,y,-z
-x,y,z
x,-y,z
1/2+x,1/2+y,1/2+z
1/2-x,1/2-y,1/2+z
1/2+x,1/2-y,1/2-z
1/2-x,1/2+y,1/2-z
1/2-x,1/2-y,1/2-z
1/2+x,1/2+y,1/2-z
1/2-x,1/2+y,1/2+z
1/2+x,1/2-y,1/2+z
loop_
_atom_site_type_symbol
_atom_site_label
_atom_site_fract_x
_atom_site_fract_y
_atom_site_fract_z
Si Si1 0.647307 0.192191 0.346087
Si Si2 0.000000 0.000000 0.000000
Si Si3 0.446659 0.000000 0.109398
Si Si4 0.686235 0.298648 0.000000
Si Si5 0.383019 0.307150 0.841443
Si Si6 0.212110 0.806133 0.000000
Si Si7 0.072268 0.693705 0.000000
O O1 0.638544 0.302310 0.258075
O O2 0.690094 0.227691 0.409866
O O3 0.604736 0.207726 0.412963
O O4 0.650248 0.000000 0.313370
O O5 0.961497 0.848809 0.000000
O O6 0.422184 0.167482 0.148349
O O7 0.500000 0.000000 0.129899
O O8 0.441400 0.000000 0.000000
O O9 0.655688 0.259411 0.086837
O O10 0.694806 0.500000 0.000000
O O11 0.734410 0.211349 0.000000
O O12 0.398189 0.500000 0.861793
O O13 0.197958 0.000000 0.000000
O O14 0.053877 0.500000 0.000000
#
# Coordination Sequence:
#
# PCOD9523559 Si02
#       7
#    16   2   8   8  16   8   8
#     4  10  21  41  64  86 127 169 207 255 317 373
#     4  12  22  36  68  82 120 158 198 268 304 370
#     4  11  24  44  68  94 126 168 217 265 326 385
#     4  10  23  41  61  92 128 164 215 262 315 368
#     4  11  23  41  67  94 128 170 211 265 316 376
#     4  11  23  36  63  96 127 169 213 260 306 382
#     4   9  22  40  57  88 120 159 205 252 311 374
#
# _framework density 19.020147999999999
#
# number of rings (size 3 to 8) (size 9 to 14) (size 15 to 20)
#    0.000    1.576    2.424    2.727    6.788    1.455 
#    2.182    1.212    0.000    0.000    0.000    0.000 
#    0.000    0.000    0.000    0.000    0.000    0.000 
#
# Total GULP energy -183963.194769 kJ/mol
# GULP energy per Si atom -5574.642266 kJ/mol
# Density = 1.897686 g / cm^3
# Si number density = 19.020148 Si / 1000 Ang^3
#
#
#
# Elastic Constant Matrix: (Units=GPa)
#
#
# Indices 1 2 3 4 5 6 
#
# 1 114.2299 63.3237 37.7270 0.0000 0.0000 0.0000
# 2 63.3237 123.7435 23.3740 0.0000 0.0000 0.0000
# 3 37.7270 23.3740 112.2176 0.0000 0.0000 0.0000
# 4 0.0000 0.0000 0.0000 22.9888 0.0000 0.0000
# 5 0.0000 0.0000 0.0000 0.0000 -2.3985 0.0000
# 6 0.0000 0.0000 0.0000 0.0000 0.0000 -481.0311
#
#
#
# Elastic Compliance Matrix: (Units=1/GPa)
#
#
# Indices 1 2 3 4 5 6 
#
# 1 0.013216 -0.006166 -0.003159 0.000000 0.000000 0.000000
# 2 -0.006166 0.011289 -0.000278 0.000000 0.000000 0.000000
# 3 -0.003159 -0.000278 0.010031 0.000000 0.000000 0.000000
# 4 0.000000 0.000000 0.000000 0.043499 0.000000 0.000000
# 5 0.000000 0.000000 0.000000 0.000000 -0.416923 0.000000
# 6 0.000000 0.000000 0.000000 0.000000 0.000000 -0.002079
#
#
# Mechanical properties :
#
#
# Convention : Reuss Voigt Hill
#
# Bulk Modulus (GPa) = 65.23366 66.56006 65.89686
# Shear Modulus (GPa) = -15.79033 -77.03707 -46.41370
#
# Velocity S-wave (km/s) = -2.88443 -6.37109 -4.94524
# Velocity P-wave (km/s) = 4.82477 4.36470 1.45392
#
# Compressibility (1/GPa) = 0.01532951
#
# Stress axis : x y z
#
# Youngs Moduli (GPa) = 75.66677 88.57918 99.68913
#
# Poissons Ratio (x) = 0.54621 0.31489
# Poissons Ratio (y) = 0.46659 0.02775
# Poissons Ratio (z) = 0.23901 0.02466
#
# Static dielectric constant tensor:
#      x y z
#    x 1.621030 0.000000 0.000000 
#    y 0.000000 1.666630 0.000000 
#    z 0.000000 0.000000 1.668390 
# 
# From -- ./inp_files/39931.got.cif
#   From: 2010.05.17/outbox.cif.g08.bks.cpg/sg71_20_cif.got.tgz:39931.got - 2010.06.03 16:22:01.
