data_PCOD9523436
_publ_section_title
;
Structure prediction by ZEFSAII (Michael W. Deem and Ramdas Pophale) SiO2 
 PCOD9523436
Probable space group: I M M M
;
_chemical_formula_sum "Si O2"
_cell_formula_units_Z 96
_cell_length_a 19.768825
_cell_length_b 15.624466
_cell_length_c 15.043240
_cell_angle_alpha 90.000000
_cell_angle_beta 90.000000
_cell_angle_gamma 90.000000
_cell_volume 4646.515867
_symmetry_space_group_name_H-M "I M M M"
_symmetry_group_IT_number 71
_symmetry_cell_setting 'orthorhombic'
loop_
_space_group_symop_operation_xyz
x,y,z
-x,-y,z
x,-y,-z
-x,y,-z
-x,-y,-z
x,y,-z
-x,y,z
x,-y,z
1/2+x,1/2+y,1/2+z
1/2-x,1/2-y,1/2+z
1/2+x,1/2-y,1/2-z
1/2-x,1/2+y,1/2-z
1/2-x,1/2-y,1/2-z
1/2+x,1/2+y,1/2-z
1/2-x,1/2+y,1/2+z
1/2+x,1/2-y,1/2+z
loop_
_atom_site_type_symbol
_atom_site_label
_atom_site_fract_x
_atom_site_fract_y
_atom_site_fract_z
Si Si1 0.500000 0.707095 0.642496
Si Si2 0.500000 0.899162 0.695877
Si Si3 0.631999 0.343153 0.104984
Si Si4 0.500000 0.592710 0.815145
Si Si5 0.423172 0.900537 0.000000
Si Si6 0.235293 0.899501 0.256088
Si Si7 0.369307 0.600606 0.597798
Si Si8 0.875063 0.340839 0.685308
O O1 0.500000 0.810907 0.636418
O O2 0.500000 0.668454 0.742834
O O3 0.433042 0.663569 0.602572
O O4 0.566035 0.883615 0.756699
O O5 0.500000 0.000000 0.664156
O O6 0.567017 0.400992 0.125580
O O7 0.699331 0.379968 0.150577
O O8 0.615877 0.257662 0.160287
O O9 0.638876 0.327666 0.000000
O O10 0.500000 0.500000 0.768738
O O11 0.380735 0.881251 0.087773
O O12 0.500000 0.858855 0.000000
O O13 0.434588 0.000000 0.000000
O O14 0.181377 0.879890 0.178065
O O15 0.304320 0.851181 0.235255
O O16 0.250519 0.000000 0.250676
O O17 0.336971 0.609349 0.500000
O O18 0.389607 0.500000 0.606726
#
# Coordination Sequence:
#
# PCOD9523436 Si02
#       8
#     8   8  16   8   8  16  16  16
#     4  12  21  38  64  93 128 175 218 268 320 386
#     4  12  24  41  66  94 127 174 222 272 335 393
#     4  12  25  42  65  96 134 176 223 269 324 394
#     4  12  23  40  66  96 134 175 218 267 323 391
#     4  11  22  36  62  94 126 163 209 273 340 390
#     4  11  24  41  63  94 133 174 216 266 326 393
#     4  10  21  38  64  99 135 172 216 267 330 397
#     4  12  23  42  62  93 130 167 216 273 329 392
#
# _framework density 20.660643
#
# number of rings (size 3 to 8) (size 9 to 14) (size 15 to 20)
#    0.000    0.583    5.000    3.750    1.167    2.333 
#    0.000    0.000    0.000    2.000    0.000    0.000 
#    0.000    0.000    0.000    0.000    0.000    0.000 
#
# Total GULP energy -268023.274676 kJ/mol
# GULP energy per Si atom -5583.818222 kJ/mol
# Density = 2.061362 g / cm^3
# Si number density = 20.660643 Si / 1000 Ang^3
#
#
#
# Elastic Constant Matrix: (Units=GPa)
#
#
# Indices 1 2 3 4 5 6 
#
# 1 107.0693 31.4170 43.5881 0.0000 0.0000 0.0000
# 2 31.4170 110.3196 18.4487 0.0000 0.0000 0.0000
# 3 43.5881 18.4487 81.2204 0.0000 0.0000 0.0000
# 4 0.0000 0.0000 0.0000 25.5516 0.0000 0.0000
# 5 0.0000 0.0000 0.0000 0.0000 7.9654 0.0000
# 6 0.0000 0.0000 0.0000 0.0000 0.0000 14.7409
#
#
#
# Elastic Compliance Matrix: (Units=1/GPa)
#
#
# Indices 1 2 3 4 5 6 
#
# 1 0.012608 -0.002556 -0.006186 0.000000 0.000000 0.000000
# 2 -0.002556 0.009941 -0.000886 0.000000 0.000000 0.000000
# 3 -0.006186 -0.000886 0.015833 0.000000 0.000000 0.000000
# 4 0.000000 0.000000 0.000000 0.039136 0.000000 0.000000
# 5 0.000000 0.000000 0.000000 0.000000 0.125542 0.000000
# 6 0.000000 0.000000 0.000000 0.000000 0.000000 0.067839
#
#
# Mechanical properties :
#
#
# Convention : Reuss Voigt Hill
#
# Bulk Modulus (GPa) = 52.28521 53.94633 53.11577
# Shear Modulus (GPa) = 16.86169 23.32861 20.09515
#
# Velocity S-wave (km/s) = 2.85989 3.36390 3.12208
# Velocity P-wave (km/s) = 6.02220 6.42302 6.22584
#
# Compressibility (1/GPa) = 0.01912587
#
# Stress axis : x y z
#
# Youngs Moduli (GPa) = 79.31489 100.59657 63.15880
#
# Poissons Ratio (x) = 0.25713 0.39068
# Poissons Ratio (y) = 0.20274 0.05597
# Poissons Ratio (z) = 0.49061 0.08915
#
# Static dielectric constant tensor:
#      x y z
#    x 1.801430 0.000000 0.000000 
#    y 0.000000 1.789140 0.000000 
#    z 0.000000 0.000000 1.705470 
# 
# From -- ./inp_files/37878.got.cif
#   From: 2010.05.17/outbox.cif.g08.bks.cpg/sg71_19_cif.got.tgz:37878.got - 2010.06.03 16:22:01.
