data_PCOD9523017
_publ_section_title
;
Structure prediction by ZEFSAII (Michael W. Deem and Ramdas Pophale) SiO2 
 PCOD9523017
Probable space group: I M M M
;
_chemical_formula_sum "Si O2"
_cell_formula_units_Z 88
_cell_length_a 8.247920
_cell_length_b 24.625313
_cell_length_c 24.625310
_cell_angle_alpha 90.000000
_cell_angle_beta 90.000000
_cell_angle_gamma 90.000000
_cell_volume 5001.587899
_symmetry_space_group_name_H-M "I M M M"
_symmetry_group_IT_number 71
_symmetry_cell_setting 'orthorhombic'
loop_
_space_group_symop_operation_xyz
x,y,z
-x,-y,z
x,-y,-z
-x,y,-z
-x,-y,-z
x,y,-z
-x,y,z
x,-y,z
1/2+x,1/2+y,1/2+z
1/2-x,1/2-y,1/2+z
1/2+x,1/2-y,1/2-z
1/2-x,1/2+y,1/2-z
1/2-x,1/2-y,1/2-z
1/2+x,1/2+y,1/2-z
1/2-x,1/2+y,1/2+z
1/2+x,1/2-y,1/2+z
loop_
_atom_site_type_symbol
_atom_site_label
_atom_site_fract_x
_atom_site_fract_y
_atom_site_fract_z
Si Si1 0.804643 0.120570 0.379430
Si Si2 0.692392 0.648319 0.438720
Si Si3 0.692392 0.061280 0.851681
Si Si4 0.000000 0.436017 0.063983
Si Si5 0.693650 0.268276 0.937984
Si Si6 0.693650 0.437984 0.231723
O O1 0.668393 0.087592 0.412408
O O2 0.773347 0.182804 0.396684
O O3 0.773346 0.103316 0.317196
O O4 0.000000 0.109502 0.390498
O O5 0.759511 0.639600 0.500000
O O6 0.500000 0.644511 0.441661
O O7 0.750000 0.604111 0.395889
O O8 0.736380 0.709860 0.422573
O O9 0.500000 0.058339 0.855489
O O10 0.736380 0.077427 0.790139
O O11 0.759511 0.000000 0.860400
O O12 0.000000 0.500000 0.074380
O O13 0.000000 0.425620 0.000000
O O14 0.500000 0.262595 0.940140
O O15 0.749656 0.281531 0.000000
O O16 0.500000 0.440140 0.237404
O O17 0.749656 0.500000 0.218469
#
# Coordination Sequence:
#
# PCOD9523017 Si02
#       6
#    16  16  16   8  16  16
#     4  10  21  37  58  83 113 152 197 239 290 339
#     4  10  21  36  56  82 111 144 182 227 279 338
#     4  10  21  36  56  82 111 144 182 227 279 338
#     4  11  24  36  52  82 116 152 192 242 294 340
#     4   9  18  34  56  80 108 145 188 234 281 334
#     4   9  18  34  56  80 108 145 188 234 281 334
#
# _framework density 17.594412999999999
#
# number of rings (size 3 to 8) (size 9 to 14) (size 15 to 20)
#    0.000    2.273    0.000    2.182    2.545    4.727 
#    0.000    3.636    0.000    0.000    0.000    0.000 
#    0.000    0.000    0.000    0.000    0.000    0.000 
#
# Total GULP energy -245210.445445 kJ/mol
# GULP energy per Si atom -5572.964669 kJ/mol
# Density = 1.755437 g / cm^3
# Si number density = 17.594413 Si / 1000 Ang^3
#
#
#
# Elastic Constant Matrix: (Units=GPa)
#
#
# Indices 1 2 3 4 5 6 
#
# 1 47.9148 55.4831 55.4837 0.0000 0.0000 0.0000
# 2 55.4831 135.5362 115.8726 0.0000 0.0000 0.0000
# 3 55.4837 115.8726 135.5378 0.0000 0.0000 0.0000
# 4 0.0000 0.0000 0.0000 31.4288 0.0000 0.0000
# 5 0.0000 0.0000 0.0000 0.0000 23.0367 0.0000
# 6 0.0000 0.0000 0.0000 0.0000 0.0000 23.0368
#
#
#
# Elastic Compliance Matrix: (Units=1/GPa)
#
#
# Indices 1 2 3 4 5 6 
#
# 1 0.042688 -0.009421 -0.009421 0.000000 0.000000 0.000000
# 2 -0.009421 0.029495 -0.021359 0.000000 0.000000 0.000000
# 3 -0.009421 -0.021359 0.029495 0.000000 0.000000 0.000000
# 4 0.000000 0.000000 0.000000 0.031818 0.000000 0.000000
# 5 0.000000 0.000000 0.000000 0.000000 0.043409 0.000000
# 6 0.000000 0.000000 0.000000 0.000000 0.000000 0.043409
#
#
# Mechanical properties :
#
#
# Convention : Reuss Voigt Hill
#
# Bulk Modulus (GPa) = 47.00052 85.85198 66.42625
# Shear Modulus (GPa) = 16.24397 21.64375 18.94386
#
# Velocity S-wave (km/s) = 3.04179 3.51115 3.28487
# Velocity P-wave (km/s) = 6.25364 8.08323 7.22657
#
# Compressibility (1/GPa) = 0.02127636
#
# Stress axis : x y z
#
# Youngs Moduli (GPa) = 23.42561 33.90447 33.90457
#
# Poissons Ratio (x) = 0.31940 0.31942
# Poissons Ratio (y) = 0.22068 0.72416
# Poissons Ratio (z) = 0.22070 0.72416
#
# Static dielectric constant tensor:
#      x y z
#    x 1.616200 0.000000 0.000000 
#    y 0.000000 1.603150 0.000000 
#    z 0.000000 0.000000 1.603150 
# 
# From -- ./inp_files/57567.got.cif
#   From: 2010.05.17/outbox.cif.g08.bks.cpg/sg71_29_cif.got.tgz:57567.got - 2010.06.03 16:22:01.
