data_PCOD9523108
_publ_section_title
;
Structure prediction by ZEFSAII (Michael W. Deem and Ramdas Pophale) SiO2 
 PCOD9523108
Probable space group: I M M M
;
_chemical_formula_sum "Si O2"
_cell_formula_units_Z 80
_cell_length_a 20.325296
_cell_length_b 9.493282
_cell_length_c 25.152906
_cell_angle_alpha 90.000000
_cell_angle_beta 90.000000
_cell_angle_gamma 90.000000
_cell_volume 4853.347955
_symmetry_space_group_name_H-M "I M M M"
_symmetry_group_IT_number 71
_symmetry_cell_setting 'orthorhombic'
loop_
_space_group_symop_operation_xyz
x,y,z
-x,-y,z
x,-y,-z
-x,y,-z
-x,-y,-z
x,y,-z
-x,y,z
x,-y,z
1/2+x,1/2+y,1/2+z
1/2-x,1/2-y,1/2+z
1/2+x,1/2-y,1/2-z
1/2-x,1/2+y,1/2-z
1/2-x,1/2-y,1/2-z
1/2+x,1/2+y,1/2-z
1/2-x,1/2+y,1/2+z
1/2+x,1/2-y,1/2+z
loop_
_atom_site_type_symbol
_atom_site_label
_atom_site_fract_x
_atom_site_fract_y
_atom_site_fract_z
Si Si1 0.809294 0.168610 0.779024
Si Si2 0.608201 0.164514 0.896725
Si Si3 0.075425 0.334380 0.276288
Si Si4 0.233543 0.836885 0.898180
Si Si5 0.605152 0.662224 0.000000
Si Si6 0.265691 0.161217 0.500000
O O1 0.750000 0.250000 0.750000
O O2 0.875779 0.235430 0.756133
O O3 0.800458 0.192618 0.842020
O O4 0.805423 0.000000 0.769708
O O5 0.579673 0.200692 0.839109
O O6 0.687454 0.179597 0.891316
O O7 0.585053 0.257709 0.946216
O O8 0.594072 0.000000 0.907713
O O9 0.095368 0.500000 0.271705
O O10 0.000000 0.321370 0.258913
O O11 0.212326 0.739457 0.946682
O O12 0.222331 0.000000 0.912297
O O13 0.685471 0.666073 0.000000
O O14 0.584558 0.500000 0.000000
O O15 0.286052 0.000000 0.500000
#
# Coordination Sequence:
#
# PCOD9523108 Si02
#       6
#    16  16  16  16   8   8
#     4  11  21  34  54  79 106 136 175 216 259 308
#     4   9  16  30  48  67  94 132 172 208 252 304
#     4  10  21  37  54  74 103 138 176 217 261 309
#     4   9  17  30  48  71 100 134 167 204 251 306
#     4   9  17  27  42  68  95 125 167 214 257 294
#     4   9  17  27  43  72 103 128 160 206 254 300
#
# _framework density 16.483467000000001
#
# number of rings (size 3 to 8) (size 9 to 14) (size 15 to 20)
#    0.000    2.400    2.000    1.200    0.000    5.200 
#    0.000    0.500    0.000    3.000    0.000    0.700 
#    0.000    5.600    0.000    0.000    0.000    0.000 
#
# Total GULP energy -223151.626327 kJ/mol
# GULP energy per Si atom -5578.790658 kJ/mol
# Density = 1.644595 g / cm^3
# Si number density = 16.483467 Si / 1000 Ang^3
#
#
#
# Elastic Constant Matrix: (Units=GPa)
#
#
# Indices 1 2 3 4 5 6 
#
# 1 52.6854 49.6101 47.6562 0.0000 0.0000 0.0000
# 2 49.6101 110.1526 96.4745 0.0000 0.0000 0.0000
# 3 47.6562 96.4745 122.5955 0.0000 0.0000 0.0000
# 4 0.0000 0.0000 0.0000 34.8773 0.0000 0.0000
# 5 0.0000 0.0000 0.0000 0.0000 4.2976 0.0000
# 6 0.0000 0.0000 0.0000 0.0000 0.0000 14.6072
#
#
#
# Elastic Compliance Matrix: (Units=1/GPa)
#
#
# Indices 1 2 3 4 5 6 
#
# 1 0.033470 -0.011838 -0.003695 0.000000 0.000000 0.000000
# 2 -0.011838 0.033398 -0.021680 0.000000 0.000000 0.000000
# 3 -0.003695 -0.021680 0.026654 0.000000 0.000000 0.000000
# 4 0.000000 0.000000 0.000000 0.028672 0.000000 0.000000
# 5 0.000000 0.000000 0.000000 0.000000 0.232687 0.000000
# 6 0.000000 0.000000 0.000000 0.000000 0.000000 0.068459
#
#
# Mechanical properties :
#
#
# Convention : Reuss Voigt Hill
#
# Bulk Modulus (GPa) = 52.36792 74.76833 63.56813
# Shear Modulus (GPa) = 9.91806 16.86928 13.39367
#
# Velocity S-wave (km/s) = 2.45561 3.20254 2.85362
# Velocity P-wave (km/s) = 6.31498 7.68981 7.03605
#
# Compressibility (1/GPa) = 0.01909566
#
# Stress axis : x y z
#
# Youngs Moduli (GPa) = 29.87779 29.94212 37.51754
#
# Poissons Ratio (x) = 0.35444 0.13863
# Poissons Ratio (y) = 0.35368 0.81339
# Poissons Ratio (z) = 0.11040 0.64915
#
# Static dielectric constant tensor:
#      x y z
#    x 1.551010 0.000000 0.000000 
#    y 0.000000 1.552140 0.000000 
#    z 0.000000 0.000000 1.537750 
# 
# From -- ./inp_files/10231.got.cif
#   From: 2010.05.17/outbox.cif.g08.bks.cpg/sg71_6_cif.got.tgz:10231.got - 2010.06.03 16:22:01.
