data_PCOD9523628
_publ_section_title
;
Structure prediction by ZEFSAII (Michael W. Deem and Ramdas Pophale) SiO2 
 PCOD9523628
Probable space group: I M M M
;
_chemical_formula_sum "Si O2"
_cell_formula_units_Z 72
_cell_length_a 25.004455
_cell_length_b 8.721894
_cell_length_c 18.304851
_cell_angle_alpha 90.000000
_cell_angle_beta 90.000000
_cell_angle_gamma 90.000000
_cell_volume 3992.035507
_symmetry_space_group_name_H-M "I M M M"
_symmetry_group_IT_number 71
_symmetry_cell_setting 'orthorhombic'
loop_
_space_group_symop_operation_xyz
x,y,z
-x,-y,z
x,-y,-z
-x,y,-z
-x,-y,-z
x,y,-z
-x,y,z
x,-y,z
1/2+x,1/2+y,1/2+z
1/2-x,1/2-y,1/2+z
1/2+x,1/2-y,1/2-z
1/2-x,1/2+y,1/2-z
1/2-x,1/2-y,1/2-z
1/2+x,1/2+y,1/2-z
1/2-x,1/2+y,1/2+z
1/2+x,1/2-y,1/2+z
loop_
_atom_site_type_symbol
_atom_site_label
_atom_site_fract_x
_atom_site_fract_y
_atom_site_fract_z
Si Si1 0.254103 0.182815 0.917600
Si Si2 0.843353 0.815932 0.687301
Si Si3 0.154971 0.326296 0.847649
Si Si4 0.062313 0.500000 0.912360
Si Si5 0.439207 0.686572 0.083109
O O1 0.292000 0.259562 0.857605
O O2 0.193514 0.231106 0.899996
O O3 0.259521 0.000000 0.912933
O O4 0.268570 0.232397 0.000000
O O5 0.845164 0.747718 0.768107
O O6 0.895190 0.763508 0.640945
O O7 0.843044 0.000000 0.691266
O O8 0.177601 0.500000 0.842373
O O9 0.095738 0.356204 0.879856
O O10 0.000000 0.500000 0.892655
O O11 0.067038 0.500000 0.000000
O O12 0.500000 0.734986 0.099934
O O13 0.438939 0.500000 0.083031
O O14 0.426283 0.735156 0.000000
#
# Coordination Sequence:
#
# PCOD9523628 Si02
#       5
#    16  16  16   8  16
#     4  11  23  38  58  83 117 157 198 245 293 348
#     4  11  21  34  55  85 120 157 196 241 293 345
#     4  10  22  37  59  83 115 147 190 239 293 351
#     4   9  20  40  66  90 111 145 194 246 297 356
#     4   8  15  29  49  74 106 147 194 238 279 331
#
# _framework density 18.035910999999999
#
# number of rings (size 3 to 8) (size 9 to 14) (size 15 to 20)
#    0.667    1.444    0.000    4.667    0.000    3.111 
#    0.000    0.000    0.000    2.000    0.000   12.444 
#    0.000    0.000    0.000    0.000    0.000    0.000 
#
# Total GULP energy -200749.416072 kJ/mol
# GULP energy per Si atom -5576.372669 kJ/mol
# Density = 1.799486 g / cm^3
# Si number density = 18.035911 Si / 1000 Ang^3
#
#
#
# Elastic Constant Matrix: (Units=GPa)
#
#
# Indices 1 2 3 4 5 6 
#
# 1 89.1612 5.3218 41.7917 0.0000 0.0000 0.0000
# 2 5.3218 33.2678 24.1762 0.0000 0.0000 0.0000
# 3 41.7917 24.1762 99.0089 0.0000 0.0000 0.0000
# 4 0.0000 0.0000 0.0000 2.2660 0.0000 0.0000
# 5 0.0000 0.0000 0.0000 0.0000 98.8983 0.0000
# 6 0.0000 0.0000 0.0000 0.0000 0.0000 8.5585
#
#
#
# Elastic Compliance Matrix: (Units=1/GPa)
#
#
# Indices 1 2 3 4 5 6 
#
# 1 0.014154 0.002526 -0.006591 0.000000 0.000000 0.000000
# 2 0.002526 0.036995 -0.010100 0.000000 0.000000 0.000000
# 3 -0.006591 -0.010100 0.015348 0.000000 0.000000 0.000000
# 4 0.000000 0.000000 0.000000 0.441309 0.000000 0.000000
# 5 0.000000 0.000000 0.000000 0.000000 0.010111 0.000000
# 6 0.000000 0.000000 0.000000 0.000000 0.000000 0.116842
#
#
# Mechanical properties :
#
#
# Convention : Reuss Voigt Hill
#
# Bulk Modulus (GPa) = 26.20052 40.44634 33.32343
# Shear Modulus (GPa) = 7.39850 31.95444 19.67647
#
# Velocity S-wave (km/s) = 2.02756 4.21374 3.30655
# Velocity P-wave (km/s) = 4.47658 6.79325 5.75274
#
# Compressibility (1/GPa) = 0.03816719
#
# Stress axis : x y z
#
# Youngs Moduli (GPa) = 70.64957 27.03102 65.15336
#
# Poissons Ratio (x) = -0.06827 0.42945
# Poissons Ratio (y) = -0.17844 0.65802
# Poissons Ratio (z) = 0.46567 0.27300
#
# Static dielectric constant tensor:
#      x y z
#    x 1.627430 0.000000 0.000000 
#    y 0.000000 1.605180 0.000000 
#    z 0.000000 0.000000 1.600350 
# 
# From -- ./inp_files/48548.got.cif
#   From: 2010.05.17/outbox.cif.g08.bks.cpg/sg71_25_cif.got.tgz:48548.got - 2010.06.03 16:22:01.
