data_PCOD9523879
_publ_section_title
;
Structure prediction by ZEFSAII (Michael W. Deem and Ramdas Pophale) SiO2 
 PCOD9523879
Probable space group: I M M M
;
_chemical_formula_sum "Si O2"
_cell_formula_units_Z 66
_cell_length_a 32.636781
_cell_length_b 13.993237
_cell_length_c 7.556955
_cell_angle_alpha 90.000000
_cell_angle_beta 90.000000
_cell_angle_gamma 90.000000
_cell_volume 3451.217605
_symmetry_space_group_name_H-M "I M M M"
_symmetry_group_IT_number 71
_symmetry_cell_setting 'orthorhombic'
loop_
_space_group_symop_operation_xyz
x,y,z
-x,-y,z
x,-y,-z
-x,y,-z
-x,-y,-z
x,y,-z
-x,y,z
x,-y,z
1/2+x,1/2+y,1/2+z
1/2-x,1/2-y,1/2+z
1/2+x,1/2-y,1/2-z
1/2-x,1/2+y,1/2-z
1/2-x,1/2-y,1/2-z
1/2+x,1/2+y,1/2-z
1/2-x,1/2+y,1/2+z
1/2+x,1/2-y,1/2+z
loop_
_atom_site_type_symbol
_atom_site_label
_atom_site_fract_x
_atom_site_fract_y
_atom_site_fract_z
Si Si1 0.906129 0.305404 0.705877
Si Si2 0.045195 0.802768 0.000000
Si Si3 0.230228 0.107890 0.214912
Si Si4 0.000000 0.000000 0.000000
Si Si5 0.047566 0.500000 0.213417
Si Si6 0.185987 0.300315 0.706593
O O1 0.904882 0.275285 0.500000
O O2 0.930292 0.231250 0.828302
O O3 0.929413 0.405875 0.720077
O O4 0.859568 0.316357 0.775681
O O5 0.000000 0.753423 0.000000
O O6 0.034947 0.914448 0.000000
O O7 0.199029 0.189636 0.275487
O O8 0.275525 0.139852 0.279636
O O9 0.220761 0.000000 0.270075
O O10 0.230419 0.110691 0.000000
O O11 0.000000 0.500000 0.267421
O O12 0.049237 0.500000 0.000000
O O13 0.183916 0.326183 0.500000
#
# Coordination Sequence:
#
# PCOD9523879 Si02
#       6
#    16   8  16   2   8  16
#     4  11  23  39  64  93 125 164 201 257 305 369
#     4  10  22  45  66  90 123 156 210 252 315 364
#     4   9  18  34  56  79 110 156 197 243 299 357
#     4   8  24  48  70  90 116 170 188 272 314 354
#     4  11  23  39  61  94 128 163 202 245 310 381
#     4   9  20  36  54  82 117 151 198 246 299 353
#
# _framework density 19.123684000000001
#
# number of rings (size 3 to 8) (size 9 to 14) (size 15 to 20)
#    0.364    1.818    1.212    1.091    3.394    2.909 
#    2.182    1.212    0.000    0.000    0.000    0.000 
#    0.000    0.000    0.000    0.000    0.000    0.000 
#
# Total GULP energy -183852.443766 kJ/mol
# GULP energy per Si atom -5571.286175 kJ/mol
# Density = 1.908016 g / cm^3
# Si number density = 19.123684 Si / 1000 Ang^3
#
#
#
# Elastic Constant Matrix: (Units=GPa)
#
#
# Indices 1 2 3 4 5 6 
#
# 1 143.8316 32.4539 11.5355 0.0000 0.0000 0.0000
# 2 32.4539 95.1418 -4.7732 0.0000 0.0000 0.0000
# 3 11.5355 -4.7732 70.9962 0.0000 0.0000 0.0000
# 4 0.0000 0.0000 0.0000 14.8499 0.0000 0.0000
# 5 0.0000 0.0000 0.0000 0.0000 6.6929 0.0000
# 6 0.0000 0.0000 0.0000 0.0000 0.0000 12.2647
#
#
#
# Elastic Compliance Matrix: (Units=1/GPa)
#
#
# Indices 1 2 3 4 5 6 
#
# 1 0.007674 -0.002689 -0.001428 0.000000 0.000000 0.000000
# 2 -0.002689 0.011489 0.001209 0.000000 0.000000 0.000000
# 3 -0.001428 0.001209 0.014399 0.000000 0.000000 0.000000
# 4 0.000000 0.000000 0.000000 0.067340 0.000000 0.000000
# 5 0.000000 0.000000 0.000000 0.000000 0.149413 0.000000
# 6 0.000000 0.000000 0.000000 0.000000 0.000000 0.081535
#
#
# Mechanical properties :
#
#
# Convention : Reuss Voigt Hill
#
# Bulk Modulus (GPa) = 36.04135 43.15576 39.59855
# Shear Modulus (GPa) = 14.41283 24.81172 19.61228
#
# Velocity S-wave (km/s) = 2.74827 3.60590 3.20589
# Velocity P-wave (km/s) = 5.38127 6.32079 5.86985
#
# Compressibility (1/GPa) = 0.02774591
#
# Stress axis : x y z
#
# Youngs Moduli (GPa) = 130.31227 87.04253 69.45150
#
# Poissons Ratio (x) = 0.23408 0.09915
# Poissons Ratio (y) = 0.35044 -0.08399
# Poissons Ratio (z) = 0.18604 -0.10526
#
# Static dielectric constant tensor:
#      x y z
#    x 1.676680 0.000000 0.000000 
#    y 0.000000 1.628570 0.000000 
#    z 0.000000 0.000000 1.701420 
# 
# From -- ./inp_files/14261.got.cif
#   From: 2010.05.17/outbox.cif.g08.bks.cpg/sg71_8_cif.got.tgz:14261.got - 2010.06.03 16:22:01.
