data_PCOD9523701
_publ_section_title
;
Structure prediction by ZEFSAII (Michael W. Deem and Ramdas Pophale) SiO2 
 PCOD9523701
Probable space group: I M M M
;
_chemical_formula_sum "Si O2"
_cell_formula_units_Z 108
_cell_length_a 23.967534
_cell_length_b 13.147858
_cell_length_c 15.059458
_cell_angle_alpha 90.000000
_cell_angle_beta 90.000000
_cell_angle_gamma 90.000000
_cell_volume 4745.562513
_symmetry_space_group_name_H-M "I M M M"
_symmetry_group_IT_number 71
_symmetry_cell_setting 'orthorhombic'
loop_
_space_group_symop_operation_xyz
x,y,z
-x,-y,z
x,-y,-z
-x,y,-z
-x,-y,-z
x,y,-z
-x,y,z
x,-y,z
1/2+x,1/2+y,1/2+z
1/2-x,1/2-y,1/2+z
1/2+x,1/2-y,1/2-z
1/2-x,1/2+y,1/2-z
1/2-x,1/2-y,1/2-z
1/2+x,1/2+y,1/2-z
1/2-x,1/2+y,1/2+z
1/2+x,1/2-y,1/2+z
loop_
_atom_site_type_symbol
_atom_site_label
_atom_site_fract_x
_atom_site_fract_y
_atom_site_fract_z
Si Si1 0.220892 0.886348 0.830664
Si Si2 0.883655 0.201738 0.398109
Si Si3 0.434424 0.500000 0.897683
Si Si4 0.789116 0.500000 0.000000
Si Si5 0.754830 0.831512 0.629707
Si Si6 0.400253 0.609700 0.396659
Si Si7 0.567369 0.114438 0.790149
Si Si8 0.935610 0.336141 0.096993
O O1 0.244484 0.864782 0.732713
O O2 0.237027 0.785368 0.883781
O O3 0.153671 0.885599 0.834208
O O4 0.238190 0.000000 0.860718
O O5 0.902743 0.217171 0.500000
O O6 0.819487 0.168564 0.398511
O O7 0.898316 0.302184 0.343902
O O8 0.915068 0.105053 0.356338
O O9 0.500000 0.500000 0.902530
O O10 0.411532 0.500000 0.000000
O O11 0.781624 0.410549 0.923935
O O12 0.380451 0.608387 0.500000
O O13 0.428845 0.500000 0.381955
O O14 0.433709 0.714102 0.390097
O O15 0.500000 0.136991 0.792329
O O16 0.587225 0.118212 0.687506
O O17 0.574769 0.000000 0.824347
O O18 0.000000 0.368782 0.092844
O O19 0.910176 0.361860 0.000000
#
# Coordination Sequence:
#
# PCOD9523701 Si02
#       8
#    16  16   8   4  16  16  16  16
#     4  10  22  40  61  88 123 163 203 254 311 369
#     4  11  22  37  62  91 122 160 201 246 302 363
#     4   9  19  35  58  90 125 156 197 249 296 355
#     4  12  22  42  66  92 119 156 201 250 314 370
#     4  11  23  39  64  92 122 160 204 256 308 370
#     4   9  18  33  56  84 116 152 190 239 303 371
#     4  10  22  39  57  81 118 161 205 251 300 361
#     4   9  18  35  59  85 114 151 201 256 311 370
#
# _framework density 22.758102000000001
#
# number of rings (size 3 to 8) (size 9 to 14) (size 15 to 20)
#    0.000    2.000    1.481    1.778    2.074    2.370 
#    1.333    3.704    1.630    0.000    0.000    0.000 
#    0.000    0.000    0.000    0.000    0.000    0.000 
#
# Total GULP energy -301019.676027 kJ/mol
# GULP energy per Si atom -5574.438445 kJ/mol
# Density = 2.270630 g / cm^3
# Si number density = 22.758102 Si / 1000 Ang^3
#
#
#
# Elastic Constant Matrix: (Units=GPa)
#
#
# Indices 1 2 3 4 5 6 
#
# 1 31.6605 5.0895 -5.2500 0.0000 0.0000 0.0000
# 2 5.0895 146.6539 25.1314 0.0000 0.0000 0.0000
# 3 -5.2500 25.1314 61.2296 0.0000 0.0000 0.0000
# 4 0.0000 0.0000 0.0000 44.2996 0.0000 0.0000
# 5 0.0000 0.0000 0.0000 0.0000 11.3253 0.0000
# 6 0.0000 0.0000 0.0000 0.0000 0.0000 25.0986
#
#
#
# Elastic Compliance Matrix: (Units=1/GPa)
#
#
# Indices 1 2 3 4 5 6 
#
# 1 0.032441 -0.001724 0.003489 0.000000 0.000000 0.000000
# 2 -0.001724 0.007426 -0.003196 0.000000 0.000000 0.000000
# 3 0.003489 -0.003196 0.017943 0.000000 0.000000 0.000000
# 4 0.000000 0.000000 0.000000 0.022574 0.000000 0.000000
# 5 0.000000 0.000000 0.000000 0.000000 0.088298 0.000000
# 6 0.000000 0.000000 0.000000 0.000000 0.000000 0.039843
#
#
# Mechanical properties :
#
#
# Convention : Reuss Voigt Hill
#
# Bulk Modulus (GPa) = 18.19875 32.16509 25.18192
# Shear Modulus (GPa) = 21.76739 30.44958 26.10848
#
# Velocity S-wave (km/s) = 3.09604 3.66179 3.39073
# Velocity P-wave (km/s) = 4.56010 5.66060 5.13989
#
# Compressibility (1/GPa) = 0.05494882
#
# Stress axis : x y z
#
# Youngs Moduli (GPa) = 30.82538 134.65724 55.73244
#
# Poissons Ratio (x) = 0.23211 -0.19445
# Poissons Ratio (y) = 0.05314 0.17811
# Poissons Ratio (z) = -0.10755 0.43035
#
# Static dielectric constant tensor:
#      x y z
#    x 1.857170 0.000000 0.000000 
#    y 0.000000 1.821720 0.000000 
#    z 0.000000 0.000000 1.881640 
# 
# From -- ./inp_files/33315.got.cif
#   From: 2010.05.17/outbox.cif.g08.bks.cpg/sg71_17_cif.got.tgz:33315.got - 2010.06.03 16:22:01.
