data_PCOD9523385
_publ_section_title
;
Structure prediction by ZEFSAII (Michael W. Deem and Ramdas Pophale) SiO2 
 PCOD9523385
Probable space group: I M M M
;
_chemical_formula_sum "Si O2"
_cell_formula_units_Z 88
_cell_length_a 15.596863
_cell_length_b 14.159262
_cell_length_c 19.223918
_cell_angle_alpha 90.000000
_cell_angle_beta 90.000000
_cell_angle_gamma 90.000000
_cell_volume 4245.411389
_symmetry_space_group_name_H-M "I M M M"
_symmetry_group_IT_number 71
_symmetry_cell_setting 'orthorhombic'
loop_
_space_group_symop_operation_xyz
x,y,z
-x,-y,z
x,-y,-z
-x,y,-z
-x,-y,-z
x,y,-z
-x,y,z
x,-y,z
1/2+x,1/2+y,1/2+z
1/2-x,1/2-y,1/2+z
1/2+x,1/2-y,1/2-z
1/2-x,1/2+y,1/2-z
1/2-x,1/2-y,1/2-z
1/2+x,1/2+y,1/2-z
1/2-x,1/2+y,1/2+z
1/2+x,1/2-y,1/2+z
loop_
_atom_site_type_symbol
_atom_site_label
_atom_site_fract_x
_atom_site_fract_y
_atom_site_fract_z
Si Si1 0.097731 0.395828 0.287287
Si Si2 0.715686 0.603542 0.659616
Si Si3 0.095558 0.819700 0.272195
Si Si4 0.171393 0.293225 0.081945
Si Si5 0.000000 0.606852 0.084507
Si Si6 0.353110 0.612400 0.080486
O O1 0.104436 0.500000 0.251062
O O2 0.181229 0.395963 0.336226
O O3 0.106515 0.291347 0.254720
O O4 0.000000 0.394357 0.316379
O O5 0.688242 0.500000 0.634829
O O6 0.670986 0.622569 0.734552
O O7 0.686984 0.692024 0.615009
O O8 0.101067 0.835468 0.355430
O O9 0.000000 0.849305 0.248909
O O10 0.085270 0.341615 0.108111
O O11 0.253307 0.360817 0.090952
O O12 0.161115 0.279675 0.000000
O O13 0.000000 0.500000 0.108206
O O14 0.000000 0.605578 0.000000
O O15 0.366575 0.500000 0.086844
O O16 0.375893 0.638817 0.000000
#
# Coordination Sequence:
#
# PCOD9523385 Si02
#       6
#    16  16  16  16   8  16
#     4   9  19  38  63  88 116 155 203 256 308 361
#     4  11  23  39  62  89 124 164 205 255 305 364
#     4  11  23  40  62  88 125 163 201 249 304 365
#     4  10  21  38  60  88 121 161 206 254 308 363
#     4   9  18  36  61  87 119 159 207 260 306 354
#     4  10  21  38  61  88 119 155 198 251 309 369
#
# _framework density 20.728262000000001
#
# number of rings (size 3 to 8) (size 9 to 14) (size 15 to 20)
#    0.000    1.909    1.818    1.636    1.273    4.364 
#    0.000    1.818    0.000    2.727    0.000    5.091 
#    0.000    0.000    0.000    0.000    0.000    0.000 
#
# Total GULP energy -245295.063564 kJ/mol
# GULP energy per Si atom -5574.887808 kJ/mol
# Density = 2.068108 g / cm^3
# Si number density = 20.728262 Si / 1000 Ang^3
#
#
#
# Elastic Constant Matrix: (Units=GPa)
#
#
# Indices 1 2 3 4 5 6 
#
# 1 104.9329 46.5156 18.7596 0.0000 0.0000 0.0000
# 2 46.5156 135.5344 34.1525 0.0000 0.0000 0.0000
# 3 18.7596 34.1525 71.1244 0.0000 0.0000 0.0000
# 4 0.0000 0.0000 0.0000 24.1520 0.0000 0.0000
# 5 0.0000 0.0000 0.0000 0.0000 -6.1482 0.0000
# 6 0.0000 0.0000 0.0000 0.0000 0.0000 79.0640
#
#
#
# Elastic Compliance Matrix: (Units=1/GPa)
#
#
# Indices 1 2 3 4 5 6 
#
# 1 0.011341 -0.003570 -0.001277 0.000000 0.000000 0.000000
# 2 -0.003570 0.009518 -0.003629 0.000000 0.000000 0.000000
# 3 -0.001277 -0.003629 0.016139 0.000000 0.000000 0.000000
# 4 0.000000 0.000000 0.000000 0.041404 0.000000 0.000000
# 5 0.000000 0.000000 0.000000 0.000000 -0.162650 0.000000
# 6 0.000000 0.000000 0.000000 0.000000 0.000000 0.012648
#
#
# Mechanical properties :
#
#
# Convention : Reuss Voigt Hill
#
# Bulk Modulus (GPa) = 49.88486 56.71636 53.30061
# Shear Modulus (GPa) = -104.24062 33.55783 -35.34139
#
# Velocity S-wave (km/s) = -7.09918 4.02797 -4.13363
# Velocity P-wave (km/s) = 6.56349 7.00386 1.72838
#
# Compressibility (1/GPa) = 0.02004616
#
# Stress axis : x y z
#
# Youngs Moduli (GPa) = 88.17633 105.06470 61.96173
#
# Poissons Ratio (x) = 0.37513 0.07911
# Poissons Ratio (y) = 0.31483 0.22483
# Poissons Ratio (z) = 0.11258 0.38124
#
# Static dielectric constant tensor:
#      x y z
#    x 1.747850 0.000000 0.000000 
#    y 0.000000 1.726240 0.000000 
#    z 0.000000 0.000000 1.770290 
# 
# From -- ./inp_files/52922.got.cif
#   From: 2010.05.17/outbox.cif.g08.bks.cpg/sg71_27_cif.got.tgz:52922.got - 2010.06.03 16:22:01.
