data_PCOD9523972
_publ_section_title
;
Structure prediction by ZEFSAII (Michael W. Deem and Ramdas Pophale) SiO2 
 PCOD9523972
Probable space group: I M M M
;
_chemical_formula_sum "Si O2"
_cell_formula_units_Z 66
_cell_length_a 15.544113
_cell_length_b 8.034933
_cell_length_c 25.963101
_cell_angle_alpha 90.000000
_cell_angle_beta 90.000000
_cell_angle_gamma 90.000000
_cell_volume 3242.685035
_symmetry_space_group_name_H-M "I M M M"
_symmetry_group_IT_number 71
_symmetry_cell_setting 'orthorhombic'
loop_
_space_group_symop_operation_xyz
x,y,z
-x,-y,z
x,-y,-z
-x,y,-z
-x,-y,-z
x,y,-z
-x,y,z
x,-y,z
1/2+x,1/2+y,1/2+z
1/2-x,1/2-y,1/2+z
1/2+x,1/2-y,1/2-z
1/2-x,1/2+y,1/2-z
1/2-x,1/2-y,1/2-z
1/2+x,1/2+y,1/2-z
1/2-x,1/2+y,1/2+z
1/2+x,1/2-y,1/2+z
loop_
_atom_site_type_symbol
_atom_site_label
_atom_site_fract_x
_atom_site_fract_y
_atom_site_fract_z
Si Si1 0.500000 0.000000 0.500000
Si Si2 0.500000 0.300270 0.585379
Si Si3 0.675865 0.309962 0.352266
Si Si4 0.857156 0.808337 0.361510
Si Si5 0.901880 0.305405 0.751034
Si Si6 0.500000 0.296784 0.941350
O O1 0.500000 0.848420 0.544123
O O2 0.500000 0.500000 0.568647
O O3 0.414164 0.277484 0.619548
O O4 0.700260 0.500000 0.361877
O O5 0.755858 0.203473 0.371861
O O6 0.659468 0.284164 0.291581
O O7 0.875714 0.715732 0.308119
O O8 0.916565 0.746289 0.408121
O O9 0.881241 0.000000 0.352361
O O10 0.900091 0.500000 0.764364
O O11 0.000000 0.243328 0.756853
O O12 0.500000 0.500000 0.943857
O O13 0.500000 0.235942 0.000000
#
# Coordination Sequence:
#
# PCOD9523972 Si02
#       6
#     2   8  16  16  16   8
#     4  12  26  44  80  90 132 174 226 276 334 394
#     4  10  25  46  68  98 133 172 218 276 334 392
#     4  11  23  41  64  93 131 167 209 266 323 387
#     4  11  22  38  63  92 127 165 214 260 322 390
#     4  11  22  36  61  92 129 167 210 257 320 396
#     4   9  20  41  63  89 121 160 209 270 316 368
#
# _framework density 20.353504000000001
#
# number of rings (size 3 to 8) (size 9 to 14) (size 15 to 20)
#    0.000    1.333    2.424    3.091    3.394    0.970 
#    2.182    0.000    0.000    5.091    0.000    0.000 
#    0.000    0.000    0.000    0.000    0.000    0.000 
#
# Total GULP energy -184065.944949 kJ/mol
# GULP energy per Si atom -5577.755908 kJ/mol
# Density = 2.030718 g / cm^3
# Si number density = 20.353504 Si / 1000 Ang^3
#
#
#
# Elastic Constant Matrix: (Units=GPa)
#
#
# Indices 1 2 3 4 5 6 
#
# 1 126.5418 10.5546 48.6195 0.0000 0.0000 0.0000
# 2 10.5546 50.6151 26.7186 0.0000 0.0000 0.0000
# 3 48.6195 26.7186 131.3985 0.0000 0.0000 0.0000
# 4 0.0000 0.0000 0.0000 28.4368 0.0000 0.0000
# 5 0.0000 0.0000 0.0000 0.0000 9.3339 0.0000
# 6 0.0000 0.0000 0.0000 0.0000 0.0000 19.4281
#
#
#
# Elastic Compliance Matrix: (Units=1/GPa)
#
#
# Indices 1 2 3 4 5 6 
#
# 1 0.009213 -0.000136 -0.003381 0.000000 0.000000 0.000000
# 2 -0.000136 0.022135 -0.004450 0.000000 0.000000 0.000000
# 3 -0.003381 -0.004450 0.009767 0.000000 0.000000 0.000000
# 4 0.000000 0.000000 0.000000 0.035166 0.000000 0.000000
# 5 0.000000 0.000000 0.000000 0.000000 0.107136 0.000000
# 6 0.000000 0.000000 0.000000 0.000000 0.000000 0.051472
#
#
# Mechanical properties :
#
#
# Convention : Reuss Voigt Hill
#
# Bulk Modulus (GPa) = 39.71684 53.37121 46.54403
# Shear Modulus (GPa) = 19.28890 26.28394 22.78642
#
# Velocity S-wave (km/s) = 3.08180 3.59746 3.34957
# Velocity P-wave (km/s) = 5.67620 6.59808 6.15443
#
# Compressibility (1/GPa) = 0.02517823
#
# Stress axis : x y z
#
# Youngs Moduli (GPa) = 108.54193 45.17807 102.39072
#
# Poissons Ratio (x) = 0.00616 0.34621
# Poissons Ratio (y) = 0.01479 0.45568
# Poissons Ratio (z) = 0.36701 0.20106
#
# Static dielectric constant tensor:
#      x y z
#    x 1.742660 0.000000 0.000000 
#    y 0.000000 1.711670 0.000000 
#    z 0.000000 0.000000 1.694460 
# 
# From -- ./inp_files/14252.got.cif
#   From: 2010.05.17/outbox.cif.g08.bks.cpg/sg71_8_cif.got.tgz:14252.got - 2010.06.03 16:22:01.
