data_PCOD9523201
_publ_section_title
;
Structure prediction by ZEFSAII (Michael W. Deem and Ramdas Pophale) SiO2 
 PCOD9523201
Probable space group: I M M M
;
_chemical_formula_sum "Si O2"
_cell_formula_units_Z 104
_cell_length_a 13.798757
_cell_length_b 22.760089
_cell_length_c 18.880090
_cell_angle_alpha 90.000000
_cell_angle_beta 90.000000
_cell_angle_gamma 90.000000
_cell_volume 5929.498764
_symmetry_space_group_name_H-M "I M M M"
_symmetry_group_IT_number 71
_symmetry_cell_setting 'orthorhombic'
loop_
_space_group_symop_operation_xyz
x,y,z
-x,-y,z
x,-y,-z
-x,y,-z
-x,-y,-z
x,y,-z
-x,y,z
x,-y,z
1/2+x,1/2+y,1/2+z
1/2-x,1/2-y,1/2+z
1/2+x,1/2-y,1/2-z
1/2-x,1/2+y,1/2-z
1/2-x,1/2-y,1/2-z
1/2+x,1/2+y,1/2-z
1/2-x,1/2+y,1/2+z
1/2+x,1/2-y,1/2+z
loop_
_atom_site_type_symbol
_atom_site_label
_atom_site_fract_x
_atom_site_fract_y
_atom_site_fract_z
Si Si1 0.382590 0.570998 0.000000
Si Si2 0.107345 0.067269 0.730264
Si Si3 0.886139 0.719186 0.844795
Si Si4 0.706292 0.354022 0.870318
Si Si5 0.229237 0.820101 0.919974
Si Si6 0.389688 0.566737 0.399844
Si Si7 0.386058 0.768807 0.824213
O O1 0.336451 0.605764 0.933046
O O2 0.362448 0.500000 0.000000
O O3 0.500000 0.577071 0.000000
O O4 0.190256 0.107118 0.699189
O O5 0.109532 0.067635 0.814504
O O6 0.000000 0.089042 0.707534
O O7 0.115765 0.000000 0.705736
O O8 0.816608 0.668115 0.875153
O O9 0.852096 0.777905 0.885233
O O10 0.866376 0.727735 0.760390
O O11 0.000000 0.708688 0.853950
O O12 0.645773 0.294298 0.856159
O O13 0.185742 0.884885 0.923103
O O14 0.320924 0.814265 0.868254
O O15 0.252236 0.799886 0.000000
O O16 0.500000 0.580741 0.421810
O O17 0.367918 0.500000 0.421132
O O18 0.500000 0.777698 0.834099
#
# Coordination Sequence:
#
# PCOD9523201 Si02
#       7
#     8  16  16  16  16  16  16
#     4  11  24  38  53  81 119 153 187 228 280 342
#     4   9  16  28  50  77 102 132 174 222 269 317
#     4  10  22  38  56  80 108 144 187 229 276 327
#     4  11  20  33  54  79 107 146 181 224 277 327
#     4  11  22  34  52  80 110 142 174 216 272 327
#     4   9  18  32  51  76 105 138 175 215 262 318
#     4  10  21  37  58  81 108 141 182 232 279 329
#
# _framework density 17.539425000000001
#
# number of rings (size 3 to 8) (size 9 to 14) (size 15 to 20)
#    0.000    1.923    0.000    6.923    4.308    5.538 
#    0.000    0.769    0.000    2.769    0.000    7.538 
#    0.000    0.000    0.000    0.000    0.000    0.000 
#
# Total GULP energy -290104.666777 kJ/mol
# GULP energy per Si atom -5578.935900 kJ/mol
# Density = 1.749950 g / cm^3
# Si number density = 17.539425 Si / 1000 Ang^3
#
#
#
# Elastic Constant Matrix: (Units=GPa)
#
#
# Indices 1 2 3 4 5 6 
#
# 1 107.9521 45.0619 34.0999 0.0000 0.0000 0.0000
# 2 45.0619 79.7394 32.7596 0.0000 0.0000 0.0000
# 3 34.0999 32.7596 88.6678 0.0000 0.0000 0.0000
# 4 0.0000 0.0000 0.0000 -166.8917 0.0000 0.0000
# 5 0.0000 0.0000 0.0000 0.0000 -10.6743 0.0000
# 6 0.0000 0.0000 0.0000 0.0000 0.0000 24.1560
#
#
#
# Elastic Compliance Matrix: (Units=1/GPa)
#
#
# Indices 1 2 3 4 5 6 
#
# 1 0.012617 -0.006056 -0.002615 0.000000 0.000000 0.000000
# 2 -0.006056 0.017692 -0.004207 0.000000 0.000000 0.000000
# 3 -0.002615 -0.004207 0.013838 0.000000 0.000000 0.000000
# 4 0.000000 0.000000 0.000000 -0.005992 0.000000 0.000000
# 5 0.000000 0.000000 0.000000 0.000000 -0.093683 0.000000
# 6 0.000000 0.000000 0.000000 0.000000 0.000000 0.041398
#
#
# Mechanical properties :
#
#
# Convention : Reuss Voigt Hill
#
# Bulk Modulus (GPa) = 54.37562 55.57801 54.97681
# Shear Modulus (GPa) = 281.58847 -19.71946 130.93451
#
# Velocity S-wave (km/s) = 12.68442 -3.35669 8.64949
# Velocity P-wave (km/s) = 15.67148 4.09062 11.45269
#
# Compressibility (1/GPa) = 0.01839060
#
# Stress axis : x y z
#
# Youngs Moduli (GPa) = 79.25657 56.52365 72.26375
#
# Poissons Ratio (x) = 0.34230 0.18896
# Poissons Ratio (y) = 0.47997 0.30405
# Poissons Ratio (z) = 0.20725 0.23782
#
# Static dielectric constant tensor:
#      x y z
#    x 1.585940 0.000000 0.000000 
#    y 0.000000 1.608310 0.000000 
#    z 0.000000 0.000000 1.651720 
# 
# From -- ./inp_files/44943.got.cif
#   From: 2010.05.17/outbox.cif.g08.bks.cpg/sg71_23_cif.got.tgz:44943.got - 2010.06.03 16:22:01.
