data_PCOD9523580
_publ_section_title
;
Structure prediction by ZEFSAII (Michael W. Deem and Ramdas Pophale) SiO2 
 PCOD9523580
Probable space group: I M M M
;
_chemical_formula_sum "Si O2"
_cell_formula_units_Z 42
_cell_length_a 7.906291
_cell_length_b 33.071360
_cell_length_c 9.025571
_cell_angle_alpha 90.000000
_cell_angle_beta 90.000000
_cell_angle_gamma 90.000000
_cell_volume 2359.932259
_symmetry_space_group_name_H-M "I M M M"
_symmetry_group_IT_number 71
_symmetry_cell_setting 'orthorhombic'
loop_
_space_group_symop_operation_xyz
x,y,z
-x,-y,z
x,-y,-z
-x,y,-z
-x,-y,-z
x,y,-z
-x,y,z
x,-y,z
1/2+x,1/2+y,1/2+z
1/2-x,1/2-y,1/2+z
1/2+x,1/2-y,1/2-z
1/2-x,1/2+y,1/2-z
1/2-x,1/2-y,1/2-z
1/2+x,1/2+y,1/2-z
1/2-x,1/2+y,1/2+z
1/2+x,1/2-y,1/2+z
loop_
_atom_site_type_symbol
_atom_site_label
_atom_site_fract_x
_atom_site_fract_y
_atom_site_fract_z
Si Si1 0.808734 0.125635 0.176690
Si Si2 0.500000 0.083691 0.663440
Si Si3 0.000000 0.500000 0.000000
Si Si4 0.797575 0.707991 0.172764
O O1 0.666296 0.097855 0.250501
O O2 0.785912 0.170372 0.243590
O O3 0.000000 0.111442 0.207811
O O4 0.784975 0.127205 0.000000
O O5 0.500000 0.104491 0.500000
O O6 0.500000 0.036301 0.626402
O O7 0.750000 0.750000 0.250000
O O8 0.000000 0.702791 0.181347
O O9 0.747990 0.708625 0.000000
#
# Coordination Sequence:
#
# PCOD9523580 Si02
#       4
#    16   8   2  16
#     4  11  23  39  63  94 128 170 215 261 322 390
#     4  10  21  43  67  95 123 162 210 263 329 384
#     4   8  24  44  72 100 128 158 218 276 326 416
#     4  11  23  37  55  85 125 171 222 270 315 371
#
# _framework density 17.797121000000001
#
# number of rings (size 3 to 8) (size 9 to 14) (size 15 to 20)
#    0.571    0.762    1.905    4.000    0.000    9.905 
#    0.000    3.810    0.000    2.286    0.000    0.000 
#    0.000    0.000    0.000    0.000    0.000    0.000 
#
# Total GULP energy -117037.367121 kJ/mol
# GULP energy per Si atom -5573.207958 kJ/mol
# Density = 1.775661 g / cm^3
# Si number density = 17.797121 Si / 1000 Ang^3
#
#
#
# Elastic Constant Matrix: (Units=GPa)
#
#
# Indices 1 2 3 4 5 6 
#
# 1 136.7974 65.2458 90.6065 0.0000 0.0000 0.0000
# 2 65.2458 138.4173 59.0811 0.0000 0.0000 0.0000
# 3 90.6065 59.0811 134.6663 0.0000 0.0000 0.0000
# 4 0.0000 0.0000 0.0000 37.4349 0.0000 0.0000
# 5 0.0000 0.0000 0.0000 0.0000 25.3916 0.0000
# 6 0.0000 0.0000 0.0000 0.0000 0.0000 5.5137
#
#
#
# Elastic Compliance Matrix: (Units=1/GPa)
#
#
# Indices 1 2 3 4 5 6 
#
# 1 0.014274 -0.003235 -0.008185 0.000000 0.000000 0.000000
# 2 -0.003235 0.009622 -0.002045 0.000000 0.000000 0.000000
# 3 -0.008185 -0.002045 0.013830 0.000000 0.000000 0.000000
# 4 0.000000 0.000000 0.000000 0.026713 0.000000 0.000000
# 5 0.000000 0.000000 0.000000 0.000000 0.039383 0.000000
# 6 0.000000 0.000000 0.000000 0.000000 0.000000 0.181366
#
#
# Mechanical properties :
#
#
# Convention : Reuss Voigt Hill
#
# Bulk Modulus (GPa) = 92.61870 93.30533 92.96202
# Shear Modulus (GPa) = 15.83699 26.66454 21.25077
#
# Velocity S-wave (km/s) = 2.98629 3.87492 3.45926
# Velocity P-wave (km/s) = 8.00281 8.51828 8.26456
#
# Compressibility (1/GPa) = 0.01079696
#
# Stress axis : x y z
#
# Youngs Moduli (GPa) = 70.05756 103.92616 72.30780
#
# Poissons Ratio (x) = 0.33619 0.59181
# Poissons Ratio (y) = 0.22663 0.14787
# Poissons Ratio (z) = 0.57340 0.21253
#
# Static dielectric constant tensor:
#      x y z
#    x 1.622020 0.000000 0.000000 
#    y 0.000000 1.566740 0.000000 
#    z 0.000000 0.000000 1.605400 
# 
# From -- ./inp_files/2113.got.cif
#   From: 2010.05.17/outbox.cif.g08.bks.cpg/sg71_2_cif.got.tgz:2113.got - 2010.06.03 16:22:01.
