data_PCOD9523957
_publ_section_title
;
Structure prediction by ZEFSAII (Michael W. Deem and Ramdas Pophale) SiO2 
 PCOD9523957
Probable space group: I M M M
;
_chemical_formula_sum "Si O2"
_cell_formula_units_Z 66
_cell_length_a 7.837783
_cell_length_b 16.416594
_cell_length_c 26.137652
_cell_angle_alpha 90.000000
_cell_angle_beta 90.000000
_cell_angle_gamma 90.000000
_cell_volume 3363.123877
_symmetry_space_group_name_H-M "I M M M"
_symmetry_group_IT_number 71
_symmetry_cell_setting 'orthorhombic'
loop_
_space_group_symop_operation_xyz
x,y,z
-x,-y,z
x,-y,-z
-x,y,-z
-x,-y,-z
x,y,-z
-x,y,z
x,-y,z
1/2+x,1/2+y,1/2+z
1/2-x,1/2-y,1/2+z
1/2+x,1/2-y,1/2-z
1/2-x,1/2+y,1/2-z
1/2-x,1/2-y,1/2-z
1/2+x,1/2+y,1/2-z
1/2-x,1/2+y,1/2+z
1/2+x,1/2-y,1/2+z
loop_
_atom_site_type_symbol
_atom_site_label
_atom_site_fract_x
_atom_site_fract_y
_atom_site_fract_z
Si Si1 0.188108 0.595670 0.151350
Si Si2 0.703178 0.344013 0.258271
Si Si3 0.500000 0.500000 0.000000
Si Si4 0.699809 0.597834 0.371883
Si Si5 0.500000 0.647734 0.084174
Si Si6 0.500000 0.165951 0.941728
O O1 0.199607 0.500000 0.139304
O O2 0.212672 0.607278 0.211850
O O3 0.335137 0.640501 0.120601
O O4 0.000000 0.625853 0.136946
O O5 0.500000 0.354753 0.253681
O O6 0.750000 0.250000 0.250000
O O7 0.750919 0.372751 0.314924
O O8 0.500000 0.427412 0.955359
O O9 0.500000 0.621033 0.380298
O O10 0.709195 0.500000 0.373497
O O11 0.832127 0.634937 0.411979
O O12 0.500000 0.736086 0.059069
O O13 0.500000 0.136343 0.000000
#
# Coordination Sequence:
#
# PCOD9523957 Si02
#       6
#    16  16   2  16   8   8
#     4  11  23  39  64  96 132 170 218 270 332 407
#     4  11  22  37  61  97 137 176 213 268 333 406
#     4  12  24  48  78  92 138 194 236 276 344 408
#     4  10  24  45  67  96 137 178 224 276 340 405
#     4  12  24  47  70  98 136 179 227 285 341 400
#     4  12  27  44  70 100 128 176 231 289 338 398
#
# _framework density 19.624611000000002
#
# number of rings (size 3 to 8) (size 9 to 14) (size 15 to 20)
#    0.000    0.970    3.030    3.273    3.394    5.333 
#    0.000    2.424    0.000    0.000    0.000    0.000 
#    0.000    0.000    0.000    0.000    0.000    0.000 
#
# Total GULP energy -184278.109066 kJ/mol
# GULP energy per Si atom -5584.185123 kJ/mol
# Density = 1.957994 g / cm^3
# Si number density = 19.624611 Si / 1000 Ang^3
#
#
#
# Elastic Constant Matrix: (Units=GPa)
#
#
# Indices 1 2 3 4 5 6 
#
# 1 129.3218 31.6225 76.2526 0.0000 0.0000 0.0000
# 2 31.6225 81.3725 36.1436 0.0000 0.0000 0.0000
# 3 76.2526 36.1436 145.6654 0.0000 0.0000 0.0000
# 4 0.0000 0.0000 0.0000 35.1543 0.0000 0.0000
# 5 0.0000 0.0000 0.0000 0.0000 20.2189 0.0000
# 6 0.0000 0.0000 0.0000 0.0000 0.0000 9.1362
#
#
#
# Elastic Compliance Matrix: (Units=1/GPa)
#
#
# Indices 1 2 3 4 5 6 
#
# 1 0.011471 -0.002012 -0.005505 0.000000 0.000000 0.000000
# 2 -0.002012 0.014164 -0.002461 0.000000 0.000000 0.000000
# 3 -0.005505 -0.002461 0.010358 0.000000 0.000000 0.000000
# 4 0.000000 0.000000 0.000000 0.028446 0.000000 0.000000
# 5 0.000000 0.000000 0.000000 0.000000 0.049459 0.000000
# 6 0.000000 0.000000 0.000000 0.000000 0.000000 0.109455
#
#
# Mechanical properties :
#
#
# Convention : Reuss Voigt Hill
#
# Bulk Modulus (GPa) = 62.36329 71.59968 66.98149
# Shear Modulus (GPa) = 20.10815 27.05794 23.58304
#
# Velocity S-wave (km/s) = 3.20447 3.71722 3.47033
# Velocity P-wave (km/s) = 6.74823 7.41535 7.08964
#
# Compressibility (1/GPa) = 0.01603507
#
# Stress axis : x y z
#
# Youngs Moduli (GPa) = 87.17682 70.59962 96.54642
#
# Poissons Ratio (x) = 0.14207 0.53153
# Poissons Ratio (y) = 0.17543 0.23761
# Poissons Ratio (z) = 0.47995 0.17376
#
# Static dielectric constant tensor:
#      x y z
#    x 1.693120 0.000000 0.000000 
#    y 0.000000 1.690270 0.000000 
#    z 0.000000 0.000000 1.656930 
# 
# From -- ./inp_files/62823.got.cif
#   From: 2010.05.17/outbox.cif.g08.bks.cpg/sg71_32_cif.got.tgz:62823.got - 2010.06.03 16:22:01.
