data_PCOD9523600
_publ_section_title
;
Structure prediction by ZEFSAII (Michael W. Deem and Ramdas Pophale) SiO2 
 PCOD9523600
Probable space group: I M M M
;
_chemical_formula_sum "Si O2"
_cell_formula_units_Z 96
_cell_length_a 14.300150
_cell_length_b 27.836385
_cell_length_c 13.324531
_cell_angle_alpha 90.000000
_cell_angle_beta 90.000000
_cell_angle_gamma 90.000000
_cell_volume 5304.022517
_symmetry_space_group_name_H-M "I M M M"
_symmetry_group_IT_number 71
_symmetry_cell_setting 'orthorhombic'
loop_
_space_group_symop_operation_xyz
x,y,z
-x,-y,z
x,-y,-z
-x,y,-z
-x,-y,-z
x,y,-z
-x,y,z
x,-y,z
1/2+x,1/2+y,1/2+z
1/2-x,1/2-y,1/2+z
1/2+x,1/2-y,1/2-z
1/2-x,1/2+y,1/2-z
1/2-x,1/2-y,1/2-z
1/2+x,1/2+y,1/2-z
1/2-x,1/2+y,1/2+z
1/2+x,1/2-y,1/2+z
loop_
_atom_site_type_symbol
_atom_site_label
_atom_site_fract_x
_atom_site_fract_y
_atom_site_fract_z
Si Si1 0.889463 0.095538 0.262124
Si Si2 0.299250 0.894488 0.188930
Si Si3 0.605423 0.057214 0.000000
Si Si4 0.110715 0.298056 0.378369
Si Si5 0.387565 0.500000 0.111767
Si Si6 0.612722 0.057084 0.615956
Si Si7 0.112950 0.191530 0.387005
O O1 0.811608 0.097270 0.177021
O O2 0.867036 0.048595 0.328705
O O3 0.869056 0.144349 0.323219
O O4 0.000000 0.094198 0.236204
O O5 0.329995 0.839554 0.173202
O O6 0.335024 0.913610 0.297029
O O7 0.348102 0.923921 0.100770
O O8 0.500000 0.076106 0.000000
O O9 0.605113 0.000000 0.000000
O O10 0.119482 0.301320 0.500000
O O11 0.141834 0.244095 0.348878
O O12 0.000000 0.304224 0.355360
O O13 0.500000 0.500000 0.102269
O O14 0.346632 0.500000 0.000000
O O15 0.636541 0.070012 0.500000
O O16 0.500000 0.063179 0.627107
O O17 0.632280 0.000000 0.628559
O O18 0.149254 0.184922 0.500000
O O19 0.000000 0.194745 0.393448
#
# Coordination Sequence:
#
# PCOD9523600 Si02
#       7
#    16  16   8  16   8  16  16
#     4  10  22  36  51  78 114 150 190 233 277 335
#     4  12  22  34  58  83 113 148 190 237 283 335
#     4  11  24  40  61  87 113 141 188 247 294 334
#     4   9  17  32  56  85 111 138 182 243 294 333
#     4   9  18  34  56  77 103 142 188 239 280 310
#     4   9  19  35  53  77 113 151 182 218 278 355
#     4   8  15  31  55  80 110 147 187 234 287 332
#
# _framework density 18.099471000000001
#
# number of rings (size 3 to 8) (size 9 to 14) (size 15 to 20)
#    0.000    2.333    0.833    4.000    2.333    5.333 
#    0.000    0.417    0.000    0.500    0.000    0.000 
#    0.000    0.000    0.000    0.000    0.000    0.000 
#
# Total GULP energy -267652.151078 kJ/mol
# GULP energy per Si atom -5576.086481 kJ/mol
# Density = 1.805828 g / cm^3
# Si number density = 18.099471 Si / 1000 Ang^3
#
#
#
# Elastic Constant Matrix: (Units=GPa)
#
#
# Indices 1 2 3 4 5 6 
#
# 1 95.2861 44.7479 44.1765 0.0000 0.0000 0.0000
# 2 44.7479 118.7082 41.3487 0.0005 0.0000 -0.0002
# 3 44.1765 41.3487 68.9787 0.0014 0.0000 -0.0001
# 4 0.0000 0.0005 0.0014 107.3250 0.0000 -0.0003
# 5 0.0000 0.0000 0.0000 0.0000 10.9670 0.0001
# 6 0.0000 -0.0002 -0.0001 -0.0003 0.0001 -148.1882
#
#
#
# Elastic Compliance Matrix: (Units=1/GPa)
#
#
# Indices 1 2 3 4 5 6 
#
# 1 0.015763 -0.003066 -0.008257 0.000000 0.000000 0.000000
# 2 -0.003066 0.011243 -0.004776 0.000000 0.000000 0.000000
# 3 -0.008257 -0.004776 0.022649 0.000000 0.000000 0.000000
# 4 0.000000 0.000000 0.000000 0.009317 0.000000 0.000000
# 5 0.000000 0.000000 0.000000 0.000000 0.091183 0.000000
# 6 0.000000 0.000000 0.000000 0.000000 0.000000 -0.006748
#
#
# Mechanical properties :
#
#
# Convention : Reuss Voigt Hill
#
# Bulk Modulus (GPa) = 57.28684 60.39101 58.83892
# Shear Modulus (GPa) = 27.55973 4.20075 15.88024
#
# Velocity S-wave (km/s) = 3.90639 1.52511 2.96529
# Velocity P-wave (km/s) = 7.21570 6.04482 6.65606
#
# Compressibility (1/GPa) = 0.01745602
#
# Stress axis : x y z
#
# Youngs Moduli (GPa) = 63.44116 88.94141 44.15267
#
# Poissons Ratio (x) = 0.27266 0.36458
# Poissons Ratio (y) = 0.19449 0.21089
# Poissons Ratio (z) = 0.52385 0.42482
#
# Static dielectric constant tensor:
#      x y z
#    x 1.644020 0.000000 0.000000 
#    y 0.000000 1.642920 0.000000 
#    z 0.000000 0.000000 1.615420 
# 
# From -- ./inp_files/22604.got.cif
#   From: 2010.05.17/outbox.cif.g08.bks.cpg/sg71_12_cif.got.tgz:22604.got - 2010.06.03 16:22:01.
