data_PCOD9523078
_publ_section_title
;
Structure prediction by ZEFSAII (Michael W. Deem and Ramdas Pophale) SiO2 
 PCOD9523078
Probable space group: I M M M
;
_chemical_formula_sum "Si O2"
_cell_formula_units_Z 104
_cell_length_a 18.780070
_cell_length_b 16.172055
_cell_length_c 18.401422
_cell_angle_alpha 90.000000
_cell_angle_beta 90.000000
_cell_angle_gamma 90.000000
_cell_volume 5588.738658
_symmetry_space_group_name_H-M "I M M M"
_symmetry_group_IT_number 71
_symmetry_cell_setting 'orthorhombic'
loop_
_space_group_symop_operation_xyz
x,y,z
-x,-y,z
x,-y,-z
-x,y,-z
-x,-y,-z
x,y,-z
-x,y,z
x,-y,z
1/2+x,1/2+y,1/2+z
1/2-x,1/2-y,1/2+z
1/2+x,1/2-y,1/2-z
1/2-x,1/2+y,1/2-z
1/2-x,1/2-y,1/2-z
1/2+x,1/2+y,1/2-z
1/2-x,1/2+y,1/2+z
1/2+x,1/2-y,1/2+z
loop_
_atom_site_type_symbol
_atom_site_label
_atom_site_fract_x
_atom_site_fract_y
_atom_site_fract_z
Si Si1 0.914665 0.325304 0.847127
Si Si2 0.586385 0.335434 0.916945
Si Si3 0.913388 0.500000 0.915618
Si Si4 0.697906 0.094121 0.917119
Si Si5 0.084132 0.327542 0.324655
Si Si6 0.913061 0.000000 0.334027
Si Si7 0.150856 0.160291 0.086493
Si Si8 0.085654 0.000000 0.834948
O O1 0.890612 0.414669 0.877300
O O2 0.902318 0.320327 0.760828
O O3 0.878628 0.247525 0.885919
O O4 0.000000 0.319198 0.859064
O O5 0.500000 0.339579 0.920255
O O6 0.602766 0.256628 0.867476
O O7 0.610841 0.418607 0.877085
O O8 0.612191 0.328396 0.000000
O O9 0.000000 0.500000 0.912801
O O10 0.892261 0.500000 0.000000
O O11 0.633569 0.105036 0.862090
O O12 0.764666 0.152056 0.899846
O O13 0.725022 0.000000 0.915002
O O14 0.673674 0.110531 0.000000
O O15 0.000000 0.344025 0.334611
O O16 0.891629 0.000000 0.249797
O O17 0.000000 0.000000 0.334375
O O18 0.113492 0.083168 0.126577
O O19 0.139684 0.152068 0.000000
O O20 0.000000 0.000000 0.837368
#
# Coordination Sequence:
#
# PCOD9523078 Si02
#       8
#    16  16   8  16  16   8  16   8
#     4  10  21  36  58  88 120 152 193 246 297 350
#     4   9  16  28  48  76 109 144 182 224 276 340
#     4   9  18  34  55  81 113 149 189 236 291 346
#     4  10  22  40  59  81 115 155 194 240 293 352
#     4  10  21  36  58  86 114 145 191 246 299 351
#     4   9  17  29  47  74 111 148 181 225 281 333
#     4  11  22  38  58  83 116 156 197 238 292 356
#     4  11  21  33  54  83 116 149 188 239 290 344
#
# _framework density 18.60885
#
# number of rings (size 3 to 8) (size 9 to 14) (size 15 to 20)
#    0.000    2.077    0.769    2.769    1.077    7.385 
#    0.000    0.769    0.000    0.923    0.000    1.077 
#    0.000    0.000    0.000    0.000    0.000    0.000 
#
# Total GULP energy -290212.695762 kJ/mol
# GULP energy per Si atom -5581.013380 kJ/mol
# Density = 1.856650 g / cm^3
# Si number density = 18.608850 Si / 1000 Ang^3
#
#
#
# Elastic Constant Matrix: (Units=GPa)
#
#
# Indices 1 2 3 4 5 6 
#
# 1 29.1444 31.6627 48.3696 0.0000 0.0000 0.0000
# 2 31.6627 140.6389 79.5544 0.0000 0.0000 0.0000
# 3 48.3696 79.5544 145.5988 0.0000 0.0000 0.0000
# 4 0.0000 0.0000 0.0000 20.2801 0.0000 0.0000
# 5 0.0000 0.0000 0.0000 0.0000 15.6637 0.0000
# 6 0.0000 0.0000 0.0000 0.0000 0.0000 24.6077
#
#
#
# Elastic Compliance Matrix: (Units=1/GPa)
#
#
# Indices 1 2 3 4 5 6 
#
# 1 0.078164 -0.004210 -0.023667 0.000000 0.000000 0.000000
# 2 -0.004210 0.010518 -0.004348 0.000000 0.000000 0.000000
# 3 -0.023667 -0.004348 0.017106 0.000000 0.000000 0.000000
# 4 0.000000 0.000000 0.000000 0.049309 0.000000 0.000000
# 5 0.000000 0.000000 0.000000 0.000000 0.063842 0.000000
# 6 0.000000 0.000000 0.000000 0.000000 0.000000 0.040638
#
#
# Mechanical properties :
#
#
# Convention : Reuss Voigt Hill
#
# Bulk Modulus (GPa) = 24.19050 70.50617 47.34834
# Shear Modulus (GPa) = 14.80132 22.49665 18.64898
#
# Velocity S-wave (km/s) = 2.82333 3.48073 3.16912
# Velocity P-wave (km/s) = 4.86374 7.35695 6.23621
#
# Compressibility (1/GPa) = 0.04133853
#
# Stress axis : x y z
#
# Youngs Moduli (GPa) = 12.79354 95.07587 58.45741
#
# Poissons Ratio (x) = 0.40027 1.38350
# Poissons Ratio (y) = 0.05386 0.25419
# Poissons Ratio (z) = 0.30278 0.41342
#
# Static dielectric constant tensor:
#      x y z
#    x 1.619980 0.000000 0.000000 
#    y 0.000000 1.650660 0.000000 
#    z 0.000000 0.000000 1.627900 
# 
# From -- ./inp_files/46175.got.cif
#   From: 2010.05.17/outbox.cif.g08.bks.cpg/sg71_24_cif.got.tgz:46175.got - 2010.06.03 16:22:01.
