data_PCOD9523983
_publ_section_title
;
Structure prediction by ZEFSAII (Michael W. Deem and Ramdas Pophale) SiO2 
 PCOD9523983
Probable space group: I M M M
;
_chemical_formula_sum "Si O2"
_cell_formula_units_Z 112
_cell_length_a 13.902231
_cell_length_b 23.571813
_cell_length_c 22.857154
_cell_angle_alpha 90.000000
_cell_angle_beta 90.000000
_cell_angle_gamma 90.000000
_cell_volume 7490.307410
_symmetry_space_group_name_H-M "I M M M"
_symmetry_group_IT_number 71
_symmetry_cell_setting 'orthorhombic'
loop_
_space_group_symop_operation_xyz
x,y,z
-x,-y,z
x,-y,-z
-x,y,-z
-x,-y,-z
x,y,-z
-x,y,z
x,-y,z
1/2+x,1/2+y,1/2+z
1/2-x,1/2-y,1/2+z
1/2+x,1/2-y,1/2-z
1/2-x,1/2+y,1/2-z
1/2-x,1/2-y,1/2-z
1/2+x,1/2+y,1/2-z
1/2-x,1/2+y,1/2+z
1/2+x,1/2-y,1/2+z
loop_
_atom_site_type_symbol
_atom_site_label
_atom_site_fract_x
_atom_site_fract_y
_atom_site_fract_z
Si Si1 0.609850 0.432741 0.779423
Si Si2 0.204135 0.865630 0.172799
Si Si3 0.886523 0.932745 0.931060
Si Si4 0.201657 0.566905 0.150418
Si Si5 0.387903 0.862412 0.246070
Si Si6 0.113895 0.257090 0.830521
Si Si7 0.114766 0.655672 0.067581
O O1 0.500000 0.419320 0.795334
O O2 0.615354 0.500000 0.765776
O O3 0.642701 0.397808 0.722876
O O4 0.688263 0.421870 0.829874
O O5 0.177366 0.895090 0.111782
O O6 0.314629 0.870527 0.192924
O O7 0.173233 0.800176 0.173224
O O8 0.000000 0.921193 0.919655
O O9 0.871171 0.000000 0.920418
O O10 0.869360 0.922136 0.000000
O O11 0.187921 0.500000 0.143387
O O12 0.137906 0.591247 0.204121
O O13 0.170921 0.602234 0.093934
O O14 0.500000 0.865515 0.230918
O O15 0.368813 0.801879 0.278054
O O16 0.135807 0.291335 0.890106
O O17 0.000000 0.243552 0.830361
O O18 0.000000 0.644794 0.073106
O O19 0.136600 0.666381 0.000000
#
# Coordination Sequence:
#
# PCOD9523983 Si02
#       7
#    16  16  16  16  16  16  16
#     4   9  17  28  43  67  96 117 137 175 221 258
#     4  11  18  27  48  70  85 113 154 178 201 258
#     4   9  18  31  45  65  94 118 136 172 224 264
#     4   9  17  29  46  66  88 117 148 176 213 262
#     4   9  19  32  43  62  94 121 140 175 221 253
#     4   9  17  29  44  64  90 115 141 177 220 261
#     4   9  18  31  45  63  89 117 144 181 223 254
#
# _framework density 14.952658
#
# number of rings (size 3 to 8) (size 9 to 14) (size 15 to 20)
#    0.000    2.714    0.000    3.857    0.000    3.714 
#    0.000    2.143    0.000    0.857    0.000    3.000 
#    0.000    0.000    0.000    0.000    0.000    0.000 
#
# Total GULP energy -312107.746221 kJ/mol
# GULP energy per Si atom -5573.352611 kJ/mol
# Density = 1.491862 g / cm^3
# Si number density = 14.952658 Si / 1000 Ang^3
#
#
#
# Elastic Constant Matrix: (Units=GPa)
#
#
# Indices 1 2 3 4 5 6 
#
# 1 89.8421 40.9919 49.4755 0.0000 0.0000 0.0000
# 2 40.9919 41.2202 28.6048 0.0000 0.0000 0.0000
# 3 49.4755 28.6048 74.1891 0.0000 0.0000 0.0000
# 4 0.0000 0.0000 0.0000 12.2386 0.0000 0.0000
# 5 0.0000 0.0000 0.0000 0.0000 22.8559 0.0000
# 6 0.0000 0.0000 0.0000 0.0000 0.0000 18.7863
#
#
#
# Elastic Compliance Matrix: (Units=1/GPa)
#
#
# Indices 1 2 3 4 5 6 
#
# 1 0.024427 -0.017731 -0.009453 0.000000 0.000000 0.000000
# 2 -0.017731 0.045993 -0.005909 0.000000 0.000000 0.000000
# 3 -0.009453 -0.005909 0.022061 0.000000 0.000000 0.000000
# 4 0.000000 0.000000 0.000000 0.081709 0.000000 0.000000
# 5 0.000000 0.000000 0.000000 0.000000 0.043752 0.000000
# 6 0.000000 0.000000 0.000000 0.000000 0.000000 0.053230
#
#
# Mechanical properties :
#
#
# Convention : Reuss Voigt Hill
#
# Bulk Modulus (GPa) = 38.02999 49.26620 43.64809
# Shear Modulus (GPa) = 14.44566 16.52141 15.48354
#
# Velocity S-wave (km/s) = 3.11158 3.32763 3.22142
# Velocity P-wave (km/s) = 6.19661 6.91258 6.56437
#
# Compressibility (1/GPa) = 0.02629504
#
# Stress axis : x y z
#
# Youngs Moduli (GPa) = 40.93894 21.74223 45.32794
#
# Poissons Ratio (x) = 0.38552 0.42849
# Poissons Ratio (y) = 0.72590 0.26783
# Poissons Ratio (z) = 0.38700 0.12847
#
# Static dielectric constant tensor:
#      x y z
#    x 1.490600 0.000000 0.000000 
#    y 0.000000 1.492530 0.000000 
#    z 0.000000 0.000000 1.481090 
# 
# From -- ./inp_files/27790.got.cif
#   From: 2010.05.17/outbox.cif.g08.bks.cpg/sg71_14_cif.got.tgz:27790.got - 2010.06.03 16:22:01.
