data_PCOD9523173
_publ_section_title
;
Structure prediction by ZEFSAII (Michael W. Deem and Ramdas Pophale) SiO2 
 PCOD9523173
Probable space group: I M M M
;
_chemical_formula_sum "Si O2"
_cell_formula_units_Z 96
_cell_length_a 27.465354
_cell_length_b 21.257608
_cell_length_c 8.029713
_cell_angle_alpha 90.000000
_cell_angle_beta 90.000000
_cell_angle_gamma 90.000000
_cell_volume 4688.129699
_symmetry_space_group_name_H-M "I M M M"
_symmetry_group_IT_number 71
_symmetry_cell_setting 'orthorhombic'
loop_
_space_group_symop_operation_xyz
x,y,z
-x,-y,z
x,-y,-z
-x,y,-z
-x,-y,-z
x,y,-z
-x,y,z
x,-y,z
1/2+x,1/2+y,1/2+z
1/2-x,1/2-y,1/2+z
1/2+x,1/2-y,1/2-z
1/2-x,1/2+y,1/2-z
1/2-x,1/2-y,1/2-z
1/2+x,1/2+y,1/2-z
1/2-x,1/2+y,1/2+z
1/2+x,1/2-y,1/2+z
loop_
_atom_site_type_symbol
_atom_site_label
_atom_site_fract_x
_atom_site_fract_y
_atom_site_fract_z
Si Si1 0.884270 0.567891 0.201789
Si Si2 0.444951 0.808990 0.300447
Si Si3 0.888550 0.812914 0.686473
Si Si4 0.285221 0.109554 0.191801
Si Si5 0.196654 0.260997 0.185760
Si Si6 0.675311 0.427613 0.201849
O O1 0.909136 0.500000 0.237766
O O2 0.912285 0.631612 0.259626
O O3 0.830734 0.564226 0.283471
O O4 0.879682 0.571341 0.000000
O O5 0.445536 0.815111 0.500000
O O6 0.500000 0.814382 0.236492
O O7 0.424945 0.738257 0.266090
O O8 0.906015 0.826296 0.500000
O O9 0.839618 0.771379 0.688726
O O10 0.866749 0.878496 0.759940
O O11 0.304568 0.164732 0.310328
O O12 0.230351 0.088907 0.238319
O O13 0.283338 0.130795 0.000000
O O14 0.250000 0.250000 0.250000
O O15 0.187035 0.236912 0.000000
O O16 0.665141 0.500000 0.248246
O O17 0.676308 0.422958 0.000000
#
# Coordination Sequence:
#
# PCOD9523173 Si02
#       6
#    16  16  16  16  16  16
#     4  10  21  37  57  81 115 158 198 238 285 338
#     4  10  22  40  62  86 112 146 191 243 297 352
#     4  11  22  37  60  86 113 149 190 237 293 349
#     4  12  23  34  53  83 119 159 198 235 274 330
#     4  12  22  34  54  82 115 152 193 236 280 335
#     4  10  22  39  58  82 117 158 196 235 283 343
#
# _framework density 20.477250000000002
#
# number of rings (size 3 to 8) (size 9 to 14) (size 15 to 20)
#    0.000    1.167    3.333    4.000    0.000    4.000 
#    0.000    1.667    0.000    0.500    0.000    5.833 
#    0.000    0.000    0.000    0.000    0.000    0.000 
#
# Total GULP energy -267319.590710 kJ/mol
# GULP energy per Si atom -5569.158140 kJ/mol
# Density = 2.043064 g / cm^3
# Si number density = 20.477250 Si / 1000 Ang^3
#
#
#
# Elastic Constant Matrix: (Units=GPa)
#
#
# Indices 1 2 3 4 5 6 
#
# 1 89.0876 48.7956 -0.0211 0.0000 0.0000 0.0000
# 2 48.7956 154.7832 7.1707 0.0000 0.0000 0.0000
# 3 -0.0211 7.1707 52.9850 0.0000 0.0000 0.0000
# 4 0.0000 0.0000 0.0000 12.7266 0.0000 0.0000
# 5 0.0000 0.0000 0.0000 0.0000 8.1148 0.0000
# 6 0.0000 0.0000 0.0000 0.0000 0.0000 16.7184
#
#
#
# Elastic Compliance Matrix: (Units=1/GPa)
#
#
# Indices 1 2 3 4 5 6 
#
# 1 0.013586 -0.004310 0.000589 0.000000 0.000000 0.000000
# 2 -0.004310 0.007869 -0.001067 0.000000 0.000000 0.000000
# 3 0.000589 -0.001067 0.019018 0.000000 0.000000 0.000000
# 4 0.000000 0.000000 0.000000 0.078576 0.000000 0.000000
# 5 0.000000 0.000000 0.000000 0.000000 0.123231 0.000000
# 6 0.000000 0.000000 0.000000 0.000000 0.000000 0.059814
#
#
# Mechanical properties :
#
#
# Convention : Reuss Voigt Hill
#
# Bulk Modulus (GPa) = 32.36633 45.41626 38.89130
# Shear Modulus (GPa) = 15.52947 23.57268 19.55107
#
# Velocity S-wave (km/s) = 2.75685 3.39656 3.09329
# Velocity P-wave (km/s) = 5.09646 6.13264 5.63840
#
# Compressibility (1/GPa) = 0.03089630
#
# Stress axis : x y z
#
# Youngs Moduli (GPa) = 73.60586 127.08299 52.58213
#
# Poissons Ratio (x) = 0.54776 -0.03096
# Poissons Ratio (y) = 0.31726 0.05609
# Poissons Ratio (z) = -0.04333 0.13555
#
# Static dielectric constant tensor:
#      x y z
#    x 1.673850 0.000000 0.000000 
#    y 0.000000 2.219050 0.000000 
#    z 0.000000 0.000000 1.725890 
# 
# From -- ./inp_files/14874.got.cif
#   From: 2010.05.17/outbox.cif.g08.bks.cpg/sg71_8_cif.got.tgz:14874.got - 2010.06.03 16:22:01.
