data_PCOD9523781
_publ_section_title
;
Structure prediction by ZEFSAII (Michael W. Deem and Ramdas Pophale) SiO2 
 PCOD9523781
Probable space group: I M M M
;
_chemical_formula_sum "Si O2"
_cell_formula_units_Z 64
_cell_length_a 8.889830
_cell_length_b 33.757848
_cell_length_c 10.945442
_cell_angle_alpha 90.000000
_cell_angle_beta 90.000000
_cell_angle_gamma 90.000000
_cell_volume 3284.743889
_symmetry_space_group_name_H-M "I M M M"
_symmetry_group_IT_number 71
_symmetry_cell_setting 'orthorhombic'
loop_
_space_group_symop_operation_xyz
x,y,z
-x,-y,z
x,-y,-z
-x,y,-z
-x,-y,-z
x,y,-z
-x,y,z
x,-y,z
1/2+x,1/2+y,1/2+z
1/2-x,1/2-y,1/2+z
1/2+x,1/2-y,1/2-z
1/2-x,1/2+y,1/2-z
1/2-x,1/2-y,1/2-z
1/2+x,1/2+y,1/2-z
1/2-x,1/2+y,1/2+z
1/2+x,1/2-y,1/2+z
loop_
_atom_site_type_symbol
_atom_site_label
_atom_site_fract_x
_atom_site_fract_y
_atom_site_fract_z
Si Si1 0.820880 0.075528 0.752430
Si Si2 0.165704 0.500000 0.857268
Si Si3 0.319112 0.806379 0.000000
Si Si4 0.817897 0.213197 0.500000
Si Si5 0.818383 0.165727 0.741694
Si Si6 0.679375 0.047004 0.000000
O O1 0.753379 0.039649 0.675868
O O2 0.785232 0.119899 0.709832
O O3 0.000000 0.071731 0.758107
O O4 0.749567 0.068313 0.884166
O O5 0.000000 0.500000 0.795339
O O6 0.147038 0.500000 0.000000
O O7 0.253434 0.824019 0.126630
O O8 0.500000 0.811099 0.000000
O O9 0.281209 0.759554 0.000000
O O10 0.766996 0.192605 0.626827
O O11 0.000000 0.209517 0.500000
O O12 0.000000 0.169803 0.753863
O O13 0.500000 0.050217 0.000000
O O14 0.718488 0.000000 0.000000
#
# Coordination Sequence:
#
# PCOD9523781 Si02
#       6
#    16   8   8   8  16   8
#     4  11  23  38  62  90 116 152 203 250 291 347
#     4  11  25  42  59  82 119 161 195 239 300 357
#     4  11  22  38  63  93 124 160 201 244 300 366
#     4   9  20  40  64  90 122 159 200 249 301 361
#     4  10  22  40  63  90 123 160 201 251 304 355
#     4  11  22  37  58  82 116 157 192 237 304 355
#
# _framework density 19.484016
#
# number of rings (size 3 to 8) (size 9 to 14) (size 15 to 20)
#    0.000    1.500    1.250    3.375    1.750    6.500 
#    0.000    1.875    0.000    0.000    0.000    0.000 
#    0.000    0.000    0.000    0.000    0.000    0.000 
#
# Total GULP energy -178715.226908 kJ/mol
# GULP energy per Si atom -5584.850841 kJ/mol
# Density = 1.943967 g / cm^3
# Si number density = 19.484016 Si / 1000 Ang^3
#
#
#
# Elastic Constant Matrix: (Units=GPa)
#
#
# Indices 1 2 3 4 5 6 
#
# 1 54.0969 55.6179 27.8940 0.0001 0.0000 0.0000
# 2 55.6179 139.2097 52.4512 0.0006 -0.0001 0.0000
# 3 27.8940 52.4512 117.6751 0.0013 -0.0002 -0.0001
# 4 0.0001 0.0006 0.0013 248.3233 0.0005 0.0002
# 5 0.0000 -0.0001 -0.0002 0.0005 24.5329 0.0000
# 6 0.0000 0.0000 -0.0001 0.0002 0.0000 19.5905
#
#
#
# Elastic Compliance Matrix: (Units=1/GPa)
#
#
# Indices 1 2 3 4 5 6 
#
# 1 0.031863 -0.011879 -0.002258 0.000000 0.000000 0.000000
# 2 -0.011879 0.013062 -0.003006 0.000000 0.000000 0.000000
# 3 -0.002258 -0.003006 0.010373 0.000000 0.000000 0.000000
# 4 0.000000 0.000000 0.000000 0.004027 0.000000 0.000000
# 5 0.000000 0.000000 0.000000 0.000000 0.040762 0.000000
# 6 0.000000 0.000000 0.000000 0.000000 0.000000 0.051045
#
#
# Mechanical properties :
#
#
# Convention : Reuss Voigt Hill
#
# Bulk Modulus (GPa) = 47.59354 64.76754 56.18054
# Shear Modulus (GPa) = 25.98445 70.15726 48.07085
#
# Velocity S-wave (km/s) = 3.65585 6.00714 4.97247
# Velocity P-wave (km/s) = 6.50387 9.02374 7.86537
#
# Compressibility (1/GPa) = 0.02101125
#
# Stress axis : x y z
#
# Youngs Moduli (GPa) = 31.38444 76.55666 96.40237
#
# Poissons Ratio (x) = 0.90944 0.21767
# Poissons Ratio (y) = 0.37283 0.28981
# Poissons Ratio (z) = 0.07086 0.23015
#
# Static dielectric constant tensor:
#      x y z
#    x 1.659190 0.000000 0.000000 
#    y 0.000000 1.727950 0.000000 
#    z 0.000000 0.000000 1.305600 
# 
# From -- ./inp_files/3827.got.cif
#   From: 2010.05.17/outbox.cif.g08.bks.cpg/sg71_2_cif.got.tgz:3827.got - 2010.06.03 16:22:01.
