data_PCOD9523986
_publ_section_title
;
Structure prediction by ZEFSAII (Michael W. Deem and Ramdas Pophale) SiO2 
 PCOD9523986
Probable space group: I M M M
;
_chemical_formula_sum "Si O2"
_cell_formula_units_Z 112
_cell_length_a 22.620790
_cell_length_b 21.780214
_cell_length_c 13.457910
_cell_angle_alpha 90.000000
_cell_angle_beta 90.000000
_cell_angle_gamma 90.000000
_cell_volume 6630.519096
_symmetry_space_group_name_H-M "I M M M"
_symmetry_group_IT_number 71
_symmetry_cell_setting 'orthorhombic'
loop_
_space_group_symop_operation_xyz
x,y,z
-x,-y,z
x,-y,-z
-x,y,-z
-x,-y,-z
x,y,-z
-x,y,z
x,-y,z
1/2+x,1/2+y,1/2+z
1/2-x,1/2-y,1/2+z
1/2+x,1/2-y,1/2-z
1/2-x,1/2+y,1/2-z
1/2-x,1/2-y,1/2-z
1/2+x,1/2+y,1/2-z
1/2-x,1/2+y,1/2+z
1/2+x,1/2-y,1/2+z
loop_
_atom_site_type_symbol
_atom_site_label
_atom_site_fract_x
_atom_site_fract_y
_atom_site_fract_z
Si Si1 0.891300 0.569727 0.618520
Si Si2 0.565969 0.806324 0.804284
Si Si3 0.761278 0.382547 0.384890
Si Si4 0.569118 0.273262 0.384303
Si Si5 0.156738 0.144037 0.759139
Si Si6 0.932200 0.073823 0.615809
Si Si7 0.682311 0.250893 0.112489
O O1 0.900512 0.580285 0.500000
O O2 0.907861 0.500000 0.641089
O O3 0.925498 0.621566 0.678825
O O4 0.821474 0.580904 0.637032
O O5 0.500000 0.787696 0.833593
O O6 0.575213 0.784409 0.690771
O O7 0.615357 0.773099 0.870369
O O8 0.746209 0.393624 0.500000
O O9 0.706497 0.395286 0.314140
O O10 0.777960 0.310015 0.374736
O O11 0.581175 0.260056 0.500000
O O12 0.500000 0.293249 0.376943
O O13 0.614852 0.322672 0.340342
O O14 0.114182 0.106686 0.686297
O O15 0.189421 0.196001 0.692895
O O16 0.921967 0.089540 0.500000
O O17 0.000000 0.091430 0.640442
O O18 0.928091 0.000000 0.624552
O O19 0.690208 0.273101 0.000000
#
# Coordination Sequence:
#
# PCOD9523986 Si02
#       7
#    16  16  16  16  16  16  16
#     4   9  18  32  48  67  94 125 155 193 240 281
#     4   9  17  29  47  70  94 123 156 187 228 283
#     4   9  18  31  45  64  93 125 154 189 234 278
#     4   9  18  31  46  68  98 124 147 185 234 276
#     4  11  18  28  50  74  88 117 163 197 221 269
#     4   9  19  35  51  69  97 127 152 186 234 281
#     4   9  18  30  43  66  99 124 146 187 240 284
#
# _framework density 16.891589
#
# number of rings (size 3 to 8) (size 9 to 14) (size 15 to 20)
#    0.000    2.714    0.000    3.429    0.000    2.571 
#    0.000    0.714    0.000    5.143    0.000    7.000 
#    0.000    0.000    0.000    0.000    0.000    0.000 
#
# Total GULP energy -312158.269963 kJ/mol
# GULP energy per Si atom -5574.254821 kJ/mol
# Density = 1.685314 g / cm^3
# Si number density = 16.891589 Si / 1000 Ang^3
#
#
#
# Elastic Constant Matrix: (Units=GPa)
#
#
# Indices 1 2 3 4 5 6 
#
# 1 40.9132 -7.0504 26.8828 0.0000 0.0000 0.0000
# 2 -7.0504 13.8441 -0.4756 0.0000 0.0000 0.0000
# 3 26.8828 -0.4756 56.5756 0.0000 0.0000 0.0000
# 4 0.0000 0.0000 0.0000 17.8135 0.0000 0.0000
# 5 0.0000 0.0000 0.0000 0.0000 27.2626 0.0000
# 6 0.0000 0.0000 0.0000 0.0000 0.0000 5.1408
#
#
#
# Elastic Compliance Matrix: (Units=1/GPa)
#
#
# Indices 1 2 3 4 5 6 
#
# 1 0.040364 0.019903 -0.019012 0.000000 0.000000 0.000000
# 2 0.019903 0.082068 -0.008768 0.000000 0.000000 0.000000
# 3 -0.019012 -0.008768 0.026636 0.000000 0.000000 0.000000
# 4 0.000000 0.000000 0.000000 0.056137 0.000000 0.000000
# 5 0.000000 0.000000 0.000000 0.000000 0.036680 0.000000
# 6 0.000000 0.000000 0.000000 0.000000 0.000000 0.194524
#
#
# Mechanical properties :
#
#
# Convention : Reuss Voigt Hill
#
# Bulk Modulus (GPa) = 7.50104 16.67185 12.08644
# Shear Modulus (GPa) = 10.06845 16.17511 13.12178
#
# Velocity S-wave (km/s) = 2.44409 3.09784 2.79018
# Velocity P-wave (km/s) = 3.52351 4.76307 4.18939
#
# Compressibility (1/GPa) = 0.13331482
#
# Stress axis : x y z
#
# Youngs Moduli (GPa) = 24.77440 12.18501 37.54346
#
# Poissons Ratio (x) = -0.24252 0.71379
# Poissons Ratio (y) = -0.49309 0.32916
# Poissons Ratio (z) = 0.47102 0.10683
#
# Static dielectric constant tensor:
#      x y z
#    x 1.579610 0.000000 0.000000 
#    y 0.000000 1.570580 0.000000 
#    z 0.000000 0.000000 1.554300 
# 
# From -- ./inp_files/26252.got.cif
#   From: 2010.05.17/outbox.cif.g08.bks.cpg/sg71_14_cif.got.tgz:26252.got - 2010.06.03 16:22:01.
