data_PCOD9523048
_publ_section_title
;
Structure prediction by ZEFSAII (Michael W. Deem and Ramdas Pophale) SiO2 
 PCOD9523048
Probable space group: I M M M
;
_chemical_formula_sum "Si O2"
_cell_formula_units_Z 88
_cell_length_a 8.650420
_cell_length_b 23.477528
_cell_length_c 22.391941
_cell_angle_alpha 90.000000
_cell_angle_beta 90.000000
_cell_angle_gamma 90.000000
_cell_volume 4547.589996
_symmetry_space_group_name_H-M "I M M M"
_symmetry_group_IT_number 71
_symmetry_cell_setting 'orthorhombic'
loop_
_space_group_symop_operation_xyz
x,y,z
-x,-y,z
x,-y,-z
-x,y,-z
-x,-y,-z
x,y,-z
-x,y,z
x,-y,z
1/2+x,1/2+y,1/2+z
1/2-x,1/2-y,1/2+z
1/2+x,1/2-y,1/2-z
1/2-x,1/2+y,1/2-z
1/2-x,1/2-y,1/2-z
1/2+x,1/2+y,1/2-z
1/2-x,1/2+y,1/2+z
1/2+x,1/2-y,1/2+z
loop_
_atom_site_type_symbol
_atom_site_label
_atom_site_fract_x
_atom_site_fract_y
_atom_site_fract_z
Si Si1 0.685183 0.879120 0.126031
Si Si2 0.318442 0.735619 0.684324
Si Si3 0.311476 0.066755 0.000000
Si Si4 0.819636 0.849838 0.342978
Si Si5 0.822000 0.565169 0.071334
Si Si6 0.313639 0.436571 0.260407
O O1 0.500000 0.876635 0.125699
O O2 0.747486 0.818612 0.150376
O O3 0.741732 0.924106 0.175427
O O4 0.737067 0.900007 0.060314
O O5 0.500000 0.725881 0.690719
O O6 0.250000 0.750000 0.750000
O O7 0.279048 0.793207 0.649076
O O8 0.500000 0.066120 0.000000
O O9 0.262585 0.000000 0.000000
O O10 0.793156 0.891836 0.397783
O O11 0.767431 0.886744 0.285348
O O12 0.000000 0.835087 0.335686
O O13 0.786331 0.500000 0.087789
O O14 0.000000 0.577100 0.089717
O O15 0.815789 0.569199 0.000000
O O16 0.500000 0.434363 0.264447
O O17 0.270153 0.500000 0.239444
#
# Coordination Sequence:
#
# PCOD9523048 Si02
#       6
#    16  16   8  16  16  16
#     4  11  22  39  64  91 121 162 205 251 306 365
#     4  12  24  41  63  88 119 157 198 247 302 364
#     4   9  20  40  65  95 129 163 206 257 306 365
#     4  11  22  37  59  87 119 157 199 248 302 360
#     4   9  19  37  59  84 118 158 199 244 295 353
#     4  10  21  36  56  86 123 157 193 245 302 358
#
# _framework density 19.350909000000001
#
# number of rings (size 3 to 8) (size 9 to 14) (size 15 to 20)
#    0.000    1.545    1.818    4.364    0.000    3.273 
#    1.636    2.727    0.000    3.273    0.000    0.000 
#    0.000    0.000    0.000    0.000    0.000    0.000 
#
# Total GULP energy -245735.017449 kJ/mol
# GULP energy per Si atom -5584.886760 kJ/mol
# Density = 1.930687 g / cm^3
# Si number density = 19.350909 Si / 1000 Ang^3
#
#
#
# Elastic Constant Matrix: (Units=GPa)
#
#
# Indices 1 2 3 4 5 6 
#
# 1 25.2207 27.5883 18.3887 0.0000 0.0000 0.0000
# 2 27.5883 119.5498 48.6273 0.0000 0.0000 0.0000
# 3 18.3887 48.6273 88.8091 0.0000 0.0000 0.0000
# 4 0.0000 0.0000 0.0000 22.7585 0.0000 0.0000
# 5 0.0000 0.0000 0.0000 0.0000 26.6061 0.0000
# 6 0.0000 0.0000 0.0000 0.0000 0.0000 31.0138
#
#
#
# Elastic Compliance Matrix: (Units=1/GPa)
#
#
# Indices 1 2 3 4 5 6 
#
# 1 0.055218 -0.010411 -0.005733 0.000000 0.000000 0.000000
# 2 -0.010411 0.012724 -0.004812 0.000000 0.000000 0.000000
# 3 -0.005733 -0.004812 0.015082 0.000000 0.000000 0.000000
# 4 0.000000 0.000000 0.000000 0.043940 0.000000 0.000000
# 5 0.000000 0.000000 0.000000 0.000000 0.037585 0.000000
# 6 0.000000 0.000000 0.000000 0.000000 0.000000 0.032244
#
#
# Mechanical properties :
#
#
# Convention : Reuss Voigt Hill
#
# Bulk Modulus (GPa) = 24.32292 46.97646 35.64969
# Shear Modulus (GPa) = 19.80926 25.34072 22.57499
#
# Velocity S-wave (km/s) = 3.20298 3.62268 3.41927
# Velocity P-wave (km/s) = 5.12596 6.46739 5.83535
#
# Compressibility (1/GPa) = 0.04111349
#
# Stress axis : x y z
#
# Youngs Moduli (GPa) = 18.11009 78.59007 66.30541
#
# Poissons Ratio (x) = 0.81817 0.38013
# Poissons Ratio (y) = 0.18854 0.31903
# Poissons Ratio (z) = 0.10383 0.37814
#
# Static dielectric constant tensor:
#      x y z
#    x 1.675760 0.000000 0.000000 
#    y 0.000000 1.686020 0.000000 
#    z 0.000000 0.000000 1.682930 
# 
# From -- ./inp_files/12537.got.cif
#   From: 2010.05.17/outbox.cif.g08.bks.cpg/sg71_7_cif.got.tgz:12537.got - 2010.06.03 16:22:01.
