data_PCOD9523033
_publ_section_title
;
Structure prediction by ZEFSAII (Michael W. Deem and Ramdas Pophale) SiO2 
 PCOD9523033
Probable space group: I M M M
;
_chemical_formula_sum "Si O2"
_cell_formula_units_Z 72
_cell_length_a 9.097002
_cell_length_b 20.358260
_cell_length_c 19.796975
_cell_angle_alpha 90.000000
_cell_angle_beta 90.000000
_cell_angle_gamma 90.000000
_cell_volume 3666.382585
_symmetry_space_group_name_H-M "I M M M"
_symmetry_group_IT_number 71
_symmetry_cell_setting 'orthorhombic'
loop_
_space_group_symop_operation_xyz
x,y,z
-x,-y,z
x,-y,-z
-x,y,-z
-x,-y,-z
x,y,-z
-x,y,z
x,-y,z
1/2+x,1/2+y,1/2+z
1/2-x,1/2-y,1/2+z
1/2+x,1/2-y,1/2-z
1/2-x,1/2+y,1/2-z
1/2-x,1/2-y,1/2-z
1/2+x,1/2+y,1/2-z
1/2-x,1/2+y,1/2+z
1/2+x,1/2-y,1/2+z
loop_
_atom_site_type_symbol
_atom_site_label
_atom_site_fract_x
_atom_site_fract_y
_atom_site_fract_z
Si Si1 0.672475 0.706777 0.080786
Si Si2 0.335284 0.079214 0.000000
Si Si3 0.170381 0.426620 0.917890
Si Si4 0.176576 0.074642 0.860422
Si Si5 0.324823 0.709284 0.691023
O O1 0.500000 0.714290 0.095838
O O2 0.728008 0.634098 0.102085
O O3 0.766998 0.759222 0.121537
O O4 0.692777 0.713210 0.000000
O O5 0.248700 0.094237 0.931781
O O6 0.500000 0.107672 0.000000
O O7 0.346916 0.000000 0.000000
O O8 0.214987 0.500000 0.895123
O O9 0.000000 0.415435 0.898100
O O10 0.172681 0.427851 0.000000
O O11 0.214888 0.132053 0.808300
O O12 0.000000 0.074488 0.868486
O O13 0.222202 0.000000 0.843106
O O14 0.500000 0.715087 0.695212
O O15 0.250000 0.750000 0.750000
#
# Coordination Sequence:
#
# PCOD9523033 Si02
#       5
#    16   8  16  16  16
#     4  10  21  36  56  84 116 151 192 239 290 348
#     4   9  17  29  51  87 123 151 182 229 288 343
#     4   8  14  27  49  77 109 144 184 233 284 332
#     4   9  19  37  60  85 114 150 194 241 292 354
#     4  11  24  41  61  83 114 155 195 241 298 358
#
# _framework density 19.637885000000001
#
# number of rings (size 3 to 8) (size 9 to 14) (size 15 to 20)
#    0.000    2.556    0.000    2.333    1.556    4.889 
#    0.000    3.333    0.000    4.000    0.000    0.000 
#    0.000    0.000    0.000    0.000    0.000    0.000 
#
# Total GULP energy -200833.404453 kJ/mol
# GULP energy per Si atom -5578.705679 kJ/mol
# Density = 1.959319 g / cm^3
# Si number density = 19.637885 Si / 1000 Ang^3
#
#
#
# Elastic Constant Matrix: (Units=GPa)
#
#
# Indices 1 2 3 4 5 6 
#
# 1 52.5014 55.5961 28.8203 0.0000 0.0000 0.0000
# 2 55.5961 149.0245 50.9001 0.0000 0.0000 0.0000
# 3 28.8203 50.9001 40.8269 0.0000 0.0000 0.0000
# 4 0.0000 0.0000 0.0000 25.5935 0.0000 0.0000
# 5 0.0000 0.0000 0.0000 0.0000 27.7831 0.0000
# 6 0.0000 0.0000 0.0000 0.0000 0.0000 22.4644
#
#
#
# Elastic Compliance Matrix: (Units=1/GPa)
#
#
# Indices 1 2 3 4 5 6 
#
# 1 0.036183 -0.008316 -0.015175 0.000000 0.000000 0.000000
# 2 -0.008316 0.013598 -0.011083 0.000000 0.000000 0.000000
# 3 -0.015175 -0.011083 0.049023 0.000000 0.000000 0.000000
# 4 0.000000 0.000000 0.000000 0.039072 0.000000 0.000000
# 5 0.000000 0.000000 0.000000 0.000000 0.035993 0.000000
# 6 0.000000 0.000000 0.000000 0.000000 0.000000 0.044515
#
#
# Mechanical properties :
#
#
# Convention : Reuss Voigt Hill
#
# Bulk Modulus (GPa) = 33.71828 56.99842 45.35835
# Shear Modulus (GPa) = 16.81140 22.30394 19.55767
#
# Velocity S-wave (km/s) = 2.92904 3.37376 3.15924
# Velocity P-wave (km/s) = 5.35223 6.65313 6.03782
#
# Compressibility (1/GPa) = 0.02965750
#
# Stress axis : x y z
#
# Youngs Moduli (GPa) = 27.63723 73.54007 20.39856
#
# Poissons Ratio (x) = 0.61154 0.30954
# Poissons Ratio (y) = 0.22982 0.22607
# Poissons Ratio (z) = 0.41939 0.81504
#
# Static dielectric constant tensor:
#      x y z
#    x 1.662070 0.000000 0.000000 
#    y 0.000000 1.731470 0.000000 
#    z 0.000000 0.000000 1.657920 
# 
# From -- ./inp_files/50213.got.cif
#   From: 2010.05.17/outbox.cif.g08.bks.cpg/sg71_26_cif.got.tgz:50213.got - 2010.06.03 16:22:01.
