data_PCOD9523900
_publ_section_title
;
Structure prediction by ZEFSAII (Michael W. Deem and Ramdas Pophale) SiO2 
 PCOD9523900
Probable space group: I M M M
;
_chemical_formula_sum "Si O2"
_cell_formula_units_Z 84
_cell_length_a 11.332185
_cell_length_b 35.284209
_cell_length_c 11.758961
_cell_angle_alpha 90.000000
_cell_angle_beta 90.000000
_cell_angle_gamma 90.000000
_cell_volume 4701.787442
_symmetry_space_group_name_H-M "I M M M"
_symmetry_group_IT_number 71
_symmetry_cell_setting 'orthorhombic'
loop_
_space_group_symop_operation_xyz
x,y,z
-x,-y,z
x,-y,-z
-x,y,-z
-x,-y,-z
x,y,-z
-x,y,z
x,-y,z
1/2+x,1/2+y,1/2+z
1/2-x,1/2-y,1/2+z
1/2+x,1/2-y,1/2-z
1/2-x,1/2+y,1/2-z
1/2-x,1/2-y,1/2-z
1/2+x,1/2+y,1/2-z
1/2-x,1/2+y,1/2+z
1/2+x,1/2-y,1/2+z
loop_
_atom_site_type_symbol
_atom_site_label
_atom_site_fract_x
_atom_site_fract_y
_atom_site_fract_z
Si Si1 0.141389 0.000000 0.133332
Si Si2 0.307464 0.788216 0.297048
Si Si3 0.640383 0.357263 0.865576
Si Si4 0.000000 0.589321 0.629676
Si Si5 0.000000 0.278935 0.000000
Si Si6 0.739256 0.070131 0.737772
Si Si7 0.000000 0.319867 0.628986
Si Si8 0.866769 0.545036 0.000000
O O1 0.189394 0.037402 0.197067
O O2 0.000000 0.000000 0.138118
O O3 0.177160 0.000000 0.000000
O O4 0.250000 0.750000 0.250000
O O5 0.210070 0.818964 0.335159
O O6 0.396584 0.780323 0.400514
O O7 0.385590 0.806113 0.196410
O O8 0.500000 0.353012 0.850582
O O9 0.688921 0.391193 0.785909
O O10 0.662187 0.365987 0.000000
O O11 0.118260 0.576799 0.693698
O O12 0.000000 0.575177 0.500000
O O13 0.000000 0.634758 0.628344
O O14 0.700979 0.056665 0.612852
O O15 0.000000 0.305723 0.500000
O O16 0.876568 0.500000 0.000000
O O17 0.000000 0.561614 0.000000
#
# Coordination Sequence:
#
# PCOD9523900 Si02
#       8
#     8  16  16   8   4  16   8   8
#     4  11  26  46  67  88 128 178 220 261 316 389
#     4  11  24  43  68  94 132 171 218 273 322 393
#     4  11  24  41  63  95 131 168 214 267 326 387
#     4  11  23  39  64  94 129 166 214 265 314 386
#     4  10  24  44  68  98 128 175 232 259 346 394
#     4  12  22  42  66  95 128 165 214 264 326 384
#     4  10  23  41  64  92 127 169 212 261 321 378
#     4  11  22  37  60  96 129 158 196 260 320 371
#
# _framework density 17.865546999999999
#
# number of rings (size 3 to 8) (size 9 to 14) (size 15 to 20)
#    0.000    0.952    5.714    1.143    4.000    0.381 
#    1.714    1.429    0.000    1.143    0.000    0.000 
#    0.000    0.000    0.000    0.000    0.000    0.000 
#
# Total GULP energy -234040.559610 kJ/mol
# GULP energy per Si atom -5572.394276 kJ/mol
# Density = 1.782488 g / cm^3
# Si number density = 17.865547 Si / 1000 Ang^3
#
#
#
# Elastic Constant Matrix: (Units=GPa)
#
#
# Indices 1 2 3 4 5 6 
#
# 1 146.0960 74.7906 81.0570 0.0002 -0.0001 0.0002
# 2 74.7906 119.0477 57.9266 0.0000 0.0001 0.0002
# 3 81.0570 57.9266 171.4134 -0.0012 -0.0001 0.0007
# 4 0.0002 0.0000 -0.0012 18.0694 0.0001 0.0003
# 5 -0.0001 0.0001 -0.0001 0.0001 50.9456 0.0001
# 6 0.0002 0.0002 0.0007 0.0003 0.0001 33.3416
#
#
#
# Elastic Compliance Matrix: (Units=1/GPa)
#
#
# Indices 1 2 3 4 5 6 
#
# 1 0.011740 -0.005594 -0.003661 0.000000 0.000000 0.000000
# 2 -0.005594 0.012719 -0.001653 0.000000 0.000000 0.000000
# 3 -0.003661 -0.001653 0.008124 0.000001 0.000000 0.000000
# 4 0.000000 0.000000 0.000001 0.055342 0.000000 0.000000
# 5 0.000000 0.000000 0.000000 0.000000 0.019629 0.000000
# 6 0.000000 0.000000 0.000000 0.000000 0.000000 0.029993
#
#
# Mechanical properties :
#
#
# Convention : Reuss Voigt Hill
#
# Bulk Modulus (GPa) = 92.88243 96.01174 94.44709
# Shear Modulus (GPa) = 30.68429 35.32351 33.00390
#
# Velocity S-wave (km/s) = 4.14878 4.45138 4.30274
# Velocity P-wave (km/s) = 8.66328 8.95978 8.81278
#
# Compressibility (1/GPa) = 0.01076630
#
# Stress axis : x y z
#
# Youngs Moduli (GPa) = 85.18081 78.62506 123.09825
#
# Poissons Ratio (x) = 0.43983 0.45066
# Poissons Ratio (y) = 0.47650 0.20346
# Poissons Ratio (z) = 0.31185 0.12995
#
# Static dielectric constant tensor:
#      x y z
#    x 1.600840 0.000000 0.000000 
#    y 0.000000 1.601150 0.000000 
#    z 0.000000 0.000000 1.598730 
# 
# From -- ./inp_files/20321.got.cif
#   From: 2010.05.17/outbox.cif.g08.bks.cpg/sg71_11_cif.got.tgz:20321.got - 2010.06.03 16:22:01.
