data_PCOD9523944
_publ_section_title
;
Structure prediction by ZEFSAII (Michael W. Deem and Ramdas Pophale) SiO2 
 PCOD9523944
Probable space group: I M M M
;
_chemical_formula_sum "Si O2"
_cell_formula_units_Z 72
_cell_length_a 21.740925
_cell_length_b 8.852299
_cell_length_c 20.828536
_cell_angle_alpha 90.000000
_cell_angle_beta 90.000000
_cell_angle_gamma 90.000000
_cell_volume 4008.601065
_symmetry_space_group_name_H-M "I M M M"
_symmetry_group_IT_number 71
_symmetry_cell_setting 'orthorhombic'
loop_
_space_group_symop_operation_xyz
x,y,z
-x,-y,z
x,-y,-z
-x,y,-z
-x,-y,-z
x,y,-z
-x,y,z
x,-y,z
1/2+x,1/2+y,1/2+z
1/2-x,1/2-y,1/2+z
1/2+x,1/2-y,1/2-z
1/2-x,1/2+y,1/2-z
1/2-x,1/2-y,1/2-z
1/2+x,1/2+y,1/2-z
1/2-x,1/2+y,1/2+z
1/2+x,1/2-y,1/2+z
loop_
_atom_site_type_symbol
_atom_site_label
_atom_site_fract_x
_atom_site_fract_y
_atom_site_fract_z
Si Si1 0.571901 0.818329 0.259576
Si Si2 0.428305 0.818504 0.110952
Si Si3 0.500000 0.829093 0.575549
Si Si4 0.153757 0.179503 0.500000
Si Si5 0.789258 0.817132 0.000000
Si Si6 0.125362 0.819606 0.880246
O O1 0.500000 0.774327 0.274258
O O2 0.583139 0.777211 0.185346
O O3 0.621438 0.748997 0.308540
O O4 0.574491 0.000000 0.263678
O O5 0.500000 0.785023 0.096642
O O6 0.420716 0.000000 0.104911
O O7 0.383784 0.736510 0.061950
O O8 0.500000 0.845115 0.500000
O O9 0.560273 0.737620 0.593361
O O10 0.500000 0.000000 0.603473
O O11 0.221330 0.251222 0.500000
O O12 0.157990 0.000000 0.500000
O O13 0.825120 0.771050 0.934352
O O14 0.787479 0.000000 0.000000
O O15 0.128045 0.000000 0.875915
#
# Coordination Sequence:
#
# PCOD9523944 Si02
#       6
#    16  16   8   8   8  16
#     4   9  18  33  55  86 118 148 182 222 276 339
#     4   9  19  38  64  89 115 148 181 217 276 348
#     4  11  21  31  49  77 111 150 189 232 279 329
#     4  12  25  39  59  86 112 141 187 241 286 329
#     4  10  24  42  56  74 109 156 200 233 274 338
#     4  11  21  34  54  81 113 149 190 236 282 326
#
# _framework density 17.961378
#
# number of rings (size 3 to 8) (size 9 to 14) (size 15 to 20)
#    0.000    1.889    2.222    3.667    0.000    4.889 
#    0.000    3.333    0.000    0.000    0.000    0.000 
#    0.000    0.000    0.000    0.000    0.000    0.000 
#
# Total GULP energy -200777.856025 kJ/mol
# GULP energy per Si atom -5577.162667 kJ/mol
# Density = 1.792050 g / cm^3
# Si number density = 17.961378 Si / 1000 Ang^3
#
#
#
# Elastic Constant Matrix: (Units=GPa)
#
#
# Indices 1 2 3 4 5 6 
#
# 1 118.1944 39.1859 87.1436 0.0000 0.0000 0.0000
# 2 39.1859 31.6898 45.6406 0.0000 0.0000 0.0000
# 3 87.1436 45.6406 153.2074 0.0000 0.0000 0.0000
# 4 0.0000 0.0000 0.0000 31.8871 0.0000 0.0000
# 5 0.0000 0.0000 0.0000 0.0000 -773.4631 0.0000
# 6 0.0000 0.0000 0.0000 0.0000 0.0000 20.7281
#
#
#
# Elastic Compliance Matrix: (Units=1/GPa)
#
#
# Indices 1 2 3 4 5 6 
#
# 1 0.016961 -0.012398 -0.005954 0.000000 0.000000 0.000000
# 2 -0.012398 0.064331 -0.012113 0.000000 0.000000 0.000000
# 3 -0.005954 -0.012113 0.013522 0.000000 0.000000 0.000000
# 4 0.000000 0.000000 0.000000 0.031361 0.000000 0.000000
# 5 0.000000 0.000000 0.000000 0.000000 -0.001293 0.000000
# 6 0.000000 0.000000 0.000000 0.000000 0.000000 0.048244
#
#
# Mechanical properties :
#
#
# Convention : Reuss Voigt Hill
#
# Bulk Modulus (GPa) = 29.51113 71.89240 50.70177
# Shear Modulus (GPa) = 20.37916 -135.42815 -57.52449
#
# Velocity S-wave (km/s) = 3.37205 -8.69272 -5.66536
# Velocity P-wave (km/s) = 5.62379 7.78705 3.80862
#
# Compressibility (1/GPa) = 0.03388552
#
# Stress axis : x y z
#
# Youngs Moduli (GPa) = 58.95990 15.54457 73.95386
#
# Poissons Ratio (x) = 0.19272 0.44031
# Poissons Ratio (y) = 0.73097 0.89577
# Poissons Ratio (z) = 0.35104 0.18828
#
# Static dielectric constant tensor:
#      x y z
#    x 1.575790 0.000000 0.000000 
#    y 0.000000 1.603560 0.000000 
#    z 0.000000 0.000000 1.671310 
# 
# From -- ./inp_files/54710.got.cif
#   From: 2010.05.17/outbox.cif.g08.bks.cpg/sg71_28_cif.got.tgz:54710.got - 2010.06.03 16:22:01.
