data_PCOD9523221
_publ_section_title
;
Structure prediction by ZEFSAII (Michael W. Deem and Ramdas Pophale) SiO2 
 PCOD9523221
Probable space group: I M M M
;
_chemical_formula_sum "Si O2"
_cell_formula_units_Z 104
_cell_length_a 29.563888
_cell_length_b 8.231735
_cell_length_c 20.343161
_cell_angle_alpha 90.000000
_cell_angle_beta 90.000000
_cell_angle_gamma 90.000000
_cell_volume 4950.754210
_symmetry_space_group_name_H-M "I M M M"
_symmetry_group_IT_number 71
_symmetry_cell_setting 'orthorhombic'
loop_
_space_group_symop_operation_xyz
x,y,z
-x,-y,z
x,-y,-z
-x,y,-z
-x,-y,-z
x,y,-z
-x,y,z
x,-y,z
1/2+x,1/2+y,1/2+z
1/2-x,1/2-y,1/2+z
1/2+x,1/2-y,1/2-z
1/2-x,1/2+y,1/2-z
1/2-x,1/2-y,1/2-z
1/2+x,1/2+y,1/2-z
1/2-x,1/2+y,1/2+z
1/2+x,1/2-y,1/2+z
loop_
_atom_site_type_symbol
_atom_site_label
_atom_site_fract_x
_atom_site_fract_y
_atom_site_fract_z
Si Si1 0.665926 0.192815 0.926125
Si Si2 0.500000 0.801040 0.925118
Si Si3 0.083734 0.301267 0.337610
Si Si4 0.793995 0.813967 0.210454
Si Si5 0.551755 0.695028 0.425657
Si Si6 0.766376 0.688908 0.926186
Si Si7 0.893896 0.691175 0.198791
O O1 0.630818 0.246370 0.871333
O O2 0.712269 0.290616 0.923920
O O3 0.676203 0.000000 0.916947
O O4 0.646266 0.208102 0.000000
O O5 0.543741 0.748353 0.884860
O O6 0.500000 0.000000 0.926215
O O7 0.500000 0.745713 0.000000
O O8 0.083656 0.500000 0.336858
O O9 0.079427 0.244864 0.262783
O O10 0.750000 0.750000 0.250000
O O11 0.784315 0.796486 0.132832
O O12 0.841425 0.721379 0.217250
O O13 0.800636 0.000000 0.229502
O O14 0.563109 0.752848 0.500000
O O15 0.500000 0.751126 0.410298
O O16 0.550285 0.500000 0.428131
O O17 0.587587 0.739318 0.369449
O O18 0.778478 0.500000 0.915205
O O19 0.781006 0.735879 0.000000
O O20 0.900921 0.500000 0.193935
#
# Coordination Sequence:
#
# PCOD9523221 Si02
#       7
#    16   8  16  16  16  16  16
#     4   9  16  29  51  78 109 149 196 240 284 337
#     4   9  16  28  48  76 112 151 186 222 267 315
#     4   9  18  30  47  76 113 148 185 231 279 331
#     4  12  25  42  63  86 119 160 204 252 307 368
#     4   9  20  41  66  89 117 156 204 258 316 380
#     4  10  21  37  58  85 115 149 192 242 295 352
#     4  11  23  37  58  89 123 157 196 244 304 368
#
# _framework density 21.006899000000001
#
# number of rings (size 3 to 8) (size 9 to 14) (size 15 to 20)
#    0.000    2.077    0.000    4.154    1.077    5.231 
#    0.000    1.538    0.000    0.000    0.000    0.000 
#    0.000    5.538    0.000    0.000    0.000    0.000 
#
# Total GULP energy -290260.715070 kJ/mol
# GULP energy per Si atom -5581.936828 kJ/mol
# Density = 2.095909 g / cm^3
# Si number density = 21.006899 Si / 1000 Ang^3
#
#
#
# Elastic Constant Matrix: (Units=GPa)
#
#
# Indices 1 2 3 4 5 6 
#
# 1 54.2980 -8.9666 46.4493 0.0000 0.0000 0.0000
# 2 -8.9666 21.2814 9.6533 0.0000 0.0000 0.0000
# 3 46.4493 9.6533 135.3400 0.0000 0.0000 0.0000
# 4 0.0000 0.0000 0.0000 19.8108 0.0000 0.0000
# 5 0.0000 0.0000 0.0000 0.0000 36.3121 0.0000
# 6 0.0000 0.0000 0.0000 0.0000 0.0000 13.7397
#
#
#
# Elastic Compliance Matrix: (Units=1/GPa)
#
#
# Indices 1 2 3 4 5 6 
#
# 1 0.032223 0.019215 -0.012429 0.000000 0.000000 0.000000
# 2 0.019215 0.060018 -0.010875 0.000000 0.000000 0.000000
# 3 -0.012429 -0.010875 0.012430 0.000000 0.000000 0.000000
# 4 0.000000 0.000000 0.000000 0.050477 0.000000 0.000000
# 5 0.000000 0.000000 0.000000 0.000000 0.027539 0.000000
# 6 0.000000 0.000000 0.000000 0.000000 0.000000 0.072782
#
#
# Mechanical properties :
#
#
# Convention : Reuss Voigt Hill
#
# Bulk Modulus (GPa) = 10.36370 33.91016 22.13693
# Shear Modulus (GPa) = 16.90252 24.89141 20.89697
#
# Velocity S-wave (km/s) = 2.83966 3.44600 3.15741
# Velocity P-wave (km/s) = 3.96178 5.65779 4.88397
#
# Compressibility (1/GPa) = 0.09649060
#
# Stress axis : x y z
#
# Youngs Moduli (GPa) = 31.03398 16.66163 80.44820
#
# Poissons Ratio (x) = -0.32015 0.99993
# Poissons Ratio (y) = -0.59630 0.87490
# Poissons Ratio (z) = 0.38574 0.18120
#
# Static dielectric constant tensor:
#      x y z
#    x 1.610350 0.000000 0.000000 
#    y 0.000000 1.741910 0.000000 
#    z 0.000000 0.000000 1.786360 
# 
# From -- ./inp_files/56225.got.cif
#   From: 2010.05.17/outbox.cif.g08.bks.cpg/sg71_29_cif.got.tgz:56225.got - 2010.06.03 16:22:01.
