data_PCOD9523805
_publ_section_title
;
Structure prediction by ZEFSAII (Michael W. Deem and Ramdas Pophale) SiO2 
 PCOD9523805
Probable space group: I M M M
;
_chemical_formula_sum "Si O2"
_cell_formula_units_Z 72
_cell_length_a 27.726808
_cell_length_b 15.073543
_cell_length_c 8.591264
_cell_angle_alpha 90.000000
_cell_angle_beta 90.000000
_cell_angle_gamma 90.000000
_cell_volume 3590.643466
_symmetry_space_group_name_H-M "I M M M"
_symmetry_group_IT_number 71
_symmetry_cell_setting 'orthorhombic'
loop_
_space_group_symop_operation_xyz
x,y,z
-x,-y,z
x,-y,-z
-x,y,-z
-x,-y,-z
x,y,-z
-x,y,z
x,-y,z
1/2+x,1/2+y,1/2+z
1/2-x,1/2-y,1/2+z
1/2+x,1/2-y,1/2-z
1/2-x,1/2+y,1/2-z
1/2-x,1/2-y,1/2-z
1/2+x,1/2+y,1/2-z
1/2-x,1/2+y,1/2+z
1/2+x,1/2-y,1/2+z
loop_
_atom_site_type_symbol
_atom_site_label
_atom_site_fract_x
_atom_site_fract_y
_atom_site_fract_z
Si Si1 0.130726 0.600674 0.188423
Si Si2 0.086878 0.218785 0.183572
Si Si3 0.333261 0.598227 0.817330
Si Si4 0.235854 0.653187 0.313666
Si Si5 0.500000 0.602185 0.814640
O O1 0.117067 0.500000 0.232027
O O2 0.094261 0.679381 0.237027
O O3 0.183473 0.622975 0.255958
O O4 0.134076 0.604659 0.000000
O O5 0.137076 0.169413 0.219943
O O6 0.046154 0.159338 0.262888
O O7 0.077333 0.219541 0.000000
O O8 0.355244 0.500000 0.800268
O O9 0.278769 0.595407 0.757900
O O10 0.334341 0.622033 0.000000
O O11 0.237045 0.651976 0.500000
O O12 0.250000 0.750000 0.250000
O O13 0.500000 0.500000 0.753701
O O14 0.500000 0.596471 0.000000
#
# Coordination Sequence:
#
# PCOD9523805 Si02
#       5
#    16  16  16  16   8
#     4  10  22  41  63  89 124 165 206 252 308 364
#     4  11  23  40  65  93 121 157 202 253 304 365
#     4  11  23  38  58  86 123 164 202 248 307 366
#     4  12  23  36  57  86 122 165 211 257 304 356
#     4  11  25  45  68  93 124 160 195 245 314 375
#
# _framework density 20.052116999999999
#
# number of rings (size 3 to 8) (size 9 to 14) (size 15 to 20)
#    0.000    1.000    2.222    5.000    0.000    9.333 
#    0.000    0.556    0.000    3.333    0.000    0.000 
#    0.000    0.000    0.000    0.000    0.000    0.000 
#
# Total GULP energy -201187.593402 kJ/mol
# GULP energy per Si atom -5588.544261 kJ/mol
# Density = 2.000648 g / cm^3
# Si number density = 20.052117 Si / 1000 Ang^3
#
#
#
# Elastic Constant Matrix: (Units=GPa)
#
#
# Indices 1 2 3 4 5 6 
#
# 1 83.4722 53.7295 8.0825 0.0000 0.0000 0.0000
# 2 53.7295 172.2373 28.4518 0.0000 0.0000 0.0000
# 3 8.0825 28.4518 39.2419 0.0000 0.0000 0.0000
# 4 0.0000 0.0000 0.0000 18.6400 0.0000 0.0000
# 5 0.0000 0.0000 0.0000 0.0000 33.8992 0.0000
# 6 0.0000 0.0000 0.0000 0.0000 0.0000 23.3179
#
#
#
# Elastic Compliance Matrix: (Units=1/GPa)
#
#
# Indices 1 2 3 4 5 6 
#
# 1 0.014994 -0.004734 0.000344 0.000000 0.000000 0.000000
# 2 -0.004734 0.008091 -0.004891 0.000000 0.000000 0.000000
# 3 0.000344 -0.004891 0.028958 0.000000 0.000000 0.000000
# 4 0.000000 0.000000 0.000000 0.053648 0.000000 0.000000
# 5 0.000000 0.000000 0.000000 0.000000 0.029499 0.000000
# 6 0.000000 0.000000 0.000000 0.000000 0.000000 0.042886
#
#
# Mechanical properties :
#
#
# Convention : Reuss Voigt Hill
#
# Bulk Modulus (GPa) = 29.86766 52.83099 41.34932
# Shear Modulus (GPa) = 24.06182 28.81726 26.43954
#
# Velocity S-wave (km/s) = 3.46781 3.79505 3.63511
# Velocity P-wave (km/s) = 5.56432 6.75331 6.18744
#
# Compressibility (1/GPa) = 0.03348103
#
# Stress axis : x y z
#
# Youngs Moduli (GPa) = 66.69299 123.59800 34.53252
#
# Poissons Ratio (x) = 0.58515 -0.01189
# Poissons Ratio (y) = 0.31574 0.16890
# Poissons Ratio (z) = -0.02296 0.60452
#
# Static dielectric constant tensor:
#      x y z
#    x 1.684330 0.000000 0.000000 
#    y 0.000000 1.764130 0.000000 
#    z 0.000000 0.000000 1.673290 
# 
# From -- ./inp_files/6024.got.cif
#   From: 2010.05.17/outbox.cif.g08.bks.cpg/sg71_4_cif.got.tgz:6024.got - 2010.06.03 16:22:01.
