data_PCOD9523646
_publ_section_title
;
Structure prediction by ZEFSAII (Michael W. Deem and Ramdas Pophale) SiO2 
 PCOD9523646
Probable space group: I M M M
;
_chemical_formula_sum "Si O2"
_cell_formula_units_Z 48
_cell_length_a 7.324678
_cell_length_b 11.291020
_cell_length_c 25.743829
_cell_angle_alpha 90.000000
_cell_angle_beta 90.000000
_cell_angle_gamma 90.000000
_cell_volume 2129.094098
_symmetry_space_group_name_H-M "I M M M"
_symmetry_group_IT_number 71
_symmetry_cell_setting 'orthorhombic'
loop_
_space_group_symop_operation_xyz
x,y,z
-x,-y,z
x,-y,-z
-x,y,-z
-x,-y,-z
x,y,-z
-x,y,z
x,-y,z
1/2+x,1/2+y,1/2+z
1/2-x,1/2-y,1/2+z
1/2+x,1/2-y,1/2-z
1/2-x,1/2+y,1/2-z
1/2-x,1/2-y,1/2-z
1/2+x,1/2+y,1/2-z
1/2-x,1/2+y,1/2+z
1/2+x,1/2-y,1/2+z
loop_
_atom_site_type_symbol
_atom_site_label
_atom_site_fract_x
_atom_site_fract_y
_atom_site_fract_z
Si Si1 0.218200 0.864263 0.212846
Si Si2 0.222270 0.500000 0.061715
Si Si3 0.277338 0.248249 0.393957
Si Si4 0.221989 0.866271 0.000000
O O1 0.250000 0.750000 0.250000
O O2 0.285488 0.819047 0.156552
O O3 0.000000 0.874919 0.210220
O O4 0.283923 0.000000 0.225750
O O5 0.277294 0.613236 0.095650
O O6 0.000000 0.500000 0.058637
O O7 0.279918 0.500000 0.000000
O O8 0.500000 0.249716 0.391615
O O9 0.217671 0.308724 0.447007
O O10 0.000000 0.858252 0.000000
O O11 0.276491 0.000000 0.000000
#
# Coordination Sequence:
#
# PCOD9523646 Si02
#       4
#    16   8  16   8
#     4  10  22  38  55  78 107 141 183 225 265 314
#     4   9  14  22  38  66  99 131 165 202 251 312
#     4   9  16  26  42  66  99 132 165 208 258 312
#     4   9  14  21  37  61  92 128 158 196 257 316
#
# _framework density 22.544799999999999
#
# number of rings (size 3 to 8) (size 9 to 14) (size 15 to 20)
#    0.000    2.667    1.667    1.000    2.333    4.667 
#    0.000    0.000    0.000    0.000    0.000    1.167 
#    0.000    8.000    0.000    0.000    0.000    0.000 
#
# Total GULP energy -133787.006992 kJ/mol
# GULP energy per Si atom -5574.458625 kJ/mol
# Density = 2.249349 g / cm^3
# Si number density = 22.544800 Si / 1000 Ang^3
#
#
#
# Elastic Constant Matrix: (Units=GPa)
#
#
# Indices 1 2 3 4 5 6 
#
# 1 90.8909 9.0758 2.8290 0.0000 0.0000 0.0000
# 2 9.0758 256.0117 111.0529 0.0000 0.0000 0.0000
# 3 2.8290 111.0529 156.3054 0.0000 0.0000 0.0000
# 4 0.0000 0.0000 0.0000 37.6274 0.0000 0.0000
# 5 0.0000 0.0000 0.0000 0.0000 50.7326 0.0000
# 6 0.0000 0.0000 0.0000 0.0000 0.0000 -3.0973
#
#
#
# Elastic Compliance Matrix: (Units=1/GPa)
#
#
# Indices 1 2 3 4 5 6 
#
# 1 0.011043 -0.000441 0.000113 0.000000 0.000000 0.000000
# 2 -0.000441 0.005664 -0.004016 0.000000 0.000000 0.000000
# 3 0.000113 -0.004016 0.009249 0.000000 0.000000 0.000000
# 4 0.000000 0.000000 0.000000 0.026576 0.000000 0.000000
# 5 0.000000 0.000000 0.000000 0.000000 0.019711 0.000000
# 6 0.000000 0.000000 0.000000 0.000000 0.000000 -0.322864
#
#
# Mechanical properties :
#
#
# Convention : Reuss Voigt Hill
#
# Bulk Modulus (GPa) = 57.90877 83.23595 70.57236
# Shear Modulus (GPa) = -21.17047 42.40257 10.61605
#
# Velocity S-wave (km/s) = -3.06770 4.34154 2.17235
# Velocity P-wave (km/s) = 3.63237 7.88241 6.13704
#
# Compressibility (1/GPa) = 0.01726854
#
# Stress axis : x y z
#
# Youngs Moduli (GPa) = 90.55783 176.56042 108.11920
#
# Poissons Ratio (x) = 0.07778 -0.01223
# Poissons Ratio (y) = 0.03990 0.43421
# Poissons Ratio (z) = -0.01025 0.70908
#
# Static dielectric constant tensor:
#      x y z
#    x 1.923580 0.000000 0.000000 
#    y 0.000000 1.990300 0.000000 
#    z 0.000000 0.000000 1.766300 
# 
# From -- ./inp_files/3055.got.cif
#   From: 2010.05.17/outbox.cif.g08.bks.cpg/sg71_2_cif.got.tgz:3055.got - 2010.06.03 16:22:01.
