data_PCOD9523002
_publ_section_title
;
Structure prediction by ZEFSAII (Michael W. Deem and Ramdas Pophale) SiO2 
 PCOD9523002
Probable space group: I M M M
;
_chemical_formula_sum "Si O2"
_cell_formula_units_Z 72
_cell_length_a 15.065720
_cell_length_b 27.413440
_cell_length_c 8.853716
_cell_angle_alpha 90.000000
_cell_angle_beta 90.000000
_cell_angle_gamma 90.000000
_cell_volume 3656.613140
_symmetry_space_group_name_H-M "I M M M"
_symmetry_group_IT_number 71
_symmetry_cell_setting 'orthorhombic'
loop_
_space_group_symop_operation_xyz
x,y,z
-x,-y,z
x,-y,-z
-x,y,-z
-x,-y,-z
x,y,-z
-x,y,z
x,-y,z
1/2+x,1/2+y,1/2+z
1/2-x,1/2-y,1/2+z
1/2+x,1/2-y,1/2-z
1/2-x,1/2+y,1/2-z
1/2-x,1/2-y,1/2-z
1/2+x,1/2+y,1/2-z
1/2-x,1/2+y,1/2+z
1/2+x,1/2-y,1/2+z
loop_
_atom_site_type_symbol
_atom_site_label
_atom_site_fract_x
_atom_site_fract_y
_atom_site_fract_z
Si Si1 0.159635 0.230128 0.177246
Si Si2 0.725697 0.909431 0.179471
Si Si3 0.397219 0.000000 0.184159
Si Si4 0.601110 0.628003 0.819221
Si Si5 0.597188 0.163980 0.322726
O O1 0.250000 0.250000 0.250000
O O2 0.122756 0.182312 0.258302
O O3 0.098011 0.277713 0.190264
O O4 0.172143 0.219065 0.000000
O O5 0.660380 0.952936 0.230490
O O6 0.822434 0.906964 0.253986
O O7 0.673895 0.860322 0.225574
O O8 0.735847 0.912487 0.000000
O O9 0.500000 0.000000 0.236355
O O10 0.400365 0.000000 0.000000
O O11 0.500000 0.615111 0.775706
O O12 0.607121 0.628464 0.000000
O O13 0.612868 0.152759 0.500000
O O14 0.500000 0.145023 0.278253
#
# Coordination Sequence:
#
# PCOD9523002 Si02
#       5
#    16  16   8  16  16
#     4  11  21  35  57  85 120 161 202 244 292 344
#     4  11  22  38  63  89 116 152 194 245 300 357
#     4   9  20  40  64  93 124 150 183 235 300 365
#     4  11  24  41  60  84 119 162 205 249 296 349
#     4  10  21  36  55  82 119 157 193 238 290 347
#
# _framework density 19.690353000000002
#
# number of rings (size 3 to 8) (size 9 to 14) (size 15 to 20)
#    0.000    1.444    2.222    3.333    0.000    4.889 
#    0.000    2.778    0.000    7.333    0.000    0.000 
#    0.000    0.000    0.000    0.000    0.000    0.000 
#
# Total GULP energy -201066.195603 kJ/mol
# GULP energy per Si atom -5585.172100 kJ/mol
# Density = 1.964554 g / cm^3
# Si number density = 19.690353 Si / 1000 Ang^3
#
#
#
# Elastic Constant Matrix: (Units=GPa)
#
#
# Indices 1 2 3 4 5 6 
#
# 1 194.3070 51.5688 60.1503 0.0000 0.0000 0.0000
# 2 51.5688 77.2906 20.8050 -0.0005 0.0002 -0.0001
# 3 60.1503 20.8050 57.4084 -0.0038 0.0012 -0.0009
# 4 0.0000 -0.0005 -0.0038 19.2952 0.0001 0.0000
# 5 0.0000 0.0002 0.0012 0.0001 28.2146 0.0000
# 6 0.0000 -0.0001 -0.0009 0.0000 0.0000 26.6508
#
#
#
# Elastic Compliance Matrix: (Units=1/GPa)
#
#
# Indices 1 2 3 4 5 6 
#
# 1 0.008433 -0.003599 -0.007532 -0.000002 0.000000 0.000000
# 2 -0.003599 0.015873 -0.001981 0.000000 0.000000 0.000000
# 3 -0.007532 -0.001981 0.026028 0.000005 -0.000001 0.000001
# 4 -0.000002 0.000000 0.000005 0.051826 0.000000 0.000000
# 5 0.000000 0.000000 -0.000001 0.000000 0.035443 0.000000
# 6 0.000000 0.000000 0.000001 0.000000 0.000000 0.037522
#
#
# Mechanical properties :
#
#
# Convention : Reuss Voigt Hill
#
# Bulk Modulus (GPa) = 41.47592 66.00601 53.74097
# Shear Modulus (GPa) = 23.87920 27.93090 25.90505
#
# Velocity S-wave (km/s) = 3.48621 3.77039 3.63108
# Velocity P-wave (km/s) = 6.10858 7.24909 6.70313
#
# Compressibility (1/GPa) = 0.02411038
#
# Stress axis : x y z
#
# Youngs Moduli (GPa) = 118.57762 63.00010 38.41956
#
# Poissons Ratio (x) = 0.22676 0.28936
# Poissons Ratio (y) = 0.42681 0.07611
# Poissons Ratio (z) = 0.89309 0.12481
#
# Static dielectric constant tensor:
#      x y z
#    x 1.733640 0.000000 0.000000 
#    y 0.000000 1.703770 0.000000 
#    z 0.000000 0.000000 1.668200 
# 
# From -- ./inp_files/6026.got.cif
#   From: 2010.05.17/outbox.cif.g08.bks.cpg/sg71_4_cif.got.tgz:6026.got - 2010.06.03 16:22:01.
