data_PCOD9523368
_publ_section_title
;
Structure prediction by ZEFSAII (Michael W. Deem and Ramdas Pophale) SiO2 
 PCOD9523368
Probable space group: I M M M
;
_chemical_formula_sum "Si O2"
_cell_formula_units_Z 64
_cell_length_a 18.221791
_cell_length_b 21.071430
_cell_length_c 8.867954
_cell_angle_alpha 90.000000
_cell_angle_beta 90.000000
_cell_angle_gamma 90.000000
_cell_volume 3404.932466
_symmetry_space_group_name_H-M "I M M M"
_symmetry_group_IT_number 71
_symmetry_cell_setting 'orthorhombic'
loop_
_space_group_symop_operation_xyz
x,y,z
-x,-y,z
x,-y,-z
-x,y,-z
-x,-y,-z
x,y,-z
-x,y,z
x,-y,z
1/2+x,1/2+y,1/2+z
1/2-x,1/2-y,1/2+z
1/2+x,1/2-y,1/2-z
1/2-x,1/2+y,1/2-z
1/2-x,1/2-y,1/2-z
1/2+x,1/2+y,1/2-z
1/2-x,1/2+y,1/2+z
1/2+x,1/2-y,1/2+z
loop_
_atom_site_type_symbol
_atom_site_label
_atom_site_fract_x
_atom_site_fract_y
_atom_site_fract_z
Si Si1 0.336744 0.623465 0.319282
Si Si2 0.914475 0.500000 0.819397
Si Si3 0.086530 0.000000 0.680630
Si Si4 0.835415 0.622046 0.681507
Si Si5 0.413767 0.746398 0.181550
O O1 0.342635 0.620457 0.500000
O O2 0.375559 0.562346 0.247919
O O3 0.250546 0.623884 0.279088
O O4 0.375161 0.686884 0.259081
O O5 0.874785 0.562302 0.756096
O O6 0.000000 0.500000 0.773822
O O7 0.910634 0.500000 0.000000
O O8 0.094071 0.000000 0.500000
O O9 0.000000 0.000000 0.717142
O O10 0.841146 0.615819 0.500000
O O11 0.874656 0.687810 0.724940
O O12 0.500000 0.748483 0.218886
O O13 0.407327 0.739568 0.000000
#
# Coordination Sequence:
#
# PCOD9523368 Si02
#       5
#    16   8   8  16  16
#     4  11  23  38  59  88 118 148 188 239 290 337
#     4  11  24  39  58  88 120 149 188 239 290 336
#     4  11  24  41  60  82 112 153 196 235 282 344
#     4  10  22  40  61  85 115 154 195 232 279 342
#     4  10  21  38  60  85 114 152 195 233 277 340
#
# _framework density 18.796261999999999
#
# number of rings (size 3 to 8) (size 9 to 14) (size 15 to 20)
#    0.000    1.500    0.000    4.500    0.000   12.500 
#    0.000    0.000    0.000    0.000    0.000    0.000 
#    0.000    0.000    0.000    0.000    0.000    0.000 
#
# Total GULP energy -178983.682164 kJ/mol
# GULP energy per Si atom -5593.240068 kJ/mol
# Density = 1.875348 g / cm^3
# Si number density = 18.796262 Si / 1000 Ang^3
#
#
#
# Elastic Constant Matrix: (Units=GPa)
#
#
# Indices 1 2 3 4 5 6 
#
# 1 223.7509 147.8466 81.7343 0.0000 0.0000 0.0000
# 2 147.8466 234.3248 72.4943 0.0000 0.0000 0.0000
# 3 81.7343 72.4943 41.2538 0.0000 0.0000 0.0000
# 4 0.0000 0.0000 0.0000 -273.8157 0.0000 0.0000
# 5 0.0000 0.0000 0.0000 0.0000 21.3198 0.0000
# 6 0.0000 0.0000 0.0000 0.0000 0.0000 46.0837
#
#
#
# Elastic Compliance Matrix: (Units=1/GPa)
#
#
# Indices 1 2 3 4 5 6 
#
# 1 0.016221 -0.000640 -0.031014 0.000000 0.000000 0.000000
# 2 -0.000640 0.009377 -0.015211 0.000000 0.000000 0.000000
# 3 -0.031014 -0.015211 0.112416 0.000000 0.000000 0.000000
# 4 0.000000 0.000000 0.000000 -0.003652 0.000000 0.000000
# 5 0.000000 0.000000 0.000000 0.000000 0.046905 0.000000
# 6 0.000000 0.000000 0.000000 0.000000 0.000000 0.021700
#
#
# Mechanical properties :
#
#
# Convention : Reuss Voigt Hill
#
# Bulk Modulus (GPa) = 22.58064 122.60888 72.59476
# Shear Modulus (GPa) = 16.05355 -28.13216 -6.03931
#
# Velocity S-wave (km/s) = 2.92564 -3.87290 -1.79444
# Velocity P-wave (km/s) = 4.84272 6.73594 5.86621
#
# Compressibility (1/GPa) = 0.04428573
#
# Stress axis : x y z
#
# Youngs Moduli (GPa) = 61.64784 106.64473 8.89550
#
# Poissons Ratio (x) = 0.06822 0.27589
# Poissons Ratio (y) = 0.03943 0.13530
# Poissons Ratio (z) = 1.91196 1.62212
#
# Static dielectric constant tensor:
#      x y z
#    x 1.629150 0.000000 0.000000 
#    y 0.000000 1.598850 0.000000 
#    z 0.000000 0.000000 1.630630 
# 
# From -- ./inp_files/7546.got.cif
#   From: 2010.05.17/outbox.cif.g08.bks.cpg/sg71_4_cif.got.tgz:7546.got - 2010.06.03 16:22:01.
