data_PCOD9523164
_publ_section_title
;
Structure prediction by ZEFSAII (Michael W. Deem and Ramdas Pophale) SiO2 
 PCOD9523164
Probable space group: I M M M
;
_chemical_formula_sum "Si O2"
_cell_formula_units_Z 96
_cell_length_a 20.440343
_cell_length_b 8.795461
_cell_length_c 27.868938
_cell_angle_alpha 90.000000
_cell_angle_beta 90.000000
_cell_angle_gamma 90.000000
_cell_volume 5010.340091
_symmetry_space_group_name_H-M "I M M M"
_symmetry_group_IT_number 71
_symmetry_cell_setting 'orthorhombic'
loop_
_space_group_symop_operation_xyz
x,y,z
-x,-y,z
x,-y,-z
-x,y,-z
-x,-y,-z
x,y,-z
-x,y,z
x,-y,z
1/2+x,1/2+y,1/2+z
1/2-x,1/2-y,1/2+z
1/2+x,1/2-y,1/2-z
1/2-x,1/2+y,1/2-z
1/2-x,1/2-y,1/2-z
1/2+x,1/2+y,1/2-z
1/2-x,1/2+y,1/2+z
1/2+x,1/2-y,1/2+z
loop_
_atom_site_type_symbol
_atom_site_label
_atom_site_fract_x
_atom_site_fract_y
_atom_site_fract_z
Si Si1 0.424893 0.817499 0.056623
Si Si2 0.204115 0.682536 0.708570
Si Si3 0.322355 0.316784 0.445695
Si Si4 0.799414 0.819484 0.605022
Si Si5 0.574133 0.817164 0.739215
Si Si6 0.075455 0.183057 0.864491
O O1 0.500000 0.777168 0.068717
O O2 0.370680 0.736636 0.088417
O O3 0.418367 0.000000 0.062233
O O4 0.414917 0.783419 0.000000
O O5 0.210514 0.500000 0.707731
O O6 0.250000 0.750000 0.750000
O O7 0.218997 0.748785 0.656484
O O8 0.129461 0.724057 0.722678
O O9 0.342332 0.280105 0.500000
O O10 0.315427 0.500000 0.442376
O O11 0.253550 0.241852 0.432759
O O12 0.375845 0.268133 0.406458
O O13 0.797369 0.000000 0.607701
O O14 0.500000 0.766098 0.750614
O O15 0.592636 0.751791 0.687169
O O16 0.573507 0.000000 0.735921
O O17 0.000000 0.225078 0.874836
O O18 0.078593 0.000000 0.860984
#
# Coordination Sequence:
#
# PCOD9523164 Si02
#       6
#    16  16  16  16  16  16
#     4   9  19  38  63  87 112 146 187 230 280 338
#     4  11  23  39  59  82 110 145 186 233 281 332
#     4  10  21  37  57  80 109 147 188 230 277 330
#     4  12  25  38  55  82 115 149 186 231 280 332
#     4   9  19  36  57  80 106 139 178 218 264 321
#     4   9  18  33  55  83 112 142 178 223 274 325
#
# _framework density 19.160375999999999
#
# number of rings (size 3 to 8) (size 9 to 14) (size 15 to 20)
#    0.000    2.000    0.000    4.000    0.000    8.667 
#    0.000    4.167    0.000    0.000    0.000    3.500 
#    0.000    0.000    0.000    0.000    0.000    0.000 
#
# Total GULP energy -268161.765154 kJ/mol
# GULP energy per Si atom -5586.703441 kJ/mol
# Density = 1.911677 g / cm^3
# Si number density = 19.160376 Si / 1000 Ang^3
#
#
#
# Elastic Constant Matrix: (Units=GPa)
#
#
# Indices 1 2 3 4 5 6 
#
# 1 38.2198 11.4307 1.2799 0.0000 0.0000 0.0000
# 2 11.4307 21.9468 10.0126 0.0000 0.0000 0.0000
# 3 1.2799 10.0126 30.6272 0.0000 0.0000 0.0000
# 4 0.0000 0.0000 0.0000 27.1531 0.0000 0.0000
# 5 0.0000 0.0000 0.0000 0.0000 38.1296 0.0000
# 6 0.0000 0.0000 0.0000 0.0000 0.0000 22.6930
#
#
#
# Elastic Compliance Matrix: (Units=1/GPa)
#
#
# Indices 1 2 3 4 5 6 
#
# 1 0.031574 -0.018620 0.004768 0.000000 0.000000 0.000000
# 2 -0.018620 0.064533 -0.020319 0.000000 0.000000 0.000000
# 3 0.004768 -0.020319 0.039094 0.000000 0.000000 0.000000
# 4 0.000000 0.000000 0.000000 0.036828 0.000000 0.000000
# 5 0.000000 0.000000 0.000000 0.000000 0.026226 0.000000
# 6 0.000000 0.000000 0.000000 0.000000 0.000000 0.044067
#
#
# Mechanical properties :
#
#
# Convention : Reuss Voigt Hill
#
# Bulk Modulus (GPa) = 14.95697 15.13779 15.04738
# Shear Modulus (GPa) = 15.01732 22.13318 18.57525
#
# Velocity S-wave (km/s) = 2.80263 3.40244 3.11700
# Velocity P-wave (km/s) = 4.27739 4.83252 4.56340
#
# Compressibility (1/GPa) = 0.06685844
#
# Stress axis : x y z
#
# Youngs Moduli (GPa) = 31.67211 15.49606 25.57939
#
# Poissons Ratio (x) = 0.28853 -0.12196
# Poissons Ratio (y) = 0.58973 0.51974
# Poissons Ratio (z) = -0.15100 0.31486
#
# Static dielectric constant tensor:
#      x y z
#    x 1.677730 0.000000 0.000000 
#    y 0.000000 1.640760 0.000000 
#    z 0.000000 0.000000 1.634630 
# 
# From -- ./inp_files/10863.got.cif
#   From: 2010.05.17/outbox.cif.g08.bks.cpg/sg71_6_cif.got.tgz:10863.got - 2010.06.03 16:22:01.
