data_PCOD9523364
_publ_section_title
;
Structure prediction by ZEFSAII (Michael W. Deem and Ramdas Pophale) SiO2 
 PCOD9523364
Probable space group: I M M M
;
_chemical_formula_sum "Si O2"
_cell_formula_units_Z 72
_cell_length_a 22.630616
_cell_length_b 19.709058
_cell_length_c 8.827322
_cell_angle_alpha 90.000000
_cell_angle_beta 90.000000
_cell_angle_gamma 90.000000
_cell_volume 3937.233866
_symmetry_space_group_name_H-M "I M M M"
_symmetry_group_IT_number 71
_symmetry_cell_setting 'orthorhombic'
loop_
_space_group_symop_operation_xyz
x,y,z
-x,-y,z
x,-y,-z
-x,y,-z
-x,-y,-z
x,y,-z
-x,y,z
x,-y,z
1/2+x,1/2+y,1/2+z
1/2-x,1/2-y,1/2+z
1/2+x,1/2-y,1/2-z
1/2-x,1/2+y,1/2-z
1/2-x,1/2-y,1/2-z
1/2+x,1/2+y,1/2-z
1/2-x,1/2+y,1/2+z
1/2+x,1/2-y,1/2+z
loop_
_atom_site_type_symbol
_atom_site_label
_atom_site_fract_x
_atom_site_fract_y
_atom_site_fract_z
Si Si1 0.151039 0.922342 0.817901
Si Si2 0.000000 0.580887 0.179513
Si Si3 0.888370 0.341745 0.319391
Si Si4 0.430986 0.702501 0.317343
Si Si5 0.779357 0.579508 0.180731
O O1 0.101637 0.867470 0.777143
O O2 0.213430 0.906308 0.739743
O O3 0.134786 0.000000 0.778395
O O4 0.159170 0.919654 0.000000
O O5 0.942153 0.613639 0.253238
O O6 0.000000 0.500000 0.199266
O O7 0.000000 0.595991 0.000000
O O8 0.889880 0.343003 0.500000
O O9 0.898767 0.265886 0.259034
O O10 0.827579 0.373450 0.259334
O O11 0.428071 0.710362 0.500000
O O12 0.500000 0.702251 0.274301
O O13 0.791989 0.500000 0.215383
O O14 0.782275 0.587951 0.000000
#
# Coordination Sequence:
#
# PCOD9523364 Si02
#       5
#    16   8  16  16  16
#     4   9  19  37  61  89 117 147 191 244 293 344
#     4  11  23  39  59  83 114 153 194 235 283 342
#     4  12  24  37  57  85 117 154 194 239 286 336
#     4  10  21  38  60  84 117 158 194 236 290 347
#     4  10  21  38  60  85 115 153 194 238 292 350
#
# _framework density 18.286950999999998
#
# number of rings (size 3 to 8) (size 9 to 14) (size 15 to 20)
#    0.000    1.667    1.111    3.667    0.000    7.111 
#    0.000    2.222    0.000    0.000    0.000    4.667 
#    0.000    0.000    0.000    0.000    0.000    0.000 
#
# Total GULP energy -201192.049152 kJ/mol
# GULP energy per Si atom -5588.668032 kJ/mol
# Density = 1.824533 g / cm^3
# Si number density = 18.286951 Si / 1000 Ang^3
#
#
#
# Elastic Constant Matrix: (Units=GPa)
#
#
# Indices 1 2 3 4 5 6 
#
# 1 96.5374 85.4154 49.1049 0.0000 0.0000 0.0000
# 2 85.4154 124.2971 63.2720 0.0000 0.0000 0.0000
# 3 49.1049 63.2720 61.6932 0.0000 0.0000 0.0000
# 4 0.0000 0.0000 0.0000 12.4657 0.0000 0.0000
# 5 0.0000 0.0000 0.0000 0.0000 24.8973 0.0000
# 6 0.0000 0.0000 0.0000 0.0000 0.0000 48.6072
#
#
#
# Elastic Compliance Matrix: (Units=1/GPa)
#
#
# Indices 1 2 3 4 5 6 
#
# 1 0.027198 -0.016049 -0.005189 0.000000 0.000000 0.000000
# 2 -0.016049 0.026303 -0.014202 0.000000 0.000000 0.000000
# 3 -0.005189 -0.014202 0.034905 0.000000 0.000000 0.000000
# 4 0.000000 0.000000 0.000000 0.080220 0.000000 0.000000
# 5 0.000000 0.000000 0.000000 0.000000 0.040165 0.000000
# 6 0.000000 0.000000 0.000000 0.000000 0.000000 0.020573
#
#
# Mechanical properties :
#
#
# Convention : Reuss Voigt Hill
#
# Bulk Modulus (GPa) = 57.05666 75.34582 66.20124
# Shear Modulus (GPa) = 16.33527 22.84305 19.58916
#
# Velocity S-wave (km/s) = 2.99201 3.53816 3.27648
# Velocity P-wave (km/s) = 6.57303 7.61465 7.11293
#
# Compressibility (1/GPa) = 0.01752644
#
# Stress axis : x y z
#
# Youngs Moduli (GPa) = 36.76776 38.01815 28.64920
#
# Poissons Ratio (x) = 0.61014 0.14865
# Poissons Ratio (y) = 0.59007 0.40689
# Poissons Ratio (z) = 0.19078 0.53995
#
# Static dielectric constant tensor:
#      x y z
#    x 1.592190 0.000000 0.000000 
#    y 0.000000 1.618390 0.000000 
#    z 0.000000 0.000000 1.608650 
# 
# From -- ./inp_files/9901.got.cif
#   From: 2010.05.17/outbox.cif.g08.bks.cpg/sg71_5_cif.got.tgz:9901.got - 2010.06.03 16:22:01.
