data_PCOD9523099
_publ_section_title
;
Structure prediction by ZEFSAII (Michael W. Deem and Ramdas Pophale) SiO2 
 PCOD9523099
Probable space group: I M M M
;
_chemical_formula_sum "Si O2"
_cell_formula_units_Z 50
_cell_length_a 10.248444
_cell_length_b 21.354570
_cell_length_c 13.830226
_cell_angle_alpha 90.000000
_cell_angle_beta 90.000000
_cell_angle_gamma 90.000000
_cell_volume 3026.760378
_symmetry_space_group_name_H-M "I M M M"
_symmetry_group_IT_number 71
_symmetry_cell_setting 'orthorhombic'
loop_
_space_group_symop_operation_xyz
x,y,z
-x,-y,z
x,-y,-z
-x,y,-z
-x,-y,-z
x,y,-z
-x,y,z
x,-y,z
1/2+x,1/2+y,1/2+z
1/2-x,1/2-y,1/2+z
1/2+x,1/2-y,1/2-z
1/2-x,1/2+y,1/2-z
1/2-x,1/2-y,1/2-z
1/2+x,1/2+y,1/2-z
1/2-x,1/2+y,1/2+z
1/2+x,1/2-y,1/2+z
loop_
_atom_site_type_symbol
_atom_site_label
_atom_site_fract_x
_atom_site_fract_y
_atom_site_fract_z
Si Si1 0.500000 0.500000 0.000000
Si Si2 0.344945 0.769155 0.111503
Si Si3 0.738827 0.146916 0.713551
Si Si4 0.500000 0.569053 0.201065
Si Si5 0.000000 0.425131 0.115310
O O1 0.500000 0.446442 0.913801
O O2 0.500000 0.757543 0.120288
O O3 0.307366 0.824605 0.184487
O O4 0.270794 0.706835 0.146348
O O5 0.315153 0.783211 0.000000
O O6 0.627095 0.105404 0.663992
O O7 0.870347 0.107185 0.724994
O O8 0.500000 0.500000 0.248281
O O9 0.000000 0.500000 0.129141
O O10 0.000000 0.413292 0.000000
#
# Coordination Sequence:
#
# PCOD9523099 Si02
#       5
#     2  16  16   8   8
#     4   8  24  32  60  94 102 160 188 214 282 356
#     4  10  21  36  60  83 111 152 190 232 280 334
#     4  11  21  38  56  87 114 147 188 234 282 337
#     4  10  22  35  59  82 116 145 188 224 281 341
#     4  11  24  35  54  83 120 149 181 233 290 334
#
# _framework density 16.519310999999998
#
# number of rings (size 3 to 8) (size 9 to 14) (size 15 to 20)
#    0.480    1.120    3.200    1.920    4.480    0.000 
#    0.000    2.400    0.000    5.760    0.000    0.000 
#    0.000    0.000    0.000    0.000    0.000    0.000 
#
# Total GULP energy -139229.327053 kJ/mol
# GULP energy per Si atom -5569.173082 kJ/mol
# Density = 1.648171 g / cm^3
# Si number density = 16.519311 Si / 1000 Ang^3
#
#
#
# Elastic Constant Matrix: (Units=GPa)
#
#
# Indices 1 2 3 4 5 6 
#
# 1 129.2250 66.3147 61.2761 0.0000 0.0000 0.0000
# 2 66.3147 116.1570 68.7015 -0.0001 0.0000 0.0000
# 3 61.2761 68.7015 137.8677 -0.0001 0.0000 0.0000
# 4 0.0000 -0.0001 -0.0001 20.7344 0.0000 0.0000
# 5 0.0000 0.0000 0.0000 0.0000 16.5978 0.0000
# 6 0.0000 0.0000 0.0000 0.0000 0.0000 3.1912
#
#
#
# Elastic Compliance Matrix: (Units=1/GPa)
#
#
# Indices 1 2 3 4 5 6 
#
# 1 0.011579 -0.005057 -0.002626 0.000000 0.000000 0.000000
# 2 -0.005057 0.014415 -0.004936 0.000000 0.000000 0.000000
# 3 -0.002626 -0.004936 0.010880 0.000000 0.000000 0.000000
# 4 0.000000 0.000000 0.000000 0.048229 0.000000 0.000000
# 5 0.000000 0.000000 0.000000 0.000000 0.060249 0.000000
# 6 0.000000 0.000000 0.000000 0.000000 0.000000 0.313364
#
#
# Mechanical properties :
#
#
# Convention : Reuss Voigt Hill
#
# Bulk Modulus (GPa) = 85.93878 86.20380 86.07129
# Shear Modulus (GPa) = 10.24940 20.56850 15.40895
#
# Velocity S-wave (km/s) = 2.49358 3.53245 3.05746
# Velocity P-wave (km/s) = 7.77347 8.30268 8.04243
#
# Compressibility (1/GPa) = 0.01163619
#
# Stress axis : x y z
#
# Youngs Moduli (GPa) = 86.36335 69.36981 91.91056
#
# Poissons Ratio (x) = 0.35082 0.24138
# Poissons Ratio (y) = 0.43676 0.45365
# Poissons Ratio (z) = 0.22681 0.34239
#
# Static dielectric constant tensor:
#      x y z
#    x 1.548230 0.000000 0.000000 
#    y 0.000000 1.548290 0.000000 
#    z 0.000000 0.000000 1.528300 
# 
# From -- ./inp_files/30921.got.cif
#   From: 2010.05.17/outbox.cif.g08.bks.cpg/sg71_16_cif.got.tgz:30921.got - 2010.06.03 16:22:01.
