data_PCOD9523993
_publ_section_title
;
Structure prediction by ZEFSAII (Michael W. Deem and Ramdas Pophale) SiO2 
 PCOD9523993
Probable space group: I M M M
;
_chemical_formula_sum "Si O2"
_cell_formula_units_Z 80
_cell_length_a 8.233117
_cell_length_b 34.510738
_cell_length_c 19.980775
_cell_angle_alpha 90.000000
_cell_angle_beta 90.000000
_cell_angle_gamma 90.000000
_cell_volume 5677.156457
_symmetry_space_group_name_H-M "I M M M"
_symmetry_group_IT_number 71
_symmetry_cell_setting 'orthorhombic'
loop_
_space_group_symop_operation_xyz
x,y,z
-x,-y,z
x,-y,-z
-x,y,-z
-x,-y,-z
x,y,-z
-x,y,z
x,-y,z
1/2+x,1/2+y,1/2+z
1/2-x,1/2-y,1/2+z
1/2+x,1/2-y,1/2-z
1/2-x,1/2+y,1/2-z
1/2-x,1/2-y,1/2-z
1/2+x,1/2+y,1/2-z
1/2-x,1/2+y,1/2+z
1/2+x,1/2-y,1/2+z
loop_
_atom_site_type_symbol
_atom_site_label
_atom_site_fract_x
_atom_site_fract_y
_atom_site_fract_z
Si Si1 0.696660 0.310055 0.222987
Si Si2 0.196433 0.766771 0.853263
Si Si3 0.697911 0.255037 0.500000
Si Si4 0.693168 0.378589 0.866025
Si Si5 0.804981 0.664617 0.000000
Si Si6 0.804599 0.543620 0.923350
O O1 0.500000 0.310259 0.223211
O O2 0.751408 0.275527 0.173500
O O3 0.752301 0.297378 0.297079
O O4 0.754500 0.351189 0.194238
O O5 0.000000 0.767305 0.853776
O O6 0.253635 0.772628 0.929342
O O7 0.500000 0.256605 0.500000
O O8 0.743188 0.209634 0.500000
O O9 0.500000 0.379954 0.861524
O O10 0.741757 0.356548 0.934069
O O11 0.753871 0.422322 0.873981
O O12 0.000000 0.662462 0.000000
O O13 0.749489 0.500000 0.906180
O O14 0.000000 0.543208 0.925451
O O15 0.748683 0.552059 0.000000
#
# Coordination Sequence:
#
# PCOD9523993 Si02
#       6
#    16  16   8  16   8  16
#     4   9  18  28  38  54  78 101 123 157 196 229
#     4   9  16  28  41  54  73  99 131 162 190 222
#     4   9  16  25  41  58  70  95 136 170 190 215
#     4  11  20  28  39  58  79 101 127 159 198 234
#     4  11  19  27  38  56  75  99 135 169 193 218
#     4   9  18  31  44  57  74  98 128 160 192 225
#
# _framework density 14.091562
#
# number of rings (size 3 to 8) (size 9 to 14) (size 15 to 20)
#    0.000    2.400    3.000    1.500    0.000    1.200 
#    0.000    1.500    0.000    0.000    0.000    0.000 
#    0.000    0.000    0.000    0.900    0.000   22.000 
#
# Total GULP energy -222853.800829 kJ/mol
# GULP energy per Si atom -5571.345021 kJ/mol
# Density = 1.405949 g / cm^3
# Si number density = 14.091562 Si / 1000 Ang^3
#
#
#
# Elastic Constant Matrix: (Units=GPa)
#
#
# Indices 1 2 3 4 5 6 
#
# 1 7.9728 13.3654 6.2967 0.0000 0.0000 0.0000
# 2 13.3654 108.6856 58.2306 0.0000 0.0000 0.0000
# 3 6.2967 58.2306 111.0174 0.0000 0.0000 0.0000
# 4 0.0000 0.0000 0.0000 25.0084 0.0000 0.0000
# 5 0.0000 0.0000 0.0000 0.0000 9.2808 0.0000
# 6 0.0000 0.0000 0.0000 0.0000 0.0000 15.9167
#
#
#
# Elastic Compliance Matrix: (Units=1/GPa)
#
#
# Indices 1 2 3 4 5 6 
#
# 1 0.158231 -0.020376 0.001713 0.000000 0.000000 0.000000
# 2 -0.020376 0.015421 -0.006933 0.000000 0.000000 0.000000
# 3 0.001713 -0.006933 0.012547 0.000000 0.000000 0.000000
# 4 0.000000 0.000000 0.000000 0.039987 0.000000 0.000000
# 5 0.000000 0.000000 0.000000 0.000000 0.107750 0.000000
# 6 0.000000 0.000000 0.000000 0.000000 0.000000 0.062827
#
#
# Mechanical properties :
#
#
# Convention : Reuss Voigt Hill
#
# Bulk Modulus (GPa) = 7.40702 42.60681 25.00692
# Shear Modulus (GPa) = 10.14289 20.02670 15.08479
#
# Velocity S-wave (km/s) = 2.68579 3.77395 3.27537
# Velocity P-wave (km/s) = 3.85820 7.02080 5.66468
#
# Compressibility (1/GPa) = 0.13500707
#
# Stress axis : x y z
#
# Youngs Moduli (GPa) = 6.31988 64.84661 79.70108
#
# Poissons Ratio (x) = 1.32131 -0.13652
# Poissons Ratio (y) = 0.12877 0.55256
# Poissons Ratio (z) = -0.01083 0.44958
#
# Static dielectric constant tensor:
#      x y z
#    x 1.488710 0.000000 0.000000 
#    y 0.000000 1.470570 0.000000 
#    z 0.000000 0.000000 1.480290 
# 
# From -- ./inp_files/51020.got.cif
#   From: 2010.05.17/outbox.cif.g08.bks.cpg/sg71_26_cif.got.tgz:51020.got - 2010.06.03 16:22:01.
