data_PCOD9523931
_publ_section_title
;
Structure prediction by ZEFSAII (Michael W. Deem and Ramdas Pophale) SiO2 
 PCOD9523931
Probable space group: I M M M
;
_chemical_formula_sum "Si O2"
_cell_formula_units_Z 58
_cell_length_a 25.348767
_cell_length_b 13.993198
_cell_length_c 8.885893
_cell_angle_alpha 90.000000
_cell_angle_beta 90.000000
_cell_angle_gamma 90.000000
_cell_volume 3151.917911
_symmetry_space_group_name_H-M "I M M M"
_symmetry_group_IT_number 71
_symmetry_cell_setting 'orthorhombic'
loop_
_space_group_symop_operation_xyz
x,y,z
-x,-y,z
x,-y,-z
-x,y,-z
-x,-y,-z
x,y,-z
-x,y,z
x,-y,z
1/2+x,1/2+y,1/2+z
1/2-x,1/2-y,1/2+z
1/2+x,1/2-y,1/2-z
1/2-x,1/2+y,1/2-z
1/2-x,1/2-y,1/2-z
1/2+x,1/2+y,1/2-z
1/2-x,1/2+y,1/2+z
1/2+x,1/2-y,1/2+z
loop_
_atom_site_type_symbol
_atom_site_label
_atom_site_fract_x
_atom_site_fract_y
_atom_site_fract_z
Si Si1 0.000000 0.500000 0.000000
Si Si2 0.294926 0.186401 0.175829
Si Si3 0.242520 0.500000 0.821868
Si Si4 0.860762 0.000000 0.180424
Si Si5 0.097491 0.194754 0.323769
Si Si6 0.500000 0.797783 0.333254
O O1 0.000000 0.412076 0.869929
O O2 0.250000 0.250000 0.250000
O O3 0.291252 0.089733 0.268233
O O4 0.349611 0.241956 0.186843
O O5 0.283573 0.168433 0.000000
O O6 0.300526 0.500000 0.744681
O O7 0.251032 0.500000 0.000000
O O8 0.890189 0.094950 0.240450
O O9 0.858696 0.000000 0.000000
O O10 0.086986 0.175367 0.500000
O O11 0.050821 0.257316 0.252832
O O12 0.500000 0.752588 0.500000
#
# Coordination Sequence:
#
# PCOD9523931 Si02
#       6
#     2  16   8   8  16   8
#     4   8  24  48  74  94 136 160 226 284 320 388
#     4  11  23  39  62  92 131 176 223 275 332 399
#     4  12  24  39  60  91 133 178 226 275 335 399
#     4  12  24  39  66  99 136 179 218 272 334 403
#     4  11  24  43  68  98 136 174 223 276 335 398
#     4  10  23  46  72  98 129 173 216 273 332 387
#
# _framework density 18.401496000000002
#
# number of rings (size 3 to 8) (size 9 to 14) (size 15 to 20)
#    0.414    0.552    2.759    4.552    0.000    4.966 
#    2.483    5.517    0.000    0.000    0.000    0.000 
#    0.000    0.000    0.000    0.000    0.000    0.000 
#
# Total GULP energy -161664.880838 kJ/mol
# GULP energy per Si atom -5574.651063 kJ/mol
# Density = 1.835961 g / cm^3
# Si number density = 18.401496 Si / 1000 Ang^3
#
#
#
# Elastic Constant Matrix: (Units=GPa)
#
#
# Indices 1 2 3 4 5 6 
#
# 1 78.6981 30.9623 70.1685 0.0000 0.0000 0.0000
# 2 30.9623 159.7628 83.1016 0.0000 0.0000 0.0000
# 3 70.1685 83.1016 193.2770 0.0000 0.0000 0.0000
# 4 0.0000 0.0000 0.0000 36.3767 0.0000 0.0000
# 5 0.0000 0.0000 0.0000 0.0000 32.2451 0.0000
# 6 0.0000 0.0000 0.0000 0.0000 0.0000 14.4385
#
#
#
# Elastic Compliance Matrix: (Units=1/GPa)
#
#
# Indices 1 2 3 4 5 6 
#
# 1 0.018790 -0.000120 -0.006770 0.000000 0.000000 0.000000
# 2 -0.000120 0.008063 -0.003423 0.000000 0.000000 0.000000
# 3 -0.006770 -0.003423 0.009104 0.000000 0.000000 0.000000
# 4 0.000000 0.000000 0.000000 0.027490 0.000000 0.000000
# 5 0.000000 0.000000 0.000000 0.000000 0.031012 0.000000
# 6 0.000000 0.000000 0.000000 0.000000 0.000000 0.069259
#
#
# Mechanical properties :
#
#
# Convention : Reuss Voigt Hill
#
# Bulk Modulus (GPa) = 65.23041 88.91140 77.07091
# Shear Modulus (GPa) = 26.39131 33.11242 29.75186
#
# Velocity S-wave (km/s) = 3.79118 4.24658 4.02533
# Velocity P-wave (km/s) = 7.39523 8.51276 7.97360
#
# Compressibility (1/GPa) = 0.01533027
#
# Stress axis : x y z
#
# Youngs Moduli (GPa) = 53.21861 124.02057 109.84585
#
# Poissons Ratio (x) = 0.01489 0.74367
# Poissons Ratio (y) = 0.00639 0.37603
# Poissons Ratio (z) = 0.36030 0.42455
#
# Static dielectric constant tensor:
#      x y z
#    x 1.597090 0.000000 0.000000 
#    y 0.000000 1.571110 0.000000 
#    z 0.000000 0.000000 1.734510 
# 
# From -- ./inp_files/5143.got.cif
#   From: 2010.05.17/outbox.cif.g08.bks.cpg/sg71_3_cif.got.tgz:5143.got - 2010.06.03 16:22:01.
