data_PCOD9523341
_publ_section_title
;
Structure prediction by ZEFSAII (Michael W. Deem and Ramdas Pophale) SiO2 
 PCOD9523341
Probable space group: I M M M
;
_chemical_formula_sum "Si O2"
_cell_formula_units_Z 88
_cell_length_a 31.771419
_cell_length_b 8.631270
_cell_length_c 15.590218
_cell_angle_alpha 90.000000
_cell_angle_beta 90.000000
_cell_angle_gamma 90.000000
_cell_volume 4275.269557
_symmetry_space_group_name_H-M "I M M M"
_symmetry_group_IT_number 71
_symmetry_cell_setting 'orthorhombic'
loop_
_space_group_symop_operation_xyz
x,y,z
-x,-y,z
x,-y,-z
-x,y,-z
-x,-y,-z
x,y,-z
-x,y,z
x,-y,z
1/2+x,1/2+y,1/2+z
1/2-x,1/2-y,1/2+z
1/2+x,1/2-y,1/2-z
1/2-x,1/2+y,1/2-z
1/2-x,1/2-y,1/2-z
1/2+x,1/2+y,1/2-z
1/2-x,1/2+y,1/2+z
1/2+x,1/2-y,1/2+z
loop_
_atom_site_type_symbol
_atom_site_label
_atom_site_fract_x
_atom_site_fract_y
_atom_site_fract_z
Si Si1 0.656842 0.676447 0.500000
Si Si2 0.453034 0.812558 0.310247
Si Si3 0.196542 0.679492 0.663277
Si Si4 0.395925 0.314234 0.162144
Si Si5 0.216471 0.322691 0.866123
Si Si6 0.048059 0.188682 0.500000
Si Si7 0.432575 0.182241 0.500000
O O1 0.641929 0.500000 0.500000
O O2 0.685874 0.712074 0.418504
O O3 0.617179 0.789439 0.500000
O O4 0.500000 0.772371 0.278223
O O5 0.416939 0.744083 0.250206
O O6 0.449086 0.757200 0.408861
O O7 0.449102 0.000000 0.309776
O O8 0.198576 0.500000 0.637023
O O9 0.150527 0.747437 0.647662
O O10 0.205059 0.686720 0.765718
O O11 0.235138 0.772895 0.622110
O O12 0.393605 0.500000 0.163505
O O13 0.426539 0.264161 0.084697
O O14 0.210293 0.500000 0.893808
O O15 0.000000 0.244027 0.500000
O O16 0.047076 0.000000 0.500000
O O17 0.442851 0.000000 0.500000
#
# Coordination Sequence:
#
# PCOD9523341 Si02
#       7
#     8  16  16  16  16   8   8
#     4  12  24  36  54  83 116 149 189 237 283 331
#     4  10  21  38  60  86 116 151 192 239 292 349
#     4  10  21  38  59  84 114 147 185 233 286 340
#     4  11  22  37  60  86 114 151 194 239 288 346
#     4  10  21  38  59  81 111 151 190 229 279 340
#     4   9  20  39  59  80 109 147 190 234 283 339
#     4  10  21  38  59  83 116 157 195 232 284 353
#
# _framework density 20.583497000000001
#
# number of rings (size 3 to 8) (size 9 to 14) (size 15 to 20)
#    0.000    1.727    0.000    4.364    0.000   10.182 
#    0.000    4.545    0.000    4.909    0.000    0.000 
#    0.000    0.000    0.000    0.000    0.000    0.000 
#
# Total GULP energy -245945.212958 kJ/mol
# GULP energy per Si atom -5589.663931 kJ/mol
# Density = 2.053665 g / cm^3
# Si number density = 20.583497 Si / 1000 Ang^3
#
#
#
# Elastic Constant Matrix: (Units=GPa)
#
#
# Indices 1 2 3 4 5 6 
#
# 1 131.6822 4.3293 13.5468 0.0000 0.0000 0.0000
# 2 4.3293 38.9226 6.7840 0.0000 0.0000 0.0000
# 3 13.5468 6.7840 53.4973 0.0000 0.0000 0.0000
# 4 0.0000 0.0000 0.0000 3.2234 0.0000 0.0000
# 5 0.0000 0.0000 0.0000 0.0000 31.3496 0.0000
# 6 0.0000 0.0000 0.0000 0.0000 0.0000 26.4673
#
#
#
# Elastic Compliance Matrix: (Units=1/GPa)
#
#
# Indices 1 2 3 4 5 6 
#
# 1 0.007808 -0.000536 -0.001909 0.000000 0.000000 0.000000
# 2 -0.000536 0.026309 -0.003201 0.000000 0.000000 0.000000
# 3 -0.001909 -0.003201 0.019582 0.000000 0.000000 0.000000
# 4 0.000000 0.000000 0.000000 0.310236 0.000000 0.000000
# 5 0.000000 0.000000 0.000000 0.000000 0.031898 0.000000
# 6 0.000000 0.000000 0.000000 0.000000 0.000000 0.037783
#
#
# Mechanical properties :
#
#
# Convention : Reuss Voigt Hill
#
# Bulk Modulus (GPa) = 23.58037 30.38026 26.98032
# Shear Modulus (GPa) = 10.89221 25.50418 18.19820
#
# Velocity S-wave (km/s) = 2.30287 3.52385 2.97663
# Velocity P-wave (km/s) = 4.30718 5.59895 4.99500
#
# Compressibility (1/GPa) = 0.04240815
#
# Stress axis : x y z
#
# Youngs Moduli (GPa) = 128.07260 38.00918 51.06764
#
# Poissons Ratio (x) = 0.02036 0.09750
# Poissons Ratio (y) = 0.06861 0.16345
# Poissons Ratio (z) = 0.24452 0.12165
#
# Static dielectric constant tensor:
#      x y z
#    x 1.699630 0.000000 0.000000 
#    y 0.000000 1.705880 0.000000 
#    z 0.000000 0.000000 1.779250 
# 
# From -- ./inp_files/49293.got.cif
#   From: 2010.05.17/outbox.cif.g08.bks.cpg/sg71_25_cif.got.tgz:49293.got - 2010.06.03 16:22:01.
