data_PCOD9523755
_publ_section_title
;
Structure prediction by ZEFSAII (Michael W. Deem and Ramdas Pophale) SiO2 
 PCOD9523755
Probable space group: I M M M
;
_chemical_formula_sum "Si O2"
_cell_formula_units_Z 80
_cell_length_a 13.747932
_cell_length_b 18.621830
_cell_length_c 13.759316
_cell_angle_alpha 90.000000
_cell_angle_beta 90.000000
_cell_angle_gamma 90.000000
_cell_volume 3522.545227
_symmetry_space_group_name_H-M "I M M M"
_symmetry_group_IT_number 71
_symmetry_cell_setting 'orthorhombic'
loop_
_space_group_symop_operation_xyz
x,y,z
-x,-y,z
x,-y,-z
-x,y,-z
-x,-y,-z
x,y,-z
-x,y,z
x,-y,z
1/2+x,1/2+y,1/2+z
1/2-x,1/2-y,1/2+z
1/2+x,1/2-y,1/2-z
1/2-x,1/2+y,1/2-z
1/2-x,1/2-y,1/2-z
1/2+x,1/2+y,1/2-z
1/2-x,1/2+y,1/2+z
1/2+x,1/2-y,1/2+z
loop_
_atom_site_type_symbol
_atom_site_label
_atom_site_fract_x
_atom_site_fract_y
_atom_site_fract_z
Si Si1 0.885702 0.720092 0.179341
Si Si2 0.202614 0.138458 0.891418
Si Si3 0.117049 0.222633 0.604230
Si Si4 0.616628 0.579280 0.193209
Si Si5 0.613445 0.915207 0.783873
O O1 0.678344 0.723931 0.381149
O O2 0.865523 0.742369 0.291224
O O3 0.868036 0.634752 0.188655
O O4 0.000000 0.732077 0.156469
O O5 0.142346 0.102990 0.802991
O O6 0.311405 0.111255 0.866084
O O7 0.175771 0.115887 0.000000
O O8 0.149657 0.252367 0.500000
O O9 0.150916 0.140816 0.619941
O O10 0.000000 0.222283 0.599581
O O11 0.500000 0.577439 0.185821
O O12 0.655230 0.500000 0.173926
O O13 0.500000 0.902120 0.811060
O O14 0.625406 0.000000 0.767726
#
# Coordination Sequence:
#
# PCOD9523755 Si02
#       5
#    16  16  16  16  16
#     4   9  19  37  60  87 118 151 193 246 299 353
#     4  11  22  36  57  85 118 155 193 235 286 348
#     4   8  14  26  46  72 103 141 183 229 284 341
#     4   9  18  31  47  73 111 151 192 240 292 349
#     4  10  22  40  61  84 113 154 202 250 299 346
#
# _framework density 22.710851000000002
#
# number of rings (size 3 to 8) (size 9 to 14) (size 15 to 20)
#    0.000    2.600    0.000    3.000    0.000    4.800 
#    0.000    6.000    0.000    0.600    0.000    2.800 
#    0.000    0.000    0.000    2.800    0.000    3.200 
#
# Total GULP energy -223102.056703 kJ/mol
# GULP energy per Si atom -5577.551418 kJ/mol
# Density = 2.265916 g / cm^3
# Si number density = 22.710851 Si / 1000 Ang^3
#
#
#
# Elastic Constant Matrix: (Units=GPa)
#
#
# Indices 1 2 3 4 5 6 
#
# 1 98.6623 17.2438 19.8992 0.0000 0.0000 0.0000
# 2 17.2438 138.6678 -4.6191 0.0000 0.0000 0.0000
# 3 19.8992 -4.6191 35.0956 0.0000 0.0000 0.0000
# 4 0.0000 0.0000 0.0000 11.9938 0.0000 0.0000
# 5 0.0000 0.0000 0.0000 0.0000 26.1901 0.0000
# 6 0.0000 0.0000 0.0000 0.0000 0.0000 23.0588
#
#
#
# Elastic Compliance Matrix: (Units=1/GPa)
#
#
# Indices 1 2 3 4 5 6 
#
# 1 0.011831 -0.001702 -0.006932 0.000000 0.000000 0.000000
# 2 -0.001702 0.007488 0.001951 0.000000 0.000000 0.000000
# 3 -0.006932 0.001951 0.032681 0.000000 0.000000 0.000000
# 4 0.000000 0.000000 0.000000 0.083376 0.000000 0.000000
# 5 0.000000 0.000000 0.000000 0.000000 0.038182 0.000000
# 6 0.000000 0.000000 0.000000 0.000000 0.000000 0.043367
#
#
# Mechanical properties :
#
#
# Convention : Reuss Voigt Hill
#
# Bulk Modulus (GPa) = 25.88482 37.49707 31.69095
# Shear Modulus (GPa) = 20.56162 28.24201 24.40182
#
# Velocity S-wave (km/s) = 3.01219 3.53022 3.28145
# Velocity P-wave (km/s) = 4.84975 5.75874 5.32368
#
# Compressibility (1/GPa) = 0.03863267
#
# Stress axis : x y z
#
# Youngs Moduli (GPa) = 84.52183 133.54469 30.59884
#
# Poissons Ratio (x) = 0.22732 0.21212
# Poissons Ratio (y) = 0.14387 -0.05969
# Poissons Ratio (z) = 0.58593 -0.26050
#
# Static dielectric constant tensor:
#      x y z
#    x 2.002290 0.000000 0.000000 
#    y 0.000000 1.962010 0.000000 
#    z 0.000000 0.000000 1.764350 
# 
# From -- ./inp_files/34603.got.cif
#   From: 2010.05.17/outbox.cif.g08.bks.cpg/sg71_18_cif.got.tgz:34603.got - 2010.06.03 16:22:01.
