data_PCOD9523722
_publ_section_title
;
Structure prediction by ZEFSAII (Michael W. Deem and Ramdas Pophale) SiO2 
 PCOD9523722
Probable space group: I M M M
;
_chemical_formula_sum "Si O2"
_cell_formula_units_Z 96
_cell_length_a 13.909026
_cell_length_b 14.402007
_cell_length_c 26.059405
_cell_angle_alpha 90.000000
_cell_angle_beta 90.000000
_cell_angle_gamma 90.000000
_cell_volume 5220.165019
_symmetry_space_group_name_H-M "I M M M"
_symmetry_group_IT_number 71
_symmetry_cell_setting 'orthorhombic'
loop_
_space_group_symop_operation_xyz
x,y,z
-x,-y,z
x,-y,-z
-x,y,-z
-x,-y,-z
x,y,-z
-x,y,z
x,-y,z
1/2+x,1/2+y,1/2+z
1/2-x,1/2-y,1/2+z
1/2+x,1/2-y,1/2-z
1/2-x,1/2+y,1/2-z
1/2-x,1/2-y,1/2-z
1/2+x,1/2+y,1/2-z
1/2-x,1/2+y,1/2+z
1/2+x,1/2-y,1/2+z
loop_
_atom_site_type_symbol
_atom_site_label
_atom_site_fract_x
_atom_site_fract_y
_atom_site_fract_z
Si Si1 0.614051 0.895454 0.500000
Si Si2 0.500000 0.887545 0.942032
Si Si3 0.889330 0.111683 0.439445
Si Si4 0.204372 0.290255 0.905365
Si Si5 0.114815 0.722086 0.207180
Si Si6 0.705245 0.894043 0.898013
Si Si7 0.252719 0.393882 0.722303
O O1 0.500000 0.900492 0.500000
O O2 0.647971 0.842874 0.449493
O O3 0.654838 0.000000 0.500000
O O4 0.598348 0.863619 0.913895
O O5 0.500000 0.000000 0.944453
O O6 0.500000 0.850819 0.000000
O O7 0.870967 0.133338 0.500000
O O8 0.809761 0.161857 0.405059
O O9 0.000000 0.137995 0.428173
O O10 0.882118 0.000000 0.434109
O O11 0.150713 0.294356 0.851095
O O12 0.221761 0.182418 0.919048
O O13 0.168094 0.646086 0.242251
O O14 0.158623 0.821782 0.224600
O O15 0.000000 0.719107 0.210745
O O16 0.716755 0.892538 0.836634
O O17 0.721277 0.000000 0.915773
O O18 0.277494 0.500000 0.735569
#
# Coordination Sequence:
#
# PCOD9523722 Si02
#       7
#     8   8  16  16  16  16  16
#     4  11  24  40  58  80 111 152 196 240 291 347
#     4   9  18  30  48  80 118 150 186 227 275 341
#     4   9  18  33  53  77 108 149 196 239 286 347
#     4  11  21  36  58  83 115 155 193 242 289 346
#     4  10  22  39  60  88 118 149 196 247 293 350
#     4   9  20  36  55  81 115 151 188 233 282 342
#     4   9  20  40  62  86 114 150 193 242 297 350
#
# _framework density 18.390222999999999
#
# number of rings (size 3 to 8) (size 9 to 14) (size 15 to 20)
#    0.000    2.333    0.833    1.500    3.500    2.000 
#    0.000    0.833    0.000    2.000    0.000    0.000 
#    0.000    0.000    0.000    0.000    0.000    0.000 
#
# Total GULP energy -267874.731966 kJ/mol
# GULP energy per Si atom -5580.723583 kJ/mol
# Density = 1.834837 g / cm^3
# Si number density = 18.390223 Si / 1000 Ang^3
#
#
#
# Elastic Constant Matrix: (Units=GPa)
#
#
# Indices 1 2 3 4 5 6 
#
# 1 114.3934 44.3740 41.3657 0.0000 0.0000 0.0000
# 2 44.3740 122.8154 51.1617 0.0000 0.0000 0.0000
# 3 41.3657 51.1617 41.5671 0.0000 0.0000 0.0000
# 4 0.0000 0.0000 0.0000 22.0593 0.0000 0.0000
# 5 0.0000 0.0000 0.0000 0.0000 25.6856 0.0000
# 6 0.0000 0.0000 0.0000 0.0000 0.0000 20.7786
#
#
#
# Elastic Compliance Matrix: (Units=1/GPa)
#
#
# Indices 1 2 3 4 5 6 
#
# 1 0.013791 0.001507 -0.015579 0.000000 0.000000 0.000000
# 2 0.001507 0.016875 -0.022270 0.000000 0.000000 0.000000
# 3 -0.015579 -0.022270 0.066970 0.000000 0.000000 0.000000
# 4 0.000000 0.000000 0.000000 0.045332 0.000000 0.000000
# 5 0.000000 0.000000 0.000000 0.000000 0.038932 0.000000
# 6 0.000000 0.000000 0.000000 0.000000 0.000000 0.048126
#
#
# Mechanical properties :
#
#
# Convention : Reuss Voigt Hill
#
# Bulk Modulus (GPa) = 40.07452 61.39762 50.73607
# Shear Modulus (GPa) = 16.07578 23.16299 19.61939
#
# Velocity S-wave (km/s) = 2.95981 3.55283 3.26979
# Velocity P-wave (km/s) = 5.78957 7.09145 6.47332
#
# Compressibility (1/GPa) = 0.02495351
#
# Stress axis : x y z
#
# Youngs Moduli (GPa) = 72.51343 59.26027 14.93195
#
# Poissons Ratio (x) = -0.08931 0.23262
# Poissons Ratio (y) = -0.10928 0.33253
# Poissons Ratio (z) = 1.12966 1.31970
#
# Static dielectric constant tensor:
#      x y z
#    x 1.615480 0.000000 0.000000 
#    y 0.000000 1.666500 0.000000 
#    z 0.000000 0.000000 1.610310 
# 
# From -- ./inp_files/59843.got.cif
#   From: 2010.05.17/outbox.cif.g08.bks.cpg/sg71_30_cif.got.tgz:59843.got - 2010.06.03 16:22:01.
