data_PCOD9523584
_publ_section_title
;
Structure prediction by ZEFSAII (Michael W. Deem and Ramdas Pophale) SiO2 
 PCOD9523584
Probable space group: I M M M
;
_chemical_formula_sum "Si O2"
_cell_formula_units_Z 120
_cell_length_a 21.700167
_cell_length_b 21.976492
_cell_length_c 14.649750
_cell_angle_alpha 90.000000
_cell_angle_beta 90.000000
_cell_angle_gamma 90.000000
_cell_volume 6986.371232
_symmetry_space_group_name_H-M "I M M M"
_symmetry_group_IT_number 71
_symmetry_cell_setting 'orthorhombic'
loop_
_space_group_symop_operation_xyz
x,y,z
-x,-y,z
x,-y,-z
-x,y,-z
-x,-y,-z
x,y,-z
-x,y,z
x,-y,z
1/2+x,1/2+y,1/2+z
1/2-x,1/2-y,1/2+z
1/2+x,1/2-y,1/2-z
1/2-x,1/2+y,1/2-z
1/2-x,1/2-y,1/2-z
1/2+x,1/2+y,1/2-z
1/2-x,1/2+y,1/2+z
1/2+x,1/2-y,1/2+z
loop_
_atom_site_type_symbol
_atom_site_label
_atom_site_fract_x
_atom_site_fract_y
_atom_site_fract_z
Si Si1 0.680519 0.430981 0.774638
Si Si2 0.257792 0.388698 0.400018
Si Si3 0.392382 0.259722 0.108849
Si Si4 0.572691 0.000000 0.896032
Si Si5 0.112178 0.626541 0.393979
Si Si6 0.158419 0.768426 0.893638
Si Si7 0.262758 0.322108 0.890878
Si Si8 0.930205 0.158225 0.236752
O O1 0.674113 0.500000 0.808963
O O2 0.719486 0.430023 0.681574
O O3 0.716683 0.384072 0.841186
O O4 0.615063 0.399623 0.748780
O O5 0.271173 0.414955 0.500000
O O6 0.185786 0.375107 0.394709
O O7 0.293695 0.324831 0.392599
O O8 0.407588 0.191857 0.142603
O O9 0.320227 0.276109 0.125233
O O10 0.429522 0.309034 0.165114
O O11 0.402105 0.262828 0.000000
O O12 0.591206 0.936618 0.850488
O O13 0.500000 0.000000 0.904583
O O14 0.600691 0.000000 0.000000
O O15 0.090137 0.625426 0.500000
O O16 0.198893 0.710289 0.861096
O O17 0.102928 0.793262 0.831402
O O18 0.140447 0.758822 0.000000
O O19 0.258740 0.331095 0.000000
O O20 0.000000 0.143831 0.208777
#
# Coordination Sequence:
#
# PCOD9523584 Si02
#       8
#    16  16  16   8  16  16  16  16
#     4  10  22  34  50  74 102 138 174 214 260 311
#     4   9  17  29  48  75 101 123 157 201 254 309
#     4   9  17  30  51  75  98 124 159 204 254 305
#     4   9  18  28  36  54  88 132 166 180 210 275
#     4   9  16  27  44  65  93 126 155 190 231 284
#     4   9  17  32  54  76  98 125 160 214 275 318
#     4   9  17  32  54  78 100 123 161 216 275 321
#     4  10  22  35  50  73 101 137 179 217 253 304
#
# _framework density 17.176299
#
# number of rings (size 3 to 8) (size 9 to 14) (size 15 to 20)
#    0.000    2.733    1.333    0.000    2.800    3.467 
#    0.000    1.333    0.000    0.000    0.000    7.467 
#    0.000    0.000    0.000    2.933    0.000    0.000 
#
# Total GULP energy -334085.172168 kJ/mol
# GULP energy per Si atom -5568.086203 kJ/mol
# Density = 1.713720 g / cm^3
# Si number density = 17.176299 Si / 1000 Ang^3
#
#
#
# Elastic Constant Matrix: (Units=GPa)
#
#
# Indices 1 2 3 4 5 6 
#
# 1 40.9977 14.4076 9.2130 0.0000 0.0000 0.0000
# 2 14.4076 109.6383 26.1897 0.0000 0.0000 0.0000
# 3 9.2130 26.1897 33.6462 0.0000 0.0000 0.0000
# 4 0.0000 0.0000 0.0000 9.7073 0.0000 0.0000
# 5 0.0000 0.0000 0.0000 0.0000 12.1035 0.0000
# 6 0.0000 0.0000 0.0000 0.0000 0.0000 7.8499
#
#
#
# Elastic Compliance Matrix: (Units=1/GPa)
#
#
# Indices 1 2 3 4 5 6 
#
# 1 0.026393 -0.002140 -0.005561 0.000000 0.000000 0.000000
# 2 -0.002140 0.011378 -0.008270 0.000000 0.000000 0.000000
# 3 -0.005561 -0.008270 0.037681 0.000000 0.000000 0.000000
# 4 0.000000 0.000000 0.000000 0.103015 0.000000 0.000000
# 5 0.000000 0.000000 0.000000 0.000000 0.082621 0.000000
# 6 0.000000 0.000000 0.000000 0.000000 0.000000 0.127390
#
#
# Mechanical properties :
#
#
# Convention : Reuss Voigt Hill
#
# Bulk Modulus (GPa) = 22.98360 31.54475 27.26418
# Shear Modulus (GPa) = 11.49624 14.89693 13.19659
#
# Velocity S-wave (km/s) = 2.58991 2.94818 2.77483
# Velocity P-wave (km/s) = 4.72795 5.47670 5.11604
#
# Compressibility (1/GPa) = 0.04350929
#
# Stress axis : x y z
#
# Youngs Moduli (GPa) = 37.88828 87.89172 26.53842
#
# Poissons Ratio (x) = 0.18808 0.14759
# Poissons Ratio (y) = 0.08108 0.21948
# Poissons Ratio (z) = 0.21071 0.72688
#
# Static dielectric constant tensor:
#      x y z
#    x 1.592550 0.000000 0.000000 
#    y 0.000000 1.614030 0.000000 
#    z 0.000000 0.000000 1.607810 
# 
# From -- ./inp_files/38411.got.cif
#   From: 2010.05.17/outbox.cif.g08.bks.cpg/sg71_20_cif.got.tgz:38411.got - 2010.06.03 16:22:01.
