data_PCOD9523291
_publ_section_title
;
Structure prediction by ZEFSAII (Michael W. Deem and Ramdas Pophale) SiO2 
 PCOD9523291
Probable space group: I M M M
;
_chemical_formula_sum "Si O2"
_cell_formula_units_Z 88
_cell_length_a 24.958306
_cell_length_b 8.655267
_cell_length_c 20.255354
_cell_angle_alpha 90.000000
_cell_angle_beta 90.000000
_cell_angle_gamma 90.000000
_cell_volume 4375.577822
_symmetry_space_group_name_H-M "I M M M"
_symmetry_group_IT_number 71
_symmetry_cell_setting 'orthorhombic'
loop_
_space_group_symop_operation_xyz
x,y,z
-x,-y,z
x,-y,-z
-x,y,-z
-x,-y,-z
x,y,-z
-x,y,z
x,-y,z
1/2+x,1/2+y,1/2+z
1/2-x,1/2-y,1/2+z
1/2+x,1/2-y,1/2-z
1/2-x,1/2+y,1/2-z
1/2-x,1/2-y,1/2-z
1/2+x,1/2+y,1/2-z
1/2-x,1/2+y,1/2+z
1/2+x,1/2-y,1/2+z
loop_
_atom_site_type_symbol
_atom_site_label
_atom_site_fract_x
_atom_site_fract_y
_atom_site_fract_z
Si Si1 0.756254 0.817001 0.323650
Si Si2 0.062649 0.311440 0.500000
Si Si3 0.674635 0.686812 0.427848
Si Si4 0.632914 0.181301 0.126655
Si Si5 0.941661 0.186165 0.892305
Si Si6 0.937886 0.820866 0.735784
O O1 0.750000 0.750000 0.250000
O O2 0.707743 0.758287 0.368737
O O3 0.810785 0.763204 0.359699
O O4 0.755965 0.000000 0.318716
O O5 0.060914 0.500000 0.500000
O O6 0.096654 0.263731 0.435272
O O7 0.000000 0.260083 0.500000
O O8 0.697541 0.725095 0.500000
O O9 0.675178 0.500000 0.421054
O O10 0.612883 0.740251 0.424996
O O11 0.598044 0.211036 0.192052
O O12 0.643344 0.000000 0.116883
O O13 0.935705 0.211448 0.813724
O O14 0.000000 0.246908 0.913503
O O15 0.943452 0.000000 0.902070
O O16 0.000000 0.808025 0.715700
O O17 0.920953 0.000000 0.726179
#
# Coordination Sequence:
#
# PCOD9523291 Si02
#       6
#    16   8  16  16  16  16
#     4  12  26  44  65  89 119 157 207 263 320 379
#     4   9  20  38  59  87 125 167 208 251 304 373
#     4  10  21  37  60  90 125 162 201 245 296 358
#     4  11  22  37  60  87 117 158 207 258 312 372
#     4   8  15  30  54  84 117 153 193 237 287 345
#     4   9  17  31  53  82 117 157 202 253 303 353
#
# _framework density 20.111629000000001
#
# number of rings (size 3 to 8) (size 9 to 14) (size 15 to 20)
#    0.000    2.091    0.000    4.909    1.273    3.273 
#    0.000    3.182    0.000    4.909    0.000    1.273 
#    0.000    0.000    0.000    0.000    0.000    0.000 
#
# Total GULP energy -245654.301780 kJ/mol
# GULP energy per Si atom -5583.052313 kJ/mol
# Density = 2.006585 g / cm^3
# Si number density = 20.111629 Si / 1000 Ang^3
#
#
#
# Elastic Constant Matrix: (Units=GPa)
#
#
# Indices 1 2 3 4 5 6 
#
# 1 136.2826 37.9878 83.2254 0.0000 0.0000 0.0000
# 2 37.9878 52.3300 43.2626 0.0000 0.0000 0.0000
# 3 83.2254 43.2626 106.2144 0.0000 0.0000 0.0000
# 4 0.0000 0.0000 0.0000 15.2736 0.0000 0.0000
# 5 0.0000 0.0000 0.0000 0.0000 29.5063 0.0000
# 6 0.0000 0.0000 0.0000 0.0000 0.0000 27.6967
#
#
#
# Elastic Compliance Matrix: (Units=1/GPa)
#
#
# Indices 1 2 3 4 5 6 
#
# 1 0.014167 -0.001669 -0.010421 0.000000 0.000000 0.000000
# 2 -0.001669 0.029008 -0.010508 0.000000 0.000000 0.000000
# 3 -0.010421 -0.010508 0.021860 0.000000 0.000000 0.000000
# 4 0.000000 0.000000 0.000000 0.065473 0.000000 0.000000
# 5 0.000000 0.000000 0.000000 0.000000 0.033891 0.000000
# 6 0.000000 0.000000 0.000000 0.000000 0.000000 0.036105
#
#
# Mechanical properties :
#
#
# Convention : Reuss Voigt Hill
#
# Bulk Modulus (GPa) = 50.40269 69.30874 59.85572
# Shear Modulus (GPa) = 19.81681 23.18540 21.50111
#
# Velocity S-wave (km/s) = 3.14242 3.39903 3.27324
# Velocity P-wave (km/s) = 6.18727 7.06692 6.64167
#
# Compressibility (1/GPa) = 0.01984021
#
# Stress axis : x y z
#
# Youngs Moduli (GPa) = 70.58880 34.47331 45.74580
#
# Poissons Ratio (x) = 0.05753 0.47670
# Poissons Ratio (y) = 0.11781 0.48068
# Poissons Ratio (z) = 0.73557 0.36223
#
# Static dielectric constant tensor:
#      x y z
#    x 1.745910 0.000000 0.000000 
#    y 0.000000 1.688940 0.000000 
#    z 0.000000 0.000000 1.703750 
# 
# From -- ./inp_files/55562.got.cif
#   From: 2010.05.17/outbox.cif.g08.bks.cpg/sg71_28_cif.got.tgz:55562.got - 2010.06.03 16:22:01.
