data_PCOD9523281
_publ_section_title
;
Structure prediction by ZEFSAII (Michael W. Deem and Ramdas Pophale) SiO2 
 PCOD9523281
Probable space group: I M M M
;
_chemical_formula_sum "Si O2"
_cell_formula_units_Z 72
_cell_length_a 13.551238
_cell_length_b 10.097823
_cell_length_c 29.299917
_cell_angle_alpha 90.000000
_cell_angle_beta 90.000000
_cell_angle_gamma 90.000000
_cell_volume 4009.342123
_symmetry_space_group_name_H-M "I M M M"
_symmetry_group_IT_number 71
_symmetry_cell_setting 'orthorhombic'
loop_
_space_group_symop_operation_xyz
x,y,z
-x,-y,z
x,-y,-z
-x,y,-z
-x,-y,-z
x,y,-z
-x,y,z
x,-y,z
1/2+x,1/2+y,1/2+z
1/2-x,1/2-y,1/2+z
1/2+x,1/2-y,1/2-z
1/2-x,1/2+y,1/2-z
1/2-x,1/2-y,1/2-z
1/2+x,1/2+y,1/2-z
1/2-x,1/2+y,1/2+z
1/2+x,1/2-y,1/2+z
loop_
_atom_site_type_symbol
_atom_site_label
_atom_site_fract_x
_atom_site_fract_y
_atom_site_fract_z
Si Si1 0.616752 0.151395 0.229095
Si Si2 0.754417 0.245747 0.418693
Si Si3 0.235413 0.343112 0.179620
Si Si4 0.382516 0.840250 0.500000
Si Si5 0.617395 0.000000 0.055470
Si Si6 0.612995 0.500000 0.944944
O O1 0.500000 0.163117 0.225135
O O2 0.672060 0.261706 0.199610
O O3 0.651909 0.168099 0.281471
O O4 0.645322 0.000000 0.215551
O O5 0.710754 0.224555 0.368413
O O6 0.669552 0.225693 0.456313
O O7 0.820638 0.375196 0.426315
O O8 0.830772 0.126978 0.427029
O O9 0.255181 0.500000 0.173375
O O10 0.500000 0.822700 0.500000
O O11 0.362706 0.000000 0.500000
O O12 0.500000 0.000000 0.068246
O O13 0.620218 0.000000 0.000000
O O14 0.500000 0.500000 0.930489
O O15 0.616220 0.500000 0.000000
#
# Coordination Sequence:
#
# PCOD9523281 Si02
#       6
#    16  16  16   8   8   8
#     4   9  20  39  60  84 114 150 193 239 293 355
#     4  12  21  40  58  88 122 154 200 248 291 347
#     4  10  21  37  60  85 117 153 191 243 296 344
#     4  11  22  39  64  91 119 157 199 243 294 345
#     4  11  24  40  60  85 120 166 202 240 301 358
#     4  11  20  34  58  83 118 156 192 238 295 352
#
# _framework density 17.958057
#
# number of rings (size 3 to 8) (size 9 to 14) (size 15 to 20)
#    0.000    1.444    4.444    0.667    1.556    4.889 
#    0.000    3.333    0.000    0.000    0.000    0.000 
#    0.000    0.000    0.000    0.000    0.000    0.000 
#
# Total GULP energy -200921.950285 kJ/mol
# GULP energy per Si atom -5581.165286 kJ/mol
# Density = 1.791718 g / cm^3
# Si number density = 17.958057 Si / 1000 Ang^3
#
#
#
# Elastic Constant Matrix: (Units=GPa)
#
#
# Indices 1 2 3 4 5 6 
#
# 1 82.0944 31.9153 20.8731 0.0000 0.0000 0.0000
# 2 31.9153 115.5782 31.6929 0.0000 0.0000 0.0000
# 3 20.8731 31.6929 108.0062 0.0000 0.0000 0.0000
# 4 0.0000 0.0000 0.0000 30.3197 0.0000 0.0000
# 5 0.0000 0.0000 0.0000 0.0000 -4.2121 0.0000
# 6 0.0000 0.0000 0.0000 0.0000 0.0000 47.8140
#
#
#
# Elastic Compliance Matrix: (Units=1/GPa)
#
#
# Indices 1 2 3 4 5 6 
#
# 1 0.013927 -0.003380 -0.001700 0.000000 0.000000 0.000000
# 2 -0.003380 0.010229 -0.002349 0.000000 0.000000 0.000000
# 3 -0.001700 -0.002349 0.010276 0.000000 0.000000 0.000000
# 4 0.000000 0.000000 0.000000 0.032982 0.000000 0.000000
# 5 0.000000 0.000000 0.000000 0.000000 -0.237411 0.000000
# 6 0.000000 0.000000 0.000000 0.000000 0.000000 0.020914
#
#
# Mechanical properties :
#
#
# Convention : Reuss Voigt Hill
#
# Bulk Modulus (GPa) = 51.08063 52.73795 51.90929
# Shear Modulus (GPa) = -39.15429 29.53082 -4.81173
#
# Velocity S-wave (km/s) = -4.67445 4.05956 -1.63867
# Velocity P-wave (km/s) = 0.79238 7.16969 5.03868
#
# Compressibility (1/GPa) = 0.01957689
#
# Stress axis : x y z
#
# Youngs Moduli (GPa) = 71.80202 97.75749 97.31057
#
# Poissons Ratio (x) = 0.33039 0.16541
# Poissons Ratio (y) = 0.24267 0.22854
# Poissons Ratio (z) = 0.12205 0.22959
#
# Static dielectric constant tensor:
#      x y z
#    x 1.573930 0.000000 0.000000 
#    y 0.000000 0.945930 0.000000 
#    z 0.000000 0.000000 1.664760 
# 
# From -- ./inp_files/6560.got.cif
#   From: 2010.05.17/outbox.cif.g08.bks.cpg/sg71_4_cif.got.tgz:6560.got - 2010.06.03 16:22:01.
