data_PCOD9523359
_publ_section_title
;
Structure prediction by ZEFSAII (Michael W. Deem and Ramdas Pophale) SiO2 
 PCOD9523359
Probable space group: I M M M
;
_chemical_formula_sum "Si O2"
_cell_formula_units_Z 100
_cell_length_a 27.528667
_cell_length_b 7.786790
_cell_length_c 23.774938
_cell_angle_alpha 90.000000
_cell_angle_beta 90.000000
_cell_angle_gamma 90.000000
_cell_volume 5096.394495
_symmetry_space_group_name_H-M "I M M M"
_symmetry_group_IT_number 71
_symmetry_cell_setting 'orthorhombic'
loop_
_space_group_symop_operation_xyz
x,y,z
-x,-y,z
x,-y,-z
-x,y,-z
-x,-y,-z
x,y,-z
-x,y,z
x,-y,z
1/2+x,1/2+y,1/2+z
1/2-x,1/2-y,1/2+z
1/2+x,1/2-y,1/2-z
1/2-x,1/2+y,1/2-z
1/2-x,1/2-y,1/2-z
1/2+x,1/2+y,1/2-z
1/2-x,1/2+y,1/2+z
1/2+x,1/2-y,1/2+z
loop_
_atom_site_type_symbol
_atom_site_label
_atom_site_fract_x
_atom_site_fract_y
_atom_site_fract_z
Si Si1 0.444920 0.707339 0.690461
Si Si2 0.357277 0.709394 0.617069
Si Si3 0.728811 0.690452 0.308728
Si Si4 0.317412 0.303517 0.876119
Si Si5 0.500000 0.000000 0.151735
Si Si6 0.699567 0.196832 0.000000
Si Si7 0.809759 0.302146 0.000000
Si Si8 0.078674 0.206702 0.319525
O O1 0.500000 0.774728 0.688118
O O2 0.447482 0.500000 0.686102
O O3 0.409126 0.766544 0.641255
O O4 0.423275 0.741197 0.752380
O O5 0.356693 0.500000 0.616275
O O6 0.316538 0.777607 0.660750
O O7 0.341112 0.764987 0.555362
O O8 0.710853 0.500000 0.297042
O O9 0.750000 0.750000 0.250000
O O10 0.773165 0.693073 0.352419
O O11 0.304378 0.500000 0.862571
O O12 0.368079 0.266132 0.845627
O O13 0.319621 0.281655 0.942966
O O14 0.457992 0.845423 0.154370
O O15 0.758441 0.203668 0.000000
O O16 0.683941 0.000000 0.000000
O O17 0.794950 0.500000 0.000000
O O18 0.066631 0.000000 0.327103
#
# Coordination Sequence:
#
# PCOD9523359 Si02
#       8
#    16  16  16  16   4   8   8  16
#     4   9  17  36  62  89 120 160 205 253 310 370
#     4  10  21  38  60  83 116 162 206 253 307 367
#     4  11  22  35  55  86 126 161 199 249 312 376
#     4  11  23  40  63  90 124 163 205 256 311 370
#     4  12  22  36  68  95 130 169 214 248 316 380
#     4  12  24  40  64  89 122 159 208 258 303 378
#     4  12  24  40  59  85 116 162 209 254 314 370
#     4  10  22  40  63  95 131 164 208 262 312 372
#
# _framework density 19.621714999999998
#
# number of rings (size 3 to 8) (size 9 to 14) (size 15 to 20)
#    0.000    1.440    2.400    3.600    2.240    3.200 
#    1.440    0.400    0.000    3.360    0.000    2.240 
#    0.000    0.000    0.000    0.000    0.000    0.000 
#
# Total GULP energy -278544.161866 kJ/mol
# GULP energy per Si atom -5570.883237 kJ/mol
# Density = 1.957705 g / cm^3
# Si number density = 19.621715 Si / 1000 Ang^3
#
#
#
# Elastic Constant Matrix: (Units=GPa)
#
#
# Indices 1 2 3 4 5 6 
#
# 1 113.2368 8.2194 61.1196 0.0000 0.0000 0.0000
# 2 8.2194 52.0292 -2.2848 0.0000 0.0000 0.0000
# 3 61.1196 -2.2848 120.1083 0.0000 0.0000 0.0000
# 4 0.0000 0.0000 0.0000 20.6874 0.0000 0.0000
# 5 0.0000 0.0000 0.0000 0.0000 5.6985 0.0000
# 6 0.0000 0.0000 0.0000 0.0000 0.0000 25.2505
#
#
#
# Elastic Compliance Matrix: (Units=1/GPa)
#
#
# Indices 1 2 3 4 5 6 
#
# 1 0.012431 -0.002244 -0.006369 0.000000 0.000000 0.000000
# 2 -0.002244 0.019641 0.001515 0.000000 0.000000 0.000000
# 3 -0.006369 0.001515 0.011595 0.000000 0.000000 0.000000
# 4 0.000000 0.000000 0.000000 0.048339 0.000000 0.000000
# 5 0.000000 0.000000 0.000000 0.000000 0.175484 0.000000
# 6 0.000000 0.000000 0.000000 0.000000 0.000000 0.039603
#
#
# Mechanical properties :
#
#
# Convention : Reuss Voigt Hill
#
# Bulk Modulus (GPa) = 33.92818 46.60917 40.26867
# Shear Modulus (GPa) = 15.10065 24.88197 19.99131
#
# Velocity S-wave (km/s) = 2.77716 3.56488 3.19538
# Velocity P-wave (km/s) = 5.25472 6.38357 5.84645
#
# Compressibility (1/GPa) = 0.02947403
#
# Stress axis : x y z
#
# Youngs Moduli (GPa) = 80.44165 50.91406 86.24064
#
# Poissons Ratio (x) = 0.11423 0.54924
# Poissons Ratio (y) = 0.18047 -0.13068
# Poissons Ratio (z) = 0.51230 -0.07715
#
# Static dielectric constant tensor:
#      x y z
#    x 1.686990 0.000000 0.000000 
#    y 0.000000 1.331140 0.000000 
#    z 0.000000 0.000000 1.721720 
# 
# From -- ./inp_files/56311.got.cif
#   From: 2010.05.17/outbox.cif.g08.bks.cpg/sg71_29_cif.got.tgz:56311.got - 2010.06.03 16:22:01.
