data_PCOD9523239
_publ_section_title
;
Structure prediction by ZEFSAII (Michael W. Deem and Ramdas Pophale) SiO2 
 PCOD9523239
Probable space group: I M M M
;
_chemical_formula_sum "Si O2"
_cell_formula_units_Z 80
_cell_length_a 28.174712
_cell_length_b 8.257946
_cell_length_c 17.112253
_cell_angle_alpha 90.000000
_cell_angle_beta 90.000000
_cell_angle_gamma 90.000000
_cell_volume 3981.426627
_symmetry_space_group_name_H-M "I M M M"
_symmetry_group_IT_number 71
_symmetry_cell_setting 'orthorhombic'
loop_
_space_group_symop_operation_xyz
x,y,z
-x,-y,z
x,-y,-z
-x,y,-z
-x,-y,-z
x,y,-z
-x,y,z
x,-y,z
1/2+x,1/2+y,1/2+z
1/2-x,1/2-y,1/2+z
1/2+x,1/2-y,1/2-z
1/2-x,1/2+y,1/2-z
1/2-x,1/2-y,1/2-z
1/2+x,1/2+y,1/2-z
1/2-x,1/2+y,1/2+z
1/2+x,1/2-y,1/2+z
loop_
_atom_site_type_symbol
_atom_site_label
_atom_site_fract_x
_atom_site_fract_y
_atom_site_fract_z
Si Si1 0.443535 0.000000 0.588839
Si Si2 0.616181 0.308424 0.145203
Si Si3 0.695383 0.688544 0.587312
Si Si4 0.901454 0.810700 0.175376
Si Si5 0.721054 0.313536 0.824740
Si Si6 0.445999 0.808059 0.000000
O O1 0.427960 0.165521 0.631736
O O2 0.500000 0.000000 0.586035
O O3 0.424593 0.000000 0.500000
O O4 0.619994 0.500000 0.128526
O O5 0.594158 0.290459 0.231645
O O6 0.669999 0.239634 0.152953
O O7 0.583813 0.238873 0.076899
O O8 0.676854 0.719593 0.500000
O O9 0.709730 0.500000 0.591776
O O10 0.653456 0.711067 0.649419
O O11 0.741422 0.792555 0.605814
O O12 0.913887 0.000000 0.155471
O O13 0.711348 0.500000 0.807214
O O14 0.750000 0.250000 0.750000
O O15 0.500000 0.739266 0.000000
O O16 0.450065 0.000000 0.000000
#
# Coordination Sequence:
#
# PCOD9523239 Si02
#       6
#     8  16  16  16  16   8
#     4  11  26  44  66  99 133 167 213 272 332 392
#     4  10  23  43  66  93 129 171 219 274 336 403
#     4  10  21  37  58  89 129 171 213 255 312 385
#     4  10  22  43  68  95 129 174 220 269 328 400
#     4  11  22  37  59  89 127 169 215 264 321 390
#     4  11  27  47  69  97 127 167 225 293 355 408
#
# _framework density 20.093298999999998
#
# number of rings (size 3 to 8) (size 9 to 14) (size 15 to 20)
#    0.000    1.600    2.000    1.500    4.200    5.200 
#    0.000    3.000    0.000    0.000    0.000    0.000 
#    0.000    0.000    0.000    0.000    0.000    0.000 
#
# Total GULP energy -223208.937474 kJ/mol
# GULP energy per Si atom -5580.223437 kJ/mol
# Density = 2.004757 g / cm^3
# Si number density = 20.093299 Si / 1000 Ang^3
#
#
#
# Elastic Constant Matrix: (Units=GPa)
#
#
# Indices 1 2 3 4 5 6 
#
# 1 115.5690 57.8340 62.2074 0.0000 0.0000 0.0000
# 2 57.8340 82.9402 49.3524 0.0000 0.0000 0.0000
# 3 62.2074 49.3524 133.4496 0.0000 0.0000 0.0000
# 4 0.0000 0.0000 0.0000 33.8422 0.0000 0.0000
# 5 0.0000 0.0000 0.0000 0.0000 -1.4297 0.0000
# 6 0.0000 0.0000 0.0000 0.0000 0.0000 29.8189
#
#
#
# Elastic Compliance Matrix: (Units=1/GPa)
#
#
# Indices 1 2 3 4 5 6 
#
# 1 0.014745 -0.007939 -0.003937 0.000000 0.000000 0.000000
# 2 -0.007939 0.019733 -0.003597 0.000000 0.000000 0.000000
# 3 -0.003937 -0.003597 0.010659 0.000000 0.000000 0.000000
# 4 0.000000 0.000000 0.000000 0.029549 0.000000 0.000000
# 5 0.000000 0.000000 0.000000 0.000000 -0.699434 0.000000
# 6 0.000000 0.000000 0.000000 0.000000 0.000000 0.033536
#
#
# Mechanical properties :
#
#
# Convention : Reuss Voigt Hill
#
# Bulk Modulus (GPa) = 70.46884 74.52737 72.49811
# Shear Modulus (GPa) = -9.00032 23.28395 7.14181
#
# Velocity S-wave (km/s) = -2.11872 3.40780 1.88734
# Velocity P-wave (km/s) = 5.40015 7.25640 6.39597
#
# Compressibility (1/GPa) = 0.01419067
#
# Stress axis : x y z
#
# Youngs Moduli (GPa) = 67.81939 50.67683 93.81612
#
# Poissons Ratio (x) = 0.40231 0.36940
# Poissons Ratio (y) = 0.53840 0.33745
# Poissons Ratio (z) = 0.26704 0.18228
#
# Static dielectric constant tensor:
#      x y z
#    x 1.728610 0.000000 0.000000 
#    y 0.000000 1.735900 0.000000 
#    z 0.000000 0.000000 1.734870 
# 
# From -- ./inp_files/48591.got.cif
#   From: 2010.05.17/outbox.cif.g08.bks.cpg/sg71_25_cif.got.tgz:48591.got - 2010.06.03 16:22:01.
