data_PCOD9523739
_publ_section_title
;
Structure prediction by ZEFSAII (Michael W. Deem and Ramdas Pophale) SiO2 
 PCOD9523739
Probable space group: I M M M
;
_chemical_formula_sum "Si O2"
_cell_formula_units_Z 72
_cell_length_a 29.875514
_cell_length_b 8.065851
_cell_length_c 15.249306
_cell_angle_alpha 90.000000
_cell_angle_beta 90.000000
_cell_angle_gamma 90.000000
_cell_volume 3674.647294
_symmetry_space_group_name_H-M "I M M M"
_symmetry_group_IT_number 71
_symmetry_cell_setting 'orthorhombic'
loop_
_space_group_symop_operation_xyz
x,y,z
-x,-y,z
x,-y,-z
-x,y,-z
-x,-y,-z
x,y,-z
-x,y,z
x,-y,z
1/2+x,1/2+y,1/2+z
1/2-x,1/2-y,1/2+z
1/2+x,1/2-y,1/2-z
1/2-x,1/2+y,1/2-z
1/2-x,1/2-y,1/2-z
1/2+x,1/2+y,1/2-z
1/2-x,1/2+y,1/2+z
1/2+x,1/2-y,1/2+z
loop_
_atom_site_type_symbol
_atom_site_label
_atom_site_fract_x
_atom_site_fract_y
_atom_site_fract_z
Si Si1 0.053160 0.692274 0.219999
Si Si2 0.633644 0.192527 0.165860
Si Si3 0.945650 0.000000 0.901400
Si Si4 0.794414 0.799909 0.804416
Si Si5 0.317054 0.317811 0.000000
Si Si6 0.721254 0.309601 0.500000
O O1 0.061798 0.500000 0.192793
O O2 0.082730 0.724062 0.306047
O O3 0.066653 0.832306 0.149855
O O4 0.000000 0.707483 0.235123
O O5 0.663809 0.229863 0.250830
O O6 0.652959 0.295012 0.085586
O O7 0.638459 0.000000 0.142167
O O8 0.000000 0.000000 0.905437
O O9 0.927865 0.000000 0.000000
O O10 0.750000 0.750000 0.750000
O O11 0.792760 0.738515 0.905268
O O12 0.796343 0.000000 0.805244
O O13 0.275319 0.194449 0.000000
O O14 0.296272 0.500000 0.000000
O O15 0.705606 0.500000 0.500000
#
# Coordination Sequence:
#
# PCOD9523739 Si02
#       6
#    16  16   8  16   8   8
#     4   9  20  39  62  88 122 163 205 251 304 360
#     4  11  23  40  61  86 119 158 198 247 303 358
#     4   9  18  34  60  89 117 157 201 248 304 357
#     4  11  22  37  59  85 117 155 196 242 294 352
#     4  12  24  36  61  89 114 150 198 249 298 363
#     4  10  22  40  58  81 118 159 196 242 298 351
#
# _framework density 19.593716000000001
#
# number of rings (size 3 to 8) (size 9 to 14) (size 15 to 20)
#    0.000    1.667    2.222    2.333    3.111    1.333 
#    2.000    2.778    0.000    3.333    0.000    0.000 
#    0.000    0.000    0.000    0.000    0.000    0.000 
#
# Total GULP energy -200949.173777 kJ/mol
# GULP energy per Si atom -5581.921494 kJ/mol
# Density = 1.954912 g / cm^3
# Si number density = 19.593716 Si / 1000 Ang^3
#
#
#
# Elastic Constant Matrix: (Units=GPa)
#
#
# Indices 1 2 3 4 5 6 
#
# 1 47.1920 7.3263 24.5301 0.0000 0.0000 0.0000
# 2 7.3263 45.1133 10.5489 0.0000 0.0000 0.0000
# 3 24.5301 10.5489 127.6498 0.0000 0.0000 0.0000
# 4 0.0000 0.0000 0.0000 16.9990 0.0000 0.0000
# 5 0.0000 0.0000 0.0000 0.0000 10.1866 0.0000
# 6 0.0000 0.0000 0.0000 0.0000 0.0000 20.5430
#
#
#
# Elastic Compliance Matrix: (Units=1/GPa)
#
#
# Indices 1 2 3 4 5 6 
#
# 1 0.023899 -0.002862 -0.004356 0.000000 0.000000 0.000000
# 2 -0.002862 0.022946 -0.001346 0.000000 0.000000 0.000000
# 3 -0.004356 -0.001346 0.008782 0.000000 0.000000 0.000000
# 4 0.000000 0.000000 0.000000 0.058827 0.000000 0.000000
# 5 0.000000 0.000000 0.000000 0.000000 0.098168 0.000000
# 6 0.000000 0.000000 0.000000 0.000000 0.000000 0.048678
#
#
# Mechanical properties :
#
#
# Convention : Reuss Voigt Hill
#
# Bulk Modulus (GPa) = 25.97561 33.86284 29.91922
# Shear Modulus (GPa) = 17.16667 21.38238 19.27453
#
# Velocity S-wave (km/s) = 2.96316 3.30705 3.13982
# Velocity P-wave (km/s) = 4.99930 5.64819 5.33362
#
# Compressibility (1/GPa) = 0.03849766
#
# Stress axis : x y z
#
# Youngs Moduli (GPa) = 41.84343 43.58045 113.86597
#
# Poissons Ratio (x) = 0.12475 0.49600
# Poissons Ratio (y) = 0.11978 0.15328
# Poissons Ratio (z) = 0.18227 0.05867
#
# Static dielectric constant tensor:
#      x y z
#    x 1.684210 0.000000 0.000000 
#    y 0.000000 1.693980 0.000000 
#    z 0.000000 0.000000 1.792630 
# 
# From -- ./inp_files/6230.got.cif
#   From: 2010.05.17/outbox.cif.g08.bks.cpg/sg71_4_cif.got.tgz:6230.got - 2010.06.03 16:22:01.
