data_PCOD9523621
_publ_section_title
;
Structure prediction by ZEFSAII (Michael W. Deem and Ramdas Pophale) SiO2 
 PCOD9523621
Probable space group: I M M M
;
_chemical_formula_sum "Si O2"
_cell_formula_units_Z 104
_cell_length_a 22.673013
_cell_length_b 8.893030
_cell_length_c 27.583339
_cell_angle_alpha 90.000000
_cell_angle_beta 90.000000
_cell_angle_gamma 90.000000
_cell_volume 5561.677873
_symmetry_space_group_name_H-M "I M M M"
_symmetry_group_IT_number 71
_symmetry_cell_setting 'orthorhombic'
loop_
_space_group_symop_operation_xyz
x,y,z
-x,-y,z
x,-y,-z
-x,y,-z
-x,-y,-z
x,y,-z
-x,y,z
x,-y,z
1/2+x,1/2+y,1/2+z
1/2-x,1/2-y,1/2+z
1/2+x,1/2-y,1/2-z
1/2-x,1/2+y,1/2-z
1/2-x,1/2-y,1/2-z
1/2+x,1/2+y,1/2-z
1/2-x,1/2+y,1/2+z
1/2+x,1/2-y,1/2+z
loop_
_atom_site_type_symbol
_atom_site_label
_atom_site_fract_x
_atom_site_fract_y
_atom_site_fract_z
Si Si1 0.500000 0.681736 0.333925
Si Si2 0.500000 0.679042 0.780243
Si Si3 0.806043 0.668628 0.771127
Si Si4 0.290388 0.677257 0.556874
Si Si5 0.836379 0.180937 0.581944
Si Si6 0.431336 0.682344 0.000000
Si Si7 0.113735 0.328702 0.323480
Si Si8 0.376357 0.182155 0.634904
O O1 0.500000 0.500000 0.336452
O O2 0.500000 0.727076 0.276564
O O3 0.441189 0.747766 0.358668
O O4 0.500000 0.500000 0.780202
O O5 0.555364 0.741215 0.809262
O O6 0.787964 0.500000 0.784828
O O7 0.750000 0.750000 0.750000
O O8 0.850892 0.664043 0.726658
O O9 0.838254 0.733590 0.818104
O O10 0.304178 0.690484 0.500000
O O11 0.288377 0.500000 0.569669
O O12 0.225791 0.749037 0.565506
O O13 0.339673 0.760122 0.588911
O O14 0.890951 0.224705 0.546425
O O15 0.850882 0.242010 0.635158
O O16 0.831747 0.000000 0.581295
O O17 0.434250 0.500000 0.000000
O O18 0.500000 0.735464 0.000000
O O19 0.101974 0.500000 0.339465
O O20 0.380597 0.000000 0.635257
#
# Coordination Sequence:
#
# PCOD9523621 Si02
#       8
#     8   8  16  16  16   8  16  16
#     4  11  23  41  66  96 130 170 213 258 321 389
#     4  11  23  39  61  89 121 167 213 251 298 370
#     4  10  22  37  56  84 120 159 198 245 302 364
#     4  11  24  43  66  93 127 165 211 268 329 385
#     4  11  22  39  64  92 123 164 216 265 319 382
#     4   9  20  38  59  85 121 162 208 265 316 370
#     4  11  23  39  58  86 124 162 199 249 307 362
#     4  11  23  41  66  94 126 167 214 263 320 387
#
# _framework density 18.699393000000001
#
# number of rings (size 3 to 8) (size 9 to 14) (size 15 to 20)
#    0.000    1.308    2.308    3.231    1.077    6.462 
#    0.000    0.385    0.000    4.154    0.000    0.000 
#    0.000    0.000    0.000    0.000    0.000    0.000 
#
# Total GULP energy -290421.141804 kJ/mol
# GULP energy per Si atom -5585.021958 kJ/mol
# Density = 1.865683 g / cm^3
# Si number density = 18.699393 Si / 1000 Ang^3
#
#
#
# Elastic Constant Matrix: (Units=GPa)
#
#
# Indices 1 2 3 4 5 6 
#
# 1 133.2465 51.8421 44.1729 0.0000 0.0000 0.0000
# 2 51.8421 81.4750 37.8320 0.0000 0.0000 0.0000
# 3 44.1729 37.8320 97.2220 0.0000 0.0000 0.0000
# 4 0.0000 0.0000 0.0000 -2.6285 0.0000 0.0000
# 5 0.0000 0.0000 0.0000 0.0000 34.5667 0.0000
# 6 0.0000 0.0000 0.0000 0.0000 0.0000 34.5909
#
#
#
# Elastic Compliance Matrix: (Units=1/GPa)
#
#
# Indices 1 2 3 4 5 6 
#
# 1 0.010506 -0.005454 -0.002651 0.000000 0.000000 0.000000
# 2 -0.005454 0.017812 -0.004453 0.000000 0.000000 0.000000
# 3 -0.002651 -0.004453 0.013223 0.000000 0.000000 0.000000
# 4 0.000000 0.000000 0.000000 -0.380441 0.000000 0.000000
# 5 0.000000 0.000000 0.000000 0.000000 0.028930 0.000000
# 6 0.000000 0.000000 0.000000 0.000000 0.000000 0.028909
#
#
# Mechanical properties :
#
#
# Convention : Reuss Voigt Hill
#
# Bulk Modulus (GPa) = 60.88440 64.40420 62.64430
# Shear Modulus (GPa) = -19.96236 25.17892 2.60828
#
# Velocity S-wave (km/s) = -3.27087 3.67346 1.18232
# Velocity P-wave (km/s) = 4.28550 7.24631 5.95292
#
# Compressibility (1/GPa) = 0.01642457
#
# Stress axis : x y z
#
# Youngs Moduli (GPa) = 95.18737 56.14313 75.62527
#
# Poissons Ratio (x) = 0.30619 0.20049
# Poissons Ratio (y) = 0.51912 0.33677
# Poissons Ratio (z) = 0.25235 0.25001
#
# Static dielectric constant tensor:
#      x y z
#    x 1.584210 0.000000 0.000000 
#    y 0.000000 1.656820 0.000000 
#    z 0.000000 0.000000 1.641060 
# 
# From -- ./inp_files/66489.got.cif
#   From: 2010.05.17/outbox.cif.g08.bks.cpg/sg71_34_cif.got.tgz:66489.got - 2010.06.03 16:22:01.
