data_PCOD9523303
_publ_section_title
;
Structure prediction by ZEFSAII (Michael W. Deem and Ramdas Pophale) SiO2 
 PCOD9523303
Probable space group: I M M M
;
_chemical_formula_sum "Si O2"
_cell_formula_units_Z 72
_cell_length_a 15.637751
_cell_length_b 27.005790
_cell_length_c 8.746089
_cell_angle_alpha 90.000000
_cell_angle_beta 90.000000
_cell_angle_gamma 90.000000
_cell_volume 3693.559268
_symmetry_space_group_name_H-M "I M M M"
_symmetry_group_IT_number 71
_symmetry_cell_setting 'orthorhombic'
loop_
_space_group_symop_operation_xyz
x,y,z
-x,-y,z
x,-y,-z
-x,y,-z
-x,-y,-z
x,y,-z
-x,y,z
x,-y,z
1/2+x,1/2+y,1/2+z
1/2-x,1/2-y,1/2+z
1/2+x,1/2-y,1/2-z
1/2-x,1/2+y,1/2-z
1/2-x,1/2-y,1/2-z
1/2+x,1/2+y,1/2-z
1/2-x,1/2+y,1/2+z
1/2+x,1/2-y,1/2+z
loop_
_atom_site_type_symbol
_atom_site_label
_atom_site_fract_x
_atom_site_fract_y
_atom_site_fract_z
Si Si1 0.500000 0.875314 0.684557
Si Si2 0.826716 0.895778 0.817738
Si Si3 0.500000 0.558907 0.182274
Si Si4 0.821832 0.786275 0.316018
Si Si5 0.000000 0.265275 0.316348
Si Si6 0.159052 0.556832 0.816108
O O1 0.500000 0.873980 0.500000
O O2 0.500000 0.819879 0.746361
O O3 0.584303 0.905659 0.732542
O O4 0.812129 0.840962 0.751182
O O5 0.747904 0.929312 0.762277
O O6 0.915280 0.917069 0.752781
O O7 0.829883 0.894118 0.000000
O O8 0.500000 0.500000 0.210353
O O9 0.500000 0.567245 0.000000
O O10 0.815759 0.788182 0.500000
O O11 0.750000 0.750000 0.250000
O O12 0.914729 0.764483 0.273011
O O13 0.000000 0.269984 0.500000
O O14 0.134847 0.500000 0.783973
O O15 0.169462 0.561385 0.000000
#
# Coordination Sequence:
#
# PCOD9523303 Si02
#       6
#     8  16   8  16   8  16
#     4  10  21  37  61  90 119 155 200 247 292 347
#     4  12  25  40  61  91 124 158 200 249 303 365
#     4  11  24  43  66  90 119 159 204 251 306 363
#     4  11  23  41  63  88 120 159 203 249 300 358
#     4  10  23  40  59  84 116 153 192 239 296 356
#     4  10  21  39  62  88 120 159 202 247 297 354
#
# _framework density 19.493392
#
# number of rings (size 3 to 8) (size 9 to 14) (size 15 to 20)
#    0.000    1.222    0.000    6.000    0.000   12.444 
#    0.000    0.000    0.000    2.000    0.000    0.000 
#    0.000    0.000    0.000    0.000    0.000    0.000 
#
# Total GULP energy -201453.060878 kJ/mol
# GULP energy per Si atom -5595.918358 kJ/mol
# Density = 1.944902 g / cm^3
# Si number density = 19.493392 Si / 1000 Ang^3
#
#
#
# Elastic Constant Matrix: (Units=GPa)
#
#
# Indices 1 2 3 4 5 6 
#
# 1 68.2935 -18.6327 15.2441 -0.0012 -0.0001 0.0000
# 2 -18.6327 61.9683 27.3469 -0.0032 0.0002 0.0001
# 3 15.2441 27.3469 51.6401 -0.0105 0.0031 0.0011
# 4 -0.0012 -0.0032 -0.0105 35.4631 0.0007 0.0003
# 5 -0.0001 0.0002 0.0031 0.0007 20.1122 -0.0001
# 6 0.0000 0.0001 0.0011 0.0003 -0.0001 43.5439
#
#
#
# Elastic Compliance Matrix: (Units=1/GPa)
#
#
# Indices 1 2 3 4 5 6 
#
# 1 0.020502 0.011530 -0.012158 -0.000002 0.000002 0.000000
# 2 0.011530 0.027543 -0.017990 -0.000002 0.000003 0.000000
# 3 -0.012158 -0.017990 0.032481 0.000008 -0.000005 -0.000001
# 4 -0.000002 -0.000002 0.000008 0.028198 -0.000001 0.000000
# 5 0.000002 0.000003 -0.000005 -0.000001 0.049721 0.000000
# 6 0.000000 0.000000 -0.000001 0.000000 0.000000 0.022965
#
#
# Mechanical properties :
#
#
# Convention : Reuss Voigt Hill
#
# Bulk Modulus (GPa) = 23.09964 25.53539 24.31751
# Shear Modulus (GPa) = 21.45219 30.35341 25.90280
#
# Velocity S-wave (km/s) = 3.32096 3.95031 3.64922
# Velocity P-wave (km/s) = 5.15565 5.82533 5.50069
#
# Compressibility (1/GPa) = 0.04329071
#
# Stress axis : x y z
#
# Youngs Moduli (GPa) = 48.77472 36.30673 30.78760
#
# Poissons Ratio (x) = -0.41862 0.37433
# Poissons Ratio (y) = -0.56238 0.55386
# Poissons Ratio (z) = 0.59302 0.65314
#
# Static dielectric constant tensor:
#      x y z
#    x 1.654530 0.000000 0.000000 
#    y 0.000000 1.636630 0.000000 
#    z 0.000000 0.000000 1.654970 
# 
# From -- ./inp_files/6156.got.cif
#   From: 2010.05.17/outbox.cif.g08.bks.cpg/sg71_4_cif.got.tgz:6156.got - 2010.06.03 16:22:01.
