data_PCOD9523313
_publ_section_title
;
Structure prediction by ZEFSAII (Michael W. Deem and Ramdas Pophale) SiO2 
 PCOD9523313
Probable space group: I M M M
;
_chemical_formula_sum "Si O2"
_cell_formula_units_Z 64
_cell_length_a 14.376766
_cell_length_b 13.139257
_cell_length_c 17.401529
_cell_angle_alpha 90.000000
_cell_angle_beta 90.000000
_cell_angle_gamma 90.000000
_cell_volume 3287.149234
_symmetry_space_group_name_H-M "I M M M"
_symmetry_group_IT_number 71
_symmetry_cell_setting 'orthorhombic'
loop_
_space_group_symop_operation_xyz
x,y,z
-x,-y,z
x,-y,-z
-x,y,-z
-x,-y,-z
x,y,-z
-x,y,z
x,-y,z
1/2+x,1/2+y,1/2+z
1/2-x,1/2-y,1/2+z
1/2+x,1/2-y,1/2-z
1/2-x,1/2+y,1/2-z
1/2-x,1/2-y,1/2-z
1/2+x,1/2+y,1/2-z
1/2-x,1/2+y,1/2+z
1/2+x,1/2-y,1/2+z
loop_
_atom_site_type_symbol
_atom_site_label
_atom_site_fract_x
_atom_site_fract_y
_atom_site_fract_z
Si Si1 0.111964 0.000000 0.406607
Si Si2 0.898235 0.619572 0.000000
Si Si3 0.756509 0.321819 0.868784
Si Si4 0.664091 0.114682 0.086409
Si Si5 0.599605 0.881281 0.253760
O O1 0.168973 0.099766 0.376244
O O2 0.119856 0.000000 0.500000
O O3 0.000000 0.000000 0.388559
O O4 0.836903 0.643319 0.926404
O O5 0.909936 0.500000 0.000000
O O6 0.000000 0.668997 0.000000
O O7 0.730109 0.210032 0.898033
O O8 0.809379 0.328419 0.787524
O O9 0.599722 0.120839 0.161290
O O10 0.705680 0.000000 0.089253
O O11 0.623735 0.125506 0.000000
O O12 0.500000 0.840018 0.281500
O O13 0.605507 0.000000 0.276504
#
# Coordination Sequence:
#
# PCOD9523313 Si02
#       5
#     8   8  16  16  16
#     4  11  22  36  58  92 129 166 203 243 314 389
#     4  11  20  32  59  95 125 160 205 250 309 377
#     4  12  19  39  60  90 128 162 199 260 315 365
#     4  10  22  39  61  86 119 173 216 250 299 361
#     4  10  21  37  62  95 124 156 205 264 316 367
#
# _framework density 19.469759
#
# number of rings (size 3 to 8) (size 9 to 14) (size 15 to 20)
#    0.000    1.250    5.000    1.500    0.000    3.500 
#    0.000    2.500    0.000    3.750    0.000    0.000 
#    0.000    0.000    0.000    0.000    0.000    0.000 
#
# Total GULP energy -178224.420366 kJ/mol
# GULP energy per Si atom -5569.513136 kJ/mol
# Density = 1.942544 g / cm^3
# Si number density = 19.469759 Si / 1000 Ang^3
#
#
#
# Elastic Constant Matrix: (Units=GPa)
#
#
# Indices 1 2 3 4 5 6 
#
# 1 153.9135 65.9824 48.8508 0.0000 0.0000 0.0000
# 2 65.9824 114.6820 28.3952 0.0000 0.0000 0.0000
# 3 48.8508 28.3952 104.7577 0.0000 0.0000 0.0000
# 4 0.0000 0.0000 0.0000 24.7987 0.0000 0.0000
# 5 0.0000 0.0000 0.0000 0.0000 32.7462 0.0000
# 6 0.0000 0.0000 0.0000 0.0000 0.0000 3.8047
#
#
#
# Elastic Compliance Matrix: (Units=1/GPa)
#
#
# Indices 1 2 3 4 5 6 
#
# 1 0.009512 -0.004689 -0.003165 0.000000 0.000000 0.000000
# 2 -0.004689 0.011659 -0.000974 0.000000 0.000000 0.000000
# 3 -0.003165 -0.000974 0.011285 0.000000 0.000000 0.000000
# 4 0.000000 0.000000 0.000000 0.040325 0.000000 0.000000
# 5 0.000000 0.000000 0.000000 0.000000 0.030538 0.000000
# 6 0.000000 0.000000 0.000000 0.000000 0.000000 0.262832
#
#
# Mechanical properties :
#
#
# Convention : Reuss Voigt Hill
#
# Bulk Modulus (GPa) = 67.56048 73.31224 70.43636
# Shear Modulus (GPa) = 12.86213 27.61157 20.23685
#
# Velocity S-wave (km/s) = 2.57304 3.76995 3.22747
# Velocity P-wave (km/s) = 6.60325 7.52903 7.08128
#
# Compressibility (1/GPa) = 0.01480155
#
# Stress axis : x y z
#
# Youngs Moduli (GPa) = 105.13325 85.77306 88.60999
#
# Poissons Ratio (x) = 0.40219 0.28041
# Poissons Ratio (y) = 0.49298 0.08627
# Poissons Ratio (z) = 0.33270 0.08350
#
# Static dielectric constant tensor:
#      x y z
#    x 1.711110 0.000000 0.000000 
#    y 0.000000 1.692880 0.000000 
#    z 0.000000 0.000000 1.799820 
# 
# From -- ./inp_files/21279.got.cif
#   From: 2010.05.17/outbox.cif.g08.bks.cpg/sg71_11_cif.got.tgz:21279.got - 2010.06.03 16:22:01.
