data_PCOD9523930
_publ_section_title
;
Structure prediction by ZEFSAII (Michael W. Deem and Ramdas Pophale) SiO2 
 PCOD9523930
Probable space group: I M M M
;
_chemical_formula_sum "Si O2"
_cell_formula_units_Z 116
_cell_length_a 16.682020
_cell_length_b 18.075381
_cell_length_c 18.134156
_cell_angle_alpha 90.000000
_cell_angle_beta 90.000000
_cell_angle_gamma 90.000000
_cell_volume 5468.062190
_symmetry_space_group_name_H-M "I M M M"
_symmetry_group_IT_number 71
_symmetry_cell_setting 'orthorhombic'
loop_
_space_group_symop_operation_xyz
x,y,z
-x,-y,z
x,-y,-z
-x,y,-z
-x,-y,-z
x,y,-z
-x,y,z
x,-y,z
1/2+x,1/2+y,1/2+z
1/2-x,1/2-y,1/2+z
1/2+x,1/2-y,1/2-z
1/2-x,1/2+y,1/2-z
1/2-x,1/2-y,1/2-z
1/2+x,1/2+y,1/2-z
1/2-x,1/2+y,1/2+z
1/2+x,1/2-y,1/2+z
loop_
_atom_site_type_symbol
_atom_site_label
_atom_site_fract_x
_atom_site_fract_y
_atom_site_fract_z
Si Si1 0.175267 0.807819 0.804210
Si Si2 0.596030 0.917341 0.870133
Si Si3 0.679755 0.771055 0.915344
Si Si4 0.500000 0.500000 0.160079
Si Si5 0.311213 0.914754 0.581518
Si Si6 0.354324 0.378198 0.152218
Si Si7 0.403783 0.582634 0.416396
Si Si8 0.904822 0.345750 0.784920
O O1 0.249796 0.780611 0.854143
O O2 0.184977 0.859312 0.732274
O O3 0.123868 0.855806 0.860780
O O4 0.128915 0.736377 0.774270
O O5 0.500000 0.916428 0.879204
O O6 0.633652 0.848986 0.913257
O O7 0.613909 0.898343 0.784444
O O8 0.625109 0.000000 0.889110
O O9 0.627653 0.700796 0.887547
O O10 0.706744 0.758265 0.000000
O O11 0.428617 0.434266 0.159423
O O12 0.323107 0.883541 0.500000
O O13 0.217990 0.910273 0.603327
O O14 0.363545 0.873856 0.641530
O O15 0.335378 0.000000 0.581553
O O16 0.375399 0.596306 0.500000
O O17 0.500000 0.581323 0.417770
O O18 0.376708 0.500000 0.394017
O O19 0.000000 0.343233 0.792288
#
# Coordination Sequence:
#
# PCOD9523930 Si02
#       8
#    16  16  16   4  16  16  16  16
#     4  12  24  39  70 100 139 186 232 290 362 423
#     4  10  23  45  71 100 136 177 228 293 361 428
#     4  12  26  46  70 102 143 189 238 295 363 434
#     4  12  32  48  81 112 141 192 264 302 376 440
#     4  11  24  45  68  95 139 184 227 293 360 415
#     4  12  26  48  70 106 140 185 243 306 357 431
#     4   9  20  37  57  88 135 186 232 287 355 422
#     4  11  23  41  68 104 136 181 231 288 350 432
#
# _framework density 21.214096000000001
#
# number of rings (size 3 to 8) (size 9 to 14) (size 15 to 20)
#    0.000    0.966    3.448    3.310    3.862    2.759 
#    0.000    3.793    0.000    0.000    0.000    0.000 
#    0.000    0.000    0.000    0.000    0.000    0.000 
#
# Total GULP energy -323549.382218 kJ/mol
# GULP energy per Si atom -5578.437624 kJ/mol
# Density = 2.116581 g / cm^3
# Si number density = 21.214096 Si / 1000 Ang^3
#
#
#
# Elastic Constant Matrix: (Units=GPa)
#
#
# Indices 1 2 3 4 5 6 
#
# 1 59.1636 30.0619 35.9602 0.0000 0.0000 0.0000
# 2 30.0619 137.1725 29.1705 0.0000 0.0000 0.0000
# 3 35.9602 29.1705 92.4745 0.0000 0.0000 0.0000
# 4 0.0000 0.0000 0.0000 25.5375 0.0000 0.0000
# 5 0.0000 0.0000 0.0000 0.0000 10.9372 0.0000
# 6 0.0000 0.0000 0.0000 0.0000 0.0000 60.0916
#
#
#
# Elastic Compliance Matrix: (Units=1/GPa)
#
#
# Indices 1 2 3 4 5 6 
#
# 1 0.023562 -0.003446 -0.008075 0.000000 0.000000 0.000000
# 2 -0.003446 0.008318 -0.001284 0.000000 0.000000 0.000000
# 3 -0.008075 -0.001284 0.014359 0.000000 0.000000 0.000000
# 4 0.000000 0.000000 0.000000 0.039158 0.000000 0.000000
# 5 0.000000 0.000000 0.000000 0.000000 0.091431 0.000000
# 6 0.000000 0.000000 0.000000 0.000000 0.000000 0.016641
#
#
# Mechanical properties :
#
#
# Convention : Reuss Voigt Hill
#
# Bulk Modulus (GPa) = 48.47733 53.24397 50.86065
# Shear Modulus (GPa) = 22.12818 32.22112 27.17465
#
# Velocity S-wave (km/s) = 3.23319 3.90148 3.58295
# Velocity P-wave (km/s) = 6.06952 6.74153 6.41433
#
# Compressibility (1/GPa) = 0.02062820
#
# Stress axis : x y z
#
# Youngs Moduli (GPa) = 42.44190 120.21551 69.64315
#
# Poissons Ratio (x) = 0.41431 0.56238
# Poissons Ratio (y) = 0.14627 0.08941
# Poissons Ratio (z) = 0.34273 0.15433
#
# Static dielectric constant tensor:
#      x y z
#    x 1.752600 0.000000 0.000000 
#    y 0.000000 1.780850 0.000000 
#    z 0.000000 0.000000 1.776880 
# 
# From -- ./inp_files/46213.got.cif
#   From: 2010.05.17/outbox.cif.g08.bks.cpg/sg71_24_cif.got.tgz:46213.got - 2010.06.03 16:22:01.
