data_PCOD9523299
_publ_section_title
;
Structure prediction by ZEFSAII (Michael W. Deem and Ramdas Pophale) SiO2 
 PCOD9523299
Probable space group: I M M M
;
_chemical_formula_sum "Si O2"
_cell_formula_units_Z 116
_cell_length_a 25.414313
_cell_length_b 22.265331
_cell_length_c 10.097398
_cell_angle_alpha 90.000000
_cell_angle_beta 90.000000
_cell_angle_gamma 90.000000
_cell_volume 5713.694357
_symmetry_space_group_name_H-M "I M M M"
_symmetry_group_IT_number 71
_symmetry_cell_setting 'orthorhombic'
loop_
_space_group_symop_operation_xyz
x,y,z
-x,-y,z
x,-y,-z
-x,y,-z
-x,-y,-z
x,y,-z
-x,y,z
x,-y,z
1/2+x,1/2+y,1/2+z
1/2-x,1/2-y,1/2+z
1/2+x,1/2-y,1/2-z
1/2-x,1/2+y,1/2-z
1/2-x,1/2-y,1/2-z
1/2+x,1/2+y,1/2-z
1/2-x,1/2+y,1/2+z
1/2+x,1/2-y,1/2+z
loop_
_atom_site_type_symbol
_atom_site_label
_atom_site_fract_x
_atom_site_fract_y
_atom_site_fract_z
Si Si1 0.734035 0.572217 0.142513
Si Si2 0.559758 0.158996 0.656500
Si Si3 0.559815 0.403507 0.849389
Si Si4 0.848197 0.929146 0.148178
Si Si5 0.337906 0.103910 0.774735
Si Si6 0.587499 0.733849 0.849138
Si Si7 0.203539 0.264702 0.649981
Si Si8 0.338801 0.000000 0.000000
O O1 0.728039 0.500000 0.141163
O O2 0.699945 0.596098 0.265190
O O3 0.794674 0.586779 0.165368
O O4 0.715451 0.595595 0.000000
O O5 0.568344 0.169785 0.500000
O O6 0.500000 0.136401 0.673700
O O7 0.604717 0.115434 0.713117
O O8 0.565752 0.220155 0.741214
O O9 0.500000 0.423975 0.827950
O O10 0.599934 0.424336 0.737588
O O11 0.561510 0.331154 0.843978
O O12 0.575723 0.421172 0.000000
O O13 0.837373 0.000000 0.132990
O O14 0.852916 0.903298 0.000000
O O15 0.317323 0.167214 0.833068
O O16 0.338136 0.052622 0.884588
O O17 0.650150 0.726829 0.827040
O O18 0.580654 0.757828 0.000000
O O19 0.221741 0.255104 0.500000
O O20 0.250000 0.250000 0.750000
#
# Coordination Sequence:
#
# PCOD9523299 Si02
#       8
#    16  16  16  16  16  16  16   4
#     4  10  21  37  61  88 119 160 206 252 311 385
#     4  10  22  41  65  94 130 169 214 269 328 393
#     4  10  21  38  60  87 120 159 207 262 317 381
#     4  10  23  39  58  84 117 157 205 263 323 384
#     4  11  23  41  66  95 130 172 219 266 328 383
#     4   9  20  39  61  89 123 163 212 259 316 390
#     4  10  22  38  59  91 131 167 206 259 319 381
#     4  12  24  44  71  98 136 176 227 286 316 398
#
# _framework density 20.302101
#
# number of rings (size 3 to 8) (size 9 to 14) (size 15 to 20)
#    0.000    1.931    1.379    1.241    3.862    5.517 
#    0.000    2.069    0.000    0.828    0.000    0.000 
#    0.000    0.000    0.000    0.000    0.000    0.000 
#
# Total GULP energy -323406.217213 kJ/mol
# GULP energy per Si atom -5575.969262 kJ/mol
# Density = 2.025589 g / cm^3
# Si number density = 20.302101 Si / 1000 Ang^3
#
#
#
# Elastic Constant Matrix: (Units=GPa)
#
#
# Indices 1 2 3 4 5 6 
#
# 1 129.2292 19.9047 85.5750 0.0000 0.0000 0.0000
# 2 19.9047 65.7720 25.0877 0.0000 0.0000 0.0000
# 3 85.5750 25.0877 150.4319 0.0000 0.0000 0.0000
# 4 0.0000 0.0000 0.0000 30.5636 0.0000 0.0000
# 5 0.0000 0.0000 0.0000 0.0000 20.2775 0.0000
# 6 0.0000 0.0000 0.0000 0.0000 0.0000 0.6160
#
#
#
# Elastic Compliance Matrix: (Units=1/GPa)
#
#
# Indices 1 2 3 4 5 6 
#
# 1 0.012495 -0.001143 -0.006917 0.000000 0.000000 0.000000
# 2 -0.001143 0.016341 -0.002075 0.000000 0.000000 0.000000
# 3 -0.006917 -0.002075 0.010929 0.000000 0.000000 0.000000
# 4 0.000000 0.000000 0.000000 0.032719 0.000000 0.000000
# 5 0.000000 0.000000 0.000000 0.000000 0.049316 0.000000
# 6 0.000000 0.000000 0.000000 0.000000 0.000000 1.623411
#
#
# Mechanical properties :
#
#
# Convention : Reuss Voigt Hill
#
# Bulk Modulus (GPa) = 51.29700 67.39642 59.34671
# Shear Modulus (GPa) = 2.82171 24.61580 13.71875
#
# Velocity S-wave (km/s) = 1.18020 3.48584 2.60230
# Velocity P-wave (km/s) = 5.21334 7.03351 6.19068
#
# Compressibility (1/GPa) = 0.01949432
#
# Stress axis : x y z
#
# Youngs Moduli (GPa) = 80.03357 61.19417 91.50358
#
# Poissons Ratio (x) = 0.06994 0.63295
# Poissons Ratio (y) = 0.09147 0.18988
# Poissons Ratio (z) = 0.55361 0.12699
#
# Static dielectric constant tensor:
#      x y z
#    x 1.724890 0.000000 0.000000 
#    y 0.000000 1.731360 0.000000 
#    z 0.000000 0.000000 1.724890 
# 
# From -- ./inp_files/15410.got.cif
#   From: 2010.05.17/outbox.cif.g08.bks.cpg/sg71_8_cif.got.tgz:15410.got - 2010.06.03 16:22:01.
