data_PCOD9523637
_publ_section_title
;
Structure prediction by ZEFSAII (Michael W. Deem and Ramdas Pophale) SiO2 
 PCOD9523637
Probable space group: I M M M
;
_chemical_formula_sum "Si O2"
_cell_formula_units_Z 74
_cell_length_a 22.669037
_cell_length_b 14.087146
_cell_length_c 14.383560
_cell_angle_alpha 90.000000
_cell_angle_beta 90.000000
_cell_angle_gamma 90.000000
_cell_volume 4593.275305
_symmetry_space_group_name_H-M "I M M M"
_symmetry_group_IT_number 71
_symmetry_cell_setting 'orthorhombic'
loop_
_space_group_symop_operation_xyz
x,y,z
-x,-y,z
x,-y,-z
-x,y,-z
-x,-y,-z
x,y,-z
-x,y,z
x,-y,z
1/2+x,1/2+y,1/2+z
1/2-x,1/2-y,1/2+z
1/2+x,1/2-y,1/2-z
1/2-x,1/2+y,1/2-z
1/2-x,1/2-y,1/2-z
1/2+x,1/2+y,1/2-z
1/2-x,1/2+y,1/2+z
1/2+x,1/2-y,1/2+z
loop_
_atom_site_type_symbol
_atom_site_label
_atom_site_fract_x
_atom_site_fract_y
_atom_site_fract_z
Si Si1 0.500000 0.105865 0.193505
Si Si2 0.701875 0.113805 0.391746
Si Si3 0.314359 0.388559 0.233497
Si Si4 0.721344 0.113607 0.105886
Si Si5 0.500000 0.000000 0.000000
Si Si6 0.623126 0.203159 0.766067
O O1 0.441807 0.162937 0.221529
O O2 0.500000 0.000000 0.238518
O O3 0.500000 0.081265 0.083529
O O4 0.699314 0.138474 0.500000
O O5 0.766350 0.133137 0.347338
O O6 0.653485 0.165421 0.328634
O O7 0.693216 0.000000 0.381969
O O8 0.329186 0.500000 0.229622
O O9 0.277371 0.369053 0.328008
O O10 0.368190 0.316213 0.229291
O O11 0.664637 0.160587 0.152606
O O12 0.711618 0.000000 0.107183
O O13 0.730483 0.143791 0.000000
#
# Coordination Sequence:
#
# PCOD9523637 Si02
#       6
#     8  16  16  16   2  16
#     4  10  22  38  52  75  99 123 159 204 248 293
#     4   9  17  31  50  75 104 132 159 199 252 303
#     4   9  19  33  46  72 103 130 164 207 245 291
#     4   9  17  28  50  79 104 125 156 202 256 302
#     4   8  24  40  56  72 104 124 156 208 264 282
#     4  11  20  31  51  71  98 135 170 202 242 295
#
# _framework density 16.110507999999999
#
# number of rings (size 3 to 8) (size 9 to 14) (size 15 to 20)
#    0.324    2.162    0.000    5.838    1.514    3.459 
#    0.000    1.081    0.000    1.946    0.000    0.757 
#    0.000    5.189    0.000    0.000    0.000    0.000 
#
# Total GULP energy -206043.686347 kJ/mol
# GULP energy per Si atom -5568.748280 kJ/mol
# Density = 1.607384 g / cm^3
# Si number density = 16.110508 Si / 1000 Ang^3
#
#
#
# Elastic Constant Matrix: (Units=GPa)
#
#
# Indices 1 2 3 4 5 6 
#
# 1 101.6836 82.9747 32.5739 0.0000 0.0000 0.0000
# 2 82.9747 104.6557 39.0772 0.0000 0.0000 0.0000
# 3 32.5739 39.0772 117.8397 0.0000 0.0000 0.0000
# 4 0.0000 0.0000 0.0000 6.2929 0.0000 0.0000
# 5 0.0000 0.0000 0.0000 0.0000 1.8576 0.0000
# 6 0.0000 0.0000 0.0000 0.0000 0.0000 22.6756
#
#
#
# Elastic Compliance Matrix: (Units=1/GPa)
#
#
# Indices 1 2 3 4 5 6 
#
# 1 0.027876 -0.021940 -0.000430 0.000000 0.000000 0.000000
# 2 -0.021940 0.028174 -0.003278 0.000000 0.000000 0.000000
# 3 -0.000430 -0.003278 0.009692 0.000000 0.000000 0.000000
# 4 0.000000 0.000000 0.000000 0.158910 0.000000 0.000000
# 5 0.000000 0.000000 0.000000 0.000000 0.538339 0.000000
# 6 0.000000 0.000000 0.000000 0.000000 0.000000 0.044100
#
#
# Mechanical properties :
#
#
# Convention : Reuss Voigt Hill
#
# Bulk Modulus (GPa) = 69.22634 70.38117 69.80376
# Shear Modulus (GPa) = 5.79239 17.46875 11.63057
#
# Velocity S-wave (km/s) = 1.89821 3.29646 2.68978
# Velocity P-wave (km/s) = 6.91862 7.63349 7.28483
#
# Compressibility (1/GPa) = 0.01444537
#
# Stress axis : x y z
#
# Youngs Moduli (GPa) = 35.87377 35.49359 103.17808
#
# Poissons Ratio (x) = 0.77874 0.04435
# Poissons Ratio (y) = 0.78708 0.33823
# Poissons Ratio (z) = 0.01542 0.11635
#
# Static dielectric constant tensor:
#      x y z
#    x 1.501050 0.000000 0.000000 
#    y 0.000000 1.580450 0.000000 
#    z 0.000000 0.000000 1.545030 
# 
# From -- ./inp_files/34325.got.cif
#   From: 2010.05.17/outbox.cif.g08.bks.cpg/sg71_18_cif.got.tgz:34325.got - 2010.06.03 16:22:01.
