data_PCOD9523807
_publ_section_title
;
Structure prediction by ZEFSAII (Michael W. Deem and Ramdas Pophale) SiO2 
 PCOD9523807
Probable space group: I M M M
;
_chemical_formula_sum "Si O2"
_cell_formula_units_Z 80
_cell_length_a 11.608993
_cell_length_b 15.762910
_cell_length_c 23.553499
_cell_angle_alpha 90.000000
_cell_angle_beta 90.000000
_cell_angle_gamma 90.000000
_cell_volume 4310.090391
_symmetry_space_group_name_H-M "I M M M"
_symmetry_group_IT_number 71
_symmetry_cell_setting 'orthorhombic'
loop_
_space_group_symop_operation_xyz
x,y,z
-x,-y,z
x,-y,-z
-x,y,-z
-x,-y,-z
x,y,-z
-x,y,z
x,-y,z
1/2+x,1/2+y,1/2+z
1/2-x,1/2-y,1/2+z
1/2+x,1/2-y,1/2-z
1/2-x,1/2+y,1/2-z
1/2-x,1/2-y,1/2-z
1/2+x,1/2+y,1/2-z
1/2-x,1/2+y,1/2+z
1/2+x,1/2-y,1/2+z
loop_
_atom_site_type_symbol
_atom_site_label
_atom_site_fract_x
_atom_site_fract_y
_atom_site_fract_z
Si Si1 0.772353 0.151012 0.740679
Si Si2 0.000000 0.899638 0.325535
Si Si3 0.637046 0.903792 0.635834
Si Si4 0.363281 0.596765 0.639531
Si Si5 0.256423 0.747114 0.432897
Si Si6 0.500000 0.704280 0.065404
O O1 0.750000 0.250000 0.750000
O O2 0.887870 0.138022 0.704316
O O3 0.672823 0.112572 0.701158
O O4 0.795555 0.108610 0.801313
O O5 0.000000 0.872980 0.390883
O O6 0.000000 0.000000 0.317854
O O7 0.500000 0.896406 0.629273
O O8 0.697920 0.832110 0.597974
O O9 0.672617 0.000000 0.620567
O O10 0.500000 0.610844 0.650196
O O11 0.349330 0.500000 0.619293
O O12 0.316909 0.666850 0.596171
O O13 0.280763 0.750577 0.500000
O O14 0.118072 0.744333 0.425045
O O15 0.500000 0.675894 0.000000
#
# Coordination Sequence:
#
# PCOD9523807 Si02
#       6
#    16   8  16  16  16   8
#     4  12  23  38  64  90 127 163 202 249 313 370
#     4  12  22  37  64  95 122 162 209 257 314 370
#     4  11  24  41  62  91 126 163 203 248 305 372
#     4  11  23  41  66  95 125 161 207 258 313 370
#     4  11  24  43  65  89 123 163 209 258 309 366
#     4  10  22  41  63  90 122 164 210 253 307 373
#
# _framework density 18.561095999999999
#
# number of rings (size 3 to 8) (size 9 to 14) (size 15 to 20)
#    0.000    0.800    5.000    2.400    1.400    2.600 
#    1.800    4.500    0.000    1.800    0.000    0.000 
#    0.000    0.000    0.000    0.000    0.000    0.000 
#
# Total GULP energy -223537.807046 kJ/mol
# GULP energy per Si atom -5588.445176 kJ/mol
# Density = 1.851885 g / cm^3
# Si number density = 18.561096 Si / 1000 Ang^3
#
#
#
# Elastic Constant Matrix: (Units=GPa)
#
#
# Indices 1 2 3 4 5 6 
#
# 1 73.0285 56.8611 39.9323 0.0000 0.0000 0.0000
# 2 56.8611 159.3012 65.7265 0.0000 0.0000 0.0000
# 3 39.9323 65.7265 109.4795 0.0000 0.0000 0.0000
# 4 0.0000 0.0000 0.0000 4.3386 0.0000 0.0000
# 5 0.0000 0.0000 0.0000 0.0000 28.2844 0.0000
# 6 0.0000 0.0000 0.0000 0.0000 0.0000 8.4416
#
#
#
# Elastic Compliance Matrix: (Units=1/GPa)
#
#
# Indices 1 2 3 4 5 6 
#
# 1 0.020227 -0.005551 -0.004045 0.000000 0.000000 0.000000
# 2 -0.005551 0.009868 -0.003899 0.000000 0.000000 0.000000
# 3 -0.004045 -0.003899 0.012951 0.000000 0.000000 0.000000
# 4 0.000000 0.000000 0.000000 0.230489 0.000000 0.000000
# 5 0.000000 0.000000 0.000000 0.000000 0.035355 0.000000
# 6 0.000000 0.000000 0.000000 0.000000 0.000000 0.118460
#
#
# Mechanical properties :
#
#
# Convention : Reuss Voigt Hill
#
# Bulk Modulus (GPa) = 62.28842 74.09433 68.19137
# Shear Modulus (GPa) = 10.87682 20.16555 15.52118
#
# Velocity S-wave (km/s) = 2.42337 3.29970 2.89489
# Velocity P-wave (km/s) = 6.43908 7.38398 6.92766
#
# Compressibility (1/GPa) = 0.01605435
#
# Stress axis : x y z
#
# Youngs Moduli (GPa) = 49.43817 101.34172 77.21601
#
# Poissons Ratio (x) = 0.56253 0.31237
# Poissons Ratio (y) = 0.27442 0.30110
# Poissons Ratio (z) = 0.19999 0.39517
#
# Static dielectric constant tensor:
#      x y z
#    x 1.642910 0.000000 0.000000 
#    y 0.000000 1.623170 0.000000 
#    z 0.000000 0.000000 1.630400 
# 
# From -- ./inp_files/58690.got.cif
#   From: 2010.05.17/outbox.cif.g08.bks.cpg/sg71_30_cif.got.tgz:58690.got - 2010.06.03 16:22:01.
