data_PCOD9523194
_publ_section_title
;
Structure prediction by ZEFSAII (Michael W. Deem and Ramdas Pophale) SiO2 
 PCOD9523194
Probable space group: I M M M
;
_chemical_formula_sum "Si O2"
_cell_formula_units_Z 50
_cell_length_a 20.725748
_cell_length_b 12.441953
_cell_length_c 11.514810
_cell_angle_alpha 90.000000
_cell_angle_beta 90.000000
_cell_angle_gamma 90.000000
_cell_volume 2969.310035
_symmetry_space_group_name_H-M "I M M M"
_symmetry_group_IT_number 71
_symmetry_cell_setting 'orthorhombic'
loop_
_space_group_symop_operation_xyz
x,y,z
-x,-y,z
x,-y,-z
-x,y,-z
-x,-y,-z
x,y,-z
-x,y,z
x,-y,z
1/2+x,1/2+y,1/2+z
1/2-x,1/2-y,1/2+z
1/2+x,1/2-y,1/2-z
1/2-x,1/2+y,1/2-z
1/2-x,1/2-y,1/2-z
1/2+x,1/2+y,1/2-z
1/2-x,1/2+y,1/2+z
1/2+x,1/2-y,1/2+z
loop_
_atom_site_type_symbol
_atom_site_label
_atom_site_fract_x
_atom_site_fract_y
_atom_site_fract_z
Si Si1 0.500000 0.000000 0.500000
Si Si2 0.077421 0.000000 0.637402
Si Si3 0.286935 0.121001 0.138465
Si Si4 0.428838 0.225868 0.500000
Si Si5 0.646679 0.308537 0.725838
O O1 0.555453 0.902098 0.500000
O O2 0.106562 0.896020 0.702062
O O3 0.094516 0.000000 0.500000
O O4 0.000000 0.000000 0.646435
O O5 0.333739 0.208195 0.194230
O O6 0.214472 0.140364 0.184427
O O7 0.307074 0.000000 0.168746
O O8 0.286178 0.132215 0.000000
O O9 0.500000 0.278333 0.500000
O O10 0.391129 0.264530 0.386102
#
# Coordination Sequence:
#
# PCOD9523194 Si02
#       5
#     2   8  16   8  16
#     4   8  24  40  56  90 114 156 200 248 288 366
#     4  11  24  41  60  85 121 161 207 250 292 372
#     4  10  21  37  57  85 119 154 198 250 296 367
#     4  10  22  39  62  88 119 156 203 252 296 368
#     4  11  21  38  59  87 117 160 195 248 308 352
#
# _framework density 16.838927999999999
#
# number of rings (size 3 to 8) (size 9 to 14) (size 15 to 20)
#    0.480    1.120    3.200    1.920    2.240    0.640 
#    0.000    1.600    0.000    0.000    0.000    8.960 
#    0.000    0.000    0.000    0.000    0.000    0.000 
#
# Total GULP energy -139190.317077 kJ/mol
# GULP energy per Si atom -5567.612683 kJ/mol
# Density = 1.680060 g / cm^3
# Si number density = 16.838928 Si / 1000 Ang^3
#
#
#
# Elastic Constant Matrix: (Units=GPa)
#
#
# Indices 1 2 3 4 5 6 
#
# 1 89.5782 70.2895 59.0623 0.0000 0.0000 0.0000
# 2 70.2895 173.3597 100.7153 0.0000 0.0000 0.0000
# 3 59.0623 100.7153 123.0897 0.0000 0.0000 0.0000
# 4 0.0000 0.0000 0.0000 20.7529 0.0000 0.0000
# 5 0.0000 0.0000 0.0000 0.0000 24.2913 0.0000
# 6 0.0000 0.0000 0.0000 0.0000 0.0000 15.8853
#
#
#
# Elastic Compliance Matrix: (Units=1/GPa)
#
#
# Indices 1 2 3 4 5 6 
#
# 1 0.017878 -0.004317 -0.005046 0.000000 0.000000 0.000000
# 2 -0.004317 0.012037 -0.007778 0.000000 0.000000 0.000000
# 3 -0.005046 -0.007778 0.016909 0.000000 0.000000 0.000000
# 4 0.000000 0.000000 0.000000 0.048186 0.000000 0.000000
# 5 0.000000 0.000000 0.000000 0.000000 0.041167 0.000000
# 6 0.000000 0.000000 0.000000 0.000000 0.000000 0.062951
#
#
# Mechanical properties :
#
#
# Convention : Reuss Voigt Hill
#
# Bulk Modulus (GPa) = 79.72678 94.01798 86.87238
# Shear Modulus (GPa) = 21.04449 22.58327 21.81388
#
# Velocity S-wave (km/s) = 3.53902 3.66612 3.60313
# Velocity P-wave (km/s) = 8.00931 8.59509 8.30736
#
# Compressibility (1/GPa) = 0.01254284
#
# Stress axis : x y z
#
# Youngs Moduli (GPa) = 55.93454 83.07466 59.13892
#
# Poissons Ratio (x) = 0.35865 0.29841
# Poissons Ratio (y) = 0.24148 0.45997
# Poissons Ratio (z) = 0.28224 0.64613
#
# Static dielectric constant tensor:
#      x y z
#    x 1.547280 0.000000 0.000000 
#    y 0.000000 1.553970 0.000000 
#    z 0.000000 0.000000 1.550780 
# 
# From -- ./inp_files/25036.got.cif
#   From: 2010.05.17/outbox.cif.g08.bks.cpg/sg71_13_cif.got.tgz:25036.got - 2010.06.03 16:22:01.
