data_PCOD9523222
_publ_section_title
;
Structure prediction by ZEFSAII (Michael W. Deem and Ramdas Pophale) SiO2 
 PCOD9523222
Probable space group: I M M M
;
_chemical_formula_sum "Si O2"
_cell_formula_units_Z 116
_cell_length_a 29.308299
_cell_length_b 23.627023
_cell_length_c 8.389336
_cell_angle_alpha 90.000000
_cell_angle_beta 90.000000
_cell_angle_gamma 90.000000
_cell_volume 5809.345501
_symmetry_space_group_name_H-M "I M M M"
_symmetry_group_IT_number 71
_symmetry_cell_setting 'orthorhombic'
loop_
_space_group_symop_operation_xyz
x,y,z
-x,-y,z
x,-y,-z
-x,y,-z
-x,-y,-z
x,y,-z
-x,y,z
x,-y,z
1/2+x,1/2+y,1/2+z
1/2-x,1/2-y,1/2+z
1/2+x,1/2-y,1/2-z
1/2-x,1/2+y,1/2-z
1/2-x,1/2-y,1/2-z
1/2+x,1/2+y,1/2-z
1/2-x,1/2+y,1/2+z
1/2+x,1/2-y,1/2+z
loop_
_atom_site_type_symbol
_atom_site_label
_atom_site_fract_x
_atom_site_fract_y
_atom_site_fract_z
Si Si1 0.801626 0.252266 0.809757
Si Si2 0.880303 0.180478 0.689344
Si Si3 0.500000 0.000000 0.276256
Si Si4 0.171133 0.376470 0.193278
Si Si5 0.448511 0.776829 0.194091
Si Si6 0.425410 0.094679 0.808307
Si Si7 0.264823 0.566435 0.183496
Si Si8 0.865353 0.062746 0.812322
O O1 0.750000 0.250000 0.750000
O O2 0.830569 0.199746 0.747527
O O3 0.826761 0.310458 0.757214
O O4 0.801184 0.252303 0.000000
O O5 0.881019 0.183052 0.500000
O O6 0.914702 0.228316 0.753677
O O7 0.890492 0.116684 0.740311
O O8 0.540313 0.049532 0.268276
O O9 0.128068 0.409537 0.265135
O O10 0.220263 0.401106 0.242058
O O11 0.168167 0.379774 0.000000
O O12 0.500000 0.763338 0.240480
O O13 0.437454 0.841074 0.242799
O O14 0.446078 0.777316 0.000000
O O15 0.431769 0.089161 0.000000
O O16 0.253205 0.500000 0.181335
O O17 0.311448 0.571921 0.279609
O O18 0.274033 0.584431 0.000000
O O19 0.876529 0.000000 0.746497
O O20 0.873134 0.062153 0.000000
#
# Coordination Sequence:
#
# PCOD9523222 Si02
#       8
#    16  16   4  16  16  16  16  16
#     4  11  22  35  54  82 119 156 196 245 296 357
#     4  11  21  35  58  86 113 149 195 237 293 356
#     4  12  25  40  65  94 117 152 207 266 317 362
#     4  10  22  37  52  77 113 151 190 238 294 348
#     4   9  18  35  59  84 113 147 189 242 294 348
#     4  11  21  37  59  83 111 147 194 247 300 351
#     4   9  18  34  54  76 108 152 196 237 283 340
#     4  10  21  37  58  85 117 150 187 233 282 341
#
# _framework density 19.967825999999999
#
# number of rings (size 3 to 8) (size 9 to 14) (size 15 to 20)
#    0.000    1.793    2.069    2.690    0.966    3.034 
#    0.000    0.690    0.000    3.724    0.000    2.897 
#    0.000    0.000    0.000    0.000    0.000    0.000 
#
# Total GULP energy -323341.633138 kJ/mol
# GULP energy per Si atom -5574.855744 kJ/mol
# Density = 1.992238 g / cm^3
# Si number density = 19.967826 Si / 1000 Ang^3
#
#
#
# Elastic Constant Matrix: (Units=GPa)
#
#
# Indices 1 2 3 4 5 6 
#
# 1 64.7561 48.4270 3.2119 0.0000 0.0000 0.0000
# 2 48.4270 147.7147 17.2801 0.0000 0.0000 0.0000
# 3 3.2119 17.2801 21.2574 0.0000 0.0000 0.0000
# 4 0.0000 0.0000 0.0000 10.9393 0.0000 0.0000
# 5 0.0000 0.0000 0.0000 0.0000 4.6000 0.0000
# 6 0.0000 0.0000 0.0000 0.0000 0.0000 7.0731
#
#
#
# Elastic Compliance Matrix: (Units=1/GPa)
#
#
# Indices 1 2 3 4 5 6 
#
# 1 0.020590 -0.007058 0.002626 0.000000 0.000000 0.000000
# 2 -0.007058 0.009900 -0.006982 0.000000 0.000000 0.000000
# 3 0.002626 -0.006982 0.052321 0.000000 0.000000 0.000000
# 4 0.000000 0.000000 0.000000 0.091413 0.000000 0.000000
# 5 0.000000 0.000000 0.000000 0.000000 0.217391 0.000000
# 6 0.000000 0.000000 0.000000 0.000000 0.000000 0.141380
#
#
# Mechanical properties :
#
#
# Convention : Reuss Voigt Hill
#
# Bulk Modulus (GPa) = 16.67076 41.28515 28.97796
# Shear Modulus (GPa) = 8.68331 15.50978 12.09654
#
# Velocity S-wave (km/s) = 2.08760 2.79003 2.46397
# Velocity P-wave (km/s) = 3.76533 5.57671 4.75802
#
# Compressibility (1/GPa) = 0.05998526
#
# Stress axis : x y z
#
# Youngs Moduli (GPa) = 48.56686 101.00727 19.11277
#
# Poissons Ratio (x) = 0.71286 -0.05019
# Poissons Ratio (y) = 0.34276 0.13344
# Poissons Ratio (z) = -0.12754 0.70519
#
# Static dielectric constant tensor:
#      x y z
#    x 1.685860 0.000000 0.000000 
#    y 0.000000 1.737140 0.000000 
#    z 0.000000 0.000000 1.707960 
# 
# From -- ./inp_files/15391.got.cif
#   From: 2010.05.17/outbox.cif.g08.bks.cpg/sg71_8_cif.got.tgz:15391.got - 2010.06.03 16:22:01.
