data_PCOD9523036
_publ_section_title
;
Structure prediction by ZEFSAII (Michael W. Deem and Ramdas Pophale) SiO2 
 PCOD9523036
Probable space group: I M M M
;
_chemical_formula_sum "Si O2"
_cell_formula_units_Z 112
_cell_length_a 14.806205
_cell_length_b 22.562412
_cell_length_c 16.210039
_cell_angle_alpha 90.000000
_cell_angle_beta 90.000000
_cell_angle_gamma 90.000000
_cell_volume 5415.185563
_symmetry_space_group_name_H-M "I M M M"
_symmetry_group_IT_number 71
_symmetry_cell_setting 'orthorhombic'
loop_
_space_group_symop_operation_xyz
x,y,z
-x,-y,z
x,-y,-z
-x,y,-z
-x,-y,-z
x,y,-z
-x,y,z
x,-y,z
1/2+x,1/2+y,1/2+z
1/2-x,1/2-y,1/2+z
1/2+x,1/2-y,1/2-z
1/2-x,1/2+y,1/2-z
1/2-x,1/2-y,1/2-z
1/2+x,1/2+y,1/2-z
1/2-x,1/2+y,1/2+z
1/2+x,1/2-y,1/2+z
loop_
_atom_site_type_symbol
_atom_site_label
_atom_site_fract_x
_atom_site_fract_y
_atom_site_fract_z
Si Si1 0.843625 0.900102 0.592729
Si Si2 0.264357 0.729465 0.909896
Si Si3 0.597711 0.188360 0.682025
Si Si4 0.603538 0.836097 0.875781
Si Si5 0.098389 0.928986 0.224353
Si Si6 0.750961 0.929123 0.094038
Si Si7 0.363226 0.935497 0.595440
O O1 0.881895 0.912139 0.500000
O O2 0.823476 0.830026 0.598953
O O3 0.891365 0.917348 0.677762
O O4 0.745645 0.931158 0.595988
O O5 0.183362 0.727051 0.844980
O O6 0.330836 0.784606 0.908098
O O7 0.219719 0.725239 0.000000
O O8 0.500000 0.215106 0.661063
O O9 0.601328 0.175585 0.778404
O O10 0.604649 0.123690 0.639654
O O11 0.500000 0.834251 0.905296
O O12 0.655400 0.896873 0.894410
O O13 0.179797 0.907329 0.165478
O O14 0.000000 0.905977 0.197704
O O15 0.098524 0.000000 0.214260
O O16 0.741469 0.000000 0.101883
O O17 0.783450 0.916767 0.000000
O O18 0.391451 0.933423 0.500000
O O19 0.389699 0.000000 0.630266
#
# Coordination Sequence:
#
# PCOD9523036 Si02
#       7
#    16  16  16  16  16  16  16
#     4   9  18  33  54  81 115 156 198 239 286 341
#     4  10  21  38  59  81 111 151 190 233 284 338
#     4  10  21  36  56  84 118 156 195 236 284 341
#     4  11  24  41  62  87 114 145 185 237 296 356
#     4  10  21  36  56  84 118 156 195 236 283 338
#     4  10  22  41  64  87 113 148 190 241 298 350
#     4   9  17  30  51  80 116 159 201 240 285 339
#
# _framework density 20.682577999999999
#
# number of rings (size 3 to 8) (size 9 to 14) (size 15 to 20)
#    0.000    2.143    0.000    4.286    0.000    6.571 
#    0.000    8.571    0.000    1.714    0.000    0.000 
#    0.000    0.000    0.000    0.000    0.000    0.000 
#
# Total GULP energy -312417.720745 kJ/mol
# GULP energy per Si atom -5578.887870 kJ/mol
# Density = 2.063550 g / cm^3
# Si number density = 20.682578 Si / 1000 Ang^3
#
#
#
# Elastic Constant Matrix: (Units=GPa)
#
#
# Indices 1 2 3 4 5 6 
#
# 1 121.5406 36.1842 48.3417 0.0000 0.0000 0.0000
# 2 36.1842 48.3767 16.0583 0.0002 0.0000 0.0000
# 3 48.3417 16.0583 97.4966 0.0003 0.0001 0.0001
# 4 0.0000 0.0002 0.0003 16.5850 0.0001 0.0000
# 5 0.0000 0.0000 0.0001 0.0001 7.1690 0.0000
# 6 0.0000 0.0000 0.0001 0.0000 0.0000 7.1313
#
#
#
# Elastic Compliance Matrix: (Units=1/GPa)
#
#
# Indices 1 2 3 4 5 6 
#
# 1 0.012476 -0.007699 -0.004918 0.000000 0.000000 0.000000
# 2 -0.007699 0.026618 -0.000567 0.000000 0.000000 0.000000
# 3 -0.004918 -0.000567 0.012788 0.000000 0.000000 0.000000
# 4 0.000000 0.000000 0.000000 0.060295 -0.000001 0.000000
# 5 0.000000 0.000000 0.000000 -0.000001 0.139490 0.000000
# 6 0.000000 0.000000 0.000000 0.000000 0.000000 0.140227
#
#
# Mechanical properties :
#
#
# Convention : Reuss Voigt Hill
#
# Bulk Modulus (GPa) = 39.19258 52.06469 45.62864
# Shear Modulus (GPa) = 11.71601 17.29904 14.50752
#
# Velocity S-wave (km/s) = 2.38264 2.89521 2.65134
# Velocity P-wave (km/s) = 5.15364 6.03359 5.61089
#
# Compressibility (1/GPa) = 0.02551503
#
# Stress axis : x y z
#
# Youngs Moduli (GPa) = 80.15511 37.56878 78.19531
#
# Poissons Ratio (x) = 0.28924 0.38455
# Poissons Ratio (y) = 0.61712 0.04431
# Poissons Ratio (z) = 0.39419 0.02129
#
# Static dielectric constant tensor:
#      x y z
#    x 1.759840 0.000000 0.000000 
#    y 0.000000 1.733240 0.000000 
#    z 0.000000 0.000000 1.765220 
# 
# From -- ./inp_files/34875.got.cif
#   From: 2010.05.17/outbox.cif.g08.bks.cpg/sg71_18_cif.got.tgz:34875.got - 2010.06.03 16:22:01.
