data_PCOD9523726
_publ_section_title
;
Structure prediction by ZEFSAII (Michael W. Deem and Ramdas Pophale) SiO2 
 PCOD9523726
Probable space group: I M M M
;
_chemical_formula_sum "Si O2"
_cell_formula_units_Z 100
_cell_length_a 7.990230
_cell_length_b 22.443995
_cell_length_c 25.326658
_cell_angle_alpha 90.000000
_cell_angle_beta 90.000000
_cell_angle_gamma 90.000000
_cell_volume 4541.897510
_symmetry_space_group_name_H-M "I M M M"
_symmetry_group_IT_number 71
_symmetry_cell_setting 'orthorhombic'
loop_
_space_group_symop_operation_xyz
x,y,z
-x,-y,z
x,-y,-z
-x,y,-z
-x,-y,-z
x,y,-z
-x,y,z
x,-y,z
1/2+x,1/2+y,1/2+z
1/2-x,1/2-y,1/2+z
1/2+x,1/2-y,1/2-z
1/2-x,1/2+y,1/2-z
1/2-x,1/2-y,1/2-z
1/2+x,1/2+y,1/2-z
1/2-x,1/2+y,1/2+z
1/2+x,1/2-y,1/2+z
loop_
_atom_site_type_symbol
_atom_site_label
_atom_site_fract_x
_atom_site_fract_y
_atom_site_fract_z
Si Si1 0.303293 0.565255 0.086129
Si Si2 0.812310 0.075854 0.711224
Si Si3 0.310792 0.815464 0.241930
Si Si4 0.000000 0.500000 0.753734
Si Si5 0.798761 0.566658 0.437295
Si Si6 0.197870 0.816173 0.874522
Si Si7 0.299224 0.799275 0.440828
O O1 0.500000 0.565731 0.072616
O O2 0.235031 0.500000 0.066939
O O3 0.287480 0.562847 0.149614
O O4 0.236248 0.630528 0.070274
O O5 0.803035 0.145003 0.721073
O O6 0.000000 0.057847 0.726899
O O7 0.652347 0.049967 0.742111
O O8 0.500000 0.821479 0.259504
O O9 0.250000 0.750000 0.250000
O O10 0.289143 0.829630 0.180335
O O11 0.765574 0.568701 0.500000
O O12 0.744449 0.500000 0.418186
O O13 0.722554 0.625226 0.410655
O O14 0.000000 0.569149 0.429847
O O15 0.258743 0.753954 0.901624
O O16 0.000000 0.809288 0.863508
O O17 0.235496 0.786319 0.500000
O O18 0.500000 0.793820 0.441070
#
# Coordination Sequence:
#
# PCOD9523726 Si02
#       7
#    16  16  16   4  16  16  16
#     4  10  22  39  61  89 124 163 206 259 312 374
#     4  11  23  42  65  97 132 170 222 264 315 389
#     4  12  25  43  65  93 127 167 213 267 330 386
#     4  12  22  40  68  98 129 178 215 262 324 372
#     4   9  19  38  63  91 123 160 203 253 312 381
#     4  11  23  41  63  89 123 163 207 260 317 381
#     4  10  23  40  60  88 121 160 208 260 316 383
#
# _framework density 22.017229
#
# number of rings (size 3 to 8) (size 9 to 14) (size 15 to 20)
#    0.000    1.440    1.600    4.080    1.120    6.080 
#    1.440    2.400    0.000    0.000    0.000    0.000 
#    0.000    0.000    0.000    0.000    0.000    0.000 
#
# Total GULP energy -278395.383926 kJ/mol
# GULP energy per Si atom -5567.907679 kJ/mol
# Density = 2.196712 g / cm^3
# Si number density = 22.017229 Si / 1000 Ang^3
#
#
#
# Elastic Constant Matrix: (Units=GPa)
#
#
# Indices 1 2 3 4 5 6 
#
# 1 86.3101 16.1167 3.2564 0.0000 0.0000 0.0000
# 2 16.1167 128.5680 14.2356 0.0000 0.0000 0.0000
# 3 3.2564 14.2356 35.6550 0.0000 0.0000 0.0000
# 4 0.0000 0.0000 0.0000 47.5487 0.0000 0.0000
# 5 0.0000 0.0000 0.0000 0.0000 20.6400 0.0000
# 6 0.0000 0.0000 0.0000 0.0000 0.0000 90.7643
#
#
#
# Elastic Compliance Matrix: (Units=1/GPa)
#
#
# Indices 1 2 3 4 5 6 
#
# 1 0.011873 -0.001432 -0.000513 0.000000 0.000000 0.000000
# 2 -0.001432 0.008310 -0.003187 0.000000 0.000000 0.000000
# 3 -0.000513 -0.003187 0.029366 0.000000 0.000000 0.000000
# 4 0.000000 0.000000 0.000000 0.021031 0.000000 0.000000
# 5 0.000000 0.000000 0.000000 0.000000 0.048450 0.000000
# 6 0.000000 0.000000 0.000000 0.000000 0.000000 0.011018
#
#
# Mechanical properties :
#
#
# Convention : Reuss Voigt Hill
#
# Bulk Modulus (GPa) = 25.45443 35.30561 30.38002
# Shear Modulus (GPa) = 32.59332 46.25223 39.42277
#
# Velocity S-wave (km/s) = 3.85171 4.58834 4.23607
# Velocity P-wave (km/s) = 5.60064 6.64385 6.14443
#
# Compressibility (1/GPa) = 0.03928589
#
# Stress axis : x y z
#
# Youngs Moduli (GPa) = 84.22623 120.33194 34.05310
#
# Poissons Ratio (x) = 0.17226 0.01746
# Poissons Ratio (y) = 0.12057 0.10854
# Poissons Ratio (z) = 0.04319 0.38353
#
# Static dielectric constant tensor:
#      x y z
#    x 2.189120 0.000000 0.000000 
#    y 0.000000 1.842070 0.000000 
#    z 0.000000 0.000000 1.776220 
# 
# From -- ./inp_files/63320.got.cif
#   From: 2010.05.17/outbox.cif.g08.bks.cpg/sg71_32_cif.got.tgz:63320.got - 2010.06.03 16:22:01.
