data_PCOD9523542
_publ_section_title
;
Structure prediction by ZEFSAII (Michael W. Deem and Ramdas Pophale) SiO2 
 PCOD9523542
Probable space group: I M M M
;
_chemical_formula_sum "Si O2"
_cell_formula_units_Z 92
_cell_length_a 17.212419
_cell_length_b 27.559113
_cell_length_c 10.111483
_cell_angle_alpha 90.000000
_cell_angle_beta 90.000000
_cell_angle_gamma 90.000000
_cell_volume 4796.472967
_symmetry_space_group_name_H-M "I M M M"
_symmetry_group_IT_number 71
_symmetry_cell_setting 'orthorhombic'
loop_
_space_group_symop_operation_xyz
x,y,z
-x,-y,z
x,-y,-z
-x,y,-z
-x,-y,-z
x,y,-z
-x,y,z
x,-y,z
1/2+x,1/2+y,1/2+z
1/2-x,1/2-y,1/2+z
1/2+x,1/2-y,1/2-z
1/2-x,1/2+y,1/2-z
1/2-x,1/2-y,1/2-z
1/2+x,1/2+y,1/2-z
1/2-x,1/2+y,1/2+z
1/2+x,1/2-y,1/2+z
loop_
_atom_site_type_symbol
_atom_site_label
_atom_site_fract_x
_atom_site_fract_y
_atom_site_fract_z
Si Si1 0.590448 0.441813 0.500000
Si Si2 0.826697 0.373706 0.842408
Si Si3 0.155037 0.911338 0.716288
Si Si4 0.352697 0.500000 0.000000
Si Si5 0.908489 0.809899 0.356312
Si Si6 0.406894 0.055050 0.147021
Si Si7 0.907076 0.728185 0.155293
O O1 0.589115 0.500000 0.500000
O O2 0.500000 0.424754 0.500000
O O3 0.632964 0.425317 0.365887
O O4 0.740687 0.388204 0.796949
O O5 0.880900 0.410231 0.762433
O O6 0.856366 0.319416 0.814306
O O7 0.831957 0.381047 0.000000
O O8 0.101324 0.866377 0.674133
O O9 0.147635 0.956905 0.616763
O O10 0.871895 0.799766 0.500000
O O11 0.880223 0.773484 0.243446
O O12 0.000000 0.800237 0.364374
O O13 0.500000 0.053460 0.144085
O O14 0.378181 0.000000 0.168443
O O15 0.380383 0.070836 0.000000
O O16 0.000000 0.718109 0.177350
O O17 0.899033 0.739379 0.000000
#
# Coordination Sequence:
#
# PCOD9523542 Si02
#       7
#     8  16  16   4  16  16  16
#     4  11  26  46  66  91 124 162 212 259 307 384
#     4  11  23  38  62  91 128 169 213 263 321 390
#     4  12  25  44  64  95 130 169 212 264 324 391
#     4  12  24  46  67  94 143 170 204 266 336 382
#     4  10  21  40  64  91 123 162 213 267 322 385
#     4   9  20  37  56  83 120 164 216 268 320 380
#     4   9  20  39  62  91 127 169 213 264 321 378
#
# _framework density 19.180761
#
# number of rings (size 3 to 8) (size 9 to 14) (size 15 to 20)
#    0.000    1.652    2.609    1.565    3.652    2.783 
#    0.000    4.348    0.000    0.000    0.000    0.000 
#    0.000    0.000    0.000    0.000    0.000    0.000 
#
# Total GULP energy -256117.962966 kJ/mol
# GULP energy per Si atom -5567.781804 kJ/mol
# Density = 1.913710 g / cm^3
# Si number density = 19.180761 Si / 1000 Ang^3
#
#
#
# Elastic Constant Matrix: (Units=GPa)
#
#
# Indices 1 2 3 4 5 6 
#
# 1 29.4989 41.2007 48.4797 0.0000 0.0001 0.0000
# 2 41.2007 138.8697 95.2752 -0.0001 0.0000 0.0000
# 3 48.4797 95.2752 141.8451 -0.0005 -0.0002 -0.0001
# 4 0.0000 -0.0001 -0.0005 43.3145 0.0000 -0.0001
# 5 0.0001 0.0000 -0.0002 0.0000 34.4415 0.0000
# 6 0.0000 0.0000 -0.0001 -0.0001 0.0000 19.5060
#
#
#
# Elastic Compliance Matrix: (Units=1/GPa)
#
#
# Indices 1 2 3 4 5 6 
#
# 1 0.083800 -0.009667 -0.022148 0.000000 0.000000 0.000000
# 2 -0.009667 0.014471 -0.006416 0.000000 0.000000 0.000000
# 3 -0.022148 -0.006416 0.018929 0.000000 0.000000 0.000000
# 4 0.000000 0.000000 0.000000 0.023087 0.000000 0.000000
# 5 0.000000 0.000000 0.000000 0.000000 0.029035 0.000000
# 6 0.000000 0.000000 0.000000 0.000000 0.000000 0.051266
#
#
# Mechanical properties :
#
#
# Convention : Reuss Voigt Hill
#
# Bulk Modulus (GPa) = 24.54685 75.56945 50.05815
# Shear Modulus (GPa) = 16.09635 27.80294 21.94964
#
# Velocity S-wave (km/s) = 2.90002 3.81139 3.38650
# Velocity P-wave (km/s) = 4.90295 7.67157 6.43786
#
# Compressibility (1/GPa) = 0.04073842
#
# Stress axis : x y z
#
# Youngs Moduli (GPa) = 11.93312 69.10440 52.82900
#
# Poissons Ratio (x) = 0.66805 1.17005
# Poissons Ratio (y) = 0.11536 0.33894
# Poissons Ratio (z) = 0.26429 0.44336
#
# Static dielectric constant tensor:
#      x y z
#    x 1.770980 0.000000 0.000000 
#    y 0.000000 1.647520 0.000000 
#    z 0.000000 0.000000 1.672310 
# 
# From -- ./inp_files/11010.got.cif
#   From: 2010.05.17/outbox.cif.g08.bks.cpg/sg71_6_cif.got.tgz:11010.got - 2010.06.03 16:22:01.
