data_PCOD9523889
_publ_section_title
;
Structure prediction by ZEFSAII (Michael W. Deem and Ramdas Pophale) SiO2 
 PCOD9523889
Probable space group: I M M M
;
_chemical_formula_sum "Si O2"
_cell_formula_units_Z 88
_cell_length_a 10.177600
_cell_length_b 29.295735
_cell_length_c 13.270186
_cell_angle_alpha 90.000000
_cell_angle_beta 90.000000
_cell_angle_gamma 90.000000
_cell_volume 3956.642274
_symmetry_space_group_name_H-M "I M M M"
_symmetry_group_IT_number 71
_symmetry_cell_setting 'orthorhombic'
loop_
_space_group_symop_operation_xyz
x,y,z
-x,-y,z
x,-y,-z
-x,y,-z
-x,-y,-z
x,y,-z
-x,y,z
x,-y,z
1/2+x,1/2+y,1/2+z
1/2-x,1/2-y,1/2+z
1/2+x,1/2-y,1/2-z
1/2-x,1/2+y,1/2-z
1/2-x,1/2-y,1/2-z
1/2+x,1/2+y,1/2-z
1/2-x,1/2+y,1/2+z
1/2+x,1/2-y,1/2+z
loop_
_atom_site_type_symbol
_atom_site_label
_atom_site_fract_x
_atom_site_fract_y
_atom_site_fract_z
Si Si1 0.245352 0.947846 0.887086
Si Si2 0.657929 0.822451 0.612977
Si Si3 0.352418 0.722066 0.619608
Si Si4 0.149360 0.555050 0.000000
Si Si5 0.648586 0.855130 0.825775
Si Si6 0.140930 0.945520 0.333278
O O1 0.500000 0.837738 0.838984
O O2 0.342073 0.905068 0.874868
O O3 0.299255 0.000000 0.878760
O O4 0.185502 0.944931 0.000000
O O5 0.707817 0.833051 0.500000
O O6 0.500000 0.818711 0.604829
O O7 0.702736 0.771960 0.649269
O O8 0.680181 0.855615 0.706555
O O9 0.367220 0.727435 0.500000
O O10 0.500000 0.714567 0.662586
O O11 0.255910 0.679842 0.633410
O O12 0.236215 0.567463 0.903013
O O13 0.136089 0.500000 0.000000
O O14 0.000000 0.574162 0.000000
O O15 0.842558 0.940922 0.787409
O O16 0.000000 0.925005 0.363925
O O17 0.133443 0.000000 0.350358
#
# Coordination Sequence:
#
# PCOD9523889 Si02
#       6
#    16  16  16   8  16  16
#     4  10  23  41  57  80 121 167 210 264 326 375
#     4   8  16  34  59  87 121 157 190 233 301 379
#     4   9  18  34  58  88 122 158 191 231 297 376
#     4   9  17  31  55  87 119 147 181 233 303 379
#     4  11  22  36  59  89 118 154 206 259 304 363
#     4   9  18  35  60  86 111 146 197 255 310 364
#
# _framework density 22.24108
#
# number of rings (size 3 to 8) (size 9 to 14) (size 15 to 20)
#    0.000    2.636    0.000    2.455    0.000    4.727 
#    1.636    4.545    0.000    1.636    0.000    0.000 
#    0.000    0.000    0.000    0.000    0.000    0.000 
#
# Total GULP energy -245102.371044 kJ/mol
# GULP energy per Si atom -5570.508433 kJ/mol
# Density = 2.219046 g / cm^3
# Si number density = 22.241080 Si / 1000 Ang^3
#
#
#
# Elastic Constant Matrix: (Units=GPa)
#
#
# Indices 1 2 3 4 5 6 
#
# 1 107.6159 34.8736 48.8845 0.0000 0.0001 0.0000
# 2 34.8736 112.7022 37.2343 0.0001 0.0001 0.0000
# 3 48.8845 37.2343 134.6443 0.0001 0.0002 -0.0001
# 4 0.0000 0.0001 0.0001 40.6633 0.0001 0.0000
# 5 0.0001 0.0001 0.0002 0.0001 3.1109 0.0000
# 6 0.0000 0.0000 -0.0001 0.0000 0.0000 -5.4461
#
#
#
# Elastic Compliance Matrix: (Units=1/GPa)
#
#
# Indices 1 2 3 4 5 6 
#
# 1 0.011708 -0.002441 -0.003575 0.000000 0.000000 0.000000
# 2 -0.002441 0.010274 -0.001955 0.000000 0.000000 0.000000
# 3 -0.003575 -0.001955 0.009266 0.000000 -0.000001 0.000000
# 4 0.000000 0.000000 0.000000 0.024592 -0.000001 0.000000
# 5 0.000000 0.000000 -0.000001 -0.000001 0.321451 0.000000
# 6 0.000000 0.000000 0.000000 0.000000 0.000000 -0.183617
#
#
# Mechanical properties :
#
#
# Convention : Reuss Voigt Hill
#
# Bulk Modulus (GPa) = 65.34205 66.32745 65.83475
# Shear Modulus (GPa) = 23.28629 23.26362 23.27495
#
# Velocity S-wave (km/s) = 3.23924 3.23766 3.23845
# Velocity P-wave (km/s) = 6.59037 6.62294 6.60668
#
# Compressibility (1/GPa) = 0.01530408
#
# Stress axis : x y z
#
# Youngs Moduli (GPa) = 85.41441 97.33090 107.92514
#
# Poissons Ratio (x) = 0.23763 0.38588
# Poissons Ratio (y) = 0.20854 0.21097
# Poissons Ratio (z) = 0.30540 0.19026
#
# Static dielectric constant tensor:
#      x y z
#    x 1.795300 0.000000 0.000000 
#    y 0.000000 1.877960 0.000000 
#    z 0.000000 0.000000 1.849990 
# 
# From -- ./inp_files/20257.got.cif
#   From: 2010.05.17/outbox.cif.g08.bks.cpg/sg71_11_cif.got.tgz:20257.got - 2010.06.03 16:22:01.
