data_PCOD9523447
_publ_section_title
;
Structure prediction by ZEFSAII (Michael W. Deem and Ramdas Pophale) SiO2 
 PCOD9523447
Probable space group: I M M M
;
_chemical_formula_sum "Si O2"
_cell_formula_units_Z 76
_cell_length_a 27.473641
_cell_length_b 7.401792
_cell_length_c 16.159504
_cell_angle_alpha 90.000000
_cell_angle_beta 90.000000
_cell_angle_gamma 90.000000
_cell_volume 3286.102623
_symmetry_space_group_name_H-M "I M M M"
_symmetry_group_IT_number 71
_symmetry_cell_setting 'orthorhombic'
loop_
_space_group_symop_operation_xyz
x,y,z
-x,-y,z
x,-y,-z
-x,y,-z
-x,-y,-z
x,y,-z
-x,y,z
x,-y,z
1/2+x,1/2+y,1/2+z
1/2-x,1/2-y,1/2+z
1/2+x,1/2-y,1/2-z
1/2-x,1/2+y,1/2-z
1/2-x,1/2-y,1/2-z
1/2+x,1/2+y,1/2-z
1/2-x,1/2+y,1/2+z
1/2+x,1/2-y,1/2+z
loop_
_atom_site_type_symbol
_atom_site_label
_atom_site_fract_x
_atom_site_fract_y
_atom_site_fract_z
Si Si1 0.185427 0.284098 0.406098
Si Si2 0.792408 0.714198 0.904680
Si Si3 0.889633 0.291906 0.168689
Si Si4 0.420526 0.781766 0.840419
Si Si5 0.500000 0.500000 0.893436
Si Si6 0.055877 0.782780 0.000000
O O1 0.184934 0.211986 0.500000
O O2 0.184791 0.500000 0.410086
O O3 0.238139 0.236732 0.369974
O O4 0.135415 0.235332 0.362394
O O5 0.801153 0.500000 0.911324
O O6 0.836321 0.789162 0.849252
O O7 0.794018 0.785562 0.000000
O O8 0.881137 0.500000 0.193293
O O9 0.923321 0.225644 0.243352
O O10 0.917199 0.282365 0.081995
O O11 0.457694 0.659183 0.890147
O O12 0.428595 0.000000 0.852103
O O13 0.000000 0.724485 0.000000
O O14 0.057548 0.000000 0.000000
#
# Coordination Sequence:
#
# PCOD9523447 Si02
#       6
#    16  16  16  16   4   8
#     4   9  19  38  62  90 125 160 199 250 317 377
#     4   9  17  32  56  86 120 159 201 251 304 370
#     4  10  21  39  59  84 122 162 209 254 308 367
#     4  10  24  43  64  92 123 163 209 259 312 379
#     4  12  26  44  69  89 126 164 208 264 328 359
#     4  11  25  37  55  85 119 159 213 265 301 362
#
# _framework density 23.127700000000001
#
# number of rings (size 3 to 8) (size 9 to 14) (size 15 to 20)
#    0.000    2.211    1.053    0.632    4.421    2.526 
#    0.000    1.053    0.000    2.526    0.000    0.000 
#    0.000    0.000    0.000    0.000    0.000    0.000 
#
# Total GULP energy -211623.178704 kJ/mol
# GULP energy per Si atom -5569.031019 kJ/mol
# Density = 2.307506 g / cm^3
# Si number density = 23.127700 Si / 1000 Ang^3
#
#
#
# Elastic Constant Matrix: (Units=GPa)
#
#
# Indices 1 2 3 4 5 6 
#
# 1 134.6485 22.1024 7.1452 0.0000 0.0000 0.0000
# 2 22.1024 107.3858 0.5928 0.0000 0.0000 0.0000
# 3 7.1452 0.5928 38.9433 0.0000 0.0000 0.0000
# 4 0.0000 0.0000 0.0000 20.1357 0.0000 0.0000
# 5 0.0000 0.0000 0.0000 0.0000********** 0.0000
# 6 0.0000 0.0000 0.0000 0.0000 0.0000 65.3074
#
#
#
# Elastic Compliance Matrix: (Units=1/GPa)
#
#
# Indices 1 2 3 4 5 6 
#
# 1 0.007762 -0.001590 -0.001400 0.000000 0.000000 0.000000
# 2 -0.001590 0.009639 0.000145 0.000000 0.000000 0.000000
# 3 -0.001400 0.000145 0.025933 0.000000 0.000000 0.000000
# 4 0.000000 0.000000 0.000000 0.049663 0.000000 0.000000
# 5 0.000000 0.000000 0.000000 0.000000 -0.000095 0.000000
# 6 0.000000 0.000000 0.000000 0.000000 0.000000 0.015312
#
#
# Mechanical properties :
#
#
# Convention : Reuss Voigt Hill
#
# Bulk Modulus (GPa) = 26.56466 37.85094 32.20780
# Shear Modulus (GPa) = 39.54082 -2071.58511 -1016.02215
#
# Velocity S-wave (km/s) = 4.13931 -29.96098 -20.98245
# Velocity P-wave (km/s) = 5.86141 34.35810 23.93870
#
# Compressibility (1/GPa) = 0.03764400
#
# Stress axis : x y z
#
# Youngs Moduli (GPa) = 128.83266 103.74893 38.56090
#
# Poissons Ratio (x) = 0.16495 0.05398
# Poissons Ratio (y) = 0.20483 -0.00559
# Poissons Ratio (z) = 0.18036 -0.01504
#
# Static dielectric constant tensor:
#      x y z
#    x 1.847960 0.000000 0.000000 
#    y 0.000000 1.891730 0.000000 
#    z 0.000000 0.000000 1.929340 
# 
# From -- ./inp_files/48647.got.cif
#   From: 2010.05.17/outbox.cif.g08.bks.cpg/sg71_25_cif.got.tgz:48647.got - 2010.06.03 16:22:01.
