data_PCOD9523236
_publ_section_title
;
Structure prediction by ZEFSAII (Michael W. Deem and Ramdas Pophale) SiO2 
 PCOD9523236
Probable space group: I M M M
;
_chemical_formula_sum "Si O2"
_cell_formula_units_Z 116
_cell_length_a 29.900102
_cell_length_b 24.596318
_cell_length_c 7.781413
_cell_angle_alpha 90.000000
_cell_angle_beta 90.000000
_cell_angle_gamma 90.000000
_cell_volume 5722.703370
_symmetry_space_group_name_H-M "I M M M"
_symmetry_group_IT_number 71
_symmetry_cell_setting 'orthorhombic'
loop_
_space_group_symop_operation_xyz
x,y,z
-x,-y,z
x,-y,-z
-x,y,-z
-x,-y,-z
x,y,-z
-x,y,z
x,-y,z
1/2+x,1/2+y,1/2+z
1/2-x,1/2-y,1/2+z
1/2+x,1/2-y,1/2-z
1/2-x,1/2+y,1/2-z
1/2-x,1/2-y,1/2-z
1/2+x,1/2+y,1/2-z
1/2-x,1/2+y,1/2+z
1/2+x,1/2-y,1/2+z
loop_
_atom_site_type_symbol
_atom_site_label
_atom_site_fract_x
_atom_site_fract_y
_atom_site_fract_z
Si Si1 0.450890 0.279909 0.202107
Si Si2 0.790114 0.710467 0.196581
Si Si3 0.285983 0.090122 0.805969
Si Si4 0.051091 0.345276 0.207288
Si Si5 0.187275 0.083154 0.302985
Si Si6 0.164526 0.000000 0.000000
Si Si7 0.644604 0.301232 0.206552
Si Si8 0.385011 0.940655 0.294796
O O1 0.500000 0.291833 0.278473
O O2 0.443164 0.215144 0.219625
O O3 0.406232 0.308385 0.269996
O O4 0.453279 0.292988 0.000000
O O5 0.750000 0.750000 0.250000
O O6 0.790860 0.655437 0.302942
O O7 0.833976 0.747214 0.214919
O O8 0.783866 0.693405 0.000000
O O9 0.240901 0.075872 0.705844
O O10 0.332434 0.067277 0.736722
O O11 0.279248 0.070545 0.000000
O O12 0.086453 0.389653 0.271855
O O13 0.000000 0.362632 0.244679
O O14 0.055326 0.340440 0.000000
O O15 0.172377 0.072074 0.500000
O O16 0.174813 0.145927 0.262584
O O17 0.166739 0.046724 0.153582
O O18 0.643969 0.293191 0.000000
O O19 0.392169 0.941088 0.500000
O O20 0.398675 0.000000 0.226798
#
# Coordination Sequence:
#
# PCOD9523236 Si02
#       8
#    16  16  16  16  16   4  16  16
#     4   9  18  34  58  87 119 152 187 231 292 364
#     4  12  23  35  55  82 116 155 193 241 298 362
#     4  12  24  39  55  80 115 154 203 249 306 364
#     4   9  18  34  54  79 111 147 191 242 302 368
#     4  11  24  42  63  88 120 158 204 255 300 354
#     4  12  26  44  64  90 117 162 211 246 304 350
#     4  10  21  37  58  88 121 156 195 242 299 359
#     4  10  22  37  54  77 105 147 200 255 310 356
#
# _framework density 20.270139
#
# number of rings (size 3 to 8) (size 9 to 14) (size 15 to 20)
#    0.000    1.517    2.069    3.517    1.931    3.862 
#    0.000    1.379    0.000    0.000    0.000    3.862 
#    0.000    3.310    0.000    0.000    0.000    0.000 
#
# Total GULP energy -323486.967890 kJ/mol
# GULP energy per Si atom -5577.361515 kJ/mol
# Density = 2.022400 g / cm^3
# Si number density = 20.270139 Si / 1000 Ang^3
#
#
#
# Elastic Constant Matrix: (Units=GPa)
#
#
# Indices 1 2 3 4 5 6 
#
# 1 80.6822 -10.0227 -6.9321 0.0000 0.0000 0.0000
# 2 -10.0227 39.7341 8.9689 0.0000 0.0000 0.0000
# 3 -6.9321 8.9689 70.4856 0.0000 0.0000 0.0000
# 4 0.0000 0.0000 0.0000 21.6978 0.0000 0.0000
# 5 0.0000 0.0000 0.0000 0.0000 12.9604 0.0000
# 6 0.0000 0.0000 0.0000 0.0000 0.0000 -115.3450
#
#
#
# Elastic Compliance Matrix: (Units=1/GPa)
#
#
# Indices 1 2 3 4 5 6 
#
# 1 0.012848 0.003043 0.000876 0.000000 0.000000 0.000000
# 2 0.003043 0.026632 -0.003090 0.000000 0.000000 0.000000
# 3 0.000876 -0.003090 0.014667 0.000000 0.000000 0.000000
# 4 0.000000 0.000000 0.000000 0.046088 0.000000 0.000000
# 5 0.000000 0.000000 0.000000 0.000000 0.077158 0.000000
# 6 0.000000 0.000000 0.000000 0.000000 0.000000 -0.008670
#
#
# Mechanical properties :
#
#
# Convention : Reuss Voigt Hill
#
# Bulk Modulus (GPa) = 17.91924 19.43667 18.67796
# Shear Modulus (GPa) = 26.93021 -2.87818 12.02602
#
# Velocity S-wave (km/s) = 3.64890 -1.19289 2.43839
# Velocity P-wave (km/s) = 5.15869 2.77711 4.14273
#
# Compressibility (1/GPa) = 0.05580593
#
# Stress axis : x y z
#
# Youngs Moduli (GPa) = 77.83552 37.54844 68.18214
#
# Poissons Ratio (x) = -0.11426 -0.05975
# Poissons Ratio (y) = -0.23685 0.21065
# Poissons Ratio (z) = -0.06821 0.11601
#
# Static dielectric constant tensor:
#      x y z
#    x 1.742790 0.000000 0.000000 
#    y 0.000000 1.658600 0.000000 
#    z 0.000000 0.000000 1.733720 
# 
# From -- ./inp_files/15675.got.cif
#   From: 2010.05.17/outbox.cif.g08.bks.cpg/sg71_8_cif.got.tgz:15675.got - 2010.06.03 16:22:01.
