data_PCOD9523294
_publ_section_title
;
Structure prediction by ZEFSAII (Michael W. Deem and Ramdas Pophale) SiO2 
 PCOD9523294
Probable space group: I M M M
;
_chemical_formula_sum "Si O2"
_cell_formula_units_Z 88
_cell_length_a 24.920276
_cell_length_b 8.677305
_cell_length_c 20.033808
_cell_angle_alpha 90.000000
_cell_angle_beta 90.000000
_cell_angle_gamma 90.000000
_cell_volume 4332.127381
_symmetry_space_group_name_H-M "I M M M"
_symmetry_group_IT_number 71
_symmetry_cell_setting 'orthorhombic'
loop_
_space_group_symop_operation_xyz
x,y,z
-x,-y,z
x,-y,-z
-x,y,-z
-x,-y,-z
x,y,-z
-x,y,z
x,-y,z
1/2+x,1/2+y,1/2+z
1/2-x,1/2-y,1/2+z
1/2+x,1/2-y,1/2-z
1/2-x,1/2+y,1/2-z
1/2-x,1/2-y,1/2-z
1/2+x,1/2+y,1/2-z
1/2-x,1/2+y,1/2+z
1/2+x,1/2-y,1/2+z
loop_
_atom_site_type_symbol
_atom_site_label
_atom_site_fract_x
_atom_site_fract_y
_atom_site_fract_z
Si Si1 0.941768 0.315413 0.892887
Si Si2 0.324877 0.814128 0.426298
Si Si3 0.063157 0.685100 0.500000
Si Si4 0.869303 0.179664 0.376288
Si Si5 0.062202 0.676996 0.733868
Si Si6 0.758533 0.682770 0.675929
O O1 0.943701 0.500000 0.905373
O O2 0.886706 0.260392 0.924354
O O3 0.936242 0.296098 0.813020
O O4 0.000000 0.252234 0.913682
O O5 0.302224 0.784074 0.500000
O O6 0.291475 0.733418 0.369104
O O7 0.324185 0.000000 0.415582
O O8 0.063106 0.500000 0.500000
O O9 0.095867 0.743743 0.435335
O O10 0.000000 0.735219 0.500000
O O11 0.902590 0.207834 0.308488
O O12 0.811486 0.253049 0.361084
O O13 0.862776 0.000000 0.391047
O O14 0.080475 0.500000 0.721758
O O15 0.000000 0.686633 0.713069
O O16 0.762646 0.500000 0.680957
O O17 0.750000 0.750000 0.750000
#
# Coordination Sequence:
#
# PCOD9523294 Si02
#       6
#    16  16   8  16  16  16
#     4   8  15  30  55  87 121 159 202 247 297 355
#     4  10  21  37  60  91 128 165 206 256 307 366
#     4  11  25  45  67  93 129 175 224 271 326 393
#     4  12  25  40  62  91 125 164 210 265 324 388
#     4   9  17  32  56  85 119 161 209 258 307 365
#     4  12  26  45  68  92 123 163 214 270 329 394
#
# _framework density 20.313345000000002
#
# number of rings (size 3 to 8) (size 9 to 14) (size 15 to 20)
#    0.000    1.727    0.000    6.273    1.273    5.455 
#    0.000    1.818    0.000    1.636    0.000    1.273 
#    0.000    0.000    0.000    0.000    0.000    0.000 
#
# Total GULP energy -245821.146517 kJ/mol
# GULP energy per Si atom -5586.844239 kJ/mol
# Density = 2.026711 g / cm^3
# Si number density = 20.313345 Si / 1000 Ang^3
#
#
#
# Elastic Constant Matrix: (Units=GPa)
#
#
# Indices 1 2 3 4 5 6 
#
# 1 141.3030 49.4395 74.5613 0.0000 0.0000 0.0000
# 2 49.4395 93.3829 49.5306 0.0000 0.0000 0.0000
# 3 74.5613 49.5306 89.8584 0.0000 0.0000 0.0000
# 4 0.0000 0.0000 0.0000 13.4680 0.0000 0.0000
# 5 0.0000 0.0000 0.0000 0.0000 25.4289 0.0000
# 6 0.0000 0.0000 0.0000 0.0000 0.0000 28.7959
#
#
#
# Elastic Compliance Matrix: (Units=1/GPa)
#
#
# Indices 1 2 3 4 5 6 
#
# 1 0.012758 -0.001610 -0.009699 0.000000 0.000000 0.000000
# 2 -0.001610 0.015336 -0.007117 0.000000 0.000000 0.000000
# 3 -0.009699 -0.007117 0.023099 0.000000 0.000000 0.000000
# 4 0.000000 0.000000 0.000000 0.074250 0.000000 0.000000
# 5 0.000000 0.000000 0.000000 0.000000 0.039325 0.000000
# 6 0.000000 0.000000 0.000000 0.000000 0.000000 0.034727
#
#
# Mechanical properties :
#
#
# Convention : Reuss Voigt Hill
#
# Bulk Modulus (GPa) = 69.72907 74.62301 72.17604
# Shear Modulus (GPa) = 20.73582 23.60607 22.17095
#
# Velocity S-wave (km/s) = 3.19846 3.41265 3.30729
# Velocity P-wave (km/s) = 6.93119 7.23491 7.08468
#
# Compressibility (1/GPa) = 0.01434122
#
# Stress axis : x y z
#
# Youngs Moduli (GPa) = 78.38182 65.20548 43.29154
#
# Poissons Ratio (x) = 0.10500 0.41987
# Poissons Ratio (y) = 0.12622 0.30811
# Poissons Ratio (z) = 0.76019 0.46408
#
# Static dielectric constant tensor:
#      x y z
#    x 1.765890 0.000000 0.000000 
#    y 0.000000 1.694610 0.000000 
#    z 0.000000 0.000000 1.725470 
# 
# From -- ./inp_files/55570.got.cif
#   From: 2010.05.17/outbox.cif.g08.bks.cpg/sg71_28_cif.got.tgz:55570.got - 2010.06.03 16:22:01.
