data_PCOD9523655
_publ_section_title
;
Structure prediction by ZEFSAII (Michael W. Deem and Ramdas Pophale) SiO2 
 PCOD9523655
Probable space group: I M M M
;
_chemical_formula_sum "Si O2"
_cell_formula_units_Z 64
_cell_length_a 17.524048
_cell_length_b 9.821547
_cell_length_c 20.990395
_cell_angle_alpha 90.000000
_cell_angle_beta 90.000000
_cell_angle_gamma 90.000000
_cell_volume 3612.725334
_symmetry_space_group_name_H-M "I M M M"
_symmetry_group_IT_number 71
_symmetry_cell_setting 'orthorhombic'
loop_
_space_group_symop_operation_xyz
x,y,z
-x,-y,z
x,-y,-z
-x,y,-z
-x,-y,-z
x,y,-z
-x,y,z
x,-y,z
1/2+x,1/2+y,1/2+z
1/2-x,1/2-y,1/2+z
1/2+x,1/2-y,1/2-z
1/2-x,1/2+y,1/2-z
1/2-x,1/2-y,1/2-z
1/2+x,1/2+y,1/2-z
1/2-x,1/2+y,1/2+z
1/2+x,1/2-y,1/2+z
loop_
_atom_site_type_symbol
_atom_site_label
_atom_site_fract_x
_atom_site_fract_y
_atom_site_fract_z
Si Si1 0.648345 0.837600 0.574993
Si Si2 0.500000 0.342829 0.423107
Si Si3 0.264178 0.343593 0.189961
Si Si4 0.411587 0.345203 0.114998
Si Si5 0.407358 0.152817 0.000000
O O1 0.668398 0.811256 0.500000
O O2 0.575696 0.744186 0.592923
O O3 0.715366 0.810615 0.626072
O O4 0.629904 0.000000 0.578627
O O5 0.500000 0.500000 0.399340
O O6 0.500000 0.350164 0.500000
O O7 0.245452 0.500000 0.205741
O O8 0.250000 0.250000 0.250000
O O9 0.353207 0.335121 0.172321
O O10 0.500000 0.322269 0.131922
O O11 0.405893 0.500000 0.089090
O O12 0.386905 0.238259 0.061909
O O13 0.500000 0.147205 0.000000
O O14 0.377322 0.000000 0.000000
#
# Coordination Sequence:
#
# PCOD9523655 Si02
#       5
#    16   8  16  16   8
#     4   9  18  34  57  81 107 144 185 223 267 325
#     4   9  17  31  53  83 113 137 172 227 282 327
#     4  10  22  38  56  79 112 148 184 227 272 323
#     4   9  18  34  56  79 106 144 185 221 263 320
#     4   9  17  29  49  81 113 138 171 220 271 313
#
# _framework density 17.715159
#
# number of rings (size 3 to 8) (size 9 to 14) (size 15 to 20)
#    0.000    2.750    0.000    0.750    1.750    5.000 
#    2.250    0.000    0.000    0.000    0.000    0.000 
#    0.000    0.000    0.000    0.000    0.000    0.000 
#
# Total GULP energy -178252.023369 kJ/mol
# GULP energy per Si atom -5570.375730 kJ/mol
# Density = 1.767484 g / cm^3
# Si number density = 17.715159 Si / 1000 Ang^3
#
#
#
# Elastic Constant Matrix: (Units=GPa)
#
#
# Indices 1 2 3 4 5 6 
#
# 1 88.0484 62.5239 52.2828 0.0000 0.0000 0.0000
# 2 62.5239 106.0196 70.8490 0.0000 0.0000 0.0000
# 3 52.2828 70.8490 92.5461 0.0000 0.0000 0.0000
# 4 0.0000 0.0000 0.0000 34.5366 0.0000 0.0000
# 5 0.0000 0.0000 0.0000 0.0000 7.5831 0.0000
# 6 0.0000 0.0000 0.0000 0.0000 0.0000 19.3705
#
#
#
# Elastic Compliance Matrix: (Units=1/GPa)
#
#
# Indices 1 2 3 4 5 6 
#
# 1 0.020519 -0.008915 -0.004767 0.000000 0.000000 0.000000
# 2 -0.008915 0.023186 -0.012713 0.000000 0.000000 0.000000
# 3 -0.004767 -0.012713 0.023231 0.000000 0.000000 0.000000
# 4 0.000000 0.000000 0.000000 0.028955 0.000000 0.000000
# 5 0.000000 0.000000 0.000000 0.000000 0.131872 0.000000
# 6 0.000000 0.000000 0.000000 0.000000 0.000000 0.051625
#
#
# Mechanical properties :
#
#
# Convention : Reuss Voigt Hill
#
# Bulk Modulus (GPa) = 70.69693 73.10283 71.89988
# Shear Modulus (GPa) = 14.84152 19.02859 16.93505
#
# Velocity S-wave (km/s) = 2.89759 3.28097 3.09522
# Velocity P-wave (km/s) = 7.15465 7.46380 7.31086
#
# Compressibility (1/GPa) = 0.01414489
#
# Stress axis : x y z
#
# Youngs Moduli (GPa) = 48.73628 43.12992 43.04586
#
# Poissons Ratio (x) = 0.38451 0.20518
# Poissons Ratio (y) = 0.43450 0.54726
# Poissons Ratio (z) = 0.23231 0.54833
#
# Static dielectric constant tensor:
#      x y z
#    x 1.615740 0.000000 0.000000 
#    y 0.000000 1.618240 0.000000 
#    z 0.000000 0.000000 1.543520 
# 
# From -- ./inp_files/9527.got.cif
#   From: 2010.05.17/outbox.cif.g08.bks.cpg/sg71_5_cif.got.tgz:9527.got - 2010.06.03 16:22:01.
