data_PCOD9523831
_publ_section_title
;
Structure prediction by ZEFSAII (Michael W. Deem and Ramdas Pophale) SiO2 
 PCOD9523831
Probable space group: I M M M
;
_chemical_formula_sum "Si O2"
_cell_formula_units_Z 88
_cell_length_a 24.370362
_cell_length_b 20.869306
_cell_length_c 9.384769
_cell_angle_alpha 90.000000
_cell_angle_beta 90.000000
_cell_angle_gamma 90.000000
_cell_volume 4773.023521
_symmetry_space_group_name_H-M "I M M M"
_symmetry_group_IT_number 71
_symmetry_cell_setting 'orthorhombic'
loop_
_space_group_symop_operation_xyz
x,y,z
-x,-y,z
x,-y,-z
-x,y,-z
-x,-y,-z
x,y,-z
-x,y,z
x,-y,z
1/2+x,1/2+y,1/2+z
1/2-x,1/2-y,1/2+z
1/2+x,1/2-y,1/2-z
1/2-x,1/2+y,1/2-z
1/2-x,1/2-y,1/2-z
1/2+x,1/2+y,1/2-z
1/2-x,1/2+y,1/2+z
1/2+x,1/2-y,1/2+z
loop_
_atom_site_type_symbol
_atom_site_label
_atom_site_fract_x
_atom_site_fract_y
_atom_site_fract_z
Si Si1 0.281726 0.925981 0.833286
Si Si2 0.000000 0.648751 0.838267
Si Si3 0.275559 0.688203 0.170729
Si Si4 0.412950 0.926966 0.833707
Si Si5 0.602082 0.359729 0.170992
Si Si6 0.435575 0.500000 0.827708
Si Si7 0.000000 0.801284 0.836236
O O1 0.254607 0.874845 0.730159
O O2 0.347575 0.920626 0.820118
O O3 0.266750 0.000000 0.802138
O O4 0.268000 0.913239 0.000000
O O5 0.053206 0.621906 0.759181
O O6 0.000000 0.724849 0.836347
O O7 0.000000 0.625689 0.000000
O O8 0.250000 0.750000 0.250000
O O9 0.339875 0.674226 0.201135
O O10 0.269167 0.695034 0.000000
O O11 0.427720 0.000000 0.794708
O O12 0.426586 0.918126 0.000000
O O13 0.596424 0.435001 0.212424
O O14 0.553309 0.325497 0.253632
O O15 0.593403 0.356116 0.000000
O O16 0.500000 0.500000 0.778808
O O17 0.438223 0.500000 0.000000
O O18 0.000000 0.824075 0.000000
#
# Coordination Sequence:
#
# PCOD9523831 Si02
#       7
#    16   8  16  16  16   8   8
#     4   9  20  40  63  88 121 158 199 248 300 356
#     4  11  24  36  52  83 118 152 191 244 301 346
#     4  11  25  41  63  91 124 164 209 257 304 364
#     4   9  19  37  60  84 111 149 196 241 288 351
#     4  10  22  41  65  90 117 158 204 243 295 365
#     4   9  16  34  66  94 118 148 192 253 298 347
#     4  11  25  41  57  85 125 158 191 244 301 355
#
# _framework density 18.436952000000002
#
# number of rings (size 3 to 8) (size 9 to 14) (size 15 to 20)
#    0.000    2.091    0.909    2.455    3.818    5.455 
#    0.000    2.727    0.000    0.000    0.000    0.000 
#    0.000    0.000    0.000    0.000    0.000    0.000 
#
# Total GULP energy -245593.845456 kJ/mol
# GULP energy per Si atom -5581.678306 kJ/mol
# Density = 1.839499 g / cm^3
# Si number density = 18.436952 Si / 1000 Ang^3
#
#
#
# Elastic Constant Matrix: (Units=GPa)
#
#
# Indices 1 2 3 4 5 6 
#
# 1 108.6787 75.7547 67.2854 0.0000 0.0000 0.0000
# 2 75.7547 114.1545 73.1729 0.0000 0.0000 0.0000
# 3 67.2854 73.1729 70.2785 0.0000 0.0000 0.0000
# 4 0.0000 0.0000 0.0000 35.4846 0.0000 0.0000
# 5 0.0000 0.0000 0.0000 0.0000 47.1053 0.0000
# 6 0.0000 0.0000 0.0000 0.0000 0.0000 27.3177
#
#
#
# Elastic Compliance Matrix: (Units=1/GPa)
#
#
# Indices 1 2 3 4 5 6 
#
# 1 0.023039 -0.003458 -0.018458 0.000000 0.000000 0.000000
# 2 -0.003458 0.026857 -0.024653 0.000000 0.000000 0.000000
# 3 -0.018458 -0.024653 0.057569 0.000000 0.000000 0.000000
# 4 0.000000 0.000000 0.000000 0.028181 0.000000 0.000000
# 5 0.000000 0.000000 0.000000 0.000000 0.021229 0.000000
# 6 0.000000 0.000000 0.000000 0.000000 0.000000 0.036606
#
#
# Mechanical properties :
#
#
# Convention : Reuss Voigt Hill
#
# Bulk Modulus (GPa) = 69.79056 80.61530 75.20293
# Shear Modulus (GPa) = 17.15882 27.10810 22.13346
#
# Velocity S-wave (km/s) = 3.05401 3.83863 3.46857
# Velocity P-wave (km/s) = 7.09731 7.96659 7.54448
#
# Compressibility (1/GPa) = 0.01432859
#
# Stress axis : x y z
#
# Youngs Moduli (GPa) = 43.40382 37.23425 17.37043
#
# Poissons Ratio (x) = 0.12875 0.32063
# Poissons Ratio (y) = 0.15008 0.42823
# Poissons Ratio (z) = 0.80115 0.91792
#
# Static dielectric constant tensor:
#      x y z
#    x 1.626580 0.000000 0.000000 
#    y 0.000000 1.627010 0.000000 
#    z 0.000000 0.000000 1.612370 
# 
# From -- ./inp_files/12615.got.cif
#   From: 2010.05.17/outbox.cif.g08.bks.cpg/sg71_7_cif.got.tgz:12615.got - 2010.06.03 16:22:01.
