data_PCOD9523187
_publ_section_title
;
Structure prediction by ZEFSAII (Michael W. Deem and Ramdas Pophale) SiO2 
 PCOD9523187
Probable space group: I M M M
;
_chemical_formula_sum "Si O2"
_cell_formula_units_Z 80
_cell_length_a 9.274491
_cell_length_b 15.860419
_cell_length_c 28.446348
_cell_angle_alpha 90.000000
_cell_angle_beta 90.000000
_cell_angle_gamma 90.000000
_cell_volume 4184.381363
_symmetry_space_group_name_H-M "I M M M"
_symmetry_group_IT_number 71
_symmetry_cell_setting 'orthorhombic'
loop_
_space_group_symop_operation_xyz
x,y,z
-x,-y,z
x,-y,-z
-x,y,-z
-x,-y,-z
x,y,-z
-x,y,z
x,-y,z
1/2+x,1/2+y,1/2+z
1/2-x,1/2-y,1/2+z
1/2+x,1/2-y,1/2-z
1/2-x,1/2+y,1/2-z
1/2-x,1/2-y,1/2-z
1/2+x,1/2+y,1/2-z
1/2-x,1/2+y,1/2+z
1/2+x,1/2-y,1/2+z
loop_
_atom_site_type_symbol
_atom_site_label
_atom_site_fract_x
_atom_site_fract_y
_atom_site_fract_z
Si Si1 0.838543 0.000000 0.555472
Si Si2 0.827526 0.169353 0.805125
Si Si3 0.330777 0.100819 0.000000
Si Si4 0.170179 0.848641 0.702388
Si Si5 0.831874 0.166142 0.091994
Si Si6 0.168366 0.633529 0.111013
O O1 0.752642 0.081135 0.572559
O O2 0.846880 0.000000 0.500000
O O3 0.000000 0.000000 0.575575
O O4 0.807774 0.120546 0.756007
O O5 0.727421 0.251874 0.799874
O O6 0.796339 0.128864 0.855987
O O7 0.000000 0.193718 0.806552
O O8 0.259465 0.136440 0.047667
O O9 0.500000 0.121127 0.000000
O O10 0.312992 0.000000 0.000000
O O11 0.261515 0.890012 0.661092
O O12 0.000000 0.852246 0.692197
O O13 0.816208 0.266833 0.100322
O O14 0.000000 0.148201 0.082242
O O15 0.000000 0.613839 0.111135
#
# Coordination Sequence:
#
# PCOD9523187 Si02
#       6
#     8  16   8  16  16  16
#     4  11  25  41  57  81 113 149 193 240 283 326
#     4   8  15  28  48  79 112 141 179 224 271 327
#     4  11  25  41  57  80 111 142 177 229 288 335
#     4   9  15  26  49  79 112 145 180 224 273 321
#     4   9  19  36  59  85 110 143 187 227 270 334
#     4  10  21  37  57  83 115 150 189 229 275 332
#
# _framework density 19.118715999999999
#
# number of rings (size 3 to 8) (size 9 to 14) (size 15 to 20)
#    0.000    2.600    0.000    3.000    1.400    6.400 
#    0.000    0.000    2.200    0.000    0.000    0.000 
#    0.000    0.000    0.000    0.000    0.000    0.000 
#
# Total GULP energy -222895.655339 kJ/mol
# GULP energy per Si atom -5572.391383 kJ/mol
# Density = 1.907520 g / cm^3
# Si number density = 19.118716 Si / 1000 Ang^3
#
#
#
# Elastic Constant Matrix: (Units=GPa)
#
#
# Indices 1 2 3 4 5 6 
#
# 1 122.0178 31.3290 93.2491 0.0000 0.0000 0.0000
# 2 31.3290 18.5257 31.2076 0.0000 0.0000 0.0000
# 3 93.2491 31.2076 183.8913 0.0000 0.0000 0.0000
# 4 0.0000 0.0000 0.0000 51.2354 0.0000 0.0000
# 5 0.0000 0.0000 0.0000 0.0000 33.1727 0.0000
# 6 0.0000 0.0000 0.0000 0.0000 0.0000 -3.8105
#
#
#
# Elastic Compliance Matrix: (Units=1/GPa)
#
#
# Indices 1 2 3 4 5 6 
#
# 1 0.017679 -0.020719 -0.005449 0.000000 0.000000 0.000000
# 2 -0.020719 0.099870 -0.006442 0.000000 0.000000 0.000000
# 3 -0.005449 -0.006442 0.009294 0.000000 0.000000 0.000000
# 4 0.000000 0.000000 0.000000 0.019518 0.000000 0.000000
# 5 0.000000 0.000000 0.000000 0.000000 0.030145 0.000000
# 6 0.000000 0.000000 0.000000 0.000000 0.000000 -0.262435
#
#
# Mechanical properties :
#
#
# Convention : Reuss Voigt Hill
#
# Bulk Modulus (GPa) = 16.22764 70.66734 43.44749
# Shear Modulus (GPa) = -29958.72283 27.36279 -14965.68002
#
# Velocity S-wave (km/s) = -125.31504 3.78723 -88.57064
# Velocity P-wave (km/s) = 144.67194 7.49445 102.16116
#
# Compressibility (1/GPa) = 0.06162325
#
# Stress axis : x y z
#
# Youngs Moduli (GPa) = 56.56281 10.01306 107.59218
#
# Poissons Ratio (x) = 0.20746 0.58626
# Poissons Ratio (y) = 1.17192 0.69313
# Poissons Ratio (z) = 0.30820 0.06451
#
# Static dielectric constant tensor:
#      x y z
#    x 1.639660 0.000000 0.000000 
#    y 0.000000 1.745240 0.000000 
#    z 0.000000 0.000000 1.705430 
# 
# From -- ./inp_files/63061.got.cif
#   From: 2010.05.17/outbox.cif.g08.bks.cpg/sg71_32_cif.got.tgz:63061.got - 2010.06.03 16:22:01.
