data_PCOD9523727
_publ_section_title
;
Structure prediction by ZEFSAII (Michael W. Deem and Ramdas Pophale) SiO2 
 PCOD9523727
Probable space group: I M M M
;
_chemical_formula_sum "Si O2"
_cell_formula_units_Z 66
_cell_length_a 19.066991
_cell_length_b 7.804606
_cell_length_c 20.719545
_cell_angle_alpha 90.000000
_cell_angle_beta 90.000000
_cell_angle_gamma 90.000000
_cell_volume 3083.282792
_symmetry_space_group_name_H-M "I M M M"
_symmetry_group_IT_number 71
_symmetry_cell_setting 'orthorhombic'
loop_
_space_group_symop_operation_xyz
x,y,z
-x,-y,z
x,-y,-z
-x,y,-z
-x,-y,-z
x,y,-z
-x,y,z
x,-y,z
1/2+x,1/2+y,1/2+z
1/2-x,1/2-y,1/2+z
1/2+x,1/2-y,1/2-z
1/2-x,1/2+y,1/2-z
1/2-x,1/2-y,1/2-z
1/2+x,1/2+y,1/2-z
1/2-x,1/2+y,1/2+z
1/2+x,1/2-y,1/2+z
loop_
_atom_site_type_symbol
_atom_site_label
_atom_site_fract_x
_atom_site_fract_y
_atom_site_fract_z
Si Si1 0.808114 0.796632 0.126886
Si Si2 0.000000 0.000000 0.000000
Si Si3 0.078811 0.707900 0.765230
Si Si4 0.885720 0.690207 0.000000
Si Si5 0.420279 0.295713 0.000000
Si Si6 0.350038 0.205074 0.864629
O O1 0.862890 0.767255 0.184390
O O2 0.729889 0.732666 0.142714
O O3 0.803812 0.000000 0.114107
O O4 0.838069 0.708440 0.063337
O O5 0.939539 0.152341 0.000000
O O6 0.078233 0.500000 0.766351
O O7 0.100994 0.767614 0.693710
O O8 0.000000 0.766106 0.781970
O O9 0.918024 0.500000 0.000000
O O10 0.380344 0.243259 0.935016
O O11 0.423934 0.500000 0.000000
O O12 0.500000 0.226424 0.000000
O O13 0.348040 0.000000 0.857883
#
# Coordination Sequence:
#
# PCOD9523727 Si02
#       6
#    16   2  16   8   8  16
#     4  11  23  41  63  93 130 170 219 271 324 388
#     4  12  26  48  68  98 140 164 228 274 328 398
#     4  10  22  39  61  91 124 165 221 271 323 390
#     4  12  26  44  69  98 133 177 219 273 333 390
#     4  11  24  39  61  93 127 157 201 261 325 394
#     4  10  22  41  65  90 124 168 214 268 322 385
#
# _framework density 21.405754999999999
#
# number of rings (size 3 to 8) (size 9 to 14) (size 15 to 20)
#    0.000    1.333    1.212    3.455    1.697    8.242 
#    0.000    0.000    0.000    0.000    0.000    0.000 
#    0.000    0.000    0.000    0.000    0.000    0.000 
#
# Total GULP energy -184293.218336 kJ/mol
# GULP energy per Si atom -5584.642980 kJ/mol
# Density = 2.135703 g / cm^3
# Si number density = 21.405755 Si / 1000 Ang^3
#
#
#
# Elastic Constant Matrix: (Units=GPa)
#
#
# Indices 1 2 3 4 5 6 
#
# 1 172.5881 14.9890 52.8044 0.0000 0.0000 0.0000
# 2 14.9890 80.0811 -9.2576 0.0000 0.0000 0.0000
# 3 52.8044 -9.2576 128.9691 0.0000 0.0000 0.0000
# 4 0.0000 0.0000 0.0000 32.9999 0.0000 0.0000
# 5 0.0000 0.0000 0.0000 0.0000 179.9284 0.0000
# 6 0.0000 0.0000 0.0000 0.0000 0.0000 -73.8032
#
#
#
# Elastic Compliance Matrix: (Units=1/GPa)
#
#
# Indices 1 2 3 4 5 6 
#
# 1 0.006825 -0.001614 -0.002910 0.000000 0.000000 0.000000
# 2 -0.001614 0.012973 0.001592 0.000000 0.000000 0.000000
# 3 -0.002910 0.001592 0.009060 0.000000 0.000000 0.000000
# 4 0.000000 0.000000 0.000000 0.030303 0.000000 0.000000
# 5 0.000000 0.000000 0.000000 0.000000 0.005558 0.000000
# 6 0.000000 0.000000 0.000000 0.000000 0.000000 -0.013550
#
#
# Mechanical properties :
#
#
# Convention : Reuss Voigt Hill
#
# Bulk Modulus (GPa) = 43.48986 55.41221 49.45103
# Shear Modulus (GPa) = 77.28279 49.36518 63.32398
#
# Velocity S-wave (km/s) = 6.01516 4.80746 5.44490
# Velocity P-wave (km/s) = 8.28274 7.53382 7.91714
#
# Compressibility (1/GPa) = 0.02299387
#
# Stress axis : x y z
#
# Youngs Moduli (GPa) = 146.52744 77.08059 110.38058
#
# Poissons Ratio (x) = 0.12439 0.32122
# Poissons Ratio (y) = 0.23647 -0.17573
# Poissons Ratio (z) = 0.42641 -0.12271
#
# Static dielectric constant tensor:
#      x y z
#    x 1.769000 0.000000 0.000000 
#    y 0.000000 1.779860 0.000000 
#    z 0.000000 0.000000 1.826370 
# 
# From -- ./inp_files/53748.got.cif
#   From: 2010.05.17/outbox.cif.g08.bks.cpg/sg71_27_cif.got.tgz:53748.got - 2010.06.03 16:22:01.
