data_PCOD9523920
_publ_section_title
;
Structure prediction by ZEFSAII (Michael W. Deem and Ramdas Pophale) SiO2 
 PCOD9523920
Probable space group: I M M M
;
_chemical_formula_sum "Si O2"
_cell_formula_units_Z 108
_cell_length_a 16.831908
_cell_length_b 15.254000
_cell_length_c 22.150059
_cell_angle_alpha 90.000000
_cell_angle_beta 90.000000
_cell_angle_gamma 90.000000
_cell_volume 5687.114579
_symmetry_space_group_name_H-M "I M M M"
_symmetry_group_IT_number 71
_symmetry_cell_setting 'orthorhombic'
loop_
_space_group_symop_operation_xyz
x,y,z
-x,-y,z
x,-y,-z
-x,y,-z
-x,-y,-z
x,y,-z
-x,y,z
x,-y,z
1/2+x,1/2+y,1/2+z
1/2-x,1/2-y,1/2+z
1/2+x,1/2-y,1/2-z
1/2-x,1/2+y,1/2-z
1/2-x,1/2-y,1/2-z
1/2+x,1/2+y,1/2-z
1/2-x,1/2+y,1/2+z
1/2+x,1/2-y,1/2+z
loop_
_atom_site_type_symbol
_atom_site_label
_atom_site_fract_x
_atom_site_fract_y
_atom_site_fract_z
Si Si1 0.674190 0.397740 0.070765
Si Si2 0.500000 0.000000 0.800491
Si Si3 0.851091 0.599816 0.126716
Si Si4 0.594527 0.323726 0.183434
Si Si5 0.407597 0.713531 0.386267
Si Si6 0.176033 0.904031 0.207778
Si Si7 0.096545 0.099642 0.000000
Si Si8 0.141973 0.631741 0.728834
O O1 0.649292 0.500000 0.073452
O O2 0.762393 0.393603 0.099865
O O3 0.618388 0.340790 0.114149
O O4 0.675830 0.372121 0.000000
O O5 0.429917 0.075140 0.796863
O O6 0.879886 0.500000 0.114817
O O7 0.897139 0.683634 0.100801
O O8 0.856013 0.615867 0.198772
O O9 0.500000 0.329980 0.192070
O O10 0.640984 0.393798 0.224977
O O11 0.625981 0.230603 0.207615
O O12 0.500000 0.696552 0.374238
O O13 0.358974 0.676396 0.330061
O O14 0.379655 0.654757 0.441919
O O15 0.270697 0.896552 0.207800
O O16 0.151944 0.000000 0.183530
O O17 0.000000 0.097217 0.000000
O O18 0.125445 0.000000 0.000000
#
# Coordination Sequence:
#
# PCOD9523920 Si02
#       8
#    16   4  16  16  16  16   8  16
#     4  10  23  43  64  89 124 174 225 270 325 386
#     4  12  24  40  72  96 126 170 210 252 328 410
#     4  11  22  39  63  89 127 168 212 266 320 380
#     4  12  24  38  62  95 132 166 210 268 326 389
#     4  11  24  38  60  91 126 169 216 264 321 388
#     4  12  23  38  61  91 129 164 208 267 327 385
#     4   9  20  42  61  79 119 169 216 259 309 379
#     4  12  23  42  63  94 129 166 209 259 324 393
#
# _framework density 18.990297999999999
#
# number of rings (size 3 to 8) (size 9 to 14) (size 15 to 20)
#    0.000    0.815    5.185    2.667    2.074    3.259 
#    0.000    0.741    0.000    1.333    0.000    1.037 
#    0.000    0.000    0.000    0.000    0.000    0.000 
#
# Total GULP energy -300989.988171 kJ/mol
# GULP energy per Si atom -5573.888670 kJ/mol
# Density = 1.894708 g / cm^3
# Si number density = 18.990298 Si / 1000 Ang^3
#
#
#
# Elastic Constant Matrix: (Units=GPa)
#
#
# Indices 1 2 3 4 5 6 
#
# 1 92.6885 31.7013 20.8070 0.0000 0.0000 0.0000
# 2 31.7013 132.5061 27.8394 0.0000 0.0000 0.0000
# 3 20.8070 27.8394 67.0768 0.0000 0.0000 0.0000
# 4 0.0000 0.0000 0.0000 25.7477 0.0000 0.0000
# 5 0.0000 0.0000 0.0000 0.0000 13.4975 0.0000
# 6 0.0000 0.0000 0.0000 0.0000 0.0000 26.4736
#
#
#
# Elastic Compliance Matrix: (Units=1/GPa)
#
#
# Indices 1 2 3 4 5 6 
#
# 1 0.012220 -0.002330 -0.002823 0.000000 0.000000 0.000000
# 2 -0.002330 0.008712 -0.002893 0.000000 0.000000 0.000000
# 3 -0.002823 -0.002893 0.016985 0.000000 0.000000 0.000000
# 4 0.000000 0.000000 0.000000 0.038838 0.000000 0.000000
# 5 0.000000 0.000000 0.000000 0.000000 0.074088 0.000000
# 6 0.000000 0.000000 0.000000 0.000000 0.000000 0.037773
#
#
# Mechanical properties :
#
#
# Convention : Reuss Voigt Hill
#
# Bulk Modulus (GPa) = 45.82264 50.32965 48.07615
# Shear Modulus (GPa) = 23.58672 27.27201 25.42936
#
# Velocity S-wave (km/s) = 3.52808 3.79371 3.66330
# Velocity P-wave (km/s) = 6.38579 6.76387 6.57755
#
# Compressibility (1/GPa) = 0.02182327
#
# Stress axis : x y z
#
# Youngs Moduli (GPa) = 81.83554 114.78221 58.87623
#
# Poissons Ratio (x) = 0.26748 0.16623
# Poissons Ratio (y) = 0.19070 0.17033
# Poissons Ratio (z) = 0.23105 0.33207
#
# Static dielectric constant tensor:
#      x y z
#    x 1.635160 0.000000 0.000000 
#    y 0.000000 1.699310 0.000000 
#    z 0.000000 0.000000 1.691210 
# 
# From -- ./inp_files/59970.got.cif
#   From: 2010.05.17/outbox.cif.g08.bks.cpg/sg71_30_cif.got.tgz:59970.got - 2010.06.03 16:22:01.
