data_PCOD9523075
_publ_section_title
;
Structure prediction by ZEFSAII (Michael W. Deem and Ramdas Pophale) SiO2 
 PCOD9523075
Probable space group: I M M M
;
_chemical_formula_sum "Si O2"
_cell_formula_units_Z 84
_cell_length_a 12.678145
_cell_length_b 12.370100
_cell_length_c 27.129104
_cell_angle_alpha 90.000000
_cell_angle_beta 90.000000
_cell_angle_gamma 90.000000
_cell_volume 4254.655250
_symmetry_space_group_name_H-M "I M M M"
_symmetry_group_IT_number 71
_symmetry_cell_setting 'orthorhombic'
loop_
_space_group_symop_operation_xyz
x,y,z
-x,-y,z
x,-y,-z
-x,y,-z
-x,-y,-z
x,y,-z
-x,y,z
x,-y,z
1/2+x,1/2+y,1/2+z
1/2-x,1/2-y,1/2+z
1/2+x,1/2-y,1/2-z
1/2-x,1/2+y,1/2-z
1/2-x,1/2-y,1/2-z
1/2+x,1/2+y,1/2-z
1/2-x,1/2+y,1/2+z
1/2+x,1/2-y,1/2+z
loop_
_atom_site_type_symbol
_atom_site_label
_atom_site_fract_x
_atom_site_fract_y
_atom_site_fract_z
Si Si1 0.616925 0.848345 0.404127
Si Si2 0.339222 0.381118 0.556937
Si Si3 0.855597 0.500000 0.000000
Si Si4 0.124973 0.124789 0.228954
Si Si5 0.117807 0.377517 0.601666
Si Si6 0.222942 0.209380 0.672338
O O1 0.500000 0.879495 0.386868
O O2 0.616866 0.719886 0.414034
O O3 0.709949 0.864948 0.364973
O O4 0.638467 0.907227 0.456022
O O5 0.369398 0.374782 0.500000
O O6 0.369426 0.500000 0.576037
O O7 0.212266 0.372279 0.562428
O O8 0.162468 0.145633 0.285101
O O9 0.192641 0.208646 0.197008
O O10 0.000000 0.144450 0.224234
O O11 0.146354 0.000000 0.215292
O O12 0.122712 0.500000 0.622898
O O13 0.144124 0.285951 0.641500
O O14 0.000000 0.362602 0.581595
#
# Coordination Sequence:
#
# PCOD9523075 Si02
#       6
#    16  16   4  16  16  16
#     4  11  22  37  57  82 113 153 192 235 284 339
#     4   9  18  32  50  76 106 140 185 233 281 332
#     4  12  25  40  58  82 117 156 197 232 282 346
#     4  10  21  38  59  84 114 148 187 236 292 347
#     4   9  17  30  50  77 108 142 180 227 280 329
#     4  10  21  36  58  83 112 146 193 232 283 341
#
# _framework density 19.743079999999999
#
# number of rings (size 3 to 8) (size 9 to 14) (size 15 to 20)
#    0.000    2.095    0.952    2.571    1.333    1.524 
#    0.000    2.857    0.000    3.429    0.000   16.667 
#    0.000    0.000    0.000    0.000    0.000    0.000 
#
# Total GULP energy -233833.316091 kJ/mol
# GULP energy per Si atom -5567.459907 kJ/mol
# Density = 1.969814 g / cm^3
# Si number density = 19.743080 Si / 1000 Ang^3
#
#
#
# Elastic Constant Matrix: (Units=GPa)
#
#
# Indices 1 2 3 4 5 6 
#
# 1 100.0485 14.7968 -1.0248 0.0000 0.0000 0.0000
# 2 14.7968 86.2654 2.3970 0.0000 0.0000 0.0000
# 3 -1.0248 2.3970 41.7396 0.0000 0.0000 0.0000
# 4 0.0000 0.0000 0.0000 5.7043 0.0000 0.0000
# 5 0.0000 0.0000 0.0000 0.0000 -6.5654 0.0000
# 6 0.0000 0.0000 0.0000 0.0000 0.0000 -5.1883
#
#
#
# Elastic Compliance Matrix: (Units=1/GPa)
#
#
# Indices 1 2 3 4 5 6 
#
# 1 0.010261 -0.001770 0.000354 0.000000 0.000000 0.000000
# 2 -0.001770 0.011916 -0.000728 0.000000 0.000000 0.000000
# 3 0.000354 -0.000728 0.024009 0.000000 0.000000 0.000000
# 4 0.000000 0.000000 0.000000 0.175308 0.000000 0.000000
# 5 0.000000 0.000000 0.000000 0.000000 -0.152313 0.000000
# 6 0.000000 0.000000 0.000000 0.000000 0.000000 -0.192741
#
#
# Mechanical properties :
#
#
# Convention : Reuss Voigt Hill
#
# Bulk Modulus (GPa) = 23.86804 28.93238 26.40021
# Shear Modulus (GPa) = -47.47964 12.91573 -17.28196
#
# Velocity S-wave (km/s) = -4.90927 2.56049 -2.96183
# Velocity P-wave (km/s) = 4.47427 4.84022 1.30550
#
# Compressibility (1/GPa) = 0.04189704
#
# Stress axis : x y z
#
# Youngs Moduli (GPa) = 97.46094 83.92132 41.65181
#
# Poissons Ratio (x) = 0.14852 -0.01473
# Poissons Ratio (y) = 0.17248 0.03031
# Poissons Ratio (z) = -0.03446 0.06107
#
# Static dielectric constant tensor:
#      x y z
#    x 1.704030 0.000000 0.000000 
#    y 0.000000 1.708220 0.000000 
#    z 0.000000 0.000000 1.673340 
# 
# From -- ./inp_files/69102.got.cif
#   From: 2010.05.17/outbox.cif.g08.bks.cpg/sg71_35_cif.got.tgz:69102.got - 2010.06.03 16:22:01.
