data_PCOD9523569
_publ_section_title
;
Structure prediction by ZEFSAII (Michael W. Deem and Ramdas Pophale) SiO2 
 PCOD9523569
Probable space group: I M M M
;
_chemical_formula_sum "Si O2"
_cell_formula_units_Z 104
_cell_length_a 27.709994
_cell_length_b 8.675565
_cell_length_c 22.442072
_cell_angle_alpha 90.000000
_cell_angle_beta 90.000000
_cell_angle_gamma 90.000000
_cell_volume 5395.070834
_symmetry_space_group_name_H-M "I M M M"
_symmetry_group_IT_number 71
_symmetry_cell_setting 'orthorhombic'
loop_
_space_group_symop_operation_xyz
x,y,z
-x,-y,z
x,-y,-z
-x,y,-z
-x,-y,-z
x,y,-z
-x,y,z
x,-y,z
1/2+x,1/2+y,1/2+z
1/2-x,1/2-y,1/2+z
1/2+x,1/2-y,1/2-z
1/2-x,1/2+y,1/2-z
1/2-x,1/2-y,1/2-z
1/2+x,1/2+y,1/2-z
1/2-x,1/2+y,1/2+z
1/2+x,1/2-y,1/2+z
loop_
_atom_site_type_symbol
_atom_site_label
_atom_site_fract_x
_atom_site_fract_y
_atom_site_fract_z
Si Si1 0.445486 0.815300 0.703925
Si Si2 0.359133 0.817818 0.619535
Si Si3 0.740621 0.818572 0.314313
Si Si4 0.328129 0.181332 0.879847
Si Si5 0.500000 0.814388 0.929251
Si Si6 0.703809 0.316519 0.000000
Si Si7 0.813431 0.816941 0.000000
Si Si8 0.075788 0.183158 0.334502
O O1 0.500000 0.788130 0.682621
O O2 0.406144 0.761492 0.655500
O O3 0.440461 0.742281 0.769529
O O4 0.438445 0.000000 0.711168
O O5 0.314239 0.803950 0.664854
O O6 0.342679 0.735676 0.558834
O O7 0.365500 0.000000 0.605958
O O8 0.750000 0.750000 0.250000
O O9 0.775203 0.719487 0.355817
O O10 0.753421 0.000000 0.317771
O O11 0.325990 0.253828 0.944554
O O12 0.368950 0.265105 0.841831
O O13 0.337270 0.000000 0.880318
O O14 0.545334 0.755242 0.889540
O O15 0.500000 0.000000 0.928563
O O16 0.500000 0.767080 0.000000
O O17 0.759388 0.256356 0.000000
O O18 0.706300 0.500000 0.000000
O O19 0.807448 0.000000 0.000000
O O20 0.070558 0.000000 0.337185
#
# Coordination Sequence:
#
# PCOD9523569 Si02
#       8
#    16  16  16  16   8   8   8  16
#     4  10  21  41  69  98 129 168 219 272 330 394
#     4  10  22  40  64  92 127 172 216 268 329 393
#     4  11  22  37  59  89 127 166 209 258 315 378
#     4  12  25  41  62  90 125 164 209 256 309 375
#     4  11  25  45  67  91 125 170 223 274 324 384
#     4  12  24  42  64  90 126 166 210 261 317 386
#     4  12  24  40  65  95 127 172 218 266 331 402
#     4  12  25  42  66  96 131 170 215 269 331 388
#
# _framework density 19.276855999999999
#
# number of rings (size 3 to 8) (size 9 to 14) (size 15 to 20)
#    0.000    0.846    2.308    5.769    1.077    3.077 
#    0.000    0.385    0.000    2.308    0.000    0.000 
#    0.000    0.000    0.000    0.000    0.000    0.000 
#
# Total GULP energy -290611.486465 kJ/mol
# GULP energy per Si atom -5588.682432 kJ/mol
# Density = 1.923298 g / cm^3
# Si number density = 19.276856 Si / 1000 Ang^3
#
#
#
# Elastic Constant Matrix: (Units=GPa)
#
#
# Indices 1 2 3 4 5 6 
#
# 1 82.4999 23.9246 7.1488 0.0000 0.0000 0.0000
# 2 23.9246 84.9494 28.8215 0.0000 0.0000 0.0000
# 3 7.1488 28.8215 72.7321 0.0000 0.0000 0.0000
# 4 0.0000 0.0000 0.0000 27.7764 0.0000 0.0000
# 5 0.0000 0.0000 0.0000 0.0000 38.4568 0.0000
# 6 0.0000 0.0000 0.0000 0.0000 0.0000 24.2904
#
#
#
# Elastic Compliance Matrix: (Units=1/GPa)
#
#
# Indices 1 2 3 4 5 6 
#
# 1 0.013202 -0.003787 0.000203 0.000000 0.000000 0.000000
# 2 -0.003787 0.014686 -0.005448 0.000000 0.000000 0.000000
# 3 0.000203 -0.005448 0.015888 0.000000 0.000000 0.000000
# 4 0.000000 0.000000 0.000000 0.036002 0.000000 0.000000
# 5 0.000000 0.000000 0.000000 0.000000 0.026003 0.000000
# 6 0.000000 0.000000 0.000000 0.000000 0.000000 0.041169
#
#
# Mechanical properties :
#
#
# Convention : Reuss Voigt Hill
#
# Bulk Modulus (GPa) = 38.89057 39.99680 39.44369
# Shear Modulus (GPa) = 28.80454 30.12382 29.46418
#
# Velocity S-wave (km/s) = 3.86975 3.95738 3.91381
# Velocity P-wave (km/s) = 6.33918 6.45560 6.39766
#
# Compressibility (1/GPa) = 0.02571317
#
# Stress axis : x y z
#
# Youngs Moduli (GPa) = 75.74698 68.08976 62.94128
#
# Poissons Ratio (x) = 0.25785 -0.01278
# Poissons Ratio (y) = 0.28685 0.34288
# Poissons Ratio (z) = -0.01538 0.37092
#
# Static dielectric constant tensor:
#      x y z
#    x 1.674080 0.000000 0.000000 
#    y 0.000000 1.666120 0.000000 
#    z 0.000000 0.000000 1.602550 
# 
# From -- ./inp_files/56313.got.cif
#   From: 2010.05.17/outbox.cif.g08.bks.cpg/sg71_29_cif.got.tgz:56313.got - 2010.06.03 16:22:01.
