data_PCOD9523261
_publ_section_title
;
Structure prediction by ZEFSAII (Michael W. Deem and Ramdas Pophale) SiO2 
 PCOD9523261
Probable space group: I M M M
;
_chemical_formula_sum "Si O2"
_cell_formula_units_Z 112
_cell_length_a 21.427305
_cell_length_b 16.755507
_cell_length_c 13.458262
_cell_angle_alpha 90.000000
_cell_angle_beta 90.000000
_cell_angle_gamma 90.000000
_cell_volume 4831.857345
_symmetry_space_group_name_H-M "I M M M"
_symmetry_group_IT_number 71
_symmetry_cell_setting 'orthorhombic'
loop_
_space_group_symop_operation_xyz
x,y,z
-x,-y,z
x,-y,-z
-x,y,-z
-x,-y,-z
x,y,-z
-x,y,z
x,-y,z
1/2+x,1/2+y,1/2+z
1/2-x,1/2-y,1/2+z
1/2+x,1/2-y,1/2-z
1/2-x,1/2+y,1/2-z
1/2-x,1/2-y,1/2-z
1/2+x,1/2+y,1/2-z
1/2-x,1/2+y,1/2+z
1/2+x,1/2-y,1/2+z
loop_
_atom_site_type_symbol
_atom_site_label
_atom_site_fract_x
_atom_site_fract_y
_atom_site_fract_z
Si Si1 0.898161 0.653724 0.384812
Si Si2 0.704446 0.404149 0.112662
Si Si3 0.428470 0.915290 0.686599
Si Si4 0.068873 0.162119 0.380213
Si Si5 0.770859 0.406080 0.690251
Si Si6 0.867956 0.087272 0.117426
Si Si7 0.927978 0.249366 0.881076
O O1 0.910506 0.636142 0.500000
O O2 0.928470 0.594385 0.305310
O O3 0.921655 0.743159 0.362535
O O4 0.824537 0.644760 0.361532
O O5 0.708009 0.500000 0.110372
O O6 0.633853 0.381646 0.144564
O O7 0.752410 0.378369 0.198483
O O8 0.715772 0.373797 0.000000
O O9 0.500000 0.916007 0.649993
O O10 0.398098 0.833430 0.650005
O O11 0.399703 0.000000 0.656663
O O12 0.066065 0.152884 0.500000
O O13 0.000000 0.136245 0.342533
O O14 0.790078 0.500000 0.692360
O O15 0.705971 0.404073 0.631273
O O16 0.899353 0.167360 0.157530
O O17 0.886427 0.000000 0.159027
O O18 0.882408 0.084928 0.000000
O O19 0.000000 0.251022 0.849660
O O20 0.925964 0.247554 0.000000
#
# Coordination Sequence:
#
# PCOD9523261 Si02
#       7
#    16  16  16  16  16  16  16
#     4  11  23  39  61  87 117 156 200 254 318 374
#     4   9  19  37  59  86 125 167 203 243 296 364
#     4  10  22  39  59  85 116 153 202 259 315 370
#     4   9  19  36  58  87 120 154 198 249 302 364
#     4  10  21  37  59  87 118 155 200 247 296 359
#     4   9  18  34  57  87 121 155 195 246 302 361
#     4   9  19  37  60  86 118 158 202 250 306 364
#
# _framework density 23.179493000000001
#
# number of rings (size 3 to 8) (size 9 to 14) (size 15 to 20)
#    0.000    2.429    0.000    1.286    2.000    4.000 
#    0.000    5.714    0.000    4.286    0.000    0.000 
#    0.000    0.000    0.000    0.000    0.000    0.143 
#
# Total GULP energy -312698.890101 kJ/mol
# GULP energy per Si atom -5583.908752 kJ/mol
# Density = 2.312673 g / cm^3
# Si number density = 23.179493 Si / 1000 Ang^3
#
#
#
# Elastic Constant Matrix: (Units=GPa)
#
#
# Indices 1 2 3 4 5 6 
#
# 1 67.0468 39.3734 -13.6046 0.0000 0.0000 0.0000
# 2 39.3734 121.4378 20.9971 0.0000 0.0000 0.0000
# 3 -13.6046 20.9971 75.6150 0.0000 0.0000 0.0000
# 4 0.0000 0.0000 0.0000 23.5361 0.0000 0.0000
# 5 0.0000 0.0000 0.0000 0.0000 28.5192 0.0000
# 6 0.0000 0.0000 0.0000 0.0000 0.0000 12.1978
#
#
#
# Elastic Compliance Matrix: (Units=1/GPa)
#
#
# Indices 1 2 3 4 5 6 
#
# 1 0.020622 -0.007697 0.005848 0.000000 0.000000 0.000000
# 2 -0.007697 0.011523 -0.004585 0.000000 0.000000 0.000000
# 3 0.005848 -0.004585 0.015550 0.000000 0.000000 0.000000
# 4 0.000000 0.000000 0.000000 0.042488 0.000000 0.000000
# 5 0.000000 0.000000 0.000000 0.000000 0.035064 0.000000
# 6 0.000000 0.000000 0.000000 0.000000 0.000000 0.081982
#
#
# Mechanical properties :
#
#
# Convention : Reuss Voigt Hill
#
# Bulk Modulus (GPa) = 28.71383 39.73683 34.22533
# Shear Modulus (GPa) = 21.57909 27.33954 24.45932
#
# Velocity S-wave (km/s) = 3.05447 3.43807 3.25193
# Velocity P-wave (km/s) = 4.98540 5.73940 5.37564
#
# Compressibility (1/GPa) = 0.03482642
#
# Stress axis : x y z
#
# Youngs Moduli (GPa) = 48.49261 86.78292 64.30833
#
# Poissons Ratio (x) = 0.66798 -0.37605
# Poissons Ratio (y) = 0.37326 0.29483
# Poissons Ratio (z) = -0.28357 0.39787
#
# Static dielectric constant tensor:
#      x y z
#    x 1.858980 0.000000 0.000000 
#    y 0.000000 1.880720 0.000000 
#    z 0.000000 0.000000 1.935830 
# 
# From -- ./inp_files/39254.got.cif
#   From: 2010.05.17/outbox.cif.g08.bks.cpg/sg71_20_cif.got.tgz:39254.got - 2010.06.03 16:22:01.
