data_PCOD9523854
_publ_section_title
;
Structure prediction by ZEFSAII (Michael W. Deem and Ramdas Pophale) SiO2 
 PCOD9523854
Probable space group: I M M M
;
_chemical_formula_sum "Si O2"
_cell_formula_units_Z 72
_cell_length_a 14.632198
_cell_length_b 10.349227
_cell_length_c 26.389056
_cell_angle_alpha 90.000000
_cell_angle_beta 90.000000
_cell_angle_gamma 90.000000
_cell_volume 3996.145908
_symmetry_space_group_name_H-M "I M M M"
_symmetry_group_IT_number 71
_symmetry_cell_setting 'orthorhombic'
loop_
_space_group_symop_operation_xyz
x,y,z
-x,-y,z
x,-y,-z
-x,y,-z
-x,-y,-z
x,y,-z
-x,y,z
x,-y,z
1/2+x,1/2+y,1/2+z
1/2-x,1/2-y,1/2+z
1/2+x,1/2-y,1/2-z
1/2-x,1/2+y,1/2-z
1/2-x,1/2-y,1/2-z
1/2+x,1/2+y,1/2-z
1/2-x,1/2+y,1/2+z
1/2+x,1/2-y,1/2+z
loop_
_atom_site_type_symbol
_atom_site_label
_atom_site_fract_x
_atom_site_fract_y
_atom_site_fract_z
Si Si1 0.500000 0.842507 0.675977
Si Si2 0.755148 0.000000 0.062638
Si Si3 0.816935 0.240437 0.700595
Si Si4 0.895739 0.500000 0.941696
Si Si5 0.890943 0.500000 0.650783
Si Si6 0.000000 0.860718 0.738573
Si Si7 0.176989 0.736179 0.113035
O O1 0.500000 0.770417 0.729271
O O2 0.413113 0.781959 0.647269
O O3 0.500000 0.000000 0.682141
O O4 0.660088 0.000000 0.095575
O O5 0.806456 0.872220 0.084782
O O6 0.748654 0.000000 0.000000
O O7 0.750000 0.250000 0.750000
O O8 0.857194 0.378394 0.683612
O O9 0.903924 0.149315 0.709468
O O10 0.757415 0.202462 0.651930
O O11 0.839000 0.624774 0.927100
O O12 0.000000 0.500000 0.919100
O O13 0.909000 0.500000 0.000000
O O14 0.000000 0.500000 0.644805
O O15 0.000000 0.000000 0.766444
#
# Coordination Sequence:
#
# PCOD9523854 Si02
#       7
#     8   8  16   8   8   8  16
#     4  12  24  40  61  93 125 169 213 250 299 375
#     4  10  24  42  63  92 123 162 208 265 327 367
#     4  11  24  38  62  89 126 164 204 247 303 368
#     4  11  22  39  63  91 119 158 214 260 302 369
#     4  10  22  42  65  89 118 168 217 261 301 367
#     4  12  28  38  58  93 132 163 206 252 302 361
#     4  11  22  40  63  89 125 162 206 252 312 368
#
# _framework density 18.01736
#
# number of rings (size 3 to 8) (size 9 to 14) (size 15 to 20)
#    0.000    1.000    5.556    0.667    6.222    0.222 
#    0.000    0.556    0.000    0.000    0.000    0.778 
#    0.000    0.000    0.000    0.000    0.000    0.000 
#
# Total GULP energy -200453.284876 kJ/mol
# GULP energy per Si atom -5568.146802 kJ/mol
# Density = 1.797635 g / cm^3
# Si number density = 18.017360 Si / 1000 Ang^3
#
#
#
# Elastic Constant Matrix: (Units=GPa)
#
#
# Indices 1 2 3 4 5 6 
#
# 1 145.4916 68.2395 56.6517 0.0000 0.0000 0.0000
# 2 68.2395 135.5640 67.6928 0.0000 0.0000 0.0000
# 3 56.6517 67.6928 121.9186 0.0000 0.0000 0.0000
# 4 0.0000 0.0000 0.0000 29.9204 0.0000 0.0000
# 5 0.0000 0.0000 0.0000 0.0000 26.4790 0.0000
# 6 0.0000 0.0000 0.0000 0.0000 0.0000 23.6719
#
#
#
# Elastic Compliance Matrix: (Units=1/GPa)
#
#
# Indices 1 2 3 4 5 6 
#
# 1 0.009492 -0.003563 -0.002432 0.000000 0.000000 0.000000
# 2 -0.003563 0.011544 -0.004754 0.000000 0.000000 0.000000
# 3 -0.002432 -0.004754 0.011972 0.000000 0.000000 0.000000
# 4 0.000000 0.000000 0.000000 0.033422 0.000000 0.000000
# 5 0.000000 0.000000 0.000000 0.000000 0.037766 0.000000
# 6 0.000000 0.000000 0.000000 0.000000 0.000000 0.042244
#
#
# Mechanical properties :
#
#
# Convention : Reuss Voigt Hill
#
# Bulk Modulus (GPa) = 86.88831 87.57136 87.22983
# Shear Modulus (GPa) = 29.10803 30.04028 29.57415
#
# Velocity S-wave (km/s) = 4.02376 4.08768 4.05585
# Velocity P-wave (km/s) = 8.36164 8.42545 8.39361
#
# Compressibility (1/GPa) = 0.01150903
#
# Stress axis : x y z
#
# Youngs Moduli (GPa) = 105.35706 86.62414 83.53056
#
# Poissons Ratio (x) = 0.30868 0.20314
# Poissons Ratio (y) = 0.37544 0.39709
# Poissons Ratio (z) = 0.25622 0.41180
#
# Static dielectric constant tensor:
#      x y z
#    x 1.631130 0.000000 0.000000 
#    y 0.000000 1.637060 0.000000 
#    z 0.000000 0.000000 1.644140 
# 
# From -- ./inp_files/6253.got.cif
#   From: 2010.05.17/outbox.cif.g08.bks.cpg/sg71_4_cif.got.tgz:6253.got - 2010.06.03 16:22:01.
