data_PCOD9523491
_publ_section_title
;
Structure prediction by ZEFSAII (Michael W. Deem and Ramdas Pophale) SiO2 
 PCOD9523491
Probable space group: I M M M
;
_chemical_formula_sum "Si O2"
_cell_formula_units_Z 104
_cell_length_a 22.822837
_cell_length_b 27.180350
_cell_length_c 8.363288
_cell_angle_alpha 90.000000
_cell_angle_beta 90.000000
_cell_angle_gamma 90.000000
_cell_volume 5188.021006
_symmetry_space_group_name_H-M "I M M M"
_symmetry_group_IT_number 71
_symmetry_cell_setting 'orthorhombic'
loop_
_space_group_symop_operation_xyz
x,y,z
-x,-y,z
x,-y,-z
-x,y,-z
-x,-y,-z
x,y,-z
-x,y,z
x,-y,z
1/2+x,1/2+y,1/2+z
1/2-x,1/2-y,1/2+z
1/2+x,1/2-y,1/2-z
1/2-x,1/2+y,1/2-z
1/2-x,1/2-y,1/2-z
1/2+x,1/2+y,1/2-z
1/2-x,1/2+y,1/2+z
1/2+x,1/2-y,1/2+z
loop_
_atom_site_type_symbol
_atom_site_label
_atom_site_fract_x
_atom_site_fract_y
_atom_site_fract_z
Si Si1 0.720882 0.375530 0.316034
Si Si2 0.567314 0.776290 0.309387
Si Si3 0.000000 0.056271 0.694269
Si Si4 0.811827 0.227955 0.313927
Si Si5 0.565513 0.887644 0.806941
Si Si6 0.125965 0.940831 0.686959
Si Si7 0.177773 0.555196 0.304779
O O1 0.729764 0.360240 0.500000
O O2 0.695877 0.329836 0.219620
O O3 0.674106 0.419001 0.301224
O O4 0.779552 0.400980 0.251186
O O5 0.565428 0.772643 0.500000
O O6 0.500000 0.762919 0.250984
O O7 0.625675 0.746906 0.254698
O O8 0.577029 0.833122 0.259464
O O9 0.938052 0.079021 0.737058
O O10 0.000000 0.053405 0.500000
O O11 0.000000 0.000000 0.754484
O O12 0.813901 0.239211 0.500000
O O13 0.750000 0.250000 0.250000
O O14 0.500000 0.901899 0.759392
O O15 0.613078 0.927787 0.758464
O O16 0.567918 0.883957 0.000000
O O17 0.137029 0.927970 0.500000
O O18 0.124447 0.000000 0.693448
O O19 0.181731 0.554408 0.500000
O O20 0.192617 0.500000 0.249136
#
# Coordination Sequence:
#
# PCOD9523491 Si02
#       7
#    16  16   8  16  16  16  16
#     4  11  22  36  54  79 111 149 191 235 290 347
#     4  10  21  39  63  90 121 156 196 245 300 358
#     4   7  12  26  49  73  97 131 175 221 269 321
#     4  12  25  42  64  88 116 151 195 245 300 361
#     4   9  17  31  55  85 114 148 191 236 285 344
#     4   9  17  32  54  78 105 140 184 232 281 334
#     4   9  18  32  51  78 113 151 190 235 284 333
#
# _framework density 20.04618
#
# number of rings (size 3 to 8) (size 9 to 14) (size 15 to 20)
#    0.000    2.231    0.000    4.615    0.000    3.385 
#    1.385    2.692    0.000    3.692    0.000    2.154 
#    0.000    0.000    0.000    0.000    0.000    0.000 
#
# Total GULP energy -289823.713489 kJ/mol
# GULP energy per Si atom -5573.532952 kJ/mol
# Density = 2.000055 g / cm^3
# Si number density = 20.046180 Si / 1000 Ang^3
#
#
#
# Elastic Constant Matrix: (Units=GPa)
#
#
# Indices 1 2 3 4 5 6 
#
# 1 89.4471 13.5623 9.9283 0.0000 0.0000 0.0000
# 2 13.5623 33.4884 0.4371 0.0000 0.0000 0.0000
# 3 9.9283 0.4371 27.8120 0.0000 0.0000 0.0000
# 4 0.0000 0.0000 0.0000 24.5754 0.0000 0.0000
# 5 0.0000 0.0000 0.0000 0.0000 24.0615 0.0000
# 6 0.0000 0.0000 0.0000 0.0000 0.0000 29.0893
#
#
#
# Elastic Compliance Matrix: (Units=1/GPa)
#
#
# Indices 1 2 3 4 5 6 
#
# 1 0.012417 -0.004972 -0.004354 0.000000 0.000000 0.000000
# 2 -0.004972 0.031858 0.001274 0.000000 0.000000 0.000000
# 3 -0.004354 0.001274 0.037490 0.000000 0.000000 0.000000
# 4 0.000000 0.000000 0.000000 0.040691 0.000000 0.000000
# 5 0.000000 0.000000 0.000000 0.000000 0.041560 0.000000
# 6 0.000000 0.000000 0.000000 0.000000 0.000000 0.034377
#
#
# Mechanical properties :
#
#
# Convention : Reuss Voigt Hill
#
# Bulk Modulus (GPa) = 15.22980 22.06698 18.64839
# Shear Modulus (GPa) = 21.15199 23.99990 22.57594
#
# Velocity S-wave (km/s) = 3.25185 3.46386 3.35953
# Velocity P-wave (km/s) = 4.65975 5.19901 4.93675
#
# Compressibility (1/GPa) = 0.06566076
#
# Stress axis : x y z
#
# Youngs Moduli (GPa) = 80.53501 31.38936 26.67368
#
# Poissons Ratio (x) = 0.15606 0.11615
# Poissons Ratio (y) = 0.40041 -0.03399
# Poissons Ratio (z) = 0.35068 -0.03999
#
# Static dielectric constant tensor:
#      x y z
#    x 1.787760 0.000000 0.000000 
#    y 0.000000 1.684120 0.000000 
#    z 0.000000 0.000000 1.724760 
# 
# From -- ./inp_files/11164.got.cif
#   From: 2010.05.17/outbox.cif.g08.bks.cpg/sg71_6_cif.got.tgz:11164.got - 2010.06.03 16:22:01.
