data_PCOD9523220
_publ_section_title
;
Structure prediction by ZEFSAII (Michael W. Deem and Ramdas Pophale) SiO2 
 PCOD9523220
Probable space group: I M M M
;
_chemical_formula_sum "Si O2"
_cell_formula_units_Z 100
_cell_length_a 8.546006
_cell_length_b 21.878496
_cell_length_c 27.163444
_cell_angle_alpha 90.000000
_cell_angle_beta 90.000000
_cell_angle_gamma 90.000000
_cell_volume 5078.851207
_symmetry_space_group_name_H-M "I M M M"
_symmetry_group_IT_number 71
_symmetry_cell_setting 'orthorhombic'
loop_
_space_group_symop_operation_xyz
x,y,z
-x,-y,z
x,-y,-z
-x,y,-z
-x,-y,-z
x,y,-z
-x,y,z
x,-y,z
1/2+x,1/2+y,1/2+z
1/2-x,1/2-y,1/2+z
1/2+x,1/2-y,1/2-z
1/2-x,1/2+y,1/2-z
1/2-x,1/2-y,1/2-z
1/2+x,1/2+y,1/2-z
1/2-x,1/2+y,1/2+z
1/2+x,1/2-y,1/2+z
loop_
_atom_site_type_symbol
_atom_site_label
_atom_site_fract_x
_atom_site_fract_y
_atom_site_fract_z
Si Si1 0.730809 0.500000 0.500000
Si Si2 0.189439 0.607782 0.424399
Si Si3 0.681441 0.073026 0.184054
Si Si4 0.184814 0.930140 0.290083
Si Si5 0.321775 0.841564 0.371463
Si Si6 0.810086 0.758184 0.054430
Si Si7 0.824471 0.929334 0.441380
O O1 0.739103 0.446173 0.457229
O O2 0.235702 0.601868 0.367114
O O3 0.242747 0.673890 0.442451
O O4 0.000000 0.600935 0.428046
O O5 0.500000 0.090227 0.191972
O O6 0.774133 0.086147 0.233801
O O7 0.687045 0.000000 0.176553
O O8 0.244918 0.877376 0.326237
O O9 0.000000 0.933790 0.296088
O O10 0.248472 0.000000 0.299372
O O11 0.500000 0.828545 0.358039
O O12 0.253891 0.781554 0.398716
O O13 0.306915 0.890508 0.415470
O O14 0.000000 0.759748 0.056426
O O15 0.767263 0.732377 0.000000
O O16 0.814136 0.926716 0.500000
O O17 0.000000 0.907543 0.426993
O O18 0.814049 0.000000 0.426444
#
# Coordination Sequence:
#
# PCOD9523220 Si02
#       7
#     4  16  16  16  16  16  16
#     4  12  21  36  65 102 133 152 183 234 283 336
#     4  11  21  36  62  93 123 153 187 228 279 341
#     4   9  18  34  57  86 118 150 184 229 284 340
#     4  10  21  37  58  85 115 148 190 243 294 342
#     4  11  22  36  55  77 107 150 196 242 288 337
#     4  10  23  41  56  78 117 157 193 235 283 338
#     4   9  18  32  50  75 107 140 179 233 292 347
#
# _framework density 19.689492999999999
#
# number of rings (size 3 to 8) (size 9 to 14) (size 15 to 20)
#    0.000    1.920    1.600    3.120    0.000    6.080 
#    0.000    2.400    0.000    0.000    0.000    0.000 
#    0.000    0.000    0.000    0.000    0.000    0.000 
#
# Total GULP energy -278355.198249 kJ/mol
# GULP energy per Si atom -5567.103965 kJ/mol
# Density = 1.964468 g / cm^3
# Si number density = 19.689493 Si / 1000 Ang^3
#
#
#
# Elastic Constant Matrix: (Units=GPa)
#
#
# Indices 1 2 3 4 5 6 
#
# 1 12.4073 12.9319 19.7045 0.0000 0.0000 0.0000
# 2 12.9319 98.7942 57.9913 0.0000 0.0000 0.0000
# 3 19.7045 57.9913 135.4192 0.0000 0.0000 0.0000
# 4 0.0000 0.0000 0.0000 35.6555 0.0000 0.0000
# 5 0.0000 0.0000 0.0000 0.0000 14.6528 0.0000
# 6 0.0000 0.0000 0.0000 0.0000 0.0000 13.1414
#
#
#
# Elastic Compliance Matrix: (Units=1/GPa)
#
#
# Indices 1 2 3 4 5 6 
#
# 1 0.107909 -0.006556 -0.012894 0.000000 0.000000 0.000000
# 2 -0.006556 0.013919 -0.005007 0.000000 0.000000 0.000000
# 3 -0.012894 -0.005007 0.011405 0.000000 0.000000 0.000000
# 4 0.000000 0.000000 0.000000 0.028046 0.000000 0.000000
# 5 0.000000 0.000000 0.000000 0.000000 0.068246 0.000000
# 6 0.000000 0.000000 0.000000 0.000000 0.000000 0.076095
#
#
# Mechanical properties :
#
#
# Convention : Reuss Voigt Hill
#
# Bulk Modulus (GPa) = 11.85977 47.54178 29.70078
# Shear Modulus (GPa) = 13.06711 23.08948 18.07830
#
# Velocity S-wave (km/s) = 2.57895 3.42816 3.03342
# Velocity P-wave (km/s) = 3.86063 6.31410 5.23318
#
# Compressibility (1/GPa) = 0.08431865
#
# Stress axis : x y z
#
# Youngs Moduli (GPa) = 9.26710 71.84363 87.68355
#
# Poissons Ratio (x) = 0.47104 1.13058
# Poissons Ratio (y) = 0.06076 0.43900
# Poissons Ratio (z) = 0.11949 0.35970
#
# Static dielectric constant tensor:
#      x y z
#    x 1.720550 0.000000 0.000000 
#    y 0.000000 1.680660 0.000000 
#    z 0.000000 0.000000 1.704120 
# 
# From -- ./inp_files/63301.got.cif
#   From: 2010.05.17/outbox.cif.g08.bks.cpg/sg71_32_cif.got.tgz:63301.got - 2010.06.03 16:22:01.
