data_PCOD9523454
_publ_section_title
;
Structure prediction by ZEFSAII (Michael W. Deem and Ramdas Pophale) SiO2 
 PCOD9523454
Probable space group: I M M M
;
_chemical_formula_sum "Si O2"
_cell_formula_units_Z 88
_cell_length_a 8.673030
_cell_length_b 19.778180
_cell_length_c 27.731364
_cell_angle_alpha 90.000000
_cell_angle_beta 90.000000
_cell_angle_gamma 90.000000
_cell_volume 4756.948012
_symmetry_space_group_name_H-M "I M M M"
_symmetry_group_IT_number 71
_symmetry_cell_setting 'orthorhombic'
loop_
_space_group_symop_operation_xyz
x,y,z
-x,-y,z
x,-y,-z
-x,y,-z
-x,-y,-z
x,y,-z
-x,y,z
x,-y,z
1/2+x,1/2+y,1/2+z
1/2-x,1/2-y,1/2+z
1/2+x,1/2-y,1/2-z
1/2-x,1/2+y,1/2-z
1/2-x,1/2-y,1/2-z
1/2+x,1/2+y,1/2-z
1/2-x,1/2+y,1/2+z
1/2+x,1/2-y,1/2+z
loop_
_atom_site_type_symbol
_atom_site_label
_atom_site_fract_x
_atom_site_fract_y
_atom_site_fract_z
Si Si1 0.185035 0.079005 0.000000
Si Si2 0.316672 0.305506 0.120485
Si Si3 0.687819 0.922795 0.192664
Si Si4 0.315183 0.181949 0.726587
Si Si5 0.813371 0.653597 0.594382
Si Si6 0.183523 0.423902 0.057443
O O1 0.245903 0.117174 0.047522
O O2 0.000000 0.080474 0.000000
O O3 0.234747 0.000000 0.000000
O O4 0.500000 0.301815 0.127153
O O5 0.241236 0.320988 0.171956
O O6 0.266489 0.232055 0.100333
O O7 0.272234 0.365099 0.084382
O O8 0.500000 0.923541 0.192693
O O9 0.736205 0.880060 0.239371
O O10 0.733702 0.885290 0.143337
O O11 0.741569 0.000000 0.193561
O O12 0.500000 0.184021 0.727560
O O13 0.250000 0.250000 0.750000
O O14 0.000000 0.651255 0.591095
O O15 0.229479 0.500000 0.072592
O O16 0.000000 0.417068 0.066549
O O17 0.206260 0.419088 0.000000
#
# Coordination Sequence:
#
# PCOD9523454 Si02
#       6
#     8  16  16  16  16  16
#     4  11  25  41  57  85 122 153 190 243 297 348
#     4  11  23  38  59  90 121 152 197 245 291 352
#     4   9  18  35  60  86 111 146 194 239 278 333
#     4  11  21  37  59  85 118 155 194 241 294 347
#     4  10  21  39  61  85 115 154 199 239 283 347
#     4   9  20  40  63  87 117 155 198 241 292 355
#
# _framework density 18.499257
#
# number of rings (size 3 to 8) (size 9 to 14) (size 15 to 20)
#    0.000    1.909    1.818    2.455    1.273    4.364 
#    0.000    2.727    0.000    2.727    0.000    0.000 
#    0.000    0.000    0.000    0.000    0.000    0.000 
#
# Total GULP energy -245723.348311 kJ/mol
# GULP energy per Si atom -5584.621553 kJ/mol
# Density = 1.845715 g / cm^3
# Si number density = 18.499257 Si / 1000 Ang^3
#
#
#
# Elastic Constant Matrix: (Units=GPa)
#
#
# Indices 1 2 3 4 5 6 
#
# 1 33.8168 41.7582 37.8295 0.0000 0.0000 0.0000
# 2 41.7582 183.0031 86.7185 0.0000 0.0000 0.0000
# 3 37.8295 86.7185 115.5714 0.0000 0.0000 0.0000
# 4 0.0000 0.0000 0.0000 36.2219 0.0000 0.0000
# 5 0.0000 0.0000 0.0000 0.0000 31.9047 0.0000
# 6 0.0000 0.0000 0.0000 0.0000 0.0000 29.4330
#
#
#
# Elastic Compliance Matrix: (Units=1/GPa)
#
#
# Indices 1 2 3 4 5 6 
#
# 1 0.050206 -0.005693 -0.012162 0.000000 0.000000 0.000000
# 2 -0.005693 0.009125 -0.004983 0.000000 0.000000 0.000000
# 3 -0.012162 -0.004983 0.016373 0.000000 0.000000 0.000000
# 4 0.000000 0.000000 0.000000 0.027608 0.000000 0.000000
# 5 0.000000 0.000000 0.000000 0.000000 0.031343 0.000000
# 6 0.000000 0.000000 0.000000 0.000000 0.000000 0.033975
#
#
# Mechanical properties :
#
#
# Convention : Reuss Voigt Hill
#
# Bulk Modulus (GPa) = 33.30318 73.88929 53.59624
# Shear Modulus (GPa) = 22.28995 30.58428 26.43712
#
# Velocity S-wave (km/s) = 3.47495 4.07045 3.78443
# Velocity P-wave (km/s) = 5.84311 7.88162 6.93764
#
# Compressibility (1/GPa) = 0.03002716
#
# Stress axis : x y z
#
# Youngs Moduli (GPa) = 19.91779 109.59070 61.07695
#
# Poissons Ratio (x) = 0.62391 0.74282
# Poissons Ratio (y) = 0.11339 0.30436
# Poissons Ratio (z) = 0.24224 0.54612
#
# Static dielectric constant tensor:
#      x y z
#    x 1.633860 0.000000 0.000000 
#    y 0.000000 1.630400 0.000000 
#    z 0.000000 0.000000 0.814950 
# 
# From -- ./inp_files/55544.got.cif
#   From: 2010.05.17/outbox.cif.g08.bks.cpg/sg71_28_cif.got.tgz:55544.got - 2010.06.03 16:22:01.
