data_PCOD9523181
_publ_section_title
;
Structure prediction by ZEFSAII (Michael W. Deem and Ramdas Pophale) SiO2 
 PCOD9523181
Probable space group: I M M M
;
_chemical_formula_sum "Si O2"
_cell_formula_units_Z 72
_cell_length_a 20.006138
_cell_length_b 8.455936
_cell_length_c 22.681577
_cell_angle_alpha 90.000000
_cell_angle_beta 90.000000
_cell_angle_gamma 90.000000
_cell_volume 3837.056501
_symmetry_space_group_name_H-M "I M M M"
_symmetry_group_IT_number 71
_symmetry_cell_setting 'orthorhombic'
loop_
_space_group_symop_operation_xyz
x,y,z
-x,-y,z
x,-y,-z
-x,y,-z
-x,-y,-z
x,y,-z
-x,y,z
x,-y,z
1/2+x,1/2+y,1/2+z
1/2-x,1/2-y,1/2+z
1/2+x,1/2-y,1/2-z
1/2-x,1/2+y,1/2-z
1/2-x,1/2-y,1/2-z
1/2+x,1/2+y,1/2-z
1/2-x,1/2+y,1/2+z
1/2+x,1/2-y,1/2+z
loop_
_atom_site_type_symbol
_atom_site_label
_atom_site_fract_x
_atom_site_fract_y
_atom_site_fract_z
Si Si1 0.923355 0.689356 0.777634
Si Si2 0.924150 0.191150 0.646259
Si Si3 0.161381 0.810579 0.886109
Si Si4 0.300490 0.308809 0.067788
Si Si5 0.923311 0.192819 0.000000
O O1 0.921485 0.500000 0.777742
O O2 0.908056 0.750155 0.712019
O O3 0.872781 0.753551 0.826194
O O4 0.000000 0.740139 0.791588
O O5 0.868294 0.244244 0.600015
O O6 0.000000 0.243148 0.632000
O O7 0.923931 0.000000 0.646853
O O8 0.235690 0.747689 0.896840
O O9 0.116048 0.756043 0.941562
O O10 0.162786 0.000000 0.886591
O O11 0.300501 0.500000 0.067071
O O12 0.296526 0.253394 0.000000
O O13 0.000000 0.246468 0.000000
O O14 0.923858 0.000000 0.000000
#
# Coordination Sequence:
#
# PCOD9523181 Si02
#       5
#    16  16  16  16   8
#     4  10  21  37  57  83 114 146 183 231 283 330
#     4   9  19  37  60  84 109 143 187 230 277 334
#     4  11  21  35  56  81 112 150 188 227 272 328
#     4  10  21  37  57  82 115 148 181 230 283 330
#     4   9  18  32  51  77 106 139 182 226 265 311
#
# _framework density 18.764385000000001
#
# number of rings (size 3 to 8) (size 9 to 14) (size 15 to 20)
#    0.000    2.111    1.111    2.000    0.000    4.444 
#    0.000    2.222    0.000    2.667    0.000    4.667 
#    0.000    0.000    0.000    0.000    0.000    0.000 
#
# Total GULP energy -201029.881946 kJ/mol
# GULP energy per Si atom -5584.163387 kJ/mol
# Density = 1.872168 g / cm^3
# Si number density = 18.764385 Si / 1000 Ang^3
#
#
#
# Elastic Constant Matrix: (Units=GPa)
#
#
# Indices 1 2 3 4 5 6 
#
# 1 142.3917 20.9125 83.1886 0.0000 0.0000 0.0000
# 2 20.9125 14.9558 17.2736 0.0000 0.0000 0.0000
# 3 83.1886 17.2736 95.1760 0.0000 0.0000 0.0000
# 4 0.0000 0.0000 0.0000 14.3573 0.0000 0.0000
# 5 0.0000 0.0000 0.0000 0.0000 -15.0767 0.0000
# 6 0.0000 0.0000 0.0000 0.0000 0.0000 23.1345
#
#
#
# Elastic Compliance Matrix: (Units=1/GPa)
#
#
# Indices 1 2 3 4 5 6 
#
# 1 0.014965 -0.007361 -0.011745 0.000000 0.000000 0.000000
# 2 -0.007361 0.088218 -0.009577 0.000000 0.000000 0.000000
# 3 -0.011745 -0.009577 0.022510 0.000000 0.000000 0.000000
# 4 0.000000 0.000000 0.000000 0.069651 0.000000 0.000000
# 5 0.000000 0.000000 0.000000 0.000000 -0.066328 0.000000
# 6 0.000000 0.000000 0.000000 0.000000 0.000000 0.043226
#
#
# Mechanical properties :
#
#
# Convention : Reuss Voigt Hill
#
# Bulk Modulus (GPa) = 14.63515 55.03031 34.83273
# Shear Modulus (GPa) = 19.81111 13.22627 16.51869
#
# Velocity S-wave (km/s) = 3.25281 2.65780 2.97024
# Velocity P-wave (km/s) = 4.68231 6.22970 5.51059
#
# Compressibility (1/GPa) = 0.06832865
#
# Stress axis : x y z
#
# Youngs Moduli (GPa) = 66.82067 11.33557 44.42427
#
# Poissons Ratio (x) = 0.08344 0.52174
# Poissons Ratio (y) = 0.49189 0.42543
# Poissons Ratio (z) = 0.78478 0.10856
#
# Static dielectric constant tensor:
#      x y z
#    x 1.639550 0.000000 0.000000 
#    y 0.000000 1.640280 0.000000 
#    z 0.000000 0.000000 1.618280 
# 
# From -- ./inp_files/7970.got.cif
#   From: 2010.05.17/outbox.cif.g08.bks.cpg/sg71_4_cif.got.tgz:7970.got - 2010.06.03 16:22:01.
