data_PCOD9523133
_publ_section_title
;
Structure prediction by ZEFSAII (Michael W. Deem and Ramdas Pophale) SiO2 
 PCOD9523133
Probable space group: I M M M
;
_chemical_formula_sum "Si O2"
_cell_formula_units_Z 72
_cell_length_a 28.659075
_cell_length_b 14.659482
_cell_length_c 9.397989
_cell_angle_alpha 90.000000
_cell_angle_beta 90.000000
_cell_angle_gamma 90.000000
_cell_volume 3948.350749
_symmetry_space_group_name_H-M "I M M M"
_symmetry_group_IT_number 71
_symmetry_cell_setting 'orthorhombic'
loop_
_space_group_symop_operation_xyz
x,y,z
-x,-y,z
x,-y,-z
-x,y,-z
-x,-y,-z
x,y,-z
-x,y,z
x,-y,z
1/2+x,1/2+y,1/2+z
1/2-x,1/2-y,1/2+z
1/2+x,1/2-y,1/2-z
1/2-x,1/2+y,1/2-z
1/2-x,1/2-y,1/2-z
1/2+x,1/2+y,1/2-z
1/2-x,1/2+y,1/2+z
1/2+x,1/2-y,1/2+z
loop_
_atom_site_type_symbol
_atom_site_label
_atom_site_fract_x
_atom_site_fract_y
_atom_site_fract_z
Si Si1 0.500000 0.286556 0.330171
Si Si2 0.000000 0.402420 0.227907
Si Si3 0.333660 0.247038 0.500000
Si Si4 0.674663 0.604996 0.250812
Si Si5 0.248670 0.106098 0.500000
Si Si6 0.430250 0.605734 0.843610
Si Si7 0.916524 0.399971 0.000000
O O1 0.500000 0.265788 0.500000
O O2 0.500000 0.200579 0.221314
O O3 0.454796 0.343332 0.285754
O O4 0.952830 0.400685 0.131879
O O5 0.000000 0.500000 0.305914
O O6 0.328352 0.315516 0.366913
O O7 0.291669 0.174542 0.500000
O O8 0.381104 0.185148 0.500000
O O9 0.678996 0.500000 0.307278
O O10 0.625256 0.608978 0.170524
O O11 0.716212 0.619738 0.138787
O O12 0.263648 0.000000 0.500000
O O13 0.444066 0.500000 0.836637
O O14 0.443771 0.640922 0.000000
O O15 0.892338 0.500000 0.000000
#
# Coordination Sequence:
#
# PCOD9523133 Si02
#       7
#     8   8   8  16   8  16   8
#     4  12  22  31  53  89 112 131 179 238 269 296
#     4   9  18  34  50  70 109 145 169 207 266 324
#     4  12  21  32  56  90 109 125 175 242 283 294
#     4  10  21  37  56  78 109 146 180 214 266 330
#     4  10  21  40  57  75 107 148 184 216 262 333
#     4  10  21  38  55  73 109 155 182 204 258 336
#     4   9  17  31  50  75 106 140 171 209 265 325
#
# _framework density 18.235461000000001
#
# number of rings (size 3 to 8) (size 9 to 14) (size 15 to 20)
#    0.000    1.778    2.222    4.000    1.556    1.778 
#    0.000    0.000    0.000    1.333    0.000    0.000 
#    0.000    0.000    0.000    0.000    0.000    0.000 
#
# Total GULP energy -200475.258678 kJ/mol
# GULP energy per Si atom -5568.757186 kJ/mol
# Density = 1.819396 g / cm^3
# Si number density = 18.235461 Si / 1000 Ang^3
#
#
#
# Elastic Constant Matrix: (Units=GPa)
#
#
# Indices 1 2 3 4 5 6 
#
# 1 107.2308 57.3159 28.4874 0.0000 0.0000 0.0000
# 2 57.3159 140.3390 57.2335 0.0000 0.0000 0.0000
# 3 28.4874 57.2335 72.1572 0.0000 0.0000 0.0000
# 4 0.0000 0.0000 0.0000 -0.3231 0.0000 0.0000
# 5 0.0000 0.0000 0.0000 0.0000 9.4951 0.0000
# 6 0.0000 0.0000 0.0000 0.0000 0.0000 38.5881
#
#
#
# Elastic Compliance Matrix: (Units=1/GPa)
#
#
# Indices 1 2 3 4 5 6 
#
# 1 0.012007 -0.004391 -0.001257 0.000000 0.000000 0.000000
# 2 -0.004391 0.012138 -0.007894 0.000000 0.000000 0.000000
# 3 -0.001257 -0.007894 0.020617 0.000000 0.000000 0.000000
# 4 0.000000 0.000000 0.000000 -3.095152 0.000000 0.000000
# 5 0.000000 0.000000 0.000000 0.000000 0.105317 0.000000
# 6 0.000000 0.000000 0.000000 0.000000 0.000000 0.025915
#
#
# Mechanical properties :
#
#
# Convention : Reuss Voigt Hill
#
# Bulk Modulus (GPa) = 56.57269 67.31119 61.94194
# Shear Modulus (GPa) = -1.73239 21.33138 9.79949
#
# Velocity S-wave (km/s) = -0.97574 3.42391 2.32067
# Velocity P-wave (km/s) = 5.46089 7.25419 6.42046
#
# Compressibility (1/GPa) = 0.01767637
#
# Stress axis : x y z
#
# Youngs Moduli (GPa) = 83.28694 82.38325 48.50418
#
# Poissons Ratio (x) = 0.36173 0.06099
# Poissons Ratio (y) = 0.36570 0.38291
# Poissons Ratio (z) = 0.10473 0.65037
#
# Static dielectric constant tensor:
#      x y z
#    x 1.611440 0.000000 0.000000 
#    y 0.000000 1.673640 0.000000 
#    z 0.000000 0.000000 1.642330 
# 
# From -- ./inp_files/14397.got.cif
#   From: 2010.05.17/outbox.cif.g08.bks.cpg/sg71_8_cif.got.tgz:14397.got - 2010.06.03 16:22:01.
