data_PCOD9523377
_publ_section_title
;
Structure prediction by ZEFSAII (Michael W. Deem and Ramdas Pophale) SiO2 
 PCOD9523377
Probable space group: I M M M
;
_chemical_formula_sum "Si O2"
_cell_formula_units_Z 104
_cell_length_a 19.141625
_cell_length_b 9.184258
_cell_length_c 31.582350
_cell_angle_alpha 90.000000
_cell_angle_beta 90.000000
_cell_angle_gamma 90.000000
_cell_volume 5552.228374
_symmetry_space_group_name_H-M "I M M M"
_symmetry_group_IT_number 71
_symmetry_cell_setting 'orthorhombic'
loop_
_space_group_symop_operation_xyz
x,y,z
-x,-y,z
x,-y,-z
-x,y,-z
-x,-y,-z
x,y,-z
-x,y,z
x,-y,z
1/2+x,1/2+y,1/2+z
1/2-x,1/2-y,1/2+z
1/2+x,1/2-y,1/2-z
1/2-x,1/2+y,1/2-z
1/2-x,1/2-y,1/2-z
1/2+x,1/2+y,1/2-z
1/2-x,1/2+y,1/2+z
1/2+x,1/2-y,1/2+z
loop_
_atom_site_type_symbol
_atom_site_label
_atom_site_fract_x
_atom_site_fract_y
_atom_site_fract_z
Si Si1 0.417711 0.324824 0.673765
Si Si2 0.709712 0.828946 0.048380
Si Si3 0.578944 0.326452 0.084106
Si Si4 0.325018 0.174277 0.254165
Si Si5 0.355365 0.674868 0.418175
Si Si6 0.080473 0.669671 0.327386
Si Si7 0.083544 0.333195 0.000000
O O1 0.500000 0.289374 0.678170
O O2 0.410172 0.500000 0.679260
O O3 0.370171 0.242363 0.707755
O O4 0.390972 0.289032 0.626419
O O5 0.639614 0.740720 0.055960
O O6 0.773041 0.787334 0.079421
O O7 0.694906 0.000000 0.054476
O O8 0.734652 0.809477 0.000000
O O9 0.500000 0.280628 0.071846
O O10 0.581855 0.500000 0.082986
O O11 0.591158 0.268790 0.131715
O O12 0.250000 0.250000 0.250000
O O13 0.367785 0.200859 0.210865
O O14 0.317849 0.000000 0.259573
O O15 0.360340 0.500000 0.424066
O O16 0.391133 0.752750 0.457724
O O17 0.089272 0.500000 0.339946
O O18 0.000000 0.687943 0.313073
O O19 0.109094 0.500000 0.000000
O O20 0.000000 0.333739 0.000000
#
# Coordination Sequence:
#
# PCOD9523377 Si02
#       7
#    16  16  16  16  16  16   8
#     4  10  22  40  63  91 122 158 200 247 299 355
#     4  10  21  38  60  86 116 154 199 245 291 344
#     4  10  22  38  58  87 120 153 191 239 296 353
#     4  11  24  40  60  88 122 159 199 244 296 352
#     4  10  21  40  63  87 117 157 203 245 291 351
#     4   9  19  38  62  84 110 150 196 239 284 340
#     4  11  23  37  57  89 124 155 194 245 297 348
#
# _framework density 18.731217000000001
#
# number of rings (size 3 to 8) (size 9 to 14) (size 15 to 20)
#    0.000    1.923    0.769    2.077    2.154    6.154 
#    0.000    3.077    0.000    0.000    0.000    0.000 
#    0.000    0.000    0.000    0.000    0.000    0.000 
#
# Total GULP energy -290428.779257 kJ/mol
# GULP energy per Si atom -5585.168832 kJ/mol
# Density = 1.868858 g / cm^3
# Si number density = 18.731217 Si / 1000 Ang^3
#
#
#
# Elastic Constant Matrix: (Units=GPa)
#
#
# Indices 1 2 3 4 5 6 
#
# 1 126.2850 52.1476 54.3337 0.0000 0.0000 0.0000
# 2 52.1476 38.2259 28.0872 0.0000 0.0000 0.0000
# 3 54.3337 28.0872 51.9224 0.0000 0.0000 0.0000
# 4 0.0000 0.0000 0.0000 31.8520 0.0000 0.0000
# 5 0.0000 0.0000 0.0000 0.0000 38.7680 0.0000
# 6 0.0000 0.0000 0.0000 0.0000 0.0000 30.8681
#
#
#
# Elastic Compliance Matrix: (Units=1/GPa)
#
#
# Indices 1 2 3 4 5 6 
#
# 1 0.021302 -0.021046 -0.010906 0.000000 0.000000 0.000000
# 2 -0.021046 0.064211 -0.012711 0.000000 0.000000 0.000000
# 3 -0.010906 -0.012711 0.037548 0.000000 0.000000 0.000000
# 4 0.000000 0.000000 0.000000 0.031395 0.000000 0.000000
# 5 0.000000 0.000000 0.000000 0.000000 0.025794 0.000000
# 6 0.000000 0.000000 0.000000 0.000000 0.000000 0.032396
#
#
# Mechanical properties :
#
#
# Convention : Reuss Voigt Hill
#
# Bulk Modulus (GPa) = 29.64364 53.95225 41.79795
# Shear Modulus (GPa) = 15.96333 25.75528 20.85931
#
# Velocity S-wave (km/s) = 2.92247 3.71211 3.34070
# Velocity P-wave (km/s) = 5.21995 6.87306 6.10274
#
# Compressibility (1/GPa) = 0.03373405
#
# Stress axis : x y z
#
# Youngs Moduli (GPa) = 46.94499 15.57361 26.63247
#
# Poissons Ratio (x) = 0.32776 0.29045
# Poissons Ratio (y) = 0.98801 0.33853
# Poissons Ratio (z) = 0.51198 0.19796
#
# Static dielectric constant tensor:
#      x y z
#    x 1.649450 0.000000 0.000000 
#    y 0.000000 1.630010 0.000000 
#    z 0.000000 0.000000 1.620740 
# 
# From -- ./inp_files/66408.got.cif
#   From: 2010.05.17/outbox.cif.g08.bks.cpg/sg71_34_cif.got.tgz:66408.got - 2010.06.03 16:22:01.
