data_PCOD9523338
_publ_section_title
;
Structure prediction by ZEFSAII (Michael W. Deem and Ramdas Pophale) SiO2 
 PCOD9523338
Probable space group: I M M M
;
_chemical_formula_sum "Si O2"
_cell_formula_units_Z 104
_cell_length_a 20.845658
_cell_length_b 8.094912
_cell_length_c 25.782663
_cell_angle_alpha 90.000000
_cell_angle_beta 90.000000
_cell_angle_gamma 90.000000
_cell_volume 4350.663680
_symmetry_space_group_name_H-M "I M M M"
_symmetry_group_IT_number 71
_symmetry_cell_setting 'orthorhombic'
loop_
_space_group_symop_operation_xyz
x,y,z
-x,-y,z
x,-y,-z
-x,y,-z
-x,-y,-z
x,y,-z
-x,y,z
x,-y,z
1/2+x,1/2+y,1/2+z
1/2-x,1/2-y,1/2+z
1/2+x,1/2-y,1/2-z
1/2-x,1/2+y,1/2-z
1/2-x,1/2-y,1/2-z
1/2+x,1/2+y,1/2-z
1/2-x,1/2+y,1/2+z
1/2+x,1/2-y,1/2+z
loop_
_atom_site_type_symbol
_atom_site_label
_atom_site_fract_x
_atom_site_fract_y
_atom_site_fract_z
Si Si1 0.260972 0.300260 0.671724
Si Si2 0.390131 0.194687 0.282546
Si Si3 0.572718 0.000000 0.560670
Si Si4 0.600790 0.800788 0.943512
Si Si5 0.574907 0.324993 0.608750
Si Si6 0.110695 0.298637 0.669668
Si Si7 0.245437 0.198643 0.055591
O O1 0.265269 0.500000 0.677503
O O2 0.312996 0.219227 0.709726
O O3 0.186188 0.254151 0.674654
O O4 0.278015 0.251789 0.612509
O O5 0.419284 0.294706 0.330170
O O6 0.415059 0.249422 0.226199
O O7 0.404179 0.000000 0.289095
O O8 0.602319 0.168376 0.579663
O O9 0.500000 0.000000 0.583217
O O10 0.568566 0.000000 0.500000
O O11 0.581680 0.741065 0.885507
O O12 0.677493 0.771511 0.943948
O O13 0.590024 0.000000 0.943749
O O14 0.576376 0.739381 0.000000
O O15 0.500000 0.333886 0.594574
O O16 0.604692 0.500000 0.594435
O O17 0.108328 0.500000 0.668067
O O18 0.239895 0.000000 0.054165
O O19 0.220867 0.264951 0.000000
#
# Coordination Sequence:
#
# PCOD9523338 Si02
#       7
#    16  16   8  16  16  16  16
#     4   9  16  27  42  61  89 123 166 210 248 296
#     4  11  20  30  45  65  97 134 167 204 252 304
#     4   9  18  36  62  88 110 130 159 207 265 317
#     4   7   9  16  32  54  81 112 150 198 245 283
#     4  10  21  38  59  81 104 132 168 209 258 314
#     4   8  15  25  39  63  92 128 169 208 251 301
#     4   7  10  18  34  54  75 104 145 194 240 278
#
# _framework density 23.904398
#
# number of rings (size 3 to 8) (size 9 to 14) (size 15 to 20)
#    0.000    3.308    0.769    3.692    0.000    0.308 
#    0.000    3.077    0.000    1.846    0.000    0.000 
#    0.000    4.308    0.000    7.692    0.000    1.538 
#
# Total GULP energy -289835.555446 kJ/mol
# GULP energy per Si atom -5573.760682 kJ/mol
# Density = 2.384999 g / cm^3
# Si number density = 23.904398 Si / 1000 Ang^3
#
#
#
# Elastic Constant Matrix: (Units=GPa)
#
#
# Indices 1 2 3 4 5 6 
#
# 1 50.1811 7.3391 -12.9267 0.0000 0.0000 0.0000
# 2 7.3391 84.1188 33.2653 0.0000 0.0000 0.0000
# 3 -12.9267 33.2653 184.9825 0.0000 0.0000 0.0000
# 4 0.0000 0.0000 0.0000 14.3257 0.0000 0.0000
# 5 0.0000 0.0000 0.0000 0.0000 10.6810 0.0000
# 6 0.0000 0.0000 0.0000 0.0000 0.0000 3.7164
#
#
#
# Elastic Compliance Matrix: (Units=1/GPa)
#
#
# Indices 1 2 3 4 5 6 
#
# 1 0.020798 -0.002572 0.001916 0.000000 0.000000 0.000000
# 2 -0.002572 0.013116 -0.002538 0.000000 0.000000 0.000000
# 3 0.001916 -0.002538 0.005996 0.000000 0.000000 0.000000
# 4 0.000000 0.000000 0.000000 0.069805 0.000000 0.000000
# 5 0.000000 0.000000 0.000000 0.000000 0.093624 0.000000
# 6 0.000000 0.000000 0.000000 0.000000 0.000000 0.269075
#
#
# Mechanical properties :
#
#
# Convention : Reuss Voigt Hill
#
# Bulk Modulus (GPa) = 29.83238 41.62643 35.72941
# Shear Modulus (GPa) = 10.20456 25.18493 17.69475
#
# Velocity S-wave (km/s) = 2.06837 3.24939 2.72367
# Velocity P-wave (km/s) = 4.26746 5.61512 4.98702
#
# Compressibility (1/GPa) = 0.03352062
#
# Stress axis : x y z
#
# Youngs Moduli (GPa) = 48.08259 76.24159 166.76994
#
# Poissons Ratio (x) = 0.19611 -0.31951
# Poissons Ratio (y) = 0.12368 0.42333
# Poissons Ratio (z) = -0.09212 0.19353
#
# Static dielectric constant tensor:
#      x y z
#    x 1.955310 0.000000 0.000000 
#    y 0.000000 2.012450 0.000000 
#    z 0.000000 0.000000 1.963460 
# 
# From -- ./inp_files/66855.got.cif
#   From: 2010.05.17/outbox.cif.g08.bks.cpg/sg71_34_cif.got.tgz:66855.got - 2010.06.03 16:22:01.
