data_PCOD9523923
_publ_section_title
;
Structure prediction by ZEFSAII (Michael W. Deem and Ramdas Pophale) SiO2 
 PCOD9523923
Probable space group: I M M M
;
_chemical_formula_sum "Si O2"
_cell_formula_units_Z 88
_cell_length_a 24.153296
_cell_length_b 15.723232
_cell_length_c 11.739528
_cell_angle_alpha 90.000000
_cell_angle_beta 90.000000
_cell_angle_gamma 90.000000
_cell_volume 4458.295621
_symmetry_space_group_name_H-M "I M M M"
_symmetry_group_IT_number 71
_symmetry_cell_setting 'orthorhombic'
loop_
_space_group_symop_operation_xyz
x,y,z
-x,-y,z
x,-y,-z
-x,y,-z
-x,-y,-z
x,y,-z
-x,y,z
x,-y,z
1/2+x,1/2+y,1/2+z
1/2-x,1/2-y,1/2+z
1/2+x,1/2-y,1/2-z
1/2-x,1/2+y,1/2-z
1/2-x,1/2-y,1/2-z
1/2+x,1/2+y,1/2-z
1/2-x,1/2+y,1/2+z
1/2+x,1/2-y,1/2+z
loop_
_atom_site_type_symbol
_atom_site_label
_atom_site_fract_x
_atom_site_fract_y
_atom_site_fract_z
Si Si1 0.064837 0.000000 0.253249
Si Si2 0.707908 0.907022 0.500000
Si Si3 0.894870 0.830160 0.630531
Si Si4 0.062833 0.332117 0.753079
Si Si5 0.432648 0.000000 0.867076
Si Si6 0.922992 0.597827 0.000000
Si Si7 0.813278 0.000000 0.863004
Si Si8 0.228676 0.157218 0.288724
O O1 0.074288 0.084644 0.328443
O O2 0.120131 0.000000 0.170315
O O3 0.000000 0.000000 0.210210
O O4 0.642536 0.908545 0.500000
O O5 0.726291 0.867903 0.381740
O O6 0.733930 0.000000 0.500000
O O7 0.909597 0.809436 0.500000
O O8 0.908285 0.753712 0.716300
O O9 0.829175 0.841166 0.642698
O O10 0.088619 0.415107 0.693254
O O11 0.061032 0.352592 0.886285
O O12 0.000000 0.323915 0.710282
O O13 0.500000 0.000000 0.852807
O O14 0.420347 0.000000 0.000000
O O15 0.943246 0.500000 0.000000
O O16 0.784028 0.084300 0.807031
O O17 0.808175 0.000000 0.000000
O O18 0.250000 0.250000 0.250000
#
# Coordination Sequence:
#
# PCOD9523923 Si02
#       8
#     8   8  16  16   8   8   8  16
#     4  10  23  43  66  94 129 172 218 264 320 382
#     4  11  22  41  68  90 121 164 209 268 320 369
#     4  11  23  40  65  95 128 163 214 270 320 383
#     4  11  22  38  60  89 128 168 206 256 313 373
#     4   9  18  33  55  82 116 158 197 244 310 369
#     4  11  23  40  63  91 124 166 222 254 303 385
#     4  10  24  43  66  99 134 169 213 268 324 390
#     4  11  23  42  67  94 128 167 213 263 329 382
#
# _framework density 19.738485000000001
#
# number of rings (size 3 to 8) (size 9 to 14) (size 15 to 20)
#    0.000    1.364    2.727    2.727    1.273    3.091 
#    6.545    0.000    0.000    2.182    0.000    0.000 
#    0.000    0.000    0.000    0.000    0.000    0.000 
#
# Total GULP energy -245412.009301 kJ/mol
# GULP energy per Si atom -5577.545666 kJ/mol
# Density = 1.969356 g / cm^3
# Si number density = 19.738485 Si / 1000 Ang^3
#
#
#
# Elastic Constant Matrix: (Units=GPa)
#
#
# Indices 1 2 3 4 5 6 
#
# 1 92.7176 26.6867 17.7483 0.0000 0.0000 0.0000
# 2 26.6867 146.9563 69.7037 0.0000 0.0000 0.0000
# 3 17.7483 69.7037 136.2514 0.0000 0.0000 0.0000
# 4 0.0000 0.0000 0.0000 97.3653 0.0000 0.0000
# 5 0.0000 0.0000 0.0000 0.0000 6.2564 0.0000
# 6 0.0000 0.0000 0.0000 0.0000 0.0000 11.4990
#
#
#
# Elastic Compliance Matrix: (Units=1/GPa)
#
#
# Indices 1 2 3 4 5 6 
#
# 1 0.011413 -0.001805 -0.000563 0.000000 0.000000 0.000000
# 2 -0.001805 0.009271 -0.004507 0.000000 0.000000 0.000000
# 3 -0.000563 -0.004507 0.009719 0.000000 0.000000 0.000000
# 4 0.000000 0.000000 0.000000 0.010271 0.000000 0.000000
# 5 0.000000 0.000000 0.000000 0.000000 0.159836 0.000000
# 6 0.000000 0.000000 0.000000 0.000000 0.000000 0.086964
#
#
# Mechanical properties :
#
#
# Convention : Reuss Voigt Hill
#
# Bulk Modulus (GPa) = 60.05941 67.13363 63.59652
# Shear Modulus (GPa) = 16.29859 40.47659 28.38759
#
# Velocity S-wave (km/s) = 2.87666 4.53332 3.79646
# Velocity P-wave (km/s) = 6.44416 7.84134 7.17683
#
# Compressibility (1/GPa) = 0.01665018
#
# Stress axis : x y z
#
# Youngs Moduli (GPa) = 87.62033 107.86813 102.89491
#
# Poissons Ratio (x) = 0.19476 0.05793
# Poissons Ratio (y) = 0.15820 0.46380
# Poissons Ratio (z) = 0.04933 0.48621
#
# Static dielectric constant tensor:
#      x y z
#    x 1.699220 0.000000 0.000000 
#    y 0.000000 1.750320 0.000000 
#    z 0.000000 0.000000 1.647690 
# 
# From -- ./inp_files/28689.got.cif
#   From: 2010.05.17/outbox.cif.g08.bks.cpg/sg71_15_cif.got.tgz:28689.got - 2010.06.03 16:22:01.
