data_PCOD9523830
_publ_section_title
;
Structure prediction by ZEFSAII (Michael W. Deem and Ramdas Pophale) SiO2 
 PCOD9523830
Probable space group: I M M M
;
_chemical_formula_sum "Si O2"
_cell_formula_units_Z 68
_cell_length_a 16.010380
_cell_length_b 9.368875
_cell_length_c 23.143000
_cell_angle_alpha 90.000000
_cell_angle_beta 90.000000
_cell_angle_gamma 90.000000
_cell_volume 3471.432618
_symmetry_space_group_name_H-M "I M M M"
_symmetry_group_IT_number 71
_symmetry_cell_setting 'orthorhombic'
loop_
_space_group_symop_operation_xyz
x,y,z
-x,-y,z
x,-y,-z
-x,y,-z
-x,-y,-z
x,y,-z
-x,y,z
x,-y,z
1/2+x,1/2+y,1/2+z
1/2-x,1/2-y,1/2+z
1/2+x,1/2-y,1/2-z
1/2-x,1/2+y,1/2-z
1/2-x,1/2-y,1/2-z
1/2+x,1/2+y,1/2-z
1/2-x,1/2+y,1/2+z
1/2+x,1/2-y,1/2+z
loop_
_atom_site_type_symbol
_atom_site_label
_atom_site_fract_x
_atom_site_fract_y
_atom_site_fract_z
Si Si1 0.399470 0.338238 0.170812
Si Si2 0.844550 0.668993 0.912468
Si Si3 0.324678 0.170074 0.064373
Si Si4 0.500000 0.206904 0.500000
Si Si5 0.399186 0.834743 0.282188
O O1 0.500000 0.342103 0.173516
O O2 0.367628 0.500000 0.165539
O O3 0.373772 0.246240 0.115705
O O4 0.369814 0.265822 0.230301
O O5 0.825835 0.500000 0.919655
O O6 0.768284 0.765566 0.932720
O O7 0.926772 0.699927 0.949821
O O8 0.861109 0.696596 0.844733
O O9 0.323388 0.000000 0.072487
O O10 0.359094 0.199791 0.000000
O O11 0.500000 0.821422 0.287383
O O12 0.381471 0.000000 0.267648
#
# Coordination Sequence:
#
# PCOD9523830 Si02
#       5
#    16  16  16   4  16
#     4  10  22  41  65  90 115 150 197 249 303 357
#     4  11  21  36  62  92 124 162 203 245 289 345
#     4  11  25  42  59  86 122 158 197 244 300 358
#     4  12  21  36  65  98 127 164 207 242 285 346
#     4   9  18  34  58  89 121 157 199 243 294 350
#
# _framework density 19.588453999999999
#
# number of rings (size 3 to 8) (size 9 to 14) (size 15 to 20)
#    0.000    1.647    2.353    2.471    0.000    5.176 
#    0.000    3.529    0.000    0.000    0.000    0.000 
#    0.000    0.000    0.000    0.000    0.000    0.000 
#
# Total GULP energy -189440.621742 kJ/mol
# GULP energy per Si atom -5571.782992 kJ/mol
# Density = 1.954387 g / cm^3
# Si number density = 19.588454 Si / 1000 Ang^3
#
#
#
# Elastic Constant Matrix: (Units=GPa)
#
#
# Indices 1 2 3 4 5 6 
#
# 1 17.6398 18.0961 20.4230 0.0000 0.0000 0.0000
# 2 18.0961 78.6203 86.8709 0.0000 0.0000 0.0000
# 3 20.4230 86.8709 177.0864 0.0000 0.0000 0.0000
# 4 0.0000 0.0000 0.0000 19.9274 0.0000 0.0000
# 5 0.0000 0.0000 0.0000 0.0000 32.8934 0.0000
# 6 0.0000 0.0000 0.0000 0.0000 0.0000 12.6362
#
#
#
# Elastic Compliance Matrix: (Units=1/GPa)
#
#
# Indices 1 2 3 4 5 6 
#
# 1 0.074226 -0.016652 -0.000392 0.000000 0.000000 0.000000
# 2 -0.016652 0.031509 -0.013537 0.000000 0.000000 0.000000
# 3 -0.000392 -0.013537 0.012333 0.000000 0.000000 0.000000
# 4 0.000000 0.000000 0.000000 0.050182 0.000000 0.000000
# 5 0.000000 0.000000 0.000000 0.000000 0.030401 0.000000
# 6 0.000000 0.000000 0.000000 0.000000 0.000000 0.079138
#
#
# Mechanical properties :
#
#
# Convention : Reuss Voigt Hill
#
# Bulk Modulus (GPa) = 17.57236 58.23629 37.90433
# Shear Modulus (GPa) = 13.96963 22.95516 18.46239
#
# Velocity S-wave (km/s) = 2.67340 3.42698 3.07337
# Velocity P-wave (km/s) = 4.30345 6.74191 5.65566
#
# Compressibility (1/GPa) = 0.05690754
#
# Stress axis : x y z
#
# Youngs Moduli (GPa) = 13.47235 31.73650 81.08555
#
# Poissons Ratio (x) = 0.52848 0.03175
# Poissons Ratio (y) = 0.22434 1.09763
# Poissons Ratio (z) = 0.00528 0.42961
#
# Static dielectric constant tensor:
#      x y z
#    x 1.684190 0.000000 0.000000 
#    y 0.000000 1.671930 0.000000 
#    z 0.000000 0.000000 1.680300 
# 
# From -- ./inp_files/9646.got.cif
#   From: 2010.05.17/outbox.cif.g08.bks.cpg/sg71_5_cif.got.tgz:9646.got - 2010.06.03 16:22:01.
