data_PCOD9523155
_publ_section_title
;
Structure prediction by ZEFSAII (Michael W. Deem and Ramdas Pophale) SiO2 
 PCOD9523155
Probable space group: I M M M
;
_chemical_formula_sum "Si O2"
_cell_formula_units_Z 96
_cell_length_a 18.693994
_cell_length_b 12.586171
_cell_length_c 22.360709
_cell_angle_alpha 90.000000
_cell_angle_beta 90.000000
_cell_angle_gamma 90.000000
_cell_volume 5261.157421
_symmetry_space_group_name_H-M "I M M M"
_symmetry_group_IT_number 71
_symmetry_cell_setting 'orthorhombic'
loop_
_space_group_symop_operation_xyz
x,y,z
-x,-y,z
x,-y,-z
-x,y,-z
-x,-y,-z
x,y,-z
-x,y,z
x,-y,z
1/2+x,1/2+y,1/2+z
1/2-x,1/2-y,1/2+z
1/2+x,1/2-y,1/2-z
1/2-x,1/2+y,1/2-z
1/2-x,1/2-y,1/2-z
1/2+x,1/2+y,1/2-z
1/2-x,1/2+y,1/2+z
1/2+x,1/2-y,1/2+z
loop_
_atom_site_type_symbol
_atom_site_label
_atom_site_fract_x
_atom_site_fract_y
_atom_site_fract_z
Si Si1 0.210301 0.613419 0.069724
Si Si2 0.707120 0.124291 0.829133
Si Si3 0.919394 0.624449 0.766955
Si Si4 0.086041 0.000000 0.071450
Si Si5 0.000000 0.121745 0.427141
Si Si6 0.353249 0.271454 0.070005
Si Si7 0.358258 0.294896 0.354109
O O1 0.192200 0.500000 0.097605
O O2 0.294763 0.635136 0.075139
O O3 0.169975 0.710912 0.097756
O O4 0.193614 0.610373 0.000000
O O5 0.646669 0.138442 0.778666
O O6 0.676096 0.178418 0.888730
O O7 0.786384 0.171231 0.817655
O O8 0.716694 0.000000 0.838882
O O9 0.914391 0.500000 0.788898
O O10 0.909898 0.721637 0.813684
O O11 0.000000 0.632833 0.740812
O O12 0.111802 0.896513 0.109530
O O13 0.000000 0.000000 0.070615
O O14 0.109220 0.000000 0.000000
O O15 0.070790 0.184518 0.409263
O O16 0.000000 0.118130 0.500000
O O17 0.000000 0.000000 0.406077
O O18 0.357172 0.241117 0.000000
#
# Coordination Sequence:
#
# PCOD9523155 Si02
#       7
#    16  16  16   8   8  16  16
#     4   9  17  30  51  81 112 141 180 234 285 337
#     4  10  21  37  56  84 113 152 198 242 292 344
#     4  10  22  39  61  84 111 150 194 247 301 351
#     4  11  24  40  62  92 125 159 192 234 297 360
#     4   9  16  28  47  69 101 147 194 238 291 352
#     4   9  18  30  49  77 111 150 192 238 294 356
#     4  11  20  38  60  85 113 152 196 238 286 352
#
# _framework density 18.246936000000002
#
# number of rings (size 3 to 8) (size 9 to 14) (size 15 to 20)
#    0.000    2.167    0.833    2.500    1.167    3.000 
#    0.000    0.000    3.667    1.500    0.000    7.000 
#    0.000    0.000    0.000    0.000    0.000    0.000 
#
# Total GULP energy -267260.226918 kJ/mol
# GULP energy per Si atom -5567.921394 kJ/mol
# Density = 1.820541 g / cm^3
# Si number density = 18.246936 Si / 1000 Ang^3
#
#
#
# Elastic Constant Matrix: (Units=GPa)
#
#
# Indices 1 2 3 4 5 6 
#
# 1 99.4473 39.9750 26.9465 0.0000 0.0000 0.0000
# 2 39.9750 134.0658 39.9027 0.0000 0.0000 0.0000
# 3 26.9465 39.9027 40.3064 0.0000 0.0000 0.0000
# 4 0.0000 0.0000 0.0000 23.8145 0.0000 0.0000
# 5 0.0000 0.0000 0.0000 0.0000 21.2313 0.0000
# 6 0.0000 0.0000 0.0000 0.0000 0.0000 23.1995
#
#
#
# Elastic Compliance Matrix: (Units=1/GPa)
#
#
# Indices 1 2 3 4 5 6 
#
# 1 0.012569 -0.001768 -0.006653 0.000000 0.000000 0.000000
# 2 -0.001768 0.010824 -0.009533 0.000000 0.000000 0.000000
# 3 -0.006653 -0.009533 0.038696 0.000000 0.000000 0.000000
# 4 0.000000 0.000000 0.000000 0.041991 0.000000 0.000000
# 5 0.000000 0.000000 0.000000 0.000000 0.047100 0.000000
# 6 0.000000 0.000000 0.000000 0.000000 0.000000 0.043104
#
#
# Mechanical properties :
#
#
# Convention : Reuss Voigt Hill
#
# Bulk Modulus (GPa) = 38.19686 54.16309 46.17997
# Shear Modulus (GPa) = 20.92764 24.78208 22.85486
#
# Velocity S-wave (km/s) = 3.39028 3.68931 3.54295
# Velocity P-wave (km/s) = 6.02529 6.92068 6.48845
#
# Compressibility (1/GPa) = 0.02618016
#
# Stress axis : x y z
#
# Youngs Moduli (GPa) = 79.56228 92.39099 25.84268
#
# Poissons Ratio (x) = 0.16331 0.17193
# Poissons Ratio (y) = 0.14063 0.24637
# Poissons Ratio (z) = 0.52932 0.88081
#
# Static dielectric constant tensor:
#      x y z
#    x 1.640500 0.000000 0.000000 
#    y 0.000000 1.623260 0.000000 
#    z 0.000000 0.000000 1.630730 
# 
# From -- ./inp_files/27444.got.cif
#   From: 2010.05.17/outbox.cif.g08.bks.cpg/sg71_14_cif.got.tgz:27444.got - 2010.06.03 16:22:01.
