data_PCOD9523448
_publ_section_title
;
Structure prediction by ZEFSAII (Michael W. Deem and Ramdas Pophale) SiO2 
 PCOD9523448
Probable space group: I M M M
;
_chemical_formula_sum "Si O2"
_cell_formula_units_Z 80
_cell_length_a 14.352948
_cell_length_b 27.034041
_cell_length_c 11.421847
_cell_angle_alpha 90.000000
_cell_angle_beta 90.000000
_cell_angle_gamma 90.000000
_cell_volume 4431.884339
_symmetry_space_group_name_H-M "I M M M"
_symmetry_group_IT_number 71
_symmetry_cell_setting 'orthorhombic'
loop_
_space_group_symop_operation_xyz
x,y,z
-x,-y,z
x,-y,-z
-x,y,-z
-x,-y,-z
x,y,-z
-x,y,z
x,-y,z
1/2+x,1/2+y,1/2+z
1/2-x,1/2-y,1/2+z
1/2+x,1/2-y,1/2-z
1/2-x,1/2+y,1/2-z
1/2-x,1/2-y,1/2-z
1/2+x,1/2+y,1/2-z
1/2-x,1/2+y,1/2+z
1/2+x,1/2-y,1/2+z
loop_
_atom_site_type_symbol
_atom_site_label
_atom_site_fract_x
_atom_site_fract_y
_atom_site_fract_z
Si Si1 0.000000 0.722422 0.697741
Si Si2 0.177459 0.440778 0.252774
Si Si3 0.000000 0.186063 0.140658
Si Si4 0.000000 0.611714 0.638238
Si Si5 0.792331 0.271233 0.371020
Si Si6 0.315029 0.628624 0.366004
Si Si7 0.606717 0.939949 0.500000
O O1 0.000000 0.758536 0.809608
O O2 0.096793 0.734472 0.633868
O O3 0.000000 0.663046 0.710779
O O4 0.178861 0.500000 0.260717
O O5 0.273216 0.416468 0.294630
O O6 0.156659 0.425302 0.119234
O O7 0.091416 0.419742 0.328809
O O8 0.091872 0.155836 0.178083
O O9 0.000000 0.188569 0.000000
O O10 0.000000 0.623913 0.500000
O O11 0.757954 0.252649 0.500000
O O12 0.750000 0.250000 0.250000
O O13 0.763777 0.328779 0.367740
O O14 0.332228 0.613145 0.500000
O O15 0.500000 0.922373 0.500000
O O16 0.603472 0.000000 0.500000
#
# Coordination Sequence:
#
# PCOD9523448 Si02
#       7
#     8  16   8   8  16  16   8
#     4  12  22  37  60  87 122 161 196 240 305 360
#     4  11  22  38  60  86 119 159 200 242 294 358
#     4  10  22  42  64  87 120 159 200 253 306 355
#     4  12  23  35  54  87 125 157 189 237 297 355
#     4  11  22  38  59  85 121 160 201 249 304 360
#     4  10  21  39  60  85 119 156 196 248 305 353
#     4   9  18  36  58  81 119 161 193 238 296 349
#
# _framework density 18.051012
#
# number of rings (size 3 to 8) (size 9 to 14) (size 15 to 20)
#    0.000    1.300    5.000    1.800    0.000    2.000 
#    3.600    0.500    0.000    1.800    0.000    2.100 
#    0.000    0.000    0.000    0.000    0.000    0.000 
#
# Total GULP energy -223065.270978 kJ/mol
# GULP energy per Si atom -5576.631774 kJ/mol
# Density = 1.800993 g / cm^3
# Si number density = 18.051012 Si / 1000 Ang^3
#
#
#
# Elastic Constant Matrix: (Units=GPa)
#
#
# Indices 1 2 3 4 5 6 
#
# 1 102.9002 39.1826 42.5160 0.0000 0.0000 0.0000
# 2 39.1826 92.0739 48.8518 0.0000 0.0000 0.0000
# 3 42.5160 48.8518 95.9561 0.0003 -0.0002 0.0000
# 4 0.0000 0.0000 0.0003 27.8169 -0.0001 0.0000
# 5 0.0000 0.0000 -0.0002 -0.0001 24.9337 0.0000
# 6 0.0000 0.0000 0.0000 0.0000 0.0000 31.5029
#
#
#
# Elastic Compliance Matrix: (Units=1/GPa)
#
#
# Indices 1 2 3 4 5 6 
#
# 1 0.012581 -0.003283 -0.003903 0.000000 0.000000 0.000000
# 2 -0.003283 0.015737 -0.006557 0.000000 0.000000 0.000000
# 3 -0.003903 -0.006557 0.015489 0.000000 0.000000 0.000000
# 4 0.000000 0.000000 0.000000 0.035949 0.000000 0.000000
# 5 0.000000 0.000000 0.000000 0.000000 0.040106 0.000000
# 6 0.000000 0.000000 0.000000 0.000000 0.000000 0.031743
#
#
# Mechanical properties :
#
#
# Convention : Reuss Voigt Hill
#
# Bulk Modulus (GPa) = 61.27204 61.33680 61.30442
# Shear Modulus (GPa) = 27.09557 27.54270 27.31914
#
# Velocity S-wave (km/s) = 3.87855 3.91042 3.89452
# Velocity P-wave (km/s) = 7.35357 7.37848 7.36604
#
# Compressibility (1/GPa) = 0.01632066
#
# Stress axis : x y z
#
# Youngs Moduli (GPa) = 79.48566 63.54442 64.56209
#
# Poissons Ratio (x) = 0.20862 0.25198
# Poissons Ratio (y) = 0.26096 0.42334
# Poissons Ratio (z) = 0.31022 0.41667
#
# Static dielectric constant tensor:
#      x y z
#    x 1.639820 0.000000 0.000000 
#    y 0.000000 1.609380 0.000000 
#    z 0.000000 0.000000 1.646560 
# 
# From -- ./inp_files/21972.got.cif
#   From: 2010.05.17/outbox.cif.g08.bks.cpg/sg71_11_cif.got.tgz:21972.got - 2010.06.03 16:22:01.
