data_PCOD9523179
_publ_section_title
;
Structure prediction by ZEFSAII (Michael W. Deem and Ramdas Pophale) SiO2 
 PCOD9523179
Probable space group: I M M M
;
_chemical_formula_sum "Si O2"
_cell_formula_units_Z 88
_cell_length_a 18.630076
_cell_length_b 8.265594
_cell_length_c 27.530401
_cell_angle_alpha 90.000000
_cell_angle_beta 90.000000
_cell_angle_gamma 90.000000
_cell_volume 4239.369130
_symmetry_space_group_name_H-M "I M M M"
_symmetry_group_IT_number 71
_symmetry_cell_setting 'orthorhombic'
loop_
_space_group_symop_operation_xyz
x,y,z
-x,-y,z
x,-y,-z
-x,y,-z
-x,-y,-z
x,y,-z
-x,y,z
x,-y,z
1/2+x,1/2+y,1/2+z
1/2-x,1/2-y,1/2+z
1/2+x,1/2-y,1/2-z
1/2-x,1/2+y,1/2-z
1/2-x,1/2-y,1/2-z
1/2+x,1/2+y,1/2-z
1/2-x,1/2+y,1/2+z
1/2+x,1/2-y,1/2+z
loop_
_atom_site_type_symbol
_atom_site_label
_atom_site_fract_x
_atom_site_fract_y
_atom_site_fract_z
Si Si1 0.079703 0.310839 0.074827
Si Si2 0.826642 0.193731 0.729495
Si Si3 0.000000 0.697970 0.442502
Si Si4 0.138665 0.308213 0.621083
Si Si5 0.236340 0.695417 0.052887
Si Si6 0.916255 0.184148 0.180224
O O1 0.076502 0.500000 0.061492
O O2 0.153983 0.243903 0.054063
O O3 0.091297 0.291164 0.132441
O O4 0.000000 0.241059 0.063360
O O5 0.750000 0.250000 0.750000
O O6 0.852042 0.249352 0.676424
O O7 0.879732 0.250092 0.771918
O O8 0.826950 0.000000 0.728253
O O9 0.070745 0.751467 0.411588
O O10 0.000000 0.500000 0.443329
O O11 0.000000 0.748231 0.500000
O O12 0.131091 0.500000 0.622973
O O13 0.212306 0.263588 0.593800
O O14 0.233701 0.500000 0.058028
O O15 0.267474 0.734588 0.000000
O O16 0.000000 0.171963 0.189987
O O17 0.889408 0.000000 0.169711
#
# Coordination Sequence:
#
# PCOD9523179 Si02
#       6
#    16  16   8  16  16  16
#     4   9  18  33  54  81 112 148 188 231 278 333
#     4  11  23  38  58  84 117 153 191 237 288 348
#     4   9  20  40  63  87 117 155 203 259 312 365
#     4  11  23  39  61  87 116 153 198 247 301 360
#     4  10  21  37  57  82 113 148 190 240 292 347
#     4   9  19  35  54  76 105 143 181 219 268 325
#
# _framework density 20.757805999999999
#
# number of rings (size 3 to 8) (size 9 to 14) (size 15 to 20)
#    0.000    2.091    0.000    2.727    1.273    6.545 
#    0.000    3.182    0.000    3.273    0.000    3.818 
#    0.000    0.000    0.000    0.000    0.000    0.000 
#
# Total GULP energy -245356.552605 kJ/mol
# GULP energy per Si atom -5576.285286 kJ/mol
# Density = 2.071056 g / cm^3
# Si number density = 20.757806 Si / 1000 Ang^3
#
#
#
# Elastic Constant Matrix: (Units=GPa)
#
#
# Indices 1 2 3 4 5 6 
#
# 1 99.0655 11.1547 65.2347 0.0000 0.0000 0.0000
# 2 11.1547 14.9399 10.6534 0.0000 0.0000 0.0000
# 3 65.2347 10.6534 143.3735 0.0000 0.0000 0.0000
# 4 0.0000 0.0000 0.0000 14.4878 0.0000 0.0000
# 5 0.0000 0.0000 0.0000 0.0000 35.4102 0.0000
# 6 0.0000 0.0000 0.0000 0.0000 0.0000 21.2001
#
#
#
# Elastic Compliance Matrix: (Units=1/GPa)
#
#
# Indices 1 2 3 4 5 6 
#
# 1 0.015021 -0.006697 -0.006337 0.000000 0.000000 0.000000
# 2 -0.006697 0.073665 -0.002427 0.000000 0.000000 0.000000
# 3 -0.006337 -0.002427 0.010038 0.000000 0.000000 0.000000
# 4 0.000000 0.000000 0.000000 0.069024 0.000000 0.000000
# 5 0.000000 0.000000 0.000000 0.000000 0.028240 0.000000
# 6 0.000000 0.000000 0.000000 0.000000 0.000000 0.047170
#
#
# Mechanical properties :
#
#
# Convention : Reuss Voigt Hill
#
# Bulk Modulus (GPa) = 14.74839 47.94051 31.34445
# Shear Modulus (GPa) = 16.85311 25.57534 21.21423
#
# Velocity S-wave (km/s) = 2.85246 3.51391 3.20032
# Velocity P-wave (km/s) = 4.23900 6.29355 5.36553
#
# Compressibility (1/GPa) = 0.06780399
#
# Stress axis : x y z
#
# Youngs Moduli (GPa) = 66.57190 13.57495 99.61675
#
# Poissons Ratio (x) = 0.09091 0.63128
# Poissons Ratio (y) = 0.44581 0.24174
# Poissons Ratio (z) = 0.42187 0.03294
#
# Static dielectric constant tensor:
#      x y z
#    x 1.803630 0.000000 0.000000 
#    y 0.000000 1.760830 0.000000 
#    z 0.000000 0.000000 4.408530 
# 
# From -- ./inp_files/61134.got.cif
#   From: 2010.05.17/outbox.cif.g08.bks.cpg/sg71_31_cif.got.tgz:61134.got - 2010.06.03 16:22:01.
