data_PCOD9523999
_publ_section_title
;
Structure prediction by ZEFSAII (Michael W. Deem and Ramdas Pophale) SiO2 
 PCOD9523999
Probable space group: I M M M
;
_chemical_formula_sum "Si O2"
_cell_formula_units_Z 120
_cell_length_a 23.151284
_cell_length_b 23.822671
_cell_length_c 13.885000
_cell_angle_alpha 90.000000
_cell_angle_beta 90.000000
_cell_angle_gamma 90.000000
_cell_volume 7657.930484
_symmetry_space_group_name_H-M "I M M M"
_symmetry_group_IT_number 71
_symmetry_cell_setting 'orthorhombic'
loop_
_space_group_symop_operation_xyz
x,y,z
-x,-y,z
x,-y,-z
-x,y,-z
-x,-y,-z
x,y,-z
-x,y,z
x,-y,z
1/2+x,1/2+y,1/2+z
1/2-x,1/2-y,1/2+z
1/2+x,1/2-y,1/2-z
1/2-x,1/2+y,1/2-z
1/2-x,1/2-y,1/2-z
1/2+x,1/2+y,1/2-z
1/2-x,1/2+y,1/2+z
1/2+x,1/2-y,1/2+z
loop_
_atom_site_type_symbol
_atom_site_label
_atom_site_fract_x
_atom_site_fract_y
_atom_site_fract_z
Si Si1 0.067877 0.145704 0.615113
Si Si2 0.668110 0.137624 0.792741
Si Si3 0.157272 0.758371 0.386050
Si Si4 0.841007 0.933597 0.298476
Si Si5 0.569255 0.933087 0.714522
Si Si6 0.066016 0.432155 0.000000
Si Si7 0.231439 0.066450 0.889057
Si Si8 0.248761 0.646083 0.888403
O O1 0.076387 0.135766 0.500000
O O2 0.102007 0.203058 0.638414
O O3 0.099720 0.096935 0.674144
O O4 0.000000 0.149197 0.633736
O O5 0.659297 0.200157 0.831099
O O6 0.608647 0.103239 0.784689
O O7 0.713809 0.103717 0.858518
O O8 0.697889 0.141654 0.687975
O O9 0.155387 0.746969 0.500000
O O10 0.213076 0.797993 0.368789
O O11 0.818701 0.922316 0.189499
O O12 0.792526 0.905306 0.366666
O O13 0.844252 0.000000 0.312597
O O14 0.500000 0.923871 0.722692
O O15 0.588987 0.917448 0.605134
O O16 0.578820 0.000000 0.727483
O O17 0.064504 0.500000 0.000000
O O18 0.000000 0.411931 0.000000
O O19 0.245689 0.000000 0.880114
O O20 0.215191 0.077314 0.000000
O O21 0.231226 0.645749 0.000000
#
# Coordination Sequence:
#
# PCOD9523999 Si02
#       8
#    16  16  16  16  16   8  16  16
#     4   9  18  32  50  72  99 128 155 190 236 283
#     4  11  19  28  50  73  89 117 167 200 232 276
#     4   9  18  33  48  64  90 123 157 196 238 278
#     4   9  17  30  49  73  99 127 156 185 228 287
#     4   9  18  31  45  65  96 127 154 189 232 275
#     4   7  12  26  44  58  82 124 156 174 212 270
#     4   9  18  32  48  69  98 126 154 194 239 278
#     4   9  19  32  45  67 100 125 146 190 245 286
#
# _framework density 15.670029
#
# number of rings (size 3 to 8) (size 9 to 14) (size 15 to 20)
#    0.000    2.867    0.000    3.200    0.933    2.400 
#    0.000    0.667    0.000    1.600    0.000    6.533 
#    0.000    0.000    0.000    0.000    0.000    0.000 
#
# Total GULP energy -334130.855612 kJ/mol
# GULP energy per Si atom -5568.847594 kJ/mol
# Density = 1.563436 g / cm^3
# Si number density = 15.670029 Si / 1000 Ang^3
#
#
#
# Elastic Constant Matrix: (Units=GPa)
#
#
# Indices 1 2 3 4 5 6 
#
# 1 85.7782 55.9274 35.5054 0.0000 0.0000 0.0000
# 2 55.9274 77.6055 42.7711 0.0000 0.0000 0.0000
# 3 35.5054 42.7711 58.1876 0.0000 0.0000 0.0000
# 4 0.0000 0.0000 0.0000 21.3123 0.0000 0.0000
# 5 0.0000 0.0000 0.0000 0.0000 16.0969 0.0000
# 6 0.0000 0.0000 0.0000 0.0000 0.0000 9.7651
#
#
#
# Elastic Compliance Matrix: (Units=1/GPa)
#
#
# Indices 1 2 3 4 5 6 
#
# 1 0.022301 -0.014409 -0.003016 0.000000 0.000000 0.000000
# 2 -0.014409 0.030971 -0.013973 0.000000 0.000000 0.000000
# 3 -0.003016 -0.013973 0.029297 0.000000 0.000000 0.000000
# 4 0.000000 0.000000 0.000000 0.046921 0.000000 0.000000
# 5 0.000000 0.000000 0.000000 0.000000 0.062124 0.000000
# 6 0.000000 0.000000 0.000000 0.000000 0.000000 0.102406
#
#
# Mechanical properties :
#
#
# Convention : Reuss Voigt Hill
#
# Bulk Modulus (GPa) = 50.57596 54.44212 52.50904
# Shear Modulus (GPa) = 13.75862 15.25935 14.50898
#
# Velocity S-wave (km/s) = 2.96636 3.12395 3.04617
# Velocity P-wave (km/s) = 6.63913 6.91595 6.77895
#
# Compressibility (1/GPa) = 0.01977224
#
# Stress axis : x y z
#
# Youngs Moduli (GPa) = 44.84010 32.28834 34.13289
#
# Poissons Ratio (x) = 0.46525 0.10296
# Poissons Ratio (y) = 0.64612 0.47694
# Poissons Ratio (z) = 0.13526 0.45116
#
# Static dielectric constant tensor:
#      x y z
#    x 1.511790 0.000000 0.000000 
#    y 0.000000 1.506360 0.000000 
#    z 0.000000 0.000000 1.532110 
# 
# From -- ./inp_files/39635.got.cif
#   From: 2010.05.17/outbox.cif.g08.bks.cpg/sg71_20_cif.got.tgz:39635.got - 2010.06.03 16:22:01.
