data_PCOD9523120
_publ_section_title
;
Structure prediction by ZEFSAII (Michael W. Deem and Ramdas Pophale) SiO2 
 PCOD9523120
Probable space group: I M M M
;
_chemical_formula_sum "Si O2"
_cell_formula_units_Z 100
_cell_length_a 29.244935
_cell_length_b 7.575893
_cell_length_c 20.130252
_cell_angle_alpha 90.000000
_cell_angle_beta 90.000000
_cell_angle_gamma 90.000000
_cell_volume 4459.988144
_symmetry_space_group_name_H-M "I M M M"
_symmetry_group_IT_number 71
_symmetry_cell_setting 'orthorhombic'
loop_
_space_group_symop_operation_xyz
x,y,z
-x,-y,z
x,-y,-z
-x,y,-z
-x,-y,-z
x,y,-z
-x,y,z
x,-y,z
1/2+x,1/2+y,1/2+z
1/2-x,1/2-y,1/2+z
1/2+x,1/2-y,1/2-z
1/2-x,1/2+y,1/2-z
1/2-x,1/2-y,1/2-z
1/2+x,1/2+y,1/2-z
1/2-x,1/2+y,1/2+z
1/2+x,1/2-y,1/2+z
loop_
_atom_site_type_symbol
_atom_site_label
_atom_site_fract_x
_atom_site_fract_y
_atom_site_fract_z
Si Si1 0.947199 0.212200 0.574590
Si Si2 0.898311 0.710321 0.287283
Si Si3 0.838209 0.290820 0.074978
Si Si4 0.703662 0.213351 0.209369
Si Si5 0.500000 0.500000 0.604767
Si Si6 0.235873 0.703200 0.427274
Si Si7 0.069654 0.288525 0.849472
O O1 0.932616 0.272819 0.500000
O O2 0.916189 0.257411 0.638175
O O3 0.000000 0.272470 0.584937
O O4 0.948230 0.000000 0.572226
O O5 0.896183 0.500000 0.279289
O O6 0.846993 0.777795 0.271892
O O7 0.932386 0.767031 0.228245
O O8 0.828657 0.500000 0.075694
O O9 0.789845 0.202426 0.088534
O O10 0.878566 0.261357 0.125896
O O11 0.852664 0.242033 0.000000
O O12 0.750000 0.250000 0.250000
O O13 0.711122 0.284762 0.135016
O O14 0.701214 0.000000 0.208389
O O15 0.538939 0.343021 0.608858
O O16 0.229813 0.784487 0.500000
O O17 0.220693 0.500000 0.431277
O O18 0.059230 0.500000 0.856809
#
# Coordination Sequence:
#
# PCOD9523120 Si02
#       7
#    16  16  16  16   4  16  16
#     4   9  20  38  59  84 114 148 192 246 295 346
#     4  10  22  37  57  83 116 156 192 243 300 350
#     4   9  18  36  61  84 115 156 191 236 294 348
#     4  10  21  37  55  81 115 151 189 236 296 348
#     4  12  26  40  65  88 113 166 196 244 320 352
#     4   9  18  32  54  83 113 147 192 240 282 342
#     4  10  23  41  59  89 122 150 202 253 294 360
#
# _framework density 22.421582999999998
#
# number of rings (size 3 to 8) (size 9 to 14) (size 15 to 20)
#    0.000    2.400    0.000    1.680    3.360    3.840 
#    0.000    3.200    0.000    3.840    0.000    0.000 
#    0.000    0.000    0.000    0.000    0.000    0.000 
#
# Total GULP energy -278337.077733 kJ/mol
# GULP energy per Si atom -5566.741555 kJ/mol
# Density = 2.237055 g / cm^3
# Si number density = 22.421583 Si / 1000 Ang^3
#
#
#
# Elastic Constant Matrix: (Units=GPa)
#
#
# Indices 1 2 3 4 5 6 
#
# 1 40.9306 7.7818 13.0163 0.0000 0.0000 0.0000
# 2 7.7818 63.8450 4.4175 0.0000 0.0000 0.0000
# 3 13.0163 4.4175 45.2046 0.0000 0.0000 0.0000
# 4 0.0000 0.0000 0.0000 14.0400 0.0000 0.0000
# 5 0.0000 0.0000 0.0000 0.0000 1563.9016 0.0000
# 6 0.0000 0.0000 0.0000 0.0000 0.0000 29.0280
#
#
#
# Elastic Compliance Matrix: (Units=1/GPa)
#
#
# Indices 1 2 3 4 5 6 
#
# 1 0.027386 -0.002811 -0.007611 0.000000 0.000000 0.000000
# 2 -0.002811 0.016058 -0.000760 0.000000 0.000000 0.000000
# 3 -0.007611 -0.000760 0.024387 0.000000 0.000000 0.000000
# 4 0.000000 0.000000 0.000000 0.071225 0.000000 0.000000
# 5 0.000000 0.000000 0.000000 0.000000 0.000639 0.000000
# 6 0.000000 0.000000 0.000000 0.000000 0.000000 0.034449
#
#
# Mechanical properties :
#
#
# Convention : Reuss Voigt Hill
#
# Bulk Modulus (GPa) = 21.99358 22.26794 22.13076
# Shear Modulus (GPa) = 23.62212 329.71157 176.66684
#
# Velocity S-wave (km/s) = 3.24936 12.13961 8.88618
# Velocity P-wave (km/s) = 4.88960 14.36825 10.73207
#
# Compressibility (1/GPa) = 0.04546782
#
# Stress axis : x y z
#
# Youngs Moduli (GPa) = 36.51443 62.27357 41.00481
#
# Poissons Ratio (x) = 0.17508 0.31209
# Poissons Ratio (y) = 0.10266 0.03115
# Poissons Ratio (z) = 0.27791 0.04731
#
# Static dielectric constant tensor:
#      x y z
#    x 1.805530 0.000000 0.000000 
#    y 0.000000 1.745920 0.000000 
#    z 0.000000 0.000000 1.893730 
# 
# From -- ./inp_files/56714.got.cif
#   From: 2010.05.17/outbox.cif.g08.bks.cpg/sg71_29_cif.got.tgz:56714.got - 2010.06.03 16:22:01.
