data_PCOD9523223
_publ_section_title
;
Structure prediction by ZEFSAII (Michael W. Deem and Ramdas Pophale) SiO2 
 PCOD9523223
Probable space group: I M M M
;
_chemical_formula_sum "Si O2"
_cell_formula_units_Z 80
_cell_length_a 15.259769
_cell_length_b 9.257002
_cell_length_c 27.822905
_cell_angle_alpha 90.000000
_cell_angle_beta 90.000000
_cell_angle_gamma 90.000000
_cell_volume 3930.255552
_symmetry_space_group_name_H-M "I M M M"
_symmetry_group_IT_number 71
_symmetry_cell_setting 'orthorhombic'
loop_
_space_group_symop_operation_xyz
x,y,z
-x,-y,z
x,-y,-z
-x,y,-z
-x,-y,-z
x,y,-z
-x,y,z
x,-y,z
1/2+x,1/2+y,1/2+z
1/2-x,1/2-y,1/2+z
1/2+x,1/2-y,1/2-z
1/2-x,1/2+y,1/2-z
1/2-x,1/2-y,1/2-z
1/2+x,1/2+y,1/2-z
1/2-x,1/2+y,1/2+z
1/2+x,1/2-y,1/2+z
loop_
_atom_site_type_symbol
_atom_site_label
_atom_site_fract_x
_atom_site_fract_y
_atom_site_fract_z
Si Si1 0.640814 0.334102 0.790902
Si Si2 0.105188 0.667935 0.000000
Si Si3 0.000000 0.839676 0.443484
Si Si4 0.342719 0.668678 0.401930
Si Si5 0.866261 0.665713 0.385950
Si Si6 0.853762 0.333017 0.195244
O O1 0.612127 0.500000 0.792400
O O2 0.609842 0.240783 0.835814
O O3 0.747380 0.334892 0.797475
O O4 0.615358 0.258462 0.741086
O O5 0.134741 0.751042 0.951628
O O6 0.135927 0.500000 0.000000
O O7 0.000000 0.666372 0.000000
O O8 0.915498 0.753687 0.426482
O O9 0.000000 0.849821 0.500000
O O10 0.000000 0.000000 0.421980
O O11 0.370995 0.500000 0.402608
O O12 0.237615 0.670097 0.394883
O O13 0.376656 0.754732 0.354906
O O14 0.893423 0.500000 0.385520
O O15 0.882603 0.500000 0.195563
#
# Coordination Sequence:
#
# PCOD9523223 Si02
#       6
#    16   8   8  16  16  16
#     4   9  16  28  50  80 115 151 189 234 282 335
#     4  11  25  43  63  86 115 150 187 233 292 351
#     4  11  25  41  57  81 115 157 201 246 293 340
#     4  10  21  37  60  89 117 150 193 238 287 346
#     4  10  21  37  58  85 117 154 196 240 288 342
#     4   9  16  28  50  82 116 150 188 232 281 336
#
# _framework density 20.35491
#
# number of rings (size 3 to 8) (size 9 to 14) (size 15 to 20)
#    0.000    2.200    0.000    3.000    1.400    8.800 
#    0.000    0.000    2.200    0.000    0.000    0.000 
#    0.000    0.000    0.000    0.000    0.000    0.000 
#
# Total GULP energy -223446.508140 kJ/mol
# GULP energy per Si atom -5586.162704 kJ/mol
# Density = 2.030858 g / cm^3
# Si number density = 20.354910 Si / 1000 Ang^3
#
#
#
# Elastic Constant Matrix: (Units=GPa)
#
#
# Indices 1 2 3 4 5 6 
#
# 1 31.8712 21.8620 12.5680 0.0000 0.0000 0.0000
# 2 21.8620 229.8407 112.5698 0.0000 0.0000 0.0000
# 3 12.5680 112.5698 190.4112 0.0000 0.0000 0.0000
# 4 0.0000 0.0000 0.0000 39.8508 0.0000 0.0000
# 5 0.0000 0.0000 0.0000 0.0000 -27.8361 0.0000
# 6 0.0000 0.0000 0.0000 0.0000 0.0000 137.7553
#
#
#
# Elastic Compliance Matrix: (Units=1/GPa)
#
#
# Indices 1 2 3 4 5 6 
#
# 1 0.033595 -0.002969 -0.000462 0.000000 0.000000 0.000000
# 2 -0.002969 0.006386 -0.003580 0.000000 0.000000 0.000000
# 3 -0.000462 -0.003580 0.007399 0.000000 0.000000 0.000000
# 4 0.000000 0.000000 0.000000 0.025094 0.000000 0.000000
# 5 0.000000 0.000000 0.000000 0.000000 -0.035925 0.000000
# 6 0.000000 0.000000 0.000000 0.000000 0.000000 0.007259
#
#
# Mechanical properties :
#
#
# Convention : Reuss Voigt Hill
#
# Bulk Modulus (GPa) = 29.97748 82.90252 56.44000
# Shear Modulus (GPa) = 72.51655 50.29556 61.40606
#
# Velocity S-wave (km/s) = 5.97523 4.97624 5.49847
# Velocity P-wave (km/s) = 7.89708 8.59268 8.25222
#
# Compressibility (1/GPa) = 0.03335838
#
# Stress axis : x y z
#
# Youngs Moduli (GPa) = 29.76617 156.58054 135.16131
#
# Poissons Ratio (x) = 0.46492 0.06245
# Poissons Ratio (y) = 0.08838 0.48383
# Poissons Ratio (z) = 0.01375 0.56051
#
# Static dielectric constant tensor:
#      x y z
#    x 2.279540 0.000000 0.000000 
#    y 0.000000 1.695790 0.000000 
#    z 0.000000 0.000000 1.676490 
# 
# From -- ./inp_files/65831.got.cif
#   From: 2010.05.17/outbox.cif.g08.bks.cpg/sg71_33_cif.got.tgz:65831.got - 2010.06.03 16:22:01.
