data_PCOD9523666
_publ_section_title
;
Structure prediction by ZEFSAII (Michael W. Deem and Ramdas Pophale) SiO2 
 PCOD9523666
Probable space group: I M M M
;
_chemical_formula_sum "Si O2"
_cell_formula_units_Z 96
_cell_length_a 21.350019
_cell_length_b 8.072315
_cell_length_c 27.336616
_cell_angle_alpha 90.000000
_cell_angle_beta 90.000000
_cell_angle_gamma 90.000000
_cell_volume 4711.303897
_symmetry_space_group_name_H-M "I M M M"
_symmetry_group_IT_number 71
_symmetry_cell_setting 'orthorhombic'
loop_
_space_group_symop_operation_xyz
x,y,z
-x,-y,z
x,-y,-z
-x,y,-z
-x,-y,-z
x,y,-z
-x,y,z
x,-y,z
1/2+x,1/2+y,1/2+z
1/2-x,1/2-y,1/2+z
1/2+x,1/2-y,1/2-z
1/2-x,1/2+y,1/2-z
1/2-x,1/2-y,1/2-z
1/2+x,1/2+y,1/2-z
1/2-x,1/2+y,1/2+z
1/2+x,1/2-y,1/2+z
loop_
_atom_site_type_symbol
_atom_site_label
_atom_site_fract_x
_atom_site_fract_y
_atom_site_fract_z
Si Si1 0.890776 0.694336 0.284356
Si Si2 0.308266 0.799670 0.056381
Si Si3 0.932641 0.802047 0.616452
Si Si4 0.186996 0.814767 0.889029
Si Si5 0.070622 0.698747 0.826574
Si Si6 0.738864 0.685569 0.803593
O O1 0.872326 0.500000 0.280392
O O2 0.935553 0.714173 0.330500
O O3 0.910550 0.748514 0.229483
O O4 0.834939 0.806244 0.305008
O O5 0.369331 0.747525 0.087431
O O6 0.239423 0.735699 0.074729
O O7 0.304615 0.000000 0.060249
O O8 0.317089 0.752918 0.000000
O O9 0.000000 0.762916 0.591208
O O10 0.930648 0.000000 0.623078
O O11 0.121469 0.743534 0.868250
O O12 0.228720 0.810324 0.840076
O O13 0.173624 0.000000 0.906595
O O14 0.068274 0.500000 0.824880
O O15 0.000000 0.760786 0.836611
O O16 0.763076 0.500000 0.812407
O O17 0.750000 0.750000 0.750000
#
# Coordination Sequence:
#
# PCOD9523666 Si02
#       6
#    16  16  16  16  16  16
#     4  11  21  35  56  83 117 160 201 237 277 330
#     4  10  23  43  65  87 111 144 193 249 302 359
#     4  11  24  39  57  85 121 159 198 242 289 343
#     4  11  22  37  60  86 113 150 193 241 297 352
#     4  10  22  38  57  84 120 160 197 236 285 343
#     4  12  22  33  53  83 117 154 195 237 282 336
#
# _framework density 20.376524
#
# number of rings (size 3 to 8) (size 9 to 14) (size 15 to 20)
#    0.000    1.167    3.333    3.500    0.000    4.333 
#    0.000    1.667    0.000    0.500    0.000    3.500 
#    0.000    0.000    0.000    0.000    0.000    0.000 
#
# Total GULP energy -267286.870841 kJ/mol
# GULP energy per Si atom -5568.476476 kJ/mol
# Density = 2.033015 g / cm^3
# Si number density = 20.376524 Si / 1000 Ang^3
#
#
#
# Elastic Constant Matrix: (Units=GPa)
#
#
# Indices 1 2 3 4 5 6 
#
# 1 163.0272 12.1194 48.5395 0.0000 0.0000 0.0000
# 2 12.1194 48.3757 4.1104 0.0000 0.0000 0.0000
# 3 48.5395 4.1104 88.2482 0.0000 0.0000 0.0000
# 4 0.0000 0.0000 0.0000 15.8441 0.0000 0.0000
# 5 0.0000 0.0000 0.0000 0.0000 18.5376 0.0000
# 6 0.0000 0.0000 0.0000 0.0000 0.0000 12.0275
#
#
#
# Elastic Compliance Matrix: (Units=1/GPa)
#
#
# Indices 1 2 3 4 5 6 
#
# 1 0.007445 -0.001523 -0.004024 0.000000 0.000000 0.000000
# 2 -0.001523 0.021065 -0.000143 0.000000 0.000000 0.000000
# 3 -0.004024 -0.000143 0.013552 0.000000 0.000000 0.000000
# 4 0.000000 0.000000 0.000000 0.063115 0.000000 0.000000
# 5 0.000000 0.000000 0.000000 0.000000 0.053944 0.000000
# 6 0.000000 0.000000 0.000000 0.000000 0.000000 0.083143
#
#
# Mechanical properties :
#
#
# Convention : Reuss Voigt Hill
#
# Bulk Modulus (GPa) = 32.59368 47.68775 40.14072
# Shear Modulus (GPa) = 18.94847 24.94062 21.94454
#
# Velocity S-wave (km/s) = 3.05276 3.50235 3.28526
# Velocity P-wave (km/s) = 5.33444 6.30947 5.84233
#
# Compressibility (1/GPa) = 0.03068080
#
# Stress axis : x y z
#
# Youngs Moduli (GPa) = 134.31174 47.47132 73.79079
#
# Poissons Ratio (x) = 0.07231 0.29695
# Poissons Ratio (y) = 0.20460 0.01057
# Poissons Ratio (z) = 0.54050 0.00680
#
# Static dielectric constant tensor:
#      x y z
#    x 1.884510 0.000000 0.000000 
#    y 0.000000 1.724770 0.000000 
#    z 0.000000 0.000000 1.663890 
# 
# From -- ./inp_files/10908.got.cif
#   From: 2010.05.17/outbox.cif.g08.bks.cpg/sg71_6_cif.got.tgz:10908.got - 2010.06.03 16:22:01.
