data_PCOD9523988
_publ_section_title
;
Structure prediction by ZEFSAII (Michael W. Deem and Ramdas Pophale) SiO2 
 PCOD9523988
Probable space group: I M M M
;
_chemical_formula_sum "Si O2"
_cell_formula_units_Z 72
_cell_length_a 13.709790
_cell_length_b 20.730714
_cell_length_c 13.954531
_cell_angle_alpha 90.000000
_cell_angle_beta 90.000000
_cell_angle_gamma 90.000000
_cell_volume 3966.069383
_symmetry_space_group_name_H-M "I M M M"
_symmetry_group_IT_number 71
_symmetry_cell_setting 'orthorhombic'
loop_
_space_group_symop_operation_xyz
x,y,z
-x,-y,z
x,-y,-z
-x,y,-z
-x,-y,-z
x,y,-z
-x,y,z
x,-y,z
1/2+x,1/2+y,1/2+z
1/2-x,1/2-y,1/2+z
1/2+x,1/2-y,1/2-z
1/2-x,1/2+y,1/2-z
1/2-x,1/2-y,1/2-z
1/2+x,1/2+y,1/2-z
1/2-x,1/2+y,1/2+z
1/2+x,1/2-y,1/2+z
loop_
_atom_site_type_symbol
_atom_site_label
_atom_site_fract_x
_atom_site_fract_y
_atom_site_fract_z
Si Si1 0.693252 0.152357 0.105926
Si Si2 0.890211 0.773922 0.109384
Si Si3 0.805402 0.645631 0.186998
Si Si4 0.111504 0.797620 0.611128
Si Si5 0.113242 0.423007 0.000000
O O1 0.807498 0.171940 0.111580
O O2 0.672241 0.118390 0.207215
O O3 0.638520 0.221691 0.109313
O O4 0.673480 0.123735 0.000000
O O5 0.861026 0.714323 0.175970
O O6 0.000000 0.796102 0.127145
O O7 0.885742 0.747804 0.000000
O O8 0.691976 0.664735 0.172197
O O9 0.838078 0.603286 0.097143
O O10 0.120844 0.818978 0.500000
O O11 0.000000 0.806514 0.641654
O O12 0.117743 0.500000 0.000000
O O13 0.000000 0.402427 0.000000
#
# Coordination Sequence:
#
# PCOD9523988 Si02
#       5
#    16  16  16  16   8
#     4   9  19  29  41  70 105 134 163 189 223 287
#     4   9  15  25  44  71 102 133 164 196 231 276
#     4  11  18  31  50  67  95 129 164 202 243 286
#     4   9  16  27  44  70 104 136 162 189 229 287
#     4  11  24  40  57  75  89 111 160 218 262 289
#
# _framework density 18.153994000000001
#
# number of rings (size 3 to 8) (size 9 to 14) (size 15 to 20)
#    0.000    2.333    2.222    4.667    0.000    4.444 
#    0.000    0.000    0.000    2.000    0.000    1.556 
#    0.000    0.000    0.000    7.556    0.000    0.000 
#
# Total GULP energy -200624.008903 kJ/mol
# GULP energy per Si atom -5572.889136 kJ/mol
# Density = 1.811268 g / cm^3
# Si number density = 18.153994 Si / 1000 Ang^3
#
#
#
# Elastic Constant Matrix: (Units=GPa)
#
#
# Indices 1 2 3 4 5 6 
#
# 1 87.1892 8.6645 25.5197 0.0000 0.0000 0.0000
# 2 8.6645 15.1077 15.0503 0.0001 0.0000 0.0000
# 3 25.5197 15.0503 192.5316 0.0001 0.0000 0.0000
# 4 0.0000 0.0001 0.0001 6.7393 0.0000 0.0000
# 5 0.0000 0.0000 0.0000 0.0000 5.2232 0.0000
# 6 0.0000 0.0000 0.0000 0.0000 0.0000 7.1339
#
#
#
# Elastic Compliance Matrix: (Units=1/GPa)
#
#
# Indices 1 2 3 4 5 6 
#
# 1 0.012405 -0.005939 -0.001180 0.000000 0.000000 0.000000
# 2 -0.005939 0.074624 -0.005046 -0.000001 0.000000 0.000000
# 3 -0.001180 -0.005046 0.005745 0.000000 0.000000 0.000000
# 4 0.000000 -0.000001 0.000000 0.148384 0.000001 0.000000
# 5 0.000000 0.000000 0.000000 0.000001 0.191455 0.000000
# 6 0.000000 0.000000 0.000000 0.000000 0.000000 0.140176
#
#
# Mechanical properties :
#
#
# Convention : Reuss Voigt Hill
#
# Bulk Modulus (GPa) = 14.61050 43.69972 29.15511
# Shear Modulus (GPa) = 8.06537 20.19219 14.12878
#
# Velocity S-wave (km/s) = 2.11007 3.33869 2.79278
# Velocity P-wave (km/s) = 3.74194 6.24391 5.14726
#
# Compressibility (1/GPa) = 0.06844392
#
# Stress axis : x y z
#
# Youngs Moduli (GPa) = 80.61343 13.40043 174.06972
#
# Poissons Ratio (x) = 0.07958 0.20540
# Poissons Ratio (y) = 0.47876 0.87840
# Poissons Ratio (z) = 0.09512 0.06762
#
# Static dielectric constant tensor:
#      x y z
#    x 1.645470 0.000000 0.000000 
#    y 0.000000 1.560370 0.000000 
#    z 0.000000 0.000000 1.741300 
# 
# From -- ./inp_files/34097.got.cif
#   From: 2010.05.17/outbox.cif.g08.bks.cpg/sg71_18_cif.got.tgz:34097.got - 2010.06.03 16:22:01.
