data_PCOD9523005
_publ_section_title
;
Structure prediction by ZEFSAII (Michael W. Deem and Ramdas Pophale) SiO2 
 PCOD9523005
Probable space group: I M M M
;
_chemical_formula_sum "Si O2"
_cell_formula_units_Z 120
_cell_length_a 7.726596
_cell_length_b 26.284835
_cell_length_c 27.872776
_cell_angle_alpha 90.000000
_cell_angle_beta 90.000000
_cell_angle_gamma 90.000000
_cell_volume 5660.746212
_symmetry_space_group_name_H-M "I M M M"
_symmetry_group_IT_number 71
_symmetry_cell_setting 'orthorhombic'
loop_
_space_group_symop_operation_xyz
x,y,z
-x,-y,z
x,-y,-z
-x,y,-z
-x,-y,-z
x,y,-z
-x,y,z
x,-y,z
1/2+x,1/2+y,1/2+z
1/2-x,1/2-y,1/2+z
1/2+x,1/2-y,1/2-z
1/2-x,1/2+y,1/2-z
1/2-x,1/2-y,1/2-z
1/2+x,1/2+y,1/2-z
1/2-x,1/2+y,1/2+z
1/2+x,1/2-y,1/2+z
loop_
_atom_site_type_symbol
_atom_site_label
_atom_site_fract_x
_atom_site_fract_y
_atom_site_fract_z
Si Si1 0.709044 0.582922 0.947281
Si Si2 0.789926 0.202785 0.447742
Si Si3 0.293613 0.058140 0.105166
Si Si4 0.706636 0.558428 0.500000
Si Si5 0.712928 0.255065 0.846116
Si Si6 0.699231 0.349584 0.783650
Si Si7 0.201227 0.445059 0.843030
Si Si8 0.797834 0.642468 0.677413
O O1 0.500000 0.578314 0.944969
O O2 0.752340 0.642955 0.944418
O O3 0.784323 0.557326 0.900445
O O4 0.763803 0.564451 0.000000
O O5 0.729649 0.221701 0.500000
O O6 0.730572 0.230649 0.399904
O O7 0.000000 0.205630 0.447898
O O8 0.500000 0.053942 0.111936
O O9 0.223378 0.096846 0.145194
O O10 0.223026 0.000000 0.107717
O O11 0.264310 0.079611 0.051361
O O12 0.773593 0.500000 0.500000
O O13 0.500000 0.557726 0.500000
O O14 0.500000 0.256647 0.845230
O O15 0.771362 0.298819 0.809032
O O16 0.773343 0.198813 0.832728
O O17 0.500000 0.339315 0.771825
O O18 0.708568 0.395983 0.820946
O O19 0.786054 0.365829 0.734158
O O20 0.270515 0.500000 0.826718
O O21 0.000000 0.441927 0.829474
O O22 0.000000 0.645383 0.664028
#
# Coordination Sequence:
#
# PCOD9523005 Si02
#       8
#    16  16  16   8  16  16  16  16
#     4   9  17  32  56  82 108 142 183 227 275 327
#     4   8  13  25  49  79 108 138 173 219 271 319
#     4   9  18  34  55  79 111 148 181 217 264 322
#     4   9  17  31  55  83 109 143 183 219 260 315
#     4   9  17  32  54  81 110 141 181 229 276 327
#     4  11  22  38  59  79 105 143 186 233 282 331
#     4  11  24  39  55  78 109 145 184 229 281 334
#     4  10  21  36  55  83 113 143 185 230 276 326
#
# _framework density 21.198619000000001
#
# number of rings (size 3 to 8) (size 9 to 14) (size 15 to 20)
#    0.000    2.467    1.333    2.200    0.000    3.467 
#    1.200    3.333    0.000    0.000    0.000    0.000 
#    0.000    0.000    0.000    0.000    0.000    0.000 
#
# Total GULP energy -334784.050604 kJ/mol
# GULP energy per Si atom -5579.734177 kJ/mol
# Density = 2.115037 g / cm^3
# Si number density = 21.198619 Si / 1000 Ang^3
#
#
#
# Elastic Constant Matrix: (Units=GPa)
#
#
# Indices 1 2 3 4 5 6 
#
# 1 31.6752 7.4411 -5.5435 0.0000 0.0000 0.0000
# 2 7.4411 111.8861 70.5547 0.0000 0.0000 0.0000
# 3 -5.5435 70.5547 143.8168 0.0000 0.0000 0.0000
# 4 0.0000 0.0000 0.0000 -5.8381 0.0000 0.0000
# 5 0.0000 0.0000 0.0000 0.0000 19.7948 0.0000
# 6 0.0000 0.0000 0.0000 0.0000 0.0000 24.7306
#
#
#
# Elastic Compliance Matrix: (Units=1/GPa)
#
#
# Indices 1 2 3 4 5 6 
#
# 1 0.033194 -0.004365 0.003421 0.000000 0.000000 0.000000
# 2 -0.004365 0.013515 -0.006799 0.000000 0.000000 0.000000
# 3 0.003421 -0.006799 0.010420 0.000000 0.000000 0.000000
# 4 0.000000 0.000000 0.000000 -0.171289 0.000000 0.000000
# 5 0.000000 0.000000 0.000000 0.000000 0.050518 0.000000
# 6 0.000000 0.000000 0.000000 0.000000 0.000000 0.040436
#
#
# Mechanical properties :
#
#
# Convention : Reuss Voigt Hill
#
# Bulk Modulus (GPa) = 24.01252 48.03142 36.02197
# Shear Modulus (GPa) = 811.45907 22.06585 416.76246
#
# Velocity S-wave (km/s) = 19.58621 3.22981 14.03658
# Velocity P-wave (km/s) = 22.86580 6.05111 16.72514
#
# Compressibility (1/GPa) = 0.04164493
#
# Stress axis : x y z
#
# Youngs Moduli (GPa) = 30.12549 73.99142 95.96521
#
# Poissons Ratio (x) = 0.32296 -0.32828
# Poissons Ratio (y) = 0.13149 0.65243
# Poissons Ratio (z) = -0.10305 0.50304
#
# Static dielectric constant tensor:
#      x y z
#    x 1.796940 0.000000 0.000000 
#    y 0.000000 1.768600 0.000000 
#    z 0.000000 0.000000 1.757330 
# 
# From -- ./inp_files/63754.got.cif
#   From: 2010.05.17/outbox.cif.g08.bks.cpg/sg71_32_cif.got.tgz:63754.got - 2010.06.03 16:22:01.
