data_PCOD9523286
_publ_section_title
;
Structure prediction by ZEFSAII (Michael W. Deem and Ramdas Pophale) SiO2 
 PCOD9523286
Probable space group: I M M M
;
_chemical_formula_sum "Si O2"
_cell_formula_units_Z 100
_cell_length_a 7.663563
_cell_length_b 29.745029
_cell_length_c 22.401906
_cell_angle_alpha 90.000000
_cell_angle_beta 90.000000
_cell_angle_gamma 90.000000
_cell_volume 5106.579521
_symmetry_space_group_name_H-M "I M M M"
_symmetry_group_IT_number 71
_symmetry_cell_setting 'orthorhombic'
loop_
_space_group_symop_operation_xyz
x,y,z
-x,-y,z
x,-y,-z
-x,y,-z
-x,-y,-z
x,y,-z
-x,y,z
x,-y,z
1/2+x,1/2+y,1/2+z
1/2-x,1/2-y,1/2+z
1/2+x,1/2-y,1/2-z
1/2-x,1/2+y,1/2-z
1/2-x,1/2-y,1/2-z
1/2+x,1/2+y,1/2-z
1/2-x,1/2+y,1/2+z
1/2+x,1/2-y,1/2+z
loop_
_atom_site_type_symbol
_atom_site_label
_atom_site_fract_x
_atom_site_fract_y
_atom_site_fract_z
Si Si1 0.290117 0.097312 0.711542
Si Si2 0.206593 0.839554 0.394474
Si Si3 0.796184 0.000000 0.238318
Si Si4 0.298401 0.154399 0.823690
Si Si5 0.298120 0.402287 0.565489
Si Si6 0.208345 0.751709 0.320104
Si Si7 0.000000 0.654591 0.000000
Si Si8 0.300123 0.000000 0.101720
O O1 0.500000 0.100251 0.709718
O O2 0.218290 0.118095 0.650642
O O3 0.245848 0.045635 0.726107
O O4 0.221999 0.128397 0.766590
O O5 0.267497 0.795749 0.355570
O O6 0.343917 0.844995 0.447817
O O7 0.000000 0.834201 0.411863
O O8 0.704042 0.000000 0.173833
O O9 0.000000 0.000000 0.224231
O O10 0.500000 0.162724 0.807535
O O11 0.293193 0.122182 0.880170
O O12 0.223289 0.202989 0.841089
O O13 0.225747 0.391978 0.500000
O O14 0.500000 0.388578 0.567009
O O15 0.287172 0.455225 0.577358
O O16 0.250000 0.750000 0.250000
O O17 0.000000 0.753645 0.327036
O O18 0.500000 0.000000 0.081874
#
# Coordination Sequence:
#
# PCOD9523286 Si02
#       8
#    16  16   8  16  16  16   4   8
#     4  11  21  39  66  99 132 170 215 275 337 396
#     4  11  24  44  71 103 136 180 230 273 334 401
#     4  12  24  37  61  96 135 166 206 272 343 398
#     4  10  21  37  60  88 126 168 216 270 327 382
#     4  11  24  40  55  80 116 164 215 267 321 387
#     4  10  21  37  63  96 130 168 215 274 326 387
#     4  12  26  48  72  99 142 188 222 283 324 406
#     4  12  23  37  58  83 112 163 217 267 326 392
#
# _framework density 19.582578999999999
#
# number of rings (size 3 to 8) (size 9 to 14) (size 15 to 20)
#    0.000    1.120    4.000    2.880    1.120    3.520 
#    1.440    0.000    0.000    0.960    0.000    1.680 
#    0.000    0.000    0.000    0.000    0.000    0.000 
#
# Total GULP energy -278604.067739 kJ/mol
# GULP energy per Si atom -5572.081355 kJ/mol
# Density = 1.953801 g / cm^3
# Si number density = 19.582579 Si / 1000 Ang^3
#
#
#
# Elastic Constant Matrix: (Units=GPa)
#
#
# Indices 1 2 3 4 5 6 
#
# 1 91.5599 4.8940 24.1413 0.0000 0.0000 0.0000
# 2 4.8940 74.6730 34.4719 0.0000 0.0000 0.0000
# 3 24.1413 34.4719 137.1683 0.0000 0.0000 0.0000
# 4 0.0000 0.0000 0.0000 -26.4607 0.0000 0.0000
# 5 0.0000 0.0000 0.0000 0.0000 33.9867 0.0000
# 6 0.0000 0.0000 0.0000 0.0000 0.0000 8.1675
#
#
#
# Elastic Compliance Matrix: (Units=1/GPa)
#
#
# Indices 1 2 3 4 5 6 
#
# 1 0.011456 0.000204 -0.002067 0.000000 0.000000 0.000000
# 2 0.000204 0.015153 -0.003844 0.000000 0.000000 0.000000
# 3 -0.002067 -0.003844 0.008620 0.000000 0.000000 0.000000
# 4 0.000000 0.000000 0.000000 -0.037792 0.000000 0.000000
# 5 0.000000 0.000000 0.000000 0.000000 0.029423 0.000000
# 6 0.000000 0.000000 0.000000 0.000000 0.000000 0.122437
#
#
# Mechanical properties :
#
#
# Convention : Reuss Voigt Hill
#
# Bulk Modulus (GPa) = 41.99278 47.82397 44.90837
# Shear Modulus (GPa) = 29.64702 19.13161 24.38931
#
# Velocity S-wave (km/s) = 3.89517 3.12904 3.53294
# Velocity P-wave (km/s) = 6.45913 6.12611 6.29482
#
# Compressibility (1/GPa) = 0.02381362
#
# Stress axis : x y z
#
# Youngs Moduli (GPa) = 87.29028 65.99404 116.00679
#
# Poissons Ratio (x) = -0.01343 0.23983
# Poissons Ratio (y) = -0.01777 0.44592
# Poissons Ratio (z) = 0.18046 0.25368
#
# Static dielectric constant tensor:
#      x y z
#    x 1.719620 0.000000 0.000000 
#    y 0.000000 1.705500 0.000000 
#    z 0.000000 0.000000 1.655700 
# 
# From -- ./inp_files/50965.got.cif
#   From: 2010.05.17/outbox.cif.g08.bks.cpg/sg71_26_cif.got.tgz:50965.got - 2010.06.03 16:22:01.
