data_PCOD9523232
_publ_section_title
;
Structure prediction by ZEFSAII (Michael W. Deem and Ramdas Pophale) SiO2 
 PCOD9523232
Probable space group: I M M M
;
_chemical_formula_sum "Si O2"
_cell_formula_units_Z 104
_cell_length_a 25.540130
_cell_length_b 7.829177
_cell_length_c 22.419997
_cell_angle_alpha 90.000000
_cell_angle_beta 90.000000
_cell_angle_gamma 90.000000
_cell_volume 4483.062208
_symmetry_space_group_name_H-M "I M M M"
_symmetry_group_IT_number 71
_symmetry_cell_setting 'orthorhombic'
loop_
_space_group_symop_operation_xyz
x,y,z
-x,-y,z
x,-y,-z
-x,y,-z
-x,-y,-z
x,y,-z
-x,y,z
x,-y,z
1/2+x,1/2+y,1/2+z
1/2-x,1/2-y,1/2+z
1/2+x,1/2-y,1/2-z
1/2-x,1/2+y,1/2-z
1/2-x,1/2-y,1/2-z
1/2+x,1/2+y,1/2-z
1/2-x,1/2+y,1/2+z
1/2+x,1/2-y,1/2+z
loop_
_atom_site_type_symbol
_atom_site_label
_atom_site_fract_x
_atom_site_fract_y
_atom_site_fract_z
Si Si1 0.941424 0.707222 0.111286
Si Si2 0.939895 0.203337 0.500000
Si Si3 0.915471 0.304568 0.758956
Si Si4 0.223528 0.796438 0.375478
Si Si5 0.394679 0.203370 0.868277
Si Si6 0.872738 0.290057 0.000000
Si Si7 0.802021 0.195675 0.785701
Si Si8 0.746861 0.208107 0.500000
O O1 0.934883 0.500000 0.115488
O O2 0.935998 0.774856 0.179094
O O3 0.901250 0.766792 0.060806
O O4 0.000000 0.741034 0.089778
O O5 0.912897 0.246439 0.564565
O O6 0.000000 0.271887 0.500000
O O7 0.942101 0.000000 0.500000
O O8 0.934771 0.500000 0.756876
O O9 0.924296 0.230754 0.692189
O O10 0.852870 0.304091 0.772063
O O11 0.165709 0.751344 0.353843
O O12 0.277147 0.717472 0.350616
O O13 0.221996 0.737621 0.442921
O O14 0.229814 0.000000 0.369440
O O15 0.398799 0.000000 0.866361
O O16 0.874318 0.500000 0.000000
O O17 0.812756 0.235912 0.000000
O O18 0.750000 0.250000 0.750000
O O19 0.814898 0.000000 0.772915
O O20 0.745849 0.000000 0.500000
#
# Coordination Sequence:
#
# PCOD9523232 Si02
#       8
#    16   8  16  16  16   8  16   8
#     4   9  17  30  52  83 116 151 193 243 296 348
#     4  11  26  47  68  88 114 153 202 257 318 378
#     4  10  21  37  58  87 123 158 197 247 304 362
#     4  11  21  36  59  87 122 160 198 243 296 360
#     4  11  23  39  62  89 118 154 199 249 305 370
#     4   9  15  27  48  77 116 155 194 237 282 338
#     4  12  23  36  56  83 117 158 200 240 290 351
#     4   9  19  32  51  81 114 153 192 233 290 346
#
# _framework density 23.198428
#
# number of rings (size 3 to 8) (size 9 to 14) (size 15 to 20)
#    0.000    1.615    1.538    4.154    0.000    5.846 
#    0.000    2.692    0.000    0.462    0.000    0.000 
#    0.000    2.462    0.000    0.000    0.000    0.000 
#
# Total GULP energy -289961.484183 kJ/mol
# GULP energy per Si atom -5576.182388 kJ/mol
# Density = 2.314563 g / cm^3
# Si number density = 23.198428 Si / 1000 Ang^3
#
#
#
# Elastic Constant Matrix: (Units=GPa)
#
#
# Indices 1 2 3 4 5 6 
#
# 1 74.2031 -2.2771 12.7090 0.0000 0.0000 0.0000
# 2 -2.2771 58.2214 2.3931 0.0000 0.0000 0.0000
# 3 12.7090 2.3931 132.4982 0.0000 0.0000 0.0000
# 4 0.0000 0.0000 0.0000 13.6421 0.0000 0.0000
# 5 0.0000 0.0000 0.0000 0.0000 48.0470 0.0000
# 6 0.0000 0.0000 0.0000 0.0000 0.0000 6.4857
#
#
#
# Elastic Compliance Matrix: (Units=1/GPa)
#
#
# Indices 1 2 3 4 5 6 
#
# 1 0.013722 0.000591 -0.001327 0.000000 0.000000 0.000000
# 2 0.000591 0.017214 -0.000368 0.000000 0.000000 0.000000
# 3 -0.001327 -0.000368 0.007681 0.000000 0.000000 0.000000
# 4 0.000000 0.000000 0.000000 0.073303 0.000000 0.000000
# 5 0.000000 0.000000 0.000000 0.000000 0.020813 0.000000
# 6 0.000000 0.000000 0.000000 0.000000 0.000000 0.154186
#
#
# Mechanical properties :
#
#
# Convention : Reuss Voigt Hill
#
# Bulk Modulus (GPa) = 27.46452 32.28587 29.87519
# Shear Modulus (GPa) = 16.59682 30.44147 23.51914
#
# Velocity S-wave (km/s) = 2.67765 3.62639 3.18752
# Velocity P-wave (km/s) = 4.62865 5.61086 5.14326
#
# Compressibility (1/GPa) = 0.03641061
#
# Stress axis : x y z
#
# Youngs Moduli (GPa) = 72.87611 58.09208 130.18833
#
# Poissons Ratio (x) = -0.03434 0.17274
# Poissons Ratio (y) = -0.04308 0.04786
# Poissons Ratio (z) = 0.09670 0.02136
#
# Static dielectric constant tensor:
#      x y z
#    x 1.934970 0.000000 0.000000 
#    y 0.000000 1.890610 0.000000 
#    z 0.000000 0.000000 2.288760 
# 
# From -- ./inp_files/56333.got.cif
#   From: 2010.05.17/outbox.cif.g08.bks.cpg/sg71_29_cif.got.tgz:56333.got - 2010.06.03 16:22:01.
