data_PCOD9523954
_publ_section_title
;
Structure prediction by ZEFSAII (Michael W. Deem and Ramdas Pophale) SiO2 
 PCOD9523954
Probable space group: I M M M
;
_chemical_formula_sum "Si O2"
_cell_formula_units_Z 58
_cell_length_a 11.466032
_cell_length_b 18.220585
_cell_length_c 15.460404
_cell_angle_alpha 90.000000
_cell_angle_beta 90.000000
_cell_angle_gamma 90.000000
_cell_volume 3229.953756
_symmetry_space_group_name_H-M "I M M M"
_symmetry_group_IT_number 71
_symmetry_cell_setting 'orthorhombic'
loop_
_space_group_symop_operation_xyz
x,y,z
-x,-y,z
x,-y,-z
-x,y,-z
-x,-y,-z
x,y,-z
-x,y,z
x,-y,z
1/2+x,1/2+y,1/2+z
1/2-x,1/2-y,1/2+z
1/2+x,1/2-y,1/2-z
1/2-x,1/2+y,1/2-z
1/2-x,1/2-y,1/2-z
1/2+x,1/2+y,1/2-z
1/2-x,1/2+y,1/2+z
1/2+x,1/2-y,1/2+z
loop_
_atom_site_type_symbol
_atom_site_label
_atom_site_fract_x
_atom_site_fract_y
_atom_site_fract_z
Si Si1 0.364880 0.087852 0.898557
Si Si2 0.000000 0.000000 0.500000
Si Si3 0.000000 0.083019 0.317453
Si Si4 0.764807 0.163038 0.744976
Si Si5 0.139513 0.582933 0.904280
O O1 0.500000 0.107520 0.878127
O O2 0.276850 0.128390 0.835391
O O3 0.354949 0.000000 0.886503
O O4 0.345287 0.103554 0.000000
O O5 0.000000 0.063584 0.420733
O O6 0.888196 0.129426 0.285926
O O7 0.000000 0.000000 0.277664
O O8 0.750000 0.250000 0.750000
O O9 0.677834 0.134768 0.671111
O O10 0.184796 0.500000 0.888596
O O11 0.000000 0.579151 0.906575
O O12 0.180941 0.604994 0.000000
#
# Coordination Sequence:
#
# PCOD9523954 Si02
#       5
#    16   2   8  16  16
#     4   9  19  39  65  89 113 154 209 257 306 369
#     4   8  24  48  72  92 124 180 238 272 304 398
#     4  10  24  44  65  94 125 174 225 261 323 394
#     4  12  25  36  59  89 131 165 204 261 323 381
#     4   9  19  36  62  90 114 151 200 254 317 379
#
# _framework density 17.956913
#
# number of rings (size 3 to 8) (size 9 to 14) (size 15 to 20)
#    0.414    1.655    0.000    4.966    5.793    3.310 
#    0.000    0.690    0.000    2.483    0.000    0.000 
#    0.000    0.000    0.000    0.000    0.000    0.000 
#
# Total GULP energy -161445.547509 kJ/mol
# GULP energy per Si atom -5567.087845 kJ/mol
# Density = 1.791604 g / cm^3
# Si number density = 17.956913 Si / 1000 Ang^3
#
#
#
# Elastic Constant Matrix: (Units=GPa)
#
#
# Indices 1 2 3 4 5 6 
#
# 1 85.6858 53.4998 62.2130 0.0000 0.0000 0.0000
# 2 53.4998 100.9226 76.8252 0.0000 0.0000 0.0000
# 3 62.2130 76.8252 121.0150 0.0000 0.0000 0.0000
# 4 0.0000 0.0000 0.0000 -168.3633 0.0000 0.0000
# 5 0.0000 0.0000 0.0000 0.0000 38.0598 0.0000
# 6 0.0000 0.0000 0.0000 0.0000 0.0000 14.7561
#
#
#
# Elastic Compliance Matrix: (Units=1/GPa)
#
#
# Indices 1 2 3 4 5 6 
#
# 1 0.020023 -0.005377 -0.006880 0.000000 0.000000 0.000000
# 2 -0.005377 0.020619 -0.010326 0.000000 0.000000 0.000000
# 3 -0.006880 -0.010326 0.018356 0.000000 0.000000 0.000000
# 4 0.000000 0.000000 0.000000 -0.005940 0.000000 0.000000
# 5 0.000000 0.000000 0.000000 0.000000 0.026274 0.000000
# 6 0.000000 0.000000 0.000000 0.000000 0.000000 0.067768
#
#
# Mechanical properties :
#
#
# Convention : Reuss Voigt Hill
#
# Bulk Modulus (GPa) = 72.29454 76.96661 74.63057
# Shear Modulus (GPa) = 25.39647 -15.43711 4.97968
#
# Velocity S-wave (km/s) = 3.76480 -2.93520 1.66708
# Velocity P-wave (km/s) = 7.69712 5.60960 6.73474
#
# Compressibility (1/GPa) = 0.01383230
#
# Stress axis : x y z
#
# Youngs Moduli (GPa) = 49.94176 48.49884 54.47923
#
# Poissons Ratio (x) = 0.26078 0.37483
# Poissons Ratio (y) = 0.26854 0.56253
# Poissons Ratio (z) = 0.34361 0.50078
#
# Static dielectric constant tensor:
#      x y z
#    x 1.682220 0.000000 0.000000 
#    y 0.000000 1.607490 0.000000 
#    z 0.000000 0.000000 1.600750 
# 
# From -- ./inp_files/32239.got.cif
#   From: 2010.05.17/outbox.cif.g08.bks.cpg/sg71_17_cif.got.tgz:32239.got - 2010.06.03 16:22:01.
