data_PCOD9523526
_publ_section_title
;
Structure prediction by ZEFSAII (Michael W. Deem and Ramdas Pophale) SiO2 
 PCOD9523526
Probable space group: I M M M
;
_chemical_formula_sum "Si O2"
_cell_formula_units_Z 64
_cell_length_a 10.481862
_cell_length_b 9.317035
_cell_length_c 32.562636
_cell_angle_alpha 90.000000
_cell_angle_beta 90.000000
_cell_angle_gamma 90.000000
_cell_volume 3180.062965
_symmetry_space_group_name_H-M "I M M M"
_symmetry_group_IT_number 71
_symmetry_cell_setting 'orthorhombic'
loop_
_space_group_symop_operation_xyz
x,y,z
-x,-y,z
x,-y,-z
-x,y,-z
-x,-y,-z
x,y,-z
-x,y,z
x,-y,z
1/2+x,1/2+y,1/2+z
1/2-x,1/2-y,1/2+z
1/2+x,1/2-y,1/2-z
1/2-x,1/2+y,1/2-z
1/2-x,1/2-y,1/2-z
1/2+x,1/2+y,1/2-z
1/2-x,1/2+y,1/2+z
1/2+x,1/2-y,1/2+z
loop_
_atom_site_type_symbol
_atom_site_label
_atom_site_fract_x
_atom_site_fract_y
_atom_site_fract_z
Si Si1 0.000000 0.327215 0.722260
Si Si2 0.500000 0.766631 0.314220
Si Si3 0.294960 0.339319 0.828246
Si Si4 0.500000 0.339439 0.598834
Si Si5 0.349952 0.838702 0.000000
Si Si6 0.254177 0.330352 0.921324
O O1 0.125849 0.276359 0.697576
O O2 0.000000 0.500000 0.728994
O O3 0.000000 0.243686 0.765635
O O4 0.640905 0.836736 0.321567
O O5 0.500000 0.654059 0.351433
O O6 0.338155 0.500000 0.817054
O O7 0.320619 0.315859 0.876732
O O8 0.500000 0.500000 0.582201
O O9 0.620413 0.248618 0.584884
O O10 0.316496 0.749154 0.959467
O O11 0.500000 0.855211 0.000000
O O12 0.291703 0.000000 0.000000
O O13 0.239983 0.500000 0.929083
#
# Coordination Sequence:
#
# PCOD9523526 Si02
#       6
#     8   8  16   8   8  16
#     4  12  25  38  59  92 129 166 211 264 316 373
#     4  10  22  40  63  91 122 165 211 261 311 372
#     4  10  22  41  64  89 123 165 211 260 314 374
#     4  10  21  39  66  95 125 159 199 254 314 369
#     4  11  25  42  63  92 125 161 203 255 304 361
#     4  10  22  41  65  92 123 162 206 252 306 372
#
# _framework density 20.125388999999998
#
# number of rings (size 3 to 8) (size 9 to 14) (size 15 to 20)
#    0.000    1.625    0.000    3.750    1.750   11.500 
#    0.000    2.500    0.000    0.000    0.000    0.000 
#    0.000    0.000    0.000    0.000    0.000    0.000 
#
# Total GULP energy -178380.200020 kJ/mol
# GULP energy per Si atom -5574.381251 kJ/mol
# Density = 2.007958 g / cm^3
# Si number density = 20.125389 Si / 1000 Ang^3
#
#
#
# Elastic Constant Matrix: (Units=GPa)
#
#
# Indices 1 2 3 4 5 6 
#
# 1 89.5478 43.8887 47.4516 0.0000 0.0000 0.0000
# 2 43.8887 115.7161 61.1690 0.0000 0.0000 0.0000
# 3 47.4516 61.1690 138.7227 0.0000 0.0000 0.0000
# 4 0.0000 0.0000 0.0000 180.5927 0.0000 0.0000
# 5 0.0000 0.0000 0.0000 0.0000 31.1665 0.0000
# 6 0.0000 0.0000 0.0000 0.0000 0.0000 -1.8486
#
#
#
# Elastic Compliance Matrix: (Units=1/GPa)
#
#
# Indices 1 2 3 4 5 6 
#
# 1 0.014843 -0.003841 -0.003383 0.000000 0.000000 0.000000
# 2 -0.003841 0.012262 -0.004093 0.000000 0.000000 0.000000
# 3 -0.003383 -0.004093 0.010171 0.000000 0.000000 0.000000
# 4 0.000000 0.000000 0.000000 0.005537 0.000000 0.000000
# 5 0.000000 0.000000 0.000000 0.000000 0.032086 0.000000
# 6 0.000000 0.000000 0.000000 0.000000 0.000000 -0.540952
#
#
# Mechanical properties :
#
#
# Convention : Reuss Voigt Hill
#
# Bulk Modulus (GPa) = 68.30294 72.11169 70.20731
# Shear Modulus (GPa) = -11.40153 54.74728 21.67287
#
# Velocity S-wave (km/s) = -2.38276 5.22132 3.28516
# Velocity P-wave (km/s) = 5.14221 8.50050 7.02498
#
# Compressibility (1/GPa) = 0.01464066
#
# Stress axis : x y z
#
# Youngs Moduli (GPa) = 67.37349 81.55051 98.32055
#
# Poissons Ratio (x) = 0.31323 0.33266
# Poissons Ratio (y) = 0.25878 0.40244
# Poissons Ratio (z) = 0.22795 0.33380
#
# Static dielectric constant tensor:
#      x y z
#    x 1.748570 0.000000 0.000000 
#    y 0.000000 1.684230 0.000000 
#    z 0.000000 0.000000 1.711370 
# 
# From -- ./inp_files/68847.got.cif
#   From: 2010.05.17/outbox.cif.g08.bks.cpg/sg71_35_cif.got.tgz:68847.got - 2010.06.03 16:22:01.
