data_PCOD9523532
_publ_section_title
;
Structure prediction by ZEFSAII (Michael W. Deem and Ramdas Pophale) SiO2 
 PCOD9523532
Probable space group: I M M M
;
_chemical_formula_sum "Si O2"
_cell_formula_units_Z 104
_cell_length_a 21.257159
_cell_length_b 9.626043
_cell_length_c 26.253512
_cell_angle_alpha 90.000000
_cell_angle_beta 90.000000
_cell_angle_gamma 90.000000
_cell_volume 5372.054707
_symmetry_space_group_name_H-M "I M M M"
_symmetry_group_IT_number 71
_symmetry_cell_setting 'orthorhombic'
loop_
_space_group_symop_operation_xyz
x,y,z
-x,-y,z
x,-y,-z
-x,y,-z
-x,-y,-z
x,y,-z
-x,y,z
x,-y,z
1/2+x,1/2+y,1/2+z
1/2-x,1/2-y,1/2+z
1/2+x,1/2-y,1/2-z
1/2-x,1/2+y,1/2-z
1/2-x,1/2-y,1/2-z
1/2+x,1/2+y,1/2-z
1/2-x,1/2+y,1/2+z
1/2+x,1/2-y,1/2+z
loop_
_atom_site_type_symbol
_atom_site_label
_atom_site_fract_x
_atom_site_fract_y
_atom_site_fract_z
Si Si1 0.500000 0.837431 0.560989
Si Si2 0.679977 0.743753 0.197343
Si Si3 0.424702 0.836951 0.000000
Si Si4 0.352779 0.660948 0.083185
Si Si5 0.249965 0.000000 0.241352
Si Si6 0.792740 0.341583 0.058223
Si Si7 0.611235 0.663608 0.387748
Si Si8 0.426177 0.664085 0.269814
O O1 0.500000 0.833058 0.500000
O O2 0.440292 0.754886 0.582730
O O3 0.500000 0.000000 0.576556
O O4 0.655566 0.710562 0.141067
O O5 0.721556 0.619369 0.219999
O O6 0.618606 0.752426 0.233859
O O7 0.721533 0.879516 0.203576
O O8 0.396473 0.758516 0.950856
O O9 0.500000 0.827471 0.000000
O O10 0.406959 0.000000 0.000000
O O11 0.374286 0.500000 0.081781
O O12 0.282267 0.664433 0.060414
O O13 0.811798 0.500000 0.072058
O O14 0.823132 0.230649 0.095809
O O15 0.813781 0.316041 0.000000
O O16 0.606997 0.500000 0.400443
O O17 0.597494 0.676935 0.327789
O O18 0.500000 0.698140 0.267126
O O19 0.418787 0.500000 0.256212
#
# Coordination Sequence:
#
# PCOD9523532 Si02
#       8
#     8  16   8  16   8  16  16  16
#     4  11  23  41  59  79 113 163 219 270 323 378
#     4  11  23  41  66 101 135 182 221 280 334 411
#     4  11  27  49  73 101 141 182 227 290 365 431
#     4  11  23  43  71 104 132 175 226 279 339 411
#     4  10  24  40  64 100 142 170 224 274 340 400
#     4  10  22  39  58  88 128 162 203 262 323 380
#     4  11  23  37  59  87 119 164 212 267 318 377
#     4  10  21  40  61  88 126 167 212 262 320 383
#
# _framework density 19.359445000000001
#
# number of rings (size 3 to 8) (size 9 to 14) (size 15 to 20)
#    0.000    1.385    3.077    1.385    5.385    4.615 
#    1.385    0.385    0.000    0.000    0.000    0.000 
#    0.000    0.000    0.000    0.000    0.000    0.000 
#
# Total GULP energy -289522.155964 kJ/mol
# GULP energy per Si atom -5567.733769 kJ/mol
# Density = 1.931538 g / cm^3
# Si number density = 19.359445 Si / 1000 Ang^3
#
#
#
# Elastic Constant Matrix: (Units=GPa)
#
#
# Indices 1 2 3 4 5 6 
#
# 1 42.8033 48.9414 36.4865 0.0000 0.0000 0.0000
# 2 48.9414 161.8610 65.0578 0.0000 0.0000 0.0000
# 3 36.4865 65.0578 105.0446 0.0000 0.0000 0.0000
# 4 0.0000 0.0000 0.0000 8.1268 0.0000 0.0000
# 5 0.0000 0.0000 0.0000 0.0000 46.3050 0.0000
# 6 0.0000 0.0000 0.0000 0.0000 0.0000 20.1385
#
#
#
# Elastic Compliance Matrix: (Units=1/GPa)
#
#
# Indices 1 2 3 4 5 6 
#
# 1 0.040948 -0.008874 -0.008727 0.000000 0.000000 0.000000
# 2 -0.008874 0.010149 -0.003203 0.000000 0.000000 0.000000
# 3 -0.008727 -0.003203 0.014535 0.000000 0.000000 0.000000
# 4 0.000000 0.000000 0.000000 0.123050 0.000000 0.000000
# 5 0.000000 0.000000 0.000000 0.000000 0.021596 0.000000
# 6 0.000000 0.000000 0.000000 0.000000 0.000000 0.049656
#
#
# Mechanical properties :
#
#
# Convention : Reuss Voigt Hill
#
# Bulk Modulus (GPa) = 41.62582 67.85337 54.73959
# Shear Modulus (GPa) = 16.15246 25.52892 20.84069
#
# Velocity S-wave (km/s) = 2.89164 3.63530 3.28459
# Velocity P-wave (km/s) = 5.71813 7.26264 6.53616
#
# Compressibility (1/GPa) = 0.02402355
#
# Stress axis : x y z
#
# Youngs Moduli (GPa) = 24.42111 98.53457 68.79911
#
# Poissons Ratio (x) = 0.87435 0.60044
# Poissons Ratio (y) = 0.21670 0.22038
# Poissons Ratio (z) = 0.21313 0.31564
#
# Static dielectric constant tensor:
#      x y z
#    x 1.713300 0.000000 0.000000 
#    y 0.000000 1.652380 0.000000 
#    z 0.000000 0.000000 1.659970 
# 
# From -- ./inp_files/66504.got.cif
#   From: 2010.05.17/outbox.cif.g08.bks.cpg/sg71_34_cif.got.tgz:66504.got - 2010.06.03 16:22:01.
