data_PCOD9523570
_publ_section_title
;
Structure prediction by ZEFSAII (Michael W. Deem and Ramdas Pophale) SiO2 
 PCOD9523570
Probable space group: I M M M
;
_chemical_formula_sum "Si O2"
_cell_formula_units_Z 44
_cell_length_a 11.403208
_cell_length_b 17.323405
_cell_length_c 10.499863
_cell_angle_alpha 90.000000
_cell_angle_beta 90.000000
_cell_angle_gamma 90.000000
_cell_volume 2074.168037
_symmetry_space_group_name_H-M "I M M M"
_symmetry_group_IT_number 71
_symmetry_cell_setting 'orthorhombic'
loop_
_space_group_symop_operation_xyz
x,y,z
-x,-y,z
x,-y,-z
-x,y,-z
-x,-y,-z
x,y,-z
-x,y,z
x,-y,z
1/2+x,1/2+y,1/2+z
1/2-x,1/2-y,1/2+z
1/2+x,1/2-y,1/2-z
1/2-x,1/2+y,1/2-z
1/2-x,1/2-y,1/2-z
1/2+x,1/2+y,1/2-z
1/2-x,1/2+y,1/2+z
1/2+x,1/2-y,1/2+z
loop_
_atom_site_type_symbol
_atom_site_label
_atom_site_fract_x
_atom_site_fract_y
_atom_site_fract_z
Si Si1 0.302362 0.808744 0.000000
Si Si2 0.500000 0.683686 0.000000
Si Si3 0.500000 0.409095 0.745214
Si Si4 0.233852 0.592790 0.735510
Si Si5 0.642133 0.831094 0.500000
O O1 0.389590 0.737776 0.000000
O O2 0.328526 0.860598 0.876571
O O3 0.180554 0.759267 0.000000
O O4 0.500000 0.630345 0.879895
O O5 0.500000 0.500000 0.759273
O O6 0.629715 0.391673 0.694815
O O7 0.215349 0.500000 0.736010
O O8 0.195967 0.627794 0.872611
O O9 0.500000 0.838396 0.500000
#
# Coordination Sequence:
#
# PCOD9523570 Si02
#       5
#     8   4   8  16   8
#     4  12  27  42  69 101 136 172 216 280 334 390
#     4  12  23  40  69  94 134 172 228 266 335 384
#     4  10  21  41  72  96 127 174 224 277 322 385
#     4  11  25  46  68  98 134 176 223 270 329 394
#     4  12  27  44  71  96 133 177 222 271 328 393
#
# _framework density 21.213324
#
# number of rings (size 3 to 8) (size 9 to 14) (size 15 to 20)
#    0.000    0.727    3.636    2.455    5.091    4.364 
#    0.000    3.636    0.000    0.000    0.000    0.000 
#    0.000    0.000    0.000    0.000    0.000    0.000 
#
# Total GULP energy -122657.327904 kJ/mol
# GULP energy per Si atom -5575.333087 kJ/mol
# Density = 2.116504 g / cm^3
# Si number density = 21.213324 Si / 1000 Ang^3
#
#
#
# Elastic Constant Matrix: (Units=GPa)
#
#
# Indices 1 2 3 4 5 6 
#
# 1 96.2276 48.4079 15.7283 0.0000 0.0000 0.0000
# 2 48.4079 307.1312 163.2374 0.0000 0.0000 -0.0001
# 3 15.7283 163.2374 161.4387 0.0000 0.0000 -0.0001
# 4 0.0000 0.0000 0.0000 60.1316 0.0000 -0.0001
# 5 0.0000 0.0000 0.0000 0.0000 16.8174 0.0000
# 6 0.0000 -0.0001 -0.0001 -0.0001 0.0000 -578.6244
#
#
#
# Elastic Compliance Matrix: (Units=1/GPa)
#
#
# Indices 1 2 3 4 5 6 
#
# 1 0.011460 -0.002622 0.001535 0.000000 0.000000 0.000000
# 2 -0.002622 0.007638 -0.007468 0.000000 0.000000 0.000000
# 3 0.001535 -0.007468 0.013596 0.000000 0.000000 0.000000
# 4 0.000000 0.000000 0.000000 0.016630 0.000000 0.000000
# 5 0.000000 0.000000 0.000000 0.000000 0.059462 0.000000
# 6 0.000000 0.000000 0.000000 0.000000 0.000000 -0.001728
#
#
# Mechanical properties :
#
#
# Convention : Reuss Voigt Hill
#
# Bulk Modulus (GPa) = 64.16880 113.28272 88.72576
# Shear Modulus (GPa) = 38.65064 -77.84013 -19.59475
#
# Velocity S-wave (km/s) = 4.27312 -6.06413 -3.04254
# Velocity P-wave (km/s) = 7.39331 2.11804 5.43816
#
# Compressibility (1/GPa) = 0.01558390
#
# Stress axis : x y z
#
# Youngs Moduli (GPa) = 87.25878 130.91792 73.55085
#
# Poissons Ratio (x) = 0.34325 -0.11287
# Poissons Ratio (y) = 0.22878 0.54928
# Poissons Ratio (z) = -0.13391 0.97770
#
# Static dielectric constant tensor:
#      x y z
#    x 2.268220 0.000000 0.000000 
#    y 0.000000 1.699070 0.000000 
#    z 0.000000 0.000000 1.717040 
# 
# From -- ./inp_files/19105.got.cif
#   From: 2010.05.17/outbox.cif.g08.bks.cpg/sg71_10_cif.got.tgz:19105.got - 2010.06.03 16:22:01.
