data_PCOD9523391
_publ_section_title
;
Structure prediction by ZEFSAII (Michael W. Deem and Ramdas Pophale) SiO2 
 PCOD9523391
Probable space group: I M M M
;
_chemical_formula_sum "Si O2"
_cell_formula_units_Z 72
_cell_length_a 14.759945
_cell_length_b 7.397441
_cell_length_c 33.192656
_cell_angle_alpha 90.000000
_cell_angle_beta 90.000000
_cell_angle_gamma 90.000000
_cell_volume 3624.167440
_symmetry_space_group_name_H-M "I M M M"
_symmetry_group_IT_number 71
_symmetry_cell_setting 'orthorhombic'
loop_
_space_group_symop_operation_xyz
x,y,z
-x,-y,z
x,-y,-z
-x,y,-z
-x,-y,-z
x,y,-z
-x,y,z
x,-y,z
1/2+x,1/2+y,1/2+z
1/2-x,1/2-y,1/2+z
1/2+x,1/2-y,1/2-z
1/2-x,1/2+y,1/2-z
1/2-x,1/2-y,1/2-z
1/2+x,1/2+y,1/2-z
1/2-x,1/2+y,1/2+z
1/2+x,1/2-y,1/2+z
loop_
_atom_site_type_symbol
_atom_site_label
_atom_site_fract_x
_atom_site_fract_y
_atom_site_fract_z
Si Si1 0.398306 0.219443 0.046113
Si Si2 0.721796 0.718456 0.404932
Si Si3 0.607956 0.000000 0.546875
Si Si4 0.398149 0.213583 0.238382
Si Si5 0.272652 0.282410 0.687866
O O1 0.500000 0.279272 0.056832
O O2 0.319433 0.270863 0.076513
O O3 0.399737 0.000000 0.045810
O O4 0.379078 0.276359 0.000000
O O5 0.711974 0.500000 0.407955
O O6 0.716386 0.772874 0.358205
O O7 0.648464 0.824940 0.430940
O O8 0.500000 0.000000 0.549259
O O9 0.635128 0.000000 0.500000
O O10 0.500000 0.287696 0.235157
O O11 0.355489 0.233398 0.282859
O O12 0.320570 0.286498 0.208325
O O13 0.404279 0.000000 0.230097
O O14 0.267763 0.500000 0.687880
#
# Coordination Sequence:
#
# PCOD9523391 Si02
#       5
#    16  16   8  16  16
#     4   8  14  27  51  82 111 141 179 221 275 344
#     4  10  21  38  61  86 116 154 191 241 296 347
#     4  11  26  44  61  85 115 151 200 252 297 345
#     4   9  18  33  54  78 108 148 185 224 278 336
#     4   9  19  34  52  79 111 142 184 232 277 335
#
# _framework density 19.866631000000002
#
# number of rings (size 3 to 8) (size 9 to 14) (size 15 to 20)
#    0.000    2.778    0.000    1.333    1.556    4.000 
#    0.000    8.333    0.000    2.000    0.000    0.000 
#    0.000    0.000    0.000    0.000    0.000    0.000 
#
# Total GULP energy -200880.612484 kJ/mol
# GULP energy per Si atom -5580.017013 kJ/mol
# Density = 1.982141 g / cm^3
# Si number density = 19.866631 Si / 1000 Ang^3
#
#
#
# Elastic Constant Matrix: (Units=GPa)
#
#
# Indices 1 2 3 4 5 6 
#
# 1 107.2131 19.7998 50.1271 0.0000 0.0000 0.0000
# 2 19.7998 78.0471 23.8808 0.0000 0.0000 0.0000
# 3 50.1271 23.8808 122.2535 0.0000 0.0000 0.0000
# 4 0.0000 0.0000 0.0000 22.9219 0.0000 0.0000
# 5 0.0000 0.0000 0.0000 0.0000 -19.1094 0.0000
# 6 0.0000 0.0000 0.0000 0.0000 0.0000 79.5703
#
#
#
# Elastic Compliance Matrix: (Units=1/GPa)
#
#
# Indices 1 2 3 4 5 6 
#
# 1 0.011724 -0.001599 -0.004495 0.000000 0.000000 0.000000
# 2 -0.001599 0.013845 -0.002049 0.000000 0.000000 0.000000
# 3 -0.004495 -0.002049 0.010423 0.000000 0.000000 0.000000
# 4 0.000000 0.000000 0.000000 0.043626 0.000000 0.000000
# 5 0.000000 0.000000 0.000000 0.000000 -0.052330 0.000000
# 6 0.000000 0.000000 0.000000 0.000000 0.000000 0.012568
#
#
# Mechanical properties :
#
#
# Convention : Reuss Voigt Hill
#
# Bulk Modulus (GPa) = 50.74349 55.01433 52.87891
# Shear Modulus (GPa) = 79.73170 30.92362 55.32766
#
# Velocity S-wave (km/s) = 6.34197 3.94961 5.28299
# Velocity P-wave (km/s) = 8.90084 6.96787 7.99300
#
# Compressibility (1/GPa) = 0.01970696
#
# Stress axis : x y z
#
# Youngs Moduli (GPa) = 85.29480 72.22645 95.94214
#
# Poissons Ratio (x) = 0.11549 0.43124
# Poissons Ratio (y) = 0.13638 0.19658
# Poissons Ratio (z) = 0.38339 0.14799
#
# Static dielectric constant tensor:
#      x y z
#    x 1.682770 0.000000 0.000000 
#    y 0.000000 1.769450 0.000000 
#    z 0.000000 0.000000 1.669630 
# 
# From -- ./inp_files/62861.got.cif
#   From: 2010.05.17/outbox.cif.g08.bks.cpg/sg71_32_cif.got.tgz:62861.got - 2010.06.03 16:22:01.
