data_PCOD9523894
_publ_section_title
;
Structure prediction by ZEFSAII (Michael W. Deem and Ramdas Pophale) SiO2 
 PCOD9523894
Probable space group: I M M M
;
_chemical_formula_sum "Si O2"
_cell_formula_units_Z 90
_cell_length_a 25.912932
_cell_length_b 20.514977
_cell_length_c 8.005325
_cell_angle_alpha 90.000000
_cell_angle_beta 90.000000
_cell_angle_gamma 90.000000
_cell_volume 4255.656419
_symmetry_space_group_name_H-M "I M M M"
_symmetry_group_IT_number 71
_symmetry_cell_setting 'orthorhombic'
loop_
_space_group_symop_operation_xyz
x,y,z
-x,-y,z
x,-y,-z
-x,y,-z
-x,-y,-z
x,y,-z
-x,y,z
x,-y,z
1/2+x,1/2+y,1/2+z
1/2-x,1/2-y,1/2+z
1/2+x,1/2-y,1/2-z
1/2-x,1/2+y,1/2-z
1/2-x,1/2-y,1/2-z
1/2+x,1/2+y,1/2-z
1/2-x,1/2+y,1/2+z
1/2+x,1/2-y,1/2+z
loop_
_atom_site_type_symbol
_atom_site_label
_atom_site_fract_x
_atom_site_fract_y
_atom_site_fract_z
Si Si1 0.581179 0.500000 0.685937
Si Si2 0.667109 0.928524 0.800140
Si Si3 0.941945 0.227275 0.798386
Si Si4 0.057025 0.619993 0.201505
Si Si5 0.249873 0.674569 0.699518
Si Si6 0.000000 0.000000 0.500000
Si Si7 0.360271 0.377742 0.192396
O O1 0.557077 0.500000 0.500000
O O2 0.616497 0.436100 0.700643
O O3 0.544153 0.500000 0.848144
O O4 0.606863 0.917113 0.765321
O O5 0.701861 0.868722 0.734755
O O6 0.682824 0.000000 0.734771
O O7 0.673753 0.929551 0.000000
O O8 0.937677 0.303432 0.753341
O O9 0.898167 0.183836 0.717199
O O10 0.000000 0.204723 0.752188
O O11 0.937674 0.222713 0.000000
O O12 0.000000 0.597724 0.258412
O O13 0.057247 0.616447 0.000000
O O14 0.247953 0.673348 0.500000
O O15 0.250000 0.750000 0.750000
O O16 0.302972 0.642157 0.757213
O O17 0.360806 0.397555 0.000000
#
# Coordination Sequence:
#
# PCOD9523894 Si02
#       7
#     8  16  16  16  16   2  16
#     4  12  27  47  71  98 141 191 229 298 360 414
#     4  10  23  41  61  88 121 160 209 259 317 393
#     4   9  19  36  60  89 121 164 211 260 325 392
#     4   9  19  37  60  89 125 160 204 255 313 391
#     4  11  24  43  68  95 126 170 219 278 349 411
#     4  12  26  52  68 106 140 180 258 280 348 450
#     4  12  25  42  62  95 133 169 228 284 333 416
#
# _framework density 21.148323999999999
#
# number of rings (size 3 to 8) (size 9 to 14) (size 15 to 20)
#    0.000    1.600    0.889    4.400    2.489    6.400 
#    0.000    3.556    0.000    0.000    0.000    0.000 
#    0.000    0.000    0.000    0.000    0.000    0.000 
#
# Total GULP energy -251242.990963 kJ/mol
# GULP energy per Si atom -5583.177577 kJ/mol
# Density = 2.110019 g / cm^3
# Si number density = 21.148324 Si / 1000 Ang^3
#
#
#
# Elastic Constant Matrix: (Units=GPa)
#
#
# Indices 1 2 3 4 5 6 
#
# 1 143.7609 69.2802 24.2423 0.0000 0.0000 0.0000
# 2 69.2802 104.7479 24.6988 0.0000 0.0000 0.0000
# 3 24.2423 24.6988 79.5203 0.0000 0.0000 0.0000
# 4 0.0000 0.0000 0.0000 27.7549 0.0000 0.0000
# 5 0.0000 0.0000 0.0000 0.0000 29.5390 0.0000
# 6 0.0000 0.0000 0.0000 0.0000 0.0000 40.3902
#
#
#
# Elastic Compliance Matrix: (Units=1/GPa)
#
#
# Indices 1 2 3 4 5 6 
#
# 1 0.010300 -0.006552 -0.001105 0.000000 0.000000 0.000000
# 2 -0.006552 0.014469 -0.002497 0.000000 0.000000 0.000000
# 3 -0.001105 -0.002497 0.013688 0.000000 0.000000 0.000000
# 4 0.000000 0.000000 0.000000 0.036030 0.000000 0.000000
# 5 0.000000 0.000000 0.000000 0.000000 0.033854 0.000000
# 6 0.000000 0.000000 0.000000 0.000000 0.000000 0.024758
#
#
# Mechanical properties :
#
#
# Convention : Reuss Voigt Hill
#
# Bulk Modulus (GPa) = 55.09784 62.71908 58.90846
# Shear Modulus (GPa) = 31.35700 33.52401 32.44050
#
# Velocity S-wave (km/s) = 3.85478 3.98576 3.92082
# Velocity P-wave (km/s) = 6.77658 7.13462 6.95791
#
# Compressibility (1/GPa) = 0.01814953
#
# Stress axis : x y z
#
# Youngs Moduli (GPa) = 97.09078 69.11492 73.05822
#
# Poissons Ratio (x) = 0.45282 0.08073
# Poissons Ratio (y) = 0.63610 0.18240
# Poissons Ratio (z) = 0.10729 0.17255
#
# Static dielectric constant tensor:
#      x y z
#    x 1.732880 0.000000 0.000000 
#    y 0.000000 1.701530 0.000000 
#    z 0.000000 0.000000 1.760220 
# 
# From -- ./inp_files/12629.got.cif
#   From: 2010.05.17/outbox.cif.g08.bks.cpg/sg71_7_cif.got.tgz:12629.got - 2010.06.03 16:22:01.
