data_PCOD9523250
_publ_section_title
;
Structure prediction by ZEFSAII (Michael W. Deem and Ramdas Pophale) SiO2 
 PCOD9523250
Probable space group: I M M M
;
_chemical_formula_sum "Si O2"
_cell_formula_units_Z 104
_cell_length_a 15.544228
_cell_length_b 18.227134
_cell_length_c 19.643207
_cell_angle_alpha 90.000000
_cell_angle_beta 90.000000
_cell_angle_gamma 90.000000
_cell_volume 5565.445541
_symmetry_space_group_name_H-M "I M M M"
_symmetry_group_IT_number 71
_symmetry_cell_setting 'orthorhombic'
loop_
_space_group_symop_operation_xyz
x,y,z
-x,-y,z
x,-y,-z
-x,y,-z
-x,-y,-z
x,y,-z
-x,y,z
x,-y,z
1/2+x,1/2+y,1/2+z
1/2-x,1/2-y,1/2+z
1/2+x,1/2-y,1/2-z
1/2-x,1/2+y,1/2-z
1/2-x,1/2-y,1/2-z
1/2+x,1/2+y,1/2-z
1/2-x,1/2+y,1/2+z
1/2+x,1/2-y,1/2+z
loop_
_atom_site_type_symbol
_atom_site_label
_atom_site_fract_x
_atom_site_fract_y
_atom_site_fract_z
Si Si1 0.156939 0.584561 0.706187
Si Si2 0.602902 0.147671 0.346061
Si Si3 0.895364 0.500000 0.921795
Si Si4 0.637754 0.584243 0.315925
Si Si5 0.660059 0.706172 0.421571
Si Si6 0.000000 0.912882 0.298474
Si Si7 0.636201 0.826072 0.923684
Si Si8 0.000000 0.800977 0.421159
O O1 0.130845 0.500000 0.718748
O O2 0.127624 0.636299 0.767646
O O3 0.260721 0.587059 0.700925
O O4 0.120539 0.615035 0.635228
O O5 0.500000 0.152020 0.351565
O O6 0.640941 0.218737 0.382249
O O7 0.633158 0.073705 0.384226
O O8 0.000000 0.500000 0.920455
O O9 0.867948 0.500000 0.000000
O O10 0.616723 0.500000 0.334370
O O11 0.620646 0.639817 0.377537
O O12 0.582051 0.603549 0.249620
O O13 0.630098 0.708989 0.500000
O O14 0.762682 0.692778 0.422413
O O15 0.000000 0.865109 0.366262
O O16 0.000000 0.000000 0.313334
O O17 0.581553 0.752742 0.911411
O O18 0.614664 0.852604 0.000000
O O19 0.000000 0.826367 0.500000
#
# Coordination Sequence:
#
# PCOD9523250 Si02
#       8
#    16  16   8  16  16   8  16   8
#     4  10  21  37  59  85 115 150 190 231 277 339
#     4  11  23  35  54  85 114 148 193 234 277 336
#     4   9  18  36  54  72 111 152 184 230 280 322
#     4   9  21  39  59  87 115 147 187 233 287 333
#     4  10  22  38  59  85 115 150 191 231 278 342
#     4  10  22  39  61  85 113 146 188 238 284 338
#     4   9  21  39  58  85 115 147 186 234 286 334
#     4  10  22  39  61  85 113 148 188 234 288 338
#
# _framework density 18.686734999999999
#
# number of rings (size 3 to 8) (size 9 to 14) (size 15 to 20)
#    0.000    2.231    0.769    0.462    6.462    2.923 
#    0.000    3.077    0.000    2.769    0.000    0.000 
#    0.000    0.000    0.000    0.000    0.000    0.000 
#
# Total GULP energy -290269.304812 kJ/mol
# GULP energy per Si atom -5582.102016 kJ/mol
# Density = 1.864420 g / cm^3
# Si number density = 18.686735 Si / 1000 Ang^3
#
#
#
# Elastic Constant Matrix: (Units=GPa)
#
#
# Indices 1 2 3 4 5 6 
#
# 1 26.9235 13.0992 20.0397 0.0000 0.0000 0.0000
# 2 13.0992 101.8203 75.9081 0.0000 0.0000 0.0000
# 3 20.0397 75.9081 143.0613 0.0000 0.0000 0.0000
# 4 0.0000 0.0000 0.0000 32.5973 0.0000 0.0000
# 5 0.0000 0.0000 0.0000 0.0000 19.3146 0.0000
# 6 0.0000 0.0000 0.0000 0.0000 0.0000 14.5156
#
#
#
# Elastic Compliance Matrix: (Units=1/GPa)
#
#
# Indices 1 2 3 4 5 6 
#
# 1 0.041636 -0.001668 -0.004947 0.000000 0.000000 0.000000
# 2 -0.001668 0.016316 -0.008423 0.000000 0.000000 0.000000
# 3 -0.004947 -0.008423 0.012152 0.000000 0.000000 0.000000
# 4 0.000000 0.000000 0.000000 0.030677 0.000000 0.000000
# 5 0.000000 0.000000 0.000000 0.000000 0.051774 0.000000
# 6 0.000000 0.000000 0.000000 0.000000 0.000000 0.068891
#
#
# Mechanical properties :
#
#
# Convention : Reuss Voigt Hill
#
# Bulk Modulus (GPa) = 24.98343 54.43324 39.70834
# Shear Modulus (GPa) = 18.87743 24.13604 21.50674
#
# Velocity S-wave (km/s) = 3.18182 3.59780 3.39619
# Velocity P-wave (km/s) = 5.18626 6.81553 6.05594
#
# Compressibility (1/GPa) = 0.04002652
#
# Stress axis : x y z
#
# Youngs Moduli (GPa) = 24.01759 61.29128 82.28852
#
# Poissons Ratio (x) = 0.10226 0.40708
# Poissons Ratio (y) = 0.04007 0.69314
# Poissons Ratio (z) = 0.11882 0.51627
#
# Static dielectric constant tensor:
#      x y z
#    x 1.652920 0.000000 0.000000 
#    y 0.000000 1.621540 0.000000 
#    z 0.000000 0.000000 1.636580 
# 
# From -- ./inp_files/53224.got.cif
#   From: 2010.05.17/outbox.cif.g08.bks.cpg/sg71_27_cif.got.tgz:53224.got - 2010.06.03 16:22:01.
