data_PCOD9523555
_publ_section_title
;
Structure prediction by ZEFSAII (Michael W. Deem and Ramdas Pophale) SiO2 
 PCOD9523555
Probable space group: I M M M
;
_chemical_formula_sum "Si O2"
_cell_formula_units_Z 70
_cell_length_a 7.533616
_cell_length_b 19.523218
_cell_length_c 21.852774
_cell_angle_alpha 90.000000
_cell_angle_beta 90.000000
_cell_angle_gamma 90.000000
_cell_volume 3214.115342
_symmetry_space_group_name_H-M "I M M M"
_symmetry_group_IT_number 71
_symmetry_cell_setting 'orthorhombic'
loop_
_space_group_symop_operation_xyz
x,y,z
-x,-y,z
x,-y,-z
-x,y,-z
-x,-y,-z
x,y,-z
-x,y,z
x,-y,z
1/2+x,1/2+y,1/2+z
1/2-x,1/2-y,1/2+z
1/2+x,1/2-y,1/2-z
1/2-x,1/2+y,1/2-z
1/2-x,1/2-y,1/2-z
1/2+x,1/2+y,1/2-z
1/2-x,1/2+y,1/2+z
1/2+x,1/2-y,1/2+z
loop_
_atom_site_type_symbol
_atom_site_label
_atom_site_fract_x
_atom_site_fract_y
_atom_site_fract_z
Si Si1 0.690270 0.384464 0.500000
Si Si2 0.500000 0.500000 0.693602
Si Si3 0.500000 0.000000 0.000000
Si Si4 0.787545 0.636261 0.861204
Si Si5 0.785189 0.619549 0.719832
Si Si6 0.217468 0.500000 0.929531
Si Si7 0.793754 0.287727 0.608375
O O1 0.500000 0.419866 0.500000
O O2 0.699858 0.334504 0.558508
O O3 0.845493 0.439704 0.500000
O O4 0.658086 0.559389 0.696396
O O5 0.735286 0.634570 0.790070
O O6 0.721104 0.568298 0.895042
O O7 0.738431 0.706974 0.893549
O O8 0.000000 0.632827 0.861904
O O9 0.753051 0.684412 0.676131
O O10 0.000000 0.603411 0.717285
O O11 0.000000 0.500000 0.928201
O O12 0.271168 0.500000 0.000000
O O13 0.000000 0.299992 0.597058
#
# Coordination Sequence:
#
# PCOD9523555 Si02
#       7
#     8   4   2  16  16   8  16
#     4  12  27  49  75 101 138 182 234 280 360 418
#     4  12  24  38  72  95 141 174 230 282 346 420
#     4  12  26  56  68 102 136 174 230 304 330 414
#     4  10  21  40  69  96 142 179 230 282 342 414
#     4  10  24  43  64 102 138 181 231 287 348 409
#     4   9  19  36  61 100 134 178 222 273 336 409
#     4  11  24  45  68 101 139 179 232 294 345 415
#
# _framework density 21.778932000000001
#
# number of rings (size 3 to 8) (size 9 to 14) (size 15 to 20)
#    0.000    1.486    1.143    2.571    6.400    2.743 
#    0.000    0.000    0.000    0.686    0.000    0.000 
#    0.000    0.000    0.000    0.000    0.000    0.000 
#
# Total GULP energy -194868.782994 kJ/mol
# GULP energy per Si atom -5567.679514 kJ/mol
# Density = 2.172936 g / cm^3
# Si number density = 21.778932 Si / 1000 Ang^3
#
#
#
# Elastic Constant Matrix: (Units=GPa)
#
#
# Indices 1 2 3 4 5 6 
#
# 1 99.7016 47.0962 27.6829 0.0000 0.0000 0.0000
# 2 47.0962 191.2579 65.2608 0.0000 0.0000 0.0000
# 3 27.6829 65.2608 122.8619 0.0000 0.0000 0.0000
# 4 0.0000 0.0000 0.0000 -2.1771 0.0000 0.0000
# 5 0.0000 0.0000 0.0000 0.0000 506.9192 0.0000
# 6 0.0000 0.0000 0.0000 0.0000 0.0000 41.1207
#
#
#
# Elastic Compliance Matrix: (Units=1/GPa)
#
#
# Indices 1 2 3 4 5 6 
#
# 1 0.011526 -0.002384 -0.001331 0.000000 0.000000 0.000000
# 2 -0.002384 0.006879 -0.003117 0.000000 0.000000 0.000000
# 3 -0.001331 -0.003117 0.010095 0.000000 0.000000 0.000000
# 4 0.000000 0.000000 0.000000 -0.459329 0.000000 0.000000
# 5 0.000000 0.000000 0.000000 0.000000 0.001973 0.000000
# 6 0.000000 0.000000 0.000000 0.000000 0.000000 0.024319
#
#
# Mechanical properties :
#
#
# Convention : Reuss Voigt Hill
#
# Bulk Modulus (GPa) = 67.40206 77.10014 72.25110
# Shear Modulus (GPa) = -12.95571 127.42468 57.23449
#
# Velocity S-wave (km/s) = -2.44165 7.65737 5.13194
# Velocity P-wave (km/s) = 4.80277 10.66107 8.26816
#
# Compressibility (1/GPa) = 0.01483634
#
# Stress axis : x y z
#
# Youngs Moduli (GPa) = 86.76380 145.36721 99.06303
#
# Poissons Ratio (x) = 0.34657 0.13181
# Poissons Ratio (y) = 0.20685 0.30876
# Poissons Ratio (z) = 0.11544 0.45308
#
# Static dielectric constant tensor:
#      x y z
#    x 1.816010 0.000000 0.000000 
#    y 0.000000 1.765340 0.000000 
#    z 0.000000 0.000000 1.803000 
# 
# From -- ./inp_files/57341.got.cif
#   From: 2010.05.17/outbox.cif.g08.bks.cpg/sg71_29_cif.got.tgz:57341.got - 2010.06.03 16:22:01.
