data_PCOD9523082
_publ_section_title
;
Structure prediction by ZEFSAII (Michael W. Deem and Ramdas Pophale) SiO2 
 PCOD9523082
Probable space group: I M M M
;
_chemical_formula_sum "Si O2"
_cell_formula_units_Z 116
_cell_length_a 25.746242
_cell_length_b 22.361555
_cell_length_c 10.181408
_cell_angle_alpha 90.000000
_cell_angle_beta 90.000000
_cell_angle_gamma 90.000000
_cell_volume 5861.701369
_symmetry_space_group_name_H-M "I M M M"
_symmetry_group_IT_number 71
_symmetry_cell_setting 'orthorhombic'
loop_
_space_group_symop_operation_xyz
x,y,z
-x,-y,z
x,-y,-z
-x,y,-z
-x,-y,-z
x,y,-z
-x,y,z
x,-y,z
1/2+x,1/2+y,1/2+z
1/2-x,1/2-y,1/2+z
1/2+x,1/2-y,1/2-z
1/2-x,1/2+y,1/2-z
1/2-x,1/2-y,1/2-z
1/2+x,1/2+y,1/2-z
1/2-x,1/2+y,1/2+z
1/2+x,1/2-y,1/2+z
loop_
_atom_site_type_symbol
_atom_site_label
_atom_site_fract_x
_atom_site_fract_y
_atom_site_fract_z
Si Si1 0.739404 0.571287 0.138084
Si Si2 0.559716 0.160261 0.654444
Si Si3 0.557408 0.375035 0.650981
Si Si4 0.833850 0.929205 0.140984
Si Si5 0.341763 0.101726 0.772084
Si Si6 0.588103 0.729446 0.842982
Si Si7 0.203859 0.268072 0.651241
Si Si8 0.346417 0.000000 0.000000
O O1 0.729935 0.500000 0.133588
O O2 0.703514 0.597143 0.250930
O O3 0.799229 0.580246 0.168047
O O4 0.724656 0.598779 0.000000
O O5 0.568870 0.176735 0.500000
O O6 0.500000 0.139261 0.663474
O O7 0.603156 0.113844 0.703103
O O8 0.566987 0.214838 0.757079
O O9 0.561074 0.349835 0.500000
O O10 0.500000 0.402048 0.661202
O O11 0.605586 0.419454 0.664559
O O12 0.564935 0.326881 0.765510
O O13 0.823931 0.000000 0.134541
O O14 0.820349 0.902434 0.000000
O O15 0.317817 0.164446 0.824933
O O16 0.345378 0.052660 0.885575
O O17 0.650819 0.729860 0.830283
O O18 0.575997 0.732744 0.000000
O O19 0.221179 0.262510 0.500000
O O20 0.250000 0.250000 0.750000
#
# Coordination Sequence:
#
# PCOD9523082 Si02
#       8
#    16  16  16  16  16  16  16   4
#     4  10  21  36  58  86 119 158 202 250 307 376
#     4  10  22  42  67  93 126 167 213 265 321 387
#     4  10  21  37  57  84 117 157 206 257 314 380
#     4   9  20  36  57  83 113 154 203 258 319 380
#     4  11  23  41  66  95 128 170 216 261 324 379
#     4  10  22  39  59  89 124 161 209 258 316 387
#     4  10  23  40  60  90 128 164 206 258 316 378
#     4  12  24  44  71  98 136 176 223 278 312 394
#
# _framework density 19.789476000000001
#
# number of rings (size 3 to 8) (size 9 to 14) (size 15 to 20)
#    0.000    1.931    1.379    1.241    3.862    6.345 
#    0.000    2.069    0.000    0.828    0.000    2.897 
#    0.000    0.000    0.000    0.000    0.000    0.000 
#
# Total GULP energy -322911.853476 kJ/mol
# GULP energy per Si atom -5567.445750 kJ/mol
# Density = 1.974443 g / cm^3
# Si number density = 19.789476 Si / 1000 Ang^3
#
#
#
# Elastic Constant Matrix: (Units=GPa)
#
#
# Indices 1 2 3 4 5 6 
#
# 1 128.9409 12.6098 86.4612 0.0000 0.0000 0.0000
# 2 12.6098 33.6011 28.5927 0.0000 0.0000 0.0000
# 3 86.4612 28.5927 155.2543 0.0000 0.0000 0.0000
# 4 0.0000 0.0000 0.0000 20.3242 0.0000 0.0000
# 5 0.0000 0.0000 0.0000 0.0000 -6.9448 0.0000
# 6 0.0000 0.0000 0.0000 0.0000 0.0000 18.4985
#
#
#
# Elastic Compliance Matrix: (Units=1/GPa)
#
#
# Indices 1 2 3 4 5 6 
#
# 1 0.012437 0.001454 -0.007194 0.000000 0.000000 0.000000
# 2 0.001454 0.035462 -0.007341 0.000000 0.000000 0.000000
# 3 -0.007194 -0.007341 0.011799 0.000000 0.000000 0.000000
# 4 0.000000 0.000000 0.000000 0.049202 0.000000 0.000000
# 5 0.000000 0.000000 0.000000 0.000000 -0.143992 0.000000
# 6 0.000000 0.000000 0.000000 0.000000 0.000000 0.054058
#
#
# Mechanical properties :
#
#
# Convention : Reuss Voigt Hill
#
# Bulk Modulus (GPa) = 29.81758 63.68042 46.74900
# Shear Modulus (GPa) = 88.79826 19.05109 53.92468
#
# Velocity S-wave (km/s) = 6.70588 3.10609 5.22574
# Velocity P-wave (km/s) = 8.66364 6.71658 7.75149
#
# Compressibility (1/GPa) = 0.03353726
#
# Stress axis : x y z
#
# Youngs Moduli (GPa) = 80.40314 28.19937 84.74977
#
# Poissons Ratio (x) = -0.04101 0.60971
# Poissons Ratio (y) = -0.11694 0.62214
# Poissons Ratio (z) = 0.57844 0.20701
#
# Static dielectric constant tensor:
#      x y z
#    x 1.687600 0.000000 0.000000 
#    y 0.000000 1.718700 0.000000 
#    z 0.000000 0.000000 1.714520 
# 
# From -- ./inp_files/15409.got.cif
#   From: 2010.05.17/outbox.cif.g08.bks.cpg/sg71_8_cif.got.tgz:15409.got - 2010.06.03 16:22:01.
