data_PCOD9523531
_publ_section_title
;
Structure prediction by ZEFSAII (Michael W. Deem and Ramdas Pophale) SiO2 
 PCOD9523531
Probable space group: I M M M
;
_chemical_formula_sum "Si O2"
_cell_formula_units_Z 90
_cell_length_a 9.050501
_cell_length_b 28.414802
_cell_length_c 19.613085
_cell_angle_alpha 90.000000
_cell_angle_beta 90.000000
_cell_angle_gamma 90.000000
_cell_volume 5043.861647
_symmetry_space_group_name_H-M "I M M M"
_symmetry_group_IT_number 71
_symmetry_cell_setting 'orthorhombic'
loop_
_space_group_symop_operation_xyz
x,y,z
-x,-y,z
x,-y,-z
-x,y,-z
-x,-y,-z
x,y,-z
-x,y,z
x,-y,z
1/2+x,1/2+y,1/2+z
1/2-x,1/2-y,1/2+z
1/2+x,1/2-y,1/2-z
1/2-x,1/2+y,1/2-z
1/2-x,1/2-y,1/2-z
1/2+x,1/2+y,1/2-z
1/2-x,1/2+y,1/2+z
1/2+x,1/2-y,1/2+z
loop_
_atom_site_type_symbol
_atom_site_label
_atom_site_fract_x
_atom_site_fract_y
_atom_site_fract_z
Si Si1 0.822269 0.685029 0.419886
Si Si2 0.822284 0.738199 0.177090
Si Si3 0.822814 0.402875 0.327827
Si Si4 0.661963 0.500000 0.358377
Si Si5 0.000000 0.000000 0.000000
Si Si6 0.323005 0.869954 0.324112
Si Si7 0.677707 0.446807 0.920342
O O1 0.788036 0.685657 0.500000
O O2 0.741047 0.726122 0.378775
O O3 0.781183 0.635216 0.385410
O O4 0.000000 0.690553 0.411611
O O5 0.750000 0.750000 0.250000
O O6 0.784462 0.684060 0.159983
O O7 0.000000 0.742029 0.182061
O O8 0.747308 0.452842 0.338874
O O9 0.782905 0.381451 0.254175
O O10 0.000000 0.408492 0.329852
O O11 0.500000 0.500000 0.323718
O O12 0.625973 0.500000 0.438929
O O13 0.500000 0.874401 0.329672
O O14 0.248224 0.907253 0.373648
O O15 0.500000 0.444563 0.915677
O O16 0.723101 0.500000 0.900210
O O17 0.716966 0.440297 0.000000
#
# Coordination Sequence:
#
# PCOD9523531 Si02
#       7
#    16  16  16   8   2  16  16
#     4  10  22  40  63  89 119 156 200 245 292 352
#     4  11  22  40  61  85 119 155 195 245 298 351
#     4  10  21  40  61  86 118 157 198 244 292 350
#     4  10  23  39  57  83 120 153 195 243 298 344
#     4   8  24  44  54  80 128 160 180 268 292 340
#     4  10  22  38  60  87 118 151 193 242 290 347
#     4   9  20  39  60  85 119 155 193 236 285 345
#
# _framework density 17.84347
#
# number of rings (size 3 to 8) (size 9 to 14) (size 15 to 20)
#    0.267    1.778    1.778    1.333    2.489    4.622 
#    0.000    4.889    0.000    0.000    0.000    0.000 
#    0.000    0.000    0.000    0.000    0.000    0.000 
#
# Total GULP energy -250901.147325 kJ/mol
# GULP energy per Si atom -5575.581052 kJ/mol
# Density = 1.780286 g / cm^3
# Si number density = 17.843470 Si / 1000 Ang^3
#
#
#
# Elastic Constant Matrix: (Units=GPa)
#
#
# Indices 1 2 3 4 5 6 
#
# 1 37.6104 68.7170 50.2601 0.0000 0.0000 0.0000
# 2 68.7170 197.5348 98.8873 0.0000 0.0000 0.0000
# 3 50.2601 98.8873 109.4735 0.0001 0.0000 0.0000
# 4 0.0000 0.0000 0.0001 31.3675 0.0000 0.0000
# 5 0.0000 0.0000 0.0000 0.0000 33.1829 0.0000
# 6 0.0000 0.0000 0.0000 0.0000 0.0000 35.8415
#
#
#
# Elastic Compliance Matrix: (Units=1/GPa)
#
#
# Indices 1 2 3 4 5 6 
#
# 1 0.105139 -0.022655 -0.027806 0.000000 0.000000 0.000000
# 2 -0.022655 0.014123 -0.002356 0.000000 0.000000 0.000000
# 3 -0.027806 -0.002356 0.024029 0.000000 0.000000 0.000000
# 4 0.000000 0.000000 0.000000 0.031880 0.000000 0.000000
# 5 0.000000 0.000000 0.000000 0.000000 0.030136 0.000000
# 6 0.000000 0.000000 0.000000 0.000000 0.000000 0.027901
#
#
# Mechanical properties :
#
#
# Convention : Reuss Voigt Hill
#
# Bulk Modulus (GPa) = 26.55572 86.70528 56.63050
# Shear Modulus (GPa) = 14.22904 28.52865 21.37885
#
# Velocity S-wave (km/s) = 2.82696 4.00287 3.46516
# Velocity P-wave (km/s) = 5.05673 8.37028 6.91492
#
# Compressibility (1/GPa) = 0.03765668
#
# Stress axis : x y z
#
# Youngs Moduli (GPa) = 9.51121 70.80621 41.61690
#
# Poissons Ratio (x) = 1.60414 1.15719
# Poissons Ratio (y) = 0.21548 0.09805
# Poissons Ratio (z) = 0.26447 0.16683
#
# Static dielectric constant tensor:
#      x y z
#    x 1.603820 0.000000 0.000000 
#    y 0.000000 1.585970 0.000000 
#    z 0.000000 0.000000 1.588580 
# 
# From -- ./inp_files/50605.got.cif
#   From: 2010.05.17/outbox.cif.g08.bks.cpg/sg71_26_cif.got.tgz:50605.got - 2010.06.03 16:22:01.
