data_PCOD9523127
_publ_section_title
;
Structure prediction by ZEFSAII (Michael W. Deem and Ramdas Pophale) SiO2 
 PCOD9523127
Probable space group: I M M M
;
_chemical_formula_sum "Si O2"
_cell_formula_units_Z 120
_cell_length_a 7.664798
_cell_length_b 27.968496
_cell_length_c 28.595810
_cell_angle_alpha 90.000000
_cell_angle_beta 90.000000
_cell_angle_gamma 90.000000
_cell_volume 6130.165923
_symmetry_space_group_name_H-M "I M M M"
_symmetry_group_IT_number 71
_symmetry_cell_setting 'orthorhombic'
loop_
_space_group_symop_operation_xyz
x,y,z
-x,-y,z
x,-y,-z
-x,y,-z
-x,-y,-z
x,y,-z
-x,y,z
x,-y,z
1/2+x,1/2+y,1/2+z
1/2-x,1/2-y,1/2+z
1/2+x,1/2-y,1/2-z
1/2-x,1/2+y,1/2-z
1/2-x,1/2-y,1/2-z
1/2+x,1/2+y,1/2-z
1/2-x,1/2+y,1/2+z
1/2+x,1/2-y,1/2+z
loop_
_atom_site_type_symbol
_atom_site_label
_atom_site_fract_x
_atom_site_fract_y
_atom_site_fract_z
Si Si1 0.286464 0.406906 0.112276
Si Si2 0.206906 0.206373 0.947736
Si Si3 0.286533 0.500000 0.054085
Si Si4 0.793942 0.649166 0.357242
Si Si5 0.295045 0.053684 0.816455
Si Si6 0.289528 0.699178 0.108248
Si Si7 0.710157 0.555481 0.788726
Si Si8 0.709629 0.241523 0.803849
O O1 0.500000 0.407800 0.111447
O O2 0.229855 0.451917 0.081045
O O3 0.228121 0.354236 0.096942
O O4 0.232987 0.415070 0.166152
O O5 0.276316 0.169275 0.909423
O O6 0.241483 0.259613 0.928268
O O7 0.000000 0.199781 0.949155
O O8 0.278028 0.200580 0.000000
O O9 0.500000 0.500000 0.055021
O O10 0.232906 0.500000 0.000000
O O11 0.719285 0.596740 0.347178
O O12 0.721936 0.690753 0.323316
O O13 0.000000 0.645913 0.346890
O O14 0.500000 0.049295 0.827495
O O15 0.279629 0.068908 0.762112
O O16 0.218634 0.000000 0.820758
O O17 0.500000 0.697273 0.109493
O O18 0.229325 0.718047 0.159344
O O19 0.500000 0.558113 0.786281
O O20 0.757720 0.500000 0.796952
O O21 0.500000 0.240620 0.808117
O O22 0.750000 0.250000 0.750000
#
# Coordination Sequence:
#
# PCOD9523127 Si02
#       8
#    16  16   8  16  16  16  16  16
#     4   9  16  28  44  66  98 130 166 213 255 297
#     4  10  21  37  56  77  99 124 161 209 257 304
#     4   9  16  26  42  66  95 127 165 213 264 301
#     4   9  19  35  53  75 103 134 168 203 242 294
#     4   9  18  32  50  75 107 137 166 202 239 284
#     4   9  19  33  49  71  99 131 169 208 250 301
#     4   9  16  27  45  68  97 135 171 204 244 288
#     4   9  18  30  43  65  96 130 164 200 241 287
#
# _framework density 19.575327000000001
#
# number of rings (size 3 to 8) (size 9 to 14) (size 15 to 20)
#    0.000    2.867    0.667    1.200    1.867    4.267 
#    0.000    2.000    0.000    0.400    0.000    2.800 
#    0.000    2.133    0.000    0.000    0.000    0.000 
#
# Total GULP energy -334543.980234 kJ/mol
# GULP energy per Si atom -5575.733004 kJ/mol
# Density = 1.953077 g / cm^3
# Si number density = 19.575327 Si / 1000 Ang^3
#
#
#
# Elastic Constant Matrix: (Units=GPa)
#
#
# Indices 1 2 3 4 5 6 
#
# 1 29.8464 6.3677 -8.7771 0.0000 0.0000 0.0000
# 2 6.3677 158.4804 84.9637 0.0000 0.0000 0.0000
# 3 -8.7771 84.9637 122.3826 0.0000 0.0000 0.0000
# 4 0.0000 0.0000 0.0000 11.7560 0.0000 0.0000
# 5 0.0000 0.0000 0.0000 0.0000 27.3790 0.0000
# 6 0.0000 0.0000 0.0000 0.0000 0.0000 1.0985
#
#
#
# Elastic Compliance Matrix: (Units=1/GPa)
#
#
# Indices 1 2 3 4 5 6 
#
# 1 0.036158 -0.004529 0.005737 0.000000 0.000000 0.000000
# 2 -0.004529 0.010618 -0.007696 0.000000 0.000000 0.000000
# 3 0.005737 -0.007696 0.013926 0.000000 0.000000 0.000000
# 4 0.000000 0.000000 0.000000 0.085063 0.000000 0.000000
# 5 0.000000 0.000000 0.000000 0.000000 0.036524 0.000000
# 6 0.000000 0.000000 0.000000 0.000000 0.000000 0.910327
#
#
# Mechanical properties :
#
#
# Convention : Reuss Voigt Hill
#
# Bulk Modulus (GPa) = 20.95274 52.86866 36.91070
# Shear Modulus (GPa) = 4.45831 23.25706 13.85769
#
# Velocity S-wave (km/s) = 1.51078 3.45059 2.66356
# Velocity P-wave (km/s) = 3.71082 6.55301 5.32504
#
# Compressibility (1/GPa) = 0.04772645
#
# Stress axis : x y z
#
# Youngs Moduli (GPa) = 27.65624 94.17994 71.80983
#
# Poissons Ratio (x) = 0.42651 -0.41199
# Poissons Ratio (y) = 0.12524 0.55267
# Poissons Ratio (z) = -0.15867 0.72483
#
# Static dielectric constant tensor:
#      x y z
#    x 1.725520 0.000000 0.000000 
#    y 0.000000 1.713730 0.000000 
#    z 0.000000 0.000000 1.671320 
# 
# From -- ./inp_files/63786.got.cif
#   From: 2010.05.17/outbox.cif.g08.bks.cpg/sg71_32_cif.got.tgz:63786.got - 2010.06.03 16:22:01.
