data_PCOD9523935
_publ_section_title
;
Structure prediction by ZEFSAII (Michael W. Deem and Ramdas Pophale) SiO2 
 PCOD9523935
Probable space group: I M M M
;
_chemical_formula_sum "Si O2"
_cell_formula_units_Z 66
_cell_length_a 14.428044
_cell_length_b 10.288031
_cell_length_c 26.327658
_cell_angle_alpha 90.000000
_cell_angle_beta 90.000000
_cell_angle_gamma 90.000000
_cell_volume 3907.976559
_symmetry_space_group_name_H-M "I M M M"
_symmetry_group_IT_number 71
_symmetry_cell_setting 'orthorhombic'
loop_
_space_group_symop_operation_xyz
x,y,z
-x,-y,z
x,-y,-z
-x,y,-z
-x,-y,-z
x,y,-z
-x,y,z
x,-y,z
1/2+x,1/2+y,1/2+z
1/2-x,1/2-y,1/2+z
1/2+x,1/2-y,1/2-z
1/2-x,1/2+y,1/2-z
1/2-x,1/2-y,1/2-z
1/2+x,1/2+y,1/2-z
1/2-x,1/2+y,1/2+z
1/2+x,1/2-y,1/2+z
loop_
_atom_site_type_symbol
_atom_site_label
_atom_site_fract_x
_atom_site_fract_y
_atom_site_fract_z
Si Si1 0.388778 0.652172 0.787055
Si Si2 0.500000 0.500000 0.000000
Si Si3 0.889060 0.500000 0.438871
Si Si4 0.286694 0.237093 0.882813
Si Si5 0.894934 0.843348 0.828176
Si Si6 0.191866 0.000000 0.444325
O O1 0.500000 0.656702 0.793088
O O2 0.360840 0.500000 0.792240
O O3 0.340675 0.735959 0.830254
O O4 0.369068 0.697246 0.729457
O O5 0.582115 0.500000 0.956663
O O6 0.877687 0.500000 0.500000
O O7 0.839989 0.625941 0.414406
O O8 0.000000 0.500000 0.428639
O O9 0.182696 0.198335 0.867643
O O10 0.285866 0.370235 0.914072
O O11 0.000000 0.798378 0.839182
O O12 0.897189 0.000000 0.826826
O O13 0.238059 0.000000 0.500000
#
# Coordination Sequence:
#
# PCOD9523935 Si02
#       6
#    16   2   8  16  16   8
#     4   9  18  31  55  85 116 148 186 225 272 340
#     4   8  24  40  56  90 114 148 184 238 264 352
#     4  11  26  38  54  82 119 146 180 236 295 333
#     4  12  20  37  59  84 112 152 190 229 279 343
#     4   9  19  37  56  82 114 150 191 233 275 329
#     4  10  24  36  60  82 114 145 188 227 281 338
#
# _framework density 16.888535999999998
#
# number of rings (size 3 to 8) (size 9 to 14) (size 15 to 20)
#    0.364    1.576    2.424    3.636    3.394    0.000 
#    0.000    0.606    0.000    7.273    0.000    0.000 
#    0.000    0.000    0.000    0.000    0.000    0.000 
#
# Total GULP energy -183758.821284 kJ/mol
# GULP energy per Si atom -5568.449130 kJ/mol
# Density = 1.685010 g / cm^3
# Si number density = 16.888536 Si / 1000 Ang^3
#
#
#
# Elastic Constant Matrix: (Units=GPa)
#
#
# Indices 1 2 3 4 5 6 
#
# 1 100.2590 48.9140 85.0492 0.0000 0.0000 0.0000
# 2 48.9140 97.9002 63.3587 0.0000 0.0000 0.0000
# 3 85.0492 63.3587 115.2281 0.0000 0.0000 0.0000
# 4 0.0000 0.0000 0.0000 -44.1799 0.0000 0.0000
# 5 0.0000 0.0000 0.0000 0.0000 30.3558 0.0000
# 6 0.0000 0.0000 0.0000 0.0000 0.0000 9.0106
#
#
#
# Elastic Compliance Matrix: (Units=1/GPa)
#
#
# Indices 1 2 3 4 5 6 
#
# 1 0.026730 -0.000911 -0.019228 0.000000 0.000000 0.000000
# 2 -0.000911 0.015888 -0.008064 0.000000 0.000000 0.000000
# 3 -0.019228 -0.008064 0.027305 0.000000 0.000000 0.000000
# 4 0.000000 0.000000 0.000000 -0.022635 0.000000 0.000000
# 5 0.000000 0.000000 0.000000 0.000000 0.032943 0.000000
# 6 0.000000 0.000000 0.000000 0.000000 0.000000 0.110980
#
#
# Mechanical properties :
#
#
# Convention : Reuss Voigt Hill
#
# Bulk Modulus (GPa) = 73.98293 78.67012 76.32652
# Shear Modulus (GPa) = 19.83160 6.77498 13.30329
#
# Velocity S-wave (km/s) = 3.43047 2.00507 2.80966
# Velocity P-wave (km/s) = 7.71962 7.21412 7.47115
#
# Compressibility (1/GPa) = 0.01351663
#
# Stress axis : x y z
#
# Youngs Moduli (GPa) = 37.41146 62.93890 36.62385
#
# Poissons Ratio (x) = 0.05734 0.70421
# Poissons Ratio (y) = 0.03408 0.29533
# Poissons Ratio (z) = 0.71935 0.50753
#
# Static dielectric constant tensor:
#      x y z
#    x 1.555760 0.000000 0.000000 
#    y 0.000000 1.561430 0.000000 
#    z 0.000000 0.000000 1.581130 
# 
# From -- ./inp_files/39913.got.cif
#   From: 2010.05.17/outbox.cif.g08.bks.cpg/sg71_20_cif.got.tgz:39913.got - 2010.06.03 16:22:01.
