data_PCOD9523024
_publ_section_title
;
Structure prediction by ZEFSAII (Michael W. Deem and Ramdas Pophale) SiO2 
 PCOD9523024
Probable space group: I M M M
;
_chemical_formula_sum "Si O2"
_cell_formula_units_Z 112
_cell_length_a 15.071097
_cell_length_b 26.157554
_cell_length_c 14.725315
_cell_angle_alpha 90.000000
_cell_angle_beta 90.000000
_cell_angle_gamma 90.000000
_cell_volume 5805.058350
_symmetry_space_group_name_H-M "I M M M"
_symmetry_group_IT_number 71
_symmetry_cell_setting 'orthorhombic'
loop_
_space_group_symop_operation_xyz
x,y,z
-x,-y,z
x,-y,-z
-x,y,-z
-x,-y,-z
x,y,-z
-x,y,z
x,-y,z
1/2+x,1/2+y,1/2+z
1/2-x,1/2-y,1/2+z
1/2+x,1/2-y,1/2-z
1/2-x,1/2+y,1/2-z
1/2-x,1/2-y,1/2-z
1/2+x,1/2+y,1/2-z
1/2-x,1/2+y,1/2+z
1/2+x,1/2-y,1/2+z
loop_
_atom_site_type_symbol
_atom_site_label
_atom_site_fract_x
_atom_site_fract_y
_atom_site_fract_z
Si Si1 0.105657 0.844867 0.901373
Si Si2 0.607567 0.910679 0.106863
Si Si3 0.350421 0.750246 0.720842
Si Si4 0.294081 0.057819 0.286504
Si Si5 0.102969 0.705262 0.402727
Si Si6 0.394970 0.852320 0.392200
Si Si7 0.897572 0.059159 0.783935
O O1 0.132797 0.801974 0.830772
O O2 0.120990 0.901502 0.864737
O O3 0.000000 0.839411 0.908910
O O4 0.146880 0.836467 0.000000
O O5 0.500000 0.915455 0.123291
O O6 0.662655 0.939125 0.185038
O O7 0.639504 0.851349 0.117642
O O8 0.621556 0.924497 0.000000
O O9 0.250000 0.750000 0.750000
O O10 0.394729 0.757157 0.818575
O O11 0.374514 0.798610 0.657869
O O12 0.340177 0.101992 0.345565
O O13 0.187331 0.066030 0.281607
O O14 0.310062 0.000000 0.320865
O O15 0.138724 0.724254 0.500000
O O16 0.000000 0.693824 0.414390
O O17 0.376965 0.848455 0.500000
O O18 0.500000 0.862345 0.379923
O O19 0.000000 0.069095 0.751110
O O20 0.895375 0.000000 0.812776
#
# Coordination Sequence:
#
# PCOD9523024 Si02
#       7
#    16  16  16  16  16  16  16
#     4  10  21  36  56  83 113 149 194 241 289 349
#     4   9  18  33  54  82 117 155 197 246 301 363
#     4  12  23  36  56  84 119 156 197 248 297 351
#     4  11  22  37  60  91 121 157 209 261 303 357
#     4   9  18  34  56  78 105 148 197 239 287 350
#     4  11  24  42  63  88 125 171 209 246 301 363
#     4   9  20  40  62  85 118 157 196 245 310 374
#
# _framework density 19.293517999999999
#
# number of rings (size 3 to 8) (size 9 to 14) (size 15 to 20)
#    0.000    1.857    1.429    3.857    0.000    4.857 
#    0.000    4.286    0.000    0.429    0.000    2.000 
#    0.000    0.000    0.000    0.000    0.000    0.286 
#
# Total GULP energy -312115.846214 kJ/mol
# GULP energy per Si atom -5573.497254 kJ/mol
# Density = 1.924960 g / cm^3
# Si number density = 19.293518 Si / 1000 Ang^3
#
#
#
# Elastic Constant Matrix: (Units=GPa)
#
#
# Indices 1 2 3 4 5 6 
#
# 1 77.0370 39.4543 38.8927 0.0001 0.0000 0.0000
# 2 39.4543 83.2378 61.0357 0.0003 0.0003 0.0000
# 3 38.8927 61.0357 107.5597 0.0009 0.0007 0.0000
# 4 0.0001 0.0003 0.0009 -13.8679 0.0007 0.0000
# 5 0.0000 0.0003 0.0007 0.0007 -559.9463 0.0000
# 6 0.0000 0.0000 0.0000 0.0000 0.0000 29.2875
#
#
#
# Elastic Compliance Matrix: (Units=1/GPa)
#
#
# Indices 1 2 3 4 5 6 
#
# 1 0.017619 -0.006302 -0.002795 0.000000 0.000000 0.000000
# 2 -0.006302 0.022829 -0.010676 0.000000 0.000000 0.000000
# 3 -0.002795 -0.010676 0.016366 0.000001 0.000000 0.000000
# 4 0.000000 0.000000 0.000001 -0.072109 0.000000 0.000000
# 5 0.000000 0.000000 0.000000 0.000000 -0.001786 0.000000
# 6 0.000000 0.000000 0.000000 0.000000 0.000000 0.034144
#
#
# Mechanical properties :
#
#
# Convention : Reuss Voigt Hill
#
# Bulk Modulus (GPa) = 57.90774 60.73332 59.32053
# Shear Modulus (GPa) = 80.17206 -100.34190 -10.08492
#
# Velocity S-wave (km/s) = 6.45322 -7.21949 -2.28877
# Velocity P-wave (km/s) = 9.25228 6.16017 4.88144
#
# Compressibility (1/GPa) = 0.01726885
#
# Stress axis : x y z
#
# Youngs Moduli (GPa) = 56.75566 43.80355 61.10286
#
# Poissons Ratio (x) = 0.27606 0.17077
# Poissons Ratio (y) = 0.35768 0.65232
# Poissons Ratio (z) = 0.15862 0.46764
#
# Static dielectric constant tensor:
#      x y z
#    x 1.627450 0.000000 0.000000 
#    y 0.000000 1.792280 0.000000 
#    z 0.000000 0.000000 1.661900 
# 
# From -- ./inp_files/35164.got.cif
#   From: 2010.05.17/outbox.cif.g08.bks.cpg/sg71_18_cif.got.tgz:35164.got - 2010.06.03 16:22:01.
