data_PCOD9523348
_publ_section_title
;
Structure prediction by ZEFSAII (Michael W. Deem and Ramdas Pophale) SiO2 
 PCOD9523348
Probable space group: I M M M
;
_chemical_formula_sum "Si O2"
_cell_formula_units_Z 88
_cell_length_a 24.804751
_cell_length_b 19.193960
_cell_length_c 9.481254
_cell_angle_alpha 90.000000
_cell_angle_beta 90.000000
_cell_angle_gamma 90.000000
_cell_volume 4514.038289
_symmetry_space_group_name_H-M "I M M M"
_symmetry_group_IT_number 71
_symmetry_cell_setting 'orthorhombic'
loop_
_space_group_symop_operation_xyz
x,y,z
-x,-y,z
x,-y,-z
-x,y,-z
-x,-y,-z
x,y,-z
-x,y,z
x,-y,z
1/2+x,1/2+y,1/2+z
1/2-x,1/2-y,1/2+z
1/2+x,1/2-y,1/2-z
1/2-x,1/2+y,1/2-z
1/2-x,1/2-y,1/2-z
1/2+x,1/2+y,1/2-z
1/2-x,1/2+y,1/2+z
1/2+x,1/2-y,1/2+z
loop_
_atom_site_type_symbol
_atom_site_label
_atom_site_fract_x
_atom_site_fract_y
_atom_site_fract_z
Si Si1 0.939076 0.083571 0.667492
Si Si2 0.434517 0.000000 0.158995
Si Si3 0.438420 0.864684 0.335397
Si Si4 0.337376 0.640905 0.668164
Si Si5 0.330044 0.203991 0.334172
Si Si6 0.775507 0.577982 0.331766
O O1 0.933588 0.096741 0.500000
O O2 0.891352 0.119978 0.751722
O O3 0.000000 0.104748 0.709896
O O4 0.935178 0.000000 0.687916
O O5 0.420474 0.930222 0.242083
O O6 0.500000 0.000000 0.153730
O O7 0.413429 0.000000 0.000000
O O8 0.437997 0.886050 0.500000
O O9 0.500000 0.845602 0.298929
O O10 0.394762 0.804522 0.319239
O O11 0.347722 0.643952 0.500000
O O12 0.316589 0.717810 0.711786
O O13 0.288549 0.587552 0.692709
O O14 0.316548 0.196089 0.500000
O O15 0.303954 0.141137 0.248353
O O16 0.784426 0.584835 0.500000
O O17 0.792635 0.500000 0.288194
#
# Coordination Sequence:
#
# PCOD9523348 Si02
#       6
#    16   8  16  16  16  16
#     4   9  19  36  58  87 122 156 191 231 275 327
#     4   9  17  29  47  71  97 129 173 219 260 309
#     4   9  18  33  51  72 103 140 175 217 270 322
#     4  10  21  38  59  84 115 150 188 231 282 338
#     4  10  22  37  56  83 111 144 188 234 279 337
#     4  10  22  39  58  81 110 145 185 234 290 341
#
# _framework density 19.494738000000002
#
# number of rings (size 3 to 8) (size 9 to 14) (size 15 to 20)
#    0.000    2.455    0.000    1.909    1.273    5.818 
#    0.000    2.727    0.000    2.182    0.000    0.000 
#    0.000    0.000    0.000    0.000    0.000    0.000 
#
# Total GULP energy -245561.545572 kJ/mol
# GULP energy per Si atom -5580.944218 kJ/mol
# Density = 1.945037 g / cm^3
# Si number density = 19.494738 Si / 1000 Ang^3
#
#
#
# Elastic Constant Matrix: (Units=GPa)
#
#
# Indices 1 2 3 4 5 6 
#
# 1 92.1835 37.0362 36.1685 0.0000 0.0000 0.0000
# 2 37.0362 89.7749 31.6153 0.0000 0.0000 0.0000
# 3 36.1685 31.6153 34.0397 0.0000 0.0000 0.0000
# 4 0.0000 0.0000 0.0000 23.9748 0.0000 0.0000
# 5 0.0000 0.0000 0.0000 0.0000 30.4663 0.0000
# 6 0.0000 0.0000 0.0000 0.0000 0.0000 30.3914
#
#
#
# Elastic Compliance Matrix: (Units=1/GPa)
#
#
# Indices 1 2 3 4 5 6 
#
# 1 0.018672 -0.001064 -0.018851 0.000000 0.000000 0.000000
# 2 -0.001064 0.016614 -0.014300 0.000000 0.000000 0.000000
# 3 -0.018851 -0.014300 0.062688 0.000000 0.000000 0.000000
# 4 0.000000 0.000000 0.000000 0.041710 0.000000 0.000000
# 5 0.000000 0.000000 0.000000 0.000000 0.032823 0.000000
# 6 0.000000 0.000000 0.000000 0.000000 0.000000 0.032904
#
#
# Mechanical properties :
#
#
# Convention : Reuss Voigt Hill
#
# Bulk Modulus (GPa) = 33.84755 47.29311 40.57033
# Shear Modulus (GPa) = 17.62491 24.37838 21.00165
#
# Velocity S-wave (km/s) = 3.01006 3.54009 3.28578
# Velocity P-wave (km/s) = 5.42962 6.40482 5.93728
#
# Compressibility (1/GPa) = 0.02954423
#
# Stress axis : x y z
#
# Youngs Moduli (GPa) = 53.55680 60.19082 15.95194
#
# Poissons Ratio (x) = 0.06407 0.30071
# Poissons Ratio (y) = 0.05701 0.22811
# Poissons Ratio (z) = 1.00959 0.86070
#
# Static dielectric constant tensor:
#      x y z
#    x 1.701890 0.000000 0.000000 
#    y 0.000000 1.673410 0.000000 
#    z 0.000000 0.000000 1.653750 
# 
# From -- ./inp_files/12497.got.cif
#   From: 2010.05.17/outbox.cif.g08.bks.cpg/sg71_7_cif.got.tgz:12497.got - 2010.06.03 16:22:01.
