data_PCOD9523668
_publ_section_title
;
Structure prediction by ZEFSAII (Michael W. Deem and Ramdas Pophale) SiO2 
 PCOD9523668
Probable space group: I M M M
;
_chemical_formula_sum "Si O2"
_cell_formula_units_Z 96
_cell_length_a 16.406189
_cell_length_b 20.477615
_cell_length_c 14.014238
_cell_angle_alpha 90.000000
_cell_angle_beta 90.000000
_cell_angle_gamma 90.000000
_cell_volume 4708.218101
_symmetry_space_group_name_H-M "I M M M"
_symmetry_group_IT_number 71
_symmetry_cell_setting 'orthorhombic'
loop_
_space_group_symop_operation_xyz
x,y,z
-x,-y,z
x,-y,-z
-x,y,-z
-x,-y,-z
x,y,-z
-x,y,z
x,-y,z
1/2+x,1/2+y,1/2+z
1/2-x,1/2-y,1/2+z
1/2+x,1/2-y,1/2-z
1/2-x,1/2+y,1/2-z
1/2-x,1/2-y,1/2-z
1/2+x,1/2+y,1/2-z
1/2-x,1/2+y,1/2+z
1/2+x,1/2-y,1/2+z
loop_
_atom_site_type_symbol
_atom_site_label
_atom_site_fract_x
_atom_site_fract_y
_atom_site_fract_z
Si Si1 0.665385 0.426278 0.388154
Si Si2 0.093572 0.425869 0.188088
Si Si3 0.904325 0.618567 0.604616
Si Si4 0.249478 0.149930 0.614213
Si Si5 0.235869 0.295429 0.612182
Si Si6 0.409893 0.423836 0.192142
O O1 0.641742 0.420291 0.500000
O O2 0.702056 0.500000 0.377988
O O3 0.721650 0.364154 0.361506
O O4 0.596279 0.422985 0.307687
O O5 0.097339 0.500000 0.153191
O O6 0.107974 0.424890 0.302390
O O7 0.166997 0.385569 0.143211
O O8 0.000000 0.401761 0.171813
O O9 0.875240 0.593433 0.500000
O O10 0.858898 0.686788 0.622157
O O11 0.000000 0.628225 0.598044
O O12 0.243176 0.149930 0.500000
O O13 0.255307 0.224439 0.652070
O O14 0.167682 0.115347 0.652814
O O15 0.255026 0.289533 0.500000
O O16 0.500000 0.400408 0.162484
O O17 0.401777 0.500000 0.163232
#
# Coordination Sequence:
#
# PCOD9523668 Si02
#       6
#    16  16  16  16  16  16
#     4   9  18  35  60  87 116 149 180 219 280 348
#     4  10  22  39  60  88 116 145 191 242 284 338
#     4   9  18  33  54  82 117 151 179 219 282 348
#     4  11  24  41  59  79 111 155 198 244 293 330
#     4   9  19  35  55  82 114 149 193 237 276 333
#     4  10  22  38  57  86 118 148 192 242 284 338
#
# _framework density 20.389880000000002
#
# number of rings (size 3 to 8) (size 9 to 14) (size 15 to 20)
#    0.000    2.333    0.000    1.500    0.000    8.000 
#    0.000   10.833    0.000    3.000    0.000    0.000 
#    0.000    0.000    0.000    0.000    0.000    0.000 
#
# Total GULP energy -267351.808911 kJ/mol
# GULP energy per Si atom -5569.829352 kJ/mol
# Density = 2.034347 g / cm^3
# Si number density = 20.389880 Si / 1000 Ang^3
#
#
#
# Elastic Constant Matrix: (Units=GPa)
#
#
# Indices 1 2 3 4 5 6 
#
# 1 115.8319 77.2433 52.5459 0.0000 0.0000 0.0000
# 2 77.2433 134.2411 33.0663 0.0000 0.0000 0.0000
# 3 52.5459 33.0663 83.4874 0.0000 0.0000 0.0000
# 4 0.0000 0.0000 0.0000 17.4963 0.0000 0.0000
# 5 0.0000 0.0000 0.0000 0.0000 20.3724 0.0000
# 6 0.0000 0.0000 0.0000 0.0000 0.0000 17.5347
#
#
#
# Elastic Compliance Matrix: (Units=1/GPa)
#
#
# Indices 1 2 3 4 5 6 
#
# 1 0.017708 -0.008249 -0.007878 0.000000 0.000000 0.000000
# 2 -0.008249 0.012097 0.000400 0.000000 0.000000 0.000000
# 3 -0.007878 0.000400 0.016778 0.000000 0.000000 0.000000
# 4 0.000000 0.000000 0.000000 0.057155 0.000000 0.000000
# 5 0.000000 0.000000 0.000000 0.000000 0.049086 0.000000
# 6 0.000000 0.000000 0.000000 0.000000 0.000000 0.057030
#
#
# Mechanical properties :
#
#
# Convention : Reuss Voigt Hill
#
# Bulk Modulus (GPa) = 66.09474 73.25237 69.67355
# Shear Modulus (GPa) = 20.29648 22.46102 21.37875
#
# Velocity S-wave (km/s) = 3.15845 3.32260 3.24157
# Velocity P-wave (km/s) = 6.76660 7.12204 6.94659
#
# Compressibility (1/GPa) = 0.01512980
#
# Stress axis : x y z
#
# Youngs Moduli (GPa) = 56.47311 82.66561 59.60340
#
# Poissons Ratio (x) = 0.68187 0.46955
# Poissons Ratio (y) = 0.46582 -0.02386
# Poissons Ratio (z) = 0.44489 -0.03310
#
# Static dielectric constant tensor:
#      x y z
#    x 1.726590 0.000000 0.000000 
#    y 0.000000 1.688110 0.000000 
#    z 0.000000 0.000000 1.786320 
# 
# From -- ./inp_files/34520.got.cif
#   From: 2010.05.17/outbox.cif.g08.bks.cpg/sg71_18_cif.got.tgz:34520.got - 2010.06.03 16:22:01.
