data_PCOD9523818
_publ_section_title
;
Structure prediction by ZEFSAII (Michael W. Deem and Ramdas Pophale) SiO2 
 PCOD9523818
Probable space group: I M M M
;
_chemical_formula_sum "Si O2"
_cell_formula_units_Z 72
_cell_length_a 27.546406
_cell_length_b 8.707443
_cell_length_c 14.982819
_cell_angle_alpha 90.000000
_cell_angle_beta 90.000000
_cell_angle_gamma 90.000000
_cell_volume 3593.760388
_symmetry_space_group_name_H-M "I M M M"
_symmetry_group_IT_number 71
_symmetry_cell_setting 'orthorhombic'
loop_
_space_group_symop_operation_xyz
x,y,z
-x,-y,z
x,-y,-z
-x,y,-z
-x,-y,-z
x,y,-z
-x,y,z
x,-y,z
1/2+x,1/2+y,1/2+z
1/2-x,1/2-y,1/2+z
1/2+x,1/2-y,1/2-z
1/2-x,1/2+y,1/2-z
1/2-x,1/2-y,1/2-z
1/2+x,1/2+y,1/2-z
1/2-x,1/2+y,1/2+z
1/2+x,1/2-y,1/2+z
loop_
_atom_site_type_symbol
_atom_site_label
_atom_site_fract_x
_atom_site_fract_y
_atom_site_fract_z
Si Si1 0.763768 0.684746 0.653229
Si Si2 0.500000 0.815900 0.396146
Si Si3 0.087492 0.181094 0.779704
Si Si4 0.167110 0.320522 0.901172
Si Si5 0.374486 0.814847 0.898157
O O1 0.760271 0.500000 0.651809
O O2 0.750000 0.750000 0.750000
O O3 0.721737 0.759984 0.594764
O O4 0.818240 0.725925 0.623546
O O5 0.500000 0.762589 0.500000
O O6 0.546293 0.758443 0.340344
O O7 0.500000 0.000000 0.397701
O O8 0.137549 0.223902 0.829494
O O9 0.092171 0.244545 0.679223
O O10 0.080000 0.000000 0.777895
O O11 0.166376 0.500000 0.875233
O O12 0.144729 0.306772 0.000000
O O13 0.377793 0.000000 0.893074
O O14 0.385868 0.768369 0.000000
#
# Coordination Sequence:
#
# PCOD9523818 Si02
#       5
#    16   8  16  16  16
#     4  11  21  35  58  88 124 167 213 260 312 366
#     4  11  25  47  74  99 126 161 199 248 312 379
#     4  12  25  41  65  95 127 161 202 258 315 374
#     4  11  23  38  58  86 123 167 212 257 308 369
#     4  10  22  41  64  89 124 171 217 260 310 370
#
# _framework density 20.034725000000002
#
# number of rings (size 3 to 8) (size 9 to 14) (size 15 to 20)
#    0.000    1.000    2.222    5.000    0.000    7.556 
#    0.000    0.556    0.000    3.333    0.000    0.000 
#    0.000    0.000    0.000    0.000    0.000    0.000 
#
# Total GULP energy -201241.145672 kJ/mol
# GULP energy per Si atom -5590.031824 kJ/mol
# Density = 1.998912 g / cm^3
# Si number density = 20.034725 Si / 1000 Ang^3
#
#
#
# Elastic Constant Matrix: (Units=GPa)
#
#
# Indices 1 2 3 4 5 6 
#
# 1 81.3298 24.8149 58.1767 0.0000 0.0000 0.0000
# 2 24.8149 72.6111 53.3675 0.0000 0.0000 0.0000
# 3 58.1767 53.3675 184.4766 0.0000 0.0000 0.0000
# 4 0.0000 0.0000 0.0000 15.1110 0.0000 0.0000
# 5 0.0000 0.0000 0.0000 0.0000 26.2147 0.0000
# 6 0.0000 0.0000 0.0000 0.0000 0.0000 31.8373
#
#
#
# Elastic Compliance Matrix: (Units=1/GPa)
#
#
# Indices 1 2 3 4 5 6 
#
# 1 0.016163 -0.002257 -0.004444 0.000000 0.000000 0.000000
# 2 -0.002257 0.017806 -0.004439 0.000000 0.000000 0.000000
# 3 -0.004444 -0.004439 0.008107 0.000000 0.000000 0.000000
# 4 0.000000 0.000000 0.000000 0.066177 0.000000 0.000000
# 5 0.000000 0.000000 0.000000 0.000000 0.038146 0.000000
# 6 0.000000 0.000000 0.000000 0.000000 0.000000 0.031410
#
#
# Mechanical properties :
#
#
# Convention : Reuss Voigt Hill
#
# Bulk Modulus (GPa) = 50.51967 67.90397 59.21182
# Shear Modulus (GPa) = 24.19090 28.10318 26.14704
#
# Velocity S-wave (km/s) = 3.47861 3.74936 3.61652
# Velocity P-wave (km/s) = 6.43468 7.26019 6.85986
#
# Compressibility (1/GPa) = 0.01979427
#
# Stress axis : x y z
#
# Youngs Moduli (GPa) = 61.86794 56.16003 123.35720
#
# Poissons Ratio (x) = 0.12678 0.54823
# Poissons Ratio (y) = 0.13966 0.54762
# Poissons Ratio (z) = 0.27496 0.24931
#
# Static dielectric constant tensor:
#      x y z
#    x 1.697940 0.000000 0.000000 
#    y 0.000000 1.665980 0.000000 
#    z 0.000000 0.000000 1.736660 
# 
# From -- ./inp_files/14341.got.cif
#   From: 2010.05.17/outbox.cif.g08.bks.cpg/sg71_8_cif.got.tgz:14341.got - 2010.06.03 16:22:01.
