data_PCOD9523638
_publ_section_title
;
Structure prediction by ZEFSAII (Michael W. Deem and Ramdas Pophale) SiO2 
 PCOD9523638
Probable space group: I M M M
;
_chemical_formula_sum "Si O2"
_cell_formula_units_Z 88
_cell_length_a 13.419865
_cell_length_b 13.358850
_cell_length_c 22.961686
_cell_angle_alpha 90.000000
_cell_angle_beta 90.000000
_cell_angle_gamma 90.000000
_cell_volume 4116.432459
_symmetry_space_group_name_H-M "I M M M"
_symmetry_group_IT_number 71
_symmetry_cell_setting 'orthorhombic'
loop_
_space_group_symop_operation_xyz
x,y,z
-x,-y,z
x,-y,-z
-x,y,-z
-x,-y,-z
x,y,-z
-x,y,z
x,-y,z
1/2+x,1/2+y,1/2+z
1/2-x,1/2-y,1/2+z
1/2+x,1/2-y,1/2-z
1/2-x,1/2+y,1/2-z
1/2-x,1/2-y,1/2-z
1/2+x,1/2+y,1/2-z
1/2-x,1/2+y,1/2+z
1/2+x,1/2-y,1/2+z
loop_
_atom_site_type_symbol
_atom_site_label
_atom_site_fract_x
_atom_site_fract_y
_atom_site_fract_z
Si Si1 0.826953 0.619287 0.435902
Si Si2 0.500000 0.880927 0.429444
Si Si3 0.114905 0.786278 0.355133
Si Si4 0.113232 0.121702 0.894644
Si Si5 0.879829 0.114505 0.763002
Si Si6 0.715589 0.120053 0.432396
O O1 0.866486 0.648373 0.500000
O O2 0.836570 0.500000 0.430439
O O3 0.876757 0.675319 0.381775
O O4 0.708801 0.645462 0.433590
O O5 0.500000 0.872534 0.500000
O O6 0.392292 0.841946 0.409301
O O7 0.500000 0.000000 0.416352
O O8 0.146002 0.809806 0.288798
O O9 0.190888 0.846229 0.395566
O O10 0.000000 0.819459 0.361144
O O11 0.143771 0.148592 0.828371
O O12 0.000000 0.154155 0.910097
O O13 0.107809 0.000000 0.894460
O O14 0.000000 0.107758 0.763483
O O15 0.842316 0.000000 0.752713
O O16 0.726516 0.148034 0.500000
O O17 0.710539 0.000000 0.430922
#
# Coordination Sequence:
#
# PCOD9523638 Si02
#       6
#    16   8  16  16  16  16
#     4  10  22  38  53  73 103 142 190 237 280 321
#     4   7  12  26  46  66  93 131 173 211 251 313
#     4  11  22  34  50  76 110 145 184 226 264 313
#     4   8  15  32  58  83 106 133 169 219 281 342
#     4   8  15  30  54  84 113 138 166 208 271 339
#     4   9  17  30  49  73 102 138 177 218 268 324
#
# _framework density 21.377734
#
# number of rings (size 3 to 8) (size 9 to 14) (size 15 to 20)
#    0.000    3.000    0.000    3.273    0.000    4.000 
#    1.636    3.636    0.000    0.000    2.364    0.000 
#    0.000    0.000    0.000    0.000    0.000    0.000 
#
# Total GULP energy -245429.043882 kJ/mol
# GULP energy per Si atom -5577.932815 kJ/mol
# Density = 2.132908 g / cm^3
# Si number density = 21.377734 Si / 1000 Ang^3
#
#
#
# Elastic Constant Matrix: (Units=GPa)
#
#
# Indices 1 2 3 4 5 6 
#
# 1 101.2210 5.4529 25.1036 0.0000 0.0000 0.0000
# 2 5.4529 66.3408 29.3980 0.0000 0.0000 0.0000
# 3 25.1036 29.3980 93.8788 0.0000 0.0000 0.0000
# 4 0.0000 0.0000 0.0000 27.9328 0.0000 0.0000
# 5 0.0000 0.0000 0.0000 0.0000 25.4345 0.0000
# 6 0.0000 0.0000 0.0000 0.0000 0.0000 36.1964
#
#
#
# Elastic Compliance Matrix: (Units=1/GPa)
#
#
# Indices 1 2 3 4 5 6 
#
# 1 0.010592 0.000446 -0.002972 0.000000 0.000000 0.000000
# 2 0.000446 0.017521 -0.005606 0.000000 0.000000 0.000000
# 3 -0.002972 -0.005606 0.013202 0.000000 0.000000 0.000000
# 4 0.000000 0.000000 0.000000 0.035800 0.000000 0.000000
# 5 0.000000 0.000000 0.000000 0.000000 0.039317 0.000000
# 6 0.000000 0.000000 0.000000 0.000000 0.000000 0.027627
#
#
# Mechanical properties :
#
#
# Convention : Reuss Voigt Hill
#
# Bulk Modulus (GPa) = 39.91665 42.37219 41.14442
# Shear Modulus (GPa) = 29.64285 31.34514 30.49399
#
# Velocity S-wave (km/s) = 3.72778 3.83332 3.78092
# Velocity P-wave (km/s) = 6.10254 6.28142 6.19263
#
# Compressibility (1/GPa) = 0.02505221
#
# Stress axis : x y z
#
# Youngs Moduli (GPa) = 94.40663 57.07352 75.74381
#
# Poissons Ratio (x) = -0.02548 0.22513
# Poissons Ratio (y) = -0.04215 0.42463
# Poissons Ratio (z) = 0.28060 0.31996
#
# Static dielectric constant tensor:
#      x y z
#    x 1.786740 0.000000 0.000000 
#    y 0.000000 1.857990 0.000000 
#    z 0.000000 0.000000 1.753080 
# 
# From -- ./inp_files/58745.got.cif
#   From: 2010.05.17/outbox.cif.g08.bks.cpg/sg71_30_cif.got.tgz:58745.got - 2010.06.03 16:22:01.
