data_PCOD9523375
_publ_section_title
;
Structure prediction by ZEFSAII (Michael W. Deem and Ramdas Pophale) SiO2 
 PCOD9523375
Probable space group: I M M M
;
_chemical_formula_sum "Si O2"
_cell_formula_units_Z 96
_cell_length_a 15.165965
_cell_length_b 14.664725
_cell_length_c 20.036766
_cell_angle_alpha 90.000000
_cell_angle_beta 90.000000
_cell_angle_gamma 90.000000
_cell_volume 4456.271053
_symmetry_space_group_name_H-M "I M M M"
_symmetry_group_IT_number 71
_symmetry_cell_setting 'orthorhombic'
loop_
_space_group_symop_operation_xyz
x,y,z
-x,-y,z
x,-y,-z
-x,y,-z
-x,-y,-z
x,y,-z
-x,y,z
x,-y,z
1/2+x,1/2+y,1/2+z
1/2-x,1/2-y,1/2+z
1/2+x,1/2-y,1/2-z
1/2-x,1/2+y,1/2-z
1/2-x,1/2-y,1/2-z
1/2+x,1/2+y,1/2-z
1/2-x,1/2+y,1/2+z
1/2+x,1/2-y,1/2+z
loop_
_atom_site_type_symbol
_atom_site_label
_atom_site_fract_x
_atom_site_fract_y
_atom_site_fract_z
Si Si1 0.604132 0.398719 0.717363
Si Si2 0.903228 0.609779 0.836120
Si Si3 0.656884 0.226084 0.783942
Si Si4 0.603939 0.610989 0.428147
Si Si5 0.605643 0.765018 0.074628
Si Si6 0.261771 0.396632 0.075987
O O1 0.500000 0.408597 0.706757
O O2 0.641394 0.500000 0.731099
O O3 0.613808 0.326064 0.775685
O O4 0.639022 0.362262 0.645202
O O5 0.900704 0.500000 0.832060
O O6 0.891346 0.655553 0.764510
O O7 0.819246 0.638492 0.879790
O O8 0.000000 0.636093 0.863340
O O9 0.750000 0.250000 0.750000
O O10 0.648399 0.190881 0.859337
O O11 0.642671 0.642161 0.500000
O O12 0.500000 0.635193 0.430028
O O13 0.608445 0.500000 0.427480
O O14 0.500000 0.760716 0.082560
O O15 0.653085 0.666740 0.076110
O O16 0.623252 0.803839 0.000000
O O17 0.283313 0.500000 0.096602
O O18 0.228929 0.399091 0.000000
#
# Coordination Sequence:
#
# PCOD9523375 Si02
#       6
#    16  16  16  16  16  16
#     4   9  18  32  52  81 113 144 185 237 292 357
#     4  10  21  38  60  85 117 160 206 250 298 356
#     4  12  23  38  59  84 117 156 195 251 310 359
#     4   7  10  20  40  66 100 139 171 205 257 320
#     4  10  21  38  60  85 117 158 200 246 305 368
#     4   9  18  34  56  86 123 159 200 247 296 356
#
# _framework density 21.542674999999999
#
# number of rings (size 3 to 8) (size 9 to 14) (size 15 to 20)
#    0.000    2.500    1.667    3.000    0.000    2.000 
#    0.000    5.000    0.000    2.500    0.000    2.333 
#    0.000    0.000    0.000    0.000    0.000    0.000 
#
# Total GULP energy -267377.666704 kJ/mol
# GULP energy per Si atom -5570.368056 kJ/mol
# Density = 2.149364 g / cm^3
# Si number density = 21.542675 Si / 1000 Ang^3
#
#
#
# Elastic Constant Matrix: (Units=GPa)
#
#
# Indices 1 2 3 4 5 6 
#
# 1 80.2621 0.4252 16.6998 0.0000 0.0000 0.0000
# 2 0.4252 19.0848 1.1114 0.0000 0.0000 0.0000
# 3 16.6998 1.1114 139.3734 0.0000 0.0000 0.0000
# 4 0.0000 0.0000 0.0000 11.9205 0.0000 0.0000
# 5 0.0000 0.0000 0.0000 0.0000 22.0417 0.0000
# 6 0.0000 0.0000 0.0000 0.0000 0.0000 16.4154
#
#
#
# Elastic Compliance Matrix: (Units=1/GPa)
#
#
# Indices 1 2 3 4 5 6 
#
# 1 0.012778 -0.000196 -0.001530 0.000000 0.000000 0.000000
# 2 -0.000196 0.052425 -0.000395 0.000000 0.000000 0.000000
# 3 -0.001530 -0.000395 0.007361 0.000000 0.000000 0.000000
# 4 0.000000 0.000000 0.000000 0.083889 0.000000 0.000000
# 5 0.000000 0.000000 0.000000 0.000000 0.045369 0.000000
# 6 0.000000 0.000000 0.000000 0.000000 0.000000 0.060918
#
#
# Mechanical properties :
#
#
# Convention : Reuss Voigt Hill
#
# Bulk Modulus (GPa) = 14.63588 30.57699 22.60643
# Shear Modulus (GPa) = 17.25593 24.77445 21.01519
#
# Velocity S-wave (km/s) = 2.83329 3.39487 3.12671
# Velocity P-wave (km/s) = 4.18473 5.43979 4.85301
#
# Compressibility (1/GPa) = 0.06832526
#
# Stress axis : x y z
#
# Youngs Moduli (GPa) = 78.25661 19.07488 135.84389
#
# Poissons Ratio (x) = 0.00373 0.20778
# Poissons Ratio (y) = 0.01531 0.05360
# Poissons Ratio (z) = 0.11970 0.00753
#
# Static dielectric constant tensor:
#      x y z
#    x 1.773420 0.000000 0.000000 
#    y 0.000000 1.802130 0.000000 
#    z 0.000000 0.000000 1.901030 
# 
# From -- ./inp_files/52982.got.cif
#   From: 2010.05.17/outbox.cif.g08.bks.cpg/sg71_27_cif.got.tgz:52982.got - 2010.06.03 16:22:01.
