data_PCOD9523797
_publ_section_title
;
Structure prediction by ZEFSAII (Michael W. Deem and Ramdas Pophale) SiO2 
 PCOD9523797
Probable space group: I M M M
;
_chemical_formula_sum "Si O2"
_cell_formula_units_Z 84
_cell_length_a 13.639001
_cell_length_b 22.974141
_cell_length_c 14.552025
_cell_angle_alpha 90.000000
_cell_angle_beta 90.000000
_cell_angle_gamma 90.000000
_cell_volume 4559.794554
_symmetry_space_group_name_H-M "I M M M"
_symmetry_group_IT_number 71
_symmetry_cell_setting 'orthorhombic'
loop_
_space_group_symop_operation_xyz
x,y,z
-x,-y,z
x,-y,-z
-x,y,-z
-x,-y,-z
x,y,-z
-x,y,z
x,-y,z
1/2+x,1/2+y,1/2+z
1/2-x,1/2-y,1/2+z
1/2+x,1/2-y,1/2-z
1/2-x,1/2+y,1/2-z
1/2-x,1/2-y,1/2-z
1/2+x,1/2+y,1/2-z
1/2-x,1/2+y,1/2+z
1/2+x,1/2-y,1/2+z
loop_
_atom_site_type_symbol
_atom_site_label
_atom_site_fract_x
_atom_site_fract_y
_atom_site_fract_z
Si Si1 0.307528 0.065072 0.770792
Si Si2 0.140931 0.000000 0.500000
Si Si3 0.615585 0.829299 0.889955
Si Si4 0.887575 0.365121 0.107088
Si Si5 0.697314 0.293993 0.109969
Si Si6 0.112449 0.087109 0.326332
O O1 0.341209 0.114228 0.841081
O O2 0.358792 0.082362 0.674047
O O3 0.191951 0.069079 0.749372
O O4 0.334428 0.000000 0.798754
O O5 0.135208 0.050543 0.418834
O O6 0.500000 0.824297 0.869262
O O7 0.669964 0.770430 0.858338
O O8 0.626304 0.834119 0.000000
O O9 0.809368 0.314135 0.126182
O O10 0.000000 0.347874 0.122162
O O11 0.876101 0.381971 0.000000
O O12 0.631492 0.344843 0.153080
O O13 0.681010 0.295158 0.000000
O O14 0.000000 0.076480 0.301521
#
# Coordination Sequence:
#
# PCOD9523797 Si02
#       6
#    16   4  16  16  16  16
#     4  11  24  37  55  79 112 148 187 234 281 331
#     4  12  21  32  56  92 127 158 183 212 264 334
#     4  10  22  41  62  82 104 136 189 250 294 326
#     4   9  19  34  53  81 118 152 178 210 263 341
#     4   9  18  34  57  82 109 145 188 232 279 327
#     4  11  21  33  56  88 122 153 182 218 268 337
#
# _framework density 18.421882
#
# number of rings (size 3 to 8) (size 9 to 14) (size 15 to 20)
#    0.000    1.905    1.905    2.000    1.333    6.095 
#    0.000    4.762    0.000    1.714    0.000    1.333 
#    0.000    0.000    0.000    0.000    0.000    0.000 
#
# Total GULP energy -233957.184467 kJ/mol
# GULP energy per Si atom -5570.409154 kJ/mol
# Density = 1.837995 g / cm^3
# Si number density = 18.421882 Si / 1000 Ang^3
#
#
#
# Elastic Constant Matrix: (Units=GPa)
#
#
# Indices 1 2 3 4 5 6 
#
# 1 87.9597 30.7209 11.7830 0.0003 0.0000 0.0000
# 2 30.7209 172.9413 28.4339 -0.0004 0.0000 0.0000
# 3 11.7830 28.4339 23.8520 -0.0005 0.0001 0.0001
# 4 0.0003 -0.0004 -0.0005 12.6437 0.0001 0.0001
# 5 0.0000 0.0000 0.0001 0.0001 8.0666 0.0000
# 6 0.0000 0.0000 0.0001 0.0001 0.0000 -7.4607
#
#
#
# Elastic Compliance Matrix: (Units=1/GPa)
#
#
# Indices 1 2 3 4 5 6 
#
# 1 0.012478 -0.001496 -0.004381 -0.000001 0.000000 0.000000
# 2 -0.001496 0.007371 -0.008048 0.000000 0.000000 0.000000
# 3 -0.004381 -0.008048 0.053684 0.000002 0.000000 0.000000
# 4 -0.000001 0.000000 0.000002 0.079091 -0.000001 0.000001
# 5 0.000000 0.000000 0.000000 -0.000001 0.123967 0.000000
# 6 0.000000 0.000000 0.000000 0.000001 0.000000 -0.134035
#
#
# Mechanical properties :
#
#
# Convention : Reuss Voigt Hill
#
# Bulk Modulus (GPa) = 21.88998 47.40318 34.64658
# Shear Modulus (GPa) = 26.93474 16.90426 21.91950
#
# Velocity S-wave (km/s) = 3.82790 3.03251 3.45318
# Velocity P-wave (km/s) = 5.60763 6.16841 5.89469
#
# Compressibility (1/GPa) = 0.04568300
#
# Stress axis : x y z
#
# Youngs Moduli (GPa) = 80.13921 135.66026 18.62769
#
# Poissons Ratio (x) = 0.20300 0.08160
# Poissons Ratio (y) = 0.11992 0.14992
# Poissons Ratio (z) = 0.35105 1.09182
#
# Static dielectric constant tensor:
#      x y z
#    x 1.660800 0.000000 0.000000 
#    y 0.000000 1.631660 0.000000 
#    z 0.000000 0.000000 1.638050 
# 
# From -- ./inp_files/34385.got.cif
#   From: 2010.05.17/outbox.cif.g08.bks.cpg/sg71_18_cif.got.tgz:34385.got - 2010.06.03 16:22:01.
