data_PCOD9523497
_publ_section_title
;
Structure prediction by ZEFSAII (Michael W. Deem and Ramdas Pophale) SiO2 
 PCOD9523497
Probable space group: I M M M
;
_chemical_formula_sum "Si O2"
_cell_formula_units_Z 104
_cell_length_a 30.209494
_cell_length_b 8.822522
_cell_length_c 20.833873
_cell_angle_alpha 90.000000
_cell_angle_beta 90.000000
_cell_angle_gamma 90.000000
_cell_volume 5552.725614
_symmetry_space_group_name_H-M "I M M M"
_symmetry_group_IT_number 71
_symmetry_cell_setting 'orthorhombic'
loop_
_space_group_symop_operation_xyz
x,y,z
-x,-y,z
x,-y,-z
-x,y,-z
-x,-y,-z
x,y,-z
-x,y,z
x,-y,z
1/2+x,1/2+y,1/2+z
1/2-x,1/2-y,1/2+z
1/2+x,1/2-y,1/2-z
1/2-x,1/2+y,1/2-z
1/2-x,1/2-y,1/2-z
1/2+x,1/2+y,1/2-z
1/2-x,1/2+y,1/2+z
1/2+x,1/2-y,1/2+z
loop_
_atom_site_type_symbol
_atom_site_label
_atom_site_fract_x
_atom_site_fract_y
_atom_site_fract_z
Si Si1 0.449203 0.824595 0.076964
Si Si2 0.948046 0.818307 0.863772
Si Si3 0.130097 0.175800 0.645322
Si Si4 0.130347 0.679298 0.217313
Si Si5 0.778814 0.180912 0.574131
Si Si6 0.223735 0.819506 0.811144
Si Si7 0.553560 0.173441 0.500000
O O1 0.500000 0.796479 0.095820
O O2 0.415387 0.712513 0.109942
O O3 0.438429 0.000000 0.093425
O O4 0.446510 0.811669 0.000000
O O5 0.914488 0.746689 0.812868
O O6 0.000000 0.776652 0.853104
O O7 0.945214 0.000000 0.862029
O O8 0.934378 0.758486 0.934431
O O9 0.133016 0.279899 0.707668
O O10 0.170736 0.204966 0.597247
O O11 0.132595 0.000000 0.665524
O O12 0.131545 0.500000 0.207343
O O13 0.173961 0.756100 0.187635
O O14 0.773067 0.225286 0.500000
O O15 0.748387 0.268940 0.624208
O O16 0.770062 0.000000 0.579465
O O17 0.250000 0.750000 0.750000
O O18 0.223395 0.000000 0.804211
O O19 0.500000 0.169290 0.500000
O O20 0.569798 0.000000 0.500000
#
# Coordination Sequence:
#
# PCOD9523497 Si02
#       7
#    16  16  16  16  16  16   8
#     4   9  19  36  56  80 115 158 202 249 299 351
#     4  10  21  39  63  91 124 161 203 253 305 361
#     4  11  22  37  60  88 119 157 200 248 302 362
#     4  12  25  41  63  90 121 160 203 250 304 361
#     4  10  22  41  65  93 125 160 201 252 307 364
#     4  12  24  42  67  93 124 164 207 251 307 369
#     4   9  17  33  59  89 121 159 201 245 299 363
#
# _framework density 18.72954
#
# number of rings (size 3 to 8) (size 9 to 14) (size 15 to 20)
#    0.000    1.462    1.538    4.846    0.000    4.615 
#    1.385    0.769    0.000    0.000    0.000    0.000 
#    0.000    0.000    0.000    0.000    0.000    0.000 
#
# Total GULP energy -290577.095828 kJ/mol
# GULP energy per Si atom -5588.021074 kJ/mol
# Density = 1.868691 g / cm^3
# Si number density = 18.729540 Si / 1000 Ang^3
#
#
#
# Elastic Constant Matrix: (Units=GPa)
#
#
# Indices 1 2 3 4 5 6 
#
# 1 97.2994 59.2841 46.2239 0.0000 0.0000 0.0000
# 2 59.2841 111.9785 57.1381 0.0000 0.0000 0.0000
# 3 46.2239 57.1381 99.5220 0.0000 0.0000 0.0000
# 4 0.0000 0.0000 0.0000 4.6187 0.0000 0.0000
# 5 0.0000 0.0000 0.0000 0.0000 33.9735 0.0000
# 6 0.0000 0.0000 0.0000 0.0000 0.0000 30.0262
#
#
#
# Elastic Compliance Matrix: (Units=1/GPa)
#
#
# Indices 1 2 3 4 5 6 
#
# 1 0.016055 -0.006640 -0.003645 0.000000 0.000000 0.000000
# 2 -0.006640 0.015377 -0.005744 0.000000 0.000000 0.000000
# 3 -0.003645 -0.005744 0.015039 0.000000 0.000000 0.000000
# 4 0.000000 0.000000 0.000000 0.216510 0.000000 0.000000
# 5 0.000000 0.000000 0.000000 0.000000 0.029435 0.000000
# 6 0.000000 0.000000 0.000000 0.000000 0.000000 0.033304
#
#
# Mechanical properties :
#
#
# Convention : Reuss Voigt Hill
#
# Bulk Modulus (GPa) = 69.38381 70.45469 69.91925
# Shear Modulus (GPa) = 13.79005 23.46727 18.62866
#
# Velocity S-wave (km/s) = 2.71638 3.54355 3.15717
# Velocity P-wave (km/s) = 6.85302 7.37841 7.12056
#
# Compressibility (1/GPa) = 0.01441258
#
# Stress axis : x y z
#
# Youngs Moduli (GPa) = 62.28694 65.03352 66.49561
#
# Poissons Ratio (x) = 0.43183 0.24234
# Poissons Ratio (y) = 0.41359 0.38196
# Poissons Ratio (z) = 0.22701 0.37356
#
# Static dielectric constant tensor:
#      x y z
#    x 1.633540 0.000000 0.000000 
#    y 0.000000 1.638270 0.000000 
#    z 0.000000 0.000000 1.627550 
# 
# From -- ./inp_files/56281.got.cif
#   From: 2010.05.17/outbox.cif.g08.bks.cpg/sg71_29_cif.got.tgz:56281.got - 2010.06.03 16:22:01.
