data_PCOD9523554
_publ_section_title
;
Structure prediction by ZEFSAII (Michael W. Deem and Ramdas Pophale) SiO2 
 PCOD9523554
Probable space group: I M M M
;
_chemical_formula_sum "Si O2"
_cell_formula_units_Z 56
_cell_length_a 8.516544
_cell_length_b 15.730603
_cell_length_c 20.009044
_cell_angle_alpha 90.000000
_cell_angle_beta 90.000000
_cell_angle_gamma 90.000000
_cell_volume 2680.619080
_symmetry_space_group_name_H-M "I M M M"
_symmetry_group_IT_number 71
_symmetry_cell_setting 'orthorhombic'
loop_
_space_group_symop_operation_xyz
x,y,z
-x,-y,z
x,-y,-z
-x,y,-z
-x,-y,-z
x,y,-z
-x,y,z
x,-y,z
1/2+x,1/2+y,1/2+z
1/2-x,1/2-y,1/2+z
1/2+x,1/2-y,1/2-z
1/2-x,1/2+y,1/2-z
1/2-x,1/2-y,1/2-z
1/2+x,1/2+y,1/2-z
1/2-x,1/2+y,1/2+z
1/2+x,1/2-y,1/2+z
loop_
_atom_site_type_symbol
_atom_site_label
_atom_site_fract_x
_atom_site_fract_y
_atom_site_fract_z
Si Si1 0.311219 0.000000 0.877353
Si Si2 0.815265 0.344636 0.140198
Si Si3 0.313309 0.500000 0.227813
Si Si4 0.679256 0.399776 0.000000
Si Si5 0.189548 0.316104 0.423408
O O1 0.255303 0.912200 0.910162
O O2 0.500000 0.000000 0.883884
O O3 0.265180 0.000000 0.800119
O O4 0.737832 0.413900 0.189055
O O5 0.772395 0.376869 0.066207
O O6 0.751591 0.248182 0.133499
O O7 0.000000 0.343791 0.152702
O O8 0.500000 0.500000 0.233314
O O9 0.661880 0.500000 0.000000
O O10 0.500000 0.363761 0.000000
O O11 0.234929 0.292176 0.500000
O O12 0.000000 0.314563 0.420366
#
# Coordination Sequence:
#
# PCOD9523554 Si02
#       5
#     8  16   8   8  16
#     4  10  23  44  67  93 124 167 217 262 309 369
#     4  12  24  38  62  95 129 164 206 259 313 373
#     4  12  26  44  64  89 126 173 213 257 315 377
#     4  11  21  35  59  90 126 165 204 252 313 377
#     4  10  21  40  68  97 128 164 207 259 316 375
#
# _framework density 20.890696999999999
#
# number of rings (size 3 to 8) (size 9 to 14) (size 15 to 20)
#    0.000    1.000    2.857    4.714    0.000    4.571 
#    0.000    0.000    0.000    2.571    0.000    0.000 
#    0.000    0.000    0.000    0.000    0.000    0.000 
#
# Total GULP energy -156412.083855 kJ/mol
# GULP energy per Si atom -5586.145852 kJ/mol
# Density = 2.084315 g / cm^3
# Si number density = 20.890697 Si / 1000 Ang^3
#
#
#
# Elastic Constant Matrix: (Units=GPa)
#
#
# Indices 1 2 3 4 5 6 
#
# 1 -22.7981 -9.7261 -55.0420 0.0000 0.0000 0.0000
# 2 -9.7261 149.1261 0.8303 0.0000 0.0000 0.0000
# 3 -55.0420 0.8303 26.0792 0.0000 0.0000 0.0000
# 4 0.0000 0.0000 0.0000 -7.9705 0.0000 0.0000
# 5 0.0000 0.0000 0.0000 0.0000 20.9054 0.0000
# 6 0.0000 0.0000 0.0000 0.0000 0.0000 8.2351
#
#
#
# Elastic Compliance Matrix: (Units=1/GPa)
#
#
# Indices 1 2 3 4 5 6 
#
# 1 -0.007174 -0.000384 -0.015129 0.000000 0.000000 0.000000
# 2 -0.000384 0.006686 -0.001023 0.000000 0.000000 0.000000
# 3 -0.015129 -0.001023 0.006447 0.000000 0.000000 0.000000
# 4 0.000000 0.000000 0.000000 -0.125462 0.000000 0.000000
# 5 0.000000 0.000000 0.000000 0.000000 0.047835 0.000000
# 6 0.000000 0.000000 0.000000 0.000000 0.000000 0.121432
#
#
# Mechanical properties :
#
#
# Convention : Reuss Voigt Hill
#
# Bulk Modulus (GPa) = -36.88602 2.72573 -17.08015
# Shear Modulus (GPa) = 67.75379 18.65699 43.20539
#
# Velocity S-wave (km/s) = 5.70113 2.99168 4.55264
# Velocity P-wave (km/s) = 5.06382 3.63884 4.40927
#
# Compressibility (1/GPa) = -0.02711054
#
# Stress axis : x y z
#
# Youngs Moduli (GPa) = -139.39474 149.55722 155.11197
#
# Poissons Ratio (x) = 0.05738 2.34665
# Poissons Ratio (y) = -0.05348 0.15862
# Poissons Ratio (z) = -2.10887 0.15294
#
# Static dielectric constant tensor:
#      x y z
#    x 1.715830 0.000000 0.000000 
#    y 0.000000 1.834270 0.000000 
#    z 0.000000 0.000000 1.707260 
# 
# From -- ./inp_files/49832.got.cif
#   From: 2010.05.17/outbox.cif.g08.bks.cpg/sg71_25_cif.got.tgz:49832.got - 2010.06.03 16:22:01.
