data_PCOD9523316
_publ_section_title
;
Structure prediction by ZEFSAII (Michael W. Deem and Ramdas Pophale) SiO2 
 PCOD9523316
Probable space group: I M M M
;
_chemical_formula_sum "Si O2"
_cell_formula_units_Z 104
_cell_length_a 18.286163
_cell_length_b 12.625099
_cell_length_c 24.991871
_cell_angle_alpha 90.000000
_cell_angle_beta 90.000000
_cell_angle_gamma 90.000000
_cell_volume 5769.738757
_symmetry_space_group_name_H-M "I M M M"
_symmetry_group_IT_number 71
_symmetry_cell_setting 'orthorhombic'
loop_
_space_group_symop_operation_xyz
x,y,z
-x,-y,z
x,-y,-z
-x,y,-z
-x,-y,-z
x,y,-z
-x,y,z
x,-y,z
1/2+x,1/2+y,1/2+z
1/2-x,1/2-y,1/2+z
1/2+x,1/2-y,1/2-z
1/2-x,1/2+y,1/2-z
1/2-x,1/2-y,1/2-z
1/2+x,1/2+y,1/2-z
1/2-x,1/2+y,1/2+z
1/2+x,1/2-y,1/2+z
loop_
_atom_site_type_symbol
_atom_site_label
_atom_site_fract_x
_atom_site_fract_y
_atom_site_fract_z
Si Si1 0.816920 0.125501 0.441016
Si Si2 0.914694 0.500000 0.633634
Si Si3 0.305059 0.291148 0.410194
Si Si4 0.915601 0.669266 0.723907
Si Si5 0.217915 0.500000 0.436423
Si Si6 0.710720 0.187601 0.298482
Si Si7 0.087208 0.871571 0.000000
Si Si8 0.866952 0.118425 0.329039
O O1 0.847880 0.146486 0.500000
O O2 0.744500 0.196646 0.434388
O O3 0.871297 0.148391 0.391794
O O4 0.799696 0.000000 0.437491
O O5 0.898051 0.600602 0.671383
O O6 0.865233 0.500000 0.581931
O O7 0.000000 0.500000 0.621314
O O8 0.256188 0.396415 0.412816
O O9 0.316353 0.258805 0.348365
O O10 0.374014 0.319145 0.447925
O O11 0.859980 0.637554 0.770767
O O12 0.902571 0.791802 0.707622
O O13 0.000000 0.650808 0.737844
O O14 0.226062 0.500000 0.500000
O O15 0.750000 0.250000 0.250000
O O16 0.778864 0.119071 0.319431
O O17 0.000000 0.855676 0.000000
O O18 0.100409 0.000000 0.000000
O O19 0.895106 0.000000 0.319755
#
# Coordination Sequence:
#
# PCOD9523316 Si02
#       8
#    16   8  16  16   8  16   8  16
#     4   9  16  28  51  78 106 133 169 218 266 309
#     4  10  22  37  56  80 114 151 182 226 276 336
#     4  11  19  35  55  81 110 142 188 229 280 328
#     4  10  21  38  54  75 107 147 185 221 278 335
#     4  12  20  33  60  86 112 144 181 225 279 339
#     4   9  19  34  52  79 105 138 183 233 272 325
#     4  11  22  38  55  81 121 157 188 230 288 350
#     4   9  18  32  52  80 107 135 173 227 273 313
#
# _framework density 18.025079000000002
#
# number of rings (size 3 to 8) (size 9 to 14) (size 15 to 20)
#    0.000    2.077    2.308    2.769    1.077    1.077 
#    5.538    0.000    0.000    2.308    0.000    2.154 
#    0.000    0.000    0.000    0.000    0.000    0.000 
#
# Total GULP energy -289712.427475 kJ/mol
# GULP energy per Si atom -5571.392836 kJ/mol
# Density = 1.798405 g / cm^3
# Si number density = 18.025079 Si / 1000 Ang^3
#
#
#
# Elastic Constant Matrix: (Units=GPa)
#
#
# Indices 1 2 3 4 5 6 
#
# 1 52.6256 0.9595 17.9173 0.0000 0.0000 0.0000
# 2 0.9595 55.4095 2.8467 0.0000 0.0000 0.0000
# 3 17.9173 2.8467 69.7927 0.0000 0.0000 0.0000
# 4 0.0000 0.0000 0.0000 -13.7510 0.0000 0.0000
# 5 0.0000 0.0000 0.0000 0.0000 29.0439 0.0000
# 6 0.0000 0.0000 0.0000 0.0000 0.0000 18.2944
#
#
#
# Elastic Compliance Matrix: (Units=1/GPa)
#
#
# Indices 1 2 3 4 5 6 
#
# 1 0.020823 -0.000086 -0.005342 0.000000 0.000000 0.000000
# 2 -0.000086 0.018086 -0.000716 0.000000 0.000000 0.000000
# 3 -0.005342 -0.000716 0.015729 0.000000 0.000000 0.000000
# 4 0.000000 0.000000 0.000000 -0.072722 0.000000 0.000000
# 5 0.000000 0.000000 0.000000 0.000000 0.034431 0.000000
# 6 0.000000 0.000000 0.000000 0.000000 0.000000 0.054662
#
#
# Mechanical properties :
#
#
# Convention : Reuss Voigt Hill
#
# Bulk Modulus (GPa) = 23.61304 24.58607 24.09955
# Shear Modulus (GPa) = 51.32879 17.12442 34.22660
#
# Velocity S-wave (km/s) = 5.34211 3.08560 4.36229
# Velocity P-wave (km/s) = 7.15398 5.13460 6.22670
#
# Compressibility (1/GPa) = 0.04234949
#
# Stress axis : x y z
#
# Youngs Moduli (GPa) = 48.02487 55.29229 63.57783
#
# Poissons Ratio (x) = 0.00476 0.33964
# Poissons Ratio (y) = 0.00414 0.04549
# Poissons Ratio (z) = 0.25655 0.03957
#
# Static dielectric constant tensor:
#      x y z
#    x 1.616500 0.000000 0.000000 
#    y 0.000000 1.628410 0.000000 
#    z 0.000000 0.000000 1.650750 
# 
# From -- ./inp_files/60761.got.cif
#   From: 2010.05.17/outbox.cif.g08.bks.cpg/sg71_31_cif.got.tgz:60761.got - 2010.06.03 16:22:01.
