data_PCOD9523664
_publ_section_title
;
Structure prediction by ZEFSAII (Michael W. Deem and Ramdas Pophale) SiO2 
 PCOD9523664
Probable space group: I M M M
;
_chemical_formula_sum "Si O2"
_cell_formula_units_Z 104
_cell_length_a 23.898946
_cell_length_b 7.971420
_cell_length_c 28.567359
_cell_angle_alpha 90.000000
_cell_angle_beta 90.000000
_cell_angle_gamma 90.000000
_cell_volume 5442.325744
_symmetry_space_group_name_H-M "I M M M"
_symmetry_group_IT_number 71
_symmetry_cell_setting 'orthorhombic'
loop_
_space_group_symop_operation_xyz
x,y,z
-x,-y,z
x,-y,-z
-x,y,-z
-x,-y,-z
x,y,-z
-x,y,z
x,-y,z
1/2+x,1/2+y,1/2+z
1/2-x,1/2-y,1/2+z
1/2+x,1/2-y,1/2-z
1/2-x,1/2+y,1/2-z
1/2-x,1/2-y,1/2-z
1/2+x,1/2+y,1/2-z
1/2-x,1/2+y,1/2+z
1/2+x,1/2-y,1/2+z
loop_
_atom_site_type_symbol
_atom_site_label
_atom_site_fract_x
_atom_site_fract_y
_atom_site_fract_z
Si Si1 0.721603 0.302565 0.053473
Si Si2 0.064852 0.189337 0.500000
Si Si3 0.105358 0.691540 0.596744
Si Si4 0.380538 0.301530 0.706386
Si Si5 0.000000 0.204338 0.766419
Si Si6 0.300956 0.200074 0.216325
Si Si7 0.719069 0.299128 0.359851
Si Si8 0.000000 0.702499 0.657234
O O1 0.728452 0.500000 0.049744
O O2 0.665130 0.268676 0.082951
O O3 0.772348 0.237282 0.085732
O O4 0.717571 0.233693 0.000000
O O5 0.077511 0.293328 0.453970
O O6 0.000000 0.160860 0.500000
O O7 0.092413 0.000000 0.500000
O O8 0.116214 0.500000 0.611561
O O9 0.058029 0.763259 0.632271
O O10 0.384163 0.500000 0.697671
O O11 0.443342 0.234012 0.708552
O O12 0.354461 0.276683 0.758344
O O13 0.335771 0.233532 0.668115
O O14 0.000000 0.255900 0.711948
O O15 0.000000 0.000000 0.767336
O O16 0.250000 0.250000 0.250000
O O17 0.275195 0.260846 0.167495
O O18 0.308965 0.000000 0.215200
O O19 0.718554 0.500000 0.353703
O O20 0.000000 0.500000 0.650872
#
# Coordination Sequence:
#
# PCOD9523664 Si02
#       8
#    16   8  16  16   8  16  16   8
#     4  11  24  38  53  79 109 136 175 229 278 322
#     4  11  21  33  51  73  97 131 181 234 275 316
#     4  11  22  37  54  71  99 141 184 225 272 319
#     4   9  19  36  55  80 109 139 177 217 264 320
#     4  10  22  38  57  81 111 143 175 219 270 315
#     4   9  17  30  50  76 105 137 176 218 260 310
#     4   9  19  35  55  77 104 140 178 215 263 325
#     4  10  24  39  51  74 105 141 187 230 266 312
#
# _framework density 19.109476999999998
#
# number of rings (size 3 to 8) (size 9 to 14) (size 15 to 20)
#    0.000    2.077    1.538    2.538    2.154    6.154 
#    0.000    0.000    0.000    0.000    0.000    0.538 
#    0.000    4.308    0.000    0.000    0.000    0.000 
#
# Total GULP energy -289583.932866 kJ/mol
# GULP energy per Si atom -5568.921786 kJ/mol
# Density = 1.906598 g / cm^3
# Si number density = 19.109477 Si / 1000 Ang^3
#
#
#
# Elastic Constant Matrix: (Units=GPa)
#
#
# Indices 1 2 3 4 5 6 
#
# 1 129.1028 2.8389 67.1241 0.0000 0.0000 0.0000
# 2 2.8389 9.6178 2.3512 0.0000 0.0000 0.0000
# 3 67.1241 2.3512 116.7067 0.0000 0.0000 0.0000
# 4 0.0000 0.0000 0.0000 20.1583 0.0000 0.0000
# 5 0.0000 0.0000 0.0000 0.0000 10.8786 0.0000
# 6 0.0000 0.0000 0.0000 0.0000 0.0000 14.4604
#
#
#
# Elastic Compliance Matrix: (Units=1/GPa)
#
#
# Indices 1 2 3 4 5 6 
#
# 1 0.011078 -0.001721 -0.006337 0.000000 0.000000 0.000000
# 2 -0.001721 0.104756 -0.001121 0.000000 0.000000 0.000000
# 3 -0.006337 -0.001121 0.012236 0.000000 0.000000 0.000000
# 4 0.000000 0.000000 0.000000 0.049607 0.000000 0.000000
# 5 0.000000 0.000000 0.000000 0.000000 0.091924 0.000000
# 6 0.000000 0.000000 0.000000 0.000000 0.000000 0.069154
#
#
# Mechanical properties :
#
#
# Convention : Reuss Voigt Hill
#
# Bulk Modulus (GPa) = 9.11471 44.45065 26.78268
# Shear Modulus (GPa) = 12.70054 21.30700 17.00377
#
# Velocity S-wave (km/s) = 2.58082 3.34278 2.98620
# Velocity P-wave (km/s) = 3.69607 6.18146 5.09271
#
# Compressibility (1/GPa) = 0.10971281
#
# Stress axis : x y z
#
# Youngs Moduli (GPa) = 90.26524 9.54601 81.72678
#
# Poissons Ratio (x) = 0.01643 0.51791
# Poissons Ratio (y) = 0.15533 0.09159
# Poissons Ratio (z) = 0.57202 0.01070
#
# Static dielectric constant tensor:
#      x y z
#    x 1.708560 0.000000 0.000000 
#    y 0.000000 1.707080 0.000000 
#    z 0.000000 0.000000 1.688950 
# 
# From -- ./inp_files/66898.got.cif
#   From: 2010.05.17/outbox.cif.g08.bks.cpg/sg71_34_cif.got.tgz:66898.got - 2010.06.03 16:22:01.
