data_PCOD9523249
_publ_section_title
;
Structure prediction by ZEFSAII (Michael W. Deem and Ramdas Pophale) SiO2 
 PCOD9523249
Probable space group: I M M M
;
_chemical_formula_sum "Si O2"
_cell_formula_units_Z 104
_cell_length_a 19.512573
_cell_length_b 14.870395
_cell_length_c 17.244901
_cell_angle_alpha 90.000000
_cell_angle_beta 90.000000
_cell_angle_gamma 90.000000
_cell_volume 5003.774748
_symmetry_space_group_name_H-M "I M M M"
_symmetry_group_IT_number 71
_symmetry_cell_setting 'orthorhombic'
loop_
_space_group_symop_operation_xyz
x,y,z
-x,-y,z
x,-y,-z
-x,y,-z
-x,-y,-z
x,y,-z
-x,y,z
x,-y,z
1/2+x,1/2+y,1/2+z
1/2-x,1/2-y,1/2+z
1/2+x,1/2-y,1/2-z
1/2-x,1/2+y,1/2-z
1/2-x,1/2-y,1/2-z
1/2+x,1/2+y,1/2-z
1/2-x,1/2+y,1/2+z
1/2+x,1/2-y,1/2+z
loop_
_atom_site_type_symbol
_atom_site_label
_atom_site_fract_x
_atom_site_fract_y
_atom_site_fract_z
Si Si1 0.290056 0.602979 0.375093
Si Si2 0.076005 0.783604 0.140755
Si Si3 0.637123 0.104542 0.913149
Si Si4 0.890918 0.775921 0.676860
Si Si5 0.000000 0.103468 0.592499
Si Si6 0.869217 0.398888 0.089832
Si Si7 0.732928 0.601530 0.190883
O O1 0.308396 0.500000 0.393331
O O2 0.356889 0.663220 0.389451
O O3 0.218660 0.624400 0.416229
O O4 0.268342 0.606190 0.284060
O O5 0.086282 0.781604 0.233909
O O6 0.080955 0.682804 0.108308
O O7 0.000000 0.821227 0.123583
O O8 0.604588 0.175228 0.854706
O O9 0.629848 0.000000 0.889767
O O10 0.608806 0.115445 0.000000
O O11 0.936188 0.842893 0.626344
O O12 0.814945 0.816136 0.667299
O O13 0.000000 0.105135 0.500000
O O14 0.000000 0.000000 0.618760
O O15 0.897563 0.500000 0.099567
O O16 0.805861 0.389457 0.149586
O O17 0.845728 0.391758 0.000000
O O18 0.707007 0.500000 0.170721
#
# Coordination Sequence:
#
# PCOD9523249 Si02
#       7
#    16  16  16  16   8  16  16
#     4   9  19  36  58  86 117 150 189 239 291 343
#     4  11  23  38  56  84 115 155 202 240 282 347
#     4  10  21  37  59  85 113 148 191 240 294 344
#     4  11  21  38  58  85 118 157 196 237 285 340
#     4  11  24  40  59  87 124 161 195 233 281 344
#     4  10  22  39  59  85 117 150 191 249 310 360
#     4   9  18  34  58  86 113 145 186 236 295 355
#
# _framework density 20.784307999999999
#
# number of rings (size 3 to 8) (size 9 to 14) (size 15 to 20)
#    0.000    1.923    0.769    2.769    0.000    8.923 
#    0.000    2.692    0.000    1.385    0.000    3.231 
#    0.000    0.000    0.000    0.000    0.000    0.000 
#
# Total GULP energy -290341.271507 kJ/mol
# GULP energy per Si atom -5583.485991 kJ/mol
# Density = 2.073700 g / cm^3
# Si number density = 20.784308 Si / 1000 Ang^3
#
#
#
# Elastic Constant Matrix: (Units=GPa)
#
#
# Indices 1 2 3 4 5 6 
#
# 1 28.6172 13.5827 1.5681 0.0000 0.0000 0.0000
# 2 13.5827 81.2542 17.6954 0.0000 0.0000 0.0000
# 3 1.5681 17.6954 31.7644 0.0000 0.0000 0.0000
# 4 0.0000 0.0000 0.0000 26.5604 0.0000 0.0000
# 5 0.0000 0.0000 0.0000 0.0000 23.1214 0.0000
# 6 0.0000 0.0000 0.0000 0.0000 0.0000 21.4529
#
#
#
# Elastic Compliance Matrix: (Units=1/GPa)
#
#
# Indices 1 2 3 4 5 6 
#
# 1 0.038055 -0.006774 0.001895 0.000000 0.000000 0.000000
# 2 -0.006774 0.015212 -0.008140 0.000000 0.000000 0.000000
# 3 0.001895 -0.008140 0.035923 0.000000 0.000000 0.000000
# 4 0.000000 0.000000 0.000000 0.037650 0.000000 0.000000
# 5 0.000000 0.000000 0.000000 0.000000 0.043250 0.000000
# 6 0.000000 0.000000 0.000000 0.000000 0.000000 0.046614
#
#
# Mechanical properties :
#
#
# Convention : Reuss Voigt Hill
#
# Bulk Modulus (GPa) = 15.83474 23.03646 19.43560
# Shear Modulus (GPa) = 18.95424 21.47957 20.21691
#
# Velocity S-wave (km/s) = 3.02313 3.21822 3.12220
# Velocity P-wave (km/s) = 4.45206 4.99168 4.72958
#
# Compressibility (1/GPa) = 0.06315229
#
# Stress axis : x y z
#
# Youngs Moduli (GPa) = 26.27743 65.73693 27.83747
#
# Poissons Ratio (x) = 0.44531 -0.05275
# Poissons Ratio (y) = 0.17801 0.22660
# Poissons Ratio (z) = -0.04980 0.53510
#
# Static dielectric constant tensor:
#      x y z
#    x 2.702200 0.000000 0.000000 
#    y 0.000000 1.745030 0.000000 
#    z 0.000000 0.000000 1.743490 
# 
# From -- ./inp_files/36716.got.cif
#   From: 2010.05.17/outbox.cif.g08.bks.cpg/sg71_19_cif.got.tgz:36716.got - 2010.06.03 16:22:01.
