data_PCOD9523109
_publ_section_title
;
Structure prediction by ZEFSAII (Michael W. Deem and Ramdas Pophale) SiO2 
 PCOD9523109
Probable space group: I M M M
;
_chemical_formula_sum "Si O2"
_cell_formula_units_Z 120
_cell_length_a 9.105177
_cell_length_b 27.921077
_cell_length_c 27.263277
_cell_angle_alpha 90.000000
_cell_angle_beta 90.000000
_cell_angle_gamma 90.000000
_cell_volume 6931.043349
_symmetry_space_group_name_H-M "I M M M"
_symmetry_group_IT_number 71
_symmetry_cell_setting 'orthorhombic'
loop_
_space_group_symop_operation_xyz
x,y,z
-x,-y,z
x,-y,-z
-x,y,-z
-x,-y,-z
x,y,-z
-x,y,z
x,-y,z
1/2+x,1/2+y,1/2+z
1/2-x,1/2-y,1/2+z
1/2+x,1/2-y,1/2-z
1/2-x,1/2+y,1/2-z
1/2-x,1/2-y,1/2-z
1/2+x,1/2+y,1/2-z
1/2-x,1/2+y,1/2+z
1/2+x,1/2-y,1/2+z
loop_
_atom_site_type_symbol
_atom_site_label
_atom_site_fract_x
_atom_site_fract_y
_atom_site_fract_z
Si Si1 0.826281 0.294228 0.946884
Si Si2 0.167568 0.941703 0.900748
Si Si3 0.668565 0.058636 0.000000
Si Si4 0.175453 0.690750 0.554267
Si Si5 0.824913 0.806698 0.153606
Si Si6 0.171983 0.556995 0.701172
Si Si7 0.175440 0.137552 0.252939
Si Si8 0.174178 0.693122 0.159449
O O1 0.730081 0.246095 0.946902
O O2 0.795032 0.322228 0.896858
O O3 0.000000 0.280171 0.943585
O O4 0.805559 0.318171 0.000000
O O5 0.250968 0.926638 0.950053
O O6 0.250951 0.930472 0.850521
O O7 0.000000 0.924208 0.899631
O O8 0.162477 0.000000 0.902837
O O9 0.500000 0.074723 0.000000
O O10 0.667252 0.000000 0.000000
O O11 0.217553 0.671266 0.500000
O O12 0.248729 0.672968 0.604609
O O13 0.000000 0.687912 0.558353
O O14 0.783333 0.832616 0.203910
O O15 0.791694 0.750074 0.160177
O O16 0.000000 0.810727 0.147080
O O17 0.186432 0.500000 0.707804
O O18 0.250737 0.586305 0.743899
O O19 0.000000 0.568865 0.698691
O O20 0.235916 0.164575 0.300326
O O21 0.000000 0.133859 0.254700
O O22 0.000000 0.687745 0.169131
#
# Coordination Sequence:
#
# PCOD9523109 Si02
#       8
#    16  16   8  16  16  16  16  16
#     4   8  14  26  44  66  95 131 166 197 231 274
#     4   9  16  27  45  68  91 114 143 184 235 289
#     4   9  15  23  39  65  93 117 143 179 229 289
#     4   9  16  25  41  66  92 121 160 204 245 284
#     4   9  19  33  48  68  96 132 168 199 237 287
#     4  10  21  37  55  72  91 119 156 199 249 301
#     4  11  22  34  50  72  98 127 163 203 244 291
#     4   9  17  30  48  72 102 134 166 197 233 278
#
# _framework density 17.313410000000001
#
# number of rings (size 3 to 8) (size 9 to 14) (size 15 to 20)
#    0.000    2.733    0.000    3.000    0.000    7.200 
#    0.000    0.000    1.467    0.000    0.000    0.000 
#    0.000    0.533    0.000    6.133    0.000    1.867 
#
# Total GULP energy -334757.787554 kJ/mol
# GULP energy per Si atom -5579.296459 kJ/mol
# Density = 1.727400 g / cm^3
# Si number density = 17.313410 Si / 1000 Ang^3
#
#
#
# Elastic Constant Matrix: (Units=GPa)
#
#
# Indices 1 2 3 4 5 6 
#
# 1 75.5673 35.0899 61.1489 0.0000 0.0000 0.0000
# 2 35.0899 46.8287 47.6415 0.0000 0.0000 0.0000
# 3 61.1489 47.6415 146.8503 0.0000 0.0000 0.0000
# 4 0.0000 0.0000 0.0000 25.8595 0.0000 0.0000
# 5 0.0000 0.0000 0.0000 0.0000 31.2979 0.0000
# 6 0.0000 0.0000 0.0000 0.0000 0.0000 10.9382
#
#
#
# Elastic Compliance Matrix: (Units=1/GPa)
#
#
# Indices 1 2 3 4 5 6 
#
# 1 0.023425 -0.011388 -0.006060 0.000000 0.000000 0.000000
# 2 -0.011388 0.037411 -0.007395 0.000000 0.000000 0.000000
# 3 -0.006060 -0.007395 0.011732 0.000000 0.000000 0.000000
# 4 0.000000 0.000000 0.000000 0.038671 0.000000 0.000000
# 5 0.000000 0.000000 0.000000 0.000000 0.031951 0.000000
# 6 0.000000 0.000000 0.000000 0.000000 0.000000 0.091423
#
#
# Mechanical properties :
#
#
# Convention : Reuss Voigt Hill
#
# Bulk Modulus (GPa) = 43.70123 61.88967 52.79545
# Shear Modulus (GPa) = 17.12770 21.97685 19.55228
#
# Velocity S-wave (km/s) = 3.14868 3.56667 3.36417
# Velocity P-wave (km/s) = 6.20605 7.26538 6.75651
#
# Compressibility (1/GPa) = 0.02288265
#
# Stress axis : x y z
#
# Youngs Moduli (GPa) = 42.69009 26.73010 85.23682
#
# Poissons Ratio (x) = 0.30440 0.51650
# Poissons Ratio (y) = 0.48615 0.63033
# Poissons Ratio (z) = 0.25869 0.19767
#
# Static dielectric constant tensor:
#      x y z
#    x 1.579560 0.000000 0.000000 
#    y 0.000000 1.600690 0.000000 
#    z 0.000000 0.000000 1.601490 
# 
# From -- ./inp_files/63769.got.cif
#   From: 2010.05.17/outbox.cif.g08.bks.cpg/sg71_32_cif.got.tgz:63769.got - 2010.06.03 16:22:01.
