data_PCOD9523786
_publ_section_title
;
Structure prediction by ZEFSAII (Michael W. Deem and Ramdas Pophale) SiO2 
 PCOD9523786
Probable space group: I M M M
;
_chemical_formula_sum "Si O2"
_cell_formula_units_Z 52
_cell_length_a 26.339176
_cell_length_b 10.381553
_cell_length_c 11.391107
_cell_angle_alpha 90.000000
_cell_angle_beta 90.000000
_cell_angle_gamma 90.000000
_cell_volume 3114.801973
_symmetry_space_group_name_H-M "I M M M"
_symmetry_group_IT_number 71
_symmetry_cell_setting 'orthorhombic'
loop_
_space_group_symop_operation_xyz
x,y,z
-x,-y,z
x,-y,-z
-x,y,-z
-x,-y,-z
x,y,-z
-x,y,z
x,-y,z
1/2+x,1/2+y,1/2+z
1/2-x,1/2-y,1/2+z
1/2+x,1/2-y,1/2-z
1/2-x,1/2+y,1/2-z
1/2-x,1/2-y,1/2-z
1/2+x,1/2+y,1/2-z
1/2-x,1/2+y,1/2+z
1/2+x,1/2-y,1/2+z
loop_
_atom_site_type_symbol
_atom_site_label
_atom_site_fract_x
_atom_site_fract_y
_atom_site_fract_z
Si Si1 0.242621 0.000000 0.000000
Si Si2 0.604811 0.247465 0.230996
Si Si3 0.158285 0.353984 0.500000
Si Si4 0.560834 0.000000 0.359230
Si Si5 0.000000 0.144530 0.639636
Si Si6 0.356528 0.500000 0.366727
O O1 0.281220 0.879796 0.000000
O O2 0.204196 0.000000 0.890394
O O3 0.550472 0.287218 0.180343
O O4 0.626860 0.370237 0.300703
O O5 0.591381 0.123974 0.310683
O O6 0.639861 0.212864 0.119191
O O7 0.135811 0.500000 0.500000
O O8 0.500000 0.000000 0.324039
O O9 0.561320 0.000000 0.500000
O O10 0.000000 0.139204 0.500000
O O11 0.000000 0.000000 0.688253
O O12 0.378478 0.500000 0.500000
#
# Coordination Sequence:
#
# PCOD9523786 Si02
#       6
#     4  16   8   8   8   8
#     4   8  22  48  58  90 122 156 214 268 304 356
#     4  12  21  39  65  89 127 164 200 251 315 366
#     4  10  22  40  64  93 117 153 202 269 316 352
#     4  11  23  35  54  87 127 169 203 236 289 372
#     4  11  22  35  56  95 133 153 195 248 304 379
#     4  10  24  42  62  87 123 166 209 255 303 362
#
# _framework density 16.694479000000001
#
# number of rings (size 3 to 8) (size 9 to 14) (size 15 to 20)
#    0.923    0.308    6.154    0.923    0.000    1.846 
#    0.000    3.077    0.000    0.000    0.000    0.000 
#    0.000    0.000    0.000    0.000    0.000    0.000 
#
# Total GULP energy -144808.519930 kJ/mol
# GULP energy per Si atom -5569.558459 kJ/mol
# Density = 1.665648 g / cm^3
# Si number density = 16.694479 Si / 1000 Ang^3
#
#
#
# Elastic Constant Matrix: (Units=GPa)
#
#
# Indices 1 2 3 4 5 6 
#
# 1 134.4827 59.6785 58.7551 0.0000 0.0000 0.0000
# 2 59.6785 149.4622 80.6396 0.0000 0.0000 0.0000
# 3 58.7551 80.6396 126.5901 0.0000 0.0000 0.0000
# 4 0.0000 0.0000 0.0000 115.5478 0.0000 0.0000
# 5 0.0000 0.0000 0.0000 0.0000 -92.1966 0.0000
# 6 0.0000 0.0000 0.0000 0.0000 0.0000 39.5246
#
#
#
# Elastic Compliance Matrix: (Units=1/GPa)
#
#
# Indices 1 2 3 4 5 6 
#
# 1 0.009788 -0.002220 -0.003129 0.000000 0.000000 0.000000
# 2 -0.002220 0.010698 -0.005784 0.000000 0.000000 0.000000
# 3 -0.003129 -0.005784 0.013036 0.000000 0.000000 0.000000
# 4 0.000000 0.000000 0.000000 0.008654 0.000000 0.000000
# 5 0.000000 0.000000 0.000000 0.000000 -0.010846 0.000000
# 6 0.000000 0.000000 0.000000 0.000000 0.000000 0.025301
#
#
# Mechanical properties :
#
#
# Convention : Reuss Voigt Hill
#
# Bulk Modulus (GPa) = 88.84165 89.85351 89.34758
# Shear Modulus (GPa) = 60.49650 26.67260 43.58455
#
# Velocity S-wave (km/s) = 6.02628 4.00145 5.11506
# Velocity P-wave (km/s) = 10.08728 8.67686 9.40854
#
# Compressibility (1/GPa) = 0.01125598
#
# Stress axis : x y z
#
# Youngs Moduli (GPa) = 102.16512 93.47581 76.70894
#
# Poissons Ratio (x) = 0.20754 0.24000
# Poissons Ratio (y) = 0.22683 0.44370
# Poissons Ratio (z) = 0.31964 0.54069
#
# Static dielectric constant tensor:
#      x y z
#    x 1.548160 0.000000 0.000000 
#    y 0.000000 1.582520 0.000000 
#    z 0.000000 0.000000 1.550860 
# 
# From -- ./inp_files/28191.got.cif
#   From: 2010.05.17/outbox.cif.g08.bks.cpg/sg71_15_cif.got.tgz:28191.got - 2010.06.03 16:22:01.
