data_PCOD9523258
_publ_section_title
;
Structure prediction by ZEFSAII (Michael W. Deem and Ramdas Pophale) SiO2 
 PCOD9523258
Probable space group: I M M M
;
_chemical_formula_sum "Si O2"
_cell_formula_units_Z 56
_cell_length_a 8.932944
_cell_length_b 20.275655
_cell_length_c 15.940655
_cell_angle_alpha 90.000000
_cell_angle_beta 90.000000
_cell_angle_gamma 90.000000
_cell_volume 2887.192008
_symmetry_space_group_name_H-M "I M M M"
_symmetry_group_IT_number 71
_symmetry_cell_setting 'orthorhombic'
loop_
_space_group_symop_operation_xyz
x,y,z
-x,-y,z
x,-y,-z
-x,y,-z
-x,-y,-z
x,y,-z
-x,y,z
x,-y,z
1/2+x,1/2+y,1/2+z
1/2-x,1/2-y,1/2+z
1/2+x,1/2-y,1/2-z
1/2-x,1/2+y,1/2-z
1/2-x,1/2-y,1/2-z
1/2+x,1/2+y,1/2-z
1/2-x,1/2+y,1/2+z
1/2+x,1/2-y,1/2+z
loop_
_atom_site_type_symbol
_atom_site_label
_atom_site_fract_x
_atom_site_fract_y
_atom_site_fract_z
Si Si1 0.819711 0.421321 0.500000
Si Si2 0.172450 0.684812 0.821612
Si Si3 0.165044 0.926318 0.400140
Si Si4 0.821769 0.172366 0.141178
O O1 0.777061 0.500000 0.500000
O O2 0.758137 0.380360 0.580753
O O3 0.000000 0.418824 0.500000
O O4 0.202125 0.620859 0.875631
O O5 0.213652 0.750003 0.875415
O O6 0.268890 0.671358 0.737996
O O7 0.000000 0.693258 0.796300
O O8 0.160078 0.930513 0.500000
O O9 0.000000 0.901150 0.372660
O O10 0.183150 0.000000 0.365665
O O11 0.000000 0.162414 0.133546
#
# Coordination Sequence:
#
# PCOD9523258 Si02
#       4
#     8  16  16  16
#     4  11  25  43  63  89 120 155 198 247 299 354
#     4  10  21  37  59  87 117 150 194 242 289 342
#     4   9  19  35  54  80 114 152 192 230 277 339
#     4  10  22  40  61  86 116 151 194 239 289 349
#
# _framework density 19.396008999999999
#
# number of rings (size 3 to 8) (size 9 to 14) (size 15 to 20)
#    0.000    2.143    0.000    3.000    2.000    6.857 
#    0.000    1.429    0.000    0.000    0.000    0.000 
#    0.000    0.000    0.000    0.000    0.000    0.000 
#
# Total GULP energy -155919.661320 kJ/mol
# GULP energy per Si atom -5568.559333 kJ/mol
# Density = 1.935186 g / cm^3
# Si number density = 19.396009 Si / 1000 Ang^3
#
#
#
# Elastic Constant Matrix: (Units=GPa)
#
#
# Indices 1 2 3 4 5 6 
#
# 1 70.6293 59.5116 30.1299 0.0000 0.0000 0.0000
# 2 59.5116 128.4455 56.8378 0.0000 0.0000 0.0000
# 3 30.1299 56.8378 49.4643 0.0000 0.0000 0.0000
# 4 0.0000 0.0000 0.0000 35.7220 0.0000 0.0000
# 5 0.0000 0.0000 0.0000 0.0000 32.5299 0.0000
# 6 0.0000 0.0000 0.0000 0.0000 0.0000 23.6149
#
#
#
# Elastic Compliance Matrix: (Units=1/GPa)
#
#
# Indices 1 2 3 4 5 6 
#
# 1 0.023550 -0.009284 -0.003677 0.000000 0.000000 0.000000
# 2 -0.009284 0.019499 -0.016751 0.000000 0.000000 0.000000
# 3 -0.003677 -0.016751 0.041704 0.000000 0.000000 0.000000
# 4 0.000000 0.000000 0.000000 0.027994 0.000000 0.000000
# 5 0.000000 0.000000 0.000000 0.000000 0.030741 0.000000
# 6 0.000000 0.000000 0.000000 0.000000 0.000000 0.042346
#
#
# Mechanical properties :
#
#
# Convention : Reuss Voigt Hill
#
# Bulk Modulus (GPa) = 39.47924 60.16643 49.82283
# Shear Modulus (GPa) = 19.70835 25.17733 22.44284
#
# Velocity S-wave (km/s) = 3.19110 3.60678 3.40529
# Velocity P-wave (km/s) = 5.82889 6.95934 6.41905
#
# Compressibility (1/GPa) = 0.02532977
#
# Stress axis : x y z
#
# Youngs Moduli (GPa) = 42.46374 51.28409 23.97866
#
# Poissons Ratio (x) = 0.47613 0.08816
# Poissons Ratio (y) = 0.39424 0.40166
# Poissons Ratio (z) = 0.15612 0.85905
#
# Static dielectric constant tensor:
#      x y z
#    x 1.700050 0.000000 0.000000 
#    y 0.000000 1.722090 0.000000 
#    z 0.000000 0.000000 1.684490 
# 
# From -- ./inp_files/5008.got.cif
#   From: 2010.05.17/outbox.cif.g08.bks.cpg/sg71_3_cif.got.tgz:5008.got - 2010.06.03 16:22:01.
