data_PCOD9523724
_publ_section_title
;
Structure prediction by ZEFSAII (Michael W. Deem and Ramdas Pophale) SiO2 
 PCOD9523724
Probable space group: I M M M
;
_chemical_formula_sum "Si O2"
_cell_formula_units_Z 58
_cell_length_a 13.970405
_cell_length_b 25.775162
_cell_length_c 8.792653
_cell_angle_alpha 90.000000
_cell_angle_beta 90.000000
_cell_angle_gamma 90.000000
_cell_volume 3166.141601
_symmetry_space_group_name_H-M "I M M M"
_symmetry_group_IT_number 71
_symmetry_cell_setting 'orthorhombic'
loop_
_space_group_symop_operation_xyz
x,y,z
-x,-y,z
x,-y,-z
-x,y,-z
-x,-y,-z
x,y,-z
-x,y,z
x,-y,z
1/2+x,1/2+y,1/2+z
1/2-x,1/2-y,1/2+z
1/2+x,1/2-y,1/2-z
1/2-x,1/2+y,1/2-z
1/2-x,1/2-y,1/2-z
1/2+x,1/2+y,1/2-z
1/2-x,1/2+y,1/2+z
1/2+x,1/2-y,1/2+z
loop_
_atom_site_type_symbol
_atom_site_label
_atom_site_fract_x
_atom_site_fract_y
_atom_site_fract_z
Si Si1 0.799200 0.199855 0.320309
Si Si2 0.798337 0.400012 0.681208
Si Si3 0.500000 0.500000 0.000000
Si Si4 0.702527 0.500000 0.168941
Si Si5 0.000000 0.250707 0.676441
Si Si6 0.000000 0.634935 0.181468
O O1 0.777730 0.194231 0.500000
O O2 0.750000 0.250000 0.250000
O O3 0.762545 0.149909 0.232765
O O4 0.909730 0.213756 0.301214
O O5 0.806525 0.402505 0.500000
O O6 0.742056 0.449712 0.744892
O O7 0.904158 0.391307 0.751354
O O8 0.588008 0.500000 0.868758
O O9 0.747653 0.500000 0.000000
O O10 0.000000 0.303622 0.773137
O O11 0.000000 0.268634 0.500000
O O12 0.000000 0.630847 0.000000
#
# Coordination Sequence:
#
# PCOD9523724 Si02
#       6
#    16  16   2   8   8   8
#     4  11  22  38  61  93 131 179 227 277 333 400
#     4  12  25  43  67  99 140 176 222 277 339 404
#     4   8  24  48  82  94 136 160 226 288 328 376
#     4  10  23  48  74 100 125 175 218 277 332 389
#     4  10  22  39  60  89 131 178 226 277 339 395
#     4  12  24  39  66  99 134 181 224 273 334 404
#
# _framework density 18.318826000000001
#
# number of rings (size 3 to 8) (size 9 to 14) (size 15 to 20)
#    0.414    0.552    2.759    4.966    0.000    2.759 
#    2.483    5.517    0.000    0.000    0.000    0.000 
#    0.000    0.000    0.000    0.000    0.000    0.000 
#
# Total GULP energy -161647.652898 kJ/mol
# GULP energy per Si atom -5574.056996 kJ/mol
# Density = 1.827713 g / cm^3
# Si number density = 18.318826 Si / 1000 Ang^3
#
#
#
# Elastic Constant Matrix: (Units=GPa)
#
#
# Indices 1 2 3 4 5 6 
#
# 1 159.4126 74.6704 97.9512 -0.0001 0.0001 0.0002
# 2 74.6704 158.7307 79.7649 -0.0003 0.0001 0.0001
# 3 97.9512 79.7649 178.8112 -0.0006 0.0006 -0.0004
# 4 -0.0001 -0.0003 -0.0006 35.9690 0.0002 0.0000
# 5 0.0001 0.0001 0.0006 0.0002 28.5833 0.0000
# 6 0.0002 0.0001 -0.0004 0.0000 0.0000 24.8367
#
#
#
# Elastic Compliance Matrix: (Units=1/GPa)
#
#
# Indices 1 2 3 4 5 6 
#
# 1 0.010208 -0.002568 -0.004446 0.000000 0.000000 0.000000
# 2 -0.002568 0.008766 -0.002504 0.000000 0.000000 0.000000
# 3 -0.004446 -0.002504 0.009145 0.000000 0.000000 0.000000
# 4 0.000000 0.000000 0.000000 0.027802 0.000000 0.000000
# 5 0.000000 0.000000 0.000000 0.000000 0.034985 0.000000
# 6 0.000000 0.000000 0.000000 0.000000 0.000000 0.040263
#
#
# Mechanical properties :
#
#
# Convention : Reuss Voigt Hill
#
# Bulk Modulus (GPa) = 110.09268 111.30305 110.69787
# Shear Modulus (GPa) = 32.63013 34.18234 33.40623
#
# Velocity S-wave (km/s) = 4.22505 4.32437 4.27500
# Velocity P-wave (km/s) = 9.16678 9.26414 9.21559
#
# Compressibility (1/GPa) = 0.00908326
#
# Stress axis : x y z
#
# Youngs Moduli (GPa) = 97.96435 114.07598 109.34773
#
# Poissons Ratio (x) = 0.29290 0.48620
# Poissons Ratio (y) = 0.25153 0.27380
# Poissons Ratio (z) = 0.43559 0.28564
#
# Static dielectric constant tensor:
#      x y z
#    x 1.552190 0.000000 -0.000010 
#    y 0.000000 1.585420 0.000000 
#    z -0.000010 0.000000 1.461540 
# 
# From -- ./inp_files/5147.got.cif
#   From: 2010.05.17/outbox.cif.g08.bks.cpg/sg71_3_cif.got.tgz:5147.got - 2010.06.03 16:22:01.
