data_PCOD9523059
_publ_section_title
;
Structure prediction by ZEFSAII (Michael W. Deem and Ramdas Pophale) SiO2 
 PCOD9523059
Probable space group: I M M M
;
_chemical_formula_sum "Si O2"
_cell_formula_units_Z 72
_cell_length_a 14.793353
_cell_length_b 30.851505
_cell_length_c 8.647959
_cell_angle_alpha 90.000000
_cell_angle_beta 90.000000
_cell_angle_gamma 90.000000
_cell_volume 3946.904308
_symmetry_space_group_name_H-M "I M M M"
_symmetry_group_IT_number 71
_symmetry_cell_setting 'orthorhombic'
loop_
_space_group_symop_operation_xyz
x,y,z
-x,-y,z
x,-y,-z
-x,y,-z
-x,-y,-z
x,y,-z
-x,y,z
x,-y,z
1/2+x,1/2+y,1/2+z
1/2-x,1/2-y,1/2+z
1/2+x,1/2-y,1/2-z
1/2-x,1/2+y,1/2-z
1/2-x,1/2-y,1/2-z
1/2+x,1/2+y,1/2-z
1/2-x,1/2+y,1/2+z
1/2+x,1/2-y,1/2+z
loop_
_atom_site_type_symbol
_atom_site_label
_atom_site_fract_x
_atom_site_fract_y
_atom_site_fract_z
Si Si1 0.690853 0.710413 0.684569
Si Si2 0.682511 0.129122 0.813861
Si Si3 0.500000 0.167762 0.682995
Si Si4 0.000000 0.765174 0.316169
Si Si5 0.802289 0.049799 0.810649
Si Si6 0.000000 0.947225 0.177434
O O1 0.685383 0.714708 0.500000
O O2 0.750000 0.750000 0.750000
O O3 0.743659 0.666224 0.720647
O O4 0.590791 0.712920 0.752889
O O5 0.589221 0.142176 0.735067
O O6 0.724999 0.083276 0.765321
O O7 0.669061 0.128724 0.000000
O O8 0.500000 0.174216 0.500000
O O9 0.500000 0.215037 0.762027
O O10 0.000000 0.766151 0.500000
O O11 0.902367 0.064420 0.754448
O O12 0.786510 0.000000 0.763983
O O13 0.806669 0.050066 0.000000
O O14 0.000000 0.000000 0.171702
O O15 0.000000 0.931121 0.000000
#
# Coordination Sequence:
#
# PCOD9523059 Si02
#       6
#    16  16   8   8  16   8
#     4  11  22  36  56  83 115 149 186 229 279 334
#     4  10  21  36  57  83 112 144 185 233 280 333
#     4  12  24  38  58  78 104 145 191 234 285 346
#     4  12  24  39  59  82 113 148 189 238 285 336
#     4   8  14  27  50  81 114 146 180 223 274 326
#     4   7  10  19  40  72 108 139 166 203 259 320
#
# _framework density 18.242145000000001
#
# number of rings (size 3 to 8) (size 9 to 14) (size 15 to 20)
#    0.000    2.111    2.222    4.000    0.000    1.778 
#    0.000    3.889    0.000    4.000    0.000    0.000 
#    0.000    3.556    0.000    0.000    0.000    0.000 
#
# Total GULP energy -200896.608197 kJ/mol
# GULP energy per Si atom -5580.461339 kJ/mol
# Density = 1.820063 g / cm^3
# Si number density = 18.242145 Si / 1000 Ang^3
#
#
#
# Elastic Constant Matrix: (Units=GPa)
#
#
# Indices 1 2 3 4 5 6 
#
# 1 178.6325 67.2647 60.3072 -0.0004 0.0001 0.0002
# 2 67.2647 89.8509 41.9739 -0.0005 0.0001 0.0001
# 3 60.3072 41.9739 44.3658 0.0033 -0.0003 -0.0007
# 4 -0.0004 -0.0005 0.0033 12.9948 -0.0005 -0.0003
# 5 0.0001 0.0001 -0.0003 -0.0005 28.4611 -0.0001
# 6 0.0002 0.0001 -0.0007 -0.0003 -0.0001 20.5758
#
#
#
# Elastic Compliance Matrix: (Units=1/GPa)
#
#
# Indices 1 2 3 4 5 6 
#
# 1 0.010573 -0.002153 -0.012336 0.000003 0.000000 0.000000
# 2 -0.002153 0.020383 -0.016357 0.000005 0.000000 -0.000001
# 3 -0.012336 -0.016357 0.054784 -0.000015 0.000001 0.000002
# 4 0.000003 0.000005 -0.000015 0.076954 0.000001 0.000001
# 5 0.000000 0.000000 0.000001 0.000001 0.035136 0.000000
# 6 0.000000 -0.000001 0.000002 0.000001 0.000000 0.048601
#
#
# Mechanical properties :
#
#
# Convention : Reuss Voigt Hill
#
# Bulk Modulus (GPa) = 41.58413 72.43789 57.01101
# Shear Modulus (GPa) = 15.81589 21.95988 18.88788
#
# Velocity S-wave (km/s) = 2.94768 3.47334 3.22125
# Velocity P-wave (km/s) = 5.86772 7.47535 6.71978
#
# Compressibility (1/GPa) = 0.02404763
#
# Stress axis : x y z
#
# Youngs Moduli (GPa) = 94.57733 49.06166 18.25367
#
# Poissons Ratio (x) = 0.10562 0.22517
# Poissons Ratio (y) = 0.20361 0.29858
# Poissons Ratio (z) = 1.16669 0.80251
#
# Static dielectric constant tensor:
#      x y z
#    x 1.621310 0.000000 0.000000 
#    y 0.000000 1.618310 0.000000 
#    z 0.000000 0.000000 1.633460 
# 
# From -- ./inp_files/6220.got.cif
#   From: 2010.05.17/outbox.cif.g08.bks.cpg/sg71_4_cif.got.tgz:6220.got - 2010.06.03 16:22:01.
