data_PCOD9523086
_publ_section_title
;
Structure prediction by ZEFSAII (Michael W. Deem and Ramdas Pophale) SiO2 
 PCOD9523086
Probable space group: I M M M
;
_chemical_formula_sum "Si O2"
_cell_formula_units_Z 88
_cell_length_a 22.787345
_cell_length_b 15.940599
_cell_length_c 13.376056
_cell_angle_alpha 90.000000
_cell_angle_beta 90.000000
_cell_angle_gamma 90.000000
_cell_volume 4858.771135
_symmetry_space_group_name_H-M "I M M M"
_symmetry_group_IT_number 71
_symmetry_cell_setting 'orthorhombic'
loop_
_space_group_symop_operation_xyz
x,y,z
-x,-y,z
x,-y,-z
-x,y,-z
-x,-y,-z
x,y,-z
-x,y,z
x,-y,z
1/2+x,1/2+y,1/2+z
1/2-x,1/2-y,1/2+z
1/2+x,1/2-y,1/2-z
1/2-x,1/2+y,1/2-z
1/2-x,1/2-y,1/2-z
1/2+x,1/2+y,1/2-z
1/2-x,1/2+y,1/2+z
1/2+x,1/2-y,1/2+z
loop_
_atom_site_type_symbol
_atom_site_label
_atom_site_fract_x
_atom_site_fract_y
_atom_site_fract_z
Si Si1 0.144556 0.595428 0.881804
Si Si2 0.763530 0.843920 0.283980
Si Si3 0.851609 0.904120 0.883868
Si Si4 0.070156 0.248792 0.192305
Si Si5 0.565172 0.500000 0.121124
Si Si6 0.619715 0.676933 0.114331
O O1 0.124375 0.500000 0.862673
O O2 0.204648 0.612334 0.821327
O O3 0.097709 0.666522 0.852579
O O4 0.157079 0.603161 0.000000
O O5 0.750000 0.750000 0.250000
O O6 0.797896 0.888715 0.192915
O O7 0.810850 0.832373 0.372238
O O8 0.899247 0.831778 0.860449
O O9 0.873340 0.000000 0.870580
O O10 0.833393 0.895234 0.000000
O O11 0.092021 0.241342 0.307389
O O12 0.000000 0.245958 0.185077
O O13 0.500000 0.500000 0.162471
O O14 0.596087 0.585859 0.147522
O O15 0.562775 0.500000 0.000000
O O16 0.603368 0.693298 0.000000
#
# Coordination Sequence:
#
# PCOD9523086 Si02
#       6
#    16  16  16  16   8  16
#     4  11  24  42  64  88 117 155 201 254 304 349
#     4  11  21  38  61  88 121 154 192 244 294 347
#     4  10  22  39  60  89 123 157 192 235 294 362
#     4  11  24  40  60  87 119 156 201 252 295 353
#     4   9  18  32  52  84 123 157 192 228 272 343
#     4  10  21  36  58  88 120 158 194 236 294 352
#
# _framework density 18.111575999999999
#
# number of rings (size 3 to 8) (size 9 to 14) (size 15 to 20)
#    0.000    1.545    3.636    2.182    6.364    4.000 
#    0.000    1.818    0.000    0.545    0.000    1.273 
#    0.000    0.000    0.000    0.000    0.000    0.000 
#
# Total GULP energy -245559.539804 kJ/mol
# GULP energy per Si atom -5580.898632 kJ/mol
# Density = 1.807035 g / cm^3
# Si number density = 18.111576 Si / 1000 Ang^3
#
#
#
# Elastic Constant Matrix: (Units=GPa)
#
#
# Indices 1 2 3 4 5 6 
#
# 1 88.2495 41.6631 26.6476 0.0000 0.0000 0.0000
# 2 41.6631 134.7862 47.1797 0.0000 0.0000 0.0000
# 3 26.6476 47.1797 110.0412 0.0000 0.0000 0.0000
# 4 0.0000 0.0000 0.0000 30.6006 0.0000 0.0000
# 5 0.0000 0.0000 0.0000 0.0000 16.2752 0.0000
# 6 0.0000 0.0000 0.0000 0.0000 0.0000 5.7400
#
#
#
# Elastic Compliance Matrix: (Units=1/GPa)
#
#
# Indices 1 2 3 4 5 6 
#
# 1 0.013547 -0.003576 -0.001747 0.000000 0.000000 0.000000
# 2 -0.003576 0.009673 -0.003281 0.000000 0.000000 0.000000
# 3 -0.001747 -0.003281 0.010918 0.000000 0.000000 0.000000
# 4 0.000000 0.000000 0.000000 0.032679 0.000000 0.000000
# 5 0.000000 0.000000 0.000000 0.000000 0.061443 0.000000
# 6 0.000000 0.000000 0.000000 0.000000 0.000000 0.174215
#
#
# Mechanical properties :
#
#
# Convention : Reuss Voigt Hill
#
# Bulk Modulus (GPa) = 59.07186 62.67309 60.87247
# Shear Modulus (GPa) = 15.36912 25.02893 20.19902
#
# Velocity S-wave (km/s) = 2.91620 3.72146 3.34317
# Velocity P-wave (km/s) = 6.63516 7.29004 6.97030
#
# Compressibility (1/GPa) = 0.01692854
#
# Stress axis : x y z
#
# Youngs Moduli (GPa) = 73.81501 103.37992 91.59570
#
# Poissons Ratio (x) = 0.36967 0.16006
# Poissons Ratio (y) = 0.26395 0.30056
# Poissons Ratio (z) = 0.12899 0.33923
#
# Static dielectric constant tensor:
#      x y z
#    x 1.579850 0.000000 0.000000 
#    y 0.000000 1.608800 0.000000 
#    z 0.000000 0.000000 1.640130 
# 
# From -- ./inp_files/37729.got.cif
#   From: 2010.05.17/outbox.cif.g08.bks.cpg/sg71_19_cif.got.tgz:37729.got - 2010.06.03 16:22:01.
