data_PCOD9523117
_publ_section_title
;
Structure prediction by ZEFSAII (Michael W. Deem and Ramdas Pophale) SiO2 
 PCOD9523117
Probable space group: I M M M
;
_chemical_formula_sum "Si O2"
_cell_formula_units_Z 80
_cell_length_a 17.959714
_cell_length_b 17.112886
_cell_length_c 14.239586
_cell_angle_alpha 90.000000
_cell_angle_beta 90.000000
_cell_angle_gamma 90.000000
_cell_volume 4376.430505
_symmetry_space_group_name_H-M "I M M M"
_symmetry_group_IT_number 71
_symmetry_cell_setting 'orthorhombic'
loop_
_space_group_symop_operation_xyz
x,y,z
-x,-y,z
x,-y,-z
-x,y,-z
-x,-y,-z
x,y,-z
-x,y,z
x,-y,z
1/2+x,1/2+y,1/2+z
1/2-x,1/2-y,1/2+z
1/2+x,1/2-y,1/2-z
1/2-x,1/2+y,1/2-z
1/2-x,1/2-y,1/2-z
1/2+x,1/2+y,1/2-z
1/2-x,1/2+y,1/2+z
1/2+x,1/2-y,1/2+z
loop_
_atom_site_type_symbol
_atom_site_label
_atom_site_fract_x
_atom_site_fract_y
_atom_site_fract_z
Si Si1 0.088258 0.592974 0.612077
Si Si2 0.589181 0.294901 0.393614
Si Si3 0.317067 0.186229 0.736860
Si Si4 0.283701 0.406544 0.105000
Si Si5 0.084562 0.906585 0.733258
O O1 0.098884 0.604382 0.500000
O O2 0.101831 0.500000 0.631652
O O3 0.142398 0.649001 0.672583
O O4 0.000000 0.607756 0.632585
O O5 0.618158 0.295287 0.500000
O O6 0.500000 0.288693 0.398036
O O7 0.622484 0.227126 0.329735
O O8 0.607309 0.372722 0.334185
O O9 0.250000 0.250000 0.750000
O O10 0.280234 0.117794 0.675973
O O11 0.287589 0.500000 0.099572
O O12 0.360445 0.378253 0.152265
O O13 0.273074 0.375204 0.000000
O O14 0.000000 0.881624 0.714202
O O15 0.086671 0.000000 0.735932
#
# Coordination Sequence:
#
# PCOD9523117 Si02
#       5
#    16  16  16  16  16
#     4   9  20  41  67  91 114 147 198 253 296 338
#     4  10  21  37  55  78 110 147 187 229 274 328
#     4  12  22  36  56  83 120 151 182 226 286 351
#     4  10  21  37  55  78 110 147 187 229 274 328
#     4   9  18  35  56  78 106 145 194 235 270 320
#
# _framework density 18.279737999999998
#
# number of rings (size 3 to 8) (size 9 to 14) (size 15 to 20)
#    0.000    2.000    2.000    2.400    0.000    2.400 
#    0.000    4.000    0.000    0.000    0.000    8.400 
#    0.000    0.000    0.000    0.000    0.000    0.000 
#
# Total GULP energy -222892.776634 kJ/mol
# GULP energy per Si atom -5572.319416 kJ/mol
# Density = 1.823813 g / cm^3
# Si number density = 18.279738 Si / 1000 Ang^3
#
#
#
# Elastic Constant Matrix: (Units=GPa)
#
#
# Indices 1 2 3 4 5 6 
#
# 1 61.7240 36.7193 62.5557 0.0000 0.0000 0.0000
# 2 36.7193 35.2001 37.7979 0.0000 0.0000 0.0000
# 3 62.5557 37.7979 131.1888 0.0000 0.0000 0.0000
# 4 0.0000 0.0000 0.0000 31.0890 0.0000 0.0000
# 5 0.0000 0.0000 0.0000 0.0000 31.8948 0.0000
# 6 0.0000 0.0000 0.0000 0.0000 0.0000 32.2772
#
#
#
# Elastic Compliance Matrix: (Units=1/GPa)
#
#
# Indices 1 2 3 4 5 6 
#
# 1 0.057088 -0.043905 -0.014572 0.000000 0.000000 0.000000
# 2 -0.043905 0.074901 -0.000645 0.000000 0.000000 0.000000
# 3 -0.014572 -0.000645 0.014757 0.000000 0.000000 0.000000
# 4 0.000000 0.000000 0.000000 0.032166 0.000000 0.000000
# 5 0.000000 0.000000 0.000000 0.000000 0.031353 0.000000
# 6 0.000000 0.000000 0.000000 0.000000 0.000000 0.030982
#
#
# Mechanical properties :
#
#
# Convention : Reuss Voigt Hill
#
# Bulk Modulus (GPa) = 35.08411 55.80654 45.44533
# Shear Modulus (GPa) = 13.55043 25.12152 19.33597
#
# Velocity S-wave (km/s) = 2.72560 3.71115 3.25588
# Velocity P-wave (km/s) = 5.39813 6.99707 6.24895
#
# Compressibility (1/GPa) = 0.02850293
#
# Stress axis : x y z
#
# Youngs Moduli (GPa) = 17.51671 13.35087 67.76458
#
# Poissons Ratio (x) = 0.58617 0.98747
# Poissons Ratio (y) = 0.76907 0.04371
# Poissons Ratio (z) = 0.25525 0.00861
#
# Static dielectric constant tensor:
#      x y z
#    x 1.648340 0.000000 0.000000 
#    y 0.000000 1.648270 0.000000 
#    z 0.000000 0.000000 1.621470 
# 
# From -- ./inp_files/36229.got.cif
#   From: 2010.05.17/outbox.cif.g08.bks.cpg/sg71_19_cif.got.tgz:36229.got - 2010.06.03 16:22:01.
