data_PCOD9523150
_publ_section_title
;
Structure prediction by ZEFSAII (Michael W. Deem and Ramdas Pophale) SiO2 
 PCOD9523150
Probable space group: I M M M
;
_chemical_formula_sum "Si O2"
_cell_formula_units_Z 72
_cell_length_a 27.338967
_cell_length_b 7.679233
_cell_length_c 18.216693
_cell_angle_alpha 90.000000
_cell_angle_beta 90.000000
_cell_angle_gamma 90.000000
_cell_volume 3824.454383
_symmetry_space_group_name_H-M "I M M M"
_symmetry_group_IT_number 71
_symmetry_cell_setting 'orthorhombic'
loop_
_space_group_symop_operation_xyz
x,y,z
-x,-y,z
x,-y,-z
-x,y,-z
-x,-y,-z
x,y,-z
-x,y,z
x,-y,z
1/2+x,1/2+y,1/2+z
1/2-x,1/2-y,1/2+z
1/2+x,1/2-y,1/2-z
1/2-x,1/2+y,1/2-z
1/2-x,1/2-y,1/2-z
1/2+x,1/2+y,1/2-z
1/2-x,1/2+y,1/2+z
1/2+x,1/2-y,1/2+z
loop_
_atom_site_type_symbol
_atom_site_label
_atom_site_fract_x
_atom_site_fract_y
_atom_site_fract_z
Si Si1 0.000000 0.789807 0.081828
Si Si2 0.815007 0.209990 0.915423
Si Si3 0.941165 0.500000 0.706884
Si Si4 0.092307 0.210558 0.817542
Si Si5 0.866118 0.500000 0.411737
Si Si6 0.705101 0.691423 0.089215
O O1 0.951504 0.745410 0.126151
O O2 0.000000 0.000000 0.076911
O O3 0.000000 0.718205 0.000000
O O4 0.857391 0.258567 0.858765
O O5 0.761239 0.269603 0.890934
O O6 0.814418 0.000000 0.918430
O O7 0.823897 0.270449 0.000000
O O8 0.919693 0.670384 0.747993
O O9 0.918476 0.500000 0.625944
O O10 0.000000 0.500000 0.709496
O O11 0.091798 0.000000 0.803876
O O12 0.869629 0.500000 0.500000
O O13 0.833568 0.335049 0.387615
O O14 0.691157 0.500000 0.115089
O O15 0.705057 0.694146 0.000000
#
# Coordination Sequence:
#
# PCOD9523150 Si02
#       6
#     8  16   8  16   8  16
#     4   9  16  31  55  81 112 158 208 240 268 313
#     4   9  16  30  56  87 122 162 200 232 268 322
#     4  12  26  43  62  84 110 150 197 245 309 361
#     4  10  21  37  56  81 121 163 195 236 283 334
#     4  10  22  43  66  86 110 139 188 250 304 368
#     4   9  17  32  58  89 118 148 182 231 293 346
#
# _framework density 18.826215000000001
#
# number of rings (size 3 to 8) (size 9 to 14) (size 15 to 20)
#    0.000    2.333    2.222    0.667    1.556    3.778 
#    0.000    3.333    0.000    0.000    0.000    4.667 
#    0.000    0.000    0.000    0.000    0.000    0.000 
#
# Total GULP energy -200836.523378 kJ/mol
# GULP energy per Si atom -5578.792316 kJ/mol
# Density = 1.878337 g / cm^3
# Si number density = 18.826215 Si / 1000 Ang^3
#
#
#
# Elastic Constant Matrix: (Units=GPa)
#
#
# Indices 1 2 3 4 5 6 
#
# 1 97.1284 47.6417 47.5049 0.0000 0.0000 0.0000
# 2 47.6417 88.5525 32.9464 0.0000 0.0000 0.0000
# 3 47.5049 32.9464 48.9814 0.0000 0.0000 0.0000
# 4 0.0000 0.0000 0.0000 7.9004 0.0000 0.0000
# 5 0.0000 0.0000 0.0000 0.0000 51.1374 0.0000
# 6 0.0000 0.0000 0.0000 0.0000 0.0000 -36.1510
#
#
#
# Elastic Compliance Matrix: (Units=1/GPa)
#
#
# Indices 1 2 3 4 5 6 
#
# 1 0.021120 -0.004991 -0.017127 0.000000 0.000000 0.000000
# 2 -0.004991 0.016241 -0.006084 0.000000 0.000000 0.000000
# 3 -0.017127 -0.006084 0.041119 0.000000 0.000000 0.000000
# 4 0.000000 0.000000 0.000000 0.126575 0.000000 0.000000
# 5 0.000000 0.000000 0.000000 0.000000 0.019555 0.000000
# 6 0.000000 0.000000 0.000000 0.000000 0.000000 -0.027662
#
#
# Mechanical properties :
#
#
# Convention : Reuss Voigt Hill
#
# Bulk Modulus (GPa) = 45.29561 54.53873 49.91717
# Shear Modulus (GPa) = 19.17834 11.68199 15.43016
#
# Velocity S-wave (km/s) = 3.19518 2.49372 2.86599
# Velocity P-wave (km/s) = 6.14201 6.10934 6.12570
#
# Compressibility (1/GPa) = 0.02207719
#
# Stress axis : x y z
#
# Youngs Moduli (GPa) = 47.34829 61.57093 24.31987
#
# Poissons Ratio (x) = 0.30728 0.41652
# Poissons Ratio (y) = 0.23630 0.14797
# Poissons Ratio (z) = 0.81091 0.37461
#
# Static dielectric constant tensor:
#      x y z
#    x 1.618520 0.000000 0.000000 
#    y 0.000000 1.680190 0.000000 
#    z 0.000000 0.000000 1.644120 
# 
# From -- ./inp_files/39984.got.cif
#   From: 2010.05.17/outbox.cif.g08.bks.cpg/sg71_20_cif.got.tgz:39984.got - 2010.06.03 16:22:01.
