data_PCOD9523938
_publ_section_title
;
Structure prediction by ZEFSAII (Michael W. Deem and Ramdas Pophale) SiO2 
 PCOD9523938
Probable space group: I M M M
;
_chemical_formula_sum "Si O2"
_cell_formula_units_Z 76
_cell_length_a 13.535117
_cell_length_b 26.240729
_cell_length_c 10.665094
_cell_angle_alpha 90.000000
_cell_angle_beta 90.000000
_cell_angle_gamma 90.000000
_cell_volume 3787.935697
_symmetry_space_group_name_H-M "I M M M"
_symmetry_group_IT_number 71
_symmetry_cell_setting 'orthorhombic'
loop_
_space_group_symop_operation_xyz
x,y,z
-x,-y,z
x,-y,-z
-x,y,-z
-x,-y,-z
x,y,-z
-x,y,z
x,-y,z
1/2+x,1/2+y,1/2+z
1/2-x,1/2-y,1/2+z
1/2+x,1/2-y,1/2-z
1/2-x,1/2+y,1/2-z
1/2-x,1/2-y,1/2-z
1/2+x,1/2+y,1/2-z
1/2-x,1/2+y,1/2+z
1/2+x,1/2-y,1/2+z
loop_
_atom_site_type_symbol
_atom_site_label
_atom_site_fract_x
_atom_site_fract_y
_atom_site_fract_z
Si Si1 0.614935 0.778106 0.758728
Si Si2 0.000000 0.560680 0.255941
Si Si3 0.109572 0.059542 0.847428
Si Si4 0.676957 0.795713 0.500000
Si Si5 0.805834 0.384262 0.648965
Si Si6 0.500000 0.876593 0.500000
Si Si7 0.609075 0.704568 0.000000
O O1 0.500000 0.791261 0.738253
O O2 0.659201 0.761938 0.624730
O O3 0.671704 0.829476 0.793426
O O4 0.614714 0.739515 0.874782
O O5 0.099631 0.580159 0.323577
O O6 0.000000 0.587825 0.121284
O O7 0.000000 0.500000 0.247714
O O8 0.203439 0.091573 0.803109
O O9 0.000000 0.077437 0.807392
O O10 0.120097 0.000000 0.812697
O O11 0.110599 0.061015 0.000000
O O12 0.595238 0.839875 0.500000
O O13 0.784571 0.821793 0.500000
O O14 0.798080 0.378043 0.500000
O O15 0.500000 0.679604 0.000000
#
# Coordination Sequence:
#
# PCOD9523938 Si02
#       7
#    16   8  16   8  16   4   8
#     4  11  20  37  60  86 119 153 190 232 296 354
#     4  12  24  36  55  89 118 148 200 247 291 349
#     4   8  15  28  45  67 101 145 187 226 273 330
#     4  12  20  41  64  84 109 155 207 223 285 361
#     4  11  19  31  55  82 114 153 186 235 293 345
#     4  12  23  42  64  76 110 168 190 244 293 356
#     4  10  24  38  63  93 118 148 183 251 294 348
#
# _framework density 20.063697999999999
#
# number of rings (size 3 to 8) (size 9 to 14) (size 15 to 20)
#    0.000    1.474    5.263    2.368    0.000    1.684 
#    0.000    1.053    2.316    0.000    0.000    0.000 
#    0.000    5.895    0.000    0.000    0.000    0.000 
#
# Total GULP energy -212129.552497 kJ/mol
# GULP energy per Si atom -5582.356645 kJ/mol
# Density = 2.001803 g / cm^3
# Si number density = 20.063698 Si / 1000 Ang^3
#
#
#
# Elastic Constant Matrix: (Units=GPa)
#
#
# Indices 1 2 3 4 5 6 
#
# 1 196.0803 26.8572 13.6637 -0.0002 0.0000 0.0000
# 2 26.8572 22.0306 0.0524 0.0000 0.0000 0.0000
# 3 13.6637 0.0524 94.7308 -0.0008 0.0000 0.0000
# 4 -0.0002 0.0000 -0.0008 -127.1069 0.0004 0.0001
# 5 0.0000 0.0000 0.0000 0.0004 4.8702 0.0000
# 6 0.0000 0.0000 0.0000 0.0001 0.0000 26.5356
#
#
#
# Elastic Compliance Matrix: (Units=1/GPa)
#
#
# Indices 1 2 3 4 5 6 
#
# 1 0.006196 -0.007552 -0.000890 0.000000 0.000000 0.000000
# 2 -0.007552 0.054595 0.001059 0.000000 0.000000 0.000000
# 3 -0.000890 0.001059 0.010684 0.000000 0.000000 0.000000
# 4 0.000000 0.000000 0.000000 -0.007867 0.000001 0.000000
# 5 0.000000 0.000000 0.000000 0.000001 0.205332 0.000000
# 6 0.000000 0.000000 0.000000 0.000000 0.000000 0.037685
#
#
# Mechanical properties :
#
#
# Convention : Reuss Voigt Hill
#
# Bulk Modulus (GPa) = 17.63327 43.77647 30.70487
# Shear Modulus (GPa) = 14.69320 -0.98900 6.85210
#
# Velocity S-wave (km/s) = 2.70909 -0.70285 1.85002
# Velocity P-wave (km/s) = 4.31199 4.60515 4.46098
#
# Compressibility (1/GPa) = 0.05671099
#
# Stress axis : x y z
#
# Youngs Moduli (GPa) = 161.38659 18.31664 93.59835
#
# Poissons Ratio (x) = 0.13832 0.08326
# Poissons Ratio (y) = 1.21875 -0.09913
# Poissons Ratio (z) = 0.14356 -0.01940
#
# Static dielectric constant tensor:
#      x y z
#    x 1.751970 0.000000 0.000000 
#    y 0.000000 1.674710 0.000000 
#    z 0.000000 0.000000 1.748590 
# 
# From -- ./inp_files/20214.got.cif
#   From: 2010.05.17/outbox.cif.g08.bks.cpg/sg71_11_cif.got.tgz:20214.got - 2010.06.03 16:22:01.
