data_PCOD9523021
_publ_section_title
;
Structure prediction by ZEFSAII (Michael W. Deem and Ramdas Pophale) SiO2 
 PCOD9523021
Probable space group: I M M M
;
_chemical_formula_sum "Si O2"
_cell_formula_units_Z 58
_cell_length_a 14.484875
_cell_length_b 25.378980
_cell_length_c 9.181813
_cell_angle_alpha 90.000000
_cell_angle_beta 90.000000
_cell_angle_gamma 90.000000
_cell_volume 3375.338699
_symmetry_space_group_name_H-M "I M M M"
_symmetry_group_IT_number 71
_symmetry_cell_setting 'orthorhombic'
loop_
_space_group_symop_operation_xyz
x,y,z
-x,-y,z
x,-y,-z
-x,y,-z
-x,-y,-z
x,y,-z
-x,y,z
x,-y,z
1/2+x,1/2+y,1/2+z
1/2-x,1/2-y,1/2+z
1/2+x,1/2-y,1/2-z
1/2-x,1/2+y,1/2-z
1/2-x,1/2-y,1/2-z
1/2+x,1/2+y,1/2-z
1/2-x,1/2+y,1/2+z
1/2+x,1/2-y,1/2+z
loop_
_atom_site_type_symbol
_atom_site_label
_atom_site_fract_x
_atom_site_fract_y
_atom_site_fract_z
Si Si1 0.500000 0.720716 0.174757
Si Si2 0.158816 0.615688 0.662225
Si Si3 0.500000 0.000000 0.500000
Si Si4 0.809163 0.796708 0.827455
Si Si5 0.000000 0.667878 0.169623
Si Si6 0.105412 0.500000 0.705549
O O1 0.593405 0.698260 0.246020
O O2 0.500000 0.781220 0.228520
O O3 0.500000 0.716777 0.000000
O O4 0.123130 0.630805 0.500000
O O5 0.251480 0.649161 0.682183
O O6 0.088283 0.633853 0.786258
O O7 0.159956 0.552785 0.666319
O O8 0.579944 0.000000 0.374171
O O9 0.750000 0.750000 0.750000
O O10 0.821382 0.784113 0.000000
O O11 0.000000 0.681746 0.000000
O O12 0.000000 0.500000 0.642629
#
# Coordination Sequence:
#
# PCOD9523021 Si02
#       6
#     8  16   2  16   8   8
#     4  12  24  41  58  83 118 156 199 239 286 344
#     4  11  23  37  58  84 117 154 194 236 286 348
#     4   8  20  36  50  88 120 154 190 232 284 338
#     4  11  23  39  59  87 116 152 194 239 292 347
#     4  12  23  32  56  84 120 157 190 236 286 338
#     4  10  21  36  56  82 119 154 193 232 287 338
#
# _framework density 17.183461000000001
#
# number of rings (size 3 to 8) (size 9 to 14) (size 15 to 20)
#    0.414    0.552    4.138    3.724    3.862    1.655 
#    0.000    0.000    0.000    0.828    0.000    4.828 
#    0.000    0.000    0.000    0.000    0.000    0.000 
#
# Total GULP energy -161517.385005 kJ/mol
# GULP energy per Si atom -5569.565000 kJ/mol
# Density = 1.714435 g / cm^3
# Si number density = 17.183461 Si / 1000 Ang^3
#
#
#
# Elastic Constant Matrix: (Units=GPa)
#
#
# Indices 1 2 3 4 5 6 
#
# 1 123.9464 59.0631 64.8621 -0.0002 0.0000 0.0000
# 2 59.0631 124.3147 33.1972 -0.0039 0.0000 0.0000
# 3 64.8621 33.1972 169.1109 -0.0303 -0.0006 -0.0001
# 4 -0.0002 -0.0039 -0.0303 3130.8459 0.0035 -0.0009
# 5 0.0000 0.0000 -0.0006 0.0035 18.4057 0.0000
# 6 0.0000 0.0000 -0.0001 -0.0009 0.0000 27.4372
#
#
#
# Elastic Compliance Matrix: (Units=1/GPa)
#
#
# Indices 1 2 3 4 5 6 
#
# 1 0.012369 -0.004865 -0.003789 0.000000 0.000000 0.000000
# 2 -0.004865 0.010402 -0.000176 0.000000 0.000000 0.000000
# 3 -0.003789 -0.000176 0.007401 0.000000 0.000000 0.000000
# 4 0.000000 0.000000 0.000000 0.000319 0.000000 0.000000
# 5 0.000000 0.000000 0.000000 0.000000 0.054331 0.000000
# 6 0.000000 0.000000 0.000000 0.000000 0.000000 0.036447
#
#
# Mechanical properties :
#
#
# Convention : Reuss Voigt Hill
#
# Bulk Modulus (GPa) = 79.92021 81.29077 80.60549
# Shear Modulus (GPa) = 34.94039 652.68774 343.81406
#
# Velocity S-wave (km/s) = 4.51419 19.51050 14.16046
# Velocity P-wave (km/s) = 8.58961 23.55751 17.73045
#
# Compressibility (1/GPa) = 0.01251248
#
# Stress axis : x y z
#
# Youngs Moduli (GPa) = 80.84679 96.13116 135.11354
#
# Poissons Ratio (x) = 0.46766 0.51197
# Poissons Ratio (y) = 0.39330 0.02380
# Poissons Ratio (z) = 0.30634 0.01694
#
# Static dielectric constant tensor:
#      x y z
#    x 1.576750 0.000000 0.000000 
#    y 0.000000 1.608150 0.000000 
#    z 0.000000 0.000000 1.603050 
# 
# From -- ./inp_files/5393.got.cif
#   From: 2010.05.17/outbox.cif.g08.bks.cpg/sg71_3_cif.got.tgz:5393.got - 2010.06.03 16:22:01.
