data_PCOD9523876
_publ_section_title
;
Structure prediction by ZEFSAII (Michael W. Deem and Ramdas Pophale) SiO2 
 PCOD9523876
Probable space group: I M M M
;
_chemical_formula_sum "Si O2"
_cell_formula_units_Z 72
_cell_length_a 7.420351
_cell_length_b 16.325158
_cell_length_c 28.839786
_cell_angle_alpha 90.000000
_cell_angle_beta 90.000000
_cell_angle_gamma 90.000000
_cell_volume 3493.605604
_symmetry_space_group_name_H-M "I M M M"
_symmetry_group_IT_number 71
_symmetry_cell_setting 'orthorhombic'
loop_
_space_group_symop_operation_xyz
x,y,z
-x,-y,z
x,-y,-z
-x,y,-z
-x,-y,-z
x,y,-z
-x,y,z
x,-y,z
1/2+x,1/2+y,1/2+z
1/2-x,1/2-y,1/2+z
1/2+x,1/2-y,1/2-z
1/2-x,1/2+y,1/2-z
1/2-x,1/2-y,1/2-z
1/2+x,1/2+y,1/2-z
1/2-x,1/2+y,1/2+z
1/2+x,1/2-y,1/2+z
loop_
_atom_site_type_symbol
_atom_site_label
_atom_site_fract_x
_atom_site_fract_y
_atom_site_fract_z
Si Si1 0.500000 0.500000 0.570761
Si Si2 0.000000 0.851332 0.000000
Si Si3 0.215737 0.500000 0.649171
Si Si4 0.782824 0.646875 0.715906
Si Si5 0.719614 0.405959 0.088692
Si Si6 0.717786 0.705918 0.000000
Si Si7 0.789577 0.176410 0.683399
O O1 0.500000 0.415525 0.542210
O O2 0.322729 0.500000 0.602018
O O3 0.828260 0.790439 0.000000
O O4 0.267704 0.421637 0.679519
O O5 0.000000 0.500000 0.642518
O O6 0.713124 0.734700 0.697742
O O7 0.723721 0.627730 0.768297
O O8 0.000000 0.650486 0.717701
O O9 0.500000 0.408642 0.089666
O O10 0.779869 0.500000 0.082889
O O11 0.766034 0.347647 0.045532
O O12 0.783080 0.367968 0.137766
O O13 0.500000 0.718880 0.000000
O O14 0.000000 0.190152 0.673260
#
# Coordination Sequence:
#
# PCOD9523876 Si02
#       7
#     4   4   8  16  16   8  16
#     4  11  28  48  68  98 128 166 210 271 336 382
#     4  11  28  50  67 102 130 150 225 274 310 413
#     4  10  23  41  67  94 128 165 209 265 317 389
#     4   9  19  35  52  83 123 161 208 254 306 378
#     4   9  18  34  59  91 122 162 214 260 311 385
#     4  10  22  43  71  93 125 171 205 265 332 378
#     4   9  18  32  54  84 120 162 210 254 305 374
#
# _framework density 20.609081
#
# number of rings (size 3 to 8) (size 9 to 14) (size 15 to 20)
#    0.000    2.556    0.000    0.333    6.222    2.222 
#    2.000    2.222    0.000    0.000    0.000    0.000 
#    0.000    0.000    0.000    0.000    0.000    0.000 
#
# Total GULP energy -200931.005967 kJ/mol
# GULP energy per Si atom -5581.416832 kJ/mol
# Density = 2.056217 g / cm^3
# Si number density = 20.609081 Si / 1000 Ang^3
#
#
#
# Elastic Constant Matrix: (Units=GPa)
#
#
# Indices 1 2 3 4 5 6 
#
# 1 74.6703 36.6381 34.9551 0.0000 0.0000 0.0000
# 2 36.6381 147.8412 111.0747 0.0000 0.0000 0.0000
# 3 34.9551 111.0747 194.2881 0.0000 0.0000 0.0000
# 4 0.0000 0.0000 0.0000 11.3669 0.0000 0.0000
# 5 0.0000 0.0000 0.0000 0.0000 21.2200 0.0000
# 6 0.0000 0.0000 0.0000 0.0000 0.0000 -31.3831
#
#
#
# Elastic Compliance Matrix: (Units=1/GPa)
#
#
# Indices 1 2 3 4 5 6 
#
# 1 0.015363 -0.003034 -0.001030 0.000000 0.000000 0.000000
# 2 -0.003034 0.012456 -0.006575 0.000000 0.000000 0.000000
# 3 -0.001030 -0.006575 0.009091 0.000000 0.000000 0.000000
# 4 0.000000 0.000000 0.000000 0.087974 0.000000 0.000000
# 5 0.000000 0.000000 0.000000 0.000000 0.047125 0.000000
# 6 0.000000 0.000000 0.000000 0.000000 0.000000 -0.031864
#
#
# Mechanical properties :
#
#
# Convention : Reuss Voigt Hill
#
# Bulk Modulus (GPa) = 63.96771 86.90392 75.43581
# Shear Modulus (GPa) = 30.00603 15.84956 22.92779
#
# Velocity S-wave (km/s) = 3.81985 2.77620 3.33905
# Velocity P-wave (km/s) = 7.11062 7.24815 7.17972
#
# Compressibility (1/GPa) = 0.01563289
#
# Stress axis : x y z
#
# Youngs Moduli (GPa) = 65.09273 80.28361 109.99518
#
# Poissons Ratio (x) = 0.24355 0.11326
# Poissons Ratio (y) = 0.19747 0.72324
# Poissons Ratio (z) = 0.06702 0.52788
#
# Static dielectric constant tensor:
#      x y z
#    x 1.776040 0.000000 0.000000 
#    y 0.000000 1.717870 0.000000 
#    z 0.000000 0.000000 1.712800 
# 
# From -- ./inp_files/62928.got.cif
#   From: 2010.05.17/outbox.cif.g08.bks.cpg/sg71_32_cif.got.tgz:62928.got - 2010.06.03 16:22:01.
