data_PCOD9523698
_publ_section_title
;
Structure prediction by ZEFSAII (Michael W. Deem and Ramdas Pophale) SiO2 
 PCOD9523698
Probable space group: I M M M
;
_chemical_formula_sum "Si O2"
_cell_formula_units_Z 80
_cell_length_a 19.881199
_cell_length_b 13.170972
_cell_length_c 15.144604
_cell_angle_alpha 90.000000
_cell_angle_beta 90.000000
_cell_angle_gamma 90.000000
_cell_volume 3965.685970
_symmetry_space_group_name_H-M "I M M M"
_symmetry_group_IT_number 71
_symmetry_cell_setting 'orthorhombic'
loop_
_space_group_symop_operation_xyz
x,y,z
-x,-y,z
x,-y,-z
-x,y,-z
-x,-y,-z
x,y,-z
-x,y,z
x,-y,z
1/2+x,1/2+y,1/2+z
1/2-x,1/2-y,1/2+z
1/2+x,1/2-y,1/2-z
1/2-x,1/2+y,1/2-z
1/2-x,1/2-y,1/2-z
1/2+x,1/2+y,1/2-z
1/2-x,1/2+y,1/2+z
1/2+x,1/2-y,1/2+z
loop_
_atom_site_type_symbol
_atom_site_label
_atom_site_fract_x
_atom_site_fract_y
_atom_site_fract_z
Si Si1 0.427435 0.113787 0.842390
Si Si2 0.292149 0.500000 0.108112
Si Si3 0.075779 0.776396 0.813021
Si Si4 0.919647 0.000000 0.735101
Si Si5 0.280038 0.108005 0.101589
Si Si6 0.708732 0.802456 0.394166
O O1 0.500000 0.119332 0.888639
O O2 0.424805 0.206833 0.774861
O O3 0.360323 0.118461 0.898798
O O4 0.425255 0.000000 0.799552
O O5 0.364692 0.500000 0.156220
O O6 0.246878 0.596652 0.135409
O O7 0.300751 0.500000 0.000000
O O8 0.090541 0.894459 0.789351
O O9 0.131913 0.721007 0.871073
O O10 0.000000 0.772963 0.850613
O O11 0.000000 0.000000 0.708682
O O12 0.248326 0.205851 0.144325
O O13 0.262276 0.000000 0.143730
O O14 0.256971 0.104805 0.000000
O O15 0.714916 0.805097 0.500000
#
# Coordination Sequence:
#
# PCOD9523698 Si02
#       6
#    16   8  16   8  16  16
#     4   9  18  32  51  77 108 141 178 220 268 325
#     4  10  22  39  59  87 119 151 190 232 278 338
#     4  10  22  39  57  80 111 145 188 236 281 332
#     4  10  22  39  59  87 119 151 190 232 278 338
#     4   9  18  32  51  77 108 141 178 220 268 325
#     4  10  22  39  57  80 111 145 188 236 281 332
#
# _framework density 20.173055999999999
#
# number of rings (size 3 to 8) (size 9 to 14) (size 15 to 20)
#    0.000    2.400    0.000    1.200    2.800    4.200 
#    0.000    2.000    0.000   10.800    0.000    0.000 
#    0.000    0.000    0.000    0.000    0.000    0.000 
#
# Total GULP energy -222767.947086 kJ/mol
# GULP energy per Si atom -5569.198677 kJ/mol
# Density = 2.012714 g / cm^3
# Si number density = 20.173056 Si / 1000 Ang^3
#
#
#
# Elastic Constant Matrix: (Units=GPa)
#
#
# Indices 1 2 3 4 5 6 
#
# 1 114.5088 54.2001 9.5729 0.0000 0.0000 0.0000
# 2 54.2001 143.8948 28.2575 0.0000 0.0000 0.0000
# 3 9.5729 28.2575 20.4077 0.0000 0.0000 0.0000
# 4 0.0000 0.0000 0.0000 7.9701 0.0000 0.0000
# 5 0.0000 0.0000 0.0000 0.0000 36.4539 0.0000
# 6 0.0000 0.0000 0.0000 0.0000 0.0000 32.0478
#
#
#
# Elastic Compliance Matrix: (Units=1/GPa)
#
#
# Indices 1 2 3 4 5 6 
#
# 1 0.010636 -0.004157 0.000766 0.000000 0.000000 0.000000
# 2 -0.004157 0.011169 -0.013516 0.000000 0.000000 0.000000
# 3 0.000766 -0.013516 0.067356 0.000000 0.000000 0.000000
# 4 0.000000 0.000000 0.000000 0.125469 0.000000 0.000000
# 5 0.000000 0.000000 0.000000 0.000000 0.027432 0.000000
# 6 0.000000 0.000000 0.000000 0.000000 0.000000 0.031203
#
#
# Mechanical properties :
#
#
# Convention : Reuss Voigt Hill
#
# Bulk Modulus (GPa) = 18.06696 51.43024 34.74860
# Shear Modulus (GPa) = 15.35960 27.74640 21.55300
#
# Velocity S-wave (km/s) = 2.76233 3.71269 3.27219
# Velocity P-wave (km/s) = 4.37600 6.62786 5.61596
#
# Compressibility (1/GPa) = 0.05534967
#
# Stress axis : x y z
#
# Youngs Moduli (GPa) = 94.01636 89.52984 14.84641
#
# Poissons Ratio (x) = 0.37217 -0.01138
# Poissons Ratio (y) = 0.39082 0.20066
# Poissons Ratio (z) = -0.07206 1.21007
#
# Static dielectric constant tensor:
#      x y z
#    x 1.754260 0.000000 0.000000 
#    y 0.000000 1.763890 0.000000 
#    z 0.000000 0.000000 1.713070 
# 
# From -- ./inp_files/43281.got.cif
#   From: 2010.05.17/outbox.cif.g08.bks.cpg/sg71_22_cif.got.tgz:43281.got - 2010.06.03 16:22:01.
