data_PCOD9523810
_publ_section_title
;
Structure prediction by ZEFSAII (Michael W. Deem and Ramdas Pophale) SiO2 
 PCOD9523810
Probable space group: I M M M
;
_chemical_formula_sum "Si O2"
_cell_formula_units_Z 76
_cell_length_a 26.972721
_cell_length_b 7.419263
_cell_length_c 17.806330
_cell_angle_alpha 90.000000
_cell_angle_beta 90.000000
_cell_angle_gamma 90.000000
_cell_volume 3563.362000
_symmetry_space_group_name_H-M "I M M M"
_symmetry_group_IT_number 71
_symmetry_cell_setting 'orthorhombic'
loop_
_space_group_symop_operation_xyz
x,y,z
-x,-y,z
x,-y,-z
-x,y,-z
-x,-y,-z
x,y,-z
-x,y,z
x,-y,z
1/2+x,1/2+y,1/2+z
1/2-x,1/2-y,1/2+z
1/2+x,1/2-y,1/2-z
1/2-x,1/2+y,1/2-z
1/2-x,1/2-y,1/2-z
1/2+x,1/2+y,1/2-z
1/2-x,1/2+y,1/2+z
1/2+x,1/2-y,1/2+z
loop_
_atom_site_type_symbol
_atom_site_label
_atom_site_fract_x
_atom_site_fract_y
_atom_site_fract_z
Si Si1 0.557429 0.279726 0.000000
Si Si2 0.884887 0.780660 0.649319
Si Si3 0.500000 0.000000 0.356491
Si Si4 0.175150 0.211814 0.082438
Si Si5 0.084492 0.780918 0.184647
Si Si6 0.227200 0.212883 0.331974
O O1 0.586281 0.221133 0.924994
O O2 0.557537 0.500000 0.000000
O O3 0.500000 0.223519 0.000000
O O4 0.912578 0.736349 0.726817
O O5 0.828088 0.714272 0.655051
O O6 0.883453 0.000000 0.646737
O O7 0.457089 0.159459 0.352931
O O8 0.136964 0.271190 0.146436
O O9 0.231622 0.231393 0.108208
O O10 0.165553 0.000000 0.076873
O O11 0.166722 0.292009 0.000000
O O12 0.077032 0.000000 0.177921
O O13 0.250000 0.250000 0.250000
O O14 0.222408 0.000000 0.337576
#
# Coordination Sequence:
#
# PCOD9523810 Si02
#       6
#     8  16   4  16  16  16
#     4   9  18  32  56  86 116 162 218 264 311 380
#     4   9  19  35  57  86 125 165 213 259 320 385
#     4  12  26  40  69 101 118 160 226 270 320 381
#     4  10  22  41  63  90 129 172 212 257 327 394
#     4  10  22  43  65  91 126 168 210 266 325 387
#     4  11  21  35  60  92 126 165 210 265 318 386
#
# _framework density 21.328174000000001
#
# number of rings (size 3 to 8) (size 9 to 14) (size 15 to 20)
#    0.000    2.000    2.105    0.947    4.421    0.421 
#    1.895    1.053    0.000    3.789    0.000    0.000 
#    0.000    0.000    0.000    0.000    0.000    0.000 
#
# Total GULP energy -211627.646436 kJ/mol
# GULP energy per Si atom -5569.148590 kJ/mol
# Density = 2.127963 g / cm^3
# Si number density = 21.328174 Si / 1000 Ang^3
#
#
#
# Elastic Constant Matrix: (Units=GPa)
#
#
# Indices 1 2 3 4 5 6 
#
# 1 104.8403 5.0650 12.2500 0.0000 0.0000 0.0000
# 2 5.0650 78.3460 1.1238 0.0000 0.0000 0.0000
# 3 12.2500 1.1238 103.6067 0.0000 0.0000 0.0000
# 4 0.0000 0.0000 0.0000 -16.3845 0.0000 0.0000
# 5 0.0000 0.0000 0.0000 0.0000 26.7078 0.0000
# 6 0.0000 0.0000 0.0000 0.0000 0.0000 43.2519
#
#
#
# Elastic Compliance Matrix: (Units=1/GPa)
#
#
# Indices 1 2 3 4 5 6 
#
# 1 0.009701 -0.000611 -0.001140 0.000000 0.000000 0.000000
# 2 -0.000611 0.012804 -0.000067 0.000000 0.000000 0.000000
# 3 -0.001140 -0.000067 0.009787 0.000000 0.000000 0.000000
# 4 0.000000 0.000000 0.000000 -0.061033 0.000000 0.000000
# 5 0.000000 0.000000 0.000000 0.000000 0.037442 0.000000
# 6 0.000000 0.000000 0.000000 0.000000 0.000000 0.023120
#
#
# Mechanical properties :
#
#
# Convention : Reuss Voigt Hill
#
# Bulk Modulus (GPa) = 34.89533 35.96340 35.42936
# Shear Modulus (GPa) = 111.08620 28.60534 69.84577
#
# Velocity S-wave (km/s) = 7.22477 3.66621 5.72881
# Velocity P-wave (km/s) = 9.27325 5.90085 7.77217
#
# Compressibility (1/GPa) = 0.02865713
#
# Stress axis : x y z
#
# Youngs Moduli (GPa) = 103.08131 78.09851 102.17172
#
# Poissons Ratio (x) = 0.04770 0.11652
# Poissons Ratio (y) = 0.06296 0.00681
# Poissons Ratio (z) = 0.11755 0.00521
#
# Static dielectric constant tensor:
#      x y z
#    x 1.747530 0.000000 0.000000 
#    y 0.000000 1.810430 0.000000 
#    z 0.000000 0.000000 1.766660 
# 
# From -- ./inp_files/48594.got.cif
#   From: 2010.05.17/outbox.cif.g08.bks.cpg/sg71_25_cif.got.tgz:48594.got - 2010.06.03 16:22:01.
