data_PCOD9523472
_publ_section_title
;
Structure prediction by ZEFSAII (Michael W. Deem and Ramdas Pophale) SiO2 
 PCOD9523472
Probable space group: I M M M
;
_chemical_formula_sum "Si O2"
_cell_formula_units_Z 72
_cell_length_a 22.605985
_cell_length_b 18.325128
_cell_length_c 7.831083
_cell_angle_alpha 90.000000
_cell_angle_beta 90.000000
_cell_angle_gamma 90.000000
_cell_volume 3244.085404
_symmetry_space_group_name_H-M "I M M M"
_symmetry_group_IT_number 71
_symmetry_cell_setting 'orthorhombic'
loop_
_space_group_symop_operation_xyz
x,y,z
-x,-y,z
x,-y,-z
-x,y,-z
-x,-y,-z
x,y,-z
-x,y,z
x,-y,z
1/2+x,1/2+y,1/2+z
1/2-x,1/2-y,1/2+z
1/2+x,1/2-y,1/2-z
1/2-x,1/2+y,1/2-z
1/2-x,1/2-y,1/2-z
1/2+x,1/2+y,1/2-z
1/2-x,1/2+y,1/2+z
1/2+x,1/2-y,1/2+z
loop_
_atom_site_type_symbol
_atom_site_label
_atom_site_fract_x
_atom_site_fract_y
_atom_site_fract_z
Si Si1 0.333431 0.696041 0.698379
Si Si2 0.373730 0.852652 0.295971
Si Si3 0.500000 0.916936 0.796935
Si Si4 0.244236 0.420846 0.296913
Si Si5 0.068776 0.917030 0.293793
O O1 0.318656 0.709830 0.500000
O O2 0.352989 0.773503 0.773748
O O3 0.279522 0.648947 0.775973
O O4 0.388812 0.641598 0.710703
O O5 0.370017 0.851276 0.500000
O O6 0.440313 0.874794 0.252463
O O7 0.325218 0.909420 0.229688
O O8 0.500000 0.000000 0.726096
O O9 0.500000 0.922207 0.000000
O O10 0.256166 0.422027 0.500000
O O11 0.262778 0.500000 0.226455
O O12 0.074224 0.912325 0.500000
O O13 0.000000 0.904647 0.251353
O O14 0.084042 0.000000 0.243118
#
# Coordination Sequence:
#
# PCOD9523472 Si02
#       5
#    16  16   8  16  16
#     4  10  22  38  58  86 121 157 196 241 294 355
#     4  11  24  40  61  91 124 155 195 249 302 352
#     4  11  25  45  67  89 116 157 204 245 295 358
#     4  10  21  39  62  87 118 158 202 244 291 354
#     4   9  19  35  54  80 115 154 199 248 295 347
#
# _framework density 22.194237999999999
#
# number of rings (size 3 to 8) (size 9 to 14) (size 15 to 20)
#    0.000    1.889    0.000    3.667    1.556    8.444 
#    0.000    1.111    0.000    0.000    0.000    0.000 
#    0.000    0.000    0.000    0.000    0.000    0.000 
#
# Total GULP energy -201183.166648 kJ/mol
# GULP energy per Si atom -5588.421296 kJ/mol
# Density = 2.214372 g / cm^3
# Si number density = 22.194238 Si / 1000 Ang^3
#
#
#
# Elastic Constant Matrix: (Units=GPa)
#
#
# Indices 1 2 3 4 5 6 
#
# 1 115.5911 68.1350 -6.2358 0.0000 0.0000 0.0000
# 2 68.1350 136.8721 9.2406 0.0000 0.0000 0.0000
# 3 -6.2358 9.2406 34.5972 0.0000 0.0000 0.0000
# 4 0.0000 0.0000 0.0000 9.8840 0.0000 0.0000
# 5 0.0000 0.0000 0.0000 0.0000 12.5799 0.0000
# 6 0.0000 0.0000 0.0000 0.0000 0.0000 15.8063
#
#
#
# Elastic Compliance Matrix: (Units=1/GPa)
#
#
# Indices 1 2 3 4 5 6 
#
# 1 0.012785 -0.006640 0.004078 0.000000 0.000000 0.000000
# 2 -0.006640 0.010888 -0.004105 0.000000 0.000000 0.000000
# 3 0.004078 -0.004105 0.030735 0.000000 0.000000 0.000000
# 4 0.000000 0.000000 0.000000 0.101173 0.000000 0.000000
# 5 0.000000 0.000000 0.000000 0.000000 0.079492 0.000000
# 6 0.000000 0.000000 0.000000 0.000000 0.000000 0.063266
#
#
# Mechanical properties :
#
#
# Convention : Reuss Voigt Hill
#
# Bulk Modulus (GPa) = 24.34562 47.70443 36.02503
# Shear Modulus (GPa) = 15.36735 22.04875 18.70805
#
# Velocity S-wave (km/s) = 2.63421 3.15532 2.90646
# Velocity P-wave (km/s) = 4.49947 5.90046 5.24693
#
# Compressibility (1/GPa) = 0.04107515
#
# Stress axis : x y z
#
# Youngs Moduli (GPa) = 78.21741 91.84065 32.53570
#
# Poissons Ratio (x) = 0.60979 -0.13267
# Poissons Ratio (y) = 0.51933 0.13356
# Poissons Ratio (z) = -0.31895 0.37700
#
# Static dielectric constant tensor:
#      x y z
#    x 1.907960 0.000000 0.000000 
#    y 0.000000 1.852970 0.000000 
#    z 0.000000 0.000000 1.800200 
# 
# From -- ./inp_files/10132.got.cif
#   From: 2010.05.17/outbox.cif.g08.bks.cpg/sg71_6_cif.got.tgz:10132.got - 2010.06.03 16:22:01.
