data_PCOD9523290
_publ_section_title
;
Structure prediction by ZEFSAII (Michael W. Deem and Ramdas Pophale) SiO2 
 PCOD9523290
Probable space group: I M M M
;
_chemical_formula_sum "Si O2"
_cell_formula_units_Z 88
_cell_length_a 8.751838
_cell_length_b 23.214477
_cell_length_c 22.237073
_cell_angle_alpha 90.000000
_cell_angle_beta 90.000000
_cell_angle_gamma 90.000000
_cell_volume 4517.891488
_symmetry_space_group_name_H-M "I M M M"
_symmetry_group_IT_number 71
_symmetry_cell_setting 'orthorhombic'
loop_
_space_group_symop_operation_xyz
x,y,z
-x,-y,z
x,-y,-z
-x,y,-z
-x,-y,-z
x,y,-z
-x,y,z
x,-y,z
1/2+x,1/2+y,1/2+z
1/2-x,1/2-y,1/2+z
1/2+x,1/2-y,1/2-z
1/2-x,1/2+y,1/2-z
1/2-x,1/2-y,1/2-z
1/2+x,1/2+y,1/2-z
1/2-x,1/2+y,1/2+z
1/2+x,1/2-y,1/2+z
loop_
_atom_site_type_symbol
_atom_site_label
_atom_site_fract_x
_atom_site_fract_y
_atom_site_fract_z
Si Si1 0.675888 0.850869 0.658389
Si Si2 0.173319 0.933212 0.428306
Si Si3 0.182147 0.934873 0.754977
Si Si4 0.816399 0.432115 0.500000
Si Si5 0.318284 0.377256 0.621151
Si Si6 0.680333 0.236222 0.183897
O O1 0.500000 0.834089 0.664776
O O2 0.704726 0.893605 0.603421
O O3 0.730833 0.887143 0.716349
O O4 0.778927 0.794816 0.649283
O O5 0.179784 0.928810 0.500000
O O6 0.000000 0.917353 0.408975
O O7 0.195391 0.000000 0.412149
O O8 0.207787 0.923326 0.825381
O O9 0.000000 0.928627 0.744081
O O10 0.227146 0.000000 0.738898
O O11 0.768790 0.500000 0.500000
O O12 0.755789 0.399682 0.440387
O O13 0.000000 0.430560 0.500000
O O14 0.500000 0.370909 0.612506
O O15 0.253026 0.317836 0.649065
O O16 0.500000 0.227464 0.189611
O O17 0.750000 0.250000 0.250000
#
# Coordination Sequence:
#
# PCOD9523290 Si02
#       6
#    16  16  16   8  16  16
#     4  12  24  37  58  89 124 163 205 253 310 372
#     4   9  19  38  62  86 117 159 204 250 304 365
#     4  10  21  37  60  90 124 162 204 254 313 374
#     4  11  25  45  69  99 137 179 222 271 326 389
#     4  11  23  42  68  96 127 168 216 268 324 382
#     4  12  24  42  66  92 124 163 206 255 314 380
#
# _framework density 19.478114000000001
#
# number of rings (size 3 to 8) (size 9 to 14) (size 15 to 20)
#    0.000    1.182    1.818    5.727    0.000    5.455 
#    1.636    0.909    0.000    0.000    0.000    0.000 
#    0.000    0.000    0.000    0.000    0.000    0.000 
#
# Total GULP energy -245925.854105 kJ/mol
# GULP energy per Si atom -5589.223957 kJ/mol
# Density = 1.943378 g / cm^3
# Si number density = 19.478114 Si / 1000 Ang^3
#
#
#
# Elastic Constant Matrix: (Units=GPa)
#
#
# Indices 1 2 3 4 5 6 
#
# 1 85.7573 41.5024 38.9297 0.0000 0.0000 0.0000
# 2 41.5024 107.0293 52.7568 0.0000 0.0000 0.0000
# 3 38.9297 52.7568 108.9593 0.0000 0.0000 0.0000
# 4 0.0000 0.0000 0.0000 64.4479 0.0000 0.0000
# 5 0.0000 0.0000 0.0000 0.0000 28.5773 0.0000
# 6 0.0000 0.0000 0.0000 0.0000 0.0000 29.1864
#
#
#
# Elastic Compliance Matrix: (Units=1/GPa)
#
#
# Indices 1 2 3 4 5 6 
#
# 1 0.015255 -0.004241 -0.003397 0.000000 0.000000 0.000000
# 2 -0.004241 0.013451 -0.004998 0.000000 0.000000 0.000000
# 3 -0.003397 -0.004998 0.012811 0.000000 0.000000 0.000000
# 4 0.000000 0.000000 0.000000 0.015516 0.000000 0.000000
# 5 0.000000 0.000000 0.000000 0.000000 0.034993 0.000000
# 6 0.000000 0.000000 0.000000 0.000000 0.000000 0.034263
#
#
# Mechanical properties :
#
#
# Convention : Reuss Voigt Hill
#
# Bulk Modulus (GPa) = 61.55240 63.12485 62.33862
# Shear Modulus (GPa) = 31.85187 35.67944 33.76566
#
# Velocity S-wave (km/s) = 4.04823 4.28456 4.16807
# Velocity P-wave (km/s) = 7.31575 7.54686 7.43221
#
# Compressibility (1/GPa) = 0.01624632
#
# Stress axis : x y z
#
# Youngs Moduli (GPa) = 65.55063 74.34282 78.05625
#
# Poissons Ratio (x) = 0.31529 0.26516
# Poissons Ratio (y) = 0.27800 0.39010
# Poissons Ratio (z) = 0.22268 0.37154
#
# Static dielectric constant tensor:
#      x y z
#    x 1.670530 0.000000 0.000000 
#    y 0.000000 1.684090 0.000000 
#    z 0.000000 0.000000 1.688840 
# 
# From -- ./inp_files/10399.got.cif
#   From: 2010.05.17/outbox.cif.g08.bks.cpg/sg71_6_cif.got.tgz:10399.got - 2010.06.03 16:22:01.
