data_PCOD9523926
_publ_section_title
;
Structure prediction by ZEFSAII (Michael W. Deem and Ramdas Pophale) SiO2 
 PCOD9523926
Probable space group: I M M M
;
_chemical_formula_sum "Si O2"
_cell_formula_units_Z 100
_cell_length_a 22.513786
_cell_length_b 24.614057
_cell_length_c 7.637239
_cell_angle_alpha 90.000000
_cell_angle_beta 90.000000
_cell_angle_gamma 90.000000
_cell_volume 4232.218851
_symmetry_space_group_name_H-M "I M M M"
_symmetry_group_IT_number 71
_symmetry_cell_setting 'orthorhombic'
loop_
_space_group_symop_operation_xyz
x,y,z
-x,-y,z
x,-y,-z
-x,y,-z
-x,-y,-z
x,y,-z
-x,y,z
x,-y,z
1/2+x,1/2+y,1/2+z
1/2-x,1/2-y,1/2+z
1/2+x,1/2-y,1/2-z
1/2-x,1/2+y,1/2-z
1/2-x,1/2-y,1/2-z
1/2+x,1/2+y,1/2-z
1/2-x,1/2+y,1/2+z
1/2+x,1/2-y,1/2+z
loop_
_atom_site_type_symbol
_atom_site_label
_atom_site_fract_x
_atom_site_fract_y
_atom_site_fract_z
Si Si1 0.435938 0.380458 0.797708
Si Si2 0.226953 0.000000 0.798080
Si Si3 0.914439 0.000000 0.202075
Si Si4 0.275383 0.883341 0.301064
Si Si5 0.591421 0.105992 0.289916
Si Si6 0.000000 0.569378 0.500000
Si Si7 0.434879 0.767247 0.708633
Si Si8 0.167318 0.807680 0.192479
O O1 0.500000 0.363135 0.726591
O O2 0.434644 0.445047 0.790455
O O3 0.380420 0.356829 0.694676
O O4 0.430247 0.363455 0.000000
O O5 0.156332 0.000000 0.794167
O O6 0.246896 0.056773 0.714275
O O7 0.247105 0.000000 0.000000
O O8 0.933435 0.000000 0.000000
O O9 0.288825 0.869800 0.500000
O O10 0.340675 0.890156 0.222323
O O11 0.228449 0.836575 0.248592
O O12 0.588224 0.090209 0.500000
O O13 0.551496 0.071898 0.156459
O O14 0.569241 0.168208 0.277207
O O15 0.435659 0.754050 0.500000
O O16 0.500000 0.751672 0.782377
O O17 0.374897 0.738415 0.780878
O O18 0.180758 0.786051 0.000000
#
# Coordination Sequence:
#
# PCOD9523926 Si02
#       8
#    16   8   8  16  16   4  16  16
#     4  11  23  37  52  78 114 157 205 266 321 370
#     4  11  23  40  66  91 124 161 215 265 315 392
#     4  11  22  36  57  80 103 151 205 261 319 379
#     4  11  24  42  65  94 129 171 207 263 326 383
#     4  10  23  43  68 101 137 169 215 263 320 387
#     4  12  22  40  76 107 126 176 210 263 314 396
#     4   9  18  38  62  87 126 173 212 263 322 375
#     4  11  22  36  59  87 124 168 217 262 313 371
#
# _framework density 23.628269
#
# number of rings (size 3 to 8) (size 9 to 14) (size 15 to 20)
#    0.000    1.440    2.400    2.880    2.240    4.160 
#    2.880    0.000    0.000    0.960    0.000    2.240 
#    0.000    0.000    0.000    0.000    0.000    0.000 
#
# Total GULP energy -278435.414995 kJ/mol
# GULP energy per Si atom -5568.708300 kJ/mol
# Density = 2.357449 g / cm^3
# Si number density = 23.628269 Si / 1000 Ang^3
#
#
#
# Elastic Constant Matrix: (Units=GPa)
#
#
# Indices 1 2 3 4 5 6 
#
# 1 175.7712 -10.3491 28.7288 0.0000 0.0000 0.0000
# 2 -10.3491 40.3539 -8.4270 0.0000 0.0000 0.0000
# 3 28.7288 -8.4270 86.7840 0.0000 0.0000 0.0000
# 4 0.0000 0.0000 0.0000 -662.7976 0.0000 0.0000
# 5 0.0000 0.0000 0.0000 0.0000 24.5126 0.0000
# 6 0.0000 0.0000 0.0000 0.0000 0.0000 -42.9485
#
#
#
# Elastic Compliance Matrix: (Units=1/GPa)
#
#
# Indices 1 2 3 4 5 6 
#
# 1 0.006067 0.001160 -0.001896 0.000000 0.000000 0.000000
# 2 0.001160 0.025515 0.002094 0.000000 0.000000 0.000000
# 3 -0.001896 0.002094 0.012354 0.000000 0.000000 0.000000
# 4 0.000000 0.000000 0.000000 -0.001509 0.000000 0.000000
# 5 0.000000 0.000000 0.000000 0.000000 0.040795 0.000000
# 6 0.000000 0.000000 0.000000 0.000000 0.000000 -0.023284
#
#
# Mechanical properties :
#
#
# Convention : Reuss Voigt Hill
#
# Bulk Modulus (GPa) = 21.43517 35.86826 28.65172
# Shear Modulus (GPa) = 68.70518 -116.71628 -24.00555
#
# Velocity S-wave (km/s) = 5.39821 -7.03592 -3.19088
# Velocity P-wave (km/s) = 6.92429 7.12687 1.19301
#
# Compressibility (1/GPa) = 0.04665229
#
# Stress axis : x y z
#
# Youngs Moduli (GPa) = 164.81548 39.19189 80.94698
#
# Poissons Ratio (x) = -0.04547 0.15347
# Poissons Ratio (y) = -0.19121 -0.16947
# Poissons Ratio (z) = 0.31247 -0.08205
#
# Static dielectric constant tensor:
#      x y z
#    x 1.950710 0.000000 0.000000 
#    y 0.000000 1.911150 0.000000 
#    z 0.000000 0.000000 1.925710 
# 
# From -- ./inp_files/11229.got.cif
#   From: 2010.05.17/outbox.cif.g08.bks.cpg/sg71_6_cif.got.tgz:11229.got - 2010.06.03 16:22:01.
