data_PCOD9523450
_publ_section_title
;
Structure prediction by ZEFSAII (Michael W. Deem and Ramdas Pophale) SiO2 
 PCOD9523450
Probable space group: I M M M
;
_chemical_formula_sum "Si O2"
_cell_formula_units_Z 68
_cell_length_a 7.913063
_cell_length_b 17.463801
_cell_length_c 22.505609
_cell_angle_alpha 90.000000
_cell_angle_beta 90.000000
_cell_angle_gamma 90.000000
_cell_volume 3110.098664
_symmetry_space_group_name_H-M "I M M M"
_symmetry_group_IT_number 71
_symmetry_cell_setting 'orthorhombic'
loop_
_space_group_symop_operation_xyz
x,y,z
-x,-y,z
x,-y,-z
-x,y,-z
-x,-y,-z
x,y,-z
-x,y,z
x,-y,z
1/2+x,1/2+y,1/2+z
1/2-x,1/2-y,1/2+z
1/2+x,1/2-y,1/2-z
1/2-x,1/2+y,1/2-z
1/2-x,1/2-y,1/2-z
1/2+x,1/2+y,1/2-z
1/2-x,1/2+y,1/2+z
1/2+x,1/2-y,1/2+z
loop_
_atom_site_type_symbol
_atom_site_label
_atom_site_fract_x
_atom_site_fract_y
_atom_site_fract_z
Si Si1 0.795653 0.586839 0.835586
Si Si2 0.301916 0.854492 0.208975
Si Si3 0.191241 0.000000 0.138393
Si Si4 0.305293 0.336017 0.500000
Si Si5 0.702077 0.739940 0.886210
Si Si6 0.753466 0.500000 0.500000
O O1 0.736733 0.500000 0.845919
O O2 0.729586 0.617631 0.771731
O O3 0.745055 0.650672 0.883057
O O4 0.000000 0.584176 0.832800
O O5 0.500000 0.839926 0.218990
O O6 0.282002 0.925117 0.163541
O O7 0.230945 0.781132 0.174175
O O8 0.183944 0.000000 0.067440
O O9 0.000000 0.000000 0.161419
O O10 0.500000 0.364621 0.500000
O O11 0.276619 0.284469 0.442185
O O12 0.186417 0.410978 0.500000
O O13 0.500000 0.749118 0.888231
#
# Coordination Sequence:
#
# PCOD9523450 Si02
#       6
#    16  16   8   8  16   4
#     4  10  21  40  65  89 120 162 203 246 304 369
#     4  10  21  39  60  88 127 164 200 246 302 364
#     4  12  22  35  58  91 126 162 209 251 293 350
#     4  12  24  43  65  88 124 164 205 246 299 365
#     4  11  24  40  61  92 125 158 203 254 305 355
#     4  12  25  40  61  92 127 166 207 252 293 350
#
# _framework density 21.864258
#
# number of rings (size 3 to 8) (size 9 to 14) (size 15 to 20)
#    0.000    1.176    3.529    3.176    0.000    2.353 
#    0.000    2.941    0.000    3.529    0.000    0.000 
#    0.000    0.000    0.000    0.000    0.000    0.000 
#
# Total GULP energy -189824.832866 kJ/mol
# GULP energy per Si atom -5583.083320 kJ/mol
# Density = 2.181449 g / cm^3
# Si number density = 21.864258 Si / 1000 Ang^3
#
#
#
# Elastic Constant Matrix: (Units=GPa)
#
#
# Indices 1 2 3 4 5 6 
#
# 1 48.0465 6.1917 9.4484 0.0000 0.0000 0.0000
# 2 6.1917 189.9360 59.3239 0.0000 0.0000 0.0000
# 3 9.4484 59.3239 78.9634 0.0000 0.0000 0.0000
# 4 0.0000 0.0000 0.0000 13.5113 0.0000 0.0000
# 5 0.0000 0.0000 0.0000 0.0000 -10.7477 0.0000
# 6 0.0000 0.0000 0.0000 0.0000 0.0000 -1.0646
#
#
#
# Elastic Compliance Matrix: (Units=1/GPa)
#
#
# Indices 1 2 3 4 5 6 
#
# 1 0.021317 0.000133 -0.002651 0.000000 0.000000 0.000000
# 2 0.000133 0.006880 -0.005185 0.000000 0.000000 0.000000
# 3 -0.002651 -0.005185 0.016876 0.000000 0.000000 0.000000
# 4 0.000000 0.000000 0.000000 0.074012 0.000000 0.000000
# 5 0.000000 0.000000 0.000000 0.000000 -0.093044 0.000000
# 6 0.000000 0.000000 0.000000 0.000000 0.000000 -0.939316
#
#
# Mechanical properties :
#
#
# Convention : Reuss Voigt Hill
#
# Bulk Modulus (GPa) = 33.70525 51.87487 42.79006
# Shear Modulus (GPa) = -5.63076 16.47194 5.42059
#
# Velocity S-wave (km/s) = -1.60652 2.74774 1.57626
# Velocity P-wave (km/s) = 3.46525 5.81757 4.78811
#
# Compressibility (1/GPa) = 0.02966897
#
# Stress axis : x y z
#
# Youngs Moduli (GPa) = 46.91026 145.34948 59.25420
#
# Poissons Ratio (x) = -0.01933 0.15706
# Poissons Ratio (y) = -0.00624 0.30722
# Poissons Ratio (z) = 0.12434 0.75360
#
# Static dielectric constant tensor:
#      x y z
#    x 1.811370 0.000000 0.000000 
#    y 0.000000 1.793840 0.000000 
#    z 0.000000 0.000000 1.781930 
# 
# From -- ./inp_files/12236.got.cif
#   From: 2010.05.17/outbox.cif.g08.bks.cpg/sg71_7_cif.got.tgz:12236.got - 2010.06.03 16:22:01.
