data_PCOD9523517
_publ_section_title
;
Structure prediction by ZEFSAII (Michael W. Deem and Ramdas Pophale) SiO2 
 PCOD9523517
Probable space group: I M M M
;
_chemical_formula_sum "Si O2"
_cell_formula_units_Z 72
_cell_length_a 14.982970
_cell_length_b 8.873869
_cell_length_c 28.613930
_cell_angle_alpha 90.000000
_cell_angle_beta 90.000000
_cell_angle_gamma 90.000000
_cell_volume 3804.419802
_symmetry_space_group_name_H-M "I M M M"
_symmetry_group_IT_number 71
_symmetry_cell_setting 'orthorhombic'
loop_
_space_group_symop_operation_xyz
x,y,z
-x,-y,z
x,-y,-z
-x,y,-z
-x,-y,-z
x,y,-z
-x,y,z
x,-y,z
1/2+x,1/2+y,1/2+z
1/2-x,1/2-y,1/2+z
1/2+x,1/2-y,1/2-z
1/2-x,1/2+y,1/2-z
1/2-x,1/2-y,1/2-z
1/2+x,1/2+y,1/2-z
1/2-x,1/2+y,1/2+z
1/2+x,1/2-y,1/2+z
loop_
_atom_site_type_symbol
_atom_site_label
_atom_site_fract_x
_atom_site_fract_y
_atom_site_fract_z
Si Si1 0.500000 0.325772 0.709198
Si Si2 0.359352 0.321830 0.627436
Si Si3 0.000000 0.318289 0.055662
Si Si4 0.667540 0.674272 0.139089
Si Si5 0.000000 0.677807 0.692020
Si Si6 0.107168 0.667286 0.447119
O O1 0.500000 0.500000 0.725788
O O2 0.417158 0.303465 0.674505
O O3 0.500000 0.218087 0.753397
O O4 0.353097 0.500000 0.617319
O O5 0.414106 0.245065 0.584603
O O6 0.263651 0.252571 0.639300
O O7 0.000000 0.500000 0.058577
O O8 0.000000 0.277656 0.000000
O O9 0.673880 0.500000 0.151874
O O10 0.589310 0.752139 0.169127
O O11 0.637629 0.699971 0.085726
O O12 0.000000 0.500000 0.683550
O O13 0.139531 0.682377 0.500000
O O14 0.135098 0.500000 0.429475
O O15 0.000000 0.666168 0.447833
#
# Coordination Sequence:
#
# PCOD9523517 Si02
#       6
#     8  16   8  16   8  16
#     4   9  21  43  66  89 114 146 196 250 302 356
#     4  10  22  41  65  90 121 160 200 246 299 359
#     4  10  21  39  64  95 129 162 201 250 298 347
#     4  12  24  38  59  89 123 158 200 250 299 351
#     4  12  25  41  63  87 118 158 198 243 300 365
#     4   9  18  34  56  80 111 153 196 237 285 345
#
# _framework density 18.925356000000001
#
# number of rings (size 3 to 8) (size 9 to 14) (size 15 to 20)
#    0.000    1.667    1.111    5.333    0.000    5.778 
#    0.000    1.111    0.000    0.000    0.000    0.000 
#    0.000    0.000    0.000    0.000    0.000    0.000 
#
# Total GULP energy -200904.290592 kJ/mol
# GULP energy per Si atom -5580.674739 kJ/mol
# Density = 1.888228 g / cm^3
# Si number density = 18.925356 Si / 1000 Ang^3
#
#
#
# Elastic Constant Matrix: (Units=GPa)
#
#
# Indices 1 2 3 4 5 6 
#
# 1 148.5489 77.9671 55.1461 0.0000 0.0000 0.0000
# 2 77.9671 138.4467 64.0057 0.0000 0.0000 0.0000
# 3 55.1461 64.0057 84.8423 0.0000 0.0000 0.0000
# 4 0.0000 0.0000 0.0000 36.6335 0.0000 0.0000
# 5 0.0000 0.0000 0.0000 0.0000 -16.7829 0.0000
# 6 0.0000 0.0000 0.0000 0.0000 0.0000 24.9064
#
#
#
# Elastic Compliance Matrix: (Units=1/GPa)
#
#
# Indices 1 2 3 4 5 6 
#
# 1 0.010200 -0.004114 -0.003526 0.000000 0.000000 0.000000
# 2 -0.004114 0.012751 -0.006945 0.000000 0.000000 0.000000
# 3 -0.003526 -0.006945 0.019318 0.000000 0.000000 0.000000
# 4 0.000000 0.000000 0.000000 0.027297 0.000000 0.000000
# 5 0.000000 0.000000 0.000000 0.000000 -0.059584 0.000000
# 6 0.000000 0.000000 0.000000 0.000000 0.000000 0.040150
#
#
# Mechanical properties :
#
#
# Convention : Reuss Voigt Hill
#
# Bulk Modulus (GPa) = 76.34768 85.11952 80.73360
# Shear Modulus (GPa) = 59.75912 20.59931 40.17922
#
# Velocity S-wave (km/s) = 5.62537 3.30275 4.61264
# Velocity P-wave (km/s) = 9.08967 7.72129 8.43328
#
# Compressibility (1/GPa) = 0.01309797
#
# Stress axis : x y z
#
# Youngs Moduli (GPa) = 98.03792 78.42726 51.76502
#
# Poissons Ratio (x) = 0.32265 0.18254
# Poissons Ratio (y) = 0.40333 0.35952
# Poissons Ratio (z) = 0.34571 0.54469
#
# Static dielectric constant tensor:
#      x y z
#    x 1.341420 0.000000 0.000000 
#    y 0.000000 1.660750 0.000000 
#    z 0.000000 0.000000 1.654660 
# 
# From -- ./inp_files/65182.got.cif
#   From: 2010.05.17/outbox.cif.g08.bks.cpg/sg71_33_cif.got.tgz:65182.got - 2010.06.03 16:22:01.
