data_PCOD9523134
_publ_section_title
;
Structure prediction by ZEFSAII (Michael W. Deem and Ramdas Pophale) SiO2 
 PCOD9523134
Probable space group: I M M M
;
_chemical_formula_sum "Si O2"
_cell_formula_units_Z 112
_cell_length_a 27.923467
_cell_length_b 13.966649
_cell_length_c 14.212968
_cell_angle_alpha 90.000000
_cell_angle_beta 90.000000
_cell_angle_gamma 90.000000
_cell_volume 5543.018611
_symmetry_space_group_name_H-M "I M M M"
_symmetry_group_IT_number 71
_symmetry_cell_setting 'orthorhombic'
loop_
_space_group_symop_operation_xyz
x,y,z
-x,-y,z
x,-y,-z
-x,y,-z
-x,-y,-z
x,y,-z
-x,y,z
x,-y,z
1/2+x,1/2+y,1/2+z
1/2-x,1/2-y,1/2+z
1/2+x,1/2-y,1/2-z
1/2-x,1/2+y,1/2-z
1/2-x,1/2-y,1/2-z
1/2+x,1/2+y,1/2-z
1/2-x,1/2+y,1/2+z
1/2+x,1/2-y,1/2+z
loop_
_atom_site_type_symbol
_atom_site_label
_atom_site_fract_x
_atom_site_fract_y
_atom_site_fract_z
Si Si1 0.697833 0.720881 0.387906
Si Si2 0.696103 0.805024 0.112145
Si Si3 0.850132 0.612258 0.783863
Si Si4 0.348972 0.391742 0.112742
Si Si5 0.900258 0.114743 0.106235
Si Si6 0.448306 0.383828 0.206604
Si Si7 0.446103 0.116103 0.609081
O O1 0.698966 0.737315 0.500000
O O2 0.748641 0.674187 0.363685
O O3 0.687854 0.821202 0.337709
O O4 0.651937 0.654907 0.367845
O O5 0.659746 0.866020 0.174707
O O6 0.687246 0.693073 0.137328
O O7 0.689056 0.817162 0.000000
O O8 0.844200 0.500000 0.803599
O O9 0.902411 0.643157 0.822880
O O10 0.339228 0.500000 0.148857
O O11 0.401307 0.358807 0.147839
O O12 0.349732 0.397353 0.000000
O O13 0.938049 0.143189 0.185377
O O14 0.897722 0.000000 0.107008
O O15 0.912356 0.144676 0.000000
O O16 0.500000 0.347531 0.174250
O O17 0.449954 0.500000 0.202444
O O18 0.435572 0.141856 0.500000
O O19 0.500000 0.149180 0.632987
O O20 0.447529 0.000000 0.611444
#
# Coordination Sequence:
#
# PCOD9523134 Si02
#       7
#    16  16  16  16  16  16  16
#     4  10  21  37  56  79 108 139 176 225 274 318
#     4  10  22  39  56  77 109 145 181 223 268 317
#     4  11  22  35  55  82 111 144 181 221 267 320
#     4   9  18  34  56  78 100 131 172 217 264 311
#     4   9  18  33  53  76 104 140 177 211 253 311
#     4   9  17  29  48  75 105 137 171 208 253 307
#     4   8  15  31  56  83 109 138 174 219 273 328
#
# _framework density 20.205597000000001
#
# number of rings (size 3 to 8) (size 9 to 14) (size 15 to 20)
#    0.000    2.571    0.000    2.143    0.000    2.857 
#    0.000   10.000    0.000    2.143    0.000    2.000 
#    0.000    0.000    0.000    0.000    0.000    0.000 
#
# Total GULP energy -312481.618596 kJ/mol
# GULP energy per Si atom -5580.028903 kJ/mol
# Density = 2.015961 g / cm^3
# Si number density = 20.205597 Si / 1000 Ang^3
#
#
#
# Elastic Constant Matrix: (Units=GPa)
#
#
# Indices 1 2 3 4 5 6 
#
# 1 74.4744 3.3230 26.0801 0.0000 0.0000 0.0000
# 2 3.3230 48.6414 1.6643 0.0000 0.0000 0.0000
# 3 26.0801 1.6643 35.3204 0.0000 0.0000 0.0000
# 4 0.0000 0.0000 0.0000 21.1812 0.0000 0.0000
# 5 0.0000 0.0000 0.0000 0.0000 -4.4950 0.0000
# 6 0.0000 0.0000 0.0000 0.0000 0.0000 25.4772
#
#
#
# Elastic Compliance Matrix: (Units=1/GPa)
#
#
# Indices 1 2 3 4 5 6 
#
# 1 0.018140 -0.000782 -0.013357 0.000000 0.000000 0.000000
# 2 -0.000782 0.020626 -0.000394 0.000000 0.000000 0.000000
# 3 -0.013357 -0.000394 0.038194 0.000000 0.000000 0.000000
# 4 0.000000 0.000000 0.000000 0.047212 0.000000 0.000000
# 5 0.000000 0.000000 0.000000 0.000000 -0.222468 0.000000
# 6 0.000000 0.000000 0.000000 0.000000 0.000000 0.039251
#
#
# Mechanical properties :
#
#
# Convention : Reuss Voigt Hill
#
# Bulk Modulus (GPa) = 20.88060 24.50788 22.69424
# Shear Modulus (GPa) = -356.75615 16.92394 -169.91610
#
# Velocity S-wave (km/s) = -13.30212 2.89725 -9.18020
# Velocity P-wave (km/s) = 15.01905 4.83194 10.05545
#
# Compressibility (1/GPa) = 0.04789135
#
# Stress axis : x y z
#
# Youngs Moduli (GPa) = 55.12693 48.48359 26.18232
#
# Poissons Ratio (x) = 0.03792 0.34973
# Poissons Ratio (y) = 0.04312 0.01032
# Poissons Ratio (z) = 0.73635 0.01912
#
# Static dielectric constant tensor:
#      x y z
#    x 1.713590 0.000000 0.000000 
#    y 0.000000 1.739940 0.000000 
#    z 0.000000 0.000000 1.731910 
# 
# From -- ./inp_files/39260.got.cif
#   From: 2010.05.17/outbox.cif.g08.bks.cpg/sg71_20_cif.got.tgz:39260.got - 2010.06.03 16:22:01.
