data_PCOD9523774
_publ_section_title
;
Structure prediction by ZEFSAII (Michael W. Deem and Ramdas Pophale) SiO2 
 PCOD9523774
Probable space group: I M M M
;
_chemical_formula_sum "Si O2"
_cell_formula_units_Z 80
_cell_length_a 13.518909
_cell_length_b 12.325011
_cell_length_c 25.614418
_cell_angle_alpha 90.000000
_cell_angle_beta 90.000000
_cell_angle_gamma 90.000000
_cell_volume 4267.892312
_symmetry_space_group_name_H-M "I M M M"
_symmetry_group_IT_number 71
_symmetry_cell_setting 'orthorhombic'
loop_
_space_group_symop_operation_xyz
x,y,z
-x,-y,z
x,-y,-z
-x,y,-z
-x,-y,-z
x,y,-z
-x,y,z
x,-y,z
1/2+x,1/2+y,1/2+z
1/2-x,1/2-y,1/2+z
1/2+x,1/2-y,1/2-z
1/2-x,1/2+y,1/2-z
1/2-x,1/2-y,1/2-z
1/2+x,1/2+y,1/2-z
1/2-x,1/2+y,1/2+z
1/2+x,1/2-y,1/2+z
loop_
_atom_site_type_symbol
_atom_site_label
_atom_site_fract_x
_atom_site_fract_y
_atom_site_fract_z
Si Si1 0.217417 0.706326 0.194463
Si Si2 0.304192 0.175813 0.942136
Si Si3 0.383443 0.371421 0.885356
Si Si4 0.116764 0.500000 0.759183
Si Si5 0.616403 0.629369 0.385025
Si Si6 0.882146 0.500000 0.638802
O O1 0.250000 0.750000 0.250000
O O2 0.313191 0.666774 0.162056
O O3 0.150918 0.603503 0.208280
O O4 0.157926 0.797274 0.162206
O O5 0.344878 0.296494 0.932564
O O6 0.186548 0.164686 0.933030
O O7 0.348410 0.102744 0.895464
O O8 0.331103 0.137879 0.000000
O O9 0.500000 0.350440 0.875728
O O10 0.371364 0.500000 0.893957
O O11 0.155918 0.500000 0.698749
O O12 0.000000 0.500000 0.754446
O O13 0.500000 0.647970 0.393001
O O14 0.630461 0.500000 0.375920
O O15 0.000000 0.500000 0.640968
#
# Coordination Sequence:
#
# PCOD9523774 Si02
#       6
#    16  16  16   8  16   8
#     4  11  23  37  61  88 124 159 204 248 296 352
#     4  11  23  39  62  89 119 156 200 250 304 357
#     4  10  22  41  62  87 120 157 199 249 300 356
#     4  11  22  39  61  88 119 165 209 246 299 358
#     4  10  22  40  62  89 122 158 199 249 301 357
#     4  11  23  38  56  84 124 161 198 244 297 359
#
# _framework density 18.744616000000001
#
# number of rings (size 3 to 8) (size 9 to 14) (size 15 to 20)
#    0.000    1.400    2.000    3.900    1.400    6.000 
#    0.000    4.000    0.000    0.000    0.000    2.800 
#    0.000    0.000    0.000    0.000    0.000    0.000 
#
# Total GULP energy -223291.393401 kJ/mol
# GULP energy per Si atom -5582.284835 kJ/mol
# Density = 1.870195 g / cm^3
# Si number density = 18.744616 Si / 1000 Ang^3
#
#
#
# Elastic Constant Matrix: (Units=GPa)
#
#
# Indices 1 2 3 4 5 6 
#
# 1 134.5876 60.2426 32.2470 0.0000 0.0000 0.0000
# 2 60.2426 123.9237 38.4377 0.0000 0.0000 0.0000
# 3 32.2470 38.4377 95.0385 0.0000 0.0000 0.0000
# 4 0.0000 0.0000 0.0000 10.5718 0.0000 0.0000
# 5 0.0000 0.0000 0.0000 0.0000 10.5349 0.0000
# 6 0.0000 0.0000 0.0000 0.0000 0.0000 32.4560
#
#
#
# Elastic Compliance Matrix: (Units=1/GPa)
#
#
# Indices 1 2 3 4 5 6 
#
# 1 0.009700 -0.004225 -0.001583 0.000000 0.000000 0.000000
# 2 -0.004225 0.011067 -0.003042 0.000000 0.000000 0.000000
# 3 -0.001583 -0.003042 0.012290 0.000000 0.000000 0.000000
# 4 0.000000 0.000000 0.000000 0.094591 0.000000 0.000000
# 5 0.000000 0.000000 0.000000 0.000000 0.094923 0.000000
# 6 0.000000 0.000000 0.000000 0.000000 0.000000 0.030811
#
#
# Mechanical properties :
#
#
# Convention : Reuss Voigt Hill
#
# Bulk Modulus (GPa) = 65.11666 68.37828 66.74747
# Shear Modulus (GPa) = 18.10276 25.55403 21.82840
#
# Velocity S-wave (km/s) = 3.11104 3.69626 3.41620
# Velocity P-wave (km/s) = 6.90789 7.40098 7.15868
#
# Compressibility (1/GPa) = 0.01535705
#
# Stress axis : x y z
#
# Youngs Moduli (GPa) = 103.08930 90.35948 81.36970
#
# Poissons Ratio (x) = 0.38174 0.12879
# Poissons Ratio (y) = 0.43552 0.24757
# Poissons Ratio (z) = 0.16316 0.27492
#
# Static dielectric constant tensor:
#      x y z
#    x 1.655740 0.000000 0.000000 
#    y 0.000000 1.715550 0.000000 
#    z 0.000000 0.000000 1.641500 
# 
# From -- ./inp_files/59641.got.cif
#   From: 2010.05.17/outbox.cif.g08.bks.cpg/sg71_30_cif.got.tgz:59641.got - 2010.06.03 16:22:01.
