data_PCOD9523543
_publ_section_title
;
Structure prediction by ZEFSAII (Michael W. Deem and Ramdas Pophale) SiO2 
 PCOD9523543
Probable space group: I M M M
;
_chemical_formula_sum "Si O2"
_cell_formula_units_Z 112
_cell_length_a 15.653984
_cell_length_b 16.035033
_cell_length_c 23.224386
_cell_angle_alpha 90.000000
_cell_angle_beta 90.000000
_cell_angle_gamma 90.000000
_cell_volume 5829.603063
_symmetry_space_group_name_H-M "I M M M"
_symmetry_group_IT_number 71
_symmetry_cell_setting 'orthorhombic'
loop_
_space_group_symop_operation_xyz
x,y,z
-x,-y,z
x,-y,-z
-x,y,-z
-x,-y,-z
x,y,-z
-x,y,z
x,-y,z
1/2+x,1/2+y,1/2+z
1/2-x,1/2-y,1/2+z
1/2+x,1/2-y,1/2-z
1/2-x,1/2+y,1/2-z
1/2-x,1/2-y,1/2-z
1/2+x,1/2+y,1/2-z
1/2-x,1/2+y,1/2+z
1/2+x,1/2-y,1/2+z
loop_
_atom_site_type_symbol
_atom_site_label
_atom_site_fract_x
_atom_site_fract_y
_atom_site_fract_z
Si Si1 0.851057 0.254649 0.255247
Si Si2 0.173988 0.132228 0.436080
Si Si3 0.594628 0.266423 0.375986
Si Si4 0.628206 0.909451 0.567528
Si Si5 0.229354 0.324663 0.567889
Si Si6 0.400850 0.412295 0.180900
Si Si7 0.600166 0.097598 0.158541
O O1 0.750000 0.250000 0.250000
O O2 0.890794 0.244571 0.192092
O O3 0.870766 0.172166 0.291057
O O4 0.880199 0.337176 0.289775
O O5 0.142684 0.114096 0.500000
O O6 0.268902 0.094956 0.429246
O O7 0.188652 0.231614 0.430056
O O8 0.115120 0.097510 0.386654
O O9 0.500000 0.302937 0.386961
O O10 0.596215 0.172901 0.401591
O O11 0.675349 0.314781 0.404589
O O12 0.605780 0.904279 0.500000
O O13 0.600384 0.000000 0.589838
O O14 0.234365 0.348337 0.500000
O O15 0.166739 0.380535 0.607150
O O16 0.500000 0.416770 0.193449
O O17 0.359662 0.500000 0.200541
O O18 0.500000 0.109517 0.141582
O O19 0.610409 0.000000 0.174775
#
# Coordination Sequence:
#
# PCOD9523543 Si02
#       7
#    16  16  16  16  16  16  16
#     4  12  23  43  66  89 127 169 211 263 317 377
#     4   9  17  32  56  83 116 161 206 248 300 362
#     4  11  22  37  61  90 124 170 217 263 317 379
#     4   9  18  33  53  82 122 162 204 255 306 365
#     4  10  21  40  64  92 126 168 215 264 321 382
#     4  11  23  37  56  85 121 160 202 249 301 365
#     4  11  24  43  69 100 133 167 210 269 330 389
#
# _framework density 19.212287
#
# number of rings (size 3 to 8) (size 9 to 14) (size 15 to 20)
#    0.000    1.571    2.857    3.857    0.000    4.286 
#    0.000    3.571    0.000    0.429    0.000    1.000 
#    0.000    0.000    0.000    0.000    0.000    0.000 
#
# Total GULP energy -312446.760867 kJ/mol
# GULP energy per Si atom -5579.406444 kJ/mol
# Density = 1.916856 g / cm^3
# Si number density = 19.212287 Si / 1000 Ang^3
#
#
#
# Elastic Constant Matrix: (Units=GPa)
#
#
# Indices 1 2 3 4 5 6 
#
# 1 96.4397 50.6396 32.0476 0.0000 0.0000 0.0000
# 2 50.6396 117.9774 46.5182 0.0000 0.0000 0.0000
# 3 32.0476 46.5182 99.0101 0.0000 0.0000 0.0000
# 4 0.0000 0.0000 0.0000 -1.4974 0.0000 0.0000
# 5 0.0000 0.0000 0.0000 0.0000 48.6982 0.0000
# 6 0.0000 0.0000 0.0000 0.0000 0.0000 15.5676
#
#
#
# Elastic Compliance Matrix: (Units=1/GPa)
#
#
# Indices 1 2 3 4 5 6 
#
# 1 0.013718 -0.005078 -0.002054 0.000000 0.000000 0.000000
# 2 -0.005078 0.012283 -0.004127 0.000000 0.000000 0.000000
# 3 -0.002054 -0.004127 0.012704 0.000000 0.000000 0.000000
# 4 0.000000 0.000000 0.000000 -0.667808 0.000000 0.000000
# 5 0.000000 0.000000 0.000000 0.000000 0.020535 0.000000
# 6 0.000000 0.000000 0.000000 0.000000 0.000000 0.064236
#
#
# Mechanical properties :
#
#
# Convention : Reuss Voigt Hill
#
# Bulk Modulus (GPa) = 61.78294 63.53756 62.66025
# Shear Modulus (GPa) = -9.68211 24.83514 7.57651
#
# Velocity S-wave (km/s) = -2.24733 3.59927 1.98800
# Velocity P-wave (km/s) = 5.04915 7.10043 6.16076
#
# Compressibility (1/GPa) = 0.01618570
#
# Stress axis : x y z
#
# Youngs Moduli (GPa) = 72.89450 81.41072 78.71454
#
# Poissons Ratio (x) = 0.41343 0.16171
# Poissons Ratio (y) = 0.37018 0.32489
# Poissons Ratio (z) = 0.14976 0.33601
#
# Static dielectric constant tensor:
#      x y z
#    x 1.682810 0.000000 0.000000 
#    y 0.000000 1.701380 0.000000 
#    z 0.000000 0.000000 1.672030 
# 
# From -- ./inp_files/59929.got.cif
#   From: 2010.05.17/outbox.cif.g08.bks.cpg/sg71_30_cif.got.tgz:59929.got - 2010.06.03 16:22:01.
