data_PCOD9523820
_publ_section_title
;
Structure prediction by ZEFSAII (Michael W. Deem and Ramdas Pophale) SiO2 
 PCOD9523820
Probable space group: I M M M
;
_chemical_formula_sum "Si O2"
_cell_formula_units_Z 42
_cell_length_a 27.058403
_cell_length_b 10.046323
_cell_length_c 7.553845
_cell_angle_alpha 90.000000
_cell_angle_beta 90.000000
_cell_angle_gamma 90.000000
_cell_volume 2053.418011
_symmetry_space_group_name_H-M "I M M M"
_symmetry_group_IT_number 71
_symmetry_cell_setting 'orthorhombic'
loop_
_space_group_symop_operation_xyz
x,y,z
-x,-y,z
x,-y,-z
-x,y,-z
-x,-y,-z
x,y,-z
-x,y,z
x,-y,z
1/2+x,1/2+y,1/2+z
1/2-x,1/2-y,1/2+z
1/2+x,1/2-y,1/2-z
1/2-x,1/2+y,1/2-z
1/2-x,1/2-y,1/2-z
1/2+x,1/2+y,1/2-z
1/2-x,1/2+y,1/2+z
1/2+x,1/2-y,1/2+z
loop_
_atom_site_type_symbol
_atom_site_label
_atom_site_fract_x
_atom_site_fract_y
_atom_site_fract_z
Si Si1 0.866911 0.713090 0.704256
Si Si2 0.826276 0.000000 0.785988
Si Si3 0.286855 0.000000 0.214161
Si Si4 0.445713 0.779250 0.500000
Si Si5 0.500000 0.500000 0.500000
O O1 0.877171 0.679393 0.500000
O O2 0.852834 0.867394 0.720454
O O3 0.819376 0.627801 0.765353
O O4 0.913179 0.685857 0.829702
O O5 0.769241 0.000000 0.722614
O O6 0.826767 0.000000 0.000000
O O7 0.283944 0.000000 0.000000
O O8 0.500000 0.841838 0.500000
O O9 0.457658 0.619977 0.500000
#
# Coordination Sequence:
#
# PCOD9523820 Si02
#       5
#    16   8   8   8   2
#     4  11  22  41  63  91 127 165 207 260 309 370
#     4  11  20  38  62  91 130 168 207 259 303 365
#     4   9  22  39  61  92 129 168 208 249 312 375
#     4  10  22  41  64  90 123 157 212 262 314 361
#     4   8  20  40  62  86 124 146 208 262 306 360
#
# _framework density 20.453700999999999
#
# number of rings (size 3 to 8) (size 9 to 14) (size 15 to 20)
#    0.571    1.143    1.905    2.857    0.000    1.524 
#    6.857    2.857    0.000    3.429    0.000    0.000 
#    0.000    0.000    0.000    0.000    0.000    0.000 
#
# Total GULP energy -117072.205391 kJ/mol
# GULP energy per Si atom -5574.866923 kJ/mol
# Density = 2.040715 g / cm^3
# Si number density = 20.453701 Si / 1000 Ang^3
#
#
#
# Elastic Constant Matrix: (Units=GPa)
#
#
# Indices 1 2 3 4 5 6 
#
# 1 159.9128 2.6665 59.5768 0.0000 0.0000 0.0000
# 2 2.6665 69.6484 -3.4799 0.0000 0.0000 0.0001
# 3 59.5768 -3.4799 114.3415 0.0000 0.0000 0.0002
# 4 0.0000 0.0000 0.0000 -4.3622 0.0000 0.0001
# 5 0.0000 0.0000 0.0000 0.0000 24.4604 0.0000
# 6 0.0000 0.0001 0.0002 0.0001 0.0000 2029.6479
#
#
#
# Elastic Compliance Matrix: (Units=1/GPa)
#
#
# Indices 1 2 3 4 5 6 
#
# 1 0.007777 -0.000501 -0.004067 0.000000 0.000000 0.000000
# 2 -0.000501 0.014412 0.000700 0.000000 0.000000 0.000000
# 3 -0.004067 0.000700 0.010886 0.000000 0.000000 0.000000
# 4 0.000000 0.000000 0.000000 -0.229243 0.000000 0.000000
# 5 0.000000 0.000000 0.000000 0.000000 0.040882 0.000000
# 6 0.000000 0.000000 0.000000 0.000000 0.000000 0.000493
#
#
# Mechanical properties :
#
#
# Convention : Reuss Voigt Hill
#
# Bulk Modulus (GPa) = 39.46662 51.26994 45.36828
# Shear Modulus (GPa) = -36.07278 428.95851 196.44287
#
# Velocity S-wave (km/s) = -4.20412 14.49748 9.81077
# Velocity P-wave (km/s) = 2.05637 17.47446 12.27045
#
# Compressibility (1/GPa) = 0.02533787
#
# Stress axis : x y z
#
# Youngs Moduli (GPa) = 128.58216 69.38674 91.85816
#
# Poissons Ratio (x) = 0.03476 0.37363
# Poissons Ratio (y) = 0.06442 -0.06427
# Poissons Ratio (z) = 0.52300 -0.04855
#
# Static dielectric constant tensor:
#      x y z
#    x 1.712650 0.000000 0.000000 
#    y 0.000000 1.722770 0.000000 
#    z 0.000000 0.000000 1.747630 
# 
# From -- ./inp_files/11709.got.cif
#   From: 2010.05.17/outbox.cif.g08.bks.cpg/sg71_6_cif.got.tgz:11709.got - 2010.06.03 16:22:01.
