data_PCOD9523864
_publ_section_title
;
Structure prediction by ZEFSAII (Michael W. Deem and Ramdas Pophale) SiO2 
 PCOD9523864
Probable space group: I M M M
;
_chemical_formula_sum "Si O2"
_cell_formula_units_Z 72
_cell_length_a 8.921485
_cell_length_b 16.424012
_cell_length_c 24.769257
_cell_angle_alpha 90.000000
_cell_angle_beta 90.000000
_cell_angle_gamma 90.000000
_cell_volume 3629.354436
_symmetry_space_group_name_H-M "I M M M"
_symmetry_group_IT_number 71
_symmetry_cell_setting 'orthorhombic'
loop_
_space_group_symop_operation_xyz
x,y,z
-x,-y,z
x,-y,-z
-x,y,-z
-x,-y,-z
x,y,-z
-x,y,z
x,-y,z
1/2+x,1/2+y,1/2+z
1/2-x,1/2-y,1/2+z
1/2+x,1/2-y,1/2-z
1/2-x,1/2+y,1/2-z
1/2-x,1/2-y,1/2-z
1/2+x,1/2+y,1/2-z
1/2-x,1/2+y,1/2+z
1/2+x,1/2-y,1/2+z
loop_
_atom_site_type_symbol
_atom_site_label
_atom_site_fract_x
_atom_site_fract_y
_atom_site_fract_z
Si Si1 0.180253 0.334327 0.772268
Si Si2 0.173728 0.667336 0.438052
Si Si3 0.180840 0.500000 0.707373
Si Si4 0.322014 0.500000 0.410002
Si Si5 0.673831 0.597328 0.000000
Si Si6 0.678868 0.177799 0.604868
O O1 0.250000 0.250000 0.750000
O O2 0.216707 0.416271 0.739048
O O3 0.223107 0.349004 0.834932
O O4 0.000000 0.324625 0.770528
O O5 0.179495 0.696685 0.500000
O O6 0.248741 0.579829 0.435307
O O7 0.264625 0.729893 0.401756
O O8 0.000000 0.662945 0.421383
O O9 0.272401 0.500000 0.652256
O O10 0.000000 0.500000 0.697250
O O11 0.500000 0.500000 0.416502
O O12 0.749699 0.629432 0.945107
O O13 0.681380 0.500000 0.000000
O O14 0.500000 0.623066 0.000000
O O15 0.500000 0.173431 0.600098
#
# Coordination Sequence:
#
# PCOD9523864 Si02
#       6
#    16  16   8   8   8  16
#     4  10  23  41  64  93 125 163 209 258 314 377
#     4  11  23  40  62  89 125 166 208 248 305 375
#     4  10  22  43  65  87 121 165 209 253 314 383
#     4  12  25  39  60  91 125 159 210 263 308 360
#     4  11  25  43  63  92 127 166 211 253 309 379
#     4  11  23  40  66  96 127 161 207 262 315 367
#
# _framework density 19.838238
#
# number of rings (size 3 to 8) (size 9 to 14) (size 15 to 20)
#    0.000    1.222    1.111    4.333    1.556    9.778 
#    0.000    0.000    0.000    0.000    0.000    0.000 
#    0.000    0.000    0.000    0.000    0.000    0.000 
#
# Total GULP energy -201275.340540 kJ/mol
# GULP energy per Si atom -5590.981682 kJ/mol
# Density = 1.979309 g / cm^3
# Si number density = 19.838238 Si / 1000 Ang^3
#
#
#
# Elastic Constant Matrix: (Units=GPa)
#
#
# Indices 1 2 3 4 5 6 
#
# 1 71.4941 19.1139 41.2981 0.0000 0.0000 0.0000
# 2 19.1139 96.8494 32.0841 0.0000 0.0000 0.0000
# 3 41.2981 32.0841 113.1210 0.0000 0.0000 0.0000
# 4 0.0000 0.0000 0.0000 50.1575 0.0000 0.0000
# 5 0.0000 0.0000 0.0000 0.0000 30.8094 0.0000
# 6 0.0000 0.0000 0.0000 0.0000 0.0000 33.6632
#
#
#
# Elastic Compliance Matrix: (Units=1/GPa)
#
#
# Indices 1 2 3 4 5 6 
#
# 1 0.017923 -0.001512 -0.006115 0.000000 0.000000 0.000000
# 2 -0.001512 0.011524 -0.002717 0.000000 0.000000 0.000000
# 3 -0.006115 -0.002717 0.011843 0.000000 0.000000 0.000000
# 4 0.000000 0.000000 0.000000 0.019937 0.000000 0.000000
# 5 0.000000 0.000000 0.000000 0.000000 0.032458 0.000000
# 6 0.000000 0.000000 0.000000 0.000000 0.000000 0.029706
#
#
# Mechanical properties :
#
#
# Convention : Reuss Voigt Hill
#
# Bulk Modulus (GPa) = 48.53388 51.82851 50.18120
# Shear Modulus (GPa) = 33.12472 35.52390 34.32431
#
# Velocity S-wave (km/s) = 4.09068 4.23623 4.16409
# Velocity P-wave (km/s) = 6.84321 7.07883 6.96201
#
# Compressibility (1/GPa) = 0.02060416
#
# Stress axis : x y z
#
# Youngs Moduli (GPa) = 55.79285 86.77870 84.43859
#
# Poissons Ratio (x) = 0.13118 0.51632
# Poissons Ratio (y) = 0.08434 0.22938
# Poissons Ratio (z) = 0.34116 0.23574
#
# Static dielectric constant tensor:
#      x y z
#    x 1.662240 0.000000 0.000000 
#    y 0.000000 1.751240 0.000000 
#    z 0.000000 0.000000 1.709810 
# 
# From -- ./inp_files/8063.got.cif
#   From: 2010.05.17/outbox.cif.g08.bks.cpg/sg71_5_cif.got.tgz:8063.got - 2010.06.03 16:22:01.
