data_PCOD9523574
_publ_section_title
;
Structure prediction by ZEFSAII (Michael W. Deem and Ramdas Pophale) SiO2 
 PCOD9523574
Probable space group: I M M M
;
_chemical_formula_sum "Si O2"
_cell_formula_units_Z 52
_cell_length_a 8.200708
_cell_length_b 19.753475
_cell_length_c 14.718982
_cell_angle_alpha 90.000000
_cell_angle_beta 90.000000
_cell_angle_gamma 90.000000
_cell_volume 2384.364404
_symmetry_space_group_name_H-M "I M M M"
_symmetry_group_IT_number 71
_symmetry_cell_setting 'orthorhombic'
loop_
_space_group_symop_operation_xyz
x,y,z
-x,-y,z
x,-y,-z
-x,y,-z
-x,-y,-z
x,y,-z
-x,y,z
x,-y,z
1/2+x,1/2+y,1/2+z
1/2-x,1/2-y,1/2+z
1/2+x,1/2-y,1/2-z
1/2-x,1/2+y,1/2-z
1/2-x,1/2-y,1/2-z
1/2+x,1/2+y,1/2-z
1/2-x,1/2+y,1/2+z
1/2+x,1/2-y,1/2+z
loop_
_atom_site_type_symbol
_atom_site_label
_atom_site_fract_x
_atom_site_fract_y
_atom_site_fract_z
Si Si1 0.809240 0.365003 0.894132
Si Si2 0.000000 0.000000 0.852478
Si Si3 0.323545 0.779011 0.110982
Si Si4 0.189292 0.500000 0.776639
Si Si5 0.500000 0.652191 0.397012
O O1 0.705436 0.299642 0.867140
O O2 0.787467 0.432590 0.836768
O O3 0.000000 0.344807 0.888388
O O4 0.774295 0.379828 0.000000
O O5 0.832075 0.000000 0.796163
O O6 0.000000 0.071738 0.901748
O O7 0.500000 0.802581 0.145297
O O8 0.168409 0.821121 0.144922
O O9 0.327363 0.784083 0.000000
O O10 0.000000 0.500000 0.743520
O O11 0.500000 0.680291 0.500000
#
# Coordination Sequence:
#
# PCOD9523574 Si02
#       5
#    16   4  16   8   8
#     4   9  16  32  59  88 119 156 190 226 273 327
#     4  12  27  42  59  80 108 158 198 230 287 346
#     4   9  17  31  58  91 115 136 178 239 292 332
#     4  10  23  39  55  79 127 159 191 227 270 331
#     4  10  21  42  64  84 107 137 190 252 295 335
#
# _framework density 21.808748000000001
#
# number of rings (size 3 to 8) (size 9 to 14) (size 15 to 20)
#    0.000    2.462    1.538    0.692    2.154    3.077 
#    0.000    2.308    0.000    4.615    0.000    0.000 
#    0.000    0.000    0.000    0.000    0.000    0.000 
#
# Total GULP energy -145243.574339 kJ/mol
# GULP energy per Si atom -5586.291321 kJ/mol
# Density = 2.175911 g / cm^3
# Si number density = 21.808748 Si / 1000 Ang^3
#
#
#
# Elastic Constant Matrix: (Units=GPa)
#
#
# Indices 1 2 3 4 5 6 
#
# 1 185.2102 76.2166 34.3998 0.0000 0.0000 0.0000
# 2 76.2166 98.1988 6.9534 0.0000 0.0000 0.0000
# 3 34.3998 6.9534 48.9845 0.0000 0.0000 0.0000
# 4 0.0000 0.0000 0.0000 -39.4135 0.0000 0.0000
# 5 0.0000 0.0000 0.0000 0.0000 0.4125 0.0000
# 6 0.0000 0.0000 0.0000 0.0000 0.0000 12.0592
#
#
#
# Elastic Compliance Matrix: (Units=1/GPa)
#
#
# Indices 1 2 3 4 5 6 
#
# 1 0.009199 -0.006750 -0.005502 0.000000 0.000000 0.000000
# 2 -0.006750 0.015240 0.002577 0.000000 0.000000 0.000000
# 3 -0.005502 0.002577 0.023913 0.000000 0.000001 0.000000
# 4 0.000000 0.000000 0.000000 -0.025372 0.000000 0.000000
# 5 0.000000 0.000000 0.000001 0.000000 2.424313 0.000000
# 6 0.000000 0.000000 0.000000 0.000000 0.000000 0.082924
#
#
# Mechanical properties :
#
#
# Convention : Reuss Voigt Hill
#
# Bulk Modulus (GPa) = 34.48096 63.05926 48.77011
# Shear Modulus (GPa) = 1.95371 8.93322 5.44346
#
# Velocity S-wave (km/s) = 0.94751 2.02609 1.58159
# Velocity P-wave (km/s) = 4.12819 5.86948 5.07409
#
# Compressibility (1/GPa) = 0.02900151
#
# Stress axis : x y z
#
# Youngs Moduli (GPa) = 108.70845 65.61671 41.81912
#
# Poissons Ratio (x) = 0.44292 0.23008
# Poissons Ratio (y) = 0.73379 -0.10777
# Poissons Ratio (z) = 0.59810 -0.16909
#
# Static dielectric constant tensor:
#      x y z
#    x 1.820600 0.000000 0.000000 
#    y 0.000000 1.744610 0.000000 
#    z 0.000000 0.000000 1.794820 
# 
# From -- ./inp_files/7128.got.cif
#   From: 2010.05.17/outbox.cif.g08.bks.cpg/sg71_4_cif.got.tgz:7128.got - 2010.06.03 16:22:01.
