data_PCOD9523872
_publ_section_title
;
Structure prediction by ZEFSAII (Michael W. Deem and Ramdas Pophale) SiO2 
 PCOD9523872
Probable space group: I M M M
;
_chemical_formula_sum "Si O2"
_cell_formula_units_Z 68
_cell_length_a 7.448600
_cell_length_b 19.153983
_cell_length_c 20.757435
_cell_angle_alpha 90.000000
_cell_angle_beta 90.000000
_cell_angle_gamma 90.000000
_cell_volume 2961.470678
_symmetry_space_group_name_H-M "I M M M"
_symmetry_group_IT_number 71
_symmetry_cell_setting 'orthorhombic'
loop_
_space_group_symop_operation_xyz
x,y,z
-x,-y,z
x,-y,-z
-x,y,-z
-x,-y,-z
x,y,-z
-x,y,z
x,-y,z
1/2+x,1/2+y,1/2+z
1/2-x,1/2-y,1/2+z
1/2+x,1/2-y,1/2-z
1/2-x,1/2+y,1/2-z
1/2-x,1/2-y,1/2-z
1/2+x,1/2+y,1/2-z
1/2-x,1/2+y,1/2+z
1/2+x,1/2-y,1/2+z
loop_
_atom_site_type_symbol
_atom_site_label
_atom_site_fract_x
_atom_site_fract_y
_atom_site_fract_z
Si Si1 0.293361 0.922085 0.823679
Si Si2 0.720592 0.783571 0.113485
Si Si3 0.797663 0.837873 0.299674
Si Si4 0.716106 0.082614 0.428720
Si Si5 0.000000 0.248735 0.000000
O O1 0.500000 0.929743 0.842470
O O2 0.223130 0.863467 0.872474
O O3 0.294797 0.885639 0.753497
O O4 0.213035 0.000000 0.822095
O O5 0.500000 0.779116 0.104506
O O6 0.764441 0.738413 0.177689
O O7 0.841163 0.754722 0.056155
O O8 0.793987 0.878622 0.367836
O O9 0.000000 0.831834 0.276689
O O10 0.778059 0.104870 0.500000
O O11 0.500000 0.092703 0.427866
O O12 0.750115 0.000000 0.423307
#
# Coordination Sequence:
#
# PCOD9523872 Si02
#       5
#    16  16  16  16   4
#     4  10  22  43  69  94 130 177 222 279 339 397
#     4  10  25  45  66 102 138 169 228 281 332 407
#     4  11  23  36  59  92 131 171 211 275 331 387
#     4   9  19  34  52  78 116 164 217 266 316 390
#     4  12  26  44  77 100 129 194 214 274 358 384
#
# _framework density 22.961563999999999
#
# number of rings (size 3 to 8) (size 9 to 14) (size 15 to 20)
#    0.000    1.882    0.000    3.176    6.588    4.235 
#    0.000    2.353    0.000    2.824    0.000    0.000 
#    0.000    0.000    0.000    0.000    0.000    0.000 
#
# Total GULP energy -189397.532482 kJ/mol
# GULP energy per Si atom -5570.515661 kJ/mol
# Density = 2.290930 g / cm^3
# Si number density = 22.961564 Si / 1000 Ang^3
#
#
#
# Elastic Constant Matrix: (Units=GPa)
#
#
# Indices 1 2 3 4 5 6 
#
# 1 97.9831 20.8440 24.6180 0.0000 0.0000 0.0000
# 2 20.8440 133.9097 8.6177 0.0000 0.0000 0.0000
# 3 24.6180 8.6177 65.9944 0.0000 0.0000 0.0000
# 4 0.0000 0.0000 0.0000 19.1220 0.0000 0.0000
# 5 0.0000 0.0000 0.0000 0.0000 35.0335 0.0000
# 6 0.0000 0.0000 0.0000 0.0000 0.0000 15.6843
#
#
#
# Elastic Compliance Matrix: (Units=1/GPa)
#
#
# Indices 1 2 3 4 5 6 
#
# 1 0.011566 -0.001536 -0.004114 0.000000 0.000000 0.000000
# 2 -0.001536 0.007735 -0.000437 0.000000 0.000000 0.000000
# 3 -0.004114 -0.000437 0.016745 0.000000 0.000000 0.000000
# 4 0.000000 0.000000 0.000000 0.052296 0.000000 0.000000
# 5 0.000000 0.000000 0.000000 0.000000 0.028544 0.000000
# 6 0.000000 0.000000 0.000000 0.000000 0.000000 0.063758
#
#
# Mechanical properties :
#
#
# Convention : Reuss Voigt Hill
#
# Bulk Modulus (GPa) = 41.89021 45.11629 43.50325
# Shear Modulus (GPa) = 24.90354 30.22179 27.56267
#
# Velocity S-wave (km/s) = 3.29686 3.63187 3.46841
# Velocity P-wave (km/s) = 5.72500 6.10562 5.91837
#
# Compressibility (1/GPa) = 0.02387193
#
# Stress axis : x y z
#
# Youngs Moduli (GPa) = 86.45921 129.28447 59.72095
#
# Poissons Ratio (x) = 0.19853 0.24569
# Poissons Ratio (y) = 0.13277 0.02611
# Poissons Ratio (z) = 0.35569 0.05652
#
# Static dielectric constant tensor:
#      x y z
#    x 1.905000 0.000000 0.000000 
#    y 0.000000 1.956270 0.000000 
#    z 0.000000 0.000000 1.826830 
# 
# From -- ./inp_files/41925.got.cif
#   From: 2010.05.17/outbox.cif.g08.bks.cpg/sg71_21_cif.got.tgz:41925.got - 2010.06.03 16:22:01.
