data_PCOD9523994
_publ_section_title
;
Structure prediction by ZEFSAII (Michael W. Deem and Ramdas Pophale) SiO2 
 PCOD9523994
Probable space group: I M M M
;
_chemical_formula_sum "Si O2"
_cell_formula_units_Z 112
_cell_length_a 28.629984
_cell_length_b 29.270951
_cell_length_c 7.955427
_cell_angle_alpha 90.000000
_cell_angle_beta 90.000000
_cell_angle_gamma 90.000000
_cell_volume 6666.861499
_symmetry_space_group_name_H-M "I M M M"
_symmetry_group_IT_number 71
_symmetry_cell_setting 'orthorhombic'
loop_
_space_group_symop_operation_xyz
x,y,z
-x,-y,z
x,-y,-z
-x,y,-z
-x,-y,-z
x,y,-z
-x,y,z
x,-y,z
1/2+x,1/2+y,1/2+z
1/2-x,1/2-y,1/2+z
1/2+x,1/2-y,1/2-z
1/2-x,1/2+y,1/2-z
1/2-x,1/2-y,1/2-z
1/2+x,1/2+y,1/2-z
1/2-x,1/2+y,1/2+z
1/2+x,1/2-y,1/2+z
loop_
_atom_site_type_symbol
_atom_site_label
_atom_site_fract_x
_atom_site_fract_y
_atom_site_fract_z
Si Si1 0.447987 0.235891 0.294141
Si Si2 0.739117 0.948700 0.797605
Si Si3 0.854837 0.214624 0.798681
Si Si4 0.367758 0.949031 0.798186
Si Si5 0.696744 0.196278 0.294617
Si Si6 0.713329 0.642939 0.800690
Si Si7 0.897514 0.645655 0.201345
O O1 0.448027 0.236430 0.500000
O O2 0.500000 0.247910 0.237729
O O3 0.405964 0.269275 0.238946
O O4 0.434076 0.184198 0.241533
O O5 0.685674 0.940000 0.737325
O O6 0.773793 0.908671 0.745522
O O7 0.752086 0.000000 0.741939
O O8 0.737552 0.948913 0.000000
O O9 0.817684 0.253048 0.737343
O O10 0.835254 0.165119 0.755000
O O11 0.855980 0.218255 0.000000
O O12 0.400662 0.906924 0.751719
O O13 0.381219 0.000000 0.739239
O O14 0.365733 0.950486 0.000000
O O15 0.698304 0.196720 0.500000
O O16 0.744559 0.174695 0.230097
O O17 0.653337 0.164257 0.243834
O O18 0.714961 0.646213 0.000000
O O19 0.898112 0.647136 0.000000
#
# Coordination Sequence:
#
# PCOD9523994 Si02
#       7
#    16  16  16  16  16  16  16
#     4   8  15  29  49  68  85 108 140 182 225 261
#     4   9  18  31  44  59  83 118 155 183 210 248
#     4   9  17  29  44  61  85 115 147 175 209 258
#     4   9  17  28  41  59  84 112 144 182 219 257
#     4   8  15  26  38  57  85 115 142 172 206 246
#     4  11  19  27  41  62  91 118 144 177 212 250
#     4   9  15  26  44  64  84 107 143 183 219 259
#
# _framework density 16.799507999999999
#
# number of rings (size 3 to 8) (size 9 to 14) (size 15 to 20)
#    0.000    3.000    1.429    3.429    0.000    0.571 
#    0.000    5.000    0.000    2.143    0.000    3.000 
#    0.000    0.571    0.000    6.571    0.000    1.857 
#
# Total GULP energy -311890.850556 kJ/mol
# GULP energy per Si atom -5569.479474 kJ/mol
# Density = 1.676127 g / cm^3
# Si number density = 16.799508 Si / 1000 Ang^3
#
#
#
# Elastic Constant Matrix: (Units=GPa)
#
#
# Indices 1 2 3 4 5 6 
#
# 1 83.3873 49.5719 9.0784 0.0000 0.0000 0.0000
# 2 49.5719 69.7002 4.1564 0.0000 0.0000 0.0000
# 3 9.0784 4.1564 11.9142 0.0000 0.0000 0.0000
# 4 0.0000 0.0000 0.0000 18.1623 0.0000 0.0000
# 5 0.0000 0.0000 0.0000 0.0000 8.3364 0.0000
# 6 0.0000 0.0000 0.0000 0.0000 0.0000 14.5548
#
#
#
# Elastic Compliance Matrix: (Units=1/GPa)
#
#
# Indices 1 2 3 4 5 6 
#
# 1 0.022263 -0.015137 -0.011683 0.000000 0.000000 0.000000
# 2 -0.015137 0.024944 0.002832 0.000000 0.000000 0.000000
# 3 -0.011683 0.002832 0.091848 0.000000 0.000000 0.000000
# 4 0.000000 0.000000 0.000000 0.055059 0.000000 0.000000
# 5 0.000000 0.000000 0.000000 0.000000 0.119955 0.000000
# 6 0.000000 0.000000 0.000000 0.000000 0.000000 0.068706
#
#
# Mechanical properties :
#
#
# Convention : Reuss Voigt Hill
#
# Bulk Modulus (GPa) = 10.97955 32.29056 21.63505
# Shear Modulus (GPa) = 10.84341 15.02371 12.93356
#
# Velocity S-wave (km/s) = 2.54335 2.99372 2.77768
# Velocity P-wave (km/s) = 3.89546 5.58683 4.81598
#
# Compressibility (1/GPa) = 0.09107843
#
# Stress axis : x y z
#
# Youngs Moduli (GPa) = 44.91818 40.09003 10.88760
#
# Poissons Ratio (x) = 0.60684 0.12720
# Poissons Ratio (y) = 0.67992 -0.03083
# Poissons Ratio (z) = 0.52478 -0.11354
#
# Static dielectric constant tensor:
#      x y z
#    x 1.568090 0.000000 0.000000 
#    y 0.000000 1.598630 0.000000 
#    z 0.000000 0.000000 1.600310 
# 
# From -- ./inp_files/29236.got.cif
#   From: 2010.05.17/outbox.cif.g08.bks.cpg/sg71_15_cif.got.tgz:29236.got - 2010.06.03 16:22:01.
