data_PCOD9523168
_publ_section_title
;
Structure prediction by ZEFSAII (Michael W. Deem and Ramdas Pophale) SiO2 
 PCOD9523168
Probable space group: I M M M
;
_chemical_formula_sum "Si O2"
_cell_formula_units_Z 72
_cell_length_a 10.206119
_cell_length_b 13.948623
_cell_length_c 27.678918
_cell_angle_alpha 90.000000
_cell_angle_beta 90.000000
_cell_angle_gamma 90.000000
_cell_volume 3940.406921
_symmetry_space_group_name_H-M "I M M M"
_symmetry_group_IT_number 71
_symmetry_cell_setting 'orthorhombic'
loop_
_space_group_symop_operation_xyz
x,y,z
-x,-y,z
x,-y,-z
-x,y,-z
-x,-y,-z
x,y,-z
-x,y,z
x,-y,z
1/2+x,1/2+y,1/2+z
1/2-x,1/2-y,1/2+z
1/2+x,1/2-y,1/2-z
1/2-x,1/2+y,1/2-z
1/2-x,1/2-y,1/2-z
1/2+x,1/2+y,1/2-z
1/2-x,1/2+y,1/2+z
1/2+x,1/2-y,1/2+z
loop_
_atom_site_type_symbol
_atom_site_label
_atom_site_fract_x
_atom_site_fract_y
_atom_site_fract_z
Si Si1 0.349793 0.206273 0.000000
Si Si2 0.500000 0.113702 0.215644
Si Si3 0.206638 0.611800 0.000000
Si Si4 0.213731 0.889068 0.819030
Si Si5 0.147150 0.889793 0.068516
Si Si6 0.000000 0.732589 0.811016
Si Si7 0.500000 0.884851 0.586210
O O1 0.265323 0.165829 0.955662
O O2 0.500000 0.176487 0.000000
O O3 0.330909 0.319904 0.000000
O O4 0.364863 0.138825 0.188723
O O5 0.500000 0.153372 0.269671
O O6 0.500000 0.000000 0.217747
O O7 0.121572 0.631146 0.951074
O O8 0.236862 0.500000 0.000000
O O9 0.171592 0.891717 0.874752
O O10 0.122434 0.803381 0.800720
O O11 0.193446 0.000000 0.800649
O O12 0.000000 0.852181 0.058081
O O13 0.149972 0.000000 0.052317
O O14 0.000000 0.681289 0.864866
O O15 0.500000 0.000000 0.598843
#
# Coordination Sequence:
#
# PCOD9523168 Si02
#       7
#     8   8   8  16  16   8   8
#     4  12  25  34  53  89 118 146 182 229 279 327
#     4  10  23  38  53  79 117 150 182 228 282 333
#     4   9  20  38  56  80 111 148 185 227 275 325
#     4  10  21  37  57  81 111 150 187 223 273 336
#     4  10  21  38  58  81 112 152 189 226 271 327
#     4  12  19  34  60  88 109 139 187 240 279 320
#     4   9  19  35  60  85 106 138 189 237 275 321
#
# _framework density 18.272226
#
# number of rings (size 3 to 8) (size 9 to 14) (size 15 to 20)
#    0.000    1.778    1.111    4.000    4.667    2.000 
#    0.000    0.000    0.000    0.000    0.000    0.000 
#    0.000    0.000    0.000    0.000    0.000    0.000 
#
# Total GULP energy -200572.437412 kJ/mol
# GULP energy per Si atom -5571.456595 kJ/mol
# Density = 1.823064 g / cm^3
# Si number density = 18.272226 Si / 1000 Ang^3
#
#
#
# Elastic Constant Matrix: (Units=GPa)
#
#
# Indices 1 2 3 4 5 6 
#
# 1 163.9171 54.7947 30.0363 0.0000 0.0000 0.0000
# 2 54.7947 57.8694 0.4450 0.0000 0.0000 0.0000
# 3 30.0363 0.4450 48.0984 0.0000 0.0000 0.0000
# 4 0.0000 0.0000 0.0000 -88.8557 0.0000 0.0000
# 5 0.0000 0.0000 0.0000 0.0000 20.9286 0.0000
# 6 0.0000 0.0000 0.0000 0.0000 0.0000 3.0009
#
#
#
# Elastic Compliance Matrix: (Units=1/GPa)
#
#
# Indices 1 2 3 4 5 6 
#
# 1 0.010661 -0.010044 -0.006565 0.000000 0.000000 0.000000
# 2 -0.010044 0.026745 0.006025 0.000000 0.000000 0.000000
# 3 -0.006565 0.006025 0.024835 0.000000 0.000000 0.000000
# 4 0.000000 0.000000 0.000000 -0.011254 0.000000 0.000000
# 5 0.000000 0.000000 0.000000 0.000000 0.047782 0.000000
# 6 0.000000 0.000000 0.000000 0.000000 0.000000 0.333234
#
#
# Mechanical properties :
#
#
# Convention : Reuss Voigt Hill
#
# Bulk Modulus (GPa) = 24.34737 48.93745 36.64241
# Shear Modulus (GPa) = 10.70983 -0.67799 5.01592
#
# Velocity S-wave (km/s) = 2.42363 -0.60980 1.65863
# Velocity P-wave (km/s) = 4.60279 5.13271 4.87496
#
# Compressibility (1/GPa) = 0.04107219
#
# Stress axis : x y z
#
# Youngs Moduli (GPa) = 93.79802 37.39079 40.26655
#
# Poissons Ratio (x) = 0.37556 0.26434
# Poissons Ratio (y) = 0.94213 -0.24261
# Poissons Ratio (z) = 0.61576 -0.22528
#
# Static dielectric constant tensor:
#      x y z
#    x 1.635000 0.000000 0.000000 
#    y 0.000000 1.682190 0.000000 
#    z 0.000000 0.000000 1.637340 
# 
# From -- ./inp_files/67897.got.cif
#   From: 2010.05.17/outbox.cif.g08.bks.cpg/sg71_34_cif.got.tgz:67897.got - 2010.06.03 16:22:01.
