data_PCOD9523163
_publ_section_title
;
Structure prediction by ZEFSAII (Michael W. Deem and Ramdas Pophale) SiO2 
 PCOD9523163
Probable space group: I M M M
;
_chemical_formula_sum "Si O2"
_cell_formula_units_Z 112
_cell_length_a 14.544318
_cell_length_b 15.615009
_cell_length_c 22.947390
_cell_angle_alpha 90.000000
_cell_angle_beta 90.000000
_cell_angle_gamma 90.000000
_cell_volume 5211.573860
_symmetry_space_group_name_H-M "I M M M"
_symmetry_group_IT_number 71
_symmetry_cell_setting 'orthorhombic'
loop_
_space_group_symop_operation_xyz
x,y,z
-x,-y,z
x,-y,-z
-x,y,-z
-x,-y,-z
x,y,-z
-x,y,z
x,-y,z
1/2+x,1/2+y,1/2+z
1/2-x,1/2-y,1/2+z
1/2+x,1/2-y,1/2-z
1/2-x,1/2+y,1/2-z
1/2-x,1/2-y,1/2-z
1/2+x,1/2+y,1/2-z
1/2-x,1/2+y,1/2+z
1/2+x,1/2-y,1/2+z
loop_
_atom_site_type_symbol
_atom_site_label
_atom_site_fract_x
_atom_site_fract_y
_atom_site_fract_z
Si Si1 0.300467 0.598458 0.434455
Si Si2 0.395592 0.688365 0.893954
Si Si3 0.214452 0.602211 0.065210
Si Si4 0.388249 0.253201 0.234778
Si Si5 0.111041 0.400114 0.817460
Si Si6 0.610060 0.401288 0.320444
Si Si7 0.097420 0.625182 0.433546
O O1 0.301819 0.636189 0.500000
O O2 0.330456 0.500000 0.440210
O O3 0.362436 0.635409 0.383684
O O4 0.195910 0.597649 0.410770
O O5 0.500000 0.653150 0.888413
O O6 0.319295 0.625885 0.918938
O O7 0.363936 0.727342 0.831777
O O8 0.400515 0.772448 0.933602
O O9 0.204635 0.500000 0.062745
O O10 0.152735 0.629608 0.120381
O O11 0.192123 0.635957 0.000000
O O12 0.500000 0.251323 0.235182
O O13 0.359654 0.165317 0.266333
O O14 0.356859 0.334607 0.272430
O O15 0.137824 0.500000 0.807120
O O16 0.000000 0.397819 0.821180
O O17 0.500000 0.404692 0.316719
O O18 0.643459 0.500000 0.313640
O O19 0.095482 0.594275 0.500000
O O20 0.000000 0.600372 0.404621
#
# Coordination Sequence:
#
# PCOD9523163 Si02
#       7
#    16  16  16  16  16  16  16
#     4   9  18  32  50  74 103 137 177 219 267 320
#     4  10  21  37  57  80 109 146 185 229 283 341
#     4  10  22  38  57  85 116 149 194 242 292 351
#     4   9  19  36  58  83 111 148 193 232 278 342
#     4   9  19  38  61  85 118 155 192 241 294 343
#     4   9  18  33  52  77 111 145 178 221 270 326
#     4   9  18  33  52  73  99 134 176 222 272 321
#
# _framework density 21.490628999999998
#
# number of rings (size 3 to 8) (size 9 to 14) (size 15 to 20)
#    0.000    2.714    0.000    0.429    2.000    3.143 
#    0.000    7.143    0.000    5.143    0.000    0.000 
#    0.000    0.000    0.000    0.000    0.000    0.000 
#
# Total GULP energy -312114.264090 kJ/mol
# GULP energy per Si atom -5573.469002 kJ/mol
# Density = 2.144172 g / cm^3
# Si number density = 21.490629 Si / 1000 Ang^3
#
#
#
# Elastic Constant Matrix: (Units=GPa)
#
#
# Indices 1 2 3 4 5 6 
#
# 1 34.4010 5.4738 9.0744 0.0000 0.0000 0.0000
# 2 5.4738 47.1048 24.3756 0.0000 0.0000 0.0000
# 3 9.0744 24.3756 103.2559 0.0000 0.0000 0.0000
# 4 0.0000 0.0000 0.0000 8.9476 0.0000 0.0000
# 5 0.0000 0.0000 0.0000 0.0000 23.0084 0.0000
# 6 0.0000 0.0000 0.0000 0.0000 0.0000 20.6069
#
#
#
# Elastic Compliance Matrix: (Units=1/GPa)
#
#
# Indices 1 2 3 4 5 6 
#
# 1 0.029998 -0.002417 -0.002066 0.000000 0.000000 0.000000
# 2 -0.002417 0.024378 -0.005543 0.000000 0.000000 0.000000
# 3 -0.002066 -0.005543 0.011175 0.000000 0.000000 0.000000
# 4 0.000000 0.000000 0.000000 0.111761 0.000000 0.000000
# 5 0.000000 0.000000 0.000000 0.000000 0.043462 0.000000
# 6 0.000000 0.000000 0.000000 0.000000 0.000000 0.048527
#
#
# Mechanical properties :
#
#
# Convention : Reuss Voigt Hill
#
# Bulk Modulus (GPa) = 21.97763 29.17879 25.57821
# Shear Modulus (GPa) = 16.41928 20.23511 18.32720
#
# Velocity S-wave (km/s) = 2.76709 3.07184 2.92344
# Velocity P-wave (km/s) = 4.52304 5.11748 4.82941
#
# Compressibility (1/GPa) = 0.04550080
#
# Stress axis : x y z
#
# Youngs Moduli (GPa) = 33.33506 41.02010 89.48818
#
# Poissons Ratio (x) = 0.09914 0.18486
# Poissons Ratio (y) = 0.08057 0.49600
# Poissons Ratio (z) = 0.06886 0.22736
#
# Static dielectric constant tensor:
#      x y z
#    x 1.804880 0.000000 0.000000 
#    y 0.000000 1.778700 0.000000 
#    z 0.000000 0.000000 1.809030 
# 
# From -- ./inp_files/34924.got.cif
#   From: 2010.05.17/outbox.cif.g08.bks.cpg/sg71_18_cif.got.tgz:34924.got - 2010.06.03 16:22:01.
