data_PCOD9523927
_publ_section_title
;
Structure prediction by ZEFSAII (Michael W. Deem and Ramdas Pophale) SiO2 
 PCOD9523927
Probable space group: I M M M
;
_chemical_formula_sum "Si O2"
_cell_formula_units_Z 50
_cell_length_a 10.219028
_cell_length_b 29.438027
_cell_length_c 8.783539
_cell_angle_alpha 90.000000
_cell_angle_beta 90.000000
_cell_angle_gamma 90.000000
_cell_volume 2642.334665
_symmetry_space_group_name_H-M "I M M M"
_symmetry_group_IT_number 71
_symmetry_cell_setting 'orthorhombic'
loop_
_space_group_symop_operation_xyz
x,y,z
-x,-y,z
x,-y,-z
-x,y,-z
-x,-y,-z
x,y,-z
-x,y,z
x,-y,z
1/2+x,1/2+y,1/2+z
1/2-x,1/2-y,1/2+z
1/2+x,1/2-y,1/2-z
1/2-x,1/2+y,1/2-z
1/2-x,1/2-y,1/2-z
1/2+x,1/2+y,1/2-z
1/2-x,1/2+y,1/2+z
1/2+x,1/2-y,1/2+z
loop_
_atom_site_type_symbol
_atom_site_label
_atom_site_fract_x
_atom_site_fract_y
_atom_site_fract_z
Si Si1 0.000000 0.500000 0.000000
Si Si2 0.000000 0.405712 0.831212
Si Si3 0.150506 0.786360 0.318283
Si Si4 0.500000 0.446434 0.817430
Si Si5 0.276152 0.616203 0.681837
O O1 0.000000 0.540666 0.129921
O O2 0.130233 0.392445 0.742112
O O3 0.000000 0.383134 0.000000
O O4 0.168106 0.789996 0.500000
O O5 0.250000 0.750000 0.250000
O O6 0.175736 0.835242 0.243453
O O7 0.000000 0.772729 0.289217
O O8 0.500000 0.500000 0.784135
O O9 0.627009 0.421869 0.749332
O O10 0.500000 0.440658 0.000000
O O11 0.281033 0.615478 0.500000
#
# Coordination Sequence:
#
# PCOD9523927 Si02
#       5
#     2   8  16   8  16
#     4   8  24  44  70  94 132 180 234 274 332 412
#     4  10  23  43  68  92 129 176 224 269 331 396
#     4  11  25  45  70  98 135 179 224 275 335 404
#     4  11  25  43  68  95 133 179 225 273 335 401
#     4  12  25  43  67 100 136 174 223 281 335 400
#
# _framework density 18.92266
#
# number of rings (size 3 to 8) (size 9 to 14) (size 15 to 20)
#    0.480    0.480    1.600    4.800    4.480    3.200 
#    0.000    0.800    0.000    0.000    0.000    0.000 
#    0.000    0.000    0.000    0.000    0.000    0.000 
#
# Total GULP energy -139526.812062 kJ/mol
# GULP energy per Si atom -5581.072482 kJ/mol
# Density = 1.887959 g / cm^3
# Si number density = 18.922660 Si / 1000 Ang^3
#
#
#
# Elastic Constant Matrix: (Units=GPa)
#
#
# Indices 1 2 3 4 5 6 
#
# 1 189.0424 82.7509 103.4986 -0.0012 -0.0047 0.0000
# 2 82.7509 134.3600 91.8872 -0.0027 -0.0011 -0.0003
# 3 103.4986 91.8872 159.5040 0.0142 0.0148 0.0004
# 4 -0.0012 -0.0027 0.0142 33.6967 0.0014 0.0001
# 5 -0.0047 -0.0011 0.0148 0.0014 19.7054 0.0007
# 6 0.0000 -0.0003 0.0004 0.0001 0.0007 20.5091
#
#
#
# Elastic Compliance Matrix: (Units=1/GPa)
#
#
# Indices 1 2 3 4 5 6 
#
# 1 0.008672 -0.002463 -0.004208 0.000002 0.000005 0.000000
# 2 -0.002463 0.012981 -0.005880 0.000003 0.000005 0.000000
# 3 -0.004208 -0.005880 0.012387 -0.000006 -0.000011 0.000000
# 4 0.000002 0.000003 -0.000006 0.029676 -0.000002 0.000000
# 5 0.000005 0.000005 -0.000011 -0.000002 0.050747 -0.000002
# 6 0.000000 0.000000 0.000000 0.000000 -0.000002 0.048759
#
#
# Mechanical properties :
#
#
# Convention : Reuss Voigt Hill
#
# Bulk Modulus (GPa) = 111.88118 115.46442 113.67280
# Shear Modulus (GPa) = 26.13646 28.43355 27.28501
#
# Velocity S-wave (km/s) = 3.72052 3.88057 3.80138
# Velocity P-wave (km/s) = 8.81534 9.01277 8.91460
#
# Compressibility (1/GPa) = 0.00893805
#
# Stress axis : x y z
#
# Youngs Moduli (GPa) = 115.31561 77.03711 80.72889
#
# Poissons Ratio (x) = 0.18975 0.33971
# Poissons Ratio (y) = 0.28403 0.47466
# Poissons Ratio (z) = 0.48525 0.45296
#
# Static dielectric constant tensor:
#      x y z
#    x 1.644770 0.000000 0.000000 
#    y 0.000000 1.618690 0.000000 
#    z 0.000000 0.000000 1.635250 
# 
# From -- ./inp_files/2261.got.cif
#   From: 2010.05.17/outbox.cif.g08.bks.cpg/sg71_2_cif.got.tgz:2261.got - 2010.06.03 16:22:01.
