data_PCOD9523890
_publ_section_title
;
Structure prediction by ZEFSAII (Michael W. Deem and Ramdas Pophale) SiO2 
 PCOD9523890
Probable space group: I M M M
;
_chemical_formula_sum "Si O2"
_cell_formula_units_Z 88
_cell_length_a 8.686136
_cell_length_b 20.375591
_cell_length_c 24.804387
_cell_angle_alpha 90.000000
_cell_angle_beta 90.000000
_cell_angle_gamma 90.000000
_cell_volume 4390.008266
_symmetry_space_group_name_H-M "I M M M"
_symmetry_group_IT_number 71
_symmetry_cell_setting 'orthorhombic'
loop_
_space_group_symop_operation_xyz
x,y,z
-x,-y,z
x,-y,-z
-x,y,-z
-x,-y,-z
x,y,-z
-x,y,z
x,-y,z
1/2+x,1/2+y,1/2+z
1/2-x,1/2-y,1/2+z
1/2+x,1/2-y,1/2-z
1/2-x,1/2+y,1/2-z
1/2-x,1/2-y,1/2-z
1/2+x,1/2+y,1/2-z
1/2-x,1/2+y,1/2+z
1/2+x,1/2-y,1/2+z
loop_
_atom_site_type_symbol
_atom_site_label
_atom_site_fract_x
_atom_site_fract_y
_atom_site_fract_z
Si Si1 0.677857 0.265680 0.937326
Si Si2 0.812277 0.500000 0.936959
Si Si3 0.815537 0.823184 0.744390
Si Si4 0.816620 0.609435 0.440035
Si Si5 0.180835 0.373661 0.866440
Si Si6 0.684769 0.429384 0.328540
O O1 0.500000 0.277409 0.920577
O O2 0.706100 0.187951 0.934336
O O3 0.789873 0.308592 0.901618
O O4 0.692180 0.284600 0.000000
O O5 0.765218 0.564496 0.902796
O O6 0.000000 0.500000 0.938770
O O7 0.760808 0.500000 0.000000
O O8 0.750000 0.750000 0.750000
O O9 0.766001 0.859899 0.689634
O O10 0.757969 0.868209 0.793797
O O11 0.000000 0.818771 0.745922
O O12 0.763964 0.589901 0.500000
O O13 0.735104 0.576366 0.390147
O O14 0.000000 0.597405 0.437297
O O15 0.000000 0.382582 0.855713
O O16 0.500000 0.427924 0.325950
O O17 0.737515 0.500000 0.306499
#
# Coordination Sequence:
#
# PCOD9523890 Si02
#       6
#    16   8  16  16  16  16
#     4   9  18  34  56  83 116 152 193 243 295 347
#     4   9  20  38  57  83 123 165 204 251 304 363
#     4  11  24  42  64  88 118 154 198 252 305 362
#     4   9  19  36  58  85 116 149 186 231 285 343
#     4  11  22  36  58  86 117 156 202 249 301 361
#     4  10  23  41  59  82 114 152 191 234 286 343
#
# _framework density 20.045521000000001
#
# number of rings (size 3 to 8) (size 9 to 14) (size 15 to 20)
#    0.000    2.091    0.000    3.818    1.273    7.273 
#    0.000    5.000    0.000    3.273    0.000    0.000 
#    0.000    0.000    0.000    0.000    0.000    0.000 
#
# Total GULP energy -245682.402372 kJ/mol
# GULP energy per Si atom -5583.690963 kJ/mol
# Density = 1.999990 g / cm^3
# Si number density = 20.045521 Si / 1000 Ang^3
#
#
#
# Elastic Constant Matrix: (Units=GPa)
#
#
# Indices 1 2 3 4 5 6 
#
# 1 22.0508 27.6138 20.7435 0.0000 0.0000 0.0000
# 2 27.6138 107.0396 72.7853 0.0000 0.0000 0.0000
# 3 20.7435 72.7853 118.4913 0.0000 0.0000 0.0000
# 4 0.0000 0.0000 0.0000 27.4369 0.0000 0.0000
# 5 0.0000 0.0000 0.0000 0.0000 34.5675 0.0000
# 6 0.0000 0.0000 0.0000 0.0000 0.0000 20.4725
#
#
#
# Elastic Compliance Matrix: (Units=1/GPa)
#
#
# Indices 1 2 3 4 5 6 
#
# 1 0.067245 -0.016044 -0.001917 0.000000 0.000000 0.000000
# 2 -0.016044 0.019872 -0.009398 0.000000 0.000000 0.000000
# 3 -0.001917 -0.009398 0.014548 0.000000 0.000000 0.000000
# 4 0.000000 0.000000 0.000000 0.036447 0.000000 0.000000
# 5 0.000000 0.000000 0.000000 0.000000 0.028929 0.000000
# 6 0.000000 0.000000 0.000000 0.000000 0.000000 0.048846
#
#
# Mechanical properties :
#
#
# Convention : Reuss Voigt Hill
#
# Bulk Modulus (GPa) = 21.30070 54.42965 37.86517
# Shear Modulus (GPa) = 17.46707 24.92464 21.19585
#
# Velocity S-wave (km/s) = 2.95510 3.53002 3.25527
# Velocity P-wave (km/s) = 4.72152 6.62017 5.74976
#
# Compressibility (1/GPa) = 0.04694681
#
# Stress axis : x y z
#
# Youngs Moduli (GPa) = 14.87104 50.32263 68.73932
#
# Poissons Ratio (x) = 0.80740 0.13174
# Poissons Ratio (y) = 0.23860 0.64600
# Poissons Ratio (z) = 0.02850 0.47292
#
# Static dielectric constant tensor:
#      x y z
#    x 1.687420 0.000000 0.000000 
#    y 0.000000 1.727130 0.000000 
#    z 0.000000 0.000000 1.717090 
# 
# From -- ./inp_files/50517.got.cif
#   From: 2010.05.17/outbox.cif.g08.bks.cpg/sg71_26_cif.got.tgz:50517.got - 2010.06.03 16:22:01.
