data_PCOD9523615
_publ_section_title
;
Structure prediction by ZEFSAII (Michael W. Deem and Ramdas Pophale) SiO2 
 PCOD9523615
Probable space group: I M M M
;
_chemical_formula_sum "Si O2"
_cell_formula_units_Z 116
_cell_length_a 26.405317
_cell_length_b 28.395797
_cell_length_c 7.844403
_cell_angle_alpha 90.000000
_cell_angle_beta 90.000000
_cell_angle_gamma 90.000000
_cell_volume 5881.733536
_symmetry_space_group_name_H-M "I M M M"
_symmetry_group_IT_number 71
_symmetry_cell_setting 'orthorhombic'
loop_
_space_group_symop_operation_xyz
x,y,z
-x,-y,z
x,-y,-z
-x,y,-z
-x,-y,-z
x,y,-z
-x,y,z
x,-y,z
1/2+x,1/2+y,1/2+z
1/2-x,1/2-y,1/2+z
1/2+x,1/2-y,1/2-z
1/2-x,1/2+y,1/2-z
1/2-x,1/2-y,1/2-z
1/2+x,1/2+y,1/2-z
1/2-x,1/2+y,1/2+z
1/2+x,1/2-y,1/2+z
loop_
_atom_site_type_symbol
_atom_site_label
_atom_site_fract_x
_atom_site_fract_y
_atom_site_fract_z
Si Si1 0.628122 0.449339 0.200411
Si Si2 0.124350 0.500000 0.500000
Si Si3 0.345400 0.070883 0.299293
Si Si4 0.659418 0.181673 0.295394
Si Si5 0.735037 0.418478 0.301769
Si Si6 0.270824 0.312743 0.801845
Si Si7 0.123325 0.223558 0.298122
Si Si8 0.056667 0.136940 0.798779
O O1 0.604133 0.500000 0.246312
O O2 0.682455 0.445560 0.289944
O O3 0.593230 0.404399 0.234412
O O4 0.638919 0.449376 0.000000
O O5 0.127375 0.459351 0.653801
O O6 0.359643 0.063697 0.500000
O O7 0.350182 0.126868 0.256812
O O8 0.285203 0.059574 0.280265
O O9 0.662384 0.183664 0.500000
O O10 0.715243 0.196467 0.224966
O O11 0.619709 0.220894 0.236848
O O12 0.747113 0.410054 0.500000
O O13 0.724968 0.369016 0.209432
O O14 0.321931 0.292232 0.722744
O O15 0.269147 0.298392 0.000000
O O16 0.124855 0.215859 0.500000
O O17 0.081108 0.188140 0.231266
O O18 0.000000 0.134031 0.725316
O O19 0.053670 0.130078 0.000000
#
# Coordination Sequence:
#
# PCOD9523615 Si02
#       8
#    16   4  16  16  16  16  16  16
#     4  11  24  39  57  79 104 137 178 236 299 353
#     4  12  22  36  56  78 108 164 208 232 286 328
#     4  10  22  37  52  78 114 155 199 246 280 328
#     4   9  19  34  52  77 116 151 183 229 279 327
#     4  11  20  32  51  76 106 143 190 235 286 340
#     4   9  18  32  49  75 109 145 179 224 280 334
#     4  11  21  33  57  83 107 141 180 224 282 350
#     4  11  25  44  62  81 105 136 181 236 294 362
#
# _framework density 19.722076000000001
#
# number of rings (size 3 to 8) (size 9 to 14) (size 15 to 20)
#    0.000    1.655    2.069    3.931    1.931    3.586 
#    0.000    1.379    0.000    0.000    0.000    0.000 
#    0.000    0.000    0.000    1.241    0.000   10.414 
#
# Total GULP energy -323064.821552 kJ/mol
# GULP energy per Si atom -5570.083130 kJ/mol
# Density = 1.967719 g / cm^3
# Si number density = 19.722076 Si / 1000 Ang^3
#
#
#
# Elastic Constant Matrix: (Units=GPa)
#
#
# Indices 1 2 3 4 5 6 
#
# 1 26.2999 26.7612 -3.1804 0.0000 0.0000 0.0000
# 2 26.7612 74.8037 6.9930 0.0000 0.0000 0.0000
# 3 -3.1804 6.9930 76.3389 0.0000 0.0000 0.0000
# 4 0.0000 0.0000 0.0000 31.1988 0.0000 0.0000
# 5 0.0000 0.0000 0.0000 0.0000 12.0913 0.0000
# 6 0.0000 0.0000 0.0000 0.0000 0.0000 0.2281
#
#
#
# Elastic Compliance Matrix: (Units=1/GPa)
#
#
# Indices 1 2 3 4 5 6 
#
# 1 0.061352 -0.022379 0.004606 0.000000 0.000000 0.000000
# 2 -0.022379 0.021647 -0.002915 0.000000 0.000000 0.000000
# 3 0.004606 -0.002915 0.013558 0.000000 0.000000 0.000000
# 4 0.000000 0.000000 0.000000 0.032053 0.000000 0.000000
# 5 0.000000 0.000000 0.000000 0.000000 0.082704 0.000000
# 6 0.000000 0.000000 0.000000 0.000000 0.000000 4.383462
#
#
# Mechanical properties :
#
#
# Convention : Reuss Voigt Hill
#
# Bulk Modulus (GPa) = 18.12246 26.51001 22.31623
# Shear Modulus (GPa) = 1.07422 18.49489 9.78455
#
# Velocity S-wave (km/s) = 0.73882 3.06563 2.22980
# Velocity P-wave (km/s) = 3.15225 5.09920 4.23901
#
# Compressibility (1/GPa) = 0.05518016
#
# Stress axis : x y z
#
# Youngs Moduli (GPa) = 16.29942 46.19547 73.75479
#
# Poissons Ratio (x) = 1.03383 -0.33972
# Poissons Ratio (y) = 0.36477 0.21502
# Poissons Ratio (z) = -0.07508 0.13468
#
# Static dielectric constant tensor:
#      x y z
#    x 1.702110 0.000000 0.000000 
#    y 0.000000 1.751970 0.000000 
#    z 0.000000 0.000000 1.705280 
# 
# From -- ./inp_files/13410.got.cif
#   From: 2010.05.17/outbox.cif.g08.bks.cpg/sg71_7_cif.got.tgz:13410.got - 2010.06.03 16:22:01.
