data_PCOD9523295
_publ_section_title
;
Structure prediction by ZEFSAII (Michael W. Deem and Ramdas Pophale) SiO2 
 PCOD9523295
Probable space group: I M M M
;
_chemical_formula_sum "Si O2"
_cell_formula_units_Z 72
_cell_length_a 13.063893
_cell_length_b 16.172638
_cell_length_c 13.979970
_cell_angle_alpha 90.000000
_cell_angle_beta 90.000000
_cell_angle_gamma 90.000000
_cell_volume 2953.654682
_symmetry_space_group_name_H-M "I M M M"
_symmetry_group_IT_number 71
_symmetry_cell_setting 'orthorhombic'
loop_
_space_group_symop_operation_xyz
x,y,z
-x,-y,z
x,-y,-z
-x,y,-z
-x,-y,-z
x,y,-z
-x,y,z
x,-y,z
1/2+x,1/2+y,1/2+z
1/2-x,1/2-y,1/2+z
1/2+x,1/2-y,1/2-z
1/2-x,1/2+y,1/2-z
1/2-x,1/2-y,1/2-z
1/2+x,1/2+y,1/2-z
1/2-x,1/2+y,1/2+z
1/2+x,1/2-y,1/2+z
loop_
_atom_site_type_symbol
_atom_site_label
_atom_site_fract_x
_atom_site_fract_y
_atom_site_fract_z
Si Si1 0.821327 0.093755 0.299169
Si Si2 0.120244 0.094905 0.500000
Si Si3 0.618649 0.128746 0.609800
Si Si4 0.676434 0.679439 0.608871
Si Si5 0.386188 0.095302 0.885375
O O1 0.850776 0.136152 0.399856
O O2 0.697786 0.093385 0.313402
O O3 0.864175 0.133724 0.203243
O O4 0.859121 0.000000 0.301351
O O5 0.000000 0.089158 0.500000
O O6 0.161282 0.000000 0.500000
O O7 0.642855 0.102159 0.500000
O O8 0.500000 0.109197 0.626049
O O9 0.637282 0.227299 0.611835
O O10 0.654558 0.648118 0.500000
O O11 0.797569 0.663331 0.627202
O O12 0.500000 0.113853 0.846275
O O13 0.355822 0.000000 0.860350
O O14 0.396170 0.092780 0.000000
#
# Coordination Sequence:
#
# PCOD9523295 Si02
#       5
#    16   8  16  16  16
#     4  11  22  39  65  93 124 163 213 270 321 371
#     4   9  20  40  63  87 117 155 203 260 316 365
#     4  10  22  41  63  88 126 171 216 265 315 372
#     4  10  21  37  60  91 133 170 203 246 316 391
#     4   8  14  27  49  79 118 161 200 243 297 357
#
# _framework density 24.376579
#
# number of rings (size 3 to 8) (size 9 to 14) (size 15 to 20)
#    0.000    2.333    1.111    2.000    0.000    3.556 
#    0.000    2.222    0.000    2.000    0.000   17.111 
#    0.000    0.000    0.000    0.000    0.000    0.000 
#
# Total GULP energy -200858.271177 kJ/mol
# GULP energy per Si atom -5579.396422 kJ/mol
# Density = 2.432110 g / cm^3
# Si number density = 24.376579 Si / 1000 Ang^3
#
#
#
# Elastic Constant Matrix: (Units=GPa)
#
#
# Indices 1 2 3 4 5 6 
#
# 1 73.2120 8.9804 2.7812 0.0000 0.0000 0.0000
# 2 8.9804 57.1324 36.0475 0.0000 0.0000 0.0000
# 3 2.7812 36.0475 220.0271 -0.0001 0.0000 0.0000
# 4 0.0000 0.0000 -0.0001 24.1980 0.0000 0.0000
# 5 0.0000 0.0000 0.0000 0.0000 -0.9200 0.0000
# 6 0.0000 0.0000 0.0000 0.0000 0.0000 25.8368
#
#
#
# Elastic Compliance Matrix: (Units=1/GPa)
#
#
# Indices 1 2 3 4 5 6 
#
# 1 0.013936 -0.002319 0.000204 0.000000 0.000000 0.000000
# 2 -0.002319 0.019907 -0.003232 0.000000 0.000000 0.000000
# 3 0.000204 -0.003232 0.005072 0.000000 0.000000 0.000000
# 4 0.000000 0.000000 0.000000 0.041326 0.000000 0.000000
# 5 0.000000 0.000000 0.000000 0.000000 -1.086968 0.000000
# 6 0.000000 0.000000 0.000000 0.000000 0.000000 0.038704
#
#
# Mechanical properties :
#
#
# Convention : Reuss Voigt Hill
#
# Bulk Modulus (GPa) = 35.43613 49.55440 42.49527
# Shear Modulus (GPa) = -5.27470 29.99379 12.35955
#
# Velocity S-wave (km/s) = -1.47259 3.51156 2.25417
# Velocity P-wave (km/s) = 3.41718 6.06747 4.92399
#
# Compressibility (1/GPa) = 0.02821978
#
# Stress axis : x y z
#
# Youngs Moduli (GPa) = 71.75827 50.23357 197.16709
#
# Poissons Ratio (x) = 0.11649 -0.04018
# Poissons Ratio (y) = 0.16641 0.63726
# Poissons Ratio (z) = -0.01462 0.16236
#
# Static dielectric constant tensor:
#      x y z
#    x 2.009220 0.000000 0.000000 
#    y 0.000000 1.881990 0.000000 
#    z 0.000000 0.000000 2.066440 
# 
# From -- ./inp_files/34086.got.cif
#   From: 2010.05.17/outbox.cif.g08.bks.cpg/sg71_18_cif.got.tgz:34086.got - 2010.06.03 16:22:01.
