data_PCOD9523582
_publ_section_title
;
Structure prediction by ZEFSAII (Michael W. Deem and Ramdas Pophale) SiO2 
 PCOD9523582
Probable space group: I M M M
;
_chemical_formula_sum "Si O2"
_cell_formula_units_Z 44
_cell_length_a 18.061453
_cell_length_b 11.921781
_cell_length_c 10.406453
_cell_angle_alpha 90.000000
_cell_angle_beta 90.000000
_cell_angle_gamma 90.000000
_cell_volume 2240.766237
_symmetry_space_group_name_H-M "I M M M"
_symmetry_group_IT_number 71
_symmetry_cell_setting 'orthorhombic'
loop_
_space_group_symop_operation_xyz
x,y,z
-x,-y,z
x,-y,-z
-x,y,-z
-x,-y,-z
x,y,-z
-x,y,z
x,-y,z
1/2+x,1/2+y,1/2+z
1/2-x,1/2-y,1/2+z
1/2+x,1/2-y,1/2-z
1/2-x,1/2+y,1/2-z
1/2-x,1/2-y,1/2-z
1/2+x,1/2+y,1/2-z
1/2-x,1/2+y,1/2+z
1/2+x,1/2-y,1/2+z
loop_
_atom_site_type_symbol
_atom_site_label
_atom_site_fract_x
_atom_site_fract_y
_atom_site_fract_z
Si Si1 0.084717 0.750391 0.266302
Si Si2 0.393899 0.500000 0.853896
Si Si3 0.829365 0.266309 0.000000
Si Si4 0.824405 0.364551 0.500000
Si Si5 0.747860 0.500000 0.000000
O O1 0.133893 0.688888 0.375641
O O2 0.000000 0.708557 0.270714
O O3 0.083791 0.883760 0.292549
O O4 0.121594 0.740009 0.127494
O O5 0.421525 0.500000 0.000000
O O6 0.305311 0.500000 0.875369
O O7 0.760941 0.178040 0.000000
O O8 0.793088 0.388055 0.000000
O O9 0.828470 0.500000 0.500000
#
# Coordination Sequence:
#
# PCOD9523582 Si02
#       5
#    16   8   8   8   4
#     4  12  26  45  69 101 137 175 221 276 334 394
#     4  10  21  43  72  98 129 171 228 280 323 383
#     4  12  27  45  69 100 137 175 221 276 334 397
#     4  12  27  44  73  96 135 178 227 272 325 399
#     4  10  22  44  72  96 126 178 228 270 328 388
#
# _framework density 19.636140000000001
#
# number of rings (size 3 to 8) (size 9 to 14) (size 15 to 20)
#    0.545    0.000    5.455    2.727    5.091    2.182 
#    0.000    2.727    0.000    0.000    0.000    0.000 
#    0.000    0.000    0.000    0.000    0.000    0.000 
#
# Total GULP energy -122905.978368 kJ/mol
# GULP energy per Si atom -5586.635380 kJ/mol
# Density = 1.959145 g / cm^3
# Si number density = 19.636140 Si / 1000 Ang^3
#
#
#
# Elastic Constant Matrix: (Units=GPa)
#
#
# Indices 1 2 3 4 5 6 
#
# 1 87.4887 19.9237 51.1303 0.0000 0.0000 0.0000
# 2 19.9237 132.0015 32.2853 0.0000 0.0000 0.0000
# 3 51.1303 32.2853 156.0416 0.0000 0.0000 0.0000
# 4 0.0000 0.0000 0.0000 -26.0159 0.0000 0.0000
# 5 0.0000 0.0000 0.0000 0.0000 65.8293 0.0000
# 6 0.0000 0.0000 0.0000 0.0000 0.0000 75.3250
#
#
#
# Elastic Compliance Matrix: (Units=1/GPa)
#
#
# Indices 1 2 3 4 5 6 
#
# 1 0.014278 -0.001065 -0.004458 0.000000 0.000000 0.000000
# 2 -0.001065 0.008059 -0.001319 0.000000 0.000000 0.000000
# 3 -0.004458 -0.001319 0.008142 0.000000 0.000000 0.000000
# 4 0.000000 0.000000 0.000000 -0.038438 0.000000 0.000000
# 5 0.000000 0.000000 0.000000 0.000000 0.015191 0.000000
# 6 0.000000 0.000000 0.000000 0.000000 0.000000 0.013276
#
#
# Mechanical properties :
#
#
# Convention : Reuss Voigt Hill
#
# Bulk Modulus (GPa) = 59.53720 64.69007 62.11363
# Shear Modulus (GPa) = 125.66249 41.17384 83.41817
#
# Velocity S-wave (km/s) = 8.00840 4.58409 6.52489
# Velocity P-wave (km/s) = 10.76562 7.81246 9.40567
#
# Compressibility (1/GPa) = 0.01679622
#
# Stress axis : x y z
#
# Youngs Moduli (GPa) = 70.03796 124.08708 122.81722
#
# Poissons Ratio (x) = 0.13211 0.54754
# Poissons Ratio (y) = 0.07457 0.16194
# Poissons Ratio (z) = 0.31224 0.16361
#
# Static dielectric constant tensor:
#      x y z
#    x 1.741490 0.000000 0.000000 
#    y 0.000000 1.634790 0.000000 
#    z 0.000000 0.000000 1.631190 
# 
# From -- ./inp_files/22904.got.cif
#   From: 2010.05.17/outbox.cif.g08.bks.cpg/sg71_12_cif.got.tgz:22904.got - 2010.06.03 16:22:01.
