data_PCOD9523941
_publ_section_title
;
Structure prediction by ZEFSAII (Michael W. Deem and Ramdas Pophale) SiO2 
 PCOD9523941
Probable space group: I M M M
;
_chemical_formula_sum "Si O2"
_cell_formula_units_Z 52
_cell_length_a 11.953905
_cell_length_b 31.562596
_cell_length_c 7.462447
_cell_angle_alpha 90.000000
_cell_angle_beta 90.000000
_cell_angle_gamma 90.000000
_cell_volume 2815.553449
_symmetry_space_group_name_H-M "I M M M"
_symmetry_group_IT_number 71
_symmetry_cell_setting 'orthorhombic'
loop_
_space_group_symop_operation_xyz
x,y,z
-x,-y,z
x,-y,-z
-x,y,-z
-x,-y,-z
x,y,-z
-x,y,z
x,-y,z
1/2+x,1/2+y,1/2+z
1/2-x,1/2-y,1/2+z
1/2+x,1/2-y,1/2-z
1/2-x,1/2+y,1/2-z
1/2-x,1/2-y,1/2-z
1/2+x,1/2+y,1/2-z
1/2-x,1/2+y,1/2+z
1/2+x,1/2-y,1/2+z
loop_
_atom_site_type_symbol
_atom_site_label
_atom_site_fract_x
_atom_site_fract_y
_atom_site_fract_z
Si Si1 0.500000 0.161280 0.290651
Si Si2 0.744169 0.868522 0.788507
Si Si3 0.628953 0.547345 0.717846
Si Si4 0.127286 0.183801 0.500000
Si Si5 0.500000 0.766187 0.000000
O O1 0.500000 0.171539 0.500000
O O2 0.612353 0.135770 0.244445
O O3 0.500000 0.203489 0.170884
O O4 0.792671 0.913965 0.728194
O O5 0.806884 0.833034 0.672151
O O6 0.766541 0.863234 0.000000
O O7 0.629731 0.546809 0.500000
O O8 0.500000 0.554758 0.772300
O O9 0.661806 0.500000 0.777176
O O10 0.000000 0.165989 0.500000
O O11 0.105447 0.234159 0.500000
#
# Coordination Sequence:
#
# PCOD9523941 Si02
#       5
#     8  16  16   8   4
#     4  12  24  44  63  85 117 169 206 257 307 370
#     4  11  21  39  66  88 125 165 203 247 310 359
#     4   8  15  30  57  92 126 159 198 243 296 361
#     4  10  24  41  60  94 119 150 203 258 299 376
#     4  10  26  46  60  94 118 148 220 256 304 378
#
# _framework density 18.468837000000001
#
# number of rings (size 3 to 8) (size 9 to 14) (size 15 to 20)
#    0.462    1.538    3.077    1.846    0.000    4.308 
#    0.000    1.538    0.000    7.385    0.000    0.000 
#    0.000    0.000    0.000    0.000    0.000    0.000 
#
# Total GULP energy -145056.100484 kJ/mol
# GULP energy per Si atom -5579.080788 kJ/mol
# Density = 1.842680 g / cm^3
# Si number density = 18.468837 Si / 1000 Ang^3
#
#
#
# Elastic Constant Matrix: (Units=GPa)
#
#
# Indices 1 2 3 4 5 6 
#
# 1 130.0652 81.6436 27.5629 -0.0010 -0.0044 -0.0001
# 2 81.6436 166.0577 46.1756 -0.0006 -0.0004 0.0001
# 3 27.5629 46.1756 116.5418 -0.0019 0.0136 0.0001
# 4 -0.0010 -0.0006 -0.0019 -37.4383 0.0075 0.0026
# 5 -0.0044 -0.0004 0.0136 0.0075 -17.4340 0.0011
# 6 -0.0001 0.0001 0.0001 0.0026 0.0011 -16.6248
#
#
#
# Elastic Compliance Matrix: (Units=1/GPa)
#
#
# Indices 1 2 3 4 5 6 
#
# 1 0.011149 -0.005336 -0.000523 0.000000 -0.000003 0.000000
# 2 -0.005336 0.009322 -0.002431 0.000000 -0.000001 0.000000
# 3 -0.000523 -0.002431 0.009668 0.000000 0.000008 0.000000
# 4 0.000000 0.000000 0.000000 -0.026711 -0.000011 -0.000004
# 5 -0.000003 -0.000001 0.000008 -0.000011 -0.057359 -0.000004
# 6 0.000000 0.000000 0.000000 -0.000004 -0.000004 -0.060151
#
#
# Mechanical properties :
#
#
# Convention : Reuss Voigt Hill
#
# Bulk Modulus (GPa) = 73.75722 80.38098 77.06910
# Shear Modulus (GPa) = -53.77275 2.85274 -25.46000
#
# Velocity S-wave (km/s) = -5.40172 1.24418 -3.71690
# Velocity P-wave (km/s) = 1.05732 6.75877 4.83730
#
# Compressibility (1/GPa) = 0.01355799
#
# Stress axis : x y z
#
# Youngs Moduli (GPa) = 89.69672 107.27777 103.43902
#
# Poissons Ratio (x) = 0.57244 0.05405
# Poissons Ratio (y) = 0.47863 0.25150
# Poissons Ratio (z) = 0.04687 0.26083
#
# Static dielectric constant tensor:
#      x y z
#    x 1.614660 0.000000 0.000000 
#    y 0.000000 1.629170 0.000000 
#    z 0.000000 0.000000 1.659460 
# 
# From -- ./inp_files/3533.got.cif
#   From: 2010.05.17/outbox.cif.g08.bks.cpg/sg71_2_cif.got.tgz:3533.got - 2010.06.03 16:22:01.
