data_PCOD9523966
_publ_section_title
;
Structure prediction by ZEFSAII (Michael W. Deem and Ramdas Pophale) SiO2 
 PCOD9523966
Probable space group: I M M M
;
_chemical_formula_sum "Si O2"
_cell_formula_units_Z 58
_cell_length_a 7.491656
_cell_length_b 14.199150
_cell_length_c 29.025343
_cell_angle_alpha 90.000000
_cell_angle_beta 90.000000
_cell_angle_gamma 90.000000
_cell_volume 3087.575137
_symmetry_space_group_name_H-M "I M M M"
_symmetry_group_IT_number 71
_symmetry_cell_setting 'orthorhombic'
loop_
_space_group_symop_operation_xyz
x,y,z
-x,-y,z
x,-y,-z
-x,y,-z
-x,-y,-z
x,y,-z
-x,y,z
x,-y,z
1/2+x,1/2+y,1/2+z
1/2-x,1/2-y,1/2+z
1/2+x,1/2-y,1/2-z
1/2-x,1/2+y,1/2-z
1/2-x,1/2-y,1/2-z
1/2+x,1/2+y,1/2-z
1/2-x,1/2+y,1/2+z
1/2+x,1/2-y,1/2+z
loop_
_atom_site_type_symbol
_atom_site_label
_atom_site_fract_x
_atom_site_fract_y
_atom_site_fract_z
Si Si1 0.500000 0.500000 0.000000
Si Si2 0.000000 0.198943 0.550851
Si Si3 0.782493 0.000000 0.851310
Si Si4 0.202395 0.201857 0.888827
Si Si5 0.718027 0.500000 0.243945
Si Si6 0.787820 0.805073 0.296719
O O1 0.500000 0.413643 0.960191
O O2 0.170567 0.237305 0.578498
O O3 0.000000 0.243540 0.500000
O O4 0.729916 0.903947 0.877245
O O5 0.723001 0.000000 0.797564
O O6 0.000000 0.000000 0.850011
O O7 0.200133 0.254324 0.839667
O O8 0.000000 0.195787 0.906862
O O9 0.500000 0.500000 0.245933
O O10 0.774360 0.409379 0.215368
O O11 0.750000 0.750000 0.250000
O O12 0.000000 0.806223 0.305659
#
# Coordination Sequence:
#
# PCOD9523966 Si02
#       6
#     2   8   8  16   8  16
#     4   8  24  52  78  90 132 150 208 276 346 382
#     4  10  24  49  72  96 119 162 210 276 332 389
#     4   9  18  35  58  91 133 173 208 254 314 375
#     4  11  22  40  66  94 129 169 214 262 325 387
#     4   9  18  31  51  77 123 180 216 253 308 366
#     4  11  20  34  54  86 128 175 220 262 307 374
#
# _framework density 18.784969
#
# number of rings (size 3 to 8) (size 9 to 14) (size 15 to 20)
#    0.414    1.379    4.138    0.828    0.000    2.207 
#    0.000    8.276    0.000    2.483    0.000    0.000 
#    0.000    0.000    0.000    0.000    0.000    0.000 
#
# Total GULP energy -161507.287058 kJ/mol
# GULP energy per Si atom -5569.216795 kJ/mol
# Density = 1.874221 g / cm^3
# Si number density = 18.784969 Si / 1000 Ang^3
#
#
#
# Elastic Constant Matrix: (Units=GPa)
#
#
# Indices 1 2 3 4 5 6 
#
# 1 85.0653 32.6422 28.3500 0.0000 0.0000 0.0000
# 2 32.6422 193.5157 58.3938 0.0000 0.0000 0.0000
# 3 28.3500 58.3938 109.0933 0.0000 0.0000 0.0000
# 4 0.0000 0.0000 0.0000 37.3934 0.0000 0.0000
# 5 0.0000 0.0000 0.0000 0.0000 17.2800 0.0000
# 6 0.0000 0.0000 0.0000 0.0000 0.0000 6.6220
#
#
#
# Elastic Compliance Matrix: (Units=1/GPa)
#
#
# Indices 1 2 3 4 5 6 
#
# 1 0.013190 -0.001420 -0.002668 0.000000 0.000000 0.000000
# 2 -0.001420 0.006316 -0.003012 0.000000 0.000000 0.000000
# 3 -0.002668 -0.003012 0.011472 0.000000 0.000000 0.000000
# 4 0.000000 0.000000 0.000000 0.026743 0.000000 0.000000
# 5 0.000000 0.000000 0.000000 0.000000 0.057870 0.000000
# 6 0.000000 0.000000 0.000000 0.000000 0.000000 0.151011
#
#
# Mechanical properties :
#
#
# Convention : Reuss Voigt Hill
#
# Bulk Modulus (GPa) = 59.59858 69.60514 64.60186
# Shear Modulus (GPa) = 17.45855 30.14498 23.80177
#
# Velocity S-wave (km/s) = 3.05190 4.01027 3.56345
# Velocity P-wave (km/s) = 6.64939 7.65356 7.16908
#
# Compressibility (1/GPa) = 0.01677892
#
# Stress axis : x y z
#
# Youngs Moduli (GPa) = 75.81760 158.33268 87.17100
#
# Poissons Ratio (x) = 0.22481 0.23253
# Poissons Ratio (y) = 0.10765 0.26253
# Poissons Ratio (z) = 0.20225 0.47684
#
# Static dielectric constant tensor:
#      x y z
#    x 1.718170 0.000000 0.000000 
#    y 0.000000 1.451240 0.000000 
#    z 0.000000 0.000000 1.615220 
# 
# From -- ./inp_files/62775.got.cif
#   From: 2010.05.17/outbox.cif.g08.bks.cpg/sg71_32_cif.got.tgz:62775.got - 2010.06.03 16:22:01.
