data_PCOD9523044
_publ_section_title
;
Structure prediction by ZEFSAII (Michael W. Deem and Ramdas Pophale) SiO2 
 PCOD9523044
Probable space group: I M M M
;
_chemical_formula_sum "Si O2"
_cell_formula_units_Z 88
_cell_length_a 22.273571
_cell_length_b 14.619054
_cell_length_c 13.959767
_cell_angle_alpha 90.000000
_cell_angle_beta 90.000000
_cell_angle_gamma 90.000000
_cell_volume 4545.558910
_symmetry_space_group_name_H-M "I M M M"
_symmetry_group_IT_number 71
_symmetry_cell_setting 'orthorhombic'
loop_
_space_group_symop_operation_xyz
x,y,z
-x,-y,z
x,-y,-z
-x,y,-z
-x,-y,-z
x,y,-z
-x,y,z
x,-y,z
1/2+x,1/2+y,1/2+z
1/2-x,1/2-y,1/2+z
1/2+x,1/2-y,1/2-z
1/2-x,1/2+y,1/2-z
1/2-x,1/2-y,1/2-z
1/2+x,1/2+y,1/2-z
1/2-x,1/2+y,1/2+z
1/2+x,1/2-y,1/2+z
loop_
_atom_site_type_symbol
_atom_site_label
_atom_site_fract_x
_atom_site_fract_y
_atom_site_fract_z
Si Si1 0.601984 0.279147 0.221870
Si Si2 0.276453 0.769035 0.885283
Si Si3 0.198188 0.598836 0.888403
Si Si4 0.667361 0.391611 0.612855
Si Si5 0.064569 0.603078 0.175069
Si Si6 0.500000 0.391428 0.114523
O O1 0.660170 0.244254 0.164510
O O2 0.624899 0.335163 0.315290
O O3 0.567829 0.187182 0.252709
O O4 0.558557 0.343703 0.160289
O O5 0.234376 0.684854 0.850407
O O6 0.235815 0.858573 0.868824
O O7 0.284953 0.762967 0.000000
O O8 0.213221 0.500000 0.844009
O O9 0.126606 0.611703 0.882483
O O10 0.213888 0.594380 0.000000
O O11 0.654849 0.370147 0.500000
O O12 0.660783 0.500000 0.626780
O O13 0.066870 0.500000 0.217490
O O14 0.000000 0.608820 0.123274
O O15 0.500000 0.500000 0.135007
O O16 0.500000 0.379275 0.000000
#
# Coordination Sequence:
#
# PCOD9523044 Si02
#       6
#    16  16  16  16  16   8
#     4  12  22  40  64  89 116 162 206 249 305 362
#     4  10  21  37  58  88 120 153 198 250 304 357
#     4   9  18  33  54  83 118 150 187 240 296 352
#     4  10  22  39  59  89 127 161 198 245 299 366
#     4  10  21  36  56  85 118 153 196 242 292 356
#     4  11  26  46  66  90 120 155 204 262 308 352
#
# _framework density 19.359556000000001
#
# number of rings (size 3 to 8) (size 9 to 14) (size 15 to 20)
#    0.000    1.727    2.727    1.636    0.000    2.545 
#    0.000    4.091    0.000    3.818    0.000    0.000 
#    0.000    0.000    0.000    0.000    0.000    0.000 
#
# Total GULP energy -245373.759084 kJ/mol
# GULP energy per Si atom -5576.676343 kJ/mol
# Density = 1.931549 g / cm^3
# Si number density = 19.359556 Si / 1000 Ang^3
#
#
#
# Elastic Constant Matrix: (Units=GPa)
#
#
# Indices 1 2 3 4 5 6 
#
# 1 109.0482 41.0372 34.3381 0.0000 0.0000 0.0000
# 2 41.0372 120.4244 48.2740 0.0000 0.0000 0.0000
# 3 34.3381 48.2740 88.9274 0.0000 0.0000 0.0000
# 4 0.0000 0.0000 0.0000 20.1737 0.0000 0.0000
# 5 0.0000 0.0000 0.0000 0.0000 22.2980 0.0000
# 6 0.0000 0.0000 0.0000 0.0000 0.0000 23.7294
#
#
#
# Elastic Compliance Matrix: (Units=1/GPa)
#
#
# Indices 1 2 3 4 5 6 
#
# 1 0.011054 -0.002628 -0.002842 0.000000 0.000000 0.000000
# 2 -0.002628 0.011238 -0.005086 0.000000 0.000000 0.000000
# 3 -0.002842 -0.005086 0.015103 0.000000 0.000000 0.000000
# 4 0.000000 0.000000 0.000000 0.049570 0.000000 0.000000
# 5 0.000000 0.000000 0.000000 0.000000 0.044847 0.000000
# 6 0.000000 0.000000 0.000000 0.000000 0.000000 0.042142
#
#
# Mechanical properties :
#
#
# Convention : Reuss Voigt Hill
#
# Bulk Modulus (GPa) = 61.40826 62.85538 62.13182
# Shear Modulus (GPa) = 24.93847 26.22359 25.58103
#
# Velocity S-wave (km/s) = 3.59301 3.68442 3.63900
# Velocity P-wave (km/s) = 7.00012 7.11602 7.05831
#
# Compressibility (1/GPa) = 0.01628445
#
# Stress axis : x y z
#
# Youngs Moduli (GPa) = 90.46503 88.98222 66.21018
#
# Poissons Ratio (x) = 0.23381 0.18816
# Poissons Ratio (y) = 0.23771 0.33674
# Poissons Ratio (z) = 0.25710 0.45256
#
# Static dielectric constant tensor:
#      x y z
#    x 1.665270 0.000000 0.000000 
#    y 0.000000 1.698780 0.000000 
#    z 0.000000 0.000000 1.694530 
# 
# From -- ./inp_files/34405.got.cif
#   From: 2010.05.17/outbox.cif.g08.bks.cpg/sg71_18_cif.got.tgz:34405.got - 2010.06.03 16:22:01.
