data_PCOD9523149
_publ_section_title
;
Structure prediction by ZEFSAII (Michael W. Deem and Ramdas Pophale) SiO2 
 PCOD9523149
Probable space group: I M M M
;
_chemical_formula_sum "Si O2"
_cell_formula_units_Z 88
_cell_length_a 19.374471
_cell_length_b 25.012704
_cell_length_c 8.770024
_cell_angle_alpha 90.000000
_cell_angle_beta 90.000000
_cell_angle_gamma 90.000000
_cell_volume 4250.022986
_symmetry_space_group_name_H-M "I M M M"
_symmetry_group_IT_number 71
_symmetry_cell_setting 'orthorhombic'
loop_
_space_group_symop_operation_xyz
x,y,z
-x,-y,z
x,-y,-z
-x,y,-z
-x,-y,-z
x,y,-z
-x,y,z
x,-y,z
1/2+x,1/2+y,1/2+z
1/2-x,1/2-y,1/2+z
1/2+x,1/2-y,1/2-z
1/2-x,1/2+y,1/2-z
1/2-x,1/2-y,1/2-z
1/2+x,1/2+y,1/2-z
1/2-x,1/2+y,1/2+z
1/2+x,1/2-y,1/2+z
loop_
_atom_site_type_symbol
_atom_site_label
_atom_site_fract_x
_atom_site_fract_y
_atom_site_fract_z
Si Si1 0.924220 0.725227 0.185363
Si Si2 0.353430 0.936961 0.818975
Si Si3 0.643479 0.333594 0.318171
Si Si4 0.081729 0.059607 0.683114
Si Si5 0.500000 0.064751 0.326782
Si Si6 0.211234 0.338659 0.818156
O O1 0.909948 0.786951 0.226285
O O2 0.857772 0.691764 0.236513
O O3 0.000000 0.707598 0.239121
O O4 0.924603 0.721852 0.000000
O O5 0.429798 0.921393 0.759377
O O6 0.299721 0.900029 0.731102
O O7 0.343884 0.000000 0.788192
O O8 0.348630 0.928601 0.000000
O O9 0.645983 0.335656 0.500000
O O10 0.621421 0.391008 0.255234
O O11 0.718749 0.318210 0.256332
O O12 0.088818 0.062053 0.500000
O O13 0.000000 0.064304 0.718151
O O14 0.104439 0.000000 0.732904
O O15 0.500000 0.086209 0.500000
O O16 0.500000 0.000000 0.335522
O O17 0.215809 0.333975 0.000000
#
# Coordination Sequence:
#
# PCOD9523149 Si02
#       6
#    16  16  16  16   8  16
#     4   9  20  39  62  88 115 147 192 246 301 352
#     4  10  21  37  56  81 116 153 192 243 297 345
#     4  11  22  38  61  87 121 159 194 238 295 357
#     4   9  19  37  61  90 124 159 197 243 291 343
#     4   9  17  31  53  79 107 145 191 233 280 341
#     4  11  23  38  60  86 117 156 199 247 295 355
#
# _framework density 20.705770999999999
#
# number of rings (size 3 to 8) (size 9 to 14) (size 15 to 20)
#    0.000    2.091    0.000    3.545    1.273    4.364 
#    0.000    3.636    0.000    4.364    0.000    0.000 
#    0.000    0.000    0.000    0.000    0.000    0.000 
#
# Total GULP energy -245857.061504 kJ/mol
# GULP energy per Si atom -5587.660489 kJ/mol
# Density = 2.065864 g / cm^3
# Si number density = 20.705771 Si / 1000 Ang^3
#
#
#
# Elastic Constant Matrix: (Units=GPa)
#
#
# Indices 1 2 3 4 5 6 
#
# 1 92.5807 35.7675 18.5197 0.0000 0.0000 0.0000
# 2 35.7675 91.1436 22.7281 0.0000 0.0000 0.0000
# 3 18.5197 22.7281 28.1607 0.0000 0.0000 0.0000
# 4 0.0000 0.0000 0.0000 15.3546 0.0000 0.0000
# 5 0.0000 0.0000 0.0000 0.0000 26.2607 0.0000
# 6 0.0000 0.0000 0.0000 0.0000 0.0000 25.1029
#
#
#
# Elastic Compliance Matrix: (Units=1/GPa)
#
#
# Indices 1 2 3 4 5 6 
#
# 1 0.013432 -0.003842 -0.005733 0.000000 0.000000 0.000000
# 2 -0.003842 0.014835 -0.009447 0.000000 0.000000 0.000000
# 3 -0.005733 -0.009447 0.046905 0.000000 0.000000 0.000000
# 4 0.000000 0.000000 0.000000 0.065127 0.000000 0.000000
# 5 0.000000 0.000000 0.000000 0.000000 0.038080 0.000000
# 6 0.000000 0.000000 0.000000 0.000000 0.000000 0.039836
#
#
# Mechanical properties :
#
#
# Convention : Reuss Voigt Hill
#
# Bulk Modulus (GPa) = 26.93275 40.65727 33.79501
# Shear Modulus (GPa) = 18.61265 22.33497 20.47381
#
# Velocity S-wave (km/s) = 3.00144 3.28789 3.14793
# Velocity P-wave (km/s) = 5.00471 5.83884 5.43779
#
# Compressibility (1/GPa) = 0.03712952
#
# Stress axis : x y z
#
# Youngs Moduli (GPa) = 74.44683 67.40853 21.31965
#
# Poissons Ratio (x) = 0.25896 0.12223
# Poissons Ratio (y) = 0.28600 0.20140
# Poissons Ratio (z) = 0.42682 0.63678
#
# Static dielectric constant tensor:
#      x y z
#    x 1.737650 0.000000 0.000000 
#    y 0.000000 1.769160 0.000000 
#    z 0.000000 0.000000 1.692650 
# 
# From -- ./inp_files/10497.got.cif
#   From: 2010.05.17/outbox.cif.g08.bks.cpg/sg71_6_cif.got.tgz:10497.got - 2010.06.03 16:22:01.
