data_PCOD9523016
_publ_section_title
;
Structure prediction by ZEFSAII (Michael W. Deem and Ramdas Pophale) SiO2 
 PCOD9523016
Probable space group: I M M M
;
_chemical_formula_sum "Si O2"
_cell_formula_units_Z 100
_cell_length_a 7.868850
_cell_length_b 20.341316
_cell_length_c 29.939833
_cell_angle_alpha 90.000000
_cell_angle_beta 90.000000
_cell_angle_gamma 90.000000
_cell_volume 4792.252436
_symmetry_space_group_name_H-M "I M M M"
_symmetry_group_IT_number 71
_symmetry_cell_setting 'orthorhombic'
loop_
_space_group_symop_operation_xyz
x,y,z
-x,-y,z
x,-y,-z
-x,y,-z
-x,-y,-z
x,y,-z
-x,y,z
x,-y,z
1/2+x,1/2+y,1/2+z
1/2-x,1/2-y,1/2+z
1/2+x,1/2-y,1/2-z
1/2-x,1/2+y,1/2-z
1/2-x,1/2-y,1/2-z
1/2+x,1/2+y,1/2-z
1/2-x,1/2+y,1/2+z
1/2+x,1/2-y,1/2+z
loop_
_atom_site_type_symbol
_atom_site_label
_atom_site_fract_x
_atom_site_fract_y
_atom_site_fract_z
Si Si1 0.299317 0.428291 0.071838
Si Si2 0.807258 0.092338 0.677823
Si Si3 0.196188 0.734554 0.199826
Si Si4 0.000000 0.500000 0.794029
Si Si5 0.792482 0.576245 0.449595
Si Si6 0.304961 0.816589 0.880146
Si Si7 0.301745 0.784749 0.451057
O O1 0.500000 0.424847 0.061104
O O2 0.234800 0.500000 0.057143
O O3 0.283214 0.424919 0.125524
O O4 0.214473 0.363146 0.053115
O O5 0.795411 0.170704 0.682902
O O6 0.000000 0.073016 0.690699
O O7 0.653024 0.056741 0.703098
O O8 0.250000 0.750000 0.250000
O O9 0.221997 0.795441 0.166206
O O10 0.000000 0.716760 0.198670
O O11 0.736935 0.594873 0.500000
O O12 0.746546 0.500000 0.442194
O O13 0.731425 0.624682 0.410655
O O14 0.000000 0.579658 0.449727
O O15 0.500000 0.832794 0.870344
O O16 0.295029 0.752848 0.912216
O O17 0.238414 0.764653 0.500000
O O18 0.500000 0.767385 0.446963
#
# Coordination Sequence:
#
# PCOD9523016 Si02
#       7
#    16  16  16   4  16  16  16
#     4  10  21  36  56  80 112 154 201 255 309 359
#     4  11  22  39  62  96 128 161 214 270 317 382
#     4  12  25  43  66  93 124 165 213 269 333 396
#     4  12  22  36  68  98 125 174 208 256 329 384
#     4   8  15  30  56  91 128 164 206 255 312 384
#     4  11  21  36  62  91 120 159 204 260 320 383
#     4  11  24  37  52  80 119 160 205 254 304 366
#
# _framework density 20.867014000000001
#
# number of rings (size 3 to 8) (size 9 to 14) (size 15 to 20)
#    0.000    1.440    3.200    3.600    1.120    2.560 
#    0.000    1.600    1.760    1.920    0.000    5.600 
#    0.000    0.000    0.000    0.000    0.000    0.000 
#
# Total GULP energy -278786.405218 kJ/mol
# GULP energy per Si atom -5575.728104 kJ/mol
# Density = 2.081952 g / cm^3
# Si number density = 20.867014 Si / 1000 Ang^3
#
#
#
# Elastic Constant Matrix: (Units=GPa)
#
#
# Indices 1 2 3 4 5 6 
#
# 1 82.5157 10.6215 13.4700 0.0000 0.0000 0.0000
# 2 10.6215 116.2633 50.3138 0.0002 0.0000 0.0000
# 3 13.4700 50.3138 109.8206 0.0001 0.0000 0.0000
# 4 0.0000 0.0002 0.0001-1102.7138 0.0000 0.0000
# 5 0.0000 0.0000 0.0000 0.0000 18.4430 0.0000
# 6 0.0000 0.0000 0.0000 0.0000 0.0000 22.2408
#
#
#
# Elastic Compliance Matrix: (Units=1/GPa)
#
#
# Indices 1 2 3 4 5 6 
#
# 1 0.012399 -0.000592 -0.001250 0.000000 0.000000 0.000000
# 2 -0.000592 0.010756 -0.004855 0.000000 0.000000 0.000000
# 3 -0.001250 -0.004855 0.011484 0.000000 0.000000 0.000000
# 4 0.000000 0.000000 0.000000 -0.000907 0.000000 0.000000
# 5 0.000000 0.000000 0.000000 0.000000 0.054221 0.000000
# 6 0.000000 0.000000 0.000000 0.000000 0.000000 0.044962
#
#
# Mechanical properties :
#
#
# Convention : Reuss Voigt Hill
#
# Bulk Modulus (GPa) = 47.06966 50.82334 48.94650
# Shear Modulus (GPa) = 32.59633 -196.79306 -82.09837
#
# Velocity S-wave (km/s) = 3.95663 -9.72178 -6.27925
# Velocity P-wave (km/s) = 6.59387 10.08011 5.39117
#
# Compressibility (1/GPa) = 0.02124511
#
# Stress axis : x y z
#
# Youngs Moduli (GPa) = 80.65103 92.96735 87.08136
#
# Poissons Ratio (x) = 0.05503 0.10882
# Poissons Ratio (y) = 0.04774 0.42282
# Poissons Ratio (z) = 0.10078 0.45139
#
# Static dielectric constant tensor:
#      x y z
#    x 1.762780 0.000000 0.000000 
#    y 0.000000 1.761430 0.000000 
#    z 0.000000 0.000000 1.731330 
# 
# From -- ./inp_files/63319.got.cif
#   From: 2010.05.17/outbox.cif.g08.bks.cpg/sg71_32_cif.got.tgz:63319.got - 2010.06.03 16:22:01.
