data_PCOD9523560
_publ_section_title
;
Structure prediction by ZEFSAII (Michael W. Deem and Ramdas Pophale) SiO2 
 PCOD9523560
Probable space group: I M M M
;
_chemical_formula_sum "Si O2"
_cell_formula_units_Z 42
_cell_length_a 23.863787
_cell_length_b 10.435757
_cell_length_c 7.518030
_cell_angle_alpha 90.000000
_cell_angle_beta 90.000000
_cell_angle_gamma 90.000000
_cell_volume 1872.265248
_symmetry_space_group_name_H-M "I M M M"
_symmetry_group_IT_number 71
_symmetry_cell_setting 'orthorhombic'
loop_
_space_group_symop_operation_xyz
x,y,z
-x,-y,z
x,-y,-z
-x,y,-z
-x,-y,-z
x,y,-z
-x,y,z
x,-y,z
1/2+x,1/2+y,1/2+z
1/2-x,1/2-y,1/2+z
1/2+x,1/2-y,1/2-z
1/2-x,1/2+y,1/2-z
1/2-x,1/2-y,1/2-z
1/2+x,1/2+y,1/2-z
1/2-x,1/2+y,1/2+z
1/2+x,1/2-y,1/2+z
loop_
_atom_site_type_symbol
_atom_site_label
_atom_site_fract_x
_atom_site_fract_y
_atom_site_fract_z
Si Si1 0.794143 0.500000 0.206669
Si Si2 0.500000 0.264329 0.217062
Si Si3 0.378018 0.771645 0.788303
Si Si4 0.000000 0.000000 0.000000
Si Si5 0.167518 0.000000 0.281095
O O1 0.831282 0.375560 0.244451
O O2 0.731755 0.500000 0.285356
O O3 0.783106 0.500000 0.000000
O O4 0.441659 0.193154 0.259339
O O5 0.500000 0.388763 0.341460
O O6 0.500000 0.292189 0.000000
O O7 0.362533 0.629995 0.719343
O O8 0.377044 0.761935 0.000000
O O9 0.165598 0.000000 0.500000
#
# Coordination Sequence:
#
# PCOD9523560 Si02
#       5
#     8   8  16   2   8
#     4  11  23  37  58  91 127 162 211 256 309 380
#     4  10  23  40  64  97 128 164 210 264 316 380
#     4  10  21  41  64  87 123 166 208 256 318 376
#     4  12  22  36  68  92 136 160 210 250 332 360
#     4   9  19  37  62  89 119 159 208 265 311 369
#
# _framework density 22.432718000000001
#
# number of rings (size 3 to 8) (size 9 to 14) (size 15 to 20)
#    0.000    1.905    0.000    3.143    2.667    3.810 
#    0.000    5.714    0.000    0.000    0.000    0.000 
#    0.000    0.000    0.000    0.000    0.000    0.000 
#
# Total GULP energy -116979.431845 kJ/mol
# GULP energy per Si atom -5570.449135 kJ/mol
# Density = 2.238166 g / cm^3
# Si number density = 22.432718 Si / 1000 Ang^3
#
#
#
# Elastic Constant Matrix: (Units=GPa)
#
#
# Indices 1 2 3 4 5 6 
#
# 1 182.7068 43.5114 8.7733 0.0000 0.0000 0.0000
# 2 43.5114 85.1538 -11.2029 0.0000 0.0000 0.0000
# 3 8.7733 -11.2029 63.7314 0.0000 0.0000 0.0000
# 4 0.0000 0.0000 0.0000 49.3546 0.0000 0.0000
# 5 0.0000 0.0000 0.0000 0.0000 17.9235 0.0000
# 6 0.0000 0.0000 0.0000 0.0000 0.0000 -27.1341
#
#
#
# Elastic Compliance Matrix: (Units=1/GPa)
#
#
# Indices 1 2 3 4 5 6 
#
# 1 0.006365 -0.003448 -0.001482 0.000000 0.000000 0.000000
# 2 -0.003448 0.013889 0.002916 0.000000 0.000000 0.000000
# 3 -0.001482 0.002916 0.016407 0.000000 0.000000 0.000000
# 4 0.000000 0.000000 0.000000 0.020262 0.000000 0.000000
# 5 0.000000 0.000000 0.000000 0.000000 0.055793 0.000000
# 6 0.000000 0.000000 0.000000 0.000000 0.000000 -0.036854
#
#
# Mechanical properties :
#
#
# Convention : Reuss Voigt Hill
#
# Bulk Modulus (GPa) = 30.64302 45.97284 38.30793
# Shear Modulus (GPa) = 55.08570 27.39615 41.24093
#
# Velocity S-wave (km/s) = 4.96077 3.49844 4.29234
# Velocity P-wave (km/s) = 6.81924 6.07099 6.45596
#
# Compressibility (1/GPa) = 0.03263385
#
# Stress axis : x y z
#
# Youngs Moduli (GPa) = 157.09766 72.00092 60.94780
#
# Poissons Ratio (x) = 0.24823 0.09034
# Poissons Ratio (y) = 0.54161 -0.17772
# Poissons Ratio (z) = 0.23287 -0.20995
#
# Static dielectric constant tensor:
#      x y z
#    x 1.898140 0.000000 0.000000 
#    y 0.000000 1.723590 0.000000 
#    z 0.000000 0.000000 1.852810 
# 
# From -- ./inp_files/2006.got.cif
#   From: 2010.05.17/outbox.cif.g08.bks.cpg/sg71_2_cif.got.tgz:2006.got - 2010.06.03 16:22:01.
