data_PCOD9523884
_publ_section_title
;
Structure prediction by ZEFSAII (Michael W. Deem and Ramdas Pophale) SiO2 
 PCOD9523884
Probable space group: I M M M
;
_chemical_formula_sum "Si O2"
_cell_formula_units_Z 116
_cell_length_a 26.098500
_cell_length_b 29.724947
_cell_length_c 8.894103
_cell_angle_alpha 90.000000
_cell_angle_beta 90.000000
_cell_angle_gamma 90.000000
_cell_volume 6899.836356
_symmetry_space_group_name_H-M "I M M M"
_symmetry_group_IT_number 71
_symmetry_cell_setting 'orthorhombic'
loop_
_space_group_symop_operation_xyz
x,y,z
-x,-y,z
x,-y,-z
-x,y,-z
-x,-y,-z
x,y,-z
-x,y,z
x,-y,z
1/2+x,1/2+y,1/2+z
1/2-x,1/2-y,1/2+z
1/2+x,1/2-y,1/2-z
1/2-x,1/2+y,1/2-z
1/2-x,1/2-y,1/2-z
1/2+x,1/2+y,1/2-z
1/2-x,1/2+y,1/2+z
1/2+x,1/2-y,1/2+z
loop_
_atom_site_type_symbol
_atom_site_label
_atom_site_fract_x
_atom_site_fract_y
_atom_site_fract_z
Si Si1 0.274284 0.295049 0.320396
Si Si2 0.399783 0.803374 0.333661
Si Si3 0.941840 0.119874 0.318985
Si Si4 0.241624 0.447362 0.680154
Si Si5 0.000000 0.328626 0.000000
Si Si6 0.304331 0.135874 0.320242
Si Si7 0.140582 0.052311 0.818835
Si Si8 0.614646 0.710556 0.821105
O O1 0.272394 0.293174 0.500000
O O2 0.250000 0.250000 0.250000
O O3 0.240297 0.335826 0.259290
O O4 0.332049 0.299121 0.262214
O O5 0.381082 0.786474 0.500000
O O6 0.454327 0.825142 0.371166
O O7 0.357775 0.839449 0.281732
O O8 0.403239 0.759927 0.229385
O O9 0.940623 0.115812 0.500000
O O10 0.900720 0.085551 0.251315
O O11 0.924987 0.170912 0.282043
O O12 0.000000 0.111041 0.267794
O O13 0.238303 0.441129 0.500000
O O14 0.233064 0.500000 0.711786
O O15 0.202450 0.414629 0.762230
O O16 0.300650 0.436731 0.725285
O O17 0.298452 0.137258 0.500000
O O18 0.130941 0.000000 0.777984
O O19 0.138310 0.055306 0.000000
O O20 0.623098 0.709777 0.000000
#
# Coordination Sequence:
#
# PCOD9523884 Si02
#       8
#    16  16  16  16   4  16  16  16
#     4  12  23  35  52  78 114 151 186 228 278 344
#     4   9  20  36  56  77 104 146 186 227 272 326
#     4  10  23  38  51  73 104 140 184 234 283 326
#     4   9  19  36  58  84 116 149 180 221 279 346
#     4   8  20  40  58  76 105 150 195 234 270 326
#     4  11  21  34  54  84 115 147 183 229 275 335
#     4   9  19  37  57  77 101 134 179 227 277 333
#     4  11  22  36  54  78 109 145 188 237 285 334
#
# _framework density 16.811993000000001
#
# number of rings (size 3 to 8) (size 9 to 14) (size 15 to 20)
#    0.414    1.517    1.379    3.724    0.966    5.517 
#    0.000    2.759    0.000    0.000    0.000    0.966 
#    0.000    1.103    0.000    0.000    0.000    0.000 
#
# Total GULP energy -323013.073615 kJ/mol
# GULP energy per Si atom -5569.190924 kJ/mol
# Density = 1.677373 g / cm^3
# Si number density = 16.811993 Si / 1000 Ang^3
#
#
#
# Elastic Constant Matrix: (Units=GPa)
#
#
# Indices 1 2 3 4 5 6 
#
# 1 55.6008 33.0946 11.1518 0.0000 0.0000 0.0000
# 2 33.0946 83.9240 31.7726 0.0000 0.0000 0.0000
# 3 11.1518 31.7726 42.9253 0.0000 0.0000 0.0000
# 4 0.0000 0.0000 0.0000 29.1747 0.0000 0.0000
# 5 0.0000 0.0000 0.0000 0.0000 24.4426 0.0000
# 6 0.0000 0.0000 0.0000 0.0000 0.0000 18.9628
#
#
#
# Elastic Compliance Matrix: (Units=1/GPa)
#
#
# Indices 1 2 3 4 5 6 
#
# 1 0.023536 -0.009678 0.001049 0.000000 0.000000 0.000000
# 2 -0.009678 0.020534 -0.012685 0.000000 0.000000 0.000000
# 3 0.001049 -0.012685 0.032413 0.000000 0.000000 0.000000
# 4 0.000000 0.000000 0.000000 0.034276 0.000000 0.000000
# 5 0.000000 0.000000 0.000000 0.000000 0.040912 0.000000
# 6 0.000000 0.000000 0.000000 0.000000 0.000000 0.052735
#
#
# Mechanical properties :
#
#
# Convention : Reuss Voigt Hill
#
# Bulk Modulus (GPa) = 29.53764 37.16534 33.35149
# Shear Modulus (GPa) = 19.35591 21.61142 20.48366
#
# Velocity S-wave (km/s) = 3.39679 3.58924 3.49434
# Velocity P-wave (km/s) = 5.74384 6.27147 6.01345
#
# Compressibility (1/GPa) = 0.03385511
#
# Stress axis : x y z
#
# Youngs Moduli (GPa) = 42.48885 48.69863 30.85190
#
# Poissons Ratio (x) = 0.47132 -0.03237
# Poissons Ratio (y) = 0.41122 0.39135
# Poissons Ratio (z) = -0.04458 0.61774
#
# Static dielectric constant tensor:
#      x y z
#    x 1.540210 0.000000 0.000000 
#    y 0.000000 1.577940 0.000000 
#    z 0.000000 0.000000 1.572080 
# 
# From -- ./inp_files/13433.got.cif
#   From: 2010.05.17/outbox.cif.g08.bks.cpg/sg71_7_cif.got.tgz:13433.got - 2010.06.03 16:22:01.
