data_PCOD9523474
_publ_section_title
;
Structure prediction by ZEFSAII (Michael W. Deem and Ramdas Pophale) SiO2 
 PCOD9523474
Probable space group: I M M M
;
_chemical_formula_sum "Si O2"
_cell_formula_units_Z 72
_cell_length_a 30.513436
_cell_length_b 7.968621
_cell_length_c 15.334425
_cell_angle_alpha 90.000000
_cell_angle_beta 90.000000
_cell_angle_gamma 90.000000
_cell_volume 3728.565544
_symmetry_space_group_name_H-M "I M M M"
_symmetry_group_IT_number 71
_symmetry_cell_setting 'orthorhombic'
loop_
_space_group_symop_operation_xyz
x,y,z
-x,-y,z
x,-y,-z
-x,y,-z
-x,-y,-z
x,y,-z
-x,y,z
x,-y,z
1/2+x,1/2+y,1/2+z
1/2-x,1/2-y,1/2+z
1/2+x,1/2-y,1/2-z
1/2-x,1/2+y,1/2-z
1/2-x,1/2-y,1/2-z
1/2+x,1/2+y,1/2-z
1/2-x,1/2+y,1/2+z
1/2+x,1/2-y,1/2+z
loop_
_atom_site_type_symbol
_atom_site_label
_atom_site_fract_x
_atom_site_fract_y
_atom_site_fract_z
Si Si1 0.948627 0.312902 0.715588
Si Si2 0.446801 0.500000 0.097290
Si Si3 0.627930 0.698515 0.322016
Si Si4 0.226093 0.295160 0.500000
Si Si5 0.294015 0.798109 0.196012
Si Si6 0.172752 0.204840 0.000000
O O1 0.943734 0.500000 0.678396
O O2 0.934831 0.167552 0.648920
O O3 0.916564 0.291172 0.796704
O O4 0.000000 0.289116 0.737034
O O5 0.500000 0.500000 0.092976
O O6 0.429135 0.500000 0.000000
O O7 0.618981 0.500000 0.328684
O O8 0.664370 0.727437 0.247634
O O9 0.648535 0.758736 0.412562
O O10 0.224534 0.500000 0.500000
O O11 0.207306 0.241790 0.405619
O O12 0.276906 0.241994 0.500000
O O13 0.250000 0.750000 0.250000
O O14 0.296563 0.000000 0.196119
O O15 0.173419 0.000000 0.000000
#
# Coordination Sequence:
#
# PCOD9523474 Si02
#       6
#    16   8  16   8  16   8
#     4  10  21  39  62  88 122 161 201 250 307 362
#     4   9  18  36  62  89 117 153 199 248 298 357
#     4  11  21  38  61  86 117 155 200 251 304 363
#     4   9  18  36  56  77 112 153 193 238 295 357
#     4  11  21  36  57  81 112 151 194 242 299 360
#     4   9  18  34  59  85 112 153 200 244 301 362
#
# _framework density 19.310375000000001
#
# number of rings (size 3 to 8) (size 9 to 14) (size 15 to 20)
#    0.000    1.889    3.333    1.333    0.000    0.444 
#    2.000    8.333    0.000    3.333    0.000    0.000 
#    0.000    0.000    0.000    0.000    0.000    0.000 
#
# Total GULP energy -200937.751580 kJ/mol
# GULP energy per Si atom -5581.604211 kJ/mol
# Density = 1.926642 g / cm^3
# Si number density = 19.310375 Si / 1000 Ang^3
#
#
#
# Elastic Constant Matrix: (Units=GPa)
#
#
# Indices 1 2 3 4 5 6 
#
# 1 72.0288 25.0617 50.1775 0.0000 0.0000 0.0000
# 2 25.0617 73.7881 26.8020 0.0000 0.0000 0.0000
# 3 50.1775 26.8020 161.8103 0.0000 0.0000 0.0000
# 4 0.0000 0.0000 0.0000 3.3810 0.0000 0.0000
# 5 0.0000 0.0000 0.0000 0.0000 15.6764 0.0000
# 6 0.0000 0.0000 0.0000 0.0000 0.0000 27.3287
#
#
#
# Elastic Compliance Matrix: (Units=1/GPa)
#
#
# Indices 1 2 3 4 5 6 
#
# 1 0.019076 -0.004607 -0.005152 0.000000 0.000000 0.000000
# 2 -0.004607 0.015533 -0.001144 0.000000 0.000000 0.000000
# 3 -0.005152 -0.001144 0.007967 0.000000 0.000000 0.000000
# 4 0.000000 0.000000 0.000000 0.295772 0.000000 0.000000
# 5 0.000000 0.000000 0.000000 0.000000 0.063790 0.000000
# 6 0.000000 0.000000 0.000000 0.000000 0.000000 0.036592
#
#
# Mechanical properties :
#
#
# Convention : Reuss Voigt Hill
#
# Bulk Modulus (GPa) = 48.15045 56.85664 52.50354
# Shear Modulus (GPa) = 10.69612 22.98296 16.83954
#
# Velocity S-wave (km/s) = 2.35607 3.45365 2.95625
# Velocity P-wave (km/s) = 5.69127 6.73878 6.23705
#
# Compressibility (1/GPa) = 0.02076824
#
# Stress axis : x y z
#
# Youngs Moduli (GPa) = 52.42286 64.38001 125.51344
#
# Poissons Ratio (x) = 0.29663 0.64667
# Poissons Ratio (y) = 0.24154 0.14359
# Poissons Ratio (z) = 0.27009 0.07365
#
# Static dielectric constant tensor:
#      x y z
#    x 1.651400 0.000000 0.000000 
#    y 0.000000 1.711140 0.000000 
#    z 0.000000 0.000000 1.685090 
# 
# From -- ./inp_files/31481.got.cif
#   From: 2010.05.17/outbox.cif.g08.bks.cpg/sg71_16_cif.got.tgz:31481.got - 2010.06.03 16:22:01.
