data_PCOD9523768
_publ_section_title
;
Structure prediction by ZEFSAII (Michael W. Deem and Ramdas Pophale) SiO2 
 PCOD9523768
Probable space group: I M M M
;
_chemical_formula_sum "Si O2"
_cell_formula_units_Z 90
_cell_length_a 11.716823
_cell_length_b 20.817091
_cell_length_c 19.935375
_cell_angle_alpha 90.000000
_cell_angle_beta 90.000000
_cell_angle_gamma 90.000000
_cell_volume 4862.440718
_symmetry_space_group_name_H-M "I M M M"
_symmetry_group_IT_number 71
_symmetry_cell_setting 'orthorhombic'
loop_
_space_group_symop_operation_xyz
x,y,z
-x,-y,z
x,-y,-z
-x,y,-z
-x,-y,-z
x,y,-z
-x,y,z
x,-y,z
1/2+x,1/2+y,1/2+z
1/2-x,1/2-y,1/2+z
1/2+x,1/2-y,1/2-z
1/2-x,1/2+y,1/2-z
1/2-x,1/2-y,1/2-z
1/2+x,1/2+y,1/2-z
1/2-x,1/2+y,1/2+z
1/2+x,1/2-y,1/2+z
loop_
_atom_site_type_symbol
_atom_site_label
_atom_site_fract_x
_atom_site_fract_y
_atom_site_fract_z
Si Si1 0.638738 0.500000 0.423648
Si Si2 0.000000 0.500000 0.500000
Si Si3 0.864010 0.856379 0.422523
Si Si4 0.749128 0.076661 0.700787
Si Si5 0.279428 0.210646 0.075768
Si Si6 0.500000 0.076858 0.748267
Si Si7 0.136465 0.876165 0.164462
Si Si8 0.000000 0.622600 0.400559
O O1 0.500000 0.500000 0.426979
O O2 0.684136 0.500000 0.500000
O O3 0.672670 0.563402 0.382871
O O4 0.000000 0.556814 0.441778
O O5 0.843264 0.875155 0.500000
O O6 0.800383 0.900453 0.369214
O O7 0.820454 0.783360 0.414235
O O8 0.000000 0.858099 0.411014
O O9 0.615695 0.093032 0.709084
O O10 0.815027 0.110518 0.762038
O O11 0.762851 0.000000 0.708479
O O12 0.189257 0.186435 0.130176
O O13 0.389081 0.164538 0.081797
O O14 0.232565 0.204244 0.000000
O O15 0.500000 0.108871 0.821198
O O16 0.500000 0.000000 0.758664
O O17 0.000000 0.874176 0.165999
#
# Coordination Sequence:
#
# PCOD9523768 Si02
#       8
#     8   2  16  16  16   8  16   8
#     4   9  18  33  51  77 120 167 204 239 290 350
#     4  12  24  28  68 104 126 164 228 248 296 370
#     4  10  23  44  69  93 119 157 205 259 324 374
#     4  11  23  42  67  92 124 158 202 261 316 378
#     4  11  22  39  61  86 128 171 209 258 306 364
#     4  10  22  40  61  90 130 161 198 253 317 362
#     4  11  22  36  57  89 126 167 207 249 304 363
#     4  12  20  38  58  93 127 167 214 258 295 356
#
# _framework density 18.509224
#
# number of rings (size 3 to 8) (size 9 to 14) (size 15 to 20)
#    0.000    1.333    4.889    1.067    0.000    3.911 
#    3.200    1.333    0.000    1.600    0.000    0.000 
#    0.000    0.000    0.000    0.000    0.000    0.000 
#
# Total GULP energy -251269.276000 kJ/mol
# GULP energy per Si atom -5583.761689 kJ/mol
# Density = 1.846710 g / cm^3
# Si number density = 18.509224 Si / 1000 Ang^3
#
#
#
# Elastic Constant Matrix: (Units=GPa)
#
#
# Indices 1 2 3 4 5 6 
#
# 1 102.0916 30.2517 69.8555 0.0000 0.0000 0.0000
# 2 30.2517 25.2993 38.0345 0.0000 0.0000 0.0000
# 3 69.8555 38.0345 136.2648 0.0000 0.0000 0.0000
# 4 0.0000 0.0000 0.0000 13.9593 0.0000 0.0000
# 5 0.0000 0.0000 0.0000 0.0000 26.7843 0.0000
# 6 0.0000 0.0000 0.0000 0.0000 0.0000 18.7763
#
#
#
# Elastic Compliance Matrix: (Units=1/GPa)
#
#
# Indices 1 2 3 4 5 6 
#
# 1 0.017122 -0.012540 -0.005277 0.000000 0.000000 0.000000
# 2 -0.012540 0.077290 -0.015145 0.000000 0.000000 0.000000
# 3 -0.005277 -0.015145 0.014271 0.000000 0.000000 0.000000
# 4 0.000000 0.000000 0.000000 0.071637 0.000000 0.000000
# 5 0.000000 0.000000 0.000000 0.000000 0.037335 0.000000
# 6 0.000000 0.000000 0.000000 0.000000 0.000000 0.053258
#
#
# Mechanical properties :
#
#
# Convention : Reuss Voigt Hill
#
# Bulk Modulus (GPa) = 23.38682 59.99322 41.69002
# Shear Modulus (GPa) = 14.24136 20.27160 17.25648
#
# Velocity S-wave (km/s) = 2.77685 3.31299 3.05670
# Velocity P-wave (km/s) = 4.78997 6.86422 5.91867
#
# Compressibility (1/GPa) = 0.04275912
#
# Stress axis : x y z
#
# Youngs Moduli (GPa) = 58.40488 12.93835 70.07069
#
# Poissons Ratio (x) = 0.16224 0.36979
# Poissons Ratio (y) = 0.73238 1.06121
# Poissons Ratio (z) = 0.30822 0.19595
#
# Static dielectric constant tensor:
#      x y z
#    x 1.674020 0.000000 0.000000 
#    y 0.000000 1.614640 0.000000 
#    z 0.000000 0.000000 1.620420 
# 
# From -- ./inp_files/43405.got.cif
#   From: 2010.05.17/outbox.cif.g08.bks.cpg/sg71_22_cif.got.tgz:43405.got - 2010.06.03 16:22:01.
