data_PCOD9523799
_publ_section_title
;
Structure prediction by ZEFSAII (Michael W. Deem and Ramdas Pophale) SiO2 
 PCOD9523799
Probable space group: I M M M
;
_chemical_formula_sum "Si O2"
_cell_formula_units_Z 82
_cell_length_a 12.042480
_cell_length_b 21.436247
_cell_length_c 18.273804
_cell_angle_alpha 90.000000
_cell_angle_beta 90.000000
_cell_angle_gamma 90.000000
_cell_volume 4717.301655
_symmetry_space_group_name_H-M "I M M M"
_symmetry_group_IT_number 71
_symmetry_cell_setting 'orthorhombic'
loop_
_space_group_symop_operation_xyz
x,y,z
-x,-y,z
x,-y,-z
-x,y,-z
-x,-y,-z
x,y,-z
-x,y,z
x,-y,z
1/2+x,1/2+y,1/2+z
1/2-x,1/2-y,1/2+z
1/2+x,1/2-y,1/2-z
1/2-x,1/2+y,1/2-z
1/2-x,1/2-y,1/2-z
1/2+x,1/2+y,1/2-z
1/2-x,1/2+y,1/2+z
1/2+x,1/2-y,1/2+z
loop_
_atom_site_type_symbol
_atom_site_label
_atom_site_fract_x
_atom_site_fract_y
_atom_site_fract_z
Si Si1 0.626932 0.176394 0.254188
Si Si2 0.253893 0.572122 0.847252
Si Si3 0.000000 0.071086 0.689806
Si Si4 0.000000 0.000000 0.000000
Si Si5 0.130592 0.411081 0.000000
Si Si6 0.870763 0.262461 0.000000
Si Si7 0.000000 0.900157 0.138344
Si Si8 0.315089 0.295028 0.648056
O O1 0.500000 0.162084 0.239892
O O2 0.681070 0.120788 0.301173
O O3 0.634897 0.242060 0.298024
O O4 0.699277 0.184693 0.181940
O O5 0.251784 0.500000 0.819361
O O6 0.381857 0.596214 0.839998
O O7 0.199722 0.570603 0.927886
O O8 0.000000 0.071934 0.778651
O O9 0.000000 0.000000 0.663626
O O10 0.000000 0.054430 0.932555
O O11 0.125709 0.336445 0.000000
O O12 0.000000 0.431630 0.000000
O O13 0.809279 0.238133 0.070783
O O14 0.000000 0.240332 0.000000
O O15 0.106154 0.854512 0.138443
#
# Coordination Sequence:
#
# PCOD9523799 Si02
#       8
#    16  16   8   2   8   8   8  16
#     4  11  22  38  60  91 122 163 207 250 308 386
#     4  11  23  39  62  88 119 166 202 257 307 366
#     4  10  22  41  62  86 126 153 204 260 312 364
#     4  12  28  36  72 100 130 158 222 264 332 386
#     4  11  23  38  57  85 125 155 203 251 292 362
#     4  11  19  35  58  85 113 150 193 250 304 352
#     4  12  20  40  61  96 123 159 197 270 315 369
#     4  11  22  37  62  89 122 156 203 256 316 368
#
# _framework density 17.382819000000001
#
# number of rings (size 3 to 8) (size 9 to 14) (size 15 to 20)
#    0.000    0.976    6.341    1.463    0.000    2.341 
#    0.000    1.951    2.146    0.000    0.000    0.683 
#    0.000    0.000    0.000    0.000    0.000    0.000 
#
# Total GULP energy -228365.266443 kJ/mol
# GULP energy per Si atom -5569.884547 kJ/mol
# Density = 1.734326 g / cm^3
# Si number density = 17.382819 Si / 1000 Ang^3
#
#
#
# Elastic Constant Matrix: (Units=GPa)
#
#
# Indices 1 2 3 4 5 6 
#
# 1 168.8445 57.9734 72.4643 0.0000 0.0000 0.0000
# 2 57.9734 98.6072 35.1002 0.0000 0.0000 0.0000
# 3 72.4643 35.1002 114.1272 0.0000 0.0000 0.0000
# 4 0.0000 0.0000 0.0000 26.5095 0.0000 0.0000
# 5 0.0000 0.0000 0.0000 0.0000 16.6223 0.0000
# 6 0.0000 0.0000 0.0000 0.0000 0.0000 27.4523
#
#
#
# Elastic Compliance Matrix: (Units=1/GPa)
#
#
# Indices 1 2 3 4 5 6 
#
# 1 0.009231 -0.003751 -0.004707 0.000000 0.000000 0.000000
# 2 -0.003751 0.012913 -0.001589 0.000000 0.000000 0.000000
# 3 -0.004707 -0.001589 0.012240 0.000000 0.000000 0.000000
# 4 0.000000 0.000000 0.000000 0.037722 0.000000 0.000000
# 5 0.000000 0.000000 0.000000 0.000000 0.060160 0.000000
# 6 0.000000 0.000000 0.000000 0.000000 0.000000 0.036427
#
#
# Mechanical properties :
#
#
# Convention : Reuss Voigt Hill
#
# Bulk Modulus (GPa) = 69.99335 79.18384 74.58860
# Shear Modulus (GPa) = 25.83292 28.51955 27.17624
#
# Velocity S-wave (km/s) = 3.85920 4.05492 3.95827
# Velocity P-wave (km/s) = 7.75958 8.22040 7.99331
#
# Compressibility (1/GPa) = 0.01428707
#
# Stress axis : x y z
#
# Youngs Moduli (GPa) = 108.33062 77.44396 81.70013
#
# Poissons Ratio (x) = 0.29053 0.38459
# Poissons Ratio (y) = 0.40640 0.12985
# Poissons Ratio (z) = 0.50995 0.12308
#
# Static dielectric constant tensor:
#      x y z
#    x 1.599860 0.000000 0.000000 
#    y 0.000000 1.618380 0.000000 
#    z 0.000000 0.000000 1.604600 
# 
# From -- ./inp_files/43327.got.cif
#   From: 2010.05.17/outbox.cif.g08.bks.cpg/sg71_22_cif.got.tgz:43327.got - 2010.06.03 16:22:01.
