data_PCOD9523275
_publ_section_title
;
Structure prediction by ZEFSAII (Michael W. Deem and Ramdas Pophale) SiO2 
 PCOD9523275
Probable space group: I M M M
;
_chemical_formula_sum "Si O2"
_cell_formula_units_Z 80
_cell_length_a 23.961824
_cell_length_b 18.590650
_cell_length_c 10.132807
_cell_angle_alpha 90.000000
_cell_angle_beta 90.000000
_cell_angle_gamma 90.000000
_cell_volume 4513.819821
_symmetry_space_group_name_H-M "I M M M"
_symmetry_group_IT_number 71
_symmetry_cell_setting 'orthorhombic'
loop_
_space_group_symop_operation_xyz
x,y,z
-x,-y,z
x,-y,-z
-x,y,-z
-x,-y,-z
x,y,-z
-x,y,z
x,-y,z
1/2+x,1/2+y,1/2+z
1/2-x,1/2-y,1/2+z
1/2+x,1/2-y,1/2-z
1/2-x,1/2+y,1/2-z
1/2-x,1/2-y,1/2-z
1/2+x,1/2+y,1/2-z
1/2-x,1/2+y,1/2+z
1/2+x,1/2-y,1/2+z
loop_
_atom_site_type_symbol
_atom_site_label
_atom_site_fract_x
_atom_site_fract_y
_atom_site_fract_z
Si Si1 0.372454 0.347998 0.249565
Si Si2 0.066957 0.416537 0.353462
Si Si3 0.629338 0.816793 0.345806
Si Si4 0.066846 0.914814 0.500000
Si Si5 0.244396 0.180718 0.655444
Si Si6 0.065381 0.086078 0.000000
O O1 0.373576 0.262652 0.280988
O O2 0.307495 0.363854 0.213874
O O3 0.400084 0.386513 0.374346
O O4 0.408430 0.374063 0.125980
O O5 0.085739 0.392084 0.500000
O O6 0.083143 0.500000 0.338284
O O7 0.090724 0.368457 0.238095
O O8 0.000000 0.413647 0.352025
O O9 0.614088 0.810308 0.500000
O O10 0.692508 0.848171 0.340700
O O11 0.000000 0.911300 0.500000
O O12 0.082354 0.000000 0.500000
O O13 0.232502 0.197824 0.500000
O O14 0.250000 0.250000 0.750000
O O15 0.000000 0.110930 0.000000
O O16 0.063918 0.000000 0.000000
#
# Coordination Sequence:
#
# PCOD9523275 Si02
#       6
#    16  16  16   8  16   8
#     4  11  21  40  61  87 117 153 200 247 291 353
#     4   9  20  39  59  81 115 154 187 227 284 343
#     4  10  21  37  59  90 117 149 191 238 286 346
#     4  11  24  40  59  84 117 159 203 250 305 354
#     4   9  19  35  59  86 117 150 187 235 295 347
#     4  11  24  42  61  82 119 167 205 248 307 358
#
# _framework density 17.723348000000001
#
# number of rings (size 3 to 8) (size 9 to 14) (size 15 to 20)
#    0.000    2.000    2.000    1.800    2.800    4.800 
#    0.000    3.000    0.000    0.000    0.000    0.000 
#    0.000    0.000    0.000    0.000    0.000    0.000 
#
# Total GULP energy -222858.576604 kJ/mol
# GULP energy per Si atom -5571.464415 kJ/mol
# Density = 1.768301 g / cm^3
# Si number density = 17.723348 Si / 1000 Ang^3
#
#
#
# Elastic Constant Matrix: (Units=GPa)
#
#
# Indices 1 2 3 4 5 6 
#
# 1 89.4034 50.0555 64.2627 0.0000 0.0000 0.0000
# 2 50.0555 63.9402 55.5957 0.0000 0.0000 0.0000
# 3 64.2627 55.5957 159.3439 0.0000 0.0000 0.0000
# 4 0.0000 0.0000 0.0000 41.6635 0.0000 0.0000
# 5 0.0000 0.0000 0.0000 0.0000 52.2900 0.0000
# 6 0.0000 0.0000 0.0000 0.0000 0.0000 158.2683
#
#
#
# Elastic Compliance Matrix: (Units=1/GPa)
#
#
# Indices 1 2 3 4 5 6 
#
# 1 0.021578 -0.013387 -0.004032 0.000000 0.000000 0.000000
# 2 -0.013387 0.030756 -0.005332 0.000000 0.000000 0.000000
# 3 -0.004032 -0.005332 0.009762 0.000000 0.000000 0.000000
# 4 0.000000 0.000000 0.000000 0.024002 0.000000 0.000000
# 5 0.000000 0.000000 0.000000 0.000000 0.019124 0.000000
# 6 0.000000 0.000000 0.000000 0.000000 0.000000 0.006318
#
#
# Mechanical properties :
#
#
# Convention : Reuss Voigt Hill
#
# Bulk Modulus (GPa) = 60.25953 72.50170 66.38061
# Shear Modulus (GPa) = 30.75539 59.96259 45.35899
#
# Velocity S-wave (km/s) = 4.17022 5.82288 5.06442
# Velocity P-wave (km/s) = 7.56713 9.28462 8.46953
#
# Compressibility (1/GPa) = 0.01659489
#
# Stress axis : x y z
#
# Youngs Moduli (GPa) = 46.34265 32.51435 102.43824
#
# Poissons Ratio (x) = 0.43527 0.41300
# Poissons Ratio (y) = 0.62039 0.54618
# Poissons Ratio (z) = 0.18684 0.17336
#
# Static dielectric constant tensor:
#      x y z
#    x 1.626550 0.000000 0.000000 
#    y 0.000000 1.576800 0.000000 
#    z 0.000000 0.000000 1.671650 
# 
# From -- ./inp_files/12421.got.cif
#   From: 2010.05.17/outbox.cif.g08.bks.cpg/sg71_7_cif.got.tgz:12421.got - 2010.06.03 16:22:01.
