data_PCOD9523567
_publ_section_title
;
Structure prediction by ZEFSAII (Michael W. Deem and Ramdas Pophale) SiO2 
 PCOD9523567
Probable space group: I M M M
;
_chemical_formula_sum "Si O2"
_cell_formula_units_Z 66
_cell_length_a 20.621960
_cell_length_b 18.077896
_cell_length_c 8.866675
_cell_angle_alpha 90.000000
_cell_angle_beta 90.000000
_cell_angle_gamma 90.000000
_cell_volume 3305.511054
_symmetry_space_group_name_H-M "I M M M"
_symmetry_group_IT_number 71
_symmetry_cell_setting 'orthorhombic'
loop_
_space_group_symop_operation_xyz
x,y,z
-x,-y,z
x,-y,-z
-x,y,-z
-x,-y,-z
x,y,-z
-x,y,z
x,-y,z
1/2+x,1/2+y,1/2+z
1/2-x,1/2-y,1/2+z
1/2+x,1/2-y,1/2-z
1/2-x,1/2+y,1/2-z
1/2-x,1/2-y,1/2-z
1/2+x,1/2+y,1/2-z
1/2-x,1/2+y,1/2+z
1/2+x,1/2-y,1/2+z
loop_
_atom_site_type_symbol
_atom_site_label
_atom_site_fract_x
_atom_site_fract_y
_atom_site_fract_z
Si Si1 0.233737 0.584373 0.177487
Si Si2 0.000000 0.000000 0.500000
Si Si3 0.000000 0.876804 0.761078
Si Si4 0.500000 0.207010 0.682622
Si Si5 0.855326 0.856583 0.171137
Si Si6 0.132578 0.695201 0.319776
O O1 0.211796 0.500000 0.198613
O O2 0.307286 0.591991 0.235347
O O3 0.189922 0.641070 0.270277
O O4 0.230699 0.602391 0.000000
O O5 0.000000 0.934566 0.372122
O O6 0.929170 0.885566 0.834927
O O7 0.000000 0.787615 0.735507
O O8 0.500000 0.217775 0.500000
O O9 0.565806 0.169652 0.739117
O O10 0.854265 0.776870 0.252744
O O11 0.831824 0.848209 0.000000
O O12 0.125765 0.698247 0.500000
#
# Coordination Sequence:
#
# PCOD9523567 Si02
#       6
#    16   2   8   8  16  16
#     4  11  25  42  62  87 124 164 203 250 310 369
#     4  12  28  36  58  88 136 164 204 250 308 368
#     4  10  24  38  60  86 123 163 204 247 299 357
#     4  10  21  41  68  93 122 156 205 258 299 358
#     4  11  23  41  64  89 122 162 210 258 301 358
#     4  11  22  39  66  95 122 157 203 254 305 362
#
# _framework density 19.966653999999998
#
# number of rings (size 3 to 8) (size 9 to 14) (size 15 to 20)
#    0.000    1.212    0.000    7.273   10.182    1.939 
#    0.000    2.727    0.000    3.636    0.000    0.000 
#    0.000    0.000    0.000    0.000    0.000    0.000 
#
# Total GULP energy -183966.255279 kJ/mol
# GULP energy per Si atom -5574.735008 kJ/mol
# Density = 1.992121 g / cm^3
# Si number density = 19.966654 Si / 1000 Ang^3
#
#
#
# Elastic Constant Matrix: (Units=GPa)
#
#
# Indices 1 2 3 4 5 6 
#
# 1 79.2553 26.0681 22.6693 0.0000 0.0000 0.0000
# 2 26.0681 55.0839 59.5118 0.0000 0.0000 0.0000
# 3 22.6693 59.5118 145.3616 0.0000 0.0000 0.0000
# 4 0.0000 0.0000 0.0000 27.6684 0.0000 0.0000
# 5 0.0000 0.0000 0.0000 0.0000 598.7239 0.0000
# 6 0.0000 0.0000 0.0000 0.0000 0.0000 -8.7189
#
#
#
# Elastic Compliance Matrix: (Units=1/GPa)
#
#
# Indices 1 2 3 4 5 6 
#
# 1 0.015027 -0.008212 0.001018 0.000000 0.000000 0.000000
# 2 -0.008212 0.037040 -0.013884 0.000000 0.000000 0.000000
# 3 0.001018 -0.013884 0.012405 0.000000 0.000000 0.000000
# 4 0.000000 0.000000 0.000000 0.036142 0.000000 0.000000
# 5 0.000000 0.000000 0.000000 0.000000 0.001670 0.000000
# 6 0.000000 0.000000 0.000000 0.000000 0.000000 -0.114693
#
#
# Mechanical properties :
#
#
# Convention : Reuss Voigt Hill
#
# Bulk Modulus (GPa) = 44.80760 55.13326 49.97043
# Shear Modulus (GPa) = 134.46259 134.96479 134.71369
#
# Velocity S-wave (km/s) = 8.21522 8.23054 8.22288
# Velocity P-wave (km/s) = 10.60548 10.86255 10.73479
#
# Compressibility (1/GPa) = 0.02231764
#
# Stress axis : x y z
#
# Youngs Moduli (GPa) = 66.54639 26.99774 80.61485
#
# Poissons Ratio (x) = 0.22170 -0.08210
# Poissons Ratio (y) = 0.54647 1.11924
# Poissons Ratio (z) = -0.06777 0.37483
#
# Static dielectric constant tensor:
#      x y z
#    x 1.753760 0.000000 0.000000 
#    y 0.000000 1.669470 0.000000 
#    z 0.000000 0.000000 1.675610 
# 
# From -- ./inp_files/9650.got.cif
#   From: 2010.05.17/outbox.cif.g08.bks.cpg/sg71_5_cif.got.tgz:9650.got - 2010.06.03 16:22:01.
