data_PCOD9523503
_publ_section_title
;
Structure prediction by ZEFSAII (Michael W. Deem and Ramdas Pophale) SiO2 
 PCOD9523503
Probable space group: I M M M
;
_chemical_formula_sum "Si O2"
_cell_formula_units_Z 56
_cell_length_a 7.649716
_cell_length_b 23.658728
_cell_length_c 15.667357
_cell_angle_alpha 90.000000
_cell_angle_beta 90.000000
_cell_angle_gamma 90.000000
_cell_volume 2835.518224
_symmetry_space_group_name_H-M "I M M M"
_symmetry_group_IT_number 71
_symmetry_cell_setting 'orthorhombic'
loop_
_space_group_symop_operation_xyz
x,y,z
-x,-y,z
x,-y,-z
-x,y,-z
-x,-y,-z
x,y,-z
-x,y,z
x,-y,z
1/2+x,1/2+y,1/2+z
1/2-x,1/2-y,1/2+z
1/2+x,1/2-y,1/2-z
1/2-x,1/2+y,1/2-z
1/2-x,1/2-y,1/2-z
1/2+x,1/2+y,1/2-z
1/2-x,1/2+y,1/2+z
1/2+x,1/2-y,1/2+z
loop_
_atom_site_type_symbol
_atom_site_label
_atom_site_fract_x
_atom_site_fract_y
_atom_site_fract_z
Si Si1 0.500000 0.000000 0.357704
Si Si2 0.794757 0.896234 0.095922
Si Si3 0.286290 0.500000 0.713925
Si Si4 0.500000 0.095144 0.500000
Si Si5 0.712097 0.690353 0.000000
Si Si6 0.207105 0.728088 0.344189
O O1 0.673695 0.000000 0.299657
O O2 0.500000 0.054870 0.417788
O O3 0.778104 0.833988 0.135280
O O4 0.000000 0.908285 0.087444
O O5 0.731617 0.944966 0.159062
O O6 0.718235 0.897306 0.000000
O O7 0.500000 0.500000 0.727126
O O8 0.327799 0.134329 0.500000
O O9 0.761388 0.727425 0.083115
O O10 0.500000 0.681017 0.000000
O O11 0.250000 0.750000 0.250000
O O12 0.000000 0.723198 0.351531
#
# Coordination Sequence:
#
# PCOD9523503 Si02
#       6
#     4  16   8   4   8  16
#     4  11  28  50  67 106 118 178 231 282 332 397
#     4  10  21  39  63  92 131 175 214 260 329 398
#     4  10  24  43  67  97 135 171 223 277 326 392
#     4  11  28  48  76  86 138 173 224 282 344 379
#     4  10  25  45  67 101 135 173 221 273 336 405
#     4  11  24  39  61  95 132 170 219 273 333 396
#
# _framework density 19.749476999999999
#
# number of rings (size 3 to 8) (size 9 to 14) (size 15 to 20)
#    0.000    1.571    1.429    1.286   10.000    2.857 
#    0.000    2.143    0.000    0.000    0.000    0.000 
#    0.000    0.000    0.000    0.000    0.000    0.000 
#
# Total GULP energy -156417.372419 kJ/mol
# GULP energy per Si atom -5586.334729 kJ/mol
# Density = 1.970453 g / cm^3
# Si number density = 19.749477 Si / 1000 Ang^3
#
#
#
# Elastic Constant Matrix: (Units=GPa)
#
#
# Indices 1 2 3 4 5 6 
#
# 1 65.8755 43.9860 41.3915 0.0000 0.0000 0.0001
# 2 43.9860 175.1006 102.3304 0.0000 0.0000 0.0000
# 3 41.3915 102.3304 193.6873 0.0001 0.0001 0.0016
# 4 0.0000 0.0000 0.0001 31.7946 0.0000 0.0002
# 5 0.0000 0.0000 0.0001 0.0000 26.1599 0.0000
# 6 0.0001 0.0000 0.0016 0.0002 0.0000 -178.7706
#
#
#
# Elastic Compliance Matrix: (Units=1/GPa)
#
#
# Indices 1 2 3 4 5 6 
#
# 1 0.018872 -0.003449 -0.002211 0.000000 0.000000 0.000000
# 2 -0.003449 0.008892 -0.003961 0.000000 0.000000 0.000000
# 3 -0.002211 -0.003961 0.007728 0.000000 0.000000 0.000000
# 4 0.000000 0.000000 0.000000 0.031452 0.000000 0.000000
# 5 0.000000 0.000000 0.000000 0.000000 0.038226 0.000000
# 6 0.000000 0.000000 0.000000 0.000000 0.000000 -0.005594
#
#
# Mechanical properties :
#
#
# Convention : Reuss Voigt Hill
#
# Bulk Modulus (GPa) = 61.53406 90.00880 75.77143
# Shear Modulus (GPa) = 40.24620 -7.69953 16.27334
#
# Velocity S-wave (km/s) = 4.51914 -1.97663 2.87363
# Velocity P-wave (km/s) = 7.64559 6.36120 7.03278
#
# Compressibility (1/GPa) = 0.01625116
#
# Stress axis : x y z
#
# Youngs Moduli (GPa) = 52.98832 112.45881 129.39688
#
# Poissons Ratio (x) = 0.38783 0.28610
# Poissons Ratio (y) = 0.18274 0.51254
# Poissons Ratio (z) = 0.11716 0.44545
#
# Static dielectric constant tensor:
#      x y z
#    x 1.715610 0.000000 0.000000 
#    y 0.000000 1.636130 0.000000 
#    z 0.000000 0.000000 1.702610 
# 
# From -- ./inp_files/31014.got.cif
#   From: 2010.05.17/outbox.cif.g08.bks.cpg/sg71_16_cif.got.tgz:31014.got - 2010.06.03 16:22:01.
