data_PCOD9523881
_publ_section_title
;
Structure prediction by ZEFSAII (Michael W. Deem and Ramdas Pophale) SiO2 
 PCOD9523881
Probable space group: I M M M
;
_chemical_formula_sum "Si O2"
_cell_formula_units_Z 90
_cell_length_a 21.473822
_cell_length_b 7.741502
_cell_length_c 29.990524
_cell_angle_alpha 90.000000
_cell_angle_beta 90.000000
_cell_angle_gamma 90.000000
_cell_volume 4985.613792
_symmetry_space_group_name_H-M "I M M M"
_symmetry_group_IT_number 71
_symmetry_cell_setting 'orthorhombic'
loop_
_space_group_symop_operation_xyz
x,y,z
-x,-y,z
x,-y,-z
-x,y,-z
-x,-y,-z
x,y,-z
-x,y,z
x,-y,z
1/2+x,1/2+y,1/2+z
1/2-x,1/2-y,1/2+z
1/2+x,1/2-y,1/2-z
1/2-x,1/2+y,1/2-z
1/2-x,1/2-y,1/2-z
1/2+x,1/2+y,1/2-z
1/2-x,1/2+y,1/2+z
1/2+x,1/2-y,1/2+z
loop_
_atom_site_type_symbol
_atom_site_label
_atom_site_fract_x
_atom_site_fract_y
_atom_site_fract_z
Si Si1 0.122521 0.192011 0.629787
Si Si2 0.076782 0.500000 0.309816
Si Si3 0.641927 0.289948 0.548859
Si Si4 0.000000 0.500000 0.500000
Si Si5 0.212709 0.291262 0.450203
Si Si6 0.424988 0.701278 0.639031
Si Si7 0.075255 0.500000 0.794803
Si Si8 0.500000 0.688183 0.069699
O O1 0.109348 0.335665 0.666846
O O2 0.175727 0.227876 0.592883
O O3 0.060139 0.195440 0.600574
O O4 0.131424 0.000000 0.648799
O O5 0.090373 0.500000 0.257202
O O6 0.000000 0.500000 0.316059
O O7 0.619398 0.230839 0.500000
O O8 0.639722 0.500000 0.548313
O O9 0.714659 0.242301 0.552869
O O10 0.603394 0.236968 0.591999
O O11 0.000000 0.349383 0.537916
O O12 0.189519 0.235390 0.500000
O O13 0.208593 0.500000 0.450086
O O14 0.500000 0.706452 0.636098
O O15 0.407196 0.500000 0.646486
O O16 0.404195 0.829386 0.678284
O O17 0.000000 0.500000 0.796858
O O18 0.500000 0.500000 0.047691
#
# Coordination Sequence:
#
# PCOD9523881 Si02
#       8
#    16   8  16   2  16  16   8   8
#     4  11  22  36  53  76 103 134 178 227 271 321
#     4  11  21  38  59  79 103 135 175 224 286 330
#     4   8  15  30  52  82 113 146 184 214 250 309
#     4  12  22  32  52  66 100 148 174 196 278 334
#     4   9  18  32  53  76 105 145 183 219 259 312
#     4   9  17  32  55  83 113 144 175 212 265 314
#     4   9  20  35  55  83 109 133 175 224 266 328
#     4  10  23  35  47  74 103 129 176 225 267 321
#
# _framework density 18.051939999999998
#
# number of rings (size 3 to 8) (size 9 to 14) (size 15 to 20)
#    0.000    2.489    1.778    1.733    1.244    1.422 
#    1.600    4.000    0.000    2.667    0.000    0.000 
#    0.000    0.000    0.000    0.000    0.000    0.000 
#
# Total GULP energy -250514.896854 kJ/mol
# GULP energy per Si atom -5566.997708 kJ/mol
# Density = 1.801085 g / cm^3
# Si number density = 18.051940 Si / 1000 Ang^3
#
#
#
# Elastic Constant Matrix: (Units=GPa)
#
#
# Indices 1 2 3 4 5 6 
#
# 1 20.7200 23.0874 33.7109 0.0000 0.0000 0.0000
# 2 23.0874 130.0213 87.6915 0.0000 0.0000 0.0000
# 3 33.7109 87.6915 168.3450 0.0000 0.0000 0.0000
# 4 0.0000 0.0000 0.0000 9.0717 0.0000 0.0000
# 5 0.0000 0.0000 0.0000 0.0000 36.3341 0.0000
# 6 0.0000 0.0000 0.0000 0.0000 0.0000 26.8516
#
#
#
# Elastic Compliance Matrix: (Units=1/GPa)
#
#
# Indices 1 2 3 4 5 6 
#
# 1 0.073490 -0.004816 -0.012208 0.000000 0.000000 0.000000
# 2 -0.004816 0.012172 -0.005376 0.000000 0.000000 0.000000
# 3 -0.012208 -0.005376 0.011185 0.000000 0.000000 0.000000
# 4 0.000000 0.000000 0.000000 0.110232 0.000000 0.000000
# 5 0.000000 0.000000 0.000000 0.000000 0.027522 0.000000
# 6 0.000000 0.000000 0.000000 0.000000 0.000000 0.037242
#
#
# Mechanical properties :
#
#
# Convention : Reuss Voigt Hill
#
# Bulk Modulus (GPa) = 19.21305 67.56289 43.38797
# Shear Modulus (GPa) = 14.97038 26.09126 20.53082
#
# Velocity S-wave (km/s) = 2.88287 3.80589 3.37608
# Velocity P-wave (km/s) = 4.66343 7.53799 6.26773
#
# Compressibility (1/GPa) = 0.05204796
#
# Stress axis : x y z
#
# Youngs Moduli (GPa) = 13.60723 82.15545 89.40436
#
# Poissons Ratio (x) = 0.39567 1.09141
# Poissons Ratio (y) = 0.06553 0.48064
# Poissons Ratio (z) = 0.16611 0.44167
#
# Static dielectric constant tensor:
#      x y z
#    x 1.607580 0.000000 0.000000 
#    y 0.000000 1.672000 0.000000 
#    z 0.000000 0.000000 1.599800 
# 
# From -- ./inp_files/61188.got.cif
#   From: 2010.05.17/outbox.cif.g08.bks.cpg/sg71_31_cif.got.tgz:61188.got - 2010.06.03 16:22:01.
