data_PCOD9523219
_publ_section_title
;
Structure prediction by ZEFSAII (Michael W. Deem and Ramdas Pophale) SiO2 
 PCOD9523219
Probable space group: I M M M
;
_chemical_formula_sum "Si O2"
_cell_formula_units_Z 104
_cell_length_a 22.370102
_cell_length_b 26.568340
_cell_length_c 7.651935
_cell_angle_alpha 90.000000
_cell_angle_beta 90.000000
_cell_angle_gamma 90.000000
_cell_volume 4547.824081
_symmetry_space_group_name_H-M "I M M M"
_symmetry_group_IT_number 71
_symmetry_cell_setting 'orthorhombic'
loop_
_space_group_symop_operation_xyz
x,y,z
-x,-y,z
x,-y,-z
-x,y,-z
-x,-y,-z
x,y,-z
-x,y,z
x,-y,z
1/2+x,1/2+y,1/2+z
1/2-x,1/2-y,1/2+z
1/2+x,1/2-y,1/2-z
1/2-x,1/2+y,1/2-z
1/2-x,1/2-y,1/2-z
1/2+x,1/2+y,1/2-z
1/2-x,1/2+y,1/2+z
1/2+x,1/2-y,1/2+z
loop_
_atom_site_type_symbol
_atom_site_label
_atom_site_fract_x
_atom_site_fract_y
_atom_site_fract_z
Si Si1 0.935586 0.791900 0.705633
Si Si2 0.932219 0.000000 0.292419
Si Si3 0.337538 0.221132 0.798915
Si Si4 0.617845 0.608551 0.707680
Si Si5 0.254327 0.643295 0.292666
Si Si6 0.431862 0.136188 0.711795
Si Si7 0.339669 0.943482 0.289297
O O1 0.935812 0.778889 0.500000
O O2 0.874912 0.767281 0.782675
O O3 0.929855 0.851701 0.721688
O O4 0.000000 0.775042 0.779764
O O5 0.898049 0.050976 0.243367
O O6 0.936704 0.000000 0.500000
O O7 0.000000 0.000000 0.219143
O O8 0.279372 0.193143 0.720164
O O9 0.388419 0.177746 0.792689
O O10 0.323206 0.233735 0.000000
O O11 0.618901 0.614366 0.500000
O O12 0.681917 0.626725 0.780509
O O13 0.260448 0.651989 0.500000
O O14 0.210592 0.595678 0.270224
O O15 0.429209 0.141975 0.500000
O O16 0.500000 0.141302 0.767655
O O17 0.402842 0.082301 0.755718
O O18 0.336322 0.945101 0.500000
O O19 0.332372 0.000000 0.222368
#
# Coordination Sequence:
#
# PCOD9523219 Si02
#       7
#    16   8  16  16  16  16  16
#     4  10  21  37  58  85 115 148 189 233 277 329
#     4  11  25  45  67  89 115 149 190 235 282 335
#     4   9  18  35  57  79 108 148 188 228 272 324
#     4  11  24  40  60  88 118 149 185 230 285 341
#     4   9  20  37  55  79 111 145 184 228 278 331
#     4   9  17  29  46  71 104 140 180 228 281 332
#     4   9  18  31  48  72 101 137 183 231 277 332
#
# _framework density 22.868081
#
# number of rings (size 3 to 8) (size 9 to 14) (size 15 to 20)
#    0.000    2.385    0.000    1.615    1.077    6.769 
#    0.000    1.538    0.000    0.000    0.000    4.308 
#    0.000    0.000    0.000    0.000    0.000    0.000 
#
# Total GULP energy -290348.706581 kJ/mol
# GULP energy per Si atom -5583.628973 kJ/mol
# Density = 2.281603 g / cm^3
# Si number density = 22.868081 Si / 1000 Ang^3
#
#
#
# Elastic Constant Matrix: (Units=GPa)
#
#
# Indices 1 2 3 4 5 6 
#
# 1 137.1381 48.9532 8.8979 0.0000 0.0000 0.0000
# 2 48.9532 142.8856 1.1882 0.0000 0.0000 0.0000
# 3 8.8979 1.1882 55.5250 0.0000 0.0000 0.0000
# 4 0.0000 0.0000 0.0000 -8.5240 0.0000 0.0000
# 5 0.0000 0.0000 0.0000 0.0000 -2.3848 0.0000
# 6 0.0000 0.0000 0.0000 0.0000 0.0000 26.9307
#
#
#
# Elastic Compliance Matrix: (Units=1/GPa)
#
#
# Indices 1 2 3 4 5 6 
#
# 1 0.008399 -0.002867 -0.001285 0.000000 0.000000 0.000000
# 2 -0.002867 0.007978 0.000289 0.000000 0.000000 0.000000
# 3 -0.001285 0.000289 0.018210 0.000000 0.000000 0.000000
# 4 0.000000 0.000000 0.000000 -0.117315 0.000000 0.000000
# 5 0.000000 0.000000 0.000000 0.000000 -0.419330 0.000000
# 6 0.000000 0.000000 0.000000 0.000000 0.000000 0.037132
#
#
# Mechanical properties :
#
#
# Convention : Reuss Voigt Hill
#
# Bulk Modulus (GPa) = 37.22820 50.40304 43.81562
# Shear Modulus (GPa) = -11.15454 21.63835 5.24191
#
# Velocity S-wave (km/s) = -2.21097 3.07941 1.51566
# Velocity P-wave (km/s) = 3.13003 5.89342 4.71855
#
# Compressibility (1/GPa) = 0.02686136
#
# Stress axis : x y z
#
# Youngs Moduli (GPa) = 119.06794 125.33922 54.91613
#
# Poissons Ratio (x) = 0.35931 0.07054
# Poissons Ratio (y) = 0.34133 -0.01585
# Poissons Ratio (z) = 0.15295 -0.03618
#
# Static dielectric constant tensor:
#      x y z
#    x 1.891400 0.000000 0.000000 
#    y 0.000000 1.888780 0.000000 
#    z 0.000000 0.000000 1.850200 
# 
# From -- ./inp_files/11106.got.cif
#   From: 2010.05.17/outbox.cif.g08.bks.cpg/sg71_6_cif.got.tgz:11106.got - 2010.06.03 16:22:01.
