data_PCOD9523072
_publ_section_title
;
Structure prediction by ZEFSAII (Michael W. Deem and Ramdas Pophale) SiO2 
 PCOD9523072
Probable space group: I M M M
;
_chemical_formula_sum "Si O2"
_cell_formula_units_Z 100
_cell_length_a 19.387831
_cell_length_b 9.575499
_cell_length_c 30.046162
_cell_angle_alpha 90.000000
_cell_angle_beta 90.000000
_cell_angle_gamma 90.000000
_cell_volume 5578.014581
_symmetry_space_group_name_H-M "I M M M"
_symmetry_group_IT_number 71
_symmetry_cell_setting 'orthorhombic'
loop_
_space_group_symop_operation_xyz
x,y,z
-x,-y,z
x,-y,-z
-x,y,-z
-x,-y,-z
x,y,-z
-x,y,z
x,-y,z
1/2+x,1/2+y,1/2+z
1/2-x,1/2-y,1/2+z
1/2+x,1/2-y,1/2-z
1/2-x,1/2+y,1/2-z
1/2-x,1/2-y,1/2-z
1/2+x,1/2+y,1/2-z
1/2-x,1/2+y,1/2+z
1/2+x,1/2-y,1/2+z
loop_
_atom_site_type_symbol
_atom_site_label
_atom_site_fract_x
_atom_site_fract_y
_atom_site_fract_z
Si Si1 0.671229 0.500000 0.500000
Si Si2 0.160807 0.838043 0.573153
Si Si3 0.156371 0.163254 0.321630
Si Si4 0.185946 0.332582 0.830749
Si Si5 0.181660 0.252250 0.071936
Si Si6 0.917566 0.336414 0.500000
Si Si7 0.077044 0.500000 0.947288
Si Si8 0.079406 0.333310 0.752457
O O1 0.672118 0.622137 0.539411
O O2 0.149085 0.810091 0.625515
O O3 0.241772 0.814048 0.563022
O O4 0.115659 0.738126 0.542623
O O5 0.144264 0.000000 0.564324
O O6 0.237351 0.186160 0.311306
O O7 0.109173 0.256711 0.290656
O O8 0.140985 0.000000 0.314158
O O9 0.181683 0.500000 0.843454
O O10 0.180109 0.236667 0.874461
O O11 0.127780 0.301842 0.794708
O O12 0.121674 0.364484 0.063924
O O13 0.899297 0.500000 0.500000
O O14 0.000000 0.322593 0.500000
O O15 0.000000 0.500000 0.926891
O O16 0.069623 0.500000 0.000000
O O17 0.082841 0.500000 0.745680
O O18 0.000000 0.294747 0.760560
#
# Coordination Sequence:
#
# PCOD9523072 Si02
#       8
#     4  16  16  16  16   8   8  16
#     4  12  26  34  59  86 129 158 186 252 306 360
#     4  10  21  38  65  88 116 158 207 256 294 351
#     4   9  19  37  59  85 115 153 195 243 294 349
#     4   9  18  37  62  85 115 151 203 253 288 343
#     4  11  21  40  59  92 119 152 202 249 298 362
#     4  11  26  41  55  86 126 158 197 250 311 369
#     4  11  22  38  64  86 109 155 201 237 290 349
#     4  10  21  36  57  87 119 153 194 242 300 359
#
# _framework density 17.927526
#
# number of rings (size 3 to 8) (size 9 to 14) (size 15 to 20)
#    0.000    1.920    2.400    2.160    2.240    2.880 
#    5.760    4.000    0.000    0.000    0.000    0.000 
#    0.000    0.000    0.000    0.000    0.000    0.000 
#
# Total GULP energy -278428.647786 kJ/mol
# GULP energy per Si atom -5568.572956 kJ/mol
# Density = 1.788672 g / cm^3
# Si number density = 17.927526 Si / 1000 Ang^3
#
#
#
# Elastic Constant Matrix: (Units=GPa)
#
#
# Indices 1 2 3 4 5 6 
#
# 1 102.1893 57.4181 63.0904 0.0000 0.0000 0.0000
# 2 57.4181 92.5998 62.2816 0.0000 0.0000 0.0000
# 3 63.0904 62.2816 86.3036 0.0000 0.0000 0.0000
# 4 0.0000 0.0000 0.0000 32.0841 0.0000 0.0000
# 5 0.0000 0.0000 0.0000 0.0000 -154.0263 0.0000
# 6 0.0000 0.0000 0.0000 0.0000 0.0000 16.8273
#
#
#
# Elastic Compliance Matrix: (Units=1/GPa)
#
#
# Indices 1 2 3 4 5 6 
#
# 1 0.018831 -0.004698 -0.010376 0.000000 0.000000 0.000000
# 2 -0.004698 0.022157 -0.012555 0.000000 0.000000 0.000000
# 3 -0.010376 -0.012555 0.028233 0.000000 0.000000 0.000000
# 4 0.000000 0.000000 0.000000 0.031168 0.000000 0.000000
# 5 0.000000 0.000000 0.000000 0.000000 -0.006492 0.000000
# 6 0.000000 0.000000 0.000000 0.000000 0.000000 0.059427
#
#
# Mechanical properties :
#
#
# Convention : Reuss Voigt Hill
#
# Bulk Modulus (GPa) = 71.62029 71.85253 71.73641
# Shear Modulus (GPa) = 23.44816 -14.46947 4.48934
#
# Velocity S-wave (km/s) = 3.62047 -2.84405 1.58417
# Velocity P-wave (km/s) = 7.58378 5.42048 6.59148
#
# Compressibility (1/GPa) = 0.01396252
#
# Stress axis : x y z
#
# Youngs Moduli (GPa) = 53.10253 45.13315 35.41990
#
# Poissons Ratio (x) = 0.21203 0.36752
# Poissons Ratio (y) = 0.24947 0.44470
# Poissons Ratio (z) = 0.55099 0.56665
#
# Static dielectric constant tensor:
#      x y z
#    x 1.618910 0.000000 0.000000 
#    y 0.000000 1.596930 0.000000 
#    z 0.000000 0.000000 1.621830 
# 
# From -- ./inp_files/66472.got.cif
#   From: 2010.05.17/outbox.cif.g08.bks.cpg/sg71_34_cif.got.tgz:66472.got - 2010.06.03 16:22:01.
