data_PCOD9523001
_publ_section_title
;
Structure prediction by ZEFSAII (Michael W. Deem and Ramdas Pophale) SiO2 
 PCOD9523001
Probable space group: I M M M
;
_chemical_formula_sum "Si O2"
_cell_formula_units_Z 64
_cell_length_a 17.398446
_cell_length_b 11.665935
_cell_length_c 12.965782
_cell_angle_alpha 90.000000
_cell_angle_beta 90.000000
_cell_angle_gamma 90.000000
_cell_volume 2631.653624
_symmetry_space_group_name_H-M "I M M M"
_symmetry_group_IT_number 71
_symmetry_cell_setting 'orthorhombic'
loop_
_space_group_symop_operation_xyz
x,y,z
-x,-y,z
x,-y,-z
-x,y,-z
-x,-y,-z
x,y,-z
-x,y,z
x,-y,z
1/2+x,1/2+y,1/2+z
1/2-x,1/2-y,1/2+z
1/2+x,1/2-y,1/2-z
1/2-x,1/2+y,1/2-z
1/2-x,1/2-y,1/2-z
1/2+x,1/2+y,1/2-z
1/2-x,1/2+y,1/2+z
1/2+x,1/2-y,1/2+z
loop_
_atom_site_type_symbol
_atom_site_label
_atom_site_fract_x
_atom_site_fract_y
_atom_site_fract_z
Si Si1 0.586757 0.813279 0.888658
Si Si2 0.706874 0.625031 0.834830
Si Si3 0.864068 0.871244 0.885080
Si Si4 0.112225 0.375436 0.159482
O O1 0.500000 0.764059 0.883871
O O2 0.652732 0.718721 0.883422
O O3 0.597260 0.879409 0.781900
O O4 0.592752 0.872462 0.000000
O O5 0.678357 0.500000 0.865715
O O6 0.695222 0.633658 0.710444
O O7 0.796268 0.630330 0.860608
O O8 0.912904 0.752959 0.874947
O O9 0.900787 0.000000 0.876090
O O10 0.829515 0.868161 0.000000
O O11 0.085989 0.500000 0.118079
#
# Coordination Sequence:
#
# PCOD9523001 Si02
#       4
#    16  16  16  16
#     4  10  21  36  56  85 121 160 199 241 296 362
#     4   9  19  35  54  80 115 155 201 250 297 348
#     4   9  17  31  53  79 106 138 181 236 293 345
#     4  10  21  36  55  82 117 156 199 248 298 350
#
# _framework density 24.319309000000001
#
# number of rings (size 3 to 8) (size 9 to 14) (size 15 to 20)
#    0.000    2.500    0.000    3.000    0.000    6.500 
#    0.000    7.500    0.000   12.000    0.000   42.000 
#    0.000    0.000    0.000    0.000    0.000    0.000 
#
# Total GULP energy -178286.623172 kJ/mol
# GULP energy per Si atom -5571.456974 kJ/mol
# Density = 2.426396 g / cm^3
# Si number density = 24.319309 Si / 1000 Ang^3
#
#
#
# Elastic Constant Matrix: (Units=GPa)
#
#
# Indices 1 2 3 4 5 6 
#
# 1 133.6712 33.0601 14.7118 0.0000 0.0000 0.0000
# 2 33.0601 231.9086 24.3185 0.0000 0.0000 0.0000
# 3 14.7118 24.3185 148.7313 0.0000 0.0000 0.0000
# 4 0.0000 0.0000 0.0000 1.0316 0.0000 0.0000
# 5 0.0000 0.0000 0.0000 0.0000 11.4897 0.0000
# 6 0.0000 0.0000 0.0000 0.0000 0.0000 -85.3009
#
#
#
# Elastic Compliance Matrix: (Units=1/GPa)
#
#
# Indices 1 2 3 4 5 6 
#
# 1 0.007807 -0.001050 -0.000601 0.000000 0.000000 0.000000
# 2 -0.001050 0.004528 -0.000637 0.000000 0.000000 0.000000
# 3 -0.000601 -0.000637 0.006887 0.000000 0.000000 0.000000
# 4 0.000000 0.000000 0.000000 0.969345 0.000000 0.000000
# 5 0.000000 0.000000 0.000000 0.000000 0.087035 0.000000
# 6 0.000000 0.000000 0.000000 0.000000 0.000000 -0.011723
#
#
# Mechanical properties :
#
#
# Convention : Reuss Voigt Hill
#
# Bulk Modulus (GPa) = 68.26782 73.16577 70.71679
# Shear Modulus (GPa) = 4.65837 14.92548 9.79192
#
# Velocity S-wave (km/s) = 1.38552 2.48004 2.00877
# Velocity P-wave (km/s) = 5.54003 6.19287 5.87552
#
# Compressibility (1/GPa) = 0.01464819
#
# Stress axis : x y z
#
# Youngs Moduli (GPa) = 128.09329 220.82508 145.20068
#
# Poissons Ratio (x) = 0.23185 0.08720
# Poissons Ratio (y) = 0.13449 0.09243
# Poissons Ratio (z) = 0.07693 0.14057
#
# Static dielectric constant tensor:
#      x y z
#    x 1.859080 0.000000 0.000000 
#    y 0.000000 2.013600 0.000000 
#    z 0.000000 0.000000 1.942500 
# 
# From -- ./inp_files/32277.got.cif
#   From: 2010.05.17/outbox.cif.g08.bks.cpg/sg71_17_cif.got.tgz:32277.got - 2010.06.03 16:22:01.
