data_PCOD9523502
_publ_section_title
;
Structure prediction by ZEFSAII (Michael W. Deem and Ramdas Pophale) SiO2 
 PCOD9523502
Probable space group: I M M M
;
_chemical_formula_sum "Si O2"
_cell_formula_units_Z 84
_cell_length_a 11.724574
_cell_length_b 12.568960
_cell_length_c 29.589217
_cell_angle_alpha 90.000000
_cell_angle_beta 90.000000
_cell_angle_gamma 90.000000
_cell_volume 4360.435724
_symmetry_space_group_name_H-M "I M M M"
_symmetry_group_IT_number 71
_symmetry_cell_setting 'orthorhombic'
loop_
_space_group_symop_operation_xyz
x,y,z
-x,-y,z
x,-y,-z
-x,y,-z
-x,-y,-z
x,y,-z
-x,y,z
x,-y,z
1/2+x,1/2+y,1/2+z
1/2-x,1/2-y,1/2+z
1/2+x,1/2-y,1/2-z
1/2-x,1/2+y,1/2-z
1/2-x,1/2-y,1/2-z
1/2+x,1/2+y,1/2-z
1/2-x,1/2+y,1/2+z
1/2+x,1/2-y,1/2+z
loop_
_atom_site_type_symbol
_atom_site_label
_atom_site_fract_x
_atom_site_fract_y
_atom_site_fract_z
Si Si1 0.757693 0.623472 0.549992
Si Si2 0.000000 0.265123 0.837193
Si Si3 0.500000 0.378881 0.421596
Si Si4 0.755054 0.781310 0.802029
Si Si5 0.361616 0.500000 0.947710
Si Si6 0.128672 0.500000 0.708068
Si Si7 0.136915 0.201936 0.386557
Si Si8 0.500000 0.000000 0.701091
O O1 0.795019 0.659247 0.500000
O O2 0.789129 0.500000 0.555728
O O3 0.619884 0.628302 0.552527
O O4 0.813801 0.694774 0.588241
O O5 0.000000 0.220200 0.887594
O O6 0.886536 0.217845 0.815368
O O7 0.000000 0.392003 0.827852
O O8 0.500000 0.500000 0.400836
O O9 0.750000 0.750000 0.750000
O O10 0.694723 0.895177 0.806279
O O11 0.691492 0.701868 0.836700
O O12 0.500000 0.500000 0.949745
O O13 0.328597 0.397047 0.918338
O O14 0.321036 0.500000 0.000000
O O15 0.105338 0.500000 0.762731
O O16 0.000000 0.500000 0.688898
O O17 0.000000 0.204932 0.383392
#
# Coordination Sequence:
#
# PCOD9523502 Si02
#       8
#    16   8   8  16   8   8  16   4
#     4  10  21  39  63  92 127 164 204 260 326 389
#     4  12  24  41  66  93 127 176 220 276 318 394
#     4  10  21  40  60  92 126 164 212 256 320 386
#     4  12  25  42  65  94 131 176 228 269 326 394
#     4   9  20  42  67  91 128 172 214 277 346 395
#     4  10  22  42  64  89 130 175 209 273 341 387
#     4  11  24  39  64  95 127 165 220 270 327 399
#     4  10  22  44  62  92 129 176 211 264 356 368
#
# _framework density 19.264130999999999
#
# number of rings (size 3 to 8) (size 9 to 14) (size 15 to 20)
#    0.286    1.048    3.810    1.429    4.000    4.190 
#    0.000    0.952    0.000    0.000    0.000    3.333 
#    0.000    0.000    0.000    0.000    0.000    0.000 
#
# Total GULP energy -234404.568809 kJ/mol
# GULP energy per Si atom -5581.061162 kJ/mol
# Density = 1.922028 g / cm^3
# Si number density = 19.264131 Si / 1000 Ang^3
#
#
#
# Elastic Constant Matrix: (Units=GPa)
#
#
# Indices 1 2 3 4 5 6 
#
# 1 105.9520 38.6738 28.0442 0.0000 0.0000 0.0000
# 2 38.6738 101.9236 53.9533 0.0000 0.0000 0.0000
# 3 28.0442 53.9533 139.3913 0.0000 0.0000 0.0000
# 4 0.0000 0.0000 0.0000 30.9600 0.0000 0.0000
# 5 0.0000 0.0000 0.0000 0.0000 33.6817 0.0000
# 6 0.0000 0.0000 0.0000 0.0000 0.0000 13.8290
#
#
#
# Elastic Compliance Matrix: (Units=1/GPa)
#
#
# Indices 1 2 3 4 5 6 
#
# 1 0.011018 -0.003782 -0.000753 0.000000 0.000000 0.000000
# 2 -0.003782 0.013638 -0.004518 0.000000 0.000000 0.000000
# 3 -0.000753 -0.004518 0.009074 0.000000 0.000000 0.000000
# 4 0.000000 0.000000 0.000000 0.032300 0.000000 0.000000
# 5 0.000000 0.000000 0.000000 0.000000 0.029690 0.000000
# 6 0.000000 0.000000 0.000000 0.000000 0.000000 0.072312
#
#
# Mechanical properties :
#
#
# Convention : Reuss Voigt Hill
#
# Bulk Modulus (GPa) = 64.00172 65.40104 64.70138
# Shear Modulus (GPa) = 26.13082 30.80051 28.46567
#
# Velocity S-wave (km/s) = 3.68700 4.00290 3.84819
# Velocity P-wave (km/s) = 7.17082 7.44229 7.30781
#
# Compressibility (1/GPa) = 0.01562458
#
# Stress axis : x y z
#
# Youngs Moduli (GPa) = 90.76030 73.32521 110.20291
#
# Poissons Ratio (x) = 0.27733 0.08296
# Poissons Ratio (y) = 0.34327 0.49787
# Poissons Ratio (z) = 0.06832 0.33127
#
# Static dielectric constant tensor:
#      x y z
#    x 1.615440 0.000000 0.000000 
#    y 0.000000 1.638900 0.000000 
#    z 0.000000 0.000000 1.724340 
# 
# From -- ./inp_files/69139.got.cif
#   From: 2010.05.17/outbox.cif.g08.bks.cpg/sg71_35_cif.got.tgz:69139.got - 2010.06.03 16:22:01.
