data_PCOD9523529
_publ_section_title
;
Structure prediction by ZEFSAII (Michael W. Deem and Ramdas Pophale) SiO2 
 PCOD9523529
Probable space group: I M M M
;
_chemical_formula_sum "Si O2"
_cell_formula_units_Z 72
_cell_length_a 21.009599
_cell_length_b 8.598436
_cell_length_c 21.774874
_cell_angle_alpha 90.000000
_cell_angle_beta 90.000000
_cell_angle_gamma 90.000000
_cell_volume 3933.624290
_symmetry_space_group_name_H-M "I M M M"
_symmetry_group_IT_number 71
_symmetry_cell_setting 'orthorhombic'
loop_
_space_group_symop_operation_xyz
x,y,z
-x,-y,z
x,-y,-z
-x,y,-z
-x,-y,-z
x,y,-z
-x,y,z
x,-y,z
1/2+x,1/2+y,1/2+z
1/2-x,1/2-y,1/2+z
1/2+x,1/2-y,1/2-z
1/2-x,1/2+y,1/2-z
1/2-x,1/2-y,1/2-z
1/2+x,1/2+y,1/2-z
1/2-x,1/2+y,1/2+z
1/2+x,1/2-y,1/2+z
loop_
_atom_site_type_symbol
_atom_site_label
_atom_site_fract_x
_atom_site_fract_y
_atom_site_fract_z
Si Si1 0.381470 0.187629 0.570626
Si Si2 0.500000 0.188465 0.346376
Si Si3 0.000000 0.184633 0.291050
Si Si4 0.424857 0.676563 0.000000
Si Si5 0.758315 0.687655 0.428730
Si Si6 0.885042 0.684414 0.628175
O O1 0.396111 0.232596 0.500000
O O2 0.437248 0.238368 0.616137
O O3 0.312100 0.253607 0.586142
O O4 0.378374 0.000000 0.572424
O O5 0.500000 0.251068 0.277745
O O6 0.500000 0.000000 0.344733
O O7 0.935803 0.240538 0.325825
O O8 0.000000 0.000000 0.291379
O O9 0.408263 0.773111 0.939909
O O10 0.397243 0.500000 0.000000
O O11 0.500000 0.658198 0.000000
O O12 0.772508 0.738397 0.500000
O O13 0.759160 0.500000 0.429627
O O14 0.811294 0.737864 0.378839
O O15 0.886072 0.500000 0.638866
#
# Coordination Sequence:
#
# PCOD9523529 Si02
#       6
#    16   8   8   8  16  16
#     4   9  18  34  60  91 115 139 174 223 279 333
#     4  10  21  40  61  81 110 147 186 223 273 341
#     4  12  26  40  54  79 110 145 195 241 278 318
#     4  11  21  31  49  81 114 143 184 237 280 316
#     4   9  18  33  53  83 117 145 178 222 274 333
#     4  11  21  36  56  78 110 153 192 226 275 330
#
# _framework density 18.303730999999999
#
# number of rings (size 3 to 8) (size 9 to 14) (size 15 to 20)
#    0.000    1.889    2.222    2.333    0.000    4.444 
#    0.000    1.111    0.000    3.333    0.000    0.000 
#    0.000    0.000    0.000    0.000    0.000    0.000 
#
# Total GULP energy -200733.826303 kJ/mol
# GULP energy per Si atom -5575.939620 kJ/mol
# Density = 1.826207 g / cm^3
# Si number density = 18.303731 Si / 1000 Ang^3
#
#
#
# Elastic Constant Matrix: (Units=GPa)
#
#
# Indices 1 2 3 4 5 6 
#
# 1 175.3565 34.5937 98.1050 0.0000 0.0000 0.0000
# 2 34.5937 25.7104 23.1315 0.0000 0.0000 0.0000
# 3 98.1050 23.1315 120.0789 0.0000 0.0000 0.0000
# 4 0.0000 0.0000 0.0000 17.3235 0.0000 0.0000
# 5 0.0000 0.0000 0.0000 0.0000 -1.6319 0.0000
# 6 0.0000 0.0000 0.0000 0.0000 0.0000 30.7801
#
#
#
# Elastic Compliance Matrix: (Units=1/GPa)
#
#
# Indices 1 2 3 4 5 6 
#
# 1 0.011960 -0.008832 -0.008070 0.000000 0.000000 0.000000
# 2 -0.008832 0.053570 -0.003104 0.000000 0.000000 0.000000
# 3 -0.008070 -0.003104 0.015519 0.000000 0.000000 0.000000
# 4 0.000000 0.000000 0.000000 0.057725 0.000000 0.000000
# 5 0.000000 0.000000 0.000000 0.000000 -0.612770 0.000000
# 6 0.000000 0.000000 0.000000 0.000000 0.000000 0.032489
#
#
# Mechanical properties :
#
#
# Convention : Reuss Voigt Hill
#
# Bulk Modulus (GPa) = 24.36768 70.31180 47.33974
# Shear Modulus (GPa) = -12.89268 20.31538 3.71135
#
# Velocity S-wave (km/s) = -2.65688 3.33514 1.42550
# Velocity P-wave (km/s) = 1.98237 7.30261 5.35061
#
# Compressibility (1/GPa) = 0.04103797
#
# Stress axis : x y z
#
# Youngs Moduli (GPa) = 83.61436 18.66700 64.43747
#
# Poissons Ratio (x) = 0.16486 0.52000
# Poissons Ratio (y) = 0.73844 0.20003
# Poissons Ratio (z) = 0.67475 0.05795
#
# Static dielectric constant tensor:
#      x y z
#    x 1.667060 0.000000 0.000000 
#    y 0.000000 1.638940 0.000000 
#    z 0.000000 0.000000 1.598250 
# 
# From -- ./inp_files/54697.got.cif
#   From: 2010.05.17/outbox.cif.g08.bks.cpg/sg71_28_cif.got.tgz:54697.got - 2010.06.03 16:22:01.
