data_PCOD9523714
_publ_section_title
;
Structure prediction by ZEFSAII (Michael W. Deem and Ramdas Pophale) SiO2 
 PCOD9523714
Probable space group: I M M M
;
_chemical_formula_sum "Si O2"
_cell_formula_units_Z 72
_cell_length_a 14.715434
_cell_length_b 8.457131
_cell_length_c 32.420086
_cell_angle_alpha 90.000000
_cell_angle_beta 90.000000
_cell_angle_gamma 90.000000
_cell_volume 4034.691149
_symmetry_space_group_name_H-M "I M M M"
_symmetry_group_IT_number 71
_symmetry_cell_setting 'orthorhombic'
loop_
_space_group_symop_operation_xyz
x,y,z
-x,-y,z
x,-y,-z
-x,y,-z
-x,-y,-z
x,y,-z
-x,y,z
x,-y,z
1/2+x,1/2+y,1/2+z
1/2-x,1/2-y,1/2+z
1/2+x,1/2-y,1/2-z
1/2-x,1/2+y,1/2-z
1/2-x,1/2-y,1/2-z
1/2+x,1/2+y,1/2-z
1/2-x,1/2+y,1/2+z
1/2+x,1/2-y,1/2+z
loop_
_atom_site_type_symbol
_atom_site_label
_atom_site_fract_x
_atom_site_fract_y
_atom_site_fract_z
Si Si1 0.194411 0.312319 0.368117
Si Si2 0.000000 0.812015 0.335516
Si Si3 0.500000 0.675704 0.048744
Si Si4 0.304274 0.809618 0.289854
Si Si5 0.699020 0.692111 0.046700
Si Si6 0.000000 0.690509 0.758582
O O1 0.186757 0.500000 0.370563
O O2 0.093035 0.244872 0.357660
O O3 0.257541 0.262246 0.330001
O O4 0.241045 0.247903 0.410415
O O5 0.000000 0.751849 0.288344
O O6 0.000000 0.000000 0.334639
O O7 0.500000 0.500000 0.068912
O O8 0.596259 0.755989 0.054414
O O9 0.500000 0.649543 0.000000
O O10 0.250000 0.750000 0.250000
O O11 0.408724 0.761837 0.282343
O O12 0.298982 0.000000 0.292125
O O13 0.695313 0.500000 0.046336
O O14 0.728377 0.738814 0.000000
O O15 0.000000 0.500000 0.755750
#
# Coordination Sequence:
#
# PCOD9523714 Si02
#       6
#    16   8   8  16  16   8
#     4  12  24  36  52  79 115 149 186 229 273 331
#     4  12  23  35  55  78 107 148 192 232 274 325
#     4   7  11  22  42  66  92 125 167 214 259 306
#     4  11  22  38  59  83 111 144 182 227 276 325
#     4   9  17  31  51  74 102 139 184 229 273 324
#     4  10  22  39  59  81 110 142 181 230 276 324
#
# _framework density 17.845231999999999
#
# number of rings (size 3 to 8) (size 9 to 14) (size 15 to 20)
#    0.000    1.667    2.222    5.667    0.000    2.222 
#    0.000    0.000    0.000    3.333    0.000    0.778 
#    0.000    6.222    0.000    0.000    0.000    0.000 
#
# Total GULP energy -200584.855513 kJ/mol
# GULP energy per Si atom -5571.801542 kJ/mol
# Density = 1.780462 g / cm^3
# Si number density = 17.845232 Si / 1000 Ang^3
#
#
#
# Elastic Constant Matrix: (Units=GPa)
#
#
# Indices 1 2 3 4 5 6 
#
# 1 88.0337 28.9452 53.8354 0.0000 0.0000 0.0000
# 2 28.9452 60.4571 36.6473 0.0000 0.0000 0.0000
# 3 53.8354 36.6473 188.5110 0.0000 0.0000 0.0000
# 4 0.0000 0.0000 0.0000 28.2758 0.0000 0.0000
# 5 0.0000 0.0000 0.0000 0.0000 17.7148 0.0000
# 6 0.0000 0.0000 0.0000 0.0000 0.0000 18.0641
#
#
#
# Elastic Compliance Matrix: (Units=1/GPa)
#
#
# Indices 1 2 3 4 5 6 
#
# 1 0.015093 -0.005230 -0.003294 0.000000 0.000000 0.000000
# 2 -0.005230 0.020562 -0.002504 0.000000 0.000000 0.000000
# 3 -0.003294 -0.002504 0.006732 0.000000 0.000000 0.000000
# 4 0.000000 0.000000 0.000000 0.035366 0.000000 0.000000
# 5 0.000000 0.000000 0.000000 0.000000 0.056450 0.000000
# 6 0.000000 0.000000 0.000000 0.000000 0.000000 0.055358
#
#
# Mechanical properties :
#
#
# Convention : Reuss Voigt Hill
#
# Bulk Modulus (GPa) = 49.18107 63.98420 56.58263
# Shear Modulus (GPa) = 22.89446 27.31586 25.10516
#
# Velocity S-wave (km/s) = 3.58571 3.91667 3.75484
# Velocity P-wave (km/s) = 6.69049 7.50911 7.11159
#
# Compressibility (1/GPa) = 0.02033303
#
# Stress axis : x y z
#
# Youngs Moduli (GPa) = 66.25628 48.63284 148.54201
#
# Poissons Ratio (x) = 0.25433 0.48924
# Poissons Ratio (y) = 0.34649 0.37194
# Poissons Ratio (z) = 0.21822 0.12177
#
# Static dielectric constant tensor:
#      x y z
#    x 1.733620 0.000000 0.000000 
#    y 0.000000 1.626680 0.000000 
#    z 0.000000 0.000000 1.661050 
# 
# From -- ./inp_files/69725.got.cif
#   From: 2010.05.17/outbox.cif.g08.bks.cpg/sg71_35_cif.got.tgz:69725.got - 2010.06.03 16:22:01.
