data_PCOD9523968
_publ_section_title
;
Structure prediction by ZEFSAII (Michael W. Deem and Ramdas Pophale) SiO2 
 PCOD9523968
Probable space group: I M M M
;
_chemical_formula_sum "Si O2"
_cell_formula_units_Z 90
_cell_length_a 22.406183
_cell_length_b 24.824659
_cell_length_c 8.048723
_cell_angle_alpha 90.000000
_cell_angle_beta 90.000000
_cell_angle_gamma 90.000000
_cell_volume 4476.907812
_symmetry_space_group_name_H-M "I M M M"
_symmetry_group_IT_number 71
_symmetry_cell_setting 'orthorhombic'
loop_
_space_group_symop_operation_xyz
x,y,z
-x,-y,z
x,-y,-z
-x,y,-z
-x,-y,-z
x,y,-z
-x,y,z
x,-y,z
1/2+x,1/2+y,1/2+z
1/2-x,1/2-y,1/2+z
1/2+x,1/2-y,1/2-z
1/2-x,1/2+y,1/2-z
1/2-x,1/2-y,1/2-z
1/2+x,1/2+y,1/2-z
1/2-x,1/2+y,1/2+z
1/2+x,1/2-y,1/2+z
loop_
_atom_site_type_symbol
_atom_site_label
_atom_site_fract_x
_atom_site_fract_y
_atom_site_fract_z
Si Si1 0.000000 0.789191 0.803648
Si Si2 0.000000 0.917961 0.195823
Si Si3 0.500000 0.000000 0.000000
Si Si4 0.874670 0.742274 0.693156
Si Si5 0.131449 0.059299 0.304334
Si Si6 0.835077 0.370158 0.184816
Si Si7 0.875361 0.559514 0.500000
Si Si8 0.293887 0.658826 0.308227
O O1 0.940165 0.766128 0.723534
O O2 0.000000 0.853476 0.785967
O O3 0.000000 0.776775 0.000000
O O4 0.939415 0.938818 0.276299
O O5 0.000000 0.931142 0.000000
O O6 0.553893 0.046205 0.000000
O O7 0.866157 0.729436 0.500000
O O8 0.866706 0.687618 0.794895
O O9 0.826834 0.787692 0.744633
O O10 0.143896 0.066258 0.500000
O O11 0.160891 0.108731 0.208457
O O12 0.153470 0.000000 0.252190
O O13 0.856458 0.408346 0.334689
O O14 0.765184 0.356912 0.208819
O O15 0.845918 0.392451 0.000000
O O16 0.845825 0.500000 0.500000
O O17 0.277316 0.666873 0.500000
#
# Coordination Sequence:
#
# PCOD9523968 Si02
#       8
#     8   8   2  16  16  16   8  16
#     4  11  23  39  61  96 132 178 230 286 348 417
#     4  11  22  38  60  85 123 170 226 287 345 401
#     4   8  24  52  90 104 156 182 232 310 364 432
#     4  12  24  42  67 102 141 184 232 291 356 422
#     4  11  24  40  60  88 123 173 234 287 342 405
#     4  12  25  46  74 108 144 186 234 283 351 432
#     4  10  24  52  78 112 144 185 229 292 357 418
#     4  12  24  42  65  98 142 185 234 290 350 418
#
# _framework density 20.103161
#
# number of rings (size 3 to 8) (size 9 to 14) (size 15 to 20)
#    0.267    0.356    3.556    5.067    0.000    4.978 
#    0.000    1.778    0.000    0.000    0.000    0.000 
#    0.000    0.000    0.000    0.000    0.000    0.000 
#
# Total GULP energy -251462.105165 kJ/mol
# GULP energy per Si atom -5588.046781 kJ/mol
# Density = 2.005741 g / cm^3
# Si number density = 20.103161 Si / 1000 Ang^3
#
#
#
# Elastic Constant Matrix: (Units=GPa)
#
#
# Indices 1 2 3 4 5 6 
#
# 1 87.2911 30.8296 22.9687 0.0000 0.0000 0.0000
# 2 30.8296 104.4249 39.2685 0.0000 0.0000 0.0000
# 3 22.9687 39.2685 127.1853 0.0000 0.0000 0.0000
# 4 0.0000 0.0000 0.0000 11.3196 0.0000 0.0000
# 5 0.0000 0.0000 0.0000 0.0000 23.6545 0.0000
# 6 0.0000 0.0000 0.0000 0.0000 0.0000 -3.5225
#
#
#
# Elastic Compliance Matrix: (Units=1/GPa)
#
#
# Indices 1 2 3 4 5 6 
#
# 1 0.012981 -0.003338 -0.001313 0.000000 0.000000 0.000000
# 2 -0.003338 0.011693 -0.003007 0.000000 0.000000 0.000000
# 3 -0.001313 -0.003007 0.009028 0.000000 0.000000 0.000000
# 4 0.000000 0.000000 0.000000 0.088342 0.000000 0.000000
# 5 0.000000 0.000000 0.000000 0.000000 0.042275 0.000000
# 6 0.000000 0.000000 0.000000 0.000000 0.000000 -0.283888
#
#
# Mechanical properties :
#
#
# Convention : Reuss Voigt Hill
#
# Bulk Modulus (GPa) = 54.39700 56.11498 55.25599
# Shear Modulus (GPa) = -50.95620 21.34595 -14.80513
#
# Velocity S-wave (km/s) = -5.04008 3.26209 -2.71672
# Velocity P-wave (km/s) = 2.59849 6.49326 4.20775
#
# Compressibility (1/GPa) = 0.01838337
#
# Stress axis : x y z
#
# Youngs Moduli (GPa) = 77.03819 85.52335 110.76362
#
# Poissons Ratio (x) = 0.28551 0.14549
# Poissons Ratio (y) = 0.25718 0.33309
# Poissons Ratio (z) = 0.10119 0.25719
#
# Static dielectric constant tensor:
#      x y z
#    x 1.690110 0.000000 0.000000 
#    y 0.000000 1.707090 0.000000 
#    z 0.000000 0.000000 1.718710 
# 
# From -- ./inp_files/10591.got.cif
#   From: 2010.05.17/outbox.cif.g08.bks.cpg/sg71_6_cif.got.tgz:10591.got - 2010.06.03 16:22:01.
