data_PCOD9523558
_publ_section_title
;
Structure prediction by ZEFSAII (Michael W. Deem and Ramdas Pophale) SiO2 
 PCOD9523558
Probable space group: I M M M
;
_chemical_formula_sum "Si O2"
_cell_formula_units_Z 64
_cell_length_a 24.579138
_cell_length_b 8.731302
_cell_length_c 15.947371
_cell_angle_alpha 90.000000
_cell_angle_beta 90.000000
_cell_angle_gamma 90.000000
_cell_volume 3422.431430
_symmetry_space_group_name_H-M "I M M M"
_symmetry_group_IT_number 71
_symmetry_cell_setting 'orthorhombic'
loop_
_space_group_symop_operation_xyz
x,y,z
-x,-y,z
x,-y,-z
-x,y,-z
-x,-y,-z
x,y,-z
-x,y,z
x,-y,z
1/2+x,1/2+y,1/2+z
1/2-x,1/2-y,1/2+z
1/2+x,1/2-y,1/2-z
1/2-x,1/2+y,1/2-z
1/2-x,1/2-y,1/2-z
1/2+x,1/2+y,1/2-z
1/2-x,1/2+y,1/2+z
1/2+x,1/2-y,1/2+z
loop_
_atom_site_type_symbol
_atom_site_label
_atom_site_fract_x
_atom_site_fract_y
_atom_site_fract_z
Si Si1 0.225092 0.684840 0.665043
Si Si2 0.609385 0.184800 0.097664
Si Si3 0.500000 0.316018 0.627476
Si Si4 0.293982 0.685182 0.500000
Si Si5 0.000000 0.817041 0.323370
Si Si6 0.914753 0.316999 0.000000
O O1 0.225405 0.500000 0.669261
O O2 0.250000 0.750000 0.750000
O O3 0.162863 0.734397 0.648793
O O4 0.260551 0.728402 0.583448
O O5 0.554006 0.252412 0.133483
O O6 0.606511 0.000000 0.101656
O O7 0.616347 0.226503 0.000000
O O8 0.500000 0.500000 0.618488
O O9 0.500000 0.275789 0.725045
O O10 0.552334 0.248335 0.579827
O O11 0.299394 0.500000 0.500000
O O12 0.353167 0.759763 0.500000
O O13 0.000000 0.000000 0.330013
O O14 0.917545 0.500000 0.000000
#
# Coordination Sequence:
#
# PCOD9523558 Si02
#       6
#    16  16   8   8   8   8
#     4  10  22  40  63  90 121 159 202 245 295 355
#     4  10  21  41  64  86 116 157 199 242 294 353
#     4  10  22  42  61  83 119 160 196 236 299 364
#     4  10  21  41  64  87 124 166 198 238 301 370
#     4  11  25  39  59  90 119 152 195 245 298 353
#     4  11  23  38  61  90 119 151 199 250 294 343
#
# _framework density 18.700154000000001
#
# number of rings (size 3 to 8) (size 9 to 14) (size 15 to 20)
#    0.000    1.750    1.250    3.000    3.500    6.000 
#    0.000    0.000    0.000    0.000    0.000    0.000 
#    0.000    0.000    0.000    0.000    0.000    0.000 
#
# Total GULP energy -178830.769748 kJ/mol
# GULP energy per Si atom -5588.461555 kJ/mol
# Density = 1.865759 g / cm^3
# Si number density = 18.700154 Si / 1000 Ang^3
#
#
#
# Elastic Constant Matrix: (Units=GPa)
#
#
# Indices 1 2 3 4 5 6 
#
# 1 209.0950 46.3651 104.5980 0.0000 0.0000 0.0000
# 2 46.3651 36.1191 45.1468 0.0000 0.0000 0.0000
# 3 104.5980 45.1468 168.0998 0.0000 0.0000 0.0000
# 4 0.0000 0.0000 0.0000 33.2089 0.0000 0.0000
# 5 0.0000 0.0000 0.0000 0.0000 3.3986 0.0000
# 6 0.0000 0.0000 0.0000 0.0000 0.0000 12.7079
#
#
#
# Elastic Compliance Matrix: (Units=1/GPa)
#
#
# Indices 1 2 3 4 5 6 
#
# 1 0.007687 -0.005854 -0.003211 0.000000 0.000000 0.000000
# 2 -0.005854 0.046135 -0.008748 0.000000 0.000000 0.000000
# 3 -0.003211 -0.008748 0.010296 0.000000 0.000000 0.000000
# 4 0.000000 0.000000 0.000000 0.030112 0.000000 0.000000
# 5 0.000000 0.000000 0.000000 0.000000 0.294243 0.000000
# 6 0.000000 0.000000 0.000000 0.000000 0.000000 0.078691
#
#
# Mechanical properties :
#
#
# Convention : Reuss Voigt Hill
#
# Bulk Modulus (GPa) = 35.09679 89.50373 62.30026
# Shear Modulus (GPa) = 9.76013 24.34335 17.05174
#
# Velocity S-wave (km/s) = 2.28705 3.61192 3.02296
# Velocity P-wave (km/s) = 5.07770 8.08462 6.75071
#
# Compressibility (1/GPa) = 0.02849264
#
# Stress axis : x y z
#
# Youngs Moduli (GPa) = 130.09407 21.67538 97.12346
#
# Poissons Ratio (x) = 0.12689 0.31184
# Poissons Ratio (y) = 0.76157 0.84964
# Poissons Ratio (z) = 0.41770 0.18962
#
# Static dielectric constant tensor:
#      x y z
#    x 1.617080 0.000000 0.000000 
#    y 0.000000 1.631180 0.000000 
#    z 0.000000 0.000000 1.625970 
# 
# From -- ./inp_files/38803.got.cif
#   From: 2010.05.17/outbox.cif.g08.bks.cpg/sg71_20_cif.got.tgz:38803.got - 2010.06.03 16:22:01.
