data_PCOD9523848
_publ_section_title
;
Structure prediction by ZEFSAII (Michael W. Deem and Ramdas Pophale) SiO2 
 PCOD9523848
Probable space group: I M M M
;
_chemical_formula_sum "Si O2"
_cell_formula_units_Z 50
_cell_length_a 9.609111
_cell_length_b 14.438993
_cell_length_c 19.866027
_cell_angle_alpha 90.000000
_cell_angle_beta 90.000000
_cell_angle_gamma 90.000000
_cell_volume 2756.329527
_symmetry_space_group_name_H-M "I M M M"
_symmetry_group_IT_number 71
_symmetry_cell_setting 'orthorhombic'
loop_
_space_group_symop_operation_xyz
x,y,z
-x,-y,z
x,-y,-z
-x,y,-z
-x,-y,-z
x,y,-z
-x,y,z
x,-y,z
1/2+x,1/2+y,1/2+z
1/2-x,1/2-y,1/2+z
1/2+x,1/2-y,1/2-z
1/2-x,1/2+y,1/2-z
1/2-x,1/2-y,1/2-z
1/2+x,1/2+y,1/2-z
1/2-x,1/2+y,1/2+z
1/2+x,1/2-y,1/2+z
loop_
_atom_site_type_symbol
_atom_site_label
_atom_site_fract_x
_atom_site_fract_y
_atom_site_fract_z
Si Si1 0.655136 0.706189 0.079087
Si Si2 0.755072 0.000000 0.607297
Si Si3 0.162942 0.000000 0.755255
Si Si4 0.835787 0.201961 0.809623
Si Si5 0.000000 0.500000 0.000000
O O1 0.500000 0.735441 0.100717
O O2 0.667965 0.596082 0.090910
O O3 0.770802 0.758616 0.122076
O O4 0.671595 0.723672 0.000000
O O5 0.741427 0.000000 0.688620
O O6 0.620701 0.000000 0.559601
O O7 0.182581 0.092326 0.798577
O O8 0.000000 0.000000 0.731767
O O9 0.750000 0.250000 0.750000
O O10 0.000000 0.222856 0.805291
#
# Coordination Sequence:
#
# PCOD9523848 Si02
#       5
#    16   8   8  16   2
#     4  11  23  40  62  89 123 167 206 249 315 377
#     4  12  22  37  60  86 134 157 202 251 312 372
#     4  10  22  42  62  87 120 165 206 249 309 371
#     4  11  23  39  63  90 122 160 208 256 306 368
#     4  12  28  36  50 108 128 162 208 252 324 360
#
# _framework density 18.140066000000001
#
# number of rings (size 3 to 8) (size 9 to 14) (size 15 to 20)
#    0.000    0.960    4.800    2.400    2.240    1.920 
#    2.880    0.800    0.000    4.800    0.000    0.000 
#    0.000    0.000    0.000    0.000    0.000    0.000 
#
# Total GULP energy -139339.265717 kJ/mol
# GULP energy per Si atom -5573.570629 kJ/mol
# Density = 1.809878 g / cm^3
# Si number density = 18.140066 Si / 1000 Ang^3
#
#
#
# Elastic Constant Matrix: (Units=GPa)
#
#
# Indices 1 2 3 4 5 6 
#
# 1 133.8944 65.9985 65.9637 0.0000 0.0000 0.0000
# 2 65.9985 107.8994 44.4482 0.0000 0.0000 0.0000
# 3 65.9637 44.4482 90.1838 0.0000 0.0000 0.0000
# 4 0.0000 0.0000 0.0000 19.0863 0.0000 0.0000
# 5 0.0000 0.0000 0.0000 0.0000 40.5999 0.0000
# 6 0.0000 0.0000 0.0000 0.0000 0.0000 -6.6230
#
#
#
# Elastic Compliance Matrix: (Units=1/GPa)
#
#
# Indices 1 2 3 4 5 6 
#
# 1 0.013773 -0.005364 -0.007431 0.000000 0.000000 0.000000
# 2 -0.005364 0.013718 -0.002838 0.000000 0.000000 0.000000
# 3 -0.007431 -0.002838 0.017922 0.000000 0.000000 0.000000
# 4 0.000000 0.000000 0.000000 0.052394 0.000000 0.000000
# 5 0.000000 0.000000 0.000000 0.000000 0.024631 0.000000
# 6 0.000000 0.000000 0.000000 0.000000 0.000000 -0.150989
#
#
# Mechanical properties :
#
#
# Convention : Reuss Voigt Hill
#
# Bulk Modulus (GPa) = 70.67704 76.08870 73.38287
# Shear Modulus (GPa) = 673.12108 20.98380 347.05244
#
# Velocity S-wave (km/s) = 19.28404 3.40481 13.84679
# Velocity P-wave (km/s) = 23.12745 7.58243 17.21005
#
# Compressibility (1/GPa) = 0.01414887
#
# Stress axis : x y z
#
# Youngs Moduli (GPa) = 72.60537 72.89898 55.79694
#
# Poissons Ratio (x) = 0.39100 0.41461
# Poissons Ratio (y) = 0.38942 0.15834
# Poissons Ratio (z) = 0.53950 0.20687
#
# Static dielectric constant tensor:
#      x y z
#    x 1.621230 0.000000 0.000000 
#    y 0.000000 1.612440 0.000000 
#    z 0.000000 0.000000 1.616530 
# 
# From -- ./inp_files/6927.got.cif
#   From: 2010.05.17/outbox.cif.g08.bks.cpg/sg71_4_cif.got.tgz:6927.got - 2010.06.03 16:22:01.
