data_PCOD9523678
_publ_section_title
;
Structure prediction by ZEFSAII (Michael W. Deem and Ramdas Pophale) SiO2 
 PCOD9523678
Probable space group: I M M M
;
_chemical_formula_sum "Si O2"
_cell_formula_units_Z 42
_cell_length_a 20.840857
_cell_length_b 12.977220
_cell_length_c 7.293093
_cell_angle_alpha 90.000000
_cell_angle_beta 90.000000
_cell_angle_gamma 90.000000
_cell_volume 1972.463578
_symmetry_space_group_name_H-M "I M M M"
_symmetry_group_IT_number 71
_symmetry_cell_setting 'orthorhombic'
loop_
_space_group_symop_operation_xyz
x,y,z
-x,-y,z
x,-y,-z
-x,y,-z
-x,-y,-z
x,y,-z
-x,y,z
x,-y,z
1/2+x,1/2+y,1/2+z
1/2-x,1/2-y,1/2+z
1/2+x,1/2-y,1/2-z
1/2-x,1/2+y,1/2-z
1/2-x,1/2-y,1/2-z
1/2+x,1/2+y,1/2-z
1/2-x,1/2+y,1/2+z
1/2+x,1/2-y,1/2+z
loop_
_atom_site_type_symbol
_atom_site_label
_atom_site_fract_x
_atom_site_fract_y
_atom_site_fract_z
Si Si1 0.427231 0.381823 0.723282
Si Si2 0.000000 0.500000 0.500000
Si Si3 0.621065 0.000000 0.276115
Si Si4 0.822993 0.281608 0.782612
O O1 0.426642 0.381883 0.500000
O O2 0.500000 0.353316 0.778040
O O3 0.414878 0.500000 0.779547
O O4 0.374073 0.301884 0.789759
O O5 0.944011 0.500000 0.661463
O O6 0.660050 0.897007 0.224311
O O7 0.610844 0.000000 0.500000
O O8 0.750000 0.250000 0.750000
O O9 0.832149 0.281212 0.000000
#
# Coordination Sequence:
#
# PCOD9523678 Si02
#       4
#    16   2   8  16
#     4   8  15  30  54  83 110 147 202 256 309 371
#     4  12  26  44  76  98 134 172 224 284 324 432
#     4  10  25  45  65 100 134 172 221 277 340 389
#     4  10  22  38  60  87 126 169 210 264 322 389
#
# _framework density 21.293168000000001
#
# number of rings (size 3 to 8) (size 9 to 14) (size 15 to 20)
#    0.000    2.667    0.000    1.429    8.000    0.000 
#    0.000    0.000    0.000    0.000    0.000    4.000 
#    0.000    0.000    0.000    0.000    0.000    0.000 
#
# Total GULP energy -116992.322067 kJ/mol
# GULP energy per Si atom -5571.062956 kJ/mol
# Density = 2.124470 g / cm^3
# Si number density = 21.293168 Si / 1000 Ang^3
#
#
#
# Elastic Constant Matrix: (Units=GPa)
#
#
# Indices 1 2 3 4 5 6 
#
# 1 231.3219 172.2046 19.5393 0.0000 0.0000 0.0000
# 2 172.2046 205.5071 21.3504 0.0000 0.0000 0.0000
# 3 19.5393 21.3504 102.0716 0.0000 0.0000 0.0000
# 4 0.0000 0.0000 0.0000 -20.9127 0.0000 0.0000
# 5 0.0000 0.0000 0.0000 0.0000 32.5179 0.0000
# 6 0.0000 0.0000 0.0000 0.0000 0.0000 5.3735
#
#
#
# Elastic Compliance Matrix: (Units=1/GPa)
#
#
# Indices 1 2 3 4 5 6 
#
# 1 0.011495 -0.009612 -0.000190 0.000000 0.000000 0.000000
# 2 -0.009612 0.013012 -0.000882 0.000000 0.000000 0.000000
# 3 -0.000190 -0.000882 0.010018 0.000000 0.000000 0.000000
# 4 0.000000 0.000000 0.000000 -0.047818 0.000000 0.000000
# 5 0.000000 0.000000 0.000000 0.000000 0.030752 0.000000
# 6 0.000000 0.000000 0.000000 0.000000 0.000000 0.186100
#
#
# Mechanical properties :
#
#
# Convention : Reuss Voigt Hill
#
# Bulk Modulus (GPa) = 76.00425 107.23211 91.61818
# Shear Modulus (GPa) = 21.80429 25.11615 23.46022
#
# Velocity S-wave (km/s) = 3.20348 3.43817 3.32290
# Velocity P-wave (km/s) = 7.03240 8.13821 7.60543
#
# Compressibility (1/GPa) = 0.01315716
#
# Stress axis : x y z
#
# Youngs Moduli (GPa) = 86.99593 76.85056 99.82221
#
# Poissons Ratio (x) = 0.73871 0.01895
# Poissons Ratio (y) = 0.83623 0.08801
# Poissons Ratio (z) = 0.01651 0.06776
#
# Static dielectric constant tensor:
#      x y z
#    x 1.750780 0.000000 0.000000 
#    y 0.000000 1.763840 0.000000 
#    z 0.000000 0.000000 1.843700 
# 
# From -- ./inp_files/9137.got.cif
#   From: 2010.05.17/outbox.cif.g08.bks.cpg/sg71_5_cif.got.tgz:9137.got - 2010.06.03 16:22:01.
