data_PCOD9523671
_publ_section_title
;
Structure prediction by ZEFSAII (Michael W. Deem and Ramdas Pophale) SiO2 
 PCOD9523671
Probable space group: I M M M
;
_chemical_formula_sum "Si O2"
_cell_formula_units_Z 50
_cell_length_a 12.763423
_cell_length_b 12.359028
_cell_length_c 18.992532
_cell_angle_alpha 90.000000
_cell_angle_beta 90.000000
_cell_angle_gamma 90.000000
_cell_volume 2995.948514
_symmetry_space_group_name_H-M "I M M M"
_symmetry_group_IT_number 71
_symmetry_cell_setting 'orthorhombic'
loop_
_space_group_symop_operation_xyz
x,y,z
-x,-y,z
x,-y,-z
-x,y,-z
-x,-y,-z
x,y,-z
-x,y,z
x,-y,z
1/2+x,1/2+y,1/2+z
1/2-x,1/2-y,1/2+z
1/2+x,1/2-y,1/2-z
1/2-x,1/2+y,1/2-z
1/2-x,1/2-y,1/2-z
1/2+x,1/2+y,1/2-z
1/2-x,1/2+y,1/2+z
1/2+x,1/2-y,1/2+z
loop_
_atom_site_type_symbol
_atom_site_label
_atom_site_fract_x
_atom_site_fract_y
_atom_site_fract_z
Si Si1 0.884214 0.724687 0.500000
Si Si2 0.624176 0.372103 0.274664
Si Si3 0.000000 0.500000 0.500000
Si Si4 0.623117 0.000000 0.415322
Si Si5 0.744801 0.295601 0.136569
O O1 0.820916 0.758491 0.430903
O O2 0.000000 0.778638 0.500000
O O3 0.910525 0.597070 0.500000
O O4 0.500000 0.352234 0.279037
O O5 0.643120 0.500000 0.283432
O O6 0.667972 0.335116 0.198808
O O7 0.686283 0.302076 0.332087
O O8 0.679937 0.894413 0.384745
O O9 0.500000 0.000000 0.397665
O O10 0.633424 0.000000 0.500000
#
# Coordination Sequence:
#
# PCOD9523671 Si02
#       5
#     8  16   2   8  16
#     4  10  22  39  62  87 115 151 201 245 296 348
#     4  10  22  38  58  85 118 153 196 244 293 357
#     4   8  24  40  56  90 122 148 192 254 286 364
#     4  11  22  38  59  88 122 154 198 247 296 362
#     4  11  21  39  61  86 116 159 194 246 301 349
#
# _framework density 16.689205000000001
#
# number of rings (size 3 to 8) (size 9 to 14) (size 15 to 20)
#    0.480    1.120    3.200    1.920    2.240    0.000 
#    0.000    0.800    7.040    1.920    0.000    0.000 
#    0.000    0.000    0.000    0.000    0.000    0.000 
#
# Total GULP energy -139231.953523 kJ/mol
# GULP energy per Si atom -5569.278141 kJ/mol
# Density = 1.665122 g / cm^3
# Si number density = 16.689205 Si / 1000 Ang^3
#
#
#
# Elastic Constant Matrix: (Units=GPa)
#
#
# Indices 1 2 3 4 5 6 
#
# 1 156.9924 102.6752 98.0514 0.0000 0.0000 0.0000
# 2 102.6752 143.0731 79.3774 0.0000 0.0000 0.0000
# 3 98.0514 79.3774 142.9700 0.0000 0.0000 0.0000
# 4 0.0000 0.0000 0.0000 5.6490 0.0000 0.0000
# 5 0.0000 0.0000 0.0000 0.0000 20.5280 0.0000
# 6 0.0000 0.0000 0.0000 0.0000 0.0000 28.8004
#
#
#
# Elastic Compliance Matrix: (Units=1/GPa)
#
#
# Indices 1 2 3 4 5 6 
#
# 1 0.015096 -0.007355 -0.006269 0.000000 0.000000 0.000000
# 2 -0.007355 0.013684 -0.002553 0.000000 0.000000 0.000000
# 3 -0.006269 -0.002553 0.012712 0.000000 0.000000 0.000000
# 4 0.000000 0.000000 0.000000 0.177022 0.000000 0.000000
# 5 0.000000 0.000000 0.000000 0.000000 0.048714 0.000000
# 6 0.000000 0.000000 0.000000 0.000000 0.000000 0.034722
#
#
# Mechanical properties :
#
#
# Convention : Reuss Voigt Hill
#
# Bulk Modulus (GPa) = 109.45413 111.47151 110.46282
# Shear Modulus (GPa) = 14.82141 21.85759 18.33950
#
# Velocity S-wave (km/s) = 2.98331 3.62288 3.31854
# Velocity P-wave (km/s) = 8.80869 9.18901 9.00086
#
# Compressibility (1/GPa) = 0.00913625
#
# Stress axis : x y z
#
# Youngs Moduli (GPa) = 66.24468 73.07644 78.66747
#
# Poissons Ratio (x) = 0.53747 0.49319
# Poissons Ratio (y) = 0.48723 0.20087
# Poissons Ratio (z) = 0.41531 0.18659
#
# Static dielectric constant tensor:
#      x y z
#    x 1.545130 0.000000 0.000000 
#    y 0.000000 1.534280 0.000000 
#    z 0.000000 0.000000 1.532800 
# 
# From -- ./inp_files/51378.got.cif
#   From: 2010.05.17/outbox.cif.g08.bks.cpg/sg71_26_cif.got.tgz:51378.got - 2010.06.03 16:22:01.
