data_PCOD9523128
_publ_section_title
;
Structure prediction by ZEFSAII (Michael W. Deem and Ramdas Pophale) SiO2 
 PCOD9523128
Probable space group: I M M M
;
_chemical_formula_sum "Si O2"
_cell_formula_units_Z 64
_cell_length_a 9.563423
_cell_length_b 42.654597
_cell_length_c 8.515326
_cell_angle_alpha 90.000000
_cell_angle_beta 90.000000
_cell_angle_gamma 90.000000
_cell_volume 3473.605452
_symmetry_space_group_name_H-M "I M M M"
_symmetry_group_IT_number 71
_symmetry_cell_setting 'orthorhombic'
loop_
_space_group_symop_operation_xyz
x,y,z
-x,-y,z
x,-y,-z
-x,y,-z
-x,-y,-z
x,y,-z
-x,y,z
x,-y,z
1/2+x,1/2+y,1/2+z
1/2-x,1/2-y,1/2+z
1/2+x,1/2-y,1/2-z
1/2-x,1/2+y,1/2-z
1/2-x,1/2-y,1/2-z
1/2+x,1/2+y,1/2-z
1/2-x,1/2+y,1/2+z
1/2+x,1/2-y,1/2+z
loop_
_atom_site_type_symbol
_atom_site_label
_atom_site_fract_x
_atom_site_fract_y
_atom_site_fract_z
Si Si1 0.837173 0.965333 0.191305
Si Si2 0.163691 0.594599 0.689082
Si Si3 0.837423 0.662718 0.187667
Si Si4 0.661221 0.720699 0.312002
O O1 0.749690 0.935505 0.245734
O O2 0.000000 0.962211 0.234244
O O3 0.787799 0.000000 0.242323
O O4 0.830854 0.965252 0.000000
O O5 0.178367 0.596873 0.500000
O O6 0.206777 0.627799 0.761703
O O7 0.000000 0.590011 0.724633
O O8 0.738231 0.689054 0.258969
O O9 0.000000 0.667092 0.239515
O O10 0.834787 0.665247 0.000000
O O11 0.659638 0.722024 0.500000
O O12 0.500000 0.721862 0.256265
O O13 0.750000 0.750000 0.250000
#
# Coordination Sequence:
#
# PCOD9523128 Si02
#       4
#    16  16  16  16
#     4   8  14  25  42  66  96 128 163 207 258 308
#     4   9  17  29  47  72 100 130 166 210 259 308
#     4  10  21  37  56  78 106 140 177 216 259 308
#     4  11  24  40  59  84 111 139 173 212 255 304
#
# _framework density 18.424659999999999
#
# number of rings (size 3 to 8) (size 9 to 14) (size 15 to 20)
#    0.000    2.500    0.000    3.000    0.000    8.000 
#    0.000    5.000    0.000    0.750    0.000    5.250 
#    0.000    0.000    0.000    0.000    0.000    0.000 
#
# Total GULP energy -178541.962297 kJ/mol
# GULP energy per Si atom -5579.436322 kJ/mol
# Density = 1.838273 g / cm^3
# Si number density = 18.424660 Si / 1000 Ang^3
#
#
#
# Elastic Constant Matrix: (Units=GPa)
#
#
# Indices 1 2 3 4 5 6 
#
# 1 108.6862 114.3748 29.3689 0.0025 -0.0006 -0.0002
# 2 114.3748 200.4566 37.7707 0.0077 0.0025 0.0014
# 3 29.3689 37.7707 19.8741 0.0100 0.0015 0.0007
# 4 0.0025 0.0077 0.0100 23.3384 0.0013 0.0008
# 5 -0.0006 0.0025 0.0015 0.0013 17.5912 0.0014
# 6 -0.0002 0.0014 0.0007 0.0008 0.0014 42.7085
#
#
#
# Elastic Compliance Matrix: (Units=1/GPa)
#
#
# Indices 1 2 3 4 5 6 
#
# 1 0.025883 -0.011779 -0.015862 0.000008 0.000004 0.000001
# 2 -0.011779 0.013132 -0.007551 0.000000 -0.000002 0.000000
# 3 -0.015862 -0.007551 0.088108 -0.000033 -0.000007 -0.000001
# 4 0.000008 0.000000 -0.000033 0.042848 -0.000003 -0.000001
# 5 0.000004 -0.000002 -0.000007 -0.000003 0.056847 -0.000002
# 6 0.000001 0.000000 -0.000001 -0.000001 -0.000002 0.023415
#
#
# Mechanical properties :
#
#
# Convention : Reuss Voigt Hill
#
# Bulk Modulus (GPa) = 17.62480 76.89397 47.25939
# Shear Modulus (GPa) = 14.72630 26.56112 20.64371
#
# Velocity S-wave (km/s) = 2.83021 3.80097 3.35093
# Velocity P-wave (km/s) = 4.50186 7.81588 6.37788
#
# Compressibility (1/GPa) = 0.05673822
#
# Stress axis : x y z
#
# Youngs Moduli (GPa) = 38.63603 76.14818 11.34975
#
# Poissons Ratio (x) = 0.89696 0.18003
# Poissons Ratio (y) = 0.45510 0.08571
# Poissons Ratio (z) = 0.61283 0.57502
#
# Static dielectric constant tensor:
#      x y z
#    x 1.625870 0.000000 0.000000 
#    y 0.000000 1.619010 0.000000 
#    z 0.000000 0.000000 1.640710 
# 
# From -- ./inp_files/3717.got.cif
#   From: 2010.05.17/outbox.cif.g08.bks.cpg/sg71_2_cif.got.tgz:3717.got - 2010.06.03 16:22:01.
