data_PCOD9523193
_publ_section_title
;
Structure prediction by ZEFSAII (Michael W. Deem and Ramdas Pophale) SiO2 
 PCOD9523193
Probable space group: I M M M
;
_chemical_formula_sum "Si O2"
_cell_formula_units_Z 104
_cell_length_a 22.221635
_cell_length_b 8.347761
_cell_length_c 27.631691
_cell_angle_alpha 90.000000
_cell_angle_beta 90.000000
_cell_angle_gamma 90.000000
_cell_volume 5125.703494
_symmetry_space_group_name_H-M "I M M M"
_symmetry_group_IT_number 71
_symmetry_cell_setting 'orthorhombic'
loop_
_space_group_symop_operation_xyz
x,y,z
-x,-y,z
x,-y,-z
-x,y,-z
-x,-y,-z
x,y,-z
-x,y,z
x,-y,z
1/2+x,1/2+y,1/2+z
1/2-x,1/2-y,1/2+z
1/2+x,1/2-y,1/2-z
1/2-x,1/2+y,1/2-z
1/2-x,1/2-y,1/2-z
1/2+x,1/2+y,1/2-z
1/2-x,1/2+y,1/2+z
1/2+x,1/2-y,1/2+z
loop_
_atom_site_type_symbol
_atom_site_label
_atom_site_fract_x
_atom_site_fract_y
_atom_site_fract_z
Si Si1 0.893006 0.808059 0.376253
Si Si2 0.808031 0.192019 0.780502
Si Si3 0.068830 0.307049 0.054171
Si Si4 0.000000 0.194741 0.554068
Si Si5 0.208573 0.693604 0.554266
Si Si6 0.821851 0.807855 0.110840
Si Si7 0.069826 0.690748 0.729564
O O1 0.942274 0.757487 0.415718
O O2 0.831609 0.755980 0.401560
O O3 0.911071 0.730958 0.325525
O O4 0.894322 0.000000 0.370103
O O5 0.750000 0.250000 0.750000
O O6 0.803602 0.251122 0.835976
O O7 0.874074 0.241574 0.760582
O O8 0.805756 0.000000 0.779841
O O9 0.070212 0.500000 0.054389
O O10 0.112384 0.244307 0.095140
O O11 0.000000 0.256646 0.061631
O O12 0.087320 0.253163 0.000000
O O13 0.000000 0.257966 0.500000
O O14 0.000000 0.000000 0.551928
O O15 0.191770 0.750407 0.500000
O O16 0.204883 0.500000 0.553837
O O17 0.275823 0.743685 0.568889
O O18 0.819430 0.000000 0.112650
O O19 0.068960 0.500000 0.736286
O O20 0.000000 0.748438 0.737968
#
# Coordination Sequence:
#
# PCOD9523193 Si02
#       7
#    16  16  16   8  16  16  16
#     4  11  21  36  59  85 117 155 198 247 299 353
#     4  11  24  42  65  92 123 158 202 256 312 371
#     4   9  19  36  58  86 120 155 191 234 284 343
#     4   9  18  32  51  79 115 149 185 235 290 345
#     4  10  21  37  57  84 121 160 197 241 294 354
#     4  10  22  39  59  85 116 151 192 242 294 348
#     4  11  24  42  64  89 121 161 207 258 311 369
#
# _framework density 20.289898999999998
#
# number of rings (size 3 to 8) (size 9 to 14) (size 15 to 20)
#    0.000    1.769    0.769    3.692    0.000    6.769 
#    0.000    3.846    0.000    1.846    0.000    0.000 
#    0.000    0.000    0.000    0.000    0.000    0.000 
#
# Total GULP energy -290232.567180 kJ/mol
# GULP energy per Si atom -5581.395523 kJ/mol
# Density = 2.024372 g / cm^3
# Si number density = 20.289899 Si / 1000 Ang^3
#
#
#
# Elastic Constant Matrix: (Units=GPa)
#
#
# Indices 1 2 3 4 5 6 
#
# 1 113.5306 14.1436 37.7287 0.0000 0.0000 0.0000
# 2 14.1436 21.6211 10.9285 0.0000 0.0000 0.0000
# 3 37.7287 10.9285 67.6456 0.0000 0.0000 0.0000
# 4 0.0000 0.0000 0.0000 21.8410 0.0000 0.0000
# 5 0.0000 0.0000 0.0000 0.0000 41.4544 0.0000
# 6 0.0000 0.0000 0.0000 0.0000 0.0000 34.9360
#
#
#
# Elastic Compliance Matrix: (Units=1/GPa)
#
#
# Indices 1 2 3 4 5 6 
#
# 1 0.011208 -0.004543 -0.005517 0.000000 0.000000 0.000000
# 2 -0.004543 0.052205 -0.005900 0.000000 0.000000 0.000000
# 3 -0.005517 -0.005900 0.018813 0.000000 0.000000 0.000000
# 4 0.000000 0.000000 0.000000 0.045786 0.000000 0.000000
# 5 0.000000 0.000000 0.000000 0.000000 0.024123 0.000000
# 6 0.000000 0.000000 0.000000 0.000000 0.000000 0.028624
#
#
# Mechanical properties :
#
#
# Convention : Reuss Voigt Hill
#
# Bulk Modulus (GPa) = 19.87851 36.48878 28.18364
# Shear Modulus (GPa) = 21.79155 28.97938 25.38546
#
# Velocity S-wave (km/s) = 3.28076 3.78334 3.54098
# Velocity P-wave (km/s) = 4.91627 6.09160 5.53522
#
# Compressibility (1/GPa) = 0.05030558
#
# Stress axis : x y z
#
# Youngs Moduli (GPa) = 89.22545 19.15523 53.15422
#
# Poissons Ratio (x) = 0.08702 0.29325
# Poissons Ratio (y) = 0.40534 0.31362
# Poissons Ratio (z) = 0.49226 0.11302
#
# Static dielectric constant tensor:
#      x y z
#    x 1.576000 0.000000 0.000000 
#    y 0.000000 1.708050 0.000000 
#    z 0.000000 0.000000 1.736970 
# 
# From -- ./inp_files/11043.got.cif
#   From: 2010.05.17/outbox.cif.g08.bks.cpg/sg71_6_cif.got.tgz:11043.got - 2010.06.03 16:22:01.
