data_PCOD9523158
_publ_section_title
;
Structure prediction by ZEFSAII (Michael W. Deem and Ramdas Pophale) SiO2 
 PCOD9523158
Probable space group: I M M M
;
_chemical_formula_sum "Si O2"
_cell_formula_units_Z 80
_cell_length_a 13.770994
_cell_length_b 21.736823
_cell_length_c 13.401824
_cell_angle_alpha 90.000000
_cell_angle_beta 90.000000
_cell_angle_gamma 90.000000
_cell_volume 4011.670624
_symmetry_space_group_name_H-M "I M M M"
_symmetry_group_IT_number 71
_symmetry_cell_setting 'orthorhombic'
loop_
_space_group_symop_operation_xyz
x,y,z
-x,-y,z
x,-y,-z
-x,y,-z
-x,-y,-z
x,y,-z
-x,y,z
x,-y,z
1/2+x,1/2+y,1/2+z
1/2-x,1/2-y,1/2+z
1/2+x,1/2-y,1/2-z
1/2-x,1/2+y,1/2-z
1/2-x,1/2-y,1/2-z
1/2+x,1/2+y,1/2-z
1/2-x,1/2+y,1/2+z
1/2+x,1/2-y,1/2+z
loop_
_atom_site_type_symbol
_atom_site_label
_atom_site_fract_x
_atom_site_fract_y
_atom_site_fract_z
Si Si1 0.809407 0.432857 0.188514
Si Si2 0.884272 0.384054 0.616008
Si Si3 0.190704 0.751161 0.621256
Si Si4 0.892696 0.303903 0.880482
Si Si5 0.608684 0.617135 0.879329
O O1 0.839424 0.500000 0.151197
O O2 0.831283 0.427508 0.305896
O O3 0.865627 0.374987 0.140728
O O4 0.696205 0.421746 0.166043
O O5 0.858517 0.393728 0.500000
O O6 0.854609 0.314468 0.646291
O O7 0.000000 0.391010 0.625270
O O8 0.192163 0.751773 0.500000
O O9 0.302060 0.762397 0.654756
O O10 0.129352 0.811600 0.648539
O O11 0.000000 0.289371 0.840696
O O12 0.895781 0.296739 0.000000
O O13 0.500000 0.599121 0.849770
O O14 0.615491 0.612752 0.000000
#
# Coordination Sequence:
#
# PCOD9523158 Si02
#       5
#    16  16  16  16  16
#     4  11  23  36  50  73 106 141 181 223 256 296
#     4  10  21  37  57  78 101 135 179 226 272 311
#     4   8  15  31  54  79 106 133 167 214 266 319
#     4   9  18  32  51  78 111 141 166 201 258 325
#     4   9  18  34  58  86 112 137 166 206 261 323
#
# _framework density 19.941817
#
# number of rings (size 3 to 8) (size 9 to 14) (size 15 to 20)
#    0.000    2.600    0.000    3.000    0.000    9.600 
#    0.000    6.000    0.000    1.800    0.000    1.400 
#    0.000    0.000    0.000    0.000    0.000    0.000 
#
# Total GULP energy -223356.750991 kJ/mol
# GULP energy per Si atom -5583.918775 kJ/mol
# Density = 1.989643 g / cm^3
# Si number density = 19.941817 Si / 1000 Ang^3
#
#
#
# Elastic Constant Matrix: (Units=GPa)
#
#
# Indices 1 2 3 4 5 6 
#
# 1 123.0130 12.7334 35.2549 0.0000 0.0000 0.0000
# 2 12.7334 58.5503 3.3417 0.0001 0.0000 0.0000
# 3 35.2549 3.3417 54.4965 0.0001 0.0000 0.0000
# 4 0.0000 0.0001 0.0001 6.9909 0.0000 0.0000
# 5 0.0000 0.0000 0.0000 0.0000 31.1184 0.0000
# 6 0.0000 0.0000 0.0000 0.0000 0.0000 0.3471
#
#
#
# Elastic Compliance Matrix: (Units=1/GPa)
#
#
# Indices 1 2 3 4 5 6 
#
# 1 0.010174 -0.001843 -0.006469 0.000000 0.000000 0.000000
# 2 -0.001843 0.017473 0.000121 0.000000 0.000000 0.000000
# 3 -0.006469 0.000121 0.022527 0.000000 0.000000 -0.000001
# 4 0.000000 0.000000 0.000000 0.143043 0.000000 -0.000002
# 5 0.000000 0.000000 0.000000 0.000000 0.032135 0.000001
# 6 0.000000 0.000000 -0.000001 -0.000002 0.000001 2.880883
#
#
# Mechanical properties :
#
#
# Convention : Reuss Voigt Hill
#
# Bulk Modulus (GPa) = 29.59249 37.63552 33.61400
# Shear Modulus (GPa) = 1.59547 20.00661 10.80104
#
# Velocity S-wave (km/s) = 0.89543 3.17085 2.32981
# Velocity P-wave (km/s) = 3.99258 5.68501 4.91223
#
# Compressibility (1/GPa) = 0.03379236
#
# Stress axis : x y z
#
# Youngs Moduli (GPa) = 98.29035 57.23005 44.39094
#
# Poissons Ratio (x) = 0.10550 0.28715
# Poissons Ratio (y) = 0.18119 -0.00538
# Poissons Ratio (z) = 0.63581 -0.00693
#
# Static dielectric constant tensor:
#      x y z
#    x 1.695030 0.000000 0.000000 
#    y 0.000000 1.688370 0.000000 
#    z 0.000000 0.000000 1.767130 
# 
# From -- ./inp_files/34264.got.cif
#   From: 2010.05.17/outbox.cif.g08.bks.cpg/sg71_18_cif.got.tgz:34264.got - 2010.06.03 16:22:01.
