data_PCOD9523950
_publ_section_title
;
Structure prediction by ZEFSAII (Michael W. Deem and Ramdas Pophale) SiO2 
 PCOD9523950
Probable space group: I M M M
;
_chemical_formula_sum "Si O2"
_cell_formula_units_Z 72
_cell_length_a 16.852262
_cell_length_b 18.520385
_cell_length_c 11.839289
_cell_angle_alpha 90.000000
_cell_angle_beta 90.000000
_cell_angle_gamma 90.000000
_cell_volume 3695.164993
_symmetry_space_group_name_H-M "I M M M"
_symmetry_group_IT_number 71
_symmetry_cell_setting 'orthorhombic'
loop_
_space_group_symop_operation_xyz
x,y,z
-x,-y,z
x,-y,-z
-x,y,-z
-x,-y,-z
x,y,-z
-x,y,z
x,-y,z
1/2+x,1/2+y,1/2+z
1/2-x,1/2-y,1/2+z
1/2+x,1/2-y,1/2-z
1/2-x,1/2+y,1/2-z
1/2-x,1/2-y,1/2-z
1/2+x,1/2+y,1/2-z
1/2-x,1/2+y,1/2+z
1/2+x,1/2-y,1/2+z
loop_
_atom_site_type_symbol
_atom_site_label
_atom_site_fract_x
_atom_site_fract_y
_atom_site_fract_z
Si Si1 0.337720 0.349547 0.715724
Si Si2 0.744082 0.582286 0.500000
Si Si3 0.000000 0.913982 0.868301
Si Si4 0.407534 0.805392 0.751416
Si Si5 0.207072 0.584431 0.134706
Si Si6 0.587379 0.864298 0.000000
O O1 0.286121 0.374541 0.608537
O O2 0.422390 0.386908 0.696194
O O3 0.356199 0.264881 0.720990
O O4 0.287815 0.378109 0.821741
O O5 0.712826 0.500000 0.500000
O O6 0.838772 0.582398 0.500000
O O7 0.000000 0.000000 0.871878
O O8 0.000000 0.887967 0.000000
O O9 0.500000 0.797012 0.717097
O O10 0.365805 0.873599 0.692672
O O11 0.406391 0.817364 0.886210
O O12 0.207993 0.500000 0.168058
O O13 0.200622 0.589288 0.000000
O O14 0.500000 0.898795 0.000000
#
# Coordination Sequence:
#
# PCOD9523950 Si02
#       6
#    16   8   8  16  16   8
#     4  12  24  41  67  97 137 170 220 273 329 390
#     4  12  24  40  70 102 129 171 220 273 337 390
#     4  11  22  38  63  97 136 172 216 274 331 390
#     4  11  25  44  68  99 131 174 220 271 331 391
#     4  11  26  45  68  97 132 175 223 269 324 396
#     4  10  24  43  67  99 135 167 220 271 330 387
#
# _framework density 19.484921
#
# number of rings (size 3 to 8) (size 9 to 14) (size 15 to 20)
#    0.000    0.778    4.444    2.667    3.111    1.111 
#    0.000    3.889    0.000    2.000    0.000    0.000 
#    0.000    0.000    0.000    0.000    0.000    0.000 
#
# Total GULP energy -201245.570107 kJ/mol
# GULP energy per Si atom -5590.154725 kJ/mol
# Density = 1.944057 g / cm^3
# Si number density = 19.484921 Si / 1000 Ang^3
#
#
#
# Elastic Constant Matrix: (Units=GPa)
#
#
# Indices 1 2 3 4 5 6 
#
# 1 143.7513 57.1771 38.5504 0.0000 0.0000 0.0000
# 2 57.1771 125.7308 36.1999 0.0000 0.0000 0.0000
# 3 38.5504 36.1999 76.8388 0.0000 0.0000 0.0000
# 4 0.0000 0.0000 0.0000 10.7858 0.0000 0.0000
# 5 0.0000 0.0000 0.0000 0.0000 15.3729 0.0000
# 6 0.0000 0.0000 0.0000 0.0000 0.0000 43.2866
#
#
#
# Elastic Compliance Matrix: (Units=1/GPa)
#
#
# Indices 1 2 3 4 5 6 
#
# 1 0.009058 -0.003252 -0.003012 0.000000 0.000000 0.000000
# 2 -0.003252 0.010369 -0.003254 0.000000 0.000000 0.000000
# 3 -0.003012 -0.003254 0.016058 0.000000 0.000000 0.000000
# 4 0.000000 0.000000 0.000000 0.092715 0.000000 0.000000
# 5 0.000000 0.000000 0.000000 0.000000 0.065050 0.000000
# 6 0.000000 0.000000 0.000000 0.000000 0.000000 0.023102
#
#
# Mechanical properties :
#
#
# Convention : Reuss Voigt Hill
#
# Bulk Modulus (GPa) = 60.79125 67.79732 64.29428
# Shear Modulus (GPa) = 20.75810 28.18195 24.47002
#
# Velocity S-wave (km/s) = 3.26750 3.80721 3.54763
# Velocity P-wave (km/s) = 6.74554 7.36185 7.06042
#
# Compressibility (1/GPa) = 0.01644973
#
# Stress axis : x y z
#
# Youngs Moduli (GPa) = 110.40363 96.44114 62.27282
#
# Poissons Ratio (x) = 0.31360 0.18759
# Poissons Ratio (y) = 0.35901 0.20261
# Poissons Ratio (z) = 0.33257 0.31378
#
# Static dielectric constant tensor:
#      x y z
#    x 1.694770 0.000000 0.000000 
#    y 0.000000 1.659030 0.000000 
#    z 0.000000 0.000000 1.684070 
# 
# From -- ./inp_files/23540.got.cif
#   From: 2010.05.17/outbox.cif.g08.bks.cpg/sg71_12_cif.got.tgz:23540.got - 2010.06.03 16:22:01.
