data_PCOD9523378
_publ_section_title
;
Structure prediction by ZEFSAII (Michael W. Deem and Ramdas Pophale) SiO2 
 PCOD9523378
Probable space group: I M M M
;
_chemical_formula_sum "Si O2"
_cell_formula_units_Z 88
_cell_length_a 8.202652
_cell_length_b 19.833779
_cell_length_c 24.753188
_cell_angle_alpha 90.000000
_cell_angle_beta 90.000000
_cell_angle_gamma 90.000000
_cell_volume 4027.085932
_symmetry_space_group_name_H-M "I M M M"
_symmetry_group_IT_number 71
_symmetry_cell_setting 'orthorhombic'
loop_
_space_group_symop_operation_xyz
x,y,z
-x,-y,z
x,-y,-z
-x,y,-z
-x,-y,-z
x,y,-z
-x,y,z
x,-y,z
1/2+x,1/2+y,1/2+z
1/2-x,1/2-y,1/2+z
1/2+x,1/2-y,1/2-z
1/2-x,1/2+y,1/2-z
1/2-x,1/2-y,1/2-z
1/2+x,1/2+y,1/2-z
1/2-x,1/2+y,1/2+z
1/2+x,1/2-y,1/2+z
loop_
_atom_site_type_symbol
_atom_site_label
_atom_site_fract_x
_atom_site_fract_y
_atom_site_fract_z
Si Si1 0.000000 0.926535 0.064731
Si Si2 0.812641 0.285336 0.674060
Si Si3 0.696767 0.640002 0.171792
Si Si4 0.304195 0.426645 0.720898
Si Si5 0.803426 0.421431 0.940124
Si Si6 0.316619 0.160972 0.062197
O O1 0.832259 0.888395 0.075975
O O2 0.000000 0.000000 0.090445
O O3 0.000000 0.932867 0.000000
O O4 0.737713 0.213657 0.690377
O O5 0.741883 0.357194 0.691284
O O6 0.809747 0.283272 0.608448
O O7 0.000000 0.286768 0.691742
O O8 0.500000 0.644383 0.173101
O O9 0.746377 0.585712 0.216775
O O10 0.745838 0.619382 0.111788
O O11 0.500000 0.429344 0.718743
O O12 0.241213 0.500000 0.701792
O O13 0.753250 0.500000 0.934503
O O14 0.000000 0.419869 0.940306
O O15 0.748412 0.397827 0.000000
O O16 0.500000 0.130439 0.065916
O O17 0.295763 0.183569 0.000000
#
# Coordination Sequence:
#
# PCOD9523378 Si02
#       6
#     8  16  16  16  16  16
#     4   9  18  32  52  78 106 144 193 235 282 348
#     4  10  22  38  58  85 114 150 194 240 294 355
#     4  10  21  38  60  86 117 153 195 240 290 349
#     4  10  22  39  59  84 114 149 191 243 298 350
#     4   9  19  36  57  86 125 162 196 236 283 339
#     4   9  19  36  55  79 115 152 189 239 294 350
#
# _framework density 21.852029999999999
#
# number of rings (size 3 to 8) (size 9 to 14) (size 15 to 20)
#    0.000    2.455    0.000    1.636    1.273    5.091 
#    0.000    6.364    0.000    0.000    0.000    0.000 
#    0.000    0.000    0.000    0.000    0.000    0.000 
#
# Total GULP energy -245292.114101 kJ/mol
# GULP energy per Si atom -5574.820775 kJ/mol
# Density = 2.180229 g / cm^3
# Si number density = 21.852030 Si / 1000 Ang^3
#
#
#
# Elastic Constant Matrix: (Units=GPa)
#
#
# Indices 1 2 3 4 5 6 
#
# 1 45.1733 18.7785 4.9294 0.0000 0.0000 0.0000
# 2 18.7785 122.9085 41.7257 0.0000 0.0000 0.0000
# 3 4.9294 41.7257 106.9909 0.0000 0.0000 0.0000
# 4 0.0000 0.0000 0.0000 27.1589 0.0000 0.0000
# 5 0.0000 0.0000 0.0000 0.0000 19.7039 0.0000
# 6 0.0000 0.0000 0.0000 0.0000 0.0000 20.5950
#
#
#
# Elastic Compliance Matrix: (Units=1/GPa)
#
#
# Indices 1 2 3 4 5 6 
#
# 1 0.023651 -0.003739 0.000368 0.000000 0.000000 0.000000
# 2 -0.003739 0.009969 -0.003715 0.000000 0.000000 0.000000
# 3 0.000368 -0.003715 0.010779 0.000000 0.000000 0.000000
# 4 0.000000 0.000000 0.000000 0.036820 0.000000 0.000000
# 5 0.000000 0.000000 0.000000 0.000000 0.050751 0.000000
# 6 0.000000 0.000000 0.000000 0.000000 0.000000 0.048555
#
#
# Mechanical properties :
#
#
# Convention : Reuss Voigt Hill
#
# Bulk Modulus (GPa) = 33.08319 45.10443 39.09381
# Shear Modulus (GPa) = 24.41736 27.46749 25.94242
#
# Velocity S-wave (km/s) = 3.34637 3.54923 3.44929
# Velocity P-wave (km/s) = 5.48666 6.12223 5.81314
#
# Compressibility (1/GPa) = 0.03022683
#
# Stress axis : x y z
#
# Youngs Moduli (GPa) = 42.28174 100.31426 92.77618
#
# Poissons Ratio (x) = 0.37503 -0.03417
# Poissons Ratio (y) = 0.15807 0.34471
# Poissons Ratio (z) = -0.01557 0.37271
#
# Static dielectric constant tensor:
#      x y z
#    x 3.291470 0.000000 0.000000 
#    y 0.000000 1.823420 0.000000 
#    z 0.000000 0.000000 1.834970 
# 
# From -- ./inp_files/57574.got.cif
#   From: 2010.05.17/outbox.cif.g08.bks.cpg/sg71_29_cif.got.tgz:57574.got - 2010.06.03 16:22:01.
