data_PCOD9523837
_publ_section_title
;
Structure prediction by ZEFSAII (Michael W. Deem and Ramdas Pophale) SiO2 
 PCOD9523837
Probable space group: I M M M
;
_chemical_formula_sum "Si O2"
_cell_formula_units_Z 72
_cell_length_a 8.078337
_cell_length_b 14.029571
_cell_length_c 29.675042
_cell_angle_alpha 90.000000
_cell_angle_beta 90.000000
_cell_angle_gamma 90.000000
_cell_volume 3363.238764
_symmetry_space_group_name_H-M "I M M M"
_symmetry_group_IT_number 71
_symmetry_cell_setting 'orthorhombic'
loop_
_space_group_symop_operation_xyz
x,y,z
-x,-y,z
x,-y,-z
-x,y,-z
-x,-y,-z
x,y,-z
-x,y,z
x,-y,z
1/2+x,1/2+y,1/2+z
1/2-x,1/2-y,1/2+z
1/2+x,1/2-y,1/2-z
1/2-x,1/2+y,1/2-z
1/2-x,1/2-y,1/2-z
1/2+x,1/2+y,1/2-z
1/2-x,1/2+y,1/2+z
1/2+x,1/2-y,1/2+z
loop_
_atom_site_type_symbol
_atom_site_label
_atom_site_fract_x
_atom_site_fract_y
_atom_site_fract_z
Si Si1 0.684030 0.333873 0.381570
Si Si2 0.803685 0.500000 0.175401
Si Si3 0.810158 0.204380 0.549610
Si Si4 0.304913 0.000000 0.052108
Si Si5 0.798965 0.287079 0.201038
Si Si6 0.303959 0.000000 0.432444
O O1 0.500000 0.368409 0.370631
O O2 0.684912 0.241743 0.413464
O O3 0.760987 0.410891 0.415553
O O4 0.762426 0.291064 0.335937
O O5 0.739413 0.396564 0.192733
O O6 0.785588 0.500000 0.121601
O O7 0.000000 0.500000 0.186203
O O8 0.778634 0.245540 0.500000
O O9 0.000000 0.227404 0.562002
O O10 0.784282 0.092554 0.548771
O O11 0.500000 0.000000 0.046543
O O12 0.234709 0.000000 0.000000
O O13 0.750000 0.250000 0.250000
O O14 0.000000 0.288781 0.196332
O O15 0.500000 0.000000 0.443107
#
# Coordination Sequence:
#
# PCOD9523837 Si02
#       6
#    16   8  16   8  16   8
#     4  11  23  41  65  91 122 161 211 266 315 374
#     4   9  18  39  63  85 121 160 195 246 305 358
#     4  11  23  37  55  86 127 164 201 248 303 365
#     4  11  25  44  65  92 129 171 215 267 328 392
#     4  10  22  41  65  93 124 161 208 262 318 377
#     4  11  20  36  60  85 117 160 204 244 294 355
#
# _framework density 21.407935999999999
#
# number of rings (size 3 to 8) (size 9 to 14) (size 15 to 20)
#    0.000    1.444    2.222    3.000    0.000    9.333 
#    0.000    2.778    0.000    0.000    0.000    0.000 
#    0.000    0.000    0.000    0.000    0.000    0.000 
#
# Total GULP energy -200734.165038 kJ/mol
# GULP energy per Si atom -5575.949029 kJ/mol
# Density = 2.135921 g / cm^3
# Si number density = 21.407936 Si / 1000 Ang^3
#
#
#
# Elastic Constant Matrix: (Units=GPa)
#
#
# Indices 1 2 3 4 5 6 
#
# 1 31.8806 2.7359 25.9989 0.0000 0.0000 0.0000
# 2 2.7359 123.9213 72.0928 0.0000 0.0000 0.0000
# 3 25.9989 72.0928 164.5117 0.0000 0.0000 0.0000
# 4 0.0000 0.0000 0.0000 16.4203 0.0000 0.0000
# 5 0.0000 0.0000 0.0000 0.0000 17.9558 0.0000
# 6 0.0000 0.0000 0.0000 0.0000 0.0000 39.2450
#
#
#
# Elastic Compliance Matrix: (Units=1/GPa)
#
#
# Indices 1 2 3 4 5 6 
#
# 1 0.037092 0.003478 -0.007386 0.000000 0.000000 0.000000
# 2 0.003478 0.011157 -0.005439 0.000000 0.000000 0.000000
# 3 -0.007386 -0.005439 0.009629 0.000000 0.000000 0.000000
# 4 0.000000 0.000000 0.000000 0.060900 0.000000 0.000000
# 5 0.000000 0.000000 0.000000 0.000000 0.055692 0.000000
# 6 0.000000 0.000000 0.000000 0.000000 0.000000 0.025481
#
#
# Mechanical properties :
#
#
# Convention : Reuss Voigt Hill
#
# Bulk Modulus (GPa) = 25.52037 57.99654 41.75846
# Shear Modulus (GPa) = 21.57897 29.35662 25.46780
#
# Velocity S-wave (km/s) = 3.17833 3.70712 3.45286
# Velocity P-wave (km/s) = 5.04142 6.74341 5.95355
#
# Compressibility (1/GPa) = 0.03918438
#
# Stress axis : x y z
#
# Youngs Moduli (GPa) = 26.96006 89.62975 103.84953
#
# Poissons Ratio (x) = -0.31173 0.76704
# Poissons Ratio (y) = -0.09377 0.56483
# Poissons Ratio (z) = 0.19913 0.48749
#
# Static dielectric constant tensor:
#      x y z
#    x 1.799100 0.000000 0.000000 
#    y 0.000000 1.870330 0.000000 
#    z 0.000000 0.000000 1.776040 
# 
# From -- ./inp_files/62896.got.cif
#   From: 2010.05.17/outbox.cif.g08.bks.cpg/sg71_32_cif.got.tgz:62896.got - 2010.06.03 16:22:01.
