data_PCOD9523929
_publ_section_title
;
Structure prediction by ZEFSAII (Michael W. Deem and Ramdas Pophale) SiO2 
 PCOD9523929
Probable space group: I M M M
;
_chemical_formula_sum "Si O2"
_cell_formula_units_Z 74
_cell_length_a 7.245220
_cell_length_b 20.746086
_cell_length_c 19.577713
_cell_angle_alpha 90.000000
_cell_angle_beta 90.000000
_cell_angle_gamma 90.000000
_cell_volume 2942.725203
_symmetry_space_group_name_H-M "I M M M"
_symmetry_group_IT_number 71
_symmetry_cell_setting 'orthorhombic'
loop_
_space_group_symop_operation_xyz
x,y,z
-x,-y,z
x,-y,-z
-x,y,-z
-x,-y,-z
x,y,-z
-x,y,z
x,-y,z
1/2+x,1/2+y,1/2+z
1/2-x,1/2-y,1/2+z
1/2+x,1/2-y,1/2-z
1/2-x,1/2+y,1/2-z
1/2-x,1/2-y,1/2-z
1/2+x,1/2+y,1/2-z
1/2-x,1/2+y,1/2+z
1/2+x,1/2-y,1/2+z
loop_
_atom_site_type_symbol
_atom_site_label
_atom_site_fract_x
_atom_site_fract_y
_atom_site_fract_z
Si Si1 0.720147 0.118855 0.500000
Si Si2 0.000000 0.000000 0.500000
Si Si3 0.274321 0.500000 0.617402
Si Si4 0.709350 0.000000 0.279689
Si Si5 0.290248 0.638871 0.604408
Si Si6 0.223500 0.277019 0.886032
Si Si7 0.275221 0.139350 0.734955
O O1 0.500000 0.105624 0.500000
O O2 0.763231 0.164392 0.564252
O O3 0.839886 0.055922 0.500000
O O4 0.500000 0.500000 0.617842
O O5 0.212383 0.500000 0.696671
O O6 0.212652 0.568378 0.586732
O O7 0.786984 0.070339 0.297119
O O8 0.500000 0.000000 0.305568
O O9 0.500000 0.638140 0.578976
O O10 0.206478 0.708160 0.587519
O O11 0.291389 0.641515 0.687441
O O12 0.284013 0.300876 0.811355
O O13 0.000000 0.270599 0.883509
O O14 0.500000 0.137689 0.737075
#
# Coordination Sequence:
#
# PCOD9523929 Si02
#       7
#     8   2   8   8  16  16  16
#     4  10  23  45  67  85 113 153 191 247 302 335
#     4  12  26  48  68  94 112 142 210 248 288 360
#     4   8  14  24  41  64 100 138 168 207 260 312
#     4   8  14  23  37  57  92 125 162 211 255 322
#     4   9  16  28  46  74 108 144 182 224 277 348
#     4   9  18  33  54  75 102 142 188 228 286 348
#     4   9  16  27  44  72 101 137 181 224 279 344
#
# _framework density 25.146757000000001
#
# number of rings (size 3 to 8) (size 9 to 14) (size 15 to 20)
#    0.000    3.027    0.000    0.811    0.000    0.865 
#    3.892    3.243    9.514    0.649    0.000    4.541 
#    0.000    0.865    0.000    0.108    0.000    0.000 
#
# Total GULP energy -206360.811713 kJ/mol
# GULP energy per Si atom -5577.319235 kJ/mol
# Density = 2.508952 g / cm^3
# Si number density = 25.146757 Si / 1000 Ang^3
#
#
#
# Elastic Constant Matrix: (Units=GPa)
#
#
# Indices 1 2 3 4 5 6 
#
# 1 134.1235 38.9334 6.1198 0.0000 0.0000 0.0000
# 2 38.9334 281.7816 40.2538 0.0000 0.0000 0.0000
# 3 6.1198 40.2538 76.0158 0.0000 0.0000 0.0000
# 4 0.0000 0.0000 0.0000 -80.2376 0.0000 0.0000
# 5 0.0000 0.0000 0.0000 0.0000 -3.9680 0.0000
# 6 0.0000 0.0000 0.0000 0.0000 0.0000 -28.5564
#
#
#
# Elastic Compliance Matrix: (Units=1/GPa)
#
#
# Indices 1 2 3 4 5 6 
#
# 1 0.007768 -0.001064 -0.000062 0.000000 0.000000 0.000000
# 2 -0.001064 0.003985 -0.002025 0.000000 0.000000 0.000000
# 3 -0.000062 -0.002025 0.014232 0.000000 0.000000 0.000000
# 4 0.000000 0.000000 0.000000 -0.012463 0.000000 0.000000
# 5 0.000000 0.000000 0.000000 0.000000 -0.252018 0.000000
# 6 0.000000 0.000000 0.000000 0.000000 0.000000 -0.035018
#
#
# Mechanical properties :
#
#
# Convention : Reuss Voigt Hill
#
# Bulk Modulus (GPa) = 50.80389 73.61500 62.20945
# Shear Modulus (GPa) = -19.18269 4.55520 -7.31375
#
# Velocity S-wave (km/s) = -2.76493 1.34736 -1.70726
# Velocity P-wave (km/s) = 3.17075 5.63544 4.57230
#
# Compressibility (1/GPa) = 0.01968353
#
# Stress axis : x y z
#
# Youngs Moduli (GPa) = 128.73969 250.93196 70.26299
#
# Poissons Ratio (x) = 0.26710 0.00433
# Poissons Ratio (y) = 0.13703 0.14226
# Poissons Ratio (z) = 0.00794 0.50804
#
# Static dielectric constant tensor:
#      x y z
#    x 0.586880 0.000000 0.000000 
#    y 0.000000 2.017780 0.000000 
#    z 0.000000 0.000000 1.982630 
# 
# From -- ./inp_files/50263.got.cif
#   From: 2010.05.17/outbox.cif.g08.bks.cpg/sg71_26_cif.got.tgz:50263.got - 2010.06.03 16:22:01.
