data_PCOD9523649
_publ_section_title
;
Structure prediction by ZEFSAII (Michael W. Deem and Ramdas Pophale) SiO2 
 PCOD9523649
Probable space group: I M M M
;
_chemical_formula_sum "Si O2"
_cell_formula_units_Z 96
_cell_length_a 20.456597
_cell_length_b 27.890054
_cell_length_c 8.898461
_cell_angle_alpha 90.000000
_cell_angle_beta 90.000000
_cell_angle_gamma 90.000000
_cell_volume 5076.888741
_symmetry_space_group_name_H-M "I M M M"
_symmetry_group_IT_number 71
_symmetry_cell_setting 'orthorhombic'
loop_
_space_group_symop_operation_xyz
x,y,z
-x,-y,z
x,-y,-z
-x,y,-z
-x,-y,-z
x,y,-z
-x,y,z
x,-y,z
1/2+x,1/2+y,1/2+z
1/2-x,1/2-y,1/2+z
1/2+x,1/2-y,1/2-z
1/2-x,1/2+y,1/2-z
1/2-x,1/2-y,1/2-z
1/2+x,1/2+y,1/2-z
1/2-x,1/2+y,1/2+z
1/2+x,1/2-y,1/2+z
loop_
_atom_site_type_symbol
_atom_site_label
_atom_site_fract_x
_atom_site_fract_y
_atom_site_fract_z
Si Si1 0.924785 0.443615 0.319773
Si Si2 0.326609 0.445951 0.180522
Si Si3 0.799715 0.288333 0.678888
Si Si4 0.423502 0.741547 0.680164
Si Si5 0.424879 0.369847 0.680516
Si Si6 0.803567 0.391045 0.820829
O O1 0.917835 0.438201 0.500000
O O2 0.914186 0.500000 0.284626
O O3 0.872405 0.411035 0.236939
O O4 0.000000 0.431987 0.280819
O O5 0.339106 0.500000 0.234648
O O6 0.376027 0.407320 0.247303
O O7 0.252983 0.429364 0.215702
O O8 0.333012 0.445539 0.000000
O O9 0.793903 0.287479 0.500000
O O10 0.750000 0.250000 0.750000
O O11 0.872566 0.273856 0.731351
O O12 0.786065 0.341163 0.741783
O O13 0.413970 0.747114 0.500000
O O14 0.500000 0.751324 0.711689
O O15 0.410368 0.685656 0.718631
O O16 0.421233 0.373210 0.500000
O O17 0.500000 0.379520 0.725193
O O18 0.805227 0.384000 0.000000
#
# Coordination Sequence:
#
# PCOD9523649 Si02
#       6
#    16  16  16  16  16  16
#     4   9  19  37  60  86 117 152 190 233 282 337
#     4  10  22  38  55  79 111 145 183 228 275 324
#     4  12  25  40  59  84 115 149 188 235 286 342
#     4   9  19  38  62  86 114 148 187 231 278 331
#     4   9  19  36  58  84 112 143 181 224 269 321
#     4  11  23  39  59  83 112 148 191 237 284 336
#
# _framework density 18.909219
#
# number of rings (size 3 to 8) (size 9 to 14) (size 15 to 20)
#    0.000    2.000    0.000    5.000    0.000    8.000 
#    0.000    4.167    0.000    0.000    0.000    0.000 
#    0.000    0.000    0.000    0.000    0.000    0.000 
#
# Total GULP energy -268207.105702 kJ/mol
# GULP energy per Si atom -5587.648035 kJ/mol
# Density = 1.886618 g / cm^3
# Si number density = 18.909219 Si / 1000 Ang^3
#
#
#
# Elastic Constant Matrix: (Units=GPa)
#
#
# Indices 1 2 3 4 5 6 
#
# 1 30.7638 -3.1572 15.2349 0.0000 0.0000 0.0000
# 2 -3.1572 24.4696 14.8596 0.0000 0.0000 0.0000
# 3 15.2349 14.8596 41.7654 0.0000 0.0000 0.0000
# 4 0.0000 0.0000 0.0000 29.2782 0.0000 0.0000
# 5 0.0000 0.0000 0.0000 0.0000 34.4664 0.0000
# 6 0.0000 0.0000 0.0000 0.0000 0.0000 37.3328
#
#
#
# Elastic Compliance Matrix: (Units=1/GPa)
#
#
# Indices 1 2 3 4 5 6 
#
# 1 0.046792 0.020923 -0.024513 0.000000 0.000000 0.000000
# 2 0.020923 0.061486 -0.029508 0.000000 0.000000 0.000000
# 3 -0.024513 -0.029508 0.043384 0.000000 0.000000 0.000000
# 4 0.000000 0.000000 0.000000 0.034155 0.000000 0.000000
# 5 0.000000 0.000000 0.000000 0.000000 0.029014 0.000000
# 6 0.000000 0.000000 0.000000 0.000000 0.000000 0.026786
#
#
# Mechanical properties :
#
#
# Convention : Reuss Voigt Hill
#
# Bulk Modulus (GPa) = 11.70052 16.76370 14.23211
# Shear Modulus (GPa) = 14.86764 24.88624 19.87694
#
# Velocity S-wave (km/s) = 2.80708 3.63173 3.24570
# Velocity P-wave (km/s) = 4.08747 5.14496 4.64640
#
# Compressibility (1/GPa) = 0.08546628
#
# Stress axis : x y z
#
# Youngs Moduli (GPa) = 21.37106 16.26388 23.05023
#
# Poissons Ratio (x) = -0.34029 0.56502
# Poissons Ratio (y) = -0.44715 0.68017
# Poissons Ratio (z) = 0.52386 0.47992
#
# Static dielectric constant tensor:
#      x y z
#    x 1.645010 0.000000 0.000000 
#    y 0.000000 1.638730 0.000000 
#    z 0.000000 0.000000 1.631010 
# 
# From -- ./inp_files/10855.got.cif
#   From: 2010.05.17/outbox.cif.g08.bks.cpg/sg71_6_cif.got.tgz:10855.got - 2010.06.03 16:22:01.
