data_PCOD9523639
_publ_section_title
;
Structure prediction by ZEFSAII (Michael W. Deem and Ramdas Pophale) SiO2 
 PCOD9523639
Probable space group: I M M M
;
_chemical_formula_sum "Si O2"
_cell_formula_units_Z 56
_cell_length_a 13.838514
_cell_length_b 13.343675
_cell_length_c 15.123630
_cell_angle_alpha 90.000000
_cell_angle_beta 90.000000
_cell_angle_gamma 90.000000
_cell_volume 2792.678599
_symmetry_space_group_name_H-M "I M M M"
_symmetry_group_IT_number 71
_symmetry_cell_setting 'orthorhombic'
loop_
_space_group_symop_operation_xyz
x,y,z
-x,-y,z
x,-y,-z
-x,y,-z
-x,-y,-z
x,y,-z
-x,y,z
x,-y,z
1/2+x,1/2+y,1/2+z
1/2-x,1/2-y,1/2+z
1/2+x,1/2-y,1/2-z
1/2-x,1/2+y,1/2-z
1/2-x,1/2-y,1/2-z
1/2+x,1/2+y,1/2-z
1/2-x,1/2+y,1/2+z
1/2+x,1/2-y,1/2+z
loop_
_atom_site_type_symbol
_atom_site_label
_atom_site_fract_x
_atom_site_fract_y
_atom_site_fract_z
Si Si1 0.383823 0.783028 0.361560
Si Si2 0.116953 0.612224 0.312682
Si Si3 0.883284 0.886808 0.000000
Si Si4 0.742123 0.111657 0.500000
Si Si5 0.384508 0.204438 0.000000
O O1 0.500000 0.794903 0.370435
O O2 0.357320 0.803636 0.259878
O O3 0.359345 0.679465 0.412765
O O4 0.326881 0.866325 0.416813
O O5 0.153378 0.500000 0.291801
O O6 0.141835 0.644097 0.411750
O O7 0.000000 0.607135 0.310288
O O8 0.000000 0.893477 0.000000
O O9 0.844841 0.000000 0.000000
O O10 0.827692 0.191781 0.500000
O O11 0.779422 0.000000 0.500000
O O12 0.500000 0.219846 0.000000
#
# Coordination Sequence:
#
# PCOD9523639 Si02
#       5
#    16  16   8   8   8
#     4   9  18  33  56  86 113 134 166 218 278 335
#     4   9  17  33  58  83 107 138 177 226 280 323
#     4   8  14  27  47  74 113 151 172 194 242 315
#     4  11  22  35  53  77 107 142 178 221 273 326
#     4  10  22  38  53  73 106 148 193 230 258 305
#
# _framework density 20.052432
#
# number of rings (size 3 to 8) (size 9 to 14) (size 15 to 20)
#    0.000    2.714    0.000    2.571    0.000    5.429 
#    0.000    7.143    0.000    5.143    0.000    0.000 
#    0.000    0.000    0.000    0.000    0.000    0.000 
#
# Total GULP energy -156147.473894 kJ/mol
# GULP energy per Si atom -5576.695496 kJ/mol
# Density = 2.000679 g / cm^3
# Si number density = 20.052432 Si / 1000 Ang^3
#
#
#
# Elastic Constant Matrix: (Units=GPa)
#
#
# Indices 1 2 3 4 5 6 
#
# 1 80.9222 17.8923 9.6153 0.0000 0.0000 0.0000
# 2 17.8923 159.2570 73.0425 0.0000 0.0000 0.0000
# 3 9.6153 73.0425 176.5017 0.0000 0.0000 0.0000
# 4 0.0000 0.0000 0.0000 7.3502 0.0000 0.0000
# 5 0.0000 0.0000 0.0000 0.0000 -29.9246 0.0000
# 6 0.0000 0.0000 0.0000 0.0000 0.0000 27.5544
#
#
#
# Elastic Compliance Matrix: (Units=1/GPa)
#
#
# Indices 1 2 3 4 5 6 
#
# 1 0.012675 -0.001367 -0.000125 0.000000 0.000000 0.000000
# 2 -0.001367 0.007898 -0.003194 0.000000 0.000000 0.000000
# 3 -0.000125 -0.003194 0.006994 0.000000 0.000000 0.000000
# 4 0.000000 0.000000 0.000000 0.136051 0.000000 0.000000
# 5 0.000000 0.000000 0.000000 0.000000 -0.033417 0.000000
# 6 0.000000 0.000000 0.000000 0.000000 0.000000 0.036292
#
#
# Mechanical properties :
#
#
# Convention : Reuss Voigt Hill
#
# Bulk Modulus (GPa) = 54.95865 68.64235 61.80050
# Shear Modulus (GPa) = 27.48345 22.07140 24.77742
#
# Velocity S-wave (km/s) = 3.70615 3.32126 3.51897
# Velocity P-wave (km/s) = 6.76617 7.00096 6.88456
#
# Compressibility (1/GPa) = 0.01819550
#
# Stress axis : x y z
#
# Youngs Moduli (GPa) = 78.89811 126.62180 142.97591
#
# Poissons Ratio (x) = 0.17305 0.01786
# Poissons Ratio (y) = 0.10783 0.45664
# Poissons Ratio (z) = 0.00985 0.40441
#
# Static dielectric constant tensor:
#      x y z
#    x 1.703050 0.000000 0.000000 
#    y 0.000000 1.685690 0.000000 
#    z 0.000000 0.000000 1.723860 
# 
# From -- ./inp_files/33576.got.cif
#   From: 2010.05.17/outbox.cif.g08.bks.cpg/sg71_17_cif.got.tgz:33576.got - 2010.06.03 16:22:01.
