data_PCOD9523728
_publ_section_title
;
Structure prediction by ZEFSAII (Michael W. Deem and Ramdas Pophale) SiO2 
 PCOD9523728
Probable space group: I M M M
;
_chemical_formula_sum "Si O2"
_cell_formula_units_Z 68
_cell_length_a 7.533523
_cell_length_b 20.455240
_cell_length_c 20.101627
_cell_angle_alpha 90.000000
_cell_angle_beta 90.000000
_cell_angle_gamma 90.000000
_cell_volume 3097.661143
_symmetry_space_group_name_H-M "I M M M"
_symmetry_group_IT_number 71
_symmetry_cell_setting 'orthorhombic'
loop_
_space_group_symop_operation_xyz
x,y,z
-x,-y,z
x,-y,-z
-x,y,-z
-x,-y,-z
x,y,-z
-x,y,z
x,-y,z
1/2+x,1/2+y,1/2+z
1/2-x,1/2-y,1/2+z
1/2+x,1/2-y,1/2-z
1/2-x,1/2+y,1/2-z
1/2-x,1/2-y,1/2-z
1/2+x,1/2+y,1/2-z
1/2-x,1/2+y,1/2+z
1/2+x,1/2-y,1/2+z
loop_
_atom_site_type_symbol
_atom_site_label
_atom_site_fract_x
_atom_site_fract_y
_atom_site_fract_z
Si Si1 0.285686 0.641152 0.320184
Si Si2 0.212127 0.864381 0.326420
Si Si3 0.287636 0.747022 0.575419
Si Si4 0.000000 0.000000 0.500000
Si Si5 0.786409 0.000000 0.120905
Si Si6 0.500000 0.000000 0.000000
Si Si7 0.694145 0.000000 0.612383
O O1 0.500000 0.648679 0.319893
O O2 0.222492 0.658605 0.246112
O O3 0.217205 0.688395 0.378361
O O4 0.250426 0.565853 0.337480
O O5 0.254462 0.813694 0.384835
O O6 0.286605 0.935120 0.343682
O O7 0.000000 0.870493 0.323003
O O8 0.217407 0.747523 0.500000
O O9 0.500000 0.738977 0.570530
O O10 0.846351 0.000000 0.557836
O O11 0.000000 0.000000 0.104140
O O12 0.657258 0.000000 0.057962
O O13 0.500000 0.000000 0.581131
#
# Coordination Sequence:
#
# PCOD9523728 Si02
#       7
#    16  16  16   2   8   2   8
#     4   9  20  41  69  92 127 182 228 275 335 394
#     4  11  22  42  66  96 132 176 228 279 331 399
#     4  10  22  39  61  93 130 175 230 279 336 401
#     4  12  26  48  68 104 144 168 224 270 332 406
#     4  10  22  44  69  94 135 178 216 273 331 390
#     4  12  26  40  60 112 136 160 224 270 340 398
#     4  12  26  44  71 102 137 178 218 275 337 394
#
# _framework density 21.952047
#
# number of rings (size 3 to 8) (size 9 to 14) (size 15 to 20)
#    0.000    1.647    1.176    2.471    3.294    2.353 
#    8.471    0.000    0.000    0.000    0.000    0.000 
#    0.000    0.000    0.000    0.000    0.000    0.000 
#
# Total GULP energy -189563.623207 kJ/mol
# GULP energy per Si atom -5575.400683 kJ/mol
# Density = 2.190208 g / cm^3
# Si number density = 21.952047 Si / 1000 Ang^3
#
#
#
# Elastic Constant Matrix: (Units=GPa)
#
#
# Indices 1 2 3 4 5 6 
#
# 1 107.2818 -2.7464 34.1719 0.0000 0.0000 0.0000
# 2 -2.7464 149.7087 85.0165 0.0000 0.0000 0.0000
# 3 34.1719 85.0165 222.9174 0.0000 0.0000 0.0000
# 4 0.0000 0.0000 0.0000 -13.1259 0.0000 0.0000
# 5 0.0000 0.0000 0.0000 0.0000 62.1108 0.0000
# 6 0.0000 0.0000 0.0000 0.0000 0.0000 -171.7232
#
#
#
# Elastic Compliance Matrix: (Units=1/GPa)
#
#
# Indices 1 2 3 4 5 6 
#
# 1 0.010008 0.001346 -0.002048 0.000000 0.000000 0.000000
# 2 0.001346 0.008707 -0.003527 0.000000 0.000000 0.000000
# 3 -0.002048 -0.003527 0.006145 0.000000 0.000000 0.000000
# 4 0.000000 0.000000 0.000000 -0.076185 0.000000 0.000000
# 5 0.000000 0.000000 0.000000 0.000000 0.016100 0.000000
# 6 0.000000 0.000000 0.000000 0.000000 0.000000 -0.005823
#
#
# Mechanical properties :
#
#
# Convention : Reuss Voigt Hill
#
# Bulk Modulus (GPa) = 60.96272 79.19908 70.08090
# Shear Modulus (GPa) = -184.34564 -0.31660 -92.33112
#
# Velocity S-wave (km/s) = -9.17381 -0.38018 -6.49243
# Velocity P-wave (km/s) = 9.18589 5.99698 4.92020
#
# Compressibility (1/GPa) = 0.01640347
#
# Stress axis : x y z
#
# Youngs Moduli (GPa) = 99.92063 114.84518 162.73189
#
# Poissons Ratio (x) = -0.15463 0.33322
# Poissons Ratio (y) = -0.13453 0.57399
# Poissons Ratio (z) = 0.20460 0.40508
#
# Static dielectric constant tensor:
#      x y z
#    x 1.825260 0.000000 0.000000 
#    y 0.000000 1.769240 0.000000 
#    z 0.000000 0.000000 1.790550 
# 
# From -- ./inp_files/50059.got.cif
#   From: 2010.05.17/outbox.cif.g08.bks.cpg/sg71_26_cif.got.tgz:50059.got - 2010.06.03 16:22:01.
