data_PCOD9523182
_publ_section_title
;
Structure prediction by ZEFSAII (Michael W. Deem and Ramdas Pophale) SiO2 
 PCOD9523182
Probable space group: I M M M
;
_chemical_formula_sum "Si O2"
_cell_formula_units_Z 66
_cell_length_a 22.315662
_cell_length_b 7.842085
_cell_length_c 21.717229
_cell_angle_alpha 90.000000
_cell_angle_beta 90.000000
_cell_angle_gamma 90.000000
_cell_volume 3800.543703
_symmetry_space_group_name_H-M "I M M M"
_symmetry_group_IT_number 71
_symmetry_cell_setting 'orthorhombic'
loop_
_space_group_symop_operation_xyz
x,y,z
-x,-y,z
x,-y,-z
-x,y,-z
-x,-y,-z
x,y,-z
-x,y,z
x,-y,z
1/2+x,1/2+y,1/2+z
1/2-x,1/2-y,1/2+z
1/2+x,1/2-y,1/2-z
1/2-x,1/2+y,1/2-z
1/2-x,1/2-y,1/2-z
1/2+x,1/2+y,1/2-z
1/2-x,1/2+y,1/2+z
1/2+x,1/2-y,1/2+z
loop_
_atom_site_type_symbol
_atom_site_label
_atom_site_fract_x
_atom_site_fract_y
_atom_site_fract_z
Si Si1 0.600985 0.500000 0.389831
Si Si2 0.430994 0.206217 0.841601
Si Si3 0.072318 0.305473 0.798233
Si Si4 0.739264 0.500000 0.426245
Si Si5 0.823313 0.807641 0.573331
Si Si6 0.000000 0.000000 0.000000
O O1 0.591308 0.667691 0.348043
O O2 0.669907 0.500000 0.410029
O O3 0.553110 0.500000 0.445547
O O4 0.500000 0.262129 0.850303
O O5 0.411299 0.246345 0.771572
O O6 0.385048 0.280681 0.890423
O O7 0.430395 0.000000 0.846479
O O8 0.093310 0.500000 0.810259
O O9 0.000000 0.310792 0.798475
O O10 0.742626 0.500000 0.500000
O O11 0.775527 0.332911 0.405007
O O12 0.833414 0.784787 0.500000
O O13 0.801276 0.000000 0.583022
#
# Coordination Sequence:
#
# PCOD9523182 Si02
#       6
#     8  16  16   8  16   2
#     4  12  22  40  64  89 115 147 188 245 295 352
#     4   9  18  34  59  87 116 155 197 237 286 340
#     4   9  19  36  58  85 118 150 183 230 293 352
#     4  10  22  40  59  78 114 159 190 236 293 342
#     4  10  21  37  57  82 116 157 200 239 281 341
#     4  12  24  40  66 104 116 130 208 244 286 364
#
# _framework density 17.365936999999999
#
# number of rings (size 3 to 8) (size 9 to 14) (size 15 to 20)
#    0.000    2.182    3.030    1.455    1.697    1.939 
#    0.000    4.848    0.000    0.000    0.000    0.000 
#    0.000    0.000    0.000    0.000    0.000    0.000 
#
# Total GULP energy -183724.800003 kJ/mol
# GULP energy per Si atom -5567.418182 kJ/mol
# Density = 1.732641 g / cm^3
# Si number density = 17.365937 Si / 1000 Ang^3
#
#
#
# Elastic Constant Matrix: (Units=GPa)
#
#
# Indices 1 2 3 4 5 6 
#
# 1 110.7208 59.4394 55.5079 0.0000 0.0000 0.0000
# 2 59.4394 107.4345 66.9608 0.0000 0.0000 0.0000
# 3 55.5079 66.9608 70.0357 0.0000 0.0000 0.0000
# 4 0.0000 0.0000 0.0000 17.7293 0.0000 0.0000
# 5 0.0000 0.0000 0.0000 0.0000 24.0320 0.0000
# 6 0.0000 0.0000 0.0000 0.0000 0.0000 5.6140
#
#
#
# Elastic Compliance Matrix: (Units=1/GPa)
#
#
# Indices 1 2 3 4 5 6 
#
# 1 0.015199 -0.002230 -0.009915 0.000000 0.000000 0.000000
# 2 -0.002230 0.023361 -0.020568 0.000000 0.000000 0.000000
# 3 -0.009915 -0.020568 0.041802 0.000000 0.000000 0.000000
# 4 0.000000 0.000000 0.000000 0.056404 0.000000 0.000000
# 5 0.000000 0.000000 0.000000 0.000000 0.041611 0.000000
# 6 0.000000 0.000000 0.000000 0.000000 0.000000 0.178126
#
#
# Mechanical properties :
#
#
# Convention : Reuss Voigt Hill
#
# Bulk Modulus (GPa) = 66.94846 72.44523 69.69685
# Shear Modulus (GPa) = 11.71213 16.56060 14.13637
#
# Velocity S-wave (km/s) = 2.59980 3.09143 2.85621
# Velocity P-wave (km/s) = 6.90270 7.38580 7.14833
#
# Compressibility (1/GPa) = 0.01493686
#
# Stress axis : x y z
#
# Youngs Moduli (GPa) = 65.79286 42.80585 23.92236
#
# Poissons Ratio (x) = 0.09544 0.23718
# Poissons Ratio (y) = 0.14669 0.49205
# Poissons Ratio (z) = 0.65231 0.88045
#
# Static dielectric constant tensor:
#      x y z
#    x 1.558620 0.000000 0.000000 
#    y 0.000000 1.625760 0.000000 
#    z 0.000000 0.000000 1.582010 
# 
# From -- ./inp_files/9647.got.cif
#   From: 2010.05.17/outbox.cif.g08.bks.cpg/sg71_5_cif.got.tgz:9647.got - 2010.06.03 16:22:01.
