data_PCOD9523327
_publ_section_title
;
Structure prediction by ZEFSAII (Michael W. Deem and Ramdas Pophale) SiO2 
 PCOD9523327
Probable space group: I M M M
;
_chemical_formula_sum "Si O2"
_cell_formula_units_Z 112
_cell_length_a 14.730532
_cell_length_b 15.375894
_cell_length_c 25.095767
_cell_angle_alpha 90.000000
_cell_angle_beta 90.000000
_cell_angle_gamma 90.000000
_cell_volume 5684.068221
_symmetry_space_group_name_H-M "I M M M"
_symmetry_group_IT_number 71
_symmetry_cell_setting 'orthorhombic'
loop_
_space_group_symop_operation_xyz
x,y,z
-x,-y,z
x,-y,-z
-x,y,-z
-x,-y,-z
x,y,-z
-x,y,z
x,-y,z
1/2+x,1/2+y,1/2+z
1/2-x,1/2-y,1/2+z
1/2+x,1/2-y,1/2-z
1/2-x,1/2+y,1/2-z
1/2-x,1/2-y,1/2-z
1/2+x,1/2+y,1/2-z
1/2-x,1/2+y,1/2+z
1/2+x,1/2-y,1/2+z
loop_
_atom_site_type_symbol
_atom_site_label
_atom_site_fract_x
_atom_site_fract_y
_atom_site_fract_z
Si Si1 0.399209 0.219865 0.938714
Si Si2 0.275327 0.603704 0.439759
Si Si3 0.796624 0.598620 0.832389
Si Si4 0.398393 0.660666 0.160129
Si Si5 0.105843 0.394246 0.059521
Si Si6 0.393755 0.238967 0.263869
Si Si7 0.391259 0.400799 0.662884
O O1 0.500000 0.180039 0.931697
O O2 0.318145 0.153331 0.928520
O O3 0.394271 0.300034 0.898705
O O4 0.391780 0.248374 0.000000
O O5 0.305714 0.626652 0.500000
O O6 0.260231 0.500000 0.438893
O O7 0.346925 0.623316 0.393573
O O8 0.829604 0.500000 0.825300
O O9 0.687906 0.600365 0.832340
O O10 0.834177 0.632351 0.889837
O O11 0.834634 0.661598 0.787083
O O12 0.500000 0.624557 0.170455
O O13 0.386194 0.740594 0.201500
O O14 0.108756 0.500000 0.058352
O O15 0.000000 0.369578 0.067424
O O16 0.134441 0.364359 0.000000
O O17 0.500000 0.221702 0.275877
O O18 0.367091 0.328585 0.293645
O O19 0.500000 0.400701 0.658006
O O20 0.363375 0.500000 0.677024
#
# Coordination Sequence:
#
# PCOD9523327 Si02
#       7
#    16  16  16  16  16  16  16
#     4   9  18  34  55  75  97 131 176 224 272 321
#     4   9  17  29  48  76 108 139 171 214 268 321
#     4  11  22  35  56  84 113 147 183 223 275 331
#     4  10  22  39  56  75 104 143 185 229 274 319
#     4   8  15  30  52  78 109 143 178 218 266 321
#     4  10  21  38  58  80 110 144 180 226 275 324
#     4   9  18  33  54  79 107 143 183 218 257 310
#
# _framework density 19.704198000000002
#
# number of rings (size 3 to 8) (size 9 to 14) (size 15 to 20)
#    0.000    2.571    0.000    2.143    0.000    2.857 
#    0.000    7.143    0.000    3.429    0.000    4.000 
#    0.000    0.000    0.000    0.000    0.000    0.000 
#
# Total GULP energy -312434.241944 kJ/mol
# GULP energy per Si atom -5579.182892 kJ/mol
# Density = 1.965935 g / cm^3
# Si number density = 19.704198 Si / 1000 Ang^3
#
#
#
# Elastic Constant Matrix: (Units=GPa)
#
#
# Indices 1 2 3 4 5 6 
#
# 1 57.2224 25.8979 24.6688 0.0000 0.0000 0.0000
# 2 25.8979 48.7348 24.3964 0.0000 0.0000 0.0000
# 3 24.6688 24.3964 46.3645 0.0000 0.0000 0.0000
# 4 0.0000 0.0000 0.0000 13.8961 0.0000 0.0000
# 5 0.0000 0.0000 0.0000 0.0000 22.6682 0.0000
# 6 0.0000 0.0000 0.0000 0.0000 0.0000 10.3423
#
#
#
# Elastic Compliance Matrix: (Units=1/GPa)
#
#
# Indices 1 2 3 4 5 6 
#
# 1 0.025349 -0.009122 -0.008688 0.000000 0.000000 0.000000
# 2 -0.009122 0.031139 -0.011532 0.000000 0.000000 0.000000
# 3 -0.008688 -0.011532 0.032258 0.000000 0.000000 0.000000
# 4 0.000000 0.000000 0.000000 0.071963 0.000000 0.000000
# 5 0.000000 0.000000 0.000000 0.000000 0.044115 0.000000
# 6 0.000000 0.000000 0.000000 0.000000 0.000000 0.096690
#
#
# Mechanical properties :
#
#
# Convention : Reuss Voigt Hill
#
# Bulk Modulus (GPa) = 33.26156 33.58310 33.42233
# Shear Modulus (GPa) = 13.50553 14.53856 14.02204
#
# Velocity S-wave (km/s) = 2.62088 2.71927 2.67053
# Velocity P-wave (km/s) = 5.10645 5.19036 5.14857
#
# Compressibility (1/GPa) = 0.03006474
#
# Stress axis : x y z
#
# Youngs Moduli (GPa) = 39.44884 32.11377 30.99965
#
# Poissons Ratio (x) = 0.29293 0.26931
# Poissons Ratio (y) = 0.35984 0.35748
# Poissons Ratio (z) = 0.34272 0.37033
#
# Static dielectric constant tensor:
#      x y z
#    x 1.701460 0.000000 0.000000 
#    y 0.000000 1.671130 0.000000 
#    z 0.000000 0.000000 1.705450 
# 
# From -- ./inp_files/34907.got.cif
#   From: 2010.05.17/outbox.cif.g08.bks.cpg/sg71_18_cif.got.tgz:34907.got - 2010.06.03 16:22:01.
