data_PCOD9523388
_publ_section_title
;
Structure prediction by ZEFSAII (Michael W. Deem and Ramdas Pophale) SiO2 
 PCOD9523388
Probable space group: I M M M
;
_chemical_formula_sum "Si O2"
_cell_formula_units_Z 82
_cell_length_a 7.387911
_cell_length_b 28.140993
_cell_length_c 19.425900
_cell_angle_alpha 90.000000
_cell_angle_beta 90.000000
_cell_angle_gamma 90.000000
_cell_volume 4038.705835
_symmetry_space_group_name_H-M "I M M M"
_symmetry_group_IT_number 71
_symmetry_cell_setting 'orthorhombic'
loop_
_space_group_symop_operation_xyz
x,y,z
-x,-y,z
x,-y,-z
-x,y,-z
-x,-y,-z
x,y,-z
-x,y,z
x,-y,z
1/2+x,1/2+y,1/2+z
1/2-x,1/2-y,1/2+z
1/2+x,1/2-y,1/2-z
1/2-x,1/2+y,1/2-z
1/2-x,1/2-y,1/2-z
1/2+x,1/2+y,1/2-z
1/2-x,1/2+y,1/2+z
1/2+x,1/2-y,1/2+z
loop_
_atom_site_type_symbol
_atom_site_label
_atom_site_fract_x
_atom_site_fract_y
_atom_site_fract_z
Si Si1 0.282067 0.898912 0.306896
Si Si2 0.206492 0.878315 0.150441
Si Si3 0.000000 0.000000 0.500000
Si Si4 0.281525 0.000000 0.372178
Si Si5 0.280503 0.716906 0.420965
Si Si6 0.500000 0.055742 0.082233
Si Si7 0.779347 0.675833 0.078740
O O1 0.500000 0.895366 0.303261
O O2 0.212185 0.884812 0.232197
O O3 0.239906 0.952577 0.328835
O O4 0.218816 0.862941 0.366449
O O5 0.275345 0.826090 0.127849
O O6 0.328475 0.917973 0.114996
O O7 0.000000 0.882541 0.126127
O O8 0.159285 0.000000 0.560223
O O9 0.500000 0.000000 0.387180
O O10 0.226330 0.707035 0.500000
O O11 0.500000 0.718415 0.419759
O O12 0.221270 0.770415 0.403364
O O13 0.500000 0.000000 0.098886
O O14 0.500000 0.061339 0.000000
O O15 0.000000 0.675277 0.078610
O O16 0.723490 0.665404 0.000000
#
# Coordination Sequence:
#
# PCOD9523388 Si02
#       7
#    16  16   2   8  16   8  16
#     4  10  21  38  60  90 127 170 214 258 315 374
#     4  11  23  39  65  95 127 166 208 258 314 376
#     4  12  26  44  68  94 120 164 208 276 324 362
#     4  10  25  43  65  92 125 164 219 265 314 378
#     4   8  15  31  56  88 122 160 207 258 313 374
#     4  11  26  46  68  95 126 161 206 260 314 375
#     4   8  15  30  56  87 121 164 212 261 313 368
#
# _framework density 20.303532000000001
#
# number of rings (size 3 to 8) (size 9 to 14) (size 15 to 20)
#    0.000    2.439    0.976    1.902    4.098    2.341 
#    0.000    0.976    2.146    0.000    2.537    0.000 
#    0.000    0.000    0.000    0.000    0.000    0.000 
#
# Total GULP energy -228763.138039 kJ/mol
# GULP energy per Si atom -5579.588733 kJ/mol
# Density = 2.025732 g / cm^3
# Si number density = 20.303532 Si / 1000 Ang^3
#
#
#
# Elastic Constant Matrix: (Units=GPa)
#
#
# Indices 1 2 3 4 5 6 
#
# 1 85.6151 38.4924 24.2016 0.0000 0.0000 0.0000
# 2 38.4924 197.7189 118.9240 0.0000 0.0000 0.0000
# 3 24.2016 118.9240 123.2021 0.0000 -0.0001 0.0000
# 4 0.0000 0.0000 0.0000 13.6426 0.0000 0.0000
# 5 0.0000 0.0000 -0.0001 0.0000 -42.2170 0.0000
# 6 0.0000 0.0000 0.0000 0.0000 0.0000 148.5240
#
#
#
# Elastic Compliance Matrix: (Units=1/GPa)
#
#
# Indices 1 2 3 4 5 6 
#
# 1 0.012804 -0.002336 -0.000260 0.000000 0.000000 0.000000
# 2 -0.002336 0.012485 -0.011593 0.000000 0.000000 0.000000
# 3 -0.000260 -0.011593 0.019358 0.000000 0.000000 0.000000
# 4 0.000000 0.000000 0.000000 0.073300 0.000000 0.000000
# 5 0.000000 0.000000 0.000000 0.000000 -0.023687 0.000000
# 6 0.000000 0.000000 0.000000 0.000000 0.000000 0.006733
#
#
# Mechanical properties :
#
#
# Convention : Reuss Voigt Hill
#
# Bulk Modulus (GPa) = 61.46594 85.53025 73.49810
# Shear Modulus (GPa) = 37.09327 38.98445 38.03886
#
# Velocity S-wave (km/s) = 4.27891 4.38663 4.33310
# Velocity P-wave (km/s) = 7.39941 8.23856 7.83024
#
# Compressibility (1/GPa) = 0.01626917
#
# Stress axis : x y z
#
# Youngs Moduli (GPa) = 78.09997 80.09294 51.65754
#
# Poissons Ratio (x) = 0.18713 0.01343
# Poissons Ratio (y) = 0.18247 0.59887
# Poissons Ratio (z) = 0.02030 0.92852
#
# Static dielectric constant tensor:
#      x y z
#    x 1.790790 0.000000 0.000000 
#    y 0.000000 1.699860 0.000000 
#    z 0.000000 0.000000 1.670430 
# 
# From -- ./inp_files/50450.got.cif
#   From: 2010.05.17/outbox.cif.g08.bks.cpg/sg71_26_cif.got.tgz:50450.got - 2010.06.03 16:22:01.
