data_PCOD9523845
_publ_section_title
;
Structure prediction by ZEFSAII (Michael W. Deem and Ramdas Pophale) SiO2 
 PCOD9523845
Probable space group: I M M M
;
_chemical_formula_sum "Si O2"
_cell_formula_units_Z 56
_cell_length_a 7.673738
_cell_length_b 23.652813
_cell_length_c 15.566670
_cell_angle_alpha 90.000000
_cell_angle_beta 90.000000
_cell_angle_gamma 90.000000
_cell_volume 2825.436065
_symmetry_space_group_name_H-M "I M M M"
_symmetry_group_IT_number 71
_symmetry_cell_setting 'orthorhombic'
loop_
_space_group_symop_operation_xyz
x,y,z
-x,-y,z
x,-y,-z
-x,y,-z
-x,-y,-z
x,y,-z
-x,y,z
x,-y,z
1/2+x,1/2+y,1/2+z
1/2-x,1/2-y,1/2+z
1/2+x,1/2-y,1/2-z
1/2-x,1/2+y,1/2-z
1/2-x,1/2-y,1/2-z
1/2+x,1/2+y,1/2-z
1/2-x,1/2+y,1/2+z
1/2+x,1/2-y,1/2+z
loop_
_atom_site_type_symbol
_atom_site_label
_atom_site_fract_x
_atom_site_fract_y
_atom_site_fract_z
Si Si1 0.500000 0.000000 0.357657
Si Si2 0.788076 0.892495 0.098058
Si Si3 0.289133 0.500000 0.714382
Si Si4 0.500000 0.095759 0.500000
Si Si5 0.691665 0.685238 0.000000
Si Si6 0.291556 0.732205 0.346911
O O1 0.327630 0.000000 0.298977
O O2 0.500000 0.055084 0.417731
O O3 0.742106 0.944603 0.158754
O O4 0.730705 0.831659 0.133584
O O5 0.000000 0.891558 0.095988
O O6 0.728338 0.900165 0.000000
O O7 0.500000 0.500000 0.729308
O O8 0.334708 0.136803 0.500000
O O9 0.714327 0.724976 0.083354
O O10 0.500000 0.659860 0.000000
O O11 0.500000 0.733516 0.358916
O O12 0.250000 0.750000 0.250000
#
# Coordination Sequence:
#
# PCOD9523845 Si02
#       6
#     4  16   8   4   8  16
#     4  11  28  50  71  98 126 178 227 278 348 393
#     4   9  18  36  62  91 133 180 215 264 334 399
#     4  10  22  41  69  99 131 169 227 277 326 398
#     4  11  28  52  72  90 138 177 220 290 340 403
#     4  12  25  45  71 103 135 177 227 283 346 407
#     4  11  22  39  63  97 139 180 225 279 341 405
#
# _framework density 19.819948
#
# number of rings (size 3 to 8) (size 9 to 14) (size 15 to 20)
#    0.000    1.571    2.857    1.286    4.000    2.857 
#    2.571    2.857    0.000    0.000    0.000    0.000 
#    0.000    0.000    0.000    0.000    0.000    0.000 
#
# Total GULP energy -156569.280595 kJ/mol
# GULP energy per Si atom -5591.760021 kJ/mol
# Density = 1.977484 g / cm^3
# Si number density = 19.819948 Si / 1000 Ang^3
#
#
#
# Elastic Constant Matrix: (Units=GPa)
#
#
# Indices 1 2 3 4 5 6 
#
# 1 106.1726 60.7895 47.4403 0.0000 0.0000 0.0000
# 2 60.7895 182.5284 99.1587 0.0000 0.0000 0.0000
# 3 47.4403 99.1587 185.9515 0.0003 0.0000 0.0000
# 4 0.0000 0.0000 0.0003 584.2549 -0.0001 0.0002
# 5 0.0000 0.0000 0.0000 -0.0001 28.8306 0.0000
# 6 0.0000 0.0000 0.0000 0.0002 0.0000 -17.3426
#
#
#
# Elastic Compliance Matrix: (Units=1/GPa)
#
#
# Indices 1 2 3 4 5 6 
#
# 1 0.011855 -0.003245 -0.001294 0.000000 0.000000 0.000000
# 2 -0.003245 0.008601 -0.003759 0.000000 0.000000 0.000000
# 3 -0.001294 -0.003759 0.007712 0.000000 0.000000 0.000000
# 4 0.000000 0.000000 0.000000 0.001712 0.000000 0.000000
# 5 0.000000 0.000000 0.000000 0.000000 0.034685 0.000000
# 6 0.000000 0.000000 0.000000 0.000000 0.000000 -0.057662
#
#
# Mechanical properties :
#
#
# Convention : Reuss Voigt Hill
#
# Bulk Modulus (GPa) = 86.41082 98.82548 92.61815
# Shear Modulus (GPa) = 182.76811 136.96620 159.86715
#
# Velocity S-wave (km/s) = 9.61324 8.32197 8.99082
# Velocity P-wave (km/s) = 12.91943 11.92938 12.43427
#
# Compressibility (1/GPa) = 0.01157262
#
# Stress axis : x y z
#
# Youngs Moduli (GPa) = 84.35369 116.26104 129.66475
#
# Poissons Ratio (x) = 0.37729 0.16777
# Poissons Ratio (y) = 0.27375 0.48738
# Poissons Ratio (z) = 0.10915 0.43699
#
# Static dielectric constant tensor:
#      x y z
#    x 1.718750 0.000000 0.000000 
#    y 0.000000 1.660590 0.000000 
#    z 0.000000 0.000000 1.662300 
# 
# From -- ./inp_files/31013.got.cif
#   From: 2010.05.17/outbox.cif.g08.bks.cpg/sg71_16_cif.got.tgz:31013.got - 2010.06.03 16:22:01.
