data_PCOD9523060
_publ_section_title
;
Structure prediction by ZEFSAII (Michael W. Deem and Ramdas Pophale) SiO2 
 PCOD9523060
Probable space group: I M M M
;
_chemical_formula_sum "Si O2"
_cell_formula_units_Z 104
_cell_length_a 22.603860
_cell_length_b 28.242017
_cell_length_c 8.448760
_cell_angle_alpha 90.000000
_cell_angle_beta 90.000000
_cell_angle_gamma 90.000000
_cell_volume 5393.507567
_symmetry_space_group_name_H-M "I M M M"
_symmetry_group_IT_number 71
_symmetry_cell_setting 'orthorhombic'
loop_
_space_group_symop_operation_xyz
x,y,z
-x,-y,z
x,-y,-z
-x,y,-z
-x,-y,-z
x,y,-z
-x,y,z
x,-y,z
1/2+x,1/2+y,1/2+z
1/2-x,1/2-y,1/2+z
1/2+x,1/2-y,1/2-z
1/2-x,1/2+y,1/2-z
1/2-x,1/2-y,1/2-z
1/2+x,1/2+y,1/2-z
1/2-x,1/2+y,1/2+z
1/2+x,1/2-y,1/2+z
loop_
_atom_site_type_symbol
_atom_site_label
_atom_site_fract_x
_atom_site_fract_y
_atom_site_fract_z
Si Si1 0.500000 0.055572 0.315489
Si Si2 0.260196 0.801468 0.818537
Si Si3 0.173711 0.876715 0.315722
Si Si4 0.113683 0.603077 0.813911
Si Si5 0.883804 0.291847 0.183703
Si Si6 0.268088 0.945587 0.188664
Si Si7 0.068620 0.808242 0.308668
O O1 0.500000 0.073005 0.500000
O O2 0.561255 0.072217 0.241675
O O3 0.500000 0.000000 0.321111
O O4 0.250000 0.750000 0.750000
O O5 0.223967 0.836964 0.709931
O O6 0.329933 0.804039 0.799808
O O7 0.241539 0.807601 0.000000
O O8 0.164490 0.886785 0.500000
O O9 0.205237 0.922280 0.239068
O O10 0.114105 0.849833 0.255793
O O11 0.086774 0.656565 0.809710
O O12 0.176894 0.587844 0.741031
O O13 0.122883 0.592666 0.000000
O O14 0.914471 0.243158 0.236154
O O15 0.864064 0.285501 0.000000
O O16 0.274656 0.000000 0.247671
O O17 0.269021 0.946510 0.000000
O O18 0.074767 0.804269 0.500000
O O19 0.000000 0.818705 0.272189
#
# Coordination Sequence:
#
# PCOD9523060 Si02
#       7
#     8  16  16  16  16  16  16
#     4   9  18  34  55  77 105 149 201 251 294 333
#     4  12  22  34  55  83 117 152 188 233 282 338
#     4  11  22  38  61  87 116 152 195 243 296 358
#     4  10  21  36  57  83 114 153 199 244 289 344
#     4  11  22  34  54  84 117 155 197 238 283 342
#     4  11  24  40  60  87 118 150 190 245 304 359
#     4  10  23  41  60  84 118 159 199 242 296 358
#
# _framework density 19.282443000000001
#
# number of rings (size 3 to 8) (size 9 to 14) (size 15 to 20)
#    0.000    1.308    3.077    3.231    1.077    3.385 
#    0.000    0.385    0.000    1.846    0.000    3.231 
#    0.000    0.000    0.000    0.000    0.000    0.000 
#
# Total GULP energy -289596.651633 kJ/mol
# GULP energy per Si atom -5569.166378 kJ/mol
# Density = 1.923856 g / cm^3
# Si number density = 19.282443 Si / 1000 Ang^3
#
#
#
# Elastic Constant Matrix: (Units=GPa)
#
#
# Indices 1 2 3 4 5 6 
#
# 1 121.3975 49.9105 15.9260 0.0000 0.0000 0.0000
# 2 49.9105 95.6825 15.8040 0.0000 0.0000 0.0000
# 3 15.9260 15.8040 39.4025 0.0000 0.0000 0.0000
# 4 0.0000 0.0000 0.0000 24.2864 0.0000 0.0000
# 5 0.0000 0.0000 0.0000 0.0000 1.3670 0.0000
# 6 0.0000 0.0000 0.0000 0.0000 0.0000 27.8130
#
#
#
# Elastic Compliance Matrix: (Units=1/GPa)
#
#
# Indices 1 2 3 4 5 6 
#
# 1 0.010666 -0.005196 -0.002227 0.000000 0.000000 0.000000
# 2 -0.005196 0.013724 -0.003404 0.000000 0.000000 0.000000
# 3 -0.002227 -0.003404 0.027645 0.000000 0.000000 0.000000
# 4 0.000000 0.000000 0.000000 0.041175 0.000000 0.000000
# 5 0.000000 0.000000 0.000000 0.000000 0.731537 0.000000
# 6 0.000000 0.000000 0.000000 0.000000 0.000000 0.035954
#
#
# Mechanical properties :
#
#
# Convention : Reuss Voigt Hill
#
# Bulk Modulus (GPa) = 32.91650 46.64041 39.77845
# Shear Modulus (GPa) = 5.60235 22.34942 13.97589
#
# Velocity S-wave (km/s) = 1.70638 3.40818 2.69513
# Velocity P-wave (km/s) = 4.58149 6.30303 5.50991
#
# Compressibility (1/GPa) = 0.03037991
#
# Stress axis : x y z
#
# Youngs Moduli (GPa) = 93.75884 72.86648 36.17325
#
# Poissons Ratio (x) = 0.37859 0.08056
# Poissons Ratio (y) = 0.48714 0.12315
# Poissons Ratio (z) = 0.20880 0.24807
#
# Static dielectric constant tensor:
#      x y z
#    x 1.698630 0.000000 0.000000 
#    y 0.000000 1.620460 0.000000 
#    z 0.000000 0.000000 1.664300 
# 
# From -- ./inp_files/13278.got.cif
#   From: 2010.05.17/outbox.cif.g08.bks.cpg/sg71_7_cif.got.tgz:13278.got - 2010.06.03 16:22:01.
