data_PCOD9523985
_publ_section_title
;
Structure prediction by ZEFSAII (Michael W. Deem and Ramdas Pophale) SiO2 
 PCOD9523985
Probable space group: I M M M
;
_chemical_formula_sum "Si O2"
_cell_formula_units_Z 104
_cell_length_a 13.784157
_cell_length_b 21.064833
_cell_length_c 24.258853
_cell_angle_alpha 90.000000
_cell_angle_beta 90.000000
_cell_angle_gamma 90.000000
_cell_volume 7043.823973
_symmetry_space_group_name_H-M "I M M M"
_symmetry_group_IT_number 71
_symmetry_cell_setting 'orthorhombic'
loop_
_space_group_symop_operation_xyz
x,y,z
-x,-y,z
x,-y,-z
-x,y,-z
-x,-y,-z
x,y,-z
-x,y,z
x,-y,z
1/2+x,1/2+y,1/2+z
1/2-x,1/2-y,1/2+z
1/2+x,1/2-y,1/2-z
1/2-x,1/2+y,1/2-z
1/2-x,1/2-y,1/2-z
1/2+x,1/2+y,1/2-z
1/2-x,1/2+y,1/2+z
1/2+x,1/2-y,1/2+z
loop_
_atom_site_type_symbol
_atom_site_label
_atom_site_fract_x
_atom_site_fract_y
_atom_site_fract_z
Si Si1 0.386999 0.317597 0.065269
Si Si2 0.297445 0.874622 0.619544
Si Si3 0.389881 0.752431 0.565227
Si Si4 0.301250 0.821908 0.935439
Si Si5 0.113009 0.500000 0.066000
Si Si6 0.616464 0.926750 0.854666
Si Si7 0.114027 0.423958 0.773469
O O1 0.500000 0.329641 0.076497
O O2 0.312138 0.357869 0.101762
O O3 0.362359 0.243034 0.073702
O O4 0.368295 0.330244 0.000000
O O5 0.360171 0.814792 0.598720
O O6 0.335213 0.937384 0.588738
O O7 0.318530 0.887443 0.683606
O O8 0.382269 0.768455 0.500000
O O9 0.500000 0.733417 0.576835
O O10 0.309838 0.698661 0.575361
O O11 0.335281 0.877660 0.896032
O O12 0.311816 0.838841 0.000000
O O13 0.000000 0.500000 0.083810
O O14 0.115561 0.500000 0.000000
O O15 0.500000 0.923721 0.861231
O O16 0.636519 0.911086 0.790532
O O17 0.645740 0.000000 0.864493
O O18 0.124009 0.500000 0.781820
O O19 0.000000 0.408707 0.783427
#
# Coordination Sequence:
#
# PCOD9523985 Si02
#       7
#    16  16  16  16   8  16  16
#     4   9  18  32  47  64  92 127 159 189 225 273
#     4  11  18  28  46  66  89 122 158 189 226 270
#     4   9  17  29  45  67  96 124 149 182 226 274
#     4   9  17  30  50  72  92 119 150 183 228 278
#     4  11  20  26  39  67  95 113 143 197 240 263
#     4   9  18  31  48  71  96 118 145 185 231 279
#     4   9  17  30  46  65  91 123 152 182 230 283
#
# _framework density 14.764708000000001
#
# number of rings (size 3 to 8) (size 9 to 14) (size 15 to 20)
#    0.000    2.538    0.769    5.077    0.000    2.462 
#    0.000    4.231    0.000    4.615    0.000    4.308 
#    0.000    0.000    0.000    0.000    0.000    0.000 
#
# Total GULP energy -289841.022300 kJ/mol
# GULP energy per Si atom -5573.865813 kJ/mol
# Density = 1.473110 g / cm^3
# Si number density = 14.764708 Si / 1000 Ang^3
#
#
#
# Elastic Constant Matrix: (Units=GPa)
#
#
# Indices 1 2 3 4 5 6 
#
# 1 110.0401 56.0255 65.0279 0.0000 0.0000 0.0000
# 2 56.0255 87.0657 76.6069 0.0000 0.0000 0.0000
# 3 65.0279 76.6069 99.5778 0.0000 0.0000 0.0000
# 4 0.0000 0.0000 0.0000 16.5432 0.0000 0.0000
# 5 0.0000 0.0000 0.0000 0.0000 24.3473 0.0000
# 6 0.0000 0.0000 0.0000 0.0000 0.0000 15.5363
#
#
#
# Elastic Compliance Matrix: (Units=1/GPa)
#
#
# Indices 1 2 3 4 5 6 
#
# 1 0.015084 -0.003216 -0.007376 0.000000 0.000000 0.000000
# 2 -0.003216 0.036234 -0.025775 0.000000 0.000000 0.000000
# 3 -0.007376 -0.025775 0.034688 0.000000 0.000000 0.000000
# 4 0.000000 0.000000 0.000000 0.060448 0.000000 0.000000
# 5 0.000000 0.000000 0.000000 0.000000 0.041072 0.000000
# 6 0.000000 0.000000 0.000000 0.000000 0.000000 0.064365
#
#
# Mechanical properties :
#
#
# Convention : Reuss Voigt Hill
#
# Bulk Modulus (GPa) = 75.34896 76.88935 76.11916
# Shear Modulus (GPa) = 15.19521 17.88690 16.54105
#
# Velocity S-wave (km/s) = 3.21153 3.48438 3.35073
# Velocity P-wave (km/s) = 8.05579 8.26906 8.16313
#
# Compressibility (1/GPa) = 0.01327158
#
# Stress axis : x y z
#
# Youngs Moduli (GPa) = 66.29552 27.59823 28.82808
#
# Poissons Ratio (x) = 0.08877 0.21263
# Poissons Ratio (y) = 0.21323 0.74305
# Poissons Ratio (z) = 0.48899 0.71135
#
# Static dielectric constant tensor:
#      x y z
#    x 1.490540 0.000000 0.000000 
#    y 0.000000 1.463440 0.000000 
#    z 0.000000 0.000000 1.490570 
# 
# From -- ./inp_files/39585.got.cif
#   From: 2010.05.17/outbox.cif.g08.bks.cpg/sg71_20_cif.got.tgz:39585.got - 2010.06.03 16:22:01.
