data_PCOD9523400
_publ_section_title
;
Structure prediction by ZEFSAII (Michael W. Deem and Ramdas Pophale) SiO2 
 PCOD9523400
Probable space group: I M M M
;
_chemical_formula_sum "Si O2"
_cell_formula_units_Z 116
_cell_length_a 26.736332
_cell_length_b 16.139382
_cell_length_c 13.060161
_cell_angle_alpha 90.000000
_cell_angle_beta 90.000000
_cell_angle_gamma 90.000000
_cell_volume 5635.562326
_symmetry_space_group_name_H-M "I M M M"
_symmetry_group_IT_number 71
_symmetry_cell_setting 'orthorhombic'
loop_
_space_group_symop_operation_xyz
x,y,z
-x,-y,z
x,-y,-z
-x,y,-z
-x,-y,-z
x,y,-z
-x,y,z
x,-y,z
1/2+x,1/2+y,1/2+z
1/2-x,1/2-y,1/2+z
1/2+x,1/2-y,1/2-z
1/2-x,1/2+y,1/2-z
1/2-x,1/2-y,1/2-z
1/2+x,1/2+y,1/2-z
1/2-x,1/2+y,1/2+z
1/2+x,1/2-y,1/2+z
loop_
_atom_site_type_symbol
_atom_site_label
_atom_site_fract_x
_atom_site_fract_y
_atom_site_fract_z
Si Si1 0.579676 0.358525 0.613848
Si Si2 0.944701 0.337560 0.119851
Si Si3 0.446410 0.595360 0.836948
Si Si4 0.337027 0.874427 0.681005
Si Si5 0.310191 0.000000 0.500000
Si Si6 0.311106 0.681700 0.676349
Si Si7 0.834743 0.899780 0.384506
Si Si8 0.215630 0.407528 0.389513
O O1 0.565771 0.387742 0.500000
O O2 0.563226 0.262040 0.622703
O O3 0.557501 0.402035 0.713473
O O4 0.639718 0.360952 0.627651
O O5 0.897088 0.378755 0.171533
O O6 0.000000 0.357202 0.159919
O O7 0.942850 0.361204 0.000000
O O8 0.500000 0.633856 0.866709
O O9 0.447397 0.500000 0.870725
O O10 0.393261 0.627934 0.877018
O O11 0.321251 0.778775 0.669917
O O12 0.320050 0.900538 0.793126
O O13 0.313293 0.928498 0.590872
O O14 0.307733 0.648500 0.793407
O O15 0.260505 0.656471 0.622165
O O16 0.816227 0.885363 0.500000
O O17 0.832255 0.000000 0.366691
O O18 0.190586 0.396578 0.500000
O O19 0.238226 0.500000 0.386479
#
# Coordination Sequence:
#
# PCOD9523400 Si02
#       8
#    16  16  16  16   4  16  16  16
#     4   9  17  29  48  74 109 148 189 245 305 358
#     4   9  17  32  57  87 117 150 192 247 310 375
#     4   9  17  27  40  63 101 148 199 249 300 362
#     4  11  23  42  64  92 127 164 200 256 317 373
#     4  12  24  44  67  92 134 162 196 260 333 366
#     4  10  21  38  61  89 117 157 206 247 302 371
#     4   9  18  34  53  80 118 154 200 262 316 360
#     4  11  24  42  62  87 122 164 209 250 301 367
#
# _framework density 20.583573000000001
#
# number of rings (size 3 to 8) (size 9 to 14) (size 15 to 20)
#    0.000    2.207    1.379    1.655    1.931    2.483 
#    1.241    2.759    0.000    0.414    0.000    0.966 
#    0.000    0.000    0.000    0.000    0.000    0.000 
#
# Total GULP energy -323313.400705 kJ/mol
# GULP energy per Si atom -5574.368978 kJ/mol
# Density = 2.053672 g / cm^3
# Si number density = 20.583573 Si / 1000 Ang^3
#
#
#
# Elastic Constant Matrix: (Units=GPa)
#
#
# Indices 1 2 3 4 5 6 
#
# 1 63.4076 14.6549 34.6962 0.0000 0.0000 0.0000
# 2 14.6549 57.1899 33.0971 0.0000 0.0000 0.0000
# 3 34.6962 33.0971 147.9299 0.0000 0.0000 0.0000
# 4 0.0000 0.0000 0.0000 -145.4790 0.0000 0.0000
# 5 0.0000 0.0000 0.0000 0.0000 5.6748 0.0000
# 6 0.0000 0.0000 0.0000 0.0000 0.0000 49.4350
#
#
#
# Elastic Compliance Matrix: (Units=1/GPa)
#
#
# Indices 1 2 3 4 5 6 
#
# 1 0.018411 -0.002549 -0.003748 0.000000 0.000000 0.000000
# 2 -0.002549 0.020439 -0.003975 0.000000 0.000000 0.000000
# 3 -0.003748 -0.003975 0.008528 0.000000 0.000000 0.000000
# 4 0.000000 0.000000 0.000000 -0.006874 0.000000 0.000000
# 5 0.000000 0.000000 0.000000 0.000000 0.176217 0.000000
# 6 0.000000 0.000000 0.000000 0.000000 0.000000 0.020229
#
#
# Mechanical properties :
#
#
# Convention : Reuss Voigt Hill
#
# Bulk Modulus (GPa) = 37.26507 48.15821 42.71164
# Shear Modulus (GPa) = 18.76600 -5.66856 6.54872
#
# Velocity S-wave (km/s) = 3.02271 -1.66130 1.78562
# Velocity P-wave (km/s) = 5.50690 4.44605 5.00466
#
# Compressibility (1/GPa) = 0.02683478
#
# Stress axis : x y z
#
# Youngs Moduli (GPa) = 54.31564 48.92547 117.25530
#
# Poissons Ratio (x) = 0.12470 0.43946
# Poissons Ratio (y) = 0.13844 0.46611
# Poissons Ratio (z) = 0.20357 0.19449
#
# Static dielectric constant tensor:
#      x y z
#    x 1.785910 0.000000 0.000000 
#    y 0.000000 1.894770 0.000000 
#    z 0.000000 0.000000 1.746630 
# 
# From -- ./inp_files/28983.got.cif
#   From: 2010.05.17/outbox.cif.g08.bks.cpg/sg71_15_cif.got.tgz:28983.got - 2010.06.03 16:22:01.
