data_PCOD9523191
_publ_section_title
;
Structure prediction by ZEFSAII (Michael W. Deem and Ramdas Pophale) SiO2 
 PCOD9523191
Probable space group: I M M M
;
_chemical_formula_sum "Si O2"
_cell_formula_units_Z 72
_cell_length_a 13.378118
_cell_length_b 8.903659
_cell_length_c 31.753581
_cell_angle_alpha 90.000000
_cell_angle_beta 90.000000
_cell_angle_gamma 90.000000
_cell_volume 3782.302421
_symmetry_space_group_name_H-M "I M M M"
_symmetry_group_IT_number 71
_symmetry_cell_setting 'orthorhombic'
loop_
_space_group_symop_operation_xyz
x,y,z
-x,-y,z
x,-y,-z
-x,y,-z
-x,-y,-z
x,y,-z
-x,y,z
x,-y,z
1/2+x,1/2+y,1/2+z
1/2-x,1/2-y,1/2+z
1/2+x,1/2-y,1/2-z
1/2-x,1/2+y,1/2-z
1/2-x,1/2-y,1/2-z
1/2+x,1/2+y,1/2-z
1/2-x,1/2+y,1/2+z
1/2+x,1/2-y,1/2+z
loop_
_atom_site_type_symbol
_atom_site_label
_atom_site_fract_x
_atom_site_fract_y
_atom_site_fract_z
Si Si1 0.000000 0.326244 0.050331
Si Si2 0.110125 0.822907 0.734735
Si Si3 0.808286 0.821122 0.093234
Si Si4 0.885536 0.180266 0.449909
Si Si5 0.306552 0.178262 0.683797
O O1 0.900211 0.246431 0.066832
O O2 0.000000 0.500000 0.064611
O O3 0.000000 0.323909 0.000000
O O4 0.195596 0.786130 0.701354
O O5 0.124666 0.730451 0.777499
O O6 0.000000 0.798630 0.717199
O O7 0.121583 0.000000 0.745094
O O8 0.702740 0.758777 0.075711
O O9 0.824144 0.766002 0.140989
O O10 0.808951 0.000000 0.090831
O O11 0.873371 0.210135 0.500000
O O12 0.000000 0.223392 0.438371
O O13 0.877311 0.000000 0.444142
O O14 0.315333 0.000000 0.676763
#
# Coordination Sequence:
#
# PCOD9523191 Si02
#       5
#     8  16  16  16  16
#     4  11  25  45  67  89 117 159 209 257 307 367
#     4   9  19  37  60  83 112 149 191 244 299 348
#     4  12  25  39  59  89 125 160 197 249 303 358
#     4   9  19  38  63  88 116 154 198 243 294 355
#     4  10  21  37  57  84 115 152 197 240 289 352
#
# _framework density 19.036024000000001
#
# number of rings (size 3 to 8) (size 9 to 14) (size 15 to 20)
#    0.000    1.889    0.000    4.333    1.556    6.667 
#    0.000    3.333    0.000    0.000    0.000    0.000 
#    0.000    0.000    0.000    0.000    0.000    0.000 
#
# Total GULP energy -201104.309927 kJ/mol
# GULP energy per Si atom -5586.230831 kJ/mol
# Density = 1.899270 g / cm^3
# Si number density = 19.036024 Si / 1000 Ang^3
#
#
#
# Elastic Constant Matrix: (Units=GPa)
#
#
# Indices 1 2 3 4 5 6 
#
# 1 90.3371 34.0677 16.7986 0.0000 0.0000 0.0000
# 2 34.0677 80.1996 35.6719 0.0000 0.0000 0.0000
# 3 16.7986 35.6719 56.7746 0.0000 0.0000 0.0000
# 4 0.0000 0.0000 0.0000 28.8097 0.0000 0.0000
# 5 0.0000 0.0000 0.0000 0.0000 -9.5942 0.0000
# 6 0.0000 0.0000 0.0000 0.0000 0.0000 -57.6039
#
#
#
# Elastic Compliance Matrix: (Units=1/GPa)
#
#
# Indices 1 2 3 4 5 6 
#
# 1 0.013193 -0.005368 -0.000531 0.000000 0.000000 0.000000
# 2 -0.005368 0.019489 -0.010657 0.000000 0.000000 0.000000
# 3 -0.000531 -0.010657 0.024466 0.000000 0.000000 0.000000
# 4 0.000000 0.000000 0.000000 0.034711 0.000000 0.000000
# 5 0.000000 0.000000 0.000000 0.000000 -0.104230 0.000000
# 6 0.000000 0.000000 0.000000 0.000000 0.000000 -0.017360
#
#
# Mechanical properties :
#
#
# Convention : Reuss Voigt Hill
#
# Bulk Modulus (GPa) = 41.60259 44.48752 43.04506
# Shear Modulus (GPa) = 438.87823 1.70719 220.29271
#
# Velocity S-wave (km/s) = 15.20039 0.94803 10.76918
# Velocity P-wave (km/s) = 18.16511 4.96178 13.31523
#
# Compressibility (1/GPa) = 0.02403696
#
# Stress axis : x y z
#
# Youngs Moduli (GPa) = 75.79946 51.31037 40.87244
#
# Poissons Ratio (x) = 0.27543 0.02169
# Poissons Ratio (y) = 0.40689 0.43557
# Poissons Ratio (z) = 0.04023 0.54681
#
# Static dielectric constant tensor:
#      x y z
#    x 1.663260 0.000000 0.000000 
#    y 0.000000 1.641650 0.000000 
#    z 0.000000 0.000000 1.625390 
# 
# From -- ./inp_files/65171.got.cif
#   From: 2010.05.17/outbox.cif.g08.bks.cpg/sg71_33_cif.got.tgz:65171.got - 2010.06.03 16:22:01.
