data_PCOD9523515
_publ_section_title
;
Structure prediction by ZEFSAII (Michael W. Deem and Ramdas Pophale) SiO2 
 PCOD9523515
Probable space group: I M M M
;
_chemical_formula_sum "Si O2"
_cell_formula_units_Z 72
_cell_length_a 23.058368
_cell_length_b 8.788287
_cell_length_c 19.243803
_cell_angle_alpha 90.000000
_cell_angle_beta 90.000000
_cell_angle_gamma 90.000000
_cell_volume 3899.632666
_symmetry_space_group_name_H-M "I M M M"
_symmetry_group_IT_number 71
_symmetry_cell_setting 'orthorhombic'
loop_
_space_group_symop_operation_xyz
x,y,z
-x,-y,z
x,-y,-z
-x,y,-z
-x,-y,-z
x,y,-z
-x,y,z
x,-y,z
1/2+x,1/2+y,1/2+z
1/2-x,1/2-y,1/2+z
1/2+x,1/2-y,1/2-z
1/2-x,1/2+y,1/2-z
1/2-x,1/2-y,1/2-z
1/2+x,1/2+y,1/2-z
1/2-x,1/2+y,1/2+z
1/2+x,1/2-y,1/2+z
loop_
_atom_site_type_symbol
_atom_site_label
_atom_site_fract_x
_atom_site_fract_y
_atom_site_fract_z
Si Si1 0.669135 0.818924 0.918322
Si Si2 0.000000 0.317841 0.918139
Si Si3 0.769030 0.681583 0.175738
Si Si4 0.067271 0.182474 0.328777
Si Si5 0.895204 0.182303 0.170028
O O1 0.721983 0.734830 0.880377
O O2 0.610339 0.766141 0.880787
O O3 0.676419 0.000000 0.909635
O O4 0.667490 0.783908 0.000000
O O5 0.943603 0.248408 0.881039
O O6 0.000000 0.500000 0.909462
O O7 0.000000 0.283105 0.000000
O O8 0.770056 0.500000 0.180654
O O9 0.750000 0.750000 0.250000
O O10 0.832470 0.745079 0.157889
O O11 0.085720 0.216279 0.249440
O O12 0.000000 0.223425 0.338736
O O13 0.072965 0.000000 0.338064
O O14 0.892178 0.000000 0.162912
#
# Coordination Sequence:
#
# PCOD9523515 Si02
#       5
#    16   8  16  16  16
#     4  11  25  43  63  92 129 167 209 258 314 373
#     4  11  25  43  63  93 132 171 212 261 317 374
#     4  12  24  40  65  95 126 164 211 260 315 377
#     4  10  21  39  64  93 124 162 208 256 309 372
#     4  11  22  40  66  95 126 164 211 260 314 375
#
# _framework density 18.463277000000001
#
# number of rings (size 3 to 8) (size 9 to 14) (size 15 to 20)
#    0.000    1.000    3.333    3.667    0.000    5.333 
#    0.000    2.222    0.000    0.000    0.000    0.000 
#    0.000    0.000    0.000    0.000    0.000    0.000 
#
# Total GULP energy -201395.797448 kJ/mol
# GULP energy per Si atom -5594.327707 kJ/mol
# Density = 1.842125 g / cm^3
# Si number density = 18.463277 Si / 1000 Ang^3
#
#
#
# Elastic Constant Matrix: (Units=GPa)
#
#
# Indices 1 2 3 4 5 6 
#
# 1 190.4606 84.5572 89.9635 0.0000 0.0000 0.0000
# 2 84.5572 107.6981 93.5146 0.0000 0.0000 0.0000
# 3 89.9635 93.5146 144.6418 0.0000 0.0000 0.0000
# 4 0.0000 0.0000 0.0000 27.7699 0.0000 0.0000
# 5 0.0000 0.0000 0.0000 0.0000 33.3718 0.0000
# 6 0.0000 0.0000 0.0000 0.0000 0.0000 40.0708
#
#
#
# Elastic Compliance Matrix: (Units=1/GPa)
#
#
# Indices 1 2 3 4 5 6 
#
# 1 0.008350 -0.004665 -0.002177 0.000000 0.000000 0.000000
# 2 -0.004665 0.023776 -0.012470 0.000000 0.000000 0.000000
# 3 -0.002177 -0.012470 0.016330 0.000000 0.000000 0.000000
# 4 0.000000 0.000000 0.000000 0.036010 0.000000 0.000000
# 5 0.000000 0.000000 0.000000 0.000000 0.029965 0.000000
# 6 0.000000 0.000000 0.000000 0.000000 0.000000 0.024956
#
#
# Mechanical properties :
#
#
# Convention : Reuss Voigt Hill
#
# Bulk Modulus (GPa) = 101.72183 108.76347 105.24265
# Shear Modulus (GPa) = 27.58022 31.89354 29.73688
#
# Velocity S-wave (km/s) = 3.86915 4.16071 4.01758
# Velocity P-wave (km/s) = 8.67030 9.06189 8.86826
#
# Compressibility (1/GPa) = 0.00983073
#
# Stress axis : x y z
#
# Youngs Moduli (GPa) = 119.75882 42.05944 61.23728
#
# Poissons Ratio (x) = 0.19623 0.13333
# Poissons Ratio (y) = 0.55873 0.76362
# Poissons Ratio (z) = 0.26074 0.52448
#
# Static dielectric constant tensor:
#      x y z
#    x 1.607850 0.000000 0.000000 
#    y 0.000000 1.618210 0.000000 
#    z 0.000000 0.000000 1.604270 
# 
# From -- ./inp_files/7971.got.cif
#   From: 2010.05.17/outbox.cif.g08.bks.cpg/sg71_4_cif.got.tgz:7971.got - 2010.06.03 16:22:01.
