data_PCOD9523732
_publ_section_title
;
Structure prediction by ZEFSAII (Michael W. Deem and Ramdas Pophale) SiO2 
 PCOD9523732
Probable space group: I M M M
;
_chemical_formula_sum "Si O2"
_cell_formula_units_Z 116
_cell_length_a 7.377532
_cell_length_b 24.766399
_cell_length_c 27.834509
_cell_angle_alpha 90.000000
_cell_angle_beta 90.000000
_cell_angle_gamma 90.000000
_cell_volume 5085.779560
_symmetry_space_group_name_H-M "I M M M"
_symmetry_group_IT_number 71
_symmetry_cell_setting 'orthorhombic'
loop_
_space_group_symop_operation_xyz
x,y,z
-x,-y,z
x,-y,-z
-x,y,-z
-x,-y,-z
x,y,-z
-x,y,z
x,-y,z
1/2+x,1/2+y,1/2+z
1/2-x,1/2-y,1/2+z
1/2+x,1/2-y,1/2-z
1/2-x,1/2+y,1/2-z
1/2-x,1/2-y,1/2-z
1/2+x,1/2+y,1/2-z
1/2-x,1/2+y,1/2+z
1/2+x,1/2-y,1/2+z
loop_
_atom_site_type_symbol
_atom_site_label
_atom_site_fract_x
_atom_site_fract_y
_atom_site_fract_z
Si Si1 0.783602 0.199523 0.786146
Si Si2 0.281439 0.562974 0.053193
Si Si3 0.779213 0.061598 0.055652
Si Si4 0.203294 0.351978 0.869721
Si Si5 0.220253 0.832506 0.108720
Si Si6 0.279249 0.230806 0.447280
Si Si7 0.500000 0.000000 0.278002
Si Si8 0.205171 0.903261 0.727401
O O1 0.750000 0.250000 0.750000
O O2 0.718088 0.195665 0.841442
O O3 0.725006 0.142549 0.763605
O O4 0.000000 0.197992 0.788686
O O5 0.500000 0.567513 0.056313
O O6 0.236555 0.500000 0.057330
O O7 0.195857 0.596759 0.095199
O O8 0.225941 0.581664 0.000000
O O9 0.719087 0.107583 0.093229
O O10 0.000000 0.062111 0.056089
O O11 0.723243 0.000000 0.067202
O O12 0.726576 0.073095 0.000000
O O13 0.285270 0.306508 0.903862
O O14 0.303433 0.370804 0.822733
O O15 0.000000 0.334901 0.855155
O O16 0.265987 0.791942 0.065569
O O17 0.000000 0.834595 0.111435
O O18 0.215167 0.214828 0.500000
O O19 0.500000 0.225772 0.447309
O O20 0.341362 0.047418 0.277751
O O21 0.000000 0.920177 0.740663
#
# Coordination Sequence:
#
# PCOD9523732 Si02
#       8
#    16  16  16  16  16  16   4  16
#     4  10  22  39  63  91 125 168 216 273 333 398
#     4   9  19  34  50  70 100 141 189 244 303 365
#     4   8  13  22  40  69 107 150 192 237 294 364
#     4  11  21  34  54  80 115 158 211 262 320 378
#     4   9  16  29  49  76 111 156 203 248 311 379
#     4   9  17  28  47  79 119 163 211 264 316 381
#     4  12  26  48  72  94 133 174 223 282 348 402
#     4  11  25  44  66  98 130 172 225 278 339 403
#
# _framework density 22.808696999999999
#
# number of rings (size 3 to 8) (size 9 to 14) (size 15 to 20)
#    0.000    2.345    0.690    3.103    1.931    3.862 
#    1.241    0.690    0.000    0.000    0.000    0.000 
#    0.000    1.655    0.000    4.000    0.000    8.276 
#
# Total GULP energy -323324.951676 kJ/mol
# GULP energy per Si atom -5574.568132 kJ/mol
# Density = 2.275678 g / cm^3
# Si number density = 22.808697 Si / 1000 Ang^3
#
#
#
# Elastic Constant Matrix: (Units=GPa)
#
#
# Indices 1 2 3 4 5 6 
#
# 1 96.7241 19.8592 5.1289 0.0000 0.0000 0.0000
# 2 19.8592 134.7880 54.4363 0.0000 0.0000 0.0000
# 3 5.1289 54.4363 86.8658 0.0000 0.0000 0.0000
# 4 0.0000 0.0000 0.0000 24.6748 0.0000 0.0000
# 5 0.0000 0.0000 0.0000 0.0000 3.4981 0.0000
# 6 0.0000 0.0000 0.0000 0.0000 0.0000 11.8738
#
#
#
# Elastic Compliance Matrix: (Units=1/GPa)
#
#
# Indices 1 2 3 4 5 6 
#
# 1 0.010676 -0.001765 0.000476 0.000000 0.000000 0.000000
# 2 -0.001765 0.010225 -0.006303 0.000000 0.000000 0.000000
# 3 0.000476 -0.006303 0.015434 0.000000 0.000000 0.000000
# 4 0.000000 0.000000 0.000000 0.040527 0.000000 0.000000
# 5 0.000000 0.000000 0.000000 0.000000 0.285870 0.000000
# 6 0.000000 0.000000 0.000000 0.000000 0.000000 0.084219
#
#
# Mechanical properties :
#
#
# Convention : Reuss Voigt Hill
#
# Bulk Modulus (GPa) = 47.28273 53.02519 50.15396
# Shear Modulus (GPa) = 10.65676 23.93957 17.29817
#
# Velocity S-wave (km/s) = 2.16388 3.24324 2.75690
# Velocity P-wave (km/s) = 5.19791 6.10926 5.67192
#
# Compressibility (1/GPa) = 0.02114937
#
# Stress axis : x y z
#
# Youngs Moduli (GPa) = 93.66922 97.80095 64.79174
#
# Poissons Ratio (x) = 0.17263 -0.03083
# Poissons Ratio (y) = 0.16534 0.40841
# Poissons Ratio (z) = -0.04457 0.61648
#
# Static dielectric constant tensor:
#      x y z
#    x 1.800100 0.000000 0.000000 
#    y 0.000000 1.834430 0.000000 
#    z 0.000000 0.000000 1.675360 
# 
# From -- ./inp_files/63651.got.cif
#   From: 2010.05.17/outbox.cif.g08.bks.cpg/sg71_32_cif.got.tgz:63651.got - 2010.06.03 16:22:01.
