data_PCOD9523140
_publ_section_title
;
Structure prediction by ZEFSAII (Michael W. Deem and Ramdas Pophale) SiO2 
 PCOD9523140
Probable space group: I M M M
;
_chemical_formula_sum "Si O2"
_cell_formula_units_Z 112
_cell_length_a 26.967944
_cell_length_b 13.289488
_cell_length_c 13.636921
_cell_angle_alpha 90.000000
_cell_angle_beta 90.000000
_cell_angle_gamma 90.000000
_cell_volume 4887.338411
_symmetry_space_group_name_H-M "I M M M"
_symmetry_group_IT_number 71
_symmetry_cell_setting 'orthorhombic'
loop_
_space_group_symop_operation_xyz
x,y,z
-x,-y,z
x,-y,-z
-x,y,-z
-x,-y,-z
x,y,-z
-x,y,z
x,-y,z
1/2+x,1/2+y,1/2+z
1/2-x,1/2-y,1/2+z
1/2+x,1/2-y,1/2-z
1/2-x,1/2+y,1/2-z
1/2-x,1/2-y,1/2-z
1/2+x,1/2+y,1/2-z
1/2-x,1/2+y,1/2+z
1/2+x,1/2-y,1/2+z
loop_
_atom_site_type_symbol
_atom_site_label
_atom_site_fract_x
_atom_site_fract_y
_atom_site_fract_z
Si Si1 0.340248 0.380984 0.893245
Si Si2 0.348797 0.882589 0.609049
Si Si3 0.303682 0.621527 0.682112
Si Si4 0.413078 0.116025 0.115109
Si Si5 0.695798 0.121325 0.815061
Si Si6 0.907285 0.806795 0.107770
Si Si7 0.053865 0.824235 0.683188
O O1 0.329690 0.500000 0.895708
O O2 0.313931 0.342908 0.794364
O O3 0.399121 0.367283 0.875005
O O4 0.326307 0.339394 0.000000
O O5 0.327304 0.866607 0.500000
O O6 0.312987 0.857638 0.699425
O O7 0.397276 0.812958 0.616616
O O8 0.361181 0.000000 0.618032
O O9 0.304046 0.500000 0.683387
O O10 0.249415 0.656462 0.649334
O O11 0.350803 0.653548 0.618877
O O12 0.355324 0.146665 0.130702
O O13 0.443191 0.203582 0.167712
O O14 0.419623 0.000000 0.149135
O O15 0.424627 0.118348 0.000000
O O16 0.697920 0.000000 0.823677
O O17 0.936870 0.844891 0.201613
O O18 0.926949 0.831153 0.000000
O O19 0.000000 0.861037 0.651971
#
# Coordination Sequence:
#
# PCOD9523140 Si02
#       7
#    16  16  16  16  16  16  16
#     4   9  19  37  58  82 113 144 177 222 274 326
#     4   9  17  31  52  76 105 142 183 224 263 309
#     4   9  19  34  55  83 114 147 182 221 264 319
#     4  10  21  37  56  81 114 148 181 219 266 321
#     4   9  17  32  54  79 110 148 184 217 259 311
#     4  10  21  37  56  80 107 139 181 226 276 326
#     4  11  23  39  59  81 106 138 181 231 281 329
#
# _framework density 22.916359
#
# number of rings (size 3 to 8) (size 9 to 14) (size 15 to 20)
#    0.000    2.429    1.429    0.429    0.000    4.000 
#    0.000    5.714    0.000    0.000    0.000    7.000 
#    0.000    0.000    0.000    0.000    0.000    0.000 
#
# Total GULP energy -312742.641261 kJ/mol
# GULP energy per Si atom -5584.690023 kJ/mol
# Density = 2.286420 g / cm^3
# Si number density = 22.916359 Si / 1000 Ang^3
#
#
#
# Elastic Constant Matrix: (Units=GPa)
#
#
# Indices 1 2 3 4 5 6 
#
# 1 61.9541 -10.1447 -6.0243 0.0000 0.0000 0.0000
# 2 -10.1447 42.8000 6.5869 0.0000 0.0000 0.0000
# 3 -6.0243 6.5869 86.9603 0.0000 0.0000 0.0000
# 4 0.0000 0.0000 0.0000 24.3769 0.0000 0.0000
# 5 0.0000 0.0000 0.0000 0.0000 -1.4384 0.0000
# 6 0.0000 0.0000 0.0000 0.0000 0.0000 9.7985
#
#
#
# Elastic Compliance Matrix: (Units=1/GPa)
#
#
# Indices 1 2 3 4 5 6 
#
# 1 0.016858 0.003861 0.000875 0.000000 0.000000 0.000000
# 2 0.003861 0.024524 -0.001590 0.000000 0.000000 0.000000
# 3 0.000875 -0.001590 0.011681 0.000000 0.000000 0.000000
# 4 0.000000 0.000000 0.000000 0.041022 0.000000 0.000000
# 5 0.000000 0.000000 0.000000 0.000000 -0.695208 0.000000
# 6 0.000000 0.000000 0.000000 0.000000 0.000000 0.102057
#
#
# Mechanical properties :
#
#
# Convention : Reuss Voigt Hill
#
# Bulk Modulus (GPa) = 16.84746 19.17226 18.00986
# Shear Modulus (GPa) = -10.29713 19.96714 4.83501
#
# Velocity S-wave (km/s) = -2.12205 2.95499 1.45411
# Velocity P-wave (km/s) = 1.16771 4.47515 3.27036
#
# Compressibility (1/GPa) = 0.05935613
#
# Stress axis : x y z
#
# Youngs Moduli (GPa) = 59.31780 40.77569 85.61205
#
# Poissons Ratio (x) = -0.15744 -0.07495
# Poissons Ratio (y) = -0.22903 0.13614
# Poissons Ratio (z) = -0.05193 0.06484
#
# Static dielectric constant tensor:
#      x y z
#    x 1.813800 0.000000 0.000000 
#    y 0.000000 1.950400 0.000000 
#    z 0.000000 0.000000 1.844900 
# 
# From -- ./inp_files/35162.got.cif
#   From: 2010.05.17/outbox.cif.g08.bks.cpg/sg71_18_cif.got.tgz:35162.got - 2010.06.03 16:22:01.
