data_PCOD9523292
_publ_section_title
;
Structure prediction by ZEFSAII (Michael W. Deem and Ramdas Pophale) SiO2 
 PCOD9523292
Probable space group: I M M M
;
_chemical_formula_sum "Si O2"
_cell_formula_units_Z 104
_cell_length_a 8.131770
_cell_length_b 29.623420
_cell_length_c 19.916552
_cell_angle_alpha 90.000000
_cell_angle_beta 90.000000
_cell_angle_gamma 90.000000
_cell_volume 4797.714902
_symmetry_space_group_name_H-M "I M M M"
_symmetry_group_IT_number 71
_symmetry_cell_setting 'orthorhombic'
loop_
_space_group_symop_operation_xyz
x,y,z
-x,-y,z
x,-y,-z
-x,y,-z
-x,-y,-z
x,y,-z
-x,y,z
x,-y,z
1/2+x,1/2+y,1/2+z
1/2-x,1/2-y,1/2+z
1/2+x,1/2-y,1/2-z
1/2-x,1/2+y,1/2-z
1/2-x,1/2-y,1/2-z
1/2+x,1/2+y,1/2-z
1/2-x,1/2+y,1/2+z
1/2+x,1/2-y,1/2+z
loop_
_atom_site_type_symbol
_atom_site_label
_atom_site_fract_x
_atom_site_fract_y
_atom_site_fract_z
Si Si1 0.691049 0.117029 0.784027
Si Si2 0.304973 0.448404 0.822264
Si Si3 0.700989 0.401296 0.576471
Si Si4 0.301385 0.368997 0.077990
Si Si5 0.695922 0.210809 0.798606
Si Si6 0.303536 0.767019 0.576494
Si Si7 0.317238 0.500000 0.580601
O O1 0.500000 0.111561 0.767887
O O2 0.778792 0.074487 0.750618
O O3 0.716458 0.124655 0.863637
O O4 0.762941 0.165210 0.762904
O O5 0.500000 0.451647 0.833964
O O6 0.239085 0.500000 0.826661
O O7 0.240859 0.410138 0.874542
O O8 0.742478 0.389534 0.500000
O O9 0.500000 0.400452 0.581031
O O10 0.761531 0.452238 0.593109
O O11 0.500000 0.369274 0.080612
O O12 0.245591 0.318270 0.096649
O O13 0.251615 0.376408 0.000000
O O14 0.500000 0.205500 0.799026
O O15 0.750000 0.250000 0.750000
O O16 0.747791 0.228426 0.872079
O O17 0.241535 0.759853 0.500000
O O18 0.500000 0.765529 0.575137
O O19 0.500000 0.500000 0.611592
O O20 0.338111 0.500000 0.500000
#
# Coordination Sequence:
#
# PCOD9523292 Si02
#       7
#    16  16  16  16  16  16   8
#     4  11  25  40  55  81 116 151 187 236 293 341
#     4  10  22  39  59  84 115 154 198 241 286 341
#     4   9  18  34  57  82 108 142 185 230 274 325
#     4   9  18  35  61  91 121 153 190 235 289 346
#     4  11  24  41  61  84 113 151 194 240 291 348
#     4  10  21  37  60  91 124 156 192 236 287 348
#     4   7  12  26  49  75  99 127 168 215 258 301
#
# _framework density 21.676985999999999
#
# number of rings (size 3 to 8) (size 9 to 14) (size 15 to 20)
#    0.000    2.231    0.000    3.231    1.077    8.000 
#    0.000    4.615    0.000    1.385    0.000    3.231 
#    0.000    0.000    0.000    0.000    0.000    0.000 
#
# Total GULP energy -289754.815040 kJ/mol
# GULP energy per Si atom -5572.207982 kJ/mol
# Density = 2.162765 g / cm^3
# Si number density = 21.676986 Si / 1000 Ang^3
#
#
#
# Elastic Constant Matrix: (Units=GPa)
#
#
# Indices 1 2 3 4 5 6 
#
# 1 20.4430 10.6097 0.5826 0.0000 0.0000 0.0000
# 2 10.6097 96.6062 16.0387 0.0000 0.0000 0.0000
# 3 0.5826 16.0387 80.5524 0.0000 0.0000 0.0000
# 4 0.0000 0.0000 0.0000 33.9932 0.0000 0.0000
# 5 0.0000 0.0000 0.0000 0.0000 17.4298 0.0000
# 6 0.0000 0.0000 0.0000 0.0000 0.0000 14.0319
#
#
#
# Elastic Compliance Matrix: (Units=1/GPa)
#
#
# Indices 1 2 3 4 5 6 
#
# 1 0.051921 -0.005833 0.000786 0.000000 0.000000 0.000000
# 2 -0.005833 0.011360 -0.002220 0.000000 0.000000 0.000000
# 3 0.000786 -0.002220 0.012851 0.000000 0.000000 0.000000
# 4 0.000000 0.000000 0.000000 0.029418 0.000000 0.000000
# 5 0.000000 0.000000 0.000000 0.000000 0.057373 0.000000
# 6 0.000000 0.000000 0.000000 0.000000 0.000000 0.071266
#
#
# Mechanical properties :
#
#
# Convention : Reuss Voigt Hill
#
# Bulk Modulus (GPa) = 16.23406 28.00706 22.12056
# Shear Modulus (GPa) = 18.56975 24.44902 21.50939
#
# Velocity S-wave (km/s) = 2.93005 3.36203 3.15345
# Velocity P-wave (km/s) = 4.35342 5.29332 4.84621
#
# Compressibility (1/GPa) = 0.06159889
#
# Stress axis : x y z
#
# Youngs Moduli (GPa) = 19.25996 88.02507 77.81758
#
# Poissons Ratio (x) = 0.51342 -0.06115
# Poissons Ratio (y) = 0.11234 0.17274
# Poissons Ratio (z) = -0.01513 0.19539
#
# Static dielectric constant tensor:
#      x y z
#    x 1.767810 0.000000 0.000000 
#    y 0.000000 2.115410 0.000000 
#    z 0.000000 0.000000 1.928930 
# 
# From -- ./inp_files/50934.got.cif
#   From: 2010.05.17/outbox.cif.g08.bks.cpg/sg71_26_cif.got.tgz:50934.got - 2010.06.03 16:22:01.
