data_PCOD9523713
_publ_section_title
;
Structure prediction by ZEFSAII (Michael W. Deem and Ramdas Pophale) SiO2 
 PCOD9523713
Probable space group: I M M M
;
_chemical_formula_sum "Si O2"
_cell_formula_units_Z 72
_cell_length_a 30.312109
_cell_length_b 7.875455
_cell_length_c 14.910856
_cell_angle_alpha 90.000000
_cell_angle_beta 90.000000
_cell_angle_gamma 90.000000
_cell_volume 3559.544153
_symmetry_space_group_name_H-M "I M M M"
_symmetry_group_IT_number 71
_symmetry_cell_setting 'orthorhombic'
loop_
_space_group_symop_operation_xyz
x,y,z
-x,-y,z
x,-y,-z
-x,y,-z
-x,-y,-z
x,y,-z
-x,y,z
x,-y,z
1/2+x,1/2+y,1/2+z
1/2-x,1/2-y,1/2+z
1/2+x,1/2-y,1/2-z
1/2-x,1/2+y,1/2-z
1/2-x,1/2-y,1/2-z
1/2+x,1/2+y,1/2-z
1/2-x,1/2+y,1/2+z
1/2+x,1/2-y,1/2+z
loop_
_atom_site_type_symbol
_atom_site_label
_atom_site_fract_x
_atom_site_fract_y
_atom_site_fract_z
Si Si1 0.627086 0.697973 0.321954
Si Si2 0.325957 0.189512 0.500000
Si Si3 0.446207 0.302643 0.000000
Si Si4 0.794030 0.704718 0.304628
Si Si5 0.051008 0.791473 0.695846
Si Si6 0.728541 0.196120 0.000000
O O1 0.620759 0.500000 0.343339
O O2 0.644904 0.783396 0.411797
O O3 0.664826 0.717286 0.247065
O O4 0.582659 0.765225 0.275642
O O5 0.281914 0.301884 0.500000
O O6 0.307842 0.000000 0.500000
O O7 0.433258 0.230356 0.903034
O O8 0.432328 0.500000 0.000000
O O9 0.500000 0.301252 0.000000
O O10 0.798365 0.500000 0.304557
O O11 0.750000 0.750000 0.250000
O O12 0.788547 0.769353 0.406354
O O13 0.000000 0.743100 0.708094
O O14 0.052298 0.000000 0.693286
O O15 0.714425 0.000000 0.000000
#
# Coordination Sequence:
#
# PCOD9523713 Si02
#       6
#    16   8   8  16  16   8
#     4  11  22  36  57  84 115 146 184 236 288 340
#     4  12  24  38  58  78 104 147 194 234 279 345
#     4   7  10  21  44  74 108 141 173 213 263 317
#     4  11  22  37  57  82 112 147 186 230 277 330
#     4   8  15  29  51  80 113 149 186 226 274 329
#     4  10  22  39  59  80 111 148 187 232 279 328
#
# _framework density 20.227308000000001
#
# number of rings (size 3 to 8) (size 9 to 14) (size 15 to 20)
#    0.000    2.111    2.222    3.667    0.000    1.778 
#    0.000    1.667    0.000    6.000    0.000    0.000 
#    0.000   13.333    0.000    0.000    0.000    0.000 
#
# Total GULP energy -200921.260195 kJ/mol
# GULP energy per Si atom -5581.146117 kJ/mol
# Density = 2.018127 g / cm^3
# Si number density = 20.227308 Si / 1000 Ang^3
#
#
#
# Elastic Constant Matrix: (Units=GPa)
#
#
# Indices 1 2 3 4 5 6 
#
# 1 67.9911 -16.6796 43.9426 0.0000 0.0000 0.0000
# 2 -16.6796 32.5185 -5.9859 0.0000 0.0000 0.0000
# 3 43.9426 -5.9859 164.2037 0.0000 0.0000 0.0000
# 4 0.0000 0.0000 0.0000 21.4364 0.0000 0.0000
# 5 0.0000 0.0000 0.0000 0.0000 24.9626 0.0000
# 6 0.0000 0.0000 0.0000 0.0000 0.0000 9.4441
#
#
#
# Elastic Compliance Matrix: (Units=1/GPa)
#
#
# Indices 1 2 3 4 5 6 
#
# 1 0.020328 0.009489 -0.005094 0.000000 0.000000 0.000000
# 2 0.009489 0.035389 -0.001249 0.000000 0.000000 0.000000
# 3 -0.005094 -0.001249 0.007408 0.000000 0.000000 0.000000
# 4 0.000000 0.000000 0.000000 0.046650 0.000000 0.000000
# 5 0.000000 0.000000 0.000000 0.000000 0.040060 0.000000
# 6 0.000000 0.000000 0.000000 0.000000 0.000000 0.105886
#
#
# Mechanical properties :
#
#
# Convention : Reuss Voigt Hill
#
# Bulk Modulus (GPa) = 14.40592 34.14084 24.27338
# Shear Modulus (GPa) = 18.34411 27.39771 22.87091
#
# Velocity S-wave (km/s) = 3.01474 3.68433 3.36623
# Velocity P-wave (km/s) = 4.38813 5.91729 5.20913
#
# Compressibility (1/GPa) = 0.06941592
#
# Stress axis : x y z
#
# Youngs Moduli (GPa) = 49.19338 28.25743 134.99512
#
# Poissons Ratio (x) = -0.26814 0.68767
# Poissons Ratio (y) = -0.46680 0.16865
# Poissons Ratio (z) = 0.25059 0.03530
#
# Static dielectric constant tensor:
#      x y z
#    x 1.695920 0.000000 0.000000 
#    y 0.000000 1.741860 0.000000 
#    z 0.000000 0.000000 1.688910 
# 
# From -- ./inp_files/6216.got.cif
#   From: 2010.05.17/outbox.cif.g08.bks.cpg/sg71_4_cif.got.tgz:6216.got - 2010.06.03 16:22:01.
