data_PCOD9523362
_publ_section_title
;
Structure prediction by ZEFSAII (Michael W. Deem and Ramdas Pophale) SiO2 
 PCOD9523362
Probable space group: I M M M
;
_chemical_formula_sum "Si O2"
_cell_formula_units_Z 104
_cell_length_a 7.959165
_cell_length_b 20.165031
_cell_length_c 31.025116
_cell_angle_alpha 90.000000
_cell_angle_beta 90.000000
_cell_angle_gamma 90.000000
_cell_volume 4979.432116
_symmetry_space_group_name_H-M "I M M M"
_symmetry_group_IT_number 71
_symmetry_cell_setting 'orthorhombic'
loop_
_space_group_symop_operation_xyz
x,y,z
-x,-y,z
x,-y,-z
-x,y,-z
-x,-y,-z
x,y,-z
-x,y,z
x,-y,z
1/2+x,1/2+y,1/2+z
1/2-x,1/2-y,1/2+z
1/2+x,1/2-y,1/2-z
1/2-x,1/2+y,1/2-z
1/2-x,1/2-y,1/2-z
1/2+x,1/2+y,1/2-z
1/2-x,1/2+y,1/2+z
1/2+x,1/2-y,1/2+z
loop_
_atom_site_type_symbol
_atom_site_label
_atom_site_fract_x
_atom_site_fract_y
_atom_site_fract_z
Si Si1 0.193800 0.898931 0.315698
Si Si2 0.689241 0.000000 0.245811
Si Si3 0.202233 0.747302 0.799990
Si Si4 0.313209 0.000000 0.450136
Si Si5 0.203106 0.145576 0.128132
Si Si6 0.702933 0.239429 0.949807
Si Si7 0.696216 0.624926 0.906470
Si Si8 0.305101 0.500000 0.650821
O O1 0.208751 0.820068 0.313711
O O2 0.269047 0.908656 0.363064
O O3 0.000000 0.920636 0.313581
O O4 0.281124 0.936726 0.276610
O O5 0.799631 0.000000 0.202935
O O6 0.500000 0.000000 0.229791
O O7 0.250000 0.750000 0.750000
O O8 0.255676 0.807624 0.831314
O O9 0.000000 0.741031 0.803769
O O10 0.213880 0.933694 0.439665
O O11 0.500000 0.000000 0.429811
O O12 0.336973 0.000000 0.500000
O O13 0.252341 0.179947 0.082985
O O14 0.267249 0.070283 0.134431
O O15 0.000000 0.143760 0.129967
O O16 0.500000 0.243780 0.951664
O O17 0.767068 0.306860 0.926096
O O18 0.760763 0.233754 0.000000
O O19 0.500000 0.637990 0.896812
O O20 0.500000 0.500000 0.637192
#
# Coordination Sequence:
#
# PCOD9523362 Si02
#       8
#    16   8  16   8  16  16  16   8
#     4  11  22  38  59  84 117 160 203 247 296 352
#     4  12  25  39  58  90 127 166 207 253 304 363
#     4  11  22  36  58  89 122 159 202 250 302 362
#     4  11  24  37  52  80 116 153 194 245 298 347
#     4  10  22  40  63  90 121 156 200 251 310 370
#     4  10  21  39  64  92 121 157 205 259 312 369
#     4  10  21  38  60  84 114 158 205 248 298 355
#     4  10  22  43  66  89 120 161 203 250 305 374
#
# _framework density 20.885915000000001
#
# number of rings (size 3 to 8) (size 9 to 14) (size 15 to 20)
#    0.000    1.462    1.538    3.692    0.000    7.692 
#    0.000    0.385    0.000    2.308    0.000    0.000 
#    0.000    0.000    0.000    0.000    0.000    0.000 
#
# Total GULP energy -290051.790737 kJ/mol
# GULP energy per Si atom -5577.919053 kJ/mol
# Density = 2.083838 g / cm^3
# Si number density = 20.885915 Si / 1000 Ang^3
#
#
#
# Elastic Constant Matrix: (Units=GPa)
#
#
# Indices 1 2 3 4 5 6 
#
# 1 30.8594 7.8548 2.1390 0.0000 0.0000 0.0000
# 2 7.8548 153.8926 43.9465 0.0000 0.0000 0.0000
# 3 2.1390 43.9465 103.7679 0.0000 0.0000 0.0000
# 4 0.0000 0.0000 0.0000 16.2722 0.0000 0.0000
# 5 0.0000 0.0000 0.0000 0.0000 26.8803 0.0000
# 6 0.0000 0.0000 0.0000 0.0000 0.0000 4.8055
#
#
#
# Elastic Compliance Matrix: (Units=1/GPa)
#
#
# Indices 1 2 3 4 5 6 
#
# 1 0.032832 -0.001686 0.000037 0.000000 0.000000 0.000000
# 2 -0.001686 0.007479 -0.003133 0.000000 0.000000 0.000000
# 3 0.000037 -0.003133 0.010963 0.000000 0.000000 0.000000
# 4 0.000000 0.000000 0.000000 0.061454 0.000000 0.000000
# 5 0.000000 0.000000 0.000000 0.000000 0.037202 0.000000
# 6 0.000000 0.000000 0.000000 0.000000 0.000000 0.208096
#
#
# Mechanical properties :
#
#
# Convention : Reuss Voigt Hill
#
# Bulk Modulus (GPa) = 23.97501 44.04450 34.00976
# Shear Modulus (GPa) = 13.10643 25.23023 19.16833
#
# Velocity S-wave (km/s) = 2.50776 3.47940 3.03275
# Velocity P-wave (km/s) = 4.45972 6.10537 5.34625
#
# Compressibility (1/GPa) = 0.04171010
#
# Stress axis : x y z
#
# Youngs Moduli (GPa) = 30.45836 133.71394 91.21791
#
# Poissons Ratio (x) = 0.22550 -0.00342
# Poissons Ratio (y) = 0.05137 0.28574
# Poissons Ratio (z) = -0.00114 0.41886
#
# Static dielectric constant tensor:
#      x y z
#    x 1.763870 0.000000 0.000000 
#    y 0.000000 1.753760 0.000000 
#    z 0.000000 0.000000 1.666450 
# 
# From -- ./inp_files/68326.got.cif
#   From: 2010.05.17/outbox.cif.g08.bks.cpg/sg71_35_cif.got.tgz:68326.got - 2010.06.03 16:22:01.
