data_PCOD9523461
_publ_section_title
;
Structure prediction by ZEFSAII (Michael W. Deem and Ramdas Pophale) SiO2 
 PCOD9523461
Probable space group: I M M M
;
_chemical_formula_sum "Si O2"
_cell_formula_units_Z 42
_cell_length_a 7.315770
_cell_length_b 23.825924
_cell_length_c 10.022144
_cell_angle_alpha 90.000000
_cell_angle_beta 90.000000
_cell_angle_gamma 90.000000
_cell_volume 1746.909610
_symmetry_space_group_name_H-M "I M M M"
_symmetry_group_IT_number 71
_symmetry_cell_setting 'orthorhombic'
loop_
_space_group_symop_operation_xyz
x,y,z
-x,-y,z
x,-y,-z
-x,y,-z
-x,-y,-z
x,y,-z
-x,y,z
x,-y,z
1/2+x,1/2+y,1/2+z
1/2-x,1/2-y,1/2+z
1/2+x,1/2-y,1/2-z
1/2-x,1/2+y,1/2-z
1/2-x,1/2-y,1/2-z
1/2+x,1/2+y,1/2-z
1/2-x,1/2+y,1/2+z
1/2+x,1/2-y,1/2+z
loop_
_atom_site_type_symbol
_atom_site_label
_atom_site_fract_x
_atom_site_fract_y
_atom_site_fract_z
Si Si1 0.774792 0.500000 0.247443
Si Si2 0.276939 0.788877 0.500000
Si Si3 0.500000 0.500000 0.500000
Si Si4 0.210713 0.620848 0.794356
Si Si5 0.719245 0.339510 0.500000
O O1 0.660755 0.500000 0.383853
O O2 0.722444 0.558336 0.176220
O O3 0.000000 0.500000 0.266176
O O4 0.500000 0.783970 0.500000
O O5 0.213711 0.825575 0.373165
O O6 0.214466 0.724776 0.500000
O O7 0.222893 0.630882 0.636221
O O8 0.000000 0.620198 0.833750
O O9 0.500000 0.341559 0.500000
#
# Coordination Sequence:
#
# PCOD9523461 Si02
#       5
#     8   8   2  16   8
#     4  10  23  38  61  94 122 160 204 253 312 369
#     4   9  20  39  61  85 116 159 202 248 301 367
#     4  12  22  36  64  84 136 156 202 250 308 348
#     4  10  21  39  61  86 119 155 201 250 304 364
#     4  11  22  35  58  89 119 155 203 246 301 358
#
# _framework density 24.042458
#
# number of rings (size 3 to 8) (size 9 to 14) (size 15 to 20)
#    0.000    1.905    0.000    3.143    5.333    3.810 
#    0.000    6.667    0.000    1.143    0.000    0.000 
#    0.000    0.000    0.000    0.000    0.000    0.000 
#
# Total GULP energy -117058.450651 kJ/mol
# GULP energy per Si atom -5574.211936 kJ/mol
# Density = 2.398774 g / cm^3
# Si number density = 24.042458 Si / 1000 Ang^3
#
#
#
# Elastic Constant Matrix: (Units=GPa)
#
#
# Indices 1 2 3 4 5 6 
#
# 1 115.0774 -5.3055 -14.8472 0.0000 0.0001 0.0000
# 2 -5.3055 191.9228 24.5520 -0.0001 0.0001 0.0000
# 3 -14.8472 24.5520 88.0043 -0.0002 0.0012 0.0000
# 4 0.0000 -0.0001 -0.0002 81.8951 0.0002 0.0000
# 5 0.0001 0.0001 0.0012 0.0002 -67.8780 0.0000
# 6 0.0000 0.0000 0.0000 0.0000 0.0000 3.1335
#
#
#
# Elastic Compliance Matrix: (Units=1/GPa)
#
#
# Indices 1 2 3 4 5 6 
#
# 1 0.008884 0.000056 0.001483 0.000000 0.000000 0.000000
# 2 0.000056 0.005404 -0.001498 0.000000 0.000000 0.000000
# 3 0.001483 -0.001498 0.012031 0.000000 0.000000 0.000000
# 4 0.000000 0.000000 0.000000 0.012211 0.000000 0.000000
# 5 0.000000 0.000000 0.000000 0.000000 -0.014732 0.000000
# 6 0.000000 0.000000 0.000000 0.000000 0.000000 0.319129
#
#
# Mechanical properties :
#
#
# Convention : Reuss Voigt Hill
#
# Bulk Modulus (GPa) = 37.87812 44.86701 41.37257
# Shear Modulus (GPa) = 14.21893 29.47049 21.84471
#
# Velocity S-wave (km/s) = 2.43453 3.50490 3.01755
# Velocity P-wave (km/s) = 4.86739 5.92293 5.42091
#
# Compressibility (1/GPa) = 0.02640046
#
# Stress axis : x y z
#
# Youngs Moduli (GPa) = 112.56524 185.06110 83.11676
#
# Poissons Ratio (x) = -0.01033 -0.12328
# Poissons Ratio (y) = -0.00629 0.12452
# Poissons Ratio (z) = -0.16696 0.27724
#
# Static dielectric constant tensor:
#      x y z
#    x 1.944270 0.000000 0.000000 
#    y 0.000000 1.955010 0.000000 
#    z 0.000000 0.000000 1.761350 
# 
# From -- ./inp_files/18084.got.cif
#   From: 2010.05.17/outbox.cif.g08.bks.cpg/sg71_10_cif.got.tgz:18084.got - 2010.06.03 16:22:01.
