data_PCOD9523936
_publ_section_title
;
Structure prediction by ZEFSAII (Michael W. Deem and Ramdas Pophale) SiO2 
 PCOD9523936
Probable space group: I M M M
;
_chemical_formula_sum "Si O2"
_cell_formula_units_Z 90
_cell_length_a 12.566787
_cell_length_b 23.279388
_cell_length_c 16.539091
_cell_angle_alpha 90.000000
_cell_angle_beta 90.000000
_cell_angle_gamma 90.000000
_cell_volume 4838.463282
_symmetry_space_group_name_H-M "I M M M"
_symmetry_group_IT_number 71
_symmetry_cell_setting 'orthorhombic'
loop_
_space_group_symop_operation_xyz
x,y,z
-x,-y,z
x,-y,-z
-x,y,-z
-x,-y,-z
x,y,-z
-x,y,z
x,-y,z
1/2+x,1/2+y,1/2+z
1/2-x,1/2-y,1/2+z
1/2+x,1/2-y,1/2-z
1/2-x,1/2+y,1/2-z
1/2-x,1/2-y,1/2-z
1/2+x,1/2+y,1/2-z
1/2-x,1/2+y,1/2+z
1/2+x,1/2-y,1/2+z
loop_
_atom_site_type_symbol
_atom_site_label
_atom_site_fract_x
_atom_site_fract_y
_atom_site_fract_z
Si Si1 0.628088 0.247797 0.904451
Si Si2 0.379271 0.882124 0.903246
Si Si3 0.000000 0.930297 0.906057
Si Si4 0.000000 0.065396 0.404040
Si Si5 0.207287 0.065917 0.195813
Si Si6 0.500000 0.000000 0.500000
Si Si7 0.380073 0.882472 0.500000
Si Si8 0.787013 0.864760 0.355816
O O1 0.500000 0.251576 0.897305
O O2 0.658464 0.182699 0.882788
O O3 0.682016 0.297853 0.853716
O O4 0.652570 0.257489 0.000000
O O5 0.500000 0.888675 0.874297
O O6 0.303453 0.929216 0.866559
O O7 0.379817 0.885072 0.000000
O O8 0.103082 0.913962 0.853506
O O9 0.000000 0.000000 0.910114
O O10 0.000000 0.910027 0.000000
O O11 0.894044 0.100578 0.381693
O O12 0.000000 0.060834 0.500000
O O13 0.000000 0.000000 0.369989
O O14 0.237841 0.106391 0.270345
O O15 0.191027 0.000000 0.222326
O O16 0.408970 0.949501 0.500000
O O17 0.500000 0.854249 0.500000
O O18 0.307630 0.870377 0.578735
#
# Coordination Sequence:
#
# PCOD9523936 Si02
#       8
#    16  16   8   8  16   2   8  16
#     4   9  17  34  62  90 115 149 192 243 302 353
#     4   9  20  40  64  88 113 146 198 252 302 359
#     4   9  19  39  59  77 114 159 192 232 301 375
#     4  11  21  29  53  87 114 145 197 252 292 329
#     4  11  24  36  57  89 120 155 198 249 305 360
#     4   8  24  40  52  66 112 184 230 208 280 372
#     4  10  24  37  54  74 113 176 210 229 283 358
#     4  12  21  36  58  85 121 153 201 249 296 354
#
# _framework density 18.600947000000001
#
# number of rings (size 3 to 8) (size 9 to 14) (size 15 to 20)
#    0.267    1.600    2.667    2.667    2.489    3.556 
#    0.000    0.889    1.956    0.000    0.000    0.000 
#    0.000    0.000    0.000    0.000    0.000    0.000 
#
# Total GULP energy -250599.233761 kJ/mol
# GULP energy per Si atom -5568.871861 kJ/mol
# Density = 1.855861 g / cm^3
# Si number density = 18.600947 Si / 1000 Ang^3
#
#
#
# Elastic Constant Matrix: (Units=GPa)
#
#
# Indices 1 2 3 4 5 6 
#
# 1 96.6154 21.7954 31.2305 0.0001 0.0000 0.0000
# 2 21.7954 37.2065 23.5541 0.0006 0.0000 0.0000
# 3 31.2305 23.5541 68.1835 0.0006 0.0000 0.0000
# 4 0.0001 0.0006 0.0006 41.0059 -0.0001 0.0000
# 5 0.0000 0.0000 0.0000 -0.0001 5.6796 0.0000
# 6 0.0000 0.0000 0.0000 0.0000 0.0000 24.5656
#
#
#
# Elastic Compliance Matrix: (Units=1/GPa)
#
#
# Indices 1 2 3 4 5 6 
#
# 1 0.012797 -0.004845 -0.004188 0.000000 0.000000 0.000000
# 2 -0.004845 0.036235 -0.010298 0.000000 0.000000 0.000000
# 3 -0.004188 -0.010298 0.020142 0.000000 0.000000 0.000000
# 4 0.000000 0.000000 0.000000 0.024387 0.000000 0.000000
# 5 0.000000 0.000000 0.000000 0.000000 0.176069 0.000000
# 6 0.000000 0.000000 0.000000 0.000000 0.000000 0.040707
#
#
# Mechanical properties :
#
#
# Convention : Reuss Voigt Hill
#
# Bulk Modulus (GPa) = 32.77446 39.46281 36.11864
# Shear Modulus (GPa) = 13.92102 22.61193 18.26647
#
# Velocity S-wave (km/s) = 2.73866 3.49038 3.13712
# Velocity P-wave (km/s) = 5.25913 6.12415 5.70805
#
# Compressibility (1/GPa) = 0.03051156
#
# Stress axis : x y z
#
# Youngs Moduli (GPa) = 78.14325 27.59785 49.64788
#
# Poissons Ratio (x) = 0.13372 0.20791
# Poissons Ratio (y) = 0.37863 0.51127
# Poissons Ratio (z) = 0.32724 0.28420
#
# Static dielectric constant tensor:
#      x y z
#    x 1.691810 0.000000 0.000000 
#    y 0.000000 1.629640 0.000000 
#    z 0.000000 0.000000 1.595770 
# 
# From -- ./inp_files/43417.got.cif
#   From: 2010.05.17/outbox.cif.g08.bks.cpg/sg71_22_cif.got.tgz:43417.got - 2010.06.03 16:22:01.
