data_PCOD9523699
_publ_section_title
;
Structure prediction by ZEFSAII (Michael W. Deem and Ramdas Pophale) SiO2 
 PCOD9523699
Probable space group: I M M M
;
_chemical_formula_sum "Si O2"
_cell_formula_units_Z 64
_cell_length_a 13.949316
_cell_length_b 20.321081
_cell_length_c 10.550892
_cell_angle_alpha 90.000000
_cell_angle_beta 90.000000
_cell_angle_gamma 90.000000
_cell_volume 2990.810503
_symmetry_space_group_name_H-M "I M M M"
_symmetry_group_IT_number 71
_symmetry_cell_setting 'orthorhombic'
loop_
_space_group_symop_operation_xyz
x,y,z
-x,-y,z
x,-y,-z
-x,y,-z
-x,-y,-z
x,y,-z
-x,y,z
x,-y,z
1/2+x,1/2+y,1/2+z
1/2-x,1/2-y,1/2+z
1/2+x,1/2-y,1/2-z
1/2-x,1/2+y,1/2-z
1/2-x,1/2-y,1/2-z
1/2+x,1/2+y,1/2-z
1/2-x,1/2+y,1/2+z
1/2+x,1/2-y,1/2+z
loop_
_atom_site_type_symbol
_atom_site_label
_atom_site_fract_x
_atom_site_fract_y
_atom_site_fract_z
Si Si1 0.613767 0.421406 0.647497
Si Si2 0.892135 0.294168 0.786718
Si Si3 0.185530 0.822722 0.640714
Si Si4 0.614131 0.929483 0.142042
O O1 0.632503 0.402797 0.500000
O O2 0.500000 0.410412 0.668676
O O3 0.630446 0.500000 0.659334
O O4 0.670410 0.378060 0.750415
O O5 0.883143 0.236970 0.682672
O O6 0.792743 0.290919 0.863453
O O7 0.877677 0.365418 0.724795
O O8 0.000000 0.290864 0.843318
O O9 0.163488 0.848082 0.500000
O O10 0.500000 0.935404 0.129271
O O11 0.649199 0.000000 0.193705
O O12 0.653745 0.921268 0.000000
#
# Coordination Sequence:
#
# PCOD9523699 Si02
#       4
#    16  16  16  16
#     4   9  20  41  67  93 123 161 204 251 306 368
#     4  10  22  39  57  80 118 164 203 244 301 367
#     4  11  24  39  59  91 125 158 203 258 311 364
#     4   8  14  27  50  78 105 138 185 237 285 337
#
# _framework density 21.398879999999998
#
# number of rings (size 3 to 8) (size 9 to 14) (size 15 to 20)
#    0.000    2.500    0.000    3.000    0.000   10.000 
#    0.000    3.750    0.000    0.000    0.000    5.250 
#    0.000    0.000    0.000    0.000    0.000    0.000 
#
# Total GULP energy -178231.729653 kJ/mol
# GULP energy per Si atom -5569.741552 kJ/mol
# Density = 2.135018 g / cm^3
# Si number density = 21.398880 Si / 1000 Ang^3
#
#
#
# Elastic Constant Matrix: (Units=GPa)
#
#
# Indices 1 2 3 4 5 6 
#
# 1 162.7069 20.4237 34.6194 0.0000 0.0000 0.0000
# 2 20.4237 63.9045 28.0822 0.0000 0.0000 0.0000
# 3 34.6194 28.0822 114.4298 0.0001 0.0000 -0.0001
# 4 0.0000 0.0000 0.0001 32.2985 0.0000 0.0000
# 5 0.0000 0.0000 0.0000 0.0000 -6.9990 0.0000
# 6 0.0000 0.0000 -0.0001 0.0000 0.0000 93.6619
#
#
#
# Elastic Compliance Matrix: (Units=1/GPa)
#
#
# Indices 1 2 3 4 5 6 
#
# 1 0.006678 -0.001397 -0.001678 0.000000 0.000000 0.000000
# 2 -0.001397 0.017832 -0.003953 0.000000 0.000000 0.000000
# 3 -0.001678 -0.003953 0.010217 0.000000 0.000000 0.000000
# 4 0.000000 0.000000 0.000000 0.030961 0.000000 0.000000
# 5 0.000000 0.000000 0.000000 0.000000 -0.142877 0.000000
# 6 0.000000 0.000000 0.000000 0.000000 0.000000 0.010677
#
#
# Mechanical properties :
#
#
# Convention : Reuss Voigt Hill
#
# Bulk Modulus (GPa) = 48.37747 56.36578 52.37162
# Shear Modulus (GPa) = -109.73233 40.98666 -34.37283
#
# Velocity S-wave (km/s) = -7.16874 4.38124 -4.01220
# Velocity P-wave (km/s) = 6.77233 7.21050 1.75026
#
# Compressibility (1/GPa) = 0.02067078
#
# Stress axis : x y z
#
# Youngs Moduli (GPa) = 149.73774 56.07826 97.87860
#
# Poissons Ratio (x) = 0.07835 0.16420
# Poissons Ratio (y) = 0.20921 0.38696
# Poissons Ratio (z) = 0.25120 0.22171
#
# Static dielectric constant tensor:
#      x y z
#    x 1.847990 0.000000 0.000000 
#    y 0.000000 1.766200 0.000000 
#    z 0.000000 0.000000 1.745100 
# 
# From -- ./inp_files/21238.got.cif
#   From: 2010.05.17/outbox.cif.g08.bks.cpg/sg71_11_cif.got.tgz:21238.got - 2010.06.03 16:22:01.
