data_PCOD9523051
_publ_section_title
;
Structure prediction by ZEFSAII (Michael W. Deem and Ramdas Pophale) SiO2 
 PCOD9523051
Probable space group: I M M M
;
_chemical_formula_sum "Si O2"
_cell_formula_units_Z 96
_cell_length_a 15.448893
_cell_length_b 19.741224
_cell_length_c 15.097347
_cell_angle_alpha 90.000000
_cell_angle_beta 90.000000
_cell_angle_gamma 90.000000
_cell_volume 4604.389753
_symmetry_space_group_name_H-M "I M M M"
_symmetry_group_IT_number 71
_symmetry_cell_setting 'orthorhombic'
loop_
_space_group_symop_operation_xyz
x,y,z
-x,-y,z
x,-y,-z
-x,y,-z
-x,-y,-z
x,y,-z
-x,y,z
x,-y,z
1/2+x,1/2+y,1/2+z
1/2-x,1/2-y,1/2+z
1/2+x,1/2-y,1/2-z
1/2-x,1/2+y,1/2-z
1/2-x,1/2-y,1/2-z
1/2+x,1/2+y,1/2-z
1/2-x,1/2+y,1/2+z
1/2+x,1/2-y,1/2+z
loop_
_atom_site_type_symbol
_atom_site_label
_atom_site_fract_x
_atom_site_fract_y
_atom_site_fract_z
Si Si1 0.339791 0.718681 0.402260
Si Si2 0.212613 0.421780 0.097988
Si Si3 0.399909 0.576314 0.649214
Si Si4 0.905399 0.890470 0.642284
Si Si5 0.596338 0.168780 0.720385
Si Si6 0.135483 0.736009 0.398440
O O1 0.372208 0.736869 0.500000
O O2 0.347207 0.638172 0.391017
O O3 0.391794 0.758289 0.327241
O O4 0.239779 0.739864 0.394767
O O5 0.187624 0.500000 0.107503
O O6 0.316712 0.417422 0.101218
O O7 0.168431 0.378091 0.174831
O O8 0.185119 0.397284 0.000000
O O9 0.500000 0.581498 0.619238
O O10 0.369131 0.500000 0.630336
O O11 0.400492 0.588588 0.754835
O O12 0.900538 0.809538 0.628256
O O13 0.000000 0.913470 0.609171
O O14 0.500000 0.142704 0.702419
O O15 0.608195 0.182108 0.824469
O O16 0.111066 0.720708 0.500000
#
# Coordination Sequence:
#
# PCOD9523051 Si02
#       6
#    16  16  16  16  16  16
#     4  11  22  38  62  90 124 168 215 260 312 375
#     4  11  25  43  63  93 131 169 213 262 312 375
#     4  10  21  36  56  88 129 169 210 257 309 372
#     4  11  21  38  63  92 128 169 209 257 321 382
#     4  12  24  41  66  93 125 168 215 264 317 372
#     4  11  23  40  64  94 127 160 205 269 324 371
#
# _framework density 20.849668999999999
#
# number of rings (size 3 to 8) (size 9 to 14) (size 15 to 20)
#    0.000    1.000    3.333    4.000    0.000    6.333 
#    0.000    2.500    0.000    1.500    0.000    1.167 
#    0.000    0.000    0.000    0.000    0.000    0.000 
#
# Total GULP energy -268352.026702 kJ/mol
# GULP energy per Si atom -5590.667223 kJ/mol
# Density = 2.080221 g / cm^3
# Si number density = 20.849669 Si / 1000 Ang^3
#
#
#
# Elastic Constant Matrix: (Units=GPa)
#
#
# Indices 1 2 3 4 5 6 
#
# 1 85.0935 26.5775 27.5859 0.0000 0.0000 0.0000
# 2 26.5775 107.5127 33.8249 0.0000 0.0000 0.0000
# 3 27.5859 33.8249 107.5458 0.0000 0.0000 0.0000
# 4 0.0000 0.0000 0.0000 18.7351 0.0000 0.0000
# 5 0.0000 0.0000 0.0000 0.0000 100.2276 0.0000
# 6 0.0000 0.0000 0.0000 0.0000 0.0000 10.7582
#
#
#
# Elastic Compliance Matrix: (Units=1/GPa)
#
#
# Indices 1 2 3 4 5 6 
#
# 1 0.013385 -0.002473 -0.002655 0.000000 0.000000 0.000000
# 2 -0.002473 0.010780 -0.002756 0.000000 0.000000 0.000000
# 3 -0.002655 -0.002756 0.010846 0.000000 0.000000 0.000000
# 4 0.000000 0.000000 0.000000 0.053376 0.000000 0.000000
# 5 0.000000 0.000000 0.000000 0.000000 0.009977 0.000000
# 6 0.000000 0.000000 0.000000 0.000000 0.000000 0.092952
#
#
# Mechanical properties :
#
#
# Convention : Reuss Voigt Hill
#
# Bulk Modulus (GPa) = 51.97078 52.90316 52.43697
# Shear Modulus (GPa) = 23.41919 40.08842 31.75381
#
# Velocity S-wave (km/s) = 3.35511 4.38966 3.90678
# Velocity P-wave (km/s) = 6.32373 7.14988 6.74946
#
# Compressibility (1/GPa) = 0.01924158
#
# Stress axis : x y z
#
# Youngs Moduli (GPa) = 74.70965 92.76672 92.19757
#
# Poissons Ratio (x) = 0.22945 0.24482
# Poissons Ratio (y) = 0.18479 0.25409
# Poissons Ratio (z) = 0.19838 0.25566
#
# Static dielectric constant tensor:
#      x y z
#    x 1.743100 0.000000 0.000000 
#    y 0.000000 1.729420 0.000000 
#    z 0.000000 0.000000 1.757760 
# 
# From -- ./inp_files/34519.got.cif
#   From: 2010.05.17/outbox.cif.g08.bks.cpg/sg71_18_cif.got.tgz:34519.got - 2010.06.03 16:22:01.
