data_PCOD9523273
_publ_section_title
;
Structure prediction by ZEFSAII (Michael W. Deem and Ramdas Pophale) SiO2 
 PCOD9523273
Probable space group: I M M M
;
_chemical_formula_sum "Si O2"
_cell_formula_units_Z 104
_cell_length_a 22.171855
_cell_length_b 28.001434
_cell_length_c 8.938591
_cell_angle_alpha 90.000000
_cell_angle_beta 90.000000
_cell_angle_gamma 90.000000
_cell_volume 5549.468217
_symmetry_space_group_name_H-M "I M M M"
_symmetry_group_IT_number 71
_symmetry_cell_setting 'orthorhombic'
loop_
_space_group_symop_operation_xyz
x,y,z
-x,-y,z
x,-y,-z
-x,y,-z
-x,-y,-z
x,y,-z
-x,y,z
x,-y,z
1/2+x,1/2+y,1/2+z
1/2-x,1/2-y,1/2+z
1/2+x,1/2-y,1/2-z
1/2-x,1/2+y,1/2-z
1/2-x,1/2-y,1/2-z
1/2+x,1/2+y,1/2-z
1/2-x,1/2+y,1/2+z
1/2+x,1/2-y,1/2+z
loop_
_atom_site_type_symbol
_atom_site_label
_atom_site_fract_x
_atom_site_fract_y
_atom_site_fract_z
Si Si1 0.000000 0.094024 0.323139
Si Si2 0.070249 0.400565 0.678702
Si Si3 0.623274 0.443977 0.678556
Si Si4 0.165559 0.669205 0.178710
Si Si5 0.627181 0.274805 0.321003
Si Si6 0.800109 0.137449 0.320477
Si Si7 0.500000 0.709062 0.176918
Si Si8 0.073211 0.500000 0.828513
O O1 0.940410 0.072763 0.247333
O O2 0.000000 0.083328 0.500000
O O3 0.000000 0.151419 0.306201
O O4 0.072809 0.402887 0.500000
O O5 0.112638 0.359113 0.739696
O O6 0.091093 0.451331 0.746392
O O7 0.000000 0.393008 0.722280
O O8 0.622029 0.436617 0.500000
O O9 0.632221 0.500000 0.708347
O O10 0.674554 0.411227 0.751513
O O11 0.161631 0.725462 0.212593
O O12 0.230685 0.647890 0.218268
O O13 0.157372 0.663951 0.000000
O O14 0.625084 0.281523 0.500000
O O15 0.659933 0.319463 0.244870
O O16 0.559946 0.271602 0.255324
O O17 0.806369 0.136585 0.500000
O O18 0.500000 0.719959 0.000000
O O19 0.000000 0.500000 0.827839
O O20 0.093848 0.500000 0.000000
#
# Coordination Sequence:
#
# PCOD9523273 Si02
#       8
#     8  16  16  16  16  16   8   8
#     4  11  22  38  63  94 127 164 205 255 309 364
#     4  10  21  37  59  89 120 152 195 248 301 354
#     4  11  24  41  63  92 125 162 207 258 309 364
#     4  10  24  42  61  89 122 160 204 247 301 366
#     4  11  23  40  64  91 121 160 203 250 304 362
#     4  11  23  42  64  88 120 160 205 250 300 363
#     4  11  23  38  60  93 127 161 202 255 310 364
#     4   9  17  33  59  85 113 153 191 232 291 354
#
# _framework density 18.740535000000001
#
# number of rings (size 3 to 8) (size 9 to 14) (size 15 to 20)
#    0.000    1.462    1.538    3.231    1.077    7.077 
#    1.385    0.000    0.000    0.000    0.000    0.000 
#    0.000    0.000    0.000    0.000    0.000    0.000 
#
# Total GULP energy -290716.949590 kJ/mol
# GULP energy per Si atom -5590.710569 kJ/mol
# Density = 1.869788 g / cm^3
# Si number density = 18.740535 Si / 1000 Ang^3
#
#
#
# Elastic Constant Matrix: (Units=GPa)
#
#
# Indices 1 2 3 4 5 6 
#
# 1 112.0509 51.8189 53.8153 0.0000 0.0000 0.0000
# 2 51.8189 90.4845 53.1323 0.0000 0.0000 0.0000
# 3 53.8153 53.1323 68.9013 0.0000 0.0000 0.0000
# 4 0.0000 0.0000 0.0000 21.8399 0.0000 0.0000
# 5 0.0000 0.0000 0.0000 0.0000 24.3630 0.0000
# 6 0.0000 0.0000 0.0000 0.0000 0.0000 757.0158
#
#
#
# Elastic Compliance Matrix: (Units=1/GPa)
#
#
# Indices 1 2 3 4 5 6 
#
# 1 0.014735 -0.003071 -0.009140 0.000000 0.000000 0.000000
# 2 -0.003071 0.020837 -0.013670 0.000000 0.000000 0.000000
# 3 -0.009140 -0.013670 0.032193 0.000000 0.000000 0.000000
# 4 0.000000 0.000000 0.000000 0.045788 0.000000 0.000000
# 5 0.000000 0.000000 0.000000 0.000000 0.041046 0.000000
# 6 0.000000 0.000000 0.000000 0.000000 0.000000 0.001321
#
#
# Mechanical properties :
#
#
# Convention : Reuss Voigt Hill
#
# Bulk Modulus (GPa) = 62.48629 65.44107 63.96368
# Shear Modulus (GPa) = 23.47243 168.15510 95.81377
#
# Velocity S-wave (km/s) = 3.54290 9.48276 7.15804
# Velocity P-wave (km/s) = 7.08177 12.44558 10.12531
#
# Compressibility (1/GPa) = 0.01600351
#
# Stress axis : x y z
#
# Youngs Moduli (GPa) = 67.86750 47.99129 31.06221
#
# Poissons Ratio (x) = 0.14739 0.28391
# Poissons Ratio (y) = 0.20843 0.42461
# Poissons Ratio (z) = 0.62032 0.65602
#
# Static dielectric constant tensor:
#      x y z
#    x 1.623870 0.000000 0.000000 
#    y 0.000000 1.631930 0.000000 
#    z 0.000000 0.000000 1.625930 
# 
# From -- ./inp_files/11179.got.cif
#   From: 2010.05.17/outbox.cif.g08.bks.cpg/sg71_6_cif.got.tgz:11179.got - 2010.06.03 16:22:01.
