data_PCOD9523587
_publ_section_title
;
Structure prediction by ZEFSAII (Michael W. Deem and Ramdas Pophale) SiO2 
 PCOD9523587
Probable space group: I M M M
;
_chemical_formula_sum "Si O2"
_cell_formula_units_Z 116
_cell_length_a 28.180966
_cell_length_b 28.745335
_cell_length_c 7.843088
_cell_angle_alpha 90.000000
_cell_angle_beta 90.000000
_cell_angle_gamma 90.000000
_cell_volume 6353.460557
_symmetry_space_group_name_H-M "I M M M"
_symmetry_group_IT_number 71
_symmetry_cell_setting 'orthorhombic'
loop_
_space_group_symop_operation_xyz
x,y,z
-x,-y,z
x,-y,-z
-x,y,-z
-x,-y,-z
x,y,-z
-x,y,z
x,-y,z
1/2+x,1/2+y,1/2+z
1/2-x,1/2-y,1/2+z
1/2+x,1/2-y,1/2-z
1/2-x,1/2+y,1/2-z
1/2-x,1/2-y,1/2-z
1/2+x,1/2+y,1/2-z
1/2-x,1/2+y,1/2+z
1/2+x,1/2-y,1/2+z
loop_
_atom_site_type_symbol
_atom_site_label
_atom_site_fract_x
_atom_site_fract_y
_atom_site_fract_z
Si Si1 0.858171 0.851673 0.701481
Si Si2 0.262997 0.697411 0.205176
Si Si3 0.331587 0.851888 0.699929
Si Si4 0.797028 0.447523 0.293915
Si Si5 0.187373 0.052446 0.793994
Si Si6 0.000000 0.329365 0.000000
Si Si7 0.071650 0.691414 0.310639
Si Si8 0.446154 0.705837 0.699689
O O1 0.861626 0.843748 0.500000
O O2 0.813650 0.821132 0.770191
O O3 0.844872 0.905346 0.732228
O O4 0.907527 0.834216 0.777839
O O5 0.250000 0.750000 0.250000
O O6 0.219148 0.666197 0.267327
O O7 0.264963 0.693127 0.000000
O O8 0.334488 0.840276 0.500000
O O9 0.330104 0.907253 0.723082
O O10 0.375044 0.827114 0.790459
O O11 0.797742 0.445331 0.500000
O O12 0.810225 0.500000 0.243592
O O13 0.742149 0.439859 0.238765
O O14 0.173606 0.000000 0.739976
O O15 0.187189 0.053043 0.000000
O O16 0.959129 0.327173 0.847386
O O17 0.054628 0.678378 0.500000
O O18 0.069641 0.747471 0.295360
O O19 0.448120 0.718683 0.500000
O O20 0.500000 0.693328 0.751795
#
# Coordination Sequence:
#
# PCOD9523587 Si02
#       8
#    16  16  16  16  16   4  16  16
#     4  11  22  35  53  82 111 149 195 234 293 355
#     4  10  22  35  48  72 113 154 188 229 275 347
#     4  11  21  36  54  82 120 154 195 237 290 353
#     4   9  18  33  54  81 113 150 195 241 288 349
#     4   9  18  34  55  79 109 149 194 238 289 351
#     4  12  22  44  60  90 121 150 207 248 294 350
#     4  12  23  39  63  88 118 158 197 250 299 343
#     4  11  22  40  59  82 114 148 196 250 295 347
#
# _framework density 18.257767000000001
#
# number of rings (size 3 to 8) (size 9 to 14) (size 15 to 20)
#    0.000    1.517    3.448    3.103    0.000    5.793 
#    0.000    1.379    0.000    0.414    0.000    3.862 
#    0.000    2.207    0.000    0.000    0.000    0.000 
#
# Total GULP energy -323318.660147 kJ/mol
# GULP energy per Si atom -5574.459658 kJ/mol
# Density = 1.821621 g / cm^3
# Si number density = 18.257767 Si / 1000 Ang^3
#
#
#
# Elastic Constant Matrix: (Units=GPa)
#
#
# Indices 1 2 3 4 5 6 
#
# 1 124.4439 63.8410 24.7659 0.0000 0.0000 0.0000
# 2 63.8410 92.9901 6.9697 0.0000 0.0000 0.0000
# 3 24.7659 6.9697 76.9700 0.0000 0.0000 0.0000
# 4 0.0000 0.0000 0.0000 26.2957 0.0000 0.0000
# 5 0.0000 0.0000 0.0000 0.0000 9.1800 0.0000
# 6 0.0000 0.0000 0.0000 0.0000 0.0000 59.3702
#
#
#
# Elastic Compliance Matrix: (Units=1/GPa)
#
#
# Indices 1 2 3 4 5 6 
#
# 1 0.013264 -0.008846 -0.003467 0.000000 0.000000 0.000000
# 2 -0.008846 0.016727 0.001332 0.000000 0.000000 0.000000
# 3 -0.003467 0.001332 0.013987 0.000000 0.000000 0.000000
# 4 0.000000 0.000000 0.000000 0.038029 0.000000 0.000000
# 5 0.000000 0.000000 0.000000 0.000000 0.108932 0.000000
# 6 0.000000 0.000000 0.000000 0.000000 0.000000 0.016843
#
#
# Mechanical properties :
#
#
# Convention : Reuss Voigt Hill
#
# Bulk Modulus (GPa) = 45.42258 53.95078 49.68668
# Shear Modulus (GPa) = 21.08959 32.22437 26.65698
#
# Velocity S-wave (km/s) = 3.40237 4.20571 3.82519
# Velocity P-wave (km/s) = 6.35353 7.29367 6.83977
#
# Compressibility (1/GPa) = 0.02201548
#
# Stress axis : x y z
#
# Youngs Moduli (GPa) = 75.39247 59.78241 71.49526
#
# Poissons Ratio (x) = 0.52885 0.24786
# Poissons Ratio (y) = 0.66695 -0.09521
# Poissons Ratio (z) = 0.26137 -0.07961
#
# Static dielectric constant tensor:
#      x y z
#    x 1.633720 0.000000 0.000000 
#    y 0.000000 1.626620 0.000000 
#    z 0.000000 0.000000 1.666170 
# 
# From -- ./inp_files/15658.got.cif
#   From: 2010.05.17/outbox.cif.g08.bks.cpg/sg71_8_cif.got.tgz:15658.got - 2010.06.03 16:22:01.
