data_PCOD9523211
_publ_section_title
;
Structure prediction by ZEFSAII (Michael W. Deem and Ramdas Pophale) SiO2 
 PCOD9523211
Probable space group: I M M M
;
_chemical_formula_sum "Si O2"
_cell_formula_units_Z 104
_cell_length_a 20.487482
_cell_length_b 8.150266
_cell_length_c 29.493956
_cell_angle_alpha 90.000000
_cell_angle_beta 90.000000
_cell_angle_gamma 90.000000
_cell_volume 4924.854408
_symmetry_space_group_name_H-M "I M M M"
_symmetry_group_IT_number 71
_symmetry_cell_setting 'orthorhombic'
loop_
_space_group_symop_operation_xyz
x,y,z
-x,-y,z
x,-y,-z
-x,y,-z
-x,-y,-z
x,y,-z
-x,y,z
x,-y,z
1/2+x,1/2+y,1/2+z
1/2-x,1/2-y,1/2+z
1/2+x,1/2-y,1/2-z
1/2-x,1/2+y,1/2-z
1/2-x,1/2-y,1/2-z
1/2+x,1/2+y,1/2-z
1/2-x,1/2+y,1/2+z
1/2+x,1/2-y,1/2+z
loop_
_atom_site_type_symbol
_atom_site_label
_atom_site_fract_x
_atom_site_fract_y
_atom_site_fract_z
Si Si1 0.801084 0.195065 0.786761
Si Si2 0.289869 0.700484 0.615943
Si Si3 0.676046 0.801966 0.947883
Si Si4 0.071828 0.807931 0.097493
Si Si5 0.422103 0.184568 0.500000
Si Si6 0.074625 0.695798 0.267528
Si Si7 0.424683 0.303561 0.130118
O O1 0.750000 0.250000 0.750000
O O2 0.767426 0.247214 0.834154
O O3 0.872521 0.253069 0.770130
O O4 0.806206 0.000000 0.789345
O O5 0.292336 0.500000 0.611796
O O6 0.243938 0.757632 0.575239
O O7 0.364106 0.764685 0.619277
O O8 0.620581 0.758127 0.911011
O O9 0.678643 0.000000 0.949976
O O10 0.666961 0.743211 0.000000
O O11 0.090410 0.787186 0.044759
O O12 0.000000 0.734635 0.105605
O O13 0.067733 0.000000 0.108800
O O14 0.500000 0.164484 0.500000
O O15 0.393620 0.000000 0.500000
O O16 0.072495 0.500000 0.267701
O O17 0.094233 0.749739 0.318728
O O18 0.000000 0.757744 0.259178
O O19 0.500000 0.247781 0.123536
O O20 0.423342 0.500000 0.129088
#
# Coordination Sequence:
#
# PCOD9523211 Si02
#       7
#    16  16  16  16   8  16  16
#     4  11  22  37  59  86 118 154 194 240 290 349
#     4   9  20  36  55  81 111 145 188 237 283 329
#     4  10  21  37  58  83 114 154 196 240 291 347
#     4   9  17  31  53  77 100 134 181 226 266 312
#     4   9  17  29  45  69 101 133 166 209 262 313
#     4  10  21  38  61  89 121 155 193 240 296 359
#     4  10  21  38  61  88 117 149 187 235 291 351
#
# _framework density 21.117374000000002
#
# number of rings (size 3 to 8) (size 9 to 14) (size 15 to 20)
#    0.000    2.231    0.000    2.538    1.077    5.231 
#    0.000    6.154    0.000    1.846    0.000    0.000 
#    0.000    0.000    0.000    0.000    0.000    0.000 
#
# Total GULP energy -289688.072685 kJ/mol
# GULP energy per Si atom -5570.924475 kJ/mol
# Density = 2.106931 g / cm^3
# Si number density = 21.117374 Si / 1000 Ang^3
#
#
#
# Elastic Constant Matrix: (Units=GPa)
#
#
# Indices 1 2 3 4 5 6 
#
# 1 85.0468 4.8199 19.2377 0.0000 0.0000 0.0000
# 2 4.8199 27.2130 5.5940 0.0000 0.0000 0.0000
# 3 19.2377 5.5940 75.2389 0.0000 0.0000 0.0000
# 4 0.0000 0.0000 0.0000 21.5489 0.0000 0.0000
# 5 0.0000 0.0000 0.0000 0.0000 42.8536 0.0000
# 6 0.0000 0.0000 0.0000 0.0000 0.0000 22.3028
#
#
#
# Elastic Compliance Matrix: (Units=1/GPa)
#
#
# Indices 1 2 3 4 5 6 
#
# 1 0.012547 -0.001587 -0.003090 0.000000 0.000000 0.000000
# 2 -0.001587 0.037518 -0.002384 0.000000 0.000000 0.000000
# 3 -0.003090 -0.002384 0.014258 0.000000 0.000000 0.000000
# 4 0.000000 0.000000 0.000000 0.046406 0.000000 0.000000
# 5 0.000000 0.000000 0.000000 0.000000 0.023335 0.000000
# 6 0.000000 0.000000 0.000000 0.000000 0.000000 0.044837
#
#
# Mechanical properties :
#
#
# Convention : Reuss Voigt Hill
#
# Bulk Modulus (GPa) = 19.91958 27.42244 23.67101
# Shear Modulus (GPa) = 23.83695 27.86419 25.85057
#
# Velocity S-wave (km/s) = 3.36338 3.63642 3.50256
# Velocity P-wave (km/s) = 4.95342 5.53582 5.25270
#
# Compressibility (1/GPa) = 0.05020185
#
# Stress axis : x y z
#
# Youngs Moduli (GPa) = 79.69917 26.65373 70.13440
#
# Poissons Ratio (x) = 0.04230 0.21673
# Poissons Ratio (y) = 0.12649 0.16718
# Poissons Ratio (z) = 0.24628 0.06353
#
# Static dielectric constant tensor:
#      x y z
#    x 1.821930 0.000000 0.000000 
#    y 0.000000 1.884040 0.000000 
#    z 0.000000 0.000000 1.833410 
# 
# From -- ./inp_files/11146.got.cif
#   From: 2010.05.17/outbox.cif.g08.bks.cpg/sg71_6_cif.got.tgz:11146.got - 2010.06.03 16:22:01.
