data_PCOD9523387
_publ_section_title
;
Structure prediction by ZEFSAII (Michael W. Deem and Ramdas Pophale) SiO2 
 PCOD9523387
Probable space group: I M M M
;
_chemical_formula_sum "Si O2"
_cell_formula_units_Z 50
_cell_length_a 10.407563
_cell_length_b 7.337402
_cell_length_c 30.353205
_cell_angle_alpha 90.000000
_cell_angle_beta 90.000000
_cell_angle_gamma 90.000000
_cell_volume 2317.906521
_symmetry_space_group_name_H-M "I M M M"
_symmetry_group_IT_number 71
_symmetry_cell_setting 'orthorhombic'
loop_
_space_group_symop_operation_xyz
x,y,z
-x,-y,z
x,-y,-z
-x,y,-z
-x,-y,-z
x,y,-z
-x,y,z
x,-y,z
1/2+x,1/2+y,1/2+z
1/2-x,1/2-y,1/2+z
1/2+x,1/2-y,1/2-z
1/2-x,1/2+y,1/2-z
1/2-x,1/2-y,1/2-z
1/2+x,1/2+y,1/2-z
1/2-x,1/2+y,1/2+z
1/2+x,1/2-y,1/2+z
loop_
_atom_site_type_symbol
_atom_site_label
_atom_site_fract_x
_atom_site_fract_y
_atom_site_fract_z
Si Si1 0.358540 0.717513 0.285994
Si Si2 0.000000 0.222280 0.949150
Si Si3 0.277868 0.720762 0.617466
Si Si4 0.000000 0.000000 0.500000
Si Si5 0.000000 0.720028 0.581584
O O1 0.500000 0.785062 0.272809
O O2 0.366747 0.500000 0.290231
O O3 0.250000 0.750000 0.250000
O O4 0.322280 0.786594 0.334651
O O5 0.125429 0.280104 0.921383
O O6 0.000000 0.000000 0.950072
O O7 0.000000 0.282541 0.000000
O O8 0.286479 0.500000 0.617858
O O9 0.130542 0.764877 0.607658
O O10 0.000000 0.159890 0.538127
O O11 0.000000 0.500000 0.572985
#
# Coordination Sequence:
#
# PCOD9523387 Si02
#       5
#    16   8  16   2   8
#     4  10  21  38  60  89 124 162 209 263 319 386
#     4   9  16  28  55  88 113 143 195 253 303 363
#     4   9  18  36  59  87 119 156 207 256 309 377
#     4  12  26  44  60  96 136 164 214 270 320 370
#     4  10  23  41  66  91 122 172 214 259 318 383
#
# _framework density 21.571186999999998
#
# number of rings (size 3 to 8) (size 9 to 14) (size 15 to 20)
#    0.000    2.400    1.600    0.240    4.480    0.640 
#    2.880    0.000    0.000    1.920    0.000    0.000 
#    0.000    0.000    0.000    0.000    0.000    0.000 
#
# Total GULP energy -139383.145273 kJ/mol
# GULP energy per Si atom -5575.325811 kJ/mol
# Density = 2.152209 g / cm^3
# Si number density = 21.571187 Si / 1000 Ang^3
#
#
#
# Elastic Constant Matrix: (Units=GPa)
#
#
# Indices 1 2 3 4 5 6 
#
# 1 238.3851 14.8524 129.9144 0.0000 0.0000 0.0000
# 2 14.8524 90.7994 11.3088 0.0000 0.0000 0.0000
# 3 129.9144 11.3088 199.9062 0.0000 0.0000 0.0000
# 4 0.0000 0.0000 0.0000 -52.9470 0.0000 0.0000
# 5 0.0000 0.0000 0.0000 0.0000 -8.2924 0.0000
# 6 0.0000 0.0000 0.0000 0.0000 0.0000 -6.8451
#
#
#
# Elastic Compliance Matrix: (Units=1/GPa)
#
#
# Indices 1 2 3 4 5 6 
#
# 1 0.006522 -0.000543 -0.004208 0.000000 0.000000 0.000000
# 2 -0.000543 0.011137 -0.000277 0.000000 0.000000 0.000000
# 3 -0.004208 -0.000277 0.007752 0.000000 0.000000 0.000000
# 4 0.000000 0.000000 0.000000 -0.018887 0.000000 0.000000
# 5 0.000000 0.000000 0.000000 0.000000 -0.120592 0.000000
# 6 0.000000 0.000000 0.000000 0.000000 0.000000 -0.146089
#
#
# Mechanical properties :
#
#
# Convention : Reuss Voigt Hill
#
# Bulk Modulus (GPa) = 65.12320 93.47131 79.29726
# Shear Modulus (GPa) = -20.40951 11.25076 -4.57937
#
# Velocity S-wave (km/s) = -3.07929 2.28626 -1.45860
# Velocity P-wave (km/s) = 4.19676 7.09894 5.83128
#
# Compressibility (1/GPa) = 0.01535551
#
# Stress axis : x y z
#
# Youngs Moduli (GPa) = 153.33233 89.79397 128.99085
#
# Poissons Ratio (x) = 0.04874 0.54275
# Poissons Ratio (y) = 0.08322 0.03577
# Poissons Ratio (z) = 0.64517 0.02490
#
# Static dielectric constant tensor:
#      x y z
#    x 1.688120 0.000000 0.000000 
#    y 0.000000 1.896470 0.000000 
#    z 0.000000 0.000000 1.724350 
# 
# From -- ./inp_files/64081.got.cif
#   From: 2010.05.17/outbox.cif.g08.bks.cpg/sg71_33_cif.got.tgz:64081.got - 2010.06.03 16:22:01.
