data_PCOD9523298
_publ_section_title
;
Structure prediction by ZEFSAII (Michael W. Deem and Ramdas Pophale) SiO2 
 PCOD9523298
Probable space group: I M M M
;
_chemical_formula_sum "Si O2"
_cell_formula_units_Z 104
_cell_length_a 7.736161
_cell_length_b 22.529457
_cell_length_c 26.924256
_cell_angle_alpha 90.000000
_cell_angle_beta 90.000000
_cell_angle_gamma 90.000000
_cell_volume 4692.669142
_symmetry_space_group_name_H-M "I M M M"
_symmetry_group_IT_number 71
_symmetry_cell_setting 'orthorhombic'
loop_
_space_group_symop_operation_xyz
x,y,z
-x,-y,z
x,-y,-z
-x,y,-z
-x,-y,-z
x,y,-z
-x,y,z
x,-y,z
1/2+x,1/2+y,1/2+z
1/2-x,1/2-y,1/2+z
1/2+x,1/2-y,1/2-z
1/2-x,1/2+y,1/2-z
1/2-x,1/2-y,1/2-z
1/2+x,1/2+y,1/2-z
1/2-x,1/2+y,1/2+z
1/2+x,1/2-y,1/2+z
loop_
_atom_site_type_symbol
_atom_site_label
_atom_site_fract_x
_atom_site_fract_y
_atom_site_fract_z
Si Si1 0.295437 0.932863 0.500000
Si Si2 0.792018 0.843825 0.212870
Si Si3 0.707575 0.433544 0.373067
Si Si4 0.792436 0.752296 0.639893
Si Si5 0.788722 0.935077 0.706159
Si Si6 0.792415 0.337131 0.555173
Si Si7 0.707693 0.618686 0.893207
O O1 0.500000 0.938222 0.500000
O O2 0.249624 0.898775 0.550674
O O3 0.220068 0.000000 0.500000
O O4 0.729217 0.889297 0.169873
O O5 0.743628 0.778592 0.192939
O O6 0.732480 0.876963 0.262878
O O7 0.000000 0.843720 0.214422
O O8 0.500000 0.435618 0.368017
O O9 0.774794 0.500000 0.368539
O O10 0.750884 0.402506 0.424948
O O11 0.725156 0.708232 0.596801
O O12 0.727372 0.817420 0.625985
O O13 0.000000 0.754649 0.636673
O O14 0.735706 0.927736 0.648930
O O15 0.000000 0.935048 0.708409
O O16 0.734014 0.000000 0.725775
O O17 0.725803 0.325959 0.500000
O O18 0.000000 0.330743 0.554082
O O19 0.500000 0.620570 0.890846
#
# Coordination Sequence:
#
# PCOD9523298 Si02
#       7
#     8  16  16  16  16  16  16
#     4  11  25  43  61  85 119 151 180 225 286 339
#     4   9  17  31  52  76 106 143 179 217 268 326
#     4   9  17  29  45  66  93 127 168 213 262 314
#     4   9  19  34  52  77 108 139 179 226 272 321
#     4   9  17  31  54  84 112 140 183 234 276 321
#     4   9  18  31  46  63  90 129 168 212 265 319
#     4  10  21  37  61  87 110 144 190 233 274 326
#
# _framework density 22.162227000000001
#
# number of rings (size 3 to 8) (size 9 to 14) (size 15 to 20)
#    0.000    2.692    0.000    1.154    1.077    5.231 
#    0.000    2.308    0.000    2.308    0.000    0.000 
#    0.000    0.000    0.000    0.000    0.000    0.000 
#
# Total GULP energy -290045.750505 kJ/mol
# GULP energy per Si atom -5577.802894 kJ/mol
# Density = 2.211178 g / cm^3
# Si number density = 22.162227 Si / 1000 Ang^3
#
#
#
# Elastic Constant Matrix: (Units=GPa)
#
#
# Indices 1 2 3 4 5 6 
#
# 1 29.9901 4.8179 1.2724 0.0000 0.0000 0.0000
# 2 4.8179 140.2795 58.8162 0.0000 0.0000 0.0000
# 3 1.2724 58.8162 145.5201 0.0000 0.0000 0.0000
# 4 0.0000 0.0000 0.0000 25.0503 0.0000 0.0000
# 5 0.0000 0.0000 0.0000 0.0000 -38.6272 0.0000
# 6 0.0000 0.0000 0.0000 0.0000 0.0000 12.0785
#
#
#
# Elastic Compliance Matrix: (Units=1/GPa)
#
#
# Indices 1 2 3 4 5 6 
#
# 1 0.033534 -0.001239 0.000207 0.000000 0.000000 0.000000
# 2 -0.001239 0.008629 -0.003477 0.000000 0.000000 0.000000
# 3 0.000207 -0.003477 0.008275 0.000000 0.000000 0.000000
# 4 0.000000 0.000000 0.000000 0.039920 0.000000 0.000000
# 5 0.000000 0.000000 0.000000 0.000000 -0.025888 0.000000
# 6 0.000000 0.000000 0.000000 0.000000 0.000000 0.082792
#
#
# Mechanical properties :
#
#
# Convention : Reuss Voigt Hill
#
# Bulk Modulus (GPa) = 24.14142 49.51142 36.82642
# Shear Modulus (GPa) = 29.39697 16.42586 22.91142
#
# Velocity S-wave (km/s) = 3.64599 2.72539 3.21877
# Velocity P-wave (km/s) = 5.35173 5.68266 5.51967
#
# Compressibility (1/GPa) = 0.04142259
#
# Stress axis : x y z
#
# Youngs Moduli (GPa) = 29.82005 115.88941 120.84098
#
# Poissons Ratio (x) = 0.14356 -0.02507
# Poissons Ratio (y) = 0.03694 0.42014
# Poissons Ratio (z) = -0.00619 0.40292
#
# Static dielectric constant tensor:
#      x y z
#    x 1.819900 0.000000 0.000000 
#    y 0.000000 1.842080 0.000000 
#    z 0.000000 0.000000 1.825480 
# 
# From -- ./inp_files/63310.got.cif
#   From: 2010.05.17/outbox.cif.g08.bks.cpg/sg71_32_cif.got.tgz:63310.got - 2010.06.03 16:22:01.
