data_PCOD9523833
_publ_section_title
;
Structure prediction by ZEFSAII (Michael W. Deem and Ramdas Pophale) SiO2 
 PCOD9523833
Probable space group: I M M M
;
_chemical_formula_sum "Si O2"
_cell_formula_units_Z 104
_cell_length_a 27.915832
_cell_length_b 8.370049
_cell_length_c 22.454353
_cell_angle_alpha 90.000000
_cell_angle_beta 90.000000
_cell_angle_gamma 90.000000
_cell_volume 5246.614103
_symmetry_space_group_name_H-M "I M M M"
_symmetry_group_IT_number 71
_symmetry_cell_setting 'orthorhombic'
loop_
_space_group_symop_operation_xyz
x,y,z
-x,-y,z
x,-y,-z
-x,y,-z
-x,-y,-z
x,y,-z
-x,y,z
x,-y,z
1/2+x,1/2+y,1/2+z
1/2-x,1/2-y,1/2+z
1/2+x,1/2-y,1/2-z
1/2-x,1/2+y,1/2-z
1/2-x,1/2-y,1/2-z
1/2+x,1/2+y,1/2-z
1/2-x,1/2+y,1/2+z
1/2+x,1/2-y,1/2+z
loop_
_atom_site_type_symbol
_atom_site_label
_atom_site_fract_x
_atom_site_fract_y
_atom_site_fract_z
Si Si1 0.445036 0.692170 0.723135
Si Si2 0.880480 0.684258 0.675147
Si Si3 0.197622 0.815091 0.239206
Si Si4 0.443598 0.182087 0.500000
Si Si5 0.183682 0.192657 0.432024
Si Si6 0.290431 0.811081 0.388085
Si Si7 0.113591 0.189542 0.894023
O O1 0.500000 0.748581 0.715443
O O2 0.445113 0.500000 0.719374
O O3 0.424310 0.736810 0.788489
O O4 0.408873 0.746625 0.670091
O O5 0.891478 0.500000 0.665512
O O6 0.837738 0.709102 0.722490
O O7 0.857084 0.752844 0.614410
O O8 0.250000 0.750000 0.250000
O O9 0.194283 0.791220 0.169300
O O10 0.191234 0.000000 0.256470
O O11 0.500000 0.172549 0.500000
O O12 0.427116 0.274659 0.441619
O O13 0.424550 0.000000 0.500000
O O14 0.175551 0.247508 0.500000
O O15 0.238211 0.239408 0.412204
O O16 0.183712 0.000000 0.431921
O O17 0.339572 0.777944 0.422371
O O18 0.286714 0.000000 0.374120
O O19 0.122326 0.000000 0.890306
#
# Coordination Sequence:
#
# PCOD9523833 Si02
#       7
#    16  16  16   8  16  16  16
#     4  10  22  41  65  91 121 157 200 256 314 369
#     4  12  24  38  61  91 124 162 200 252 311 369
#     4  12  22  35  56  85 119 157 198 242 292 349
#     4  11  25  43  61  81 113 161 215 267 314 363
#     4  10  23  42  63  87 121 166 209 252 303 365
#     4  11  22  36  58  88 122 159 199 245 297 357
#     4  11  23  39  61  89 122 162 207 255 307 366
#
# _framework density 19.822308
#
# number of rings (size 3 to 8) (size 9 to 14) (size 15 to 20)
#    0.000    1.000    3.077    4.385    1.077    3.077 
#    0.000    0.000    0.000    0.462    0.000    3.231 
#    0.000    0.000    0.000    0.000    0.000    0.000 
#
# Total GULP energy -289955.744911 kJ/mol
# GULP energy per Si atom -5576.072018 kJ/mol
# Density = 1.977719 g / cm^3
# Si number density = 19.822308 Si / 1000 Ang^3
#
#
#
# Elastic Constant Matrix: (Units=GPa)
#
#
# Indices 1 2 3 4 5 6 
#
# 1 85.2707 11.3111 33.6462 0.0000 0.0000 0.0000
# 2 11.3111 43.3601 13.1530 0.0000 0.0000 0.0000
# 3 33.6462 13.1530 121.5592 0.0000 0.0000 0.0000
# 4 0.0000 0.0000 0.0000 23.5729 0.0000 0.0000
# 5 0.0000 0.0000 0.0000 0.0000 24.2897 0.0000
# 6 0.0000 0.0000 0.0000 0.0000 0.0000 27.0646
#
#
#
# Elastic Compliance Matrix: (Units=1/GPa)
#
#
# Indices 1 2 3 4 5 6 
#
# 1 0.013413 -0.002453 -0.003447 0.000000 0.000000 0.000000
# 2 -0.002453 0.024294 -0.001950 0.000000 0.000000 0.000000
# 3 -0.003447 -0.001950 0.009392 0.000000 0.000000 0.000000
# 4 0.000000 0.000000 0.000000 0.042422 0.000000 0.000000
# 5 0.000000 0.000000 0.000000 0.000000 0.041170 0.000000
# 6 0.000000 0.000000 0.000000 0.000000 0.000000 0.036949
#
#
# Mechanical properties :
#
#
# Convention : Reuss Voigt Hill
#
# Bulk Modulus (GPa) = 31.84870 40.71231 36.28051
# Shear Modulus (GPa) = 25.79916 27.79075 26.79495
#
# Velocity S-wave (km/s) = 3.61157 3.74838 3.68061
# Velocity P-wave (km/s) = 5.78734 6.27033 6.03367
#
# Compressibility (1/GPa) = 0.03139845
#
# Stress axis : x y z
#
# Youngs Moduli (GPa) = 74.55486 41.16233 106.47907
#
# Poissons Ratio (x) = 0.10098 0.36704
# Poissons Ratio (y) = 0.18291 0.20760
# Poissons Ratio (z) = 0.25700 0.08025
#
# Static dielectric constant tensor:
#      x y z
#    x 2.119480 0.000000 0.000000 
#    y 0.000000 1.689250 0.000000 
#    z 0.000000 0.000000 1.651290 
# 
# From -- ./inp_files/56230.got.cif
#   From: 2010.05.17/outbox.cif.g08.bks.cpg/sg71_29_cif.got.tgz:56230.got - 2010.06.03 16:22:01.
