data_PCOD9523057
_publ_section_title
;
Structure prediction by ZEFSAII (Michael W. Deem and Ramdas Pophale) SiO2 
 PCOD9523057
Probable space group: I M M M
;
_chemical_formula_sum "Si O2"
_cell_formula_units_Z 88
_cell_length_a 29.136128
_cell_length_b 7.567286
_cell_length_c 18.803079
_cell_angle_alpha 90.000000
_cell_angle_beta 90.000000
_cell_angle_gamma 90.000000
_cell_volume 4145.729436
_symmetry_space_group_name_H-M "I M M M"
_symmetry_group_IT_number 71
_symmetry_cell_setting 'orthorhombic'
loop_
_space_group_symop_operation_xyz
x,y,z
-x,-y,z
x,-y,-z
-x,y,-z
-x,-y,-z
x,y,-z
-x,y,z
x,-y,z
1/2+x,1/2+y,1/2+z
1/2-x,1/2-y,1/2+z
1/2+x,1/2-y,1/2-z
1/2-x,1/2+y,1/2-z
1/2-x,1/2-y,1/2-z
1/2+x,1/2+y,1/2-z
1/2-x,1/2+y,1/2+z
1/2+x,1/2-y,1/2+z
loop_
_atom_site_type_symbol
_atom_site_label
_atom_site_fract_x
_atom_site_fract_y
_atom_site_fract_z
Si Si1 0.369534 0.216380 0.318797
Si Si2 0.315037 0.786752 0.080422
Si Si3 0.595777 0.212595 0.836259
Si Si4 0.950703 0.715089 0.918711
Si Si5 0.212804 0.709566 0.917106
Si Si6 0.000000 0.791693 0.417583
O O1 0.389437 0.274982 0.242597
O O2 0.408100 0.273130 0.374206
O O3 0.322218 0.276022 0.356376
O O4 0.367277 0.000000 0.314893
O O5 0.361426 0.723424 0.116621
O O6 0.264953 0.737077 0.108884
O O7 0.316672 0.000000 0.080727
O O8 0.315009 0.721966 0.000000
O O9 0.546333 0.250558 0.872192
O O10 0.597173 0.000000 0.833510
O O11 0.950003 0.500000 0.919016
O O12 0.000000 0.769490 0.888774
O O13 0.947712 0.772278 0.000000
O O14 0.204416 0.500000 0.922963
O O15 0.208019 0.778392 0.000000
O O16 0.000000 0.717344 0.500000
O O17 0.000000 0.000000 0.425728
#
# Coordination Sequence:
#
# PCOD9523057 Si02
#       6
#    16  16  16  16  16   8
#     4   9  17  28  45  73 107 137 171 216 260 305
#     4   9  18  33  51  72 100 134 175 219 262 315
#     4  10  21  36  57  82 106 136 173 217 267 314
#     4   8  13  21  36  61  95 133 168 206 255 304
#     4   9  17  30  50  76 107 143 179 217 260 305
#     4  11  25  43  61  81 106 135 170 214 263 317
#
# _framework density 21.226664
#
# number of rings (size 3 to 8) (size 9 to 14) (size 15 to 20)
#    0.000    2.818    0.000    1.909    1.273    5.091 
#    0.000    2.727    0.000    0.000    0.000    0.000 
#    0.000    1.455    0.000    0.000    0.000    0.000 
#
# Total GULP energy -245044.266238 kJ/mol
# GULP energy per Si atom -5569.187869 kJ/mol
# Density = 2.117835 g / cm^3
# Si number density = 21.226664 Si / 1000 Ang^3
#
#
#
# Elastic Constant Matrix: (Units=GPa)
#
#
# Indices 1 2 3 4 5 6 
#
# 1 243.0280 1.3287 122.5663 0.0000 0.0000 0.0000
# 2 1.3287 48.9032 6.0747 0.0000 0.0000 0.0000
# 3 122.5663 6.0747 106.5440 0.0000 0.0000 0.0000
# 4 0.0000 0.0000 0.0000 0.2506 0.0000 0.0000
# 5 0.0000 0.0000 0.0000 0.0000 70.9221 0.0000
# 6 0.0000 0.0000 0.0000 0.0000 0.0000 23.3199
#
#
#
# Elastic Compliance Matrix: (Units=1/GPa)
#
#
# Indices 1 2 3 4 5 6 
#
# 1 0.009865 0.001150 -0.011414 0.000000 0.000000 0.000000
# 2 0.001150 0.020728 -0.002505 0.000000 0.000000 0.000000
# 3 -0.011414 -0.002505 0.022659 0.000000 0.000000 0.000000
# 4 0.000000 0.000000 0.000000 3.990921 0.000000 0.000000
# 5 0.000000 0.000000 0.000000 0.000000 0.014100 0.000000
# 6 0.000000 0.000000 0.000000 0.000000 0.000000 0.042882
#
#
# Mechanical properties :
#
#
# Convention : Reuss Voigt Hill
#
# Bulk Modulus (GPa) = 36.08165 73.15717 54.61941
# Shear Modulus (GPa) = 1.20892 36.79890 19.00391
#
# Velocity S-wave (km/s) = 0.75549 4.16819 2.99538
# Velocity P-wave (km/s) = 4.21855 7.59636 6.14414
#
# Compressibility (1/GPa) = 0.02771492
#
# Stress axis : x y z
#
# Youngs Moduli (GPa) = 101.37026 48.24290 44.13275
#
# Poissons Ratio (x) = -0.05547 0.50373
# Poissons Ratio (y) = -0.11655 0.11053
# Poissons Ratio (z) = 1.15703 0.12083
#
# Static dielectric constant tensor:
#      x y z
#    x 1.772620 0.000000 0.000000 
#    y 0.000000 1.830210 0.000000 
#    z 0.000000 0.000000 1.793960 
# 
# From -- ./inp_files/49231.got.cif
#   From: 2010.05.17/outbox.cif.g08.bks.cpg/sg71_25_cif.got.tgz:49231.got - 2010.06.03 16:22:01.
