data_PCOD9523347
_publ_section_title
;
Structure prediction by ZEFSAII (Michael W. Deem and Ramdas Pophale) SiO2 
 PCOD9523347
Probable space group: I M M M
;
_chemical_formula_sum "Si O2"
_cell_formula_units_Z 88
_cell_length_a 24.698222
_cell_length_b 21.621511
_cell_length_c 8.424548
_cell_angle_alpha 90.000000
_cell_angle_beta 90.000000
_cell_angle_gamma 90.000000
_cell_volume 4498.817129
_symmetry_space_group_name_H-M "I M M M"
_symmetry_group_IT_number 71
_symmetry_cell_setting 'orthorhombic'
loop_
_space_group_symop_operation_xyz
x,y,z
-x,-y,z
x,-y,-z
-x,y,-z
-x,-y,-z
x,y,-z
-x,y,z
x,-y,z
1/2+x,1/2+y,1/2+z
1/2-x,1/2-y,1/2+z
1/2+x,1/2-y,1/2-z
1/2-x,1/2+y,1/2-z
1/2-x,1/2-y,1/2-z
1/2+x,1/2+y,1/2-z
1/2-x,1/2+y,1/2+z
1/2+x,1/2-y,1/2+z
loop_
_atom_site_type_symbol
_atom_site_label
_atom_site_fract_x
_atom_site_fract_y
_atom_site_fract_z
Si Si1 0.000000 0.371141 0.677889
Si Si2 0.285374 0.309111 0.810122
Si Si3 0.278235 0.927938 0.809842
Si Si4 0.396126 0.073583 0.320499
Si Si5 0.907603 0.166261 0.689162
Si Si6 0.000000 0.071374 0.306028
Si Si7 0.500000 0.746047 0.320219
O O1 0.054221 0.408600 0.709991
O O2 0.000000 0.345468 0.500000
O O3 0.000000 0.318637 0.809500
O O4 0.250000 0.250000 0.750000
O O5 0.258603 0.374766 0.764849
O O6 0.347662 0.316837 0.749599
O O7 0.287072 0.302618 0.000000
O O8 0.338907 0.910628 0.757076
O O9 0.267432 0.000000 0.760323
O O10 0.273717 0.925963 0.000000
O O11 0.400563 0.099322 0.500000
O O12 0.396835 0.000000 0.334015
O O13 0.902300 0.158300 0.500000
O O14 0.945088 0.107897 0.745429
O O15 0.947176 0.222356 0.730050
O O16 0.000000 0.073112 0.500000
O O17 0.000000 0.000000 0.256304
O O18 0.500000 0.722933 0.500000
#
# Coordination Sequence:
#
# PCOD9523347 Si02
#       7
#     8  16  16  16  16   8   8
#     4  12  24  36  56  82 113 151 192 238 293 358
#     4  11  24  40  62  89 123 165 212 264 314 373
#     4  10  22  41  63  88 122 163 205 251 308 372
#     4  10  21  38  59  84 115 149 192 244 293 347
#     4   9  20  39  59  84 119 156 195 242 301 364
#     4   8  14  30  60  92 117 144 186 241 299 367
#     4  11  23  38  59  84 114 152 194 241 294 352
#
# _framework density 19.560697000000001
#
# number of rings (size 3 to 8) (size 9 to 14) (size 15 to 20)
#    0.000    1.909    0.000    4.091    2.545    5.455 
#    0.000    1.818    0.000    4.364    0.000    0.000 
#    0.000    0.000    0.000    0.000    0.000    0.000 
#
# Total GULP energy -245235.073894 kJ/mol
# GULP energy per Si atom -5573.524407 kJ/mol
# Density = 1.951618 g / cm^3
# Si number density = 19.560697 Si / 1000 Ang^3
#
#
#
# Elastic Constant Matrix: (Units=GPa)
#
#
# Indices 1 2 3 4 5 6 
#
# 1 185.2486 76.9518 16.7458 0.0000 0.0000 0.0000
# 2 76.9518 47.3356 18.4481 0.0000 0.0000 0.0000
# 3 16.7458 18.4481 35.6440 0.0000 0.0000 0.0000
# 4 0.0000 0.0000 0.0000 28.1292 0.0000 0.0000
# 5 0.0000 0.0000 0.0000 0.0000 25.4780 0.0000
# 6 0.0000 0.0000 0.0000 0.0000 0.0000 -7.9632
#
#
#
# Elastic Compliance Matrix: (Units=1/GPa)
#
#
# Indices 1 2 3 4 5 6 
#
# 1 0.018523 -0.033473 0.008622 0.000000 0.000000 0.000000
# 2 -0.033473 0.086952 -0.029277 0.000000 0.000000 0.000000
# 3 0.008622 -0.029277 0.039157 0.000000 0.000000 0.000000
# 4 0.000000 0.000000 0.000000 0.035550 0.000000 0.000000
# 5 0.000000 0.000000 0.000000 0.000000 0.039250 0.000000
# 6 0.000000 0.000000 0.000000 0.000000 0.000000 -0.125578
#
#
# Mechanical properties :
#
#
# Convention : Reuss Voigt Hill
#
# Bulk Modulus (GPa) = 27.49064 54.72439 41.10752
# Shear Modulus (GPa) = 23.33877 19.53431 21.43654
#
# Velocity S-wave (km/s) = 3.45794 3.16357 3.31403
# Velocity P-wave (km/s) = 5.47975 6.43286 5.97534
#
# Compressibility (1/GPa) = 0.03637602
#
# Stress axis : x y z
#
# Youngs Moduli (GPa) = 53.98596 11.50063 25.53799
#
# Poissons Ratio (x) = 0.38496 -0.22019
# Poissons Ratio (y) = 1.80707 0.74768
# Poissons Ratio (z) = -0.46547 0.33671
#
# Static dielectric constant tensor:
#      x y z
#    x 1.618280 0.000000 0.000000 
#    y 0.000000 1.689150 0.000000 
#    z 0.000000 0.000000 1.705110 
# 
# From -- ./inp_files/12590.got.cif
#   From: 2010.05.17/outbox.cif.g08.bks.cpg/sg71_7_cif.got.tgz:12590.got - 2010.06.03 16:22:01.
