data_PCOD9523599
_publ_section_title
;
Structure prediction by ZEFSAII (Michael W. Deem and Ramdas Pophale) SiO2 
 PCOD9523599
Probable space group: I M M M
;
_chemical_formula_sum "Si O2"
_cell_formula_units_Z 116
_cell_length_a 10.590243
_cell_length_b 24.969814
_cell_length_c 24.686791
_cell_angle_alpha 90.000000
_cell_angle_beta 90.000000
_cell_angle_gamma 90.000000
_cell_volume 6528.086088
_symmetry_space_group_name_H-M "I M M M"
_symmetry_group_IT_number 71
_symmetry_cell_setting 'orthorhombic'
loop_
_space_group_symop_operation_xyz
x,y,z
-x,-y,z
x,-y,-z
-x,y,-z
-x,-y,-z
x,y,-z
-x,y,z
x,-y,z
1/2+x,1/2+y,1/2+z
1/2-x,1/2-y,1/2+z
1/2+x,1/2-y,1/2-z
1/2-x,1/2+y,1/2-z
1/2-x,1/2-y,1/2-z
1/2+x,1/2+y,1/2-z
1/2-x,1/2+y,1/2+z
1/2+x,1/2-y,1/2+z
loop_
_atom_site_type_symbol
_atom_site_label
_atom_site_fract_x
_atom_site_fract_y
_atom_site_fract_z
Si Si1 0.356730 0.435541 0.872544
Si Si2 0.858236 0.064458 0.754144
Si Si3 0.650683 0.157354 0.939311
Si Si4 0.358465 0.242276 0.794114
Si Si5 0.640153 0.126619 0.435326
Si Si6 0.786869 0.774930 0.412137
Si Si7 0.857001 0.383230 0.674033
Si Si8 0.500000 0.696668 0.000000
O O1 0.500000 0.420693 0.889342
O O2 0.347154 0.500000 0.876980
O O3 0.341442 0.421251 0.809172
O O4 0.249964 0.407359 0.907337
O O5 0.748431 0.088229 0.790709
O O6 0.000000 0.082009 0.770395
O O7 0.855031 0.000000 0.757093
O O8 0.500000 0.172041 0.936318
O O9 0.723965 0.212804 0.929493
O O10 0.673021 0.116978 0.890169
O O11 0.674217 0.137452 0.000000
O O12 0.500000 0.256232 0.774691
O O13 0.250000 0.250000 0.750000
O O14 0.330168 0.274068 0.849633
O O15 0.358748 0.179560 0.810207
O O16 0.648286 0.121149 0.500000
O O17 0.500000 0.109647 0.417878
O O18 0.665124 0.188291 0.419529
O O19 0.890382 0.799478 0.452567
O O20 0.000000 0.404055 0.682532
#
# Coordination Sequence:
#
# PCOD9523599 Si02
#       8
#    16  16  16  16  16  16  16   4
#     4   9  21  40  61  80  97 127 176 227 270 320
#     4   9  19  38  59  79 103 133 173 220 267 319
#     4   9  14  28  52  79 108 139 177 221 262 299
#     4  10  22  36  50  76 114 148 179 217 270 323
#     4  11  25  38  52  78 112 142 172 218 278 326
#     4  11  19  33  56  79 105 142 191 227 258 307
#     4   9  19  32  51  81 109 135 175 218 261 317
#     4  12  16  32  62  84  97 138 211 238 252 296
#
# _framework density 17.769373000000002
#
# number of rings (size 3 to 8) (size 9 to 14) (size 15 to 20)
#    0.000    2.207    2.759    1.655    2.897    2.759 
#    0.000    4.828    0.000    1.655    0.000    2.897 
#    0.000    0.000    0.000    0.000    0.000    0.000 
#
# Total GULP energy -322951.562639 kJ/mol
# GULP energy per Si atom -5568.130390 kJ/mol
# Density = 1.772893 g / cm^3
# Si number density = 17.769373 Si / 1000 Ang^3
#
#
#
# Elastic Constant Matrix: (Units=GPa)
#
#
# Indices 1 2 3 4 5 6 
#
# 1 146.6731 39.3136 89.0994 0.0000 0.0000 0.0000
# 2 39.3136 28.6826 27.1825 0.0000 0.0000 0.0000
# 3 89.0994 27.1825 114.2431 0.0000 0.0000 0.0000
# 4 0.0000 0.0000 0.0000 20.5525 0.0000 0.0000
# 5 0.0000 0.0000 0.0000 0.0000 30.3292 0.0000
# 6 0.0000 0.0000 0.0000 0.0000 0.0000 24.2794
#
#
#
# Elastic Compliance Matrix: (Units=1/GPa)
#
#
# Indices 1 2 3 4 5 6 
#
# 1 0.016022 -0.013064 -0.009387 0.000000 0.000000 0.000000
# 2 -0.013064 0.055667 -0.003056 0.000000 0.000000 0.000000
# 3 -0.009387 -0.003056 0.016802 0.000000 0.000000 0.000000
# 4 0.000000 0.000000 0.000000 0.048656 0.000000 0.000000
# 5 0.000000 0.000000 0.000000 0.000000 0.032972 0.000000
# 6 0.000000 0.000000 0.000000 0.000000 0.000000 0.041187
#
#
# Mechanical properties :
#
#
# Convention : Reuss Voigt Hill
#
# Bulk Modulus (GPa) = 26.68425 66.75443 46.71934
# Shear Modulus (GPa) = 18.19419 23.96576 21.07998
#
# Velocity S-wave (km/s) = 3.20333 3.67647 3.44802
# Velocity P-wave (km/s) = 5.36016 7.46127 6.49622
#
# Compressibility (1/GPa) = 0.03747529
#
# Stress axis : x y z
#
# Youngs Moduli (GPa) = 62.41376 17.96396 59.51746
#
# Poissons Ratio (x) = 0.23468 0.55871
# Poissons Ratio (y) = 0.81538 0.18190
# Poissons Ratio (z) = 0.58590 0.05490
#
# Static dielectric constant tensor:
#      x y z
#    x 1.615290 0.000000 0.000000 
#    y 0.000000 1.624720 0.000000 
#    z 0.000000 0.000000 1.610840 
# 
# From -- ./inp_files/58078.got.cif
#   From: 2010.05.17/outbox.cif.g08.bks.cpg/sg71_30_cif.got.tgz:58078.got - 2010.06.03 16:22:01.
