data_PCOD9523271
_publ_section_title
;
Structure prediction by ZEFSAII (Michael W. Deem and Ramdas Pophale) SiO2 
 PCOD9523271
Probable space group: I M M M
;
_chemical_formula_sum "Si O2"
_cell_formula_units_Z 50
_cell_length_a 25.471385
_cell_length_b 11.142532
_cell_length_c 7.311975
_cell_angle_alpha 90.000000
_cell_angle_beta 90.000000
_cell_angle_gamma 90.000000
_cell_volume 2075.253467
_symmetry_space_group_name_H-M "I M M M"
_symmetry_group_IT_number 71
_symmetry_cell_setting 'orthorhombic'
loop_
_space_group_symop_operation_xyz
x,y,z
-x,-y,z
x,-y,-z
-x,y,-z
-x,-y,-z
x,y,-z
-x,y,z
x,-y,z
1/2+x,1/2+y,1/2+z
1/2-x,1/2-y,1/2+z
1/2+x,1/2-y,1/2-z
1/2-x,1/2+y,1/2-z
1/2-x,1/2-y,1/2-z
1/2+x,1/2+y,1/2-z
1/2-x,1/2+y,1/2+z
1/2+x,1/2-y,1/2+z
loop_
_atom_site_type_symbol
_atom_site_label
_atom_site_fract_x
_atom_site_fract_y
_atom_site_fract_z
Si Si1 0.097288 0.500000 0.219201
Si Si2 0.500000 0.639936 0.722466
Si Si3 0.112194 0.763542 0.220902
Si Si4 0.281970 0.371208 0.281741
Si Si5 0.500000 0.000000 0.000000
O O1 0.125605 0.625245 0.262002
O O2 0.045407 0.500000 0.339788
O O3 0.085787 0.500000 0.000000
O O4 0.500000 0.500000 0.773297
O O5 0.500000 0.645016 0.500000
O O6 0.446338 0.703089 0.785533
O O7 0.158647 0.848477 0.286258
O O8 0.110278 0.774346 0.000000
O O9 0.284901 0.379678 0.500000
O O10 0.261353 0.500000 0.213212
O O11 0.250000 0.250000 0.250000
#
# Coordination Sequence:
#
# PCOD9523271 Si02
#       5
#     8   8  16  16   2
#     4  10  21  37  59  88 125 171 216 266 324 391
#     4   9  15  25  48  80 108 139 183 242 301 366
#     4   9  18  34  57  83 116 155 204 258 317 382
#     4  10  22  40  63  92 124 164 216 272 330 400
#     4  12  22  36  56  94 134 176 214 264 326 388
#
# _framework density 24.093442
#
# number of rings (size 3 to 8) (size 9 to 14) (size 15 to 20)
#    0.000    2.400    0.000    2.160    2.240    7.040 
#    2.880    0.000    0.000    0.000    0.000    3.360 
#    0.000    0.000    0.000    0.000    0.000    0.000 
#
# Total GULP energy -139422.457148 kJ/mol
# GULP energy per Si atom -5576.898286 kJ/mol
# Density = 2.403860 g / cm^3
# Si number density = 24.093442 Si / 1000 Ang^3
#
#
#
# Elastic Constant Matrix: (Units=GPa)
#
#
# Indices 1 2 3 4 5 6 
#
# 1 103.4817 77.8404 -9.8854 0.0000 0.0000 0.0000
# 2 77.8404 222.4447 8.9670 0.0000 0.0000 0.0000
# 3 -9.8854 8.9670 103.1934 0.0000 0.0000 0.0000
# 4 0.0000 0.0000 0.0000 -1.4500 0.0000 0.0000
# 5 0.0000 0.0000 0.0000 0.0000 25.2620 0.0000
# 6 0.0000 0.0000 0.0000 0.0000 0.0000 19.5465
#
#
#
# Elastic Compliance Matrix: (Units=1/GPa)
#
#
# Indices 1 2 3 4 5 6 
#
# 1 0.013406 -0.004760 0.001698 0.000000 0.000000 0.000000
# 2 -0.004760 0.006201 -0.000995 0.000000 0.000000 0.000000
# 3 0.001698 -0.000995 0.009940 0.000000 0.000000 0.000000
# 4 0.000000 0.000000 0.000000 -0.689666 0.000000 0.000000
# 5 0.000000 0.000000 0.000000 0.000000 0.039585 0.000000
# 6 0.000000 0.000000 0.000000 0.000000 0.000000 0.051160
#
#
# Mechanical properties :
#
#
# Convention : Reuss Voigt Hill
#
# Bulk Modulus (GPa) = 46.65582 64.77376 55.71479
# Shear Modulus (GPa) = -9.02337 32.15158 11.56410
#
# Velocity S-wave (km/s) = -1.93734 3.65698 2.19320
# Velocity P-wave (km/s) = 3.79502 6.69134 5.43950
#
# Compressibility (1/GPa) = 0.02143355
#
# Stress axis : x y z
#
# Youngs Moduli (GPa) = 74.59356 161.26066 100.60741
#
# Poissons Ratio (x) = 0.76754 -0.17081
# Poissons Ratio (y) = 0.35504 0.10008
# Poissons Ratio (z) = -0.12665 0.16042
#
# Static dielectric constant tensor:
#      x y z
#    x 1.885050 0.000000 0.000000 
#    y 0.000000 1.930180 0.000000 
#    z 0.000000 0.000000 1.991150 
# 
# From -- ./inp_files/13950.got.cif
#   From: 2010.05.17/outbox.cif.g08.bks.cpg/sg71_7_cif.got.tgz:13950.got - 2010.06.03 16:22:01.
