data_PCOD9523379
_publ_section_title
;
Structure prediction by ZEFSAII (Michael W. Deem and Ramdas Pophale) SiO2 
 PCOD9523379
Probable space group: I M M M
;
_chemical_formula_sum "Si O2"
_cell_formula_units_Z 88
_cell_length_a 8.173328
_cell_length_b 21.590549
_cell_length_c 23.619071
_cell_angle_alpha 90.000000
_cell_angle_beta 90.000000
_cell_angle_gamma 90.000000
_cell_volume 4167.978068
_symmetry_space_group_name_H-M "I M M M"
_symmetry_group_IT_number 71
_symmetry_cell_setting 'orthorhombic'
loop_
_space_group_symop_operation_xyz
x,y,z
-x,-y,z
x,-y,-z
-x,y,-z
-x,-y,-z
x,y,-z
-x,y,z
x,-y,z
1/2+x,1/2+y,1/2+z
1/2-x,1/2-y,1/2+z
1/2+x,1/2-y,1/2-z
1/2-x,1/2+y,1/2-z
1/2-x,1/2-y,1/2-z
1/2+x,1/2+y,1/2-z
1/2-x,1/2+y,1/2+z
1/2+x,1/2-y,1/2+z
loop_
_atom_site_type_symbol
_atom_site_label
_atom_site_fract_x
_atom_site_fract_y
_atom_site_fract_z
Si Si1 0.500000 0.200168 0.063637
Si Si2 0.325864 0.750530 0.434666
Si Si3 0.500000 0.066867 0.096832
Si Si4 0.196555 0.500000 0.066429
Si Si5 0.195824 0.131947 0.390617
Si Si6 0.307854 0.570144 0.318637
Si Si7 0.695156 0.318842 0.232568
O O1 0.334022 0.221297 0.093451
O O2 0.500000 0.127291 0.059507
O O3 0.500000 0.228492 0.000000
O O4 0.331368 0.728991 0.500000
O O5 0.500000 0.735236 0.407752
O O6 0.292487 0.823486 0.433350
O O7 0.333505 0.070494 0.134016
O O8 0.500000 0.000000 0.068375
O O9 0.262534 0.561282 0.097064
O O10 0.000000 0.500000 0.068594
O O11 0.246401 0.500000 0.000000
O O12 0.250384 0.157248 0.329155
O O13 0.000000 0.140714 0.396919
O O14 0.500000 0.577840 0.337199
O O15 0.300458 0.500000 0.292985
O O16 0.265458 0.626286 0.276679
O O17 0.500000 0.316494 0.229672
O O18 0.750000 0.250000 0.250000
#
# Coordination Sequence:
#
# PCOD9523379 Si02
#       7
#     8  16   8   8  16  16  16
#     4  10  22  39  62  89 124 156 191 249 308 366
#     4  10  21  38  60  86 117 158 204 247 302 370
#     4  10  22  39  64  92 115 155 202 244 297 363
#     4  11  25  43  61  89 127 169 221 272 319 382
#     4  11  23  39  61  89 122 162 208 262 317 369
#     4   9  20  40  62  84 117 160 202 247 295 358
#     4  10  24  39  58  88 123 159 200 257 316 372
#
# _framework density 21.113353
#
# number of rings (size 3 to 8) (size 9 to 14) (size 15 to 20)
#    0.000    1.909    0.909    1.364    5.091    5.273 
#    0.000    0.000    0.000    0.000    0.000    5.091 
#    0.000    0.000    0.000    0.000    0.000    0.000 
#
# Total GULP energy -245438.982609 kJ/mol
# GULP energy per Si atom -5578.158696 kJ/mol
# Density = 2.106530 g / cm^3
# Si number density = 21.113353 Si / 1000 Ang^3
#
#
#
# Elastic Constant Matrix: (Units=GPa)
#
#
# Indices 1 2 3 4 5 6 
#
# 1 128.6658 37.9169 22.8478 0.0000 0.0000 0.0000
# 2 37.9169 153.1926 37.8818 0.0000 0.0000 0.0000
# 3 22.8478 37.8818 66.7832 0.0000 0.0000 0.0000
# 4 0.0000 0.0000 0.0000 31.3999 0.0000 0.0000
# 5 0.0000 0.0000 0.0000 0.0000 -4.5355 0.0000
# 6 0.0000 0.0000 0.0000 0.0000 0.0000 12.1244
#
#
#
# Elastic Compliance Matrix: (Units=1/GPa)
#
#
# Indices 1 2 3 4 5 6 
#
# 1 0.008612 -0.001632 -0.002021 0.000000 0.000000 0.000000
# 2 -0.001632 0.007902 -0.003924 0.000000 0.000000 0.000000
# 3 -0.002021 -0.003924 0.017891 0.000000 0.000000 0.000000
# 4 0.000000 0.000000 0.000000 0.031847 0.000000 0.000000
# 5 0.000000 0.000000 0.000000 0.000000 -0.220485 0.000000
# 6 0.000000 0.000000 0.000000 0.000000 0.000000 0.082479
#
#
# Mechanical properties :
#
#
# Convention : Reuss Voigt Hill
#
# Bulk Modulus (GPa) = 51.94323 60.65941 56.30132
# Shear Modulus (GPa) = -99.63343 24.46409 -37.58467
#
# Velocity S-wave (km/s) = -6.87693 3.40766 -4.22374
# Velocity P-wave (km/s) = 6.19684 6.65399 1.71389
#
# Compressibility (1/GPa) = 0.01925179
#
# Stress axis : x y z
#
# Youngs Moduli (GPa) = 116.12005 126.55072 55.89421
#
# Poissons Ratio (x) = 0.20651 0.11294
# Poissons Ratio (y) = 0.18949 0.21933
# Poissons Ratio (z) = 0.23463 0.49658
#
# Static dielectric constant tensor:
#      x y z
#    x 1.707770 0.000000 0.000000 
#    y 0.000000 1.770540 0.000000 
#    z 0.000000 0.000000 1.786540 
# 
# From -- ./inp_files/57590.got.cif
#   From: 2010.05.17/outbox.cif.g08.bks.cpg/sg71_29_cif.got.tgz:57590.got - 2010.06.03 16:22:01.
