data_PCOD9523705
_publ_section_title
;
Structure prediction by ZEFSAII (Michael W. Deem and Ramdas Pophale) SiO2 
 PCOD9523705
Probable space group: I M M M
;
_chemical_formula_sum "Si O2"
_cell_formula_units_Z 72
_cell_length_a 13.991168
_cell_length_b 19.877587
_cell_length_c 12.965073
_cell_angle_alpha 90.000000
_cell_angle_beta 90.000000
_cell_angle_gamma 90.000000
_cell_volume 3605.724998
_symmetry_space_group_name_H-M "I M M M"
_symmetry_group_IT_number 71
_symmetry_cell_setting 'orthorhombic'
loop_
_space_group_symop_operation_xyz
x,y,z
-x,-y,z
x,-y,-z
-x,y,-z
-x,-y,-z
x,y,-z
-x,y,z
x,-y,z
1/2+x,1/2+y,1/2+z
1/2-x,1/2-y,1/2+z
1/2+x,1/2-y,1/2-z
1/2-x,1/2+y,1/2-z
1/2-x,1/2-y,1/2-z
1/2+x,1/2+y,1/2-z
1/2-x,1/2+y,1/2+z
1/2+x,1/2-y,1/2+z
loop_
_atom_site_type_symbol
_atom_site_label
_atom_site_fract_x
_atom_site_fract_y
_atom_site_fract_z
Si Si1 0.112463 0.580423 0.620528
Si Si2 0.688355 0.836555 0.690865
Si Si3 0.608654 0.699487 0.236335
Si Si4 0.885314 0.577860 0.000000
Si Si5 0.614032 0.572930 0.384457
O O1 0.128095 0.597818 0.500000
O O2 0.126560 0.500000 0.631356
O O3 0.174524 0.622212 0.701806
O O4 0.000000 0.593617 0.642934
O O5 0.624524 0.769878 0.705556
O O6 0.796430 0.810887 0.667402
O O7 0.652473 0.884085 0.600477
O O8 0.500000 0.696997 0.193569
O O9 0.622290 0.637577 0.314319
O O10 0.854968 0.500000 0.000000
O O11 0.000000 0.579764 0.000000
O O12 0.653543 0.581700 0.500000
O O13 0.500000 0.566695 0.394364
O O14 0.648841 0.500000 0.343811
#
# Coordination Sequence:
#
# PCOD9523705 Si02
#       5
#    16  16  16   8  16
#     4   9  18  35  61  91 122 156 196 249 308 360
#     4  11  23  39  61  91 123 161 208 252 307 370
#     4  10  22  39  58  84 118 160 205 255 309 362
#     4  11  24  42  67  95 126 166 209 258 309 367
#     4   8  15  29  51  80 112 148 190 236 290 350
#
# _framework density 19.968245
#
# number of rings (size 3 to 8) (size 9 to 14) (size 15 to 20)
#    0.000    2.333    0.000    4.000    1.556    4.444 
#    6.000    2.778    0.000    0.667    0.000    0.000 
#    0.000    0.000    0.000    0.000    0.000    0.000 
#
# Total GULP energy -200686.730244 kJ/mol
# GULP energy per Si atom -5574.631396 kJ/mol
# Density = 1.992280 g / cm^3
# Si number density = 19.968245 Si / 1000 Ang^3
#
#
#
# Elastic Constant Matrix: (Units=GPa)
#
#
# Indices 1 2 3 4 5 6 
#
# 1 154.3057 16.2505 15.2456 0.0000 0.0000 0.0000
# 2 16.2505 116.9901 29.3741 0.0000 0.0000 0.0000
# 3 15.2456 29.3741 50.1100 -0.0001 0.0000 0.0000
# 4 0.0000 0.0000 -0.0001 11.7220 0.0000 0.0000
# 5 0.0000 0.0000 0.0000 0.0000 -0.1961 0.0000
# 6 0.0000 0.0000 0.0000 0.0000 0.0000 97.9865
#
#
#
# Elastic Compliance Matrix: (Units=1/GPa)
#
#
# Indices 1 2 3 4 5 6 
#
# 1 0.006706 -0.000492 -0.001752 0.000000 0.000000 0.000000
# 2 -0.000492 0.010059 -0.005747 0.000000 0.000000 0.000000
# 3 -0.001752 -0.005747 0.023858 0.000000 0.000001 0.000000
# 4 0.000000 0.000000 0.000000 0.085309 0.000002 0.000000
# 5 0.000000 0.000000 0.000001 0.000002 -5.098236 0.000000
# 6 0.000000 0.000000 0.000000 0.000000 0.000000 0.010205
#
#
# Mechanical properties :
#
#
# Convention : Reuss Voigt Hill
#
# Bulk Modulus (GPa) = 40.58195 49.23847 44.91021
# Shear Modulus (GPa) = -1.01258 39.27152 19.12947
#
# Velocity S-wave (km/s) = -0.71288 4.43956 3.09851
# Velocity P-wave (km/s) = 4.43732 7.14083 5.94480
#
# Compressibility (1/GPa) = 0.02464150
#
# Stress axis : x y z
#
# Youngs Moduli (GPa) = 149.13119 99.41381 41.91482
#
# Poissons Ratio (x) = 0.04887 0.07343
# Poissons Ratio (y) = 0.07330 0.24088
# Poissons Ratio (z) = 0.26127 0.57132
#
# Static dielectric constant tensor:
#      x y z
#    x 1.779600 0.000000 0.000000 
#    y 0.000000 1.694690 0.000000 
#    z 0.000000 0.000000 1.698890 
# 
# From -- ./inp_files/34091.got.cif
#   From: 2010.05.17/outbox.cif.g08.bks.cpg/sg71_18_cif.got.tgz:34091.got - 2010.06.03 16:22:01.
