data_PCOD9523415
_publ_section_title
;
Structure prediction by ZEFSAII (Michael W. Deem and Ramdas Pophale) SiO2 
 PCOD9523415
Probable space group: I M M M
;
_chemical_formula_sum "Si O2"
_cell_formula_units_Z 72
_cell_length_a 7.915842
_cell_length_b 13.962418
_cell_length_c 29.762295
_cell_angle_alpha 90.000000
_cell_angle_beta 90.000000
_cell_angle_gamma 90.000000
_cell_volume 3289.456667
_symmetry_space_group_name_H-M "I M M M"
_symmetry_group_IT_number 71
_symmetry_cell_setting 'orthorhombic'
loop_
_space_group_symop_operation_xyz
x,y,z
-x,-y,z
x,-y,-z
-x,y,-z
-x,-y,-z
x,y,-z
-x,y,z
x,-y,z
1/2+x,1/2+y,1/2+z
1/2-x,1/2-y,1/2+z
1/2+x,1/2-y,1/2-z
1/2-x,1/2+y,1/2-z
1/2-x,1/2-y,1/2-z
1/2+x,1/2+y,1/2-z
1/2-x,1/2+y,1/2+z
1/2+x,1/2-y,1/2+z
loop_
_atom_site_type_symbol
_atom_site_label
_atom_site_fract_x
_atom_site_fract_y
_atom_site_fract_z
Si Si1 0.197743 0.000000 0.332028
Si Si2 0.702887 0.210295 0.701279
Si Si3 0.694302 0.705803 0.951135
Si Si4 0.688508 0.333156 0.380295
Si Si5 0.694749 0.000000 0.433014
Si Si6 0.707332 0.500000 0.447124
O O1 0.235554 0.101072 0.307063
O O2 0.296211 0.000000 0.378938
O O3 0.000000 0.000000 0.343137
O O4 0.500000 0.208178 0.696148
O O5 0.750000 0.250000 0.750000
O O6 0.769319 0.288691 0.664606
O O7 0.500000 0.731709 0.941596
O O8 0.815268 0.741684 0.912507
O O9 0.711954 0.592909 0.950712
O O10 0.742126 0.745059 0.000000
O O11 0.500000 0.368092 0.368511
O O12 0.762048 0.410908 0.415351
O O13 0.500000 0.000000 0.447088
O O14 0.500000 0.500000 0.449256
O O15 0.763088 0.500000 0.500000
#
# Coordination Sequence:
#
# PCOD9523415 Si02
#       6
#     8  16  16  16   8   8
#     4  12  24  42  68  94 129 169 207 262 323 377
#     4  11  24  42  66  97 130 168 218 269 326 393
#     4  11  23  37  56  86 124 164 207 254 309 375
#     4  10  21  38  62  89 122 164 212 265 320 383
#     4  12  23  37  59  88 121 161 205 248 303 374
#     4   9  18  35  61  92 123 160 210 267 325 384
#
# _framework density 21.888112
#
# number of rings (size 3 to 8) (size 9 to 14) (size 15 to 20)
#    0.000    1.222    2.222    4.333    0.000    5.778 
#    0.000    2.778    0.000    2.000    0.000    0.000 
#    0.000    0.000    0.000    0.000    0.000    0.000 
#
# Total GULP energy -200802.067423 kJ/mol
# GULP energy per Si atom -5577.835206 kJ/mol
# Density = 2.183829 g / cm^3
# Si number density = 21.888112 Si / 1000 Ang^3
#
#
#
# Elastic Constant Matrix: (Units=GPa)
#
#
# Indices 1 2 3 4 5 6 
#
# 1 64.3783 -3.3840 13.5637 0.0000 0.0000 0.0000
# 2 -3.3840 124.5270 71.3409 0.0000 0.0000 0.0000
# 3 13.5637 71.3409 189.8295 0.0000 0.0000 0.0000
# 4 0.0000 0.0000 0.0000 30.8577 0.0000 0.0000
# 5 0.0000 0.0000 0.0000 0.0000 6.1845 0.0000
# 6 0.0000 0.0000 0.0000 0.0000 0.0000 16.1872
#
#
#
# Elastic Compliance Matrix: (Units=1/GPa)
#
#
# Indices 1 2 3 4 5 6 
#
# 1 0.015956 0.001385 -0.001661 0.000000 0.000000 0.000000
# 2 0.001385 0.010354 -0.003990 0.000000 0.000000 0.000000
# 3 -0.001661 -0.003990 0.006886 0.000000 0.000000 0.000000
# 4 0.000000 0.000000 0.000000 0.032407 0.000000 0.000000
# 5 0.000000 0.000000 0.000000 0.000000 0.161694 0.000000
# 6 0.000000 0.000000 0.000000 0.000000 0.000000 0.061777
#
#
# Mechanical properties :
#
#
# Convention : Reuss Voigt Hill
#
# Bulk Modulus (GPa) = 40.54434 60.19733 50.37084
# Shear Modulus (GPa) = 16.34913 30.46018 23.40466
#
# Velocity S-wave (km/s) = 2.73599 3.73450 3.27354
# Velocity P-wave (km/s) = 5.34271 6.79392 6.11154
#
# Compressibility (1/GPa) = 0.02466435
#
# Stress axis : x y z
#
# Youngs Moduli (GPa) = 62.67297 96.58154 145.22032
#
# Poissons Ratio (x) = -0.13376 0.24115
# Poissons Ratio (y) = -0.08680 0.57945
# Poissons Ratio (z) = 0.10407 0.38537
#
# Static dielectric constant tensor:
#      x y z
#    x 1.814500 0.000000 0.000000 
#    y 0.000000 1.880340 0.000000 
#    z 0.000000 0.000000 1.788250 
# 
# From -- ./inp_files/62876.got.cif
#   From: 2010.05.17/outbox.cif.g08.bks.cpg/sg71_32_cif.got.tgz:62876.got - 2010.06.03 16:22:01.
