data_PCOD9523139
_publ_section_title
;
Structure prediction by ZEFSAII (Michael W. Deem and Ramdas Pophale) SiO2 
 PCOD9523139
Probable space group: I M M M
;
_chemical_formula_sum "Si O2"
_cell_formula_units_Z 120
_cell_length_a 28.056309
_cell_length_b 8.828600
_cell_length_c 27.662279
_cell_angle_alpha 90.000000
_cell_angle_beta 90.000000
_cell_angle_gamma 90.000000
_cell_volume 6851.889237
_symmetry_space_group_name_H-M "I M M M"
_symmetry_group_IT_number 71
_symmetry_cell_setting 'orthorhombic'
loop_
_space_group_symop_operation_xyz
x,y,z
-x,-y,z
x,-y,-z
-x,y,-z
-x,-y,-z
x,y,-z
-x,y,z
x,-y,z
1/2+x,1/2+y,1/2+z
1/2-x,1/2-y,1/2+z
1/2+x,1/2-y,1/2-z
1/2-x,1/2+y,1/2-z
1/2-x,1/2-y,1/2-z
1/2+x,1/2+y,1/2-z
1/2-x,1/2+y,1/2+z
1/2+x,1/2-y,1/2+z
loop_
_atom_site_type_symbol
_atom_site_label
_atom_site_fract_x
_atom_site_fract_y
_atom_site_fract_z
Si Si1 0.443873 0.681741 0.206650
Si Si2 0.944231 0.318414 0.000000
Si Si3 0.112418 0.181566 0.910027
Si Si4 0.732565 0.681052 0.800148
Si Si5 0.359216 0.819990 0.850952
Si Si6 0.714623 0.819429 0.601013
Si Si7 0.554610 0.315913 0.316439
Si Si8 0.184476 0.182372 0.444794
O O1 0.500000 0.711303 0.198940
O O2 0.436906 0.500000 0.203458
O O3 0.409438 0.763338 0.169445
O O4 0.432311 0.730252 0.261928
O O5 0.918242 0.252578 0.047009
O O6 0.940568 0.500000 0.000000
O O7 0.000000 0.276366 0.000000
O O8 0.166945 0.233529 0.912930
O O9 0.089937 0.232679 0.858689
O O10 0.109407 0.000000 0.912671
O O11 0.727899 0.500000 0.796336
O O12 0.750000 0.750000 0.750000
O O13 0.682303 0.749448 0.817269
O O14 0.769499 0.713524 0.843815
O O15 0.348309 0.760112 0.904771
O O16 0.356048 0.000000 0.849675
O O17 0.760662 0.779944 0.568623
O O18 0.706731 0.000000 0.596601
O O19 0.500000 0.267816 0.326395
O O20 0.554330 0.500000 0.316097
O O21 0.173958 0.223527 0.500000
O O22 0.180229 0.000000 0.439592
#
# Coordination Sequence:
#
# PCOD9523139 Si02
#       8
#    16   8  16  16  16  16  16  16
#     4   9  18  35  59  84 112 150 191 229 272 326
#     4  11  25  43  59  75 101 143 189 235 290 343
#     4  11  22  35  56  84 108 137 179 231 285 336
#     4  10  21  37  56  79 112 151 190 230 274 327
#     4  11  22  35  54  84 118 151 186 226 280 338
#     4   9  20  36  53  79 112 145 179 221 274 328
#     4   8  16  32  53  77 104 136 177 225 275 323
#     4   9  19  38  62  82 105 145 190 232 278 330
#
# _framework density 17.513417
#
# number of rings (size 3 to 8) (size 9 to 14) (size 15 to 20)
#    0.000    2.333    0.000    4.200    2.800    4.267 
#    0.000    0.667    0.000    2.000    0.000    2.800 
#    0.000    0.000    0.000    0.000    0.000    0.000 
#
# Total GULP energy -334938.039146 kJ/mol
# GULP energy per Si atom -5582.300652 kJ/mol
# Density = 1.747356 g / cm^3
# Si number density = 17.513417 Si / 1000 Ang^3
#
#
#
# Elastic Constant Matrix: (Units=GPa)
#
#
# Indices 1 2 3 4 5 6 
#
# 1 99.6667 52.0962 77.3196 0.0000 0.0000 0.0000
# 2 52.0962 56.8117 58.1966 0.0000 0.0000 0.0000
# 3 77.3196 58.1966 143.5554 0.0000 0.0000 0.0000
# 4 0.0000 0.0000 0.0000 20.9318 0.0000 0.0000
# 5 0.0000 0.0000 0.0000 0.0000 14.2775 0.0000
# 6 0.0000 0.0000 0.0000 0.0000 0.0000 19.3422
#
#
#
# Elastic Compliance Matrix: (Units=1/GPa)
#
#
# Indices 1 2 3 4 5 6 
#
# 1 0.022193 -0.013863 -0.006333 0.000000 0.000000 0.000000
# 2 -0.013863 0.038763 -0.008248 0.000000 0.000000 0.000000
# 3 -0.006333 -0.008248 0.013720 0.000000 0.000000 0.000000
# 4 0.000000 0.000000 0.000000 0.047774 0.000000 0.000000
# 5 0.000000 0.000000 0.000000 0.000000 0.070041 0.000000
# 6 0.000000 0.000000 0.000000 0.000000 0.000000 0.051700
#
#
# Mechanical properties :
#
#
# Convention : Reuss Voigt Hill
#
# Bulk Modulus (GPa) = 56.21554 75.02873 65.62214
# Shear Modulus (GPa) = 16.28613 18.40505 17.34559
#
# Velocity S-wave (km/s) = 3.05277 3.24529 3.15050
# Velocity P-wave (km/s) = 6.67788 7.54826 7.12637
#
# Compressibility (1/GPa) = 0.01778868
#
# Stress axis : x y z
#
# Youngs Moduli (GPa) = 45.05925 25.79761 72.88375
#
# Poissons Ratio (x) = 0.35764 0.46158
# Poissons Ratio (y) = 0.62468 0.60111
# Poissons Ratio (z) = 0.28536 0.21277
#
# Static dielectric constant tensor:
#      x y z
#    x 1.575170 0.000000 0.000000 
#    y 0.000000 1.582350 0.000000 
#    z 0.000000 0.000000 1.589460 
# 
# From -- ./inp_files/67172.got.cif
#   From: 2010.05.17/outbox.cif.g08.bks.cpg/sg71_34_cif.got.tgz:67172.got - 2010.06.03 16:22:01.
