data_PCOD9523328
_publ_section_title
;
Structure prediction by ZEFSAII (Michael W. Deem and Ramdas Pophale) SiO2 
 PCOD9523328
Probable space group: I M M M
;
_chemical_formula_sum "Si O2"
_cell_formula_units_Z 88
_cell_length_a 28.317038
_cell_length_b 8.867195
_cell_length_c 19.822187
_cell_angle_alpha 90.000000
_cell_angle_beta 90.000000
_cell_angle_gamma 90.000000
_cell_volume 4977.206409
_symmetry_space_group_name_H-M "I M M M"
_symmetry_group_IT_number 71
_symmetry_cell_setting 'orthorhombic'
loop_
_space_group_symop_operation_xyz
x,y,z
-x,-y,z
x,-y,-z
-x,y,-z
-x,-y,-z
x,y,-z
-x,y,z
x,-y,z
1/2+x,1/2+y,1/2+z
1/2-x,1/2-y,1/2+z
1/2+x,1/2-y,1/2-z
1/2-x,1/2+y,1/2-z
1/2-x,1/2-y,1/2-z
1/2+x,1/2+y,1/2-z
1/2-x,1/2+y,1/2+z
1/2+x,1/2-y,1/2+z
loop_
_atom_site_type_symbol
_atom_site_label
_atom_site_fract_x
_atom_site_fract_y
_atom_site_fract_z
Si Si1 0.811170 0.818739 0.313031
Si Si2 0.916983 0.181045 0.667840
Si Si3 0.000000 0.319620 0.579367
Si Si4 0.877283 0.818046 0.077885
Si Si5 0.944300 0.677336 0.189293
Si Si6 0.213800 0.819094 0.840344
O O1 0.862169 0.772555 0.341267
O O2 0.806065 0.774182 0.233851
O O3 0.765238 0.752016 0.348939
O O4 0.809083 0.000000 0.315322
O O5 0.953803 0.253089 0.616007
O O6 0.931125 0.233618 0.742847
O O7 0.919865 0.000000 0.663740
O O8 0.000000 0.500000 0.587734
O O9 0.000000 0.283710 0.500000
O O10 0.914553 0.740876 0.127158
O O11 0.825057 0.776917 0.104506
O O12 0.881618 0.000000 0.084254
O O13 0.883859 0.777287 0.000000
O O14 0.934392 0.500000 0.199468
O O15 0.000000 0.694906 0.176869
O O16 0.218503 0.000000 0.840154
#
# Coordination Sequence:
#
# PCOD9523328 Si02
#       6
#    16  16   8  16  16  16
#     4   9  18  32  53  83 111 140 183 234 282 331
#     4  11  21  37  62  88 116 150 192 237 281 338
#     4  11  25  43  61  87 122 153 186 231 287 347
#     4  10  21  38  58  80 112 154 197 240 288 345
#     4  11  23  37  56  84 116 149 191 241 291 340
#     4   9  17  32  52  79 112 144 184 232 283 338
#
# _framework density 17.680600999999999
#
# number of rings (size 3 to 8) (size 9 to 14) (size 15 to 20)
#    0.000    1.909    2.727    1.364    0.000    4.727 
#    0.000    2.727    0.000    3.273    0.000    0.000 
#    0.000    0.000    0.000    0.000    0.000    0.000 
#
# Total GULP energy -245619.854739 kJ/mol
# GULP energy per Si atom -5582.269426 kJ/mol
# Density = 1.764036 g / cm^3
# Si number density = 17.680601 Si / 1000 Ang^3
#
#
#
# Elastic Constant Matrix: (Units=GPa)
#
#
# Indices 1 2 3 4 5 6 
#
# 1 146.4493 49.4650 57.7944 0.0000 0.0000 0.0000
# 2 49.4650 35.0009 37.8904 0.0000 0.0000 0.0000
# 3 57.7944 37.8904 90.4655 0.0000 0.0000 0.0000
# 4 0.0000 0.0000 0.0000 23.5727 0.0000 0.0000
# 5 0.0000 0.0000 0.0000 0.0000 27.4996 0.0000
# 6 0.0000 0.0000 0.0000 0.0000 0.0000 35.1107
#
#
#
# Elastic Compliance Matrix: (Units=1/GPa)
#
#
# Indices 1 2 3 4 5 6 
#
# 1 0.013127 -0.017332 -0.001127 0.000000 0.000000 0.000000
# 2 -0.017332 0.075154 -0.020405 0.000000 0.000000 0.000000
# 3 -0.001127 -0.020405 0.020320 0.000000 0.000000 0.000000
# 4 0.000000 0.000000 0.000000 0.042422 0.000000 0.000000
# 5 0.000000 0.000000 0.000000 0.000000 0.036364 0.000000
# 6 0.000000 0.000000 0.000000 0.000000 0.000000 0.028481
#
#
# Mechanical properties :
#
#
# Convention : Reuss Voigt Hill
#
# Bulk Modulus (GPa) = 32.38969 62.46839 47.42904
# Shear Modulus (GPa) = 16.45344 25.68768 21.07056
#
# Velocity S-wave (km/s) = 3.05387 3.81579 3.45589
# Velocity P-wave (km/s) = 5.54923 7.40419 6.54278
#
# Compressibility (1/GPa) = 0.03087402
#
# Stress axis : x y z
#
# Youngs Moduli (GPa) = 76.17829 13.30600 49.21160
#
# Poissons Ratio (x) = 0.23061 0.05547
# Poissons Ratio (y) = 1.32029 1.00416
# Poissons Ratio (z) = 0.08587 0.27151
#
# Static dielectric constant tensor:
#      x y z
#    x 1.601820 0.000000 0.000000 
#    y 0.000000 1.597710 0.000000 
#    z 0.000000 0.000000 1.576790 
# 
# From -- ./inp_files/49238.got.cif
#   From: 2010.05.17/outbox.cif.g08.bks.cpg/sg71_25_cif.got.tgz:49238.got - 2010.06.03 16:22:01.
