data_PCOD9523806
_publ_section_title
;
Structure prediction by ZEFSAII (Michael W. Deem and Ramdas Pophale) SiO2 
 PCOD9523806
Probable space group: I M M M
;
_chemical_formula_sum "Si O2"
_cell_formula_units_Z 88
_cell_length_a 8.469412
_cell_length_b 22.372895
_cell_length_c 23.156248
_cell_angle_alpha 90.000000
_cell_angle_beta 90.000000
_cell_angle_gamma 90.000000
_cell_volume 4387.767798
_symmetry_space_group_name_H-M "I M M M"
_symmetry_group_IT_number 71
_symmetry_cell_setting 'orthorhombic'
loop_
_space_group_symop_operation_xyz
x,y,z
-x,-y,z
x,-y,-z
-x,y,-z
-x,-y,-z
x,y,-z
-x,y,z
x,-y,z
1/2+x,1/2+y,1/2+z
1/2-x,1/2-y,1/2+z
1/2+x,1/2-y,1/2-z
1/2-x,1/2+y,1/2-z
1/2-x,1/2-y,1/2-z
1/2+x,1/2+y,1/2-z
1/2-x,1/2+y,1/2+z
1/2+x,1/2-y,1/2+z
loop_
_atom_site_type_symbol
_atom_site_label
_atom_site_fract_x
_atom_site_fract_y
_atom_site_fract_z
Si Si1 0.188584 0.766597 0.432118
Si Si2 0.810132 0.383576 0.865677
Si Si3 0.690729 0.429417 0.256761
Si Si4 0.325224 0.932806 0.068720
Si Si5 0.677863 0.656711 0.640168
Si Si6 0.307872 0.000000 0.435425
O O1 0.243217 0.759996 0.500000
O O2 0.254802 0.825483 0.400607
O O3 0.235343 0.712440 0.389222
O O4 0.000000 0.769951 0.434465
O O5 0.740496 0.397524 0.802660
O O6 0.759245 0.440801 0.902769
O O7 0.000000 0.381919 0.861040
O O8 0.500000 0.431728 0.260928
O O9 0.744769 0.500000 0.259555
O O10 0.745838 0.383341 0.307044
O O11 0.500000 0.909479 0.086254
O O12 0.185403 0.892281 0.089862
O O13 0.309832 0.000000 0.091176
O O14 0.326336 0.934922 0.000000
O O15 0.500000 0.675204 0.655214
O O16 0.500000 0.000000 0.436613
O O17 0.248050 0.000000 0.500000
#
# Coordination Sequence:
#
# PCOD9523806 Si02
#       6
#    16  16  16  16  16   8
#     4  11  25  44  64  89 124 165 207 253 310 375
#     4  11  22  39  65  95 125 160 203 253 309 365
#     4  10  22  41  63  89 127 167 205 254 308 366
#     4   9  18  33  53  79 113 153 198 252 313 371
#     4  11  23  38  59  87 119 162 210 256 308 359
#     4   9  18  34  59  93 127 153 186 243 308 361
#
# _framework density 20.055757
#
# number of rings (size 3 to 8) (size 9 to 14) (size 15 to 20)
#    0.000    1.727    0.909    3.818    0.000    8.000 
#    0.000    0.909    0.000    2.182    0.000    0.000 
#    0.000    0.000    0.000    0.000    0.000    0.000 
#
# Total GULP energy -245224.774419 kJ/mol
# GULP energy per Si atom -5573.290328 kJ/mol
# Density = 2.001011 g / cm^3
# Si number density = 20.055757 Si / 1000 Ang^3
#
#
#
# Elastic Constant Matrix: (Units=GPa)
#
#
# Indices 1 2 3 4 5 6 
#
# 1 29.8733 29.6976 21.0081 0.0000 0.0000 0.0000
# 2 29.6976 150.5327 88.4248 0.0000 0.0000 0.0000
# 3 21.0081 88.4248 140.8722 0.0000 0.0000 0.0000
# 4 0.0000 0.0000 0.0000 25.7423 0.0000 0.0000
# 5 0.0000 0.0000 0.0000 0.0000 24.2917 0.0000
# 6 0.0000 0.0000 0.0000 0.0000 0.0000 25.9095
#
#
#
# Elastic Compliance Matrix: (Units=1/GPa)
#
#
# Indices 1 2 3 4 5 6 
#
# 1 0.041891 -0.007278 -0.001679 0.000000 0.000000 0.000000
# 2 -0.007278 0.011788 -0.006314 0.000000 0.000000 0.000000
# 3 -0.001679 -0.006314 0.011312 0.000000 0.000000 0.000000
# 4 0.000000 0.000000 0.000000 0.038847 0.000000 0.000000
# 5 0.000000 0.000000 0.000000 0.000000 0.041166 0.000000
# 6 0.000000 0.000000 0.000000 0.000000 0.000000 0.038596
#
#
# Mechanical properties :
#
#
# Convention : Reuss Voigt Hill
#
# Bulk Modulus (GPa) = 29.02821 66.61547 47.82184
# Shear Modulus (GPa) = 22.16085 27.33189 24.74637
#
# Velocity S-wave (km/s) = 3.32770 3.69561 3.51647
# Velocity P-wave (km/s) = 5.41017 7.17616 6.35481
#
# Compressibility (1/GPa) = 0.03444925
#
# Stress axis : x y z
#
# Youngs Moduli (GPa) = 23.87170 84.83427 88.40164
#
# Poissons Ratio (x) = 0.61745 0.14839
# Poissons Ratio (y) = 0.17375 0.55814
# Poissons Ratio (z) = 0.04007 0.53562
#
# Static dielectric constant tensor:
#      x y z
#    x 1.756370 0.000000 0.000000 
#    y 0.000000 1.734730 0.000000 
#    z 0.000000 0.000000 1.747680 
# 
# From -- ./inp_files/57550.got.cif
#   From: 2010.05.17/outbox.cif.g08.bks.cpg/sg71_29_cif.got.tgz:57550.got - 2010.06.03 16:22:01.
