data_PCOD9523945
_publ_section_title
;
Structure prediction by ZEFSAII (Michael W. Deem and Ramdas Pophale) SiO2 
 PCOD9523945
Probable space group: I M M M
;
_chemical_formula_sum "Si O2"
_cell_formula_units_Z 44
_cell_length_a 11.770985
_cell_length_b 7.490343
_cell_length_c 25.769915
_cell_angle_alpha 90.000000
_cell_angle_beta 90.000000
_cell_angle_gamma 90.000000
_cell_volume 2272.100294
_symmetry_space_group_name_H-M "I M M M"
_symmetry_group_IT_number 71
_symmetry_cell_setting 'orthorhombic'
loop_
_space_group_symop_operation_xyz
x,y,z
-x,-y,z
x,-y,-z
-x,y,-z
-x,-y,-z
x,y,-z
-x,y,z
x,-y,z
1/2+x,1/2+y,1/2+z
1/2-x,1/2-y,1/2+z
1/2+x,1/2-y,1/2-z
1/2-x,1/2+y,1/2-z
1/2-x,1/2-y,1/2-z
1/2+x,1/2+y,1/2-z
1/2-x,1/2+y,1/2+z
1/2+x,1/2-y,1/2+z
loop_
_atom_site_type_symbol
_atom_site_label
_atom_site_fract_x
_atom_site_fract_y
_atom_site_fract_z
Si Si1 0.500000 0.790808 0.137763
Si Si2 0.500000 0.500000 0.773648
Si Si3 0.249146 0.210485 0.393428
Si Si4 0.370579 0.500000 0.327122
Si Si5 0.630380 0.782903 0.500000
O O1 0.500000 0.671032 0.189463
O O2 0.385465 0.743307 0.107078
O O3 0.500000 0.000000 0.149837
O O4 0.392745 0.500000 0.734520
O O5 0.304698 0.328099 0.348095
O O6 0.305033 0.269803 0.447645
O O7 0.270808 0.000000 0.385921
O O8 0.500000 0.500000 0.348881
O O9 0.500000 0.722242 0.500000
O O10 0.629332 0.000000 0.500000
#
# Coordination Sequence:
#
# PCOD9523945 Si02
#       5
#     8   4  16   8   8
#     4  12  24  45  65  93 133 172 227 275 328 383
#     4  10  26  46  64  98 124 176 234 262 338 388
#     4  11  22  42  69  95 137 173 212 277 320 395
#     4  10  24  42  63  99 124 168 230 258 330 386
#     4   9  20  38  67 100 133 174 212 253 338 393
#
# _framework density 19.365342999999999
#
# number of rings (size 3 to 8) (size 9 to 14) (size 15 to 20)
#    0.545    0.909    3.636    1.091    0.000    6.545 
#    0.000    5.455    0.000    0.000    0.000    0.000 
#    0.000    0.000    0.000    0.000    0.000    0.000 
#
# Total GULP energy -122856.050063 kJ/mol
# GULP energy per Si atom -5584.365912 kJ/mol
# Density = 1.932127 g / cm^3
# Si number density = 19.365343 Si / 1000 Ang^3
#
#
#
# Elastic Constant Matrix: (Units=GPa)
#
#
# Indices 1 2 3 4 5 6 
#
# 1 164.3353 27.1737 71.1681 0.0000 0.0000 0.0000
# 2 27.1737 131.7132 44.4951 0.0000 0.0000 0.0000
# 3 71.1681 44.4951 132.5389 0.0000 0.0000 0.0000
# 4 0.0000 0.0000 0.0000 -59.2499 0.0000 0.0000
# 5 0.0000 0.0000 0.0000 0.0000 -113.3142 0.0000
# 6 0.0000 0.0000 0.0000 0.0000 0.0000 16.1468
#
#
#
# Elastic Compliance Matrix: (Units=1/GPa)
#
#
# Indices 1 2 3 4 5 6 
#
# 1 0.007935 -0.000223 -0.004186 0.000000 0.000000 0.000000
# 2 -0.000223 0.008570 -0.002757 0.000000 0.000000 0.000000
# 3 -0.004186 -0.002757 0.010718 0.000000 0.000000 0.000000
# 4 0.000000 0.000000 0.000000 -0.016878 0.000000 0.000000
# 5 0.000000 0.000000 0.000000 0.000000 -0.008825 0.000000
# 6 0.000000 0.000000 0.000000 0.000000 0.000000 0.061932
#
#
# Mechanical properties :
#
#
# Convention : Reuss Voigt Hill
#
# Bulk Modulus (GPa) = 77.57570 79.36236 78.46903
# Shear Modulus (GPa) = 60.91583 -12.23343 24.34120
#
# Velocity S-wave (km/s) = 5.61466 -2.51613 3.54919
# Velocity P-wave (km/s) = 9.06524 5.71222 7.57654
#
# Compressibility (1/GPa) = 0.01289064
#
# Stress axis : x y z
#
# Youngs Moduli (GPa) = 126.02862 116.69027 93.29946
#
# Poissons Ratio (x) = 0.02602 0.39053
# Poissons Ratio (y) = 0.02810 0.25725
# Poissons Ratio (z) = 0.52753 0.32174
#
# Static dielectric constant tensor:
#      x y z
#    x 1.669710 0.000000 0.000000 
#    y 0.000000 1.677450 0.000000 
#    z 0.000000 0.000000 1.649050 
# 
# From -- ./inp_files/58390.got.cif
#   From: 2010.05.17/outbox.cif.g08.bks.cpg/sg71_30_cif.got.tgz:58390.got - 2010.06.03 16:22:01.
