data_PCOD9523366
_publ_section_title
;
Structure prediction by ZEFSAII (Michael W. Deem and Ramdas Pophale) SiO2 
 PCOD9523366
Probable space group: I M M M
;
_chemical_formula_sum "Si O2"
_cell_formula_units_Z 96
_cell_length_a 22.701644
_cell_length_b 13.324353
_cell_length_c 17.795227
_cell_angle_alpha 90.000000
_cell_angle_beta 90.000000
_cell_angle_gamma 90.000000
_cell_volume 5382.784227
_symmetry_space_group_name_H-M "I M M M"
_symmetry_group_IT_number 71
_symmetry_cell_setting 'orthorhombic'
loop_
_space_group_symop_operation_xyz
x,y,z
-x,-y,z
x,-y,-z
-x,y,-z
-x,-y,-z
x,y,-z
-x,y,z
x,-y,z
1/2+x,1/2+y,1/2+z
1/2-x,1/2-y,1/2+z
1/2+x,1/2-y,1/2-z
1/2-x,1/2+y,1/2-z
1/2-x,1/2-y,1/2-z
1/2+x,1/2+y,1/2-z
1/2-x,1/2+y,1/2+z
1/2+x,1/2-y,1/2+z
loop_
_atom_site_type_symbol
_atom_site_label
_atom_site_fract_x
_atom_site_fract_y
_atom_site_fract_z
Si Si1 0.851946 0.276241 0.627827
Si Si2 0.158957 0.382482 0.783620
Si Si3 0.569999 0.120103 0.000000
Si Si4 0.427965 0.383797 0.500000
Si Si5 0.431940 0.390047 0.201483
Si Si6 0.068269 0.225948 0.149547
Si Si7 0.254925 0.616058 0.084331
O O1 0.828444 0.338713 0.700145
O O2 0.891190 0.341872 0.570862
O O3 0.896890 0.194795 0.660157
O O4 0.801543 0.206754 0.591052
O O5 0.144393 0.500000 0.777068
O O6 0.105763 0.317318 0.818058
O O7 0.211127 0.372827 0.844892
O O8 0.500000 0.153465 0.000000
O O9 0.568555 0.000000 0.000000
O O10 0.408645 0.500000 0.500000
O O11 0.500000 0.386056 0.500000
O O12 0.408952 0.321683 0.572739
O O13 0.500000 0.388153 0.178392
O O14 0.407294 0.500000 0.187702
O O15 0.429973 0.362838 0.289213
O O16 0.000000 0.256049 0.140317
O O17 0.278452 0.500000 0.089060
O O18 0.227679 0.622864 0.000000
#
# Coordination Sequence:
#
# PCOD9523366 Si02
#       7
#    16  16   8   8  16  16  16
#     4  11  20  38  59  83 111 147 192 236 283 341
#     4  10  22  37  57  83 112 151 195 237 283 340
#     4  11  24  40  60  87 120 156 193 237 288 341
#     4   9  16  28  48  73 102 138 178 219 270 328
#     4   9  17  30  50  78 110 141 175 222 279 339
#     4   9  18  31  50  77 110 147 187 230 279 338
#     4  10  21  38  60  85 112 145 187 236 294 349
#
# _framework density 17.834636
#
# number of rings (size 3 to 8) (size 9 to 14) (size 15 to 20)
#    0.000    2.167    0.833    2.500    1.167    3.000 
#    0.000    0.000    0.000    7.500    0.000    0.000 
#    0.000    0.000    0.000    0.000    0.000    0.000 
#
# Total GULP energy -267333.737664 kJ/mol
# GULP energy per Si atom -5569.452868 kJ/mol
# Density = 1.779404 g / cm^3
# Si number density = 17.834636 Si / 1000 Ang^3
#
#
#
# Elastic Constant Matrix: (Units=GPa)
#
#
# Indices 1 2 3 4 5 6 
#
# 1 46.9906 33.4240 36.0197 0.0000 0.0000 0.0000
# 2 33.4240 115.4333 48.0933 0.0000 0.0000 0.0000
# 3 36.0197 48.0933 123.7642 0.0000 0.0000 0.0000
# 4 0.0000 0.0000 0.0000 14.3129 0.0000 0.0000
# 5 0.0000 0.0000 0.0000 0.0000 23.9406 0.0000
# 6 0.0000 0.0000 0.0000 0.0000 0.0000 24.6210
#
#
#
# Elastic Compliance Matrix: (Units=1/GPa)
#
#
# Indices 1 2 3 4 5 6 
#
# 1 0.030669 -0.006159 -0.006533 0.000000 0.000000 0.000000
# 2 -0.006159 0.011573 -0.002705 0.000000 0.000000 0.000000
# 3 -0.006533 -0.002705 0.011032 0.000000 0.000000 0.000000
# 4 0.000000 0.000000 0.000000 0.069867 0.000000 0.000000
# 5 0.000000 0.000000 0.000000 0.000000 0.041770 0.000000
# 6 0.000000 0.000000 0.000000 0.000000 0.000000 0.040616
#
#
# Mechanical properties :
#
#
# Convention : Reuss Voigt Hill
#
# Bulk Modulus (GPa) = 44.47964 57.91803 51.19883
# Shear Modulus (GPa) = 20.50752 23.81830 22.16291
#
# Velocity S-wave (km/s) = 3.39465 3.65842 3.52900
# Velocity P-wave (km/s) = 6.35288 7.09866 6.73610
#
# Compressibility (1/GPa) = 0.02248219
#
# Stress axis : x y z
#
# Youngs Moduli (GPa) = 32.60651 86.40687 90.64418
#
# Poissons Ratio (x) = 0.53214 0.59214
# Poissons Ratio (y) = 0.20081 0.24518
# Poissons Ratio (z) = 0.21300 0.23372
#
# Static dielectric constant tensor:
#      x y z
#    x 1.608010 0.000000 0.000000 
#    y 0.000000 1.587050 0.000000 
#    z 0.000000 0.000000 1.631790 
# 
# From -- ./inp_files/48075.got.cif
#   From: 2010.05.17/outbox.cif.g08.bks.cpg/sg71_25_cif.got.tgz:48075.got - 2010.06.03 16:22:01.
