data_PCOD9523479
_publ_section_title
;
Structure prediction by ZEFSAII (Michael W. Deem and Ramdas Pophale) SiO2 
 PCOD9523479
Probable space group: I M M M
;
_chemical_formula_sum "Si O2"
_cell_formula_units_Z 90
_cell_length_a 23.575188
_cell_length_b 7.980254
_cell_length_c 22.509467
_cell_angle_alpha 90.000000
_cell_angle_beta 90.000000
_cell_angle_gamma 90.000000
_cell_volume 4234.840821
_symmetry_space_group_name_H-M "I M M M"
_symmetry_group_IT_number 71
_symmetry_cell_setting 'orthorhombic'
loop_
_space_group_symop_operation_xyz
x,y,z
-x,-y,z
x,-y,-z
-x,y,-z
-x,-y,-z
x,y,-z
-x,y,z
x,-y,z
1/2+x,1/2+y,1/2+z
1/2-x,1/2-y,1/2+z
1/2+x,1/2-y,1/2-z
1/2-x,1/2+y,1/2-z
1/2-x,1/2-y,1/2-z
1/2+x,1/2+y,1/2-z
1/2-x,1/2+y,1/2+z
1/2+x,1/2-y,1/2+z
loop_
_atom_site_type_symbol
_atom_site_label
_atom_site_fract_x
_atom_site_fract_y
_atom_site_fract_z
Si Si1 0.938249 0.696524 0.130968
Si Si2 0.237900 0.700480 0.618687
Si Si3 0.581079 0.309417 0.500000
Si Si4 0.378962 0.296223 0.168698
Si Si5 0.000000 0.000000 0.500000
Si Si6 0.000000 0.812918 0.624906
Si Si7 0.202784 0.311107 0.000000
Si Si8 0.333523 0.694855 0.705401
O O1 0.932434 0.500000 0.144684
O O2 0.884659 0.789804 0.158421
O O3 0.000000 0.755566 0.153410
O O4 0.937246 0.720841 0.060326
O O5 0.245426 0.500000 0.615268
O O6 0.172354 0.742917 0.626509
O O7 0.261434 0.780702 0.558884
O O8 0.276704 0.764275 0.674177
O O9 0.561258 0.500000 0.500000
O O10 0.649042 0.308203 0.500000
O O11 0.380716 0.500000 0.168967
O O12 0.440697 0.235171 0.146987
O O13 0.358507 0.232907 0.233493
O O14 0.000000 0.855722 0.445743
O O15 0.000000 0.000000 0.653603
O O16 0.180042 0.500000 0.000000
O O17 0.321692 0.500000 0.717516
#
# Coordination Sequence:
#
# PCOD9523479 Si02
#       8
#    16  16   8  16   2   8   8  16
#     4  11  24  39  58  87 121 164 214 261 311 371
#     4  11  23  40  60  91 126 163 204 259 318 374
#     4  12  23  39  61  86 121 159 208 261 320 373
#     4  10  21  39  62  93 123 163 214 255 311 382
#     4   8  16  36  64  92 126 156 184 286 332 348
#     4   8  18  36  61  91 127 156 209 264 313 369
#     4  12  24  40  64  90 119 160 207 260 311 377
#     4  10  22  38  61  87 124 167 211 259 310 373
#
# _framework density 21.252275000000001
#
# number of rings (size 3 to 8) (size 9 to 14) (size 15 to 20)
#    0.267    1.244    1.778    3.467    1.244    4.622 
#    1.600    0.444    0.000    0.000    0.000    1.867 
#    0.000    0.000    0.000    0.000    0.000    0.000 
#
# Total GULP energy -250982.976190 kJ/mol
# GULP energy per Si atom -5577.399471 kJ/mol
# Density = 2.120390 g / cm^3
# Si number density = 21.252275 Si / 1000 Ang^3
#
#
#
# Elastic Constant Matrix: (Units=GPa)
#
#
# Indices 1 2 3 4 5 6 
#
# 1 171.9800 5.6159 47.9495 0.0000 0.0000 0.0000
# 2 5.6159 41.5722 4.1433 0.0000 0.0000 0.0000
# 3 47.9495 4.1433 95.7128 0.0000 0.0000 0.0000
# 4 0.0000 0.0000 0.0000 4.9906 0.0000 0.0000
# 5 0.0000 0.0000 0.0000 0.0000 51.0851 0.0000
# 6 0.0000 0.0000 0.0000 0.0000 0.0000 37.5936
#
#
#
# Elastic Compliance Matrix: (Units=1/GPa)
#
#
# Indices 1 2 3 4 5 6 
#
# 1 0.006773 -0.000579 -0.003368 0.000000 0.000000 0.000000
# 2 -0.000579 0.024208 -0.000758 0.000000 0.000000 0.000000
# 3 -0.003368 -0.000758 0.012168 0.000000 0.000000 0.000000
# 4 0.000000 0.000000 0.000000 0.200376 0.000000 0.000000
# 5 0.000000 0.000000 0.000000 0.000000 0.019575 0.000000
# 6 0.000000 0.000000 0.000000 0.000000 0.000000 0.026600
#
#
# Mechanical properties :
#
#
# Convention : Reuss Voigt Hill
#
# Bulk Modulus (GPa) = 29.63914 47.18692 38.41303
# Shear Modulus (GPa) = 16.11050 35.50427 25.80738
#
# Velocity S-wave (km/s) = 2.75628 4.09174 3.48851
# Velocity P-wave (km/s) = 4.90979 6.67642 5.86006
#
# Compressibility (1/GPa) = 0.03373917
#
# Stress axis : x y z
#
# Youngs Moduli (GPa) = 147.65579 41.30809 82.18350
#
# Poissons Ratio (x) = 0.02393 0.27677
# Poissons Ratio (y) = 0.08553 0.06228
# Poissons Ratio (z) = 0.49727 0.03130
#
# Static dielectric constant tensor:
#      x y z
#    x 1.777990 0.000000 0.000000 
#    y 0.000000 1.754980 0.000000 
#    z 0.000000 0.000000 1.771390 
# 
# From -- ./inp_files/61192.got.cif
#   From: 2010.05.17/outbox.cif.g08.bks.cpg/sg71_31_cif.got.tgz:61192.got - 2010.06.03 16:22:01.
