data_PCOD9523716
_publ_section_title
;
Structure prediction by ZEFSAII (Michael W. Deem and Ramdas Pophale) SiO2 
 PCOD9523716
Probable space group: I M M M
;
_chemical_formula_sum "Si O2"
_cell_formula_units_Z 104
_cell_length_a 9.038273
_cell_length_b 30.084249
_cell_length_c 20.887185
_cell_angle_alpha 90.000000
_cell_angle_beta 90.000000
_cell_angle_gamma 90.000000
_cell_volume 5679.427277
_symmetry_space_group_name_H-M "I M M M"
_symmetry_group_IT_number 71
_symmetry_cell_setting 'orthorhombic'
loop_
_space_group_symop_operation_xyz
x,y,z
-x,-y,z
x,-y,-z
-x,y,-z
-x,-y,-z
x,y,-z
-x,y,z
x,-y,z
1/2+x,1/2+y,1/2+z
1/2-x,1/2-y,1/2+z
1/2+x,1/2-y,1/2-z
1/2-x,1/2+y,1/2-z
1/2-x,1/2-y,1/2-z
1/2+x,1/2+y,1/2-z
1/2-x,1/2+y,1/2+z
1/2+x,1/2-y,1/2+z
loop_
_atom_site_type_symbol
_atom_site_label
_atom_site_fract_x
_atom_site_fract_y
_atom_site_fract_z
Si Si1 0.676865 0.718053 0.925976
Si Si2 0.668782 0.551102 0.922991
Si Si3 0.673775 0.867047 0.366657
Si Si4 0.330929 0.053900 0.000000
Si Si5 0.675081 0.728224 0.312777
Si Si6 0.821992 0.051669 0.132903
Si Si7 0.675190 0.370706 0.729799
O O1 0.500000 0.718177 0.917613
O O2 0.739622 0.669648 0.907890
O O3 0.751039 0.751421 0.875731
O O4 0.710457 0.728356 0.000000
O O5 0.500000 0.563374 0.904010
O O6 0.693474 0.500000 0.903879
O O7 0.783928 0.584807 0.893512
O O8 0.675232 0.553095 0.000000
O O9 0.500000 0.858421 0.369727
O O10 0.732436 0.865436 0.294293
O O11 0.248595 0.066286 0.934540
O O12 0.500000 0.069608 0.000000
O O13 0.331950 0.000000 0.000000
O O14 0.500000 0.738320 0.311733
O O15 0.750000 0.750000 0.250000
O O16 0.693081 0.675079 0.309178
O O17 0.780891 0.086178 0.188583
O O18 0.000000 0.052787 0.126700
O O19 0.779809 0.000000 0.145866
O O20 0.500000 0.374733 0.745700
#
# Coordination Sequence:
#
# PCOD9523716 Si02
#       7
#    16  16  16   8  16  16  16
#     4  11  24  42  64  88 117 154 198 248 297 353
#     4   9  19  37  59  81 110 152 197 239 286 341
#     4  12  24  36  57  87 118 153 192 240 294 351
#     4   9  17  31  53  81 113 149 185 229 287 339
#     4  11  22  39  64  89 118 156 197 245 298 356
#     4   9  18  35  59  84 111 148 194 237 278 337
#     4  10  22  39  59  84 115 152 193 236 285 346
#
# _framework density 18.311706999999998
#
# number of rings (size 3 to 8) (size 9 to 14) (size 15 to 20)
#    0.000    1.769    1.538    3.462    0.000    6.462 
#    1.385    2.308    0.000    0.000    0.000    0.000 
#    0.000    0.000    0.000    0.000    0.000    0.000 
#
# Total GULP energy -290420.348094 kJ/mol
# GULP energy per Si atom -5585.006694 kJ/mol
# Density = 1.827003 g / cm^3
# Si number density = 18.311707 Si / 1000 Ang^3
#
#
#
# Elastic Constant Matrix: (Units=GPa)
#
#
# Indices 1 2 3 4 5 6 
#
# 1 79.9894 45.6491 66.0185 0.0000 0.0000 0.0000
# 2 45.6491 82.3428 51.5240 0.0000 0.0000 0.0000
# 3 66.0185 51.5240 118.9154 0.0001 0.0000 0.0000
# 4 0.0000 0.0000 0.0001 34.7626 0.0000 0.0000
# 5 0.0000 0.0000 0.0000 0.0000 28.3213 0.0000
# 6 0.0000 0.0000 0.0000 0.0000 0.0000 27.4595
#
#
#
# Elastic Compliance Matrix: (Units=1/GPa)
#
#
# Indices 1 2 3 4 5 6 
#
# 1 0.025976 -0.007377 -0.011225 0.000000 0.000000 0.000000
# 2 -0.007377 0.018756 -0.004031 0.000000 0.000000 0.000000
# 3 -0.011225 -0.004031 0.016388 0.000000 0.000000 0.000000
# 4 0.000000 0.000000 0.000000 0.028767 0.000000 0.000000
# 5 0.000000 0.000000 0.000000 0.000000 0.035309 0.000000
# 6 0.000000 0.000000 0.000000 0.000000 0.000000 0.036417
#
#
# Mechanical properties :
#
#
# Convention : Reuss Voigt Hill
#
# Bulk Modulus (GPa) = 63.07574 67.51454 65.29514
# Shear Modulus (GPa) = 23.56671 25.97909 24.77290
#
# Velocity S-wave (km/s) = 3.59134 3.77067 3.68209
# Velocity P-wave (km/s) = 7.19147 7.47709 7.33567
#
# Compressibility (1/GPa) = 0.01585396
#
# Stress axis : x y z
#
# Youngs Moduli (GPa) = 38.49739 53.31493 61.02101
#
# Poissons Ratio (x) = 0.39329 0.68495
# Poissons Ratio (y) = 0.28399 0.24600
# Poissons Ratio (z) = 0.43213 0.21494
#
# Static dielectric constant tensor:
#      x y z
#    x 1.616390 0.000000 0.000000 
#    y 0.000000 1.631320 0.000000 
#    z 0.000000 0.000000 1.605560 
# 
# From -- ./inp_files/16970.got.cif
#   From: 2010.05.17/outbox.cif.g08.bks.cpg/sg71_9_cif.got.tgz:16970.got - 2010.06.03 16:22:01.
