data_PCOD9523081
_publ_section_title
;
Structure prediction by ZEFSAII (Michael W. Deem and Ramdas Pophale) SiO2 
 PCOD9523081
Probable space group: I M M M
;
_chemical_formula_sum "Si O2"
_cell_formula_units_Z 96
_cell_length_a 11.780503
_cell_length_b 26.091906
_cell_length_c 17.968820
_cell_angle_alpha 90.000000
_cell_angle_beta 90.000000
_cell_angle_gamma 90.000000
_cell_volume 5523.180008
_symmetry_space_group_name_H-M "I M M M"
_symmetry_group_IT_number 71
_symmetry_cell_setting 'orthorhombic'
loop_
_space_group_symop_operation_xyz
x,y,z
-x,-y,z
x,-y,-z
-x,y,-z
-x,-y,-z
x,y,-z
-x,y,z
x,-y,z
1/2+x,1/2+y,1/2+z
1/2-x,1/2-y,1/2+z
1/2+x,1/2-y,1/2-z
1/2-x,1/2+y,1/2-z
1/2-x,1/2-y,1/2-z
1/2+x,1/2+y,1/2-z
1/2-x,1/2+y,1/2+z
1/2+x,1/2-y,1/2+z
loop_
_atom_site_type_symbol
_atom_site_label
_atom_site_fract_x
_atom_site_fract_y
_atom_site_fract_z
Si Si1 0.500000 0.906027 0.412076
Si Si2 0.238473 0.747652 0.160964
Si Si3 0.364415 0.651677 0.086905
Si Si4 0.500000 0.783210 0.590127
Si Si5 0.366312 0.941610 0.818941
Si Si6 0.734521 0.941185 0.341133
Si Si7 0.366335 0.158290 0.912199
O O1 0.500000 0.913293 0.500000
O O2 0.500000 0.844813 0.397397
O O3 0.612710 0.930799 0.378727
O O4 0.250000 0.750000 0.250000
O O5 0.309034 0.699577 0.128897
O O6 0.111445 0.739527 0.129760
O O7 0.291520 0.799398 0.128157
O O8 0.500000 0.654998 0.089774
O O9 0.320235 0.599782 0.124808
O O10 0.328418 0.652654 0.000000
O O11 0.500000 0.774753 0.500000
O O12 0.500000 0.937237 0.796853
O O13 0.289033 0.933486 0.746536
O O14 0.344390 0.897976 0.879098
O O15 0.350135 0.000000 0.845773
O O16 0.769049 0.000000 0.353717
O O17 0.500000 0.169828 0.899484
O O18 0.345851 0.159628 0.000000
#
# Coordination Sequence:
#
# PCOD9523081 Si02
#       7
#     8  16  16   8  16  16  16
#     4  11  21  34  55  82 112 147 190 240 294 348
#     4  12  25  39  62  87 118 152 194 244 293 352
#     4  11  24  41  59  79 114 157 193 236 292 352
#     4  11  24  41  62  87 119 157 196 245 301 354
#     4   9  18  34  56  84 117 149 184 233 290 341
#     4  11  21  35  56  83 114 149 193 241 288 343
#     4  10  21  36  58  86 117 152 190 235 288 351
#
# _framework density 17.381291999999998
#
# number of rings (size 3 to 8) (size 9 to 14) (size 15 to 20)
#    0.000    1.333    2.500    3.750    2.333    3.667 
#    0.000    2.500    0.000    0.000    0.000    0.000 
#    0.000    2.000    0.000    0.000    0.000    0.000 
#
# Total GULP energy -268190.534202 kJ/mol
# GULP energy per Si atom -5587.302796 kJ/mol
# Density = 1.734173 g / cm^3
# Si number density = 17.381292 Si / 1000 Ang^3
#
#
#
# Elastic Constant Matrix: (Units=GPa)
#
#
# Indices 1 2 3 4 5 6 
#
# 1 72.9049 51.4994 53.5374 0.0000 0.0000 0.0000
# 2 51.4994 125.9479 74.3433 0.0000 0.0000 0.0000
# 3 53.5374 74.3433 102.5387 -0.0001 0.0000 0.0000
# 4 0.0000 0.0000 -0.0001 13.5108 0.0000 0.0000
# 5 0.0000 0.0000 0.0000 0.0000 24.5804 0.0000
# 6 0.0000 0.0000 0.0000 0.0000 0.0000 24.6149
#
#
#
# Elastic Compliance Matrix: (Units=1/GPa)
#
#
# Indices 1 2 3 4 5 6 
#
# 1 0.023409 -0.004121 -0.009234 0.000000 0.000000 0.000000
# 2 -0.004121 0.014605 -0.008438 0.000000 0.000000 0.000000
# 3 -0.009234 -0.008438 0.020691 0.000000 0.000000 0.000000
# 4 0.000000 0.000000 0.000000 0.074015 0.000000 0.000000
# 5 0.000000 0.000000 0.000000 0.000000 0.040683 0.000000
# 6 0.000000 0.000000 0.000000 0.000000 0.000000 0.040626
#
#
# Mechanical properties :
#
#
# Convention : Reuss Voigt Hill
#
# Bulk Modulus (GPa) = 66.13949 73.35017 69.74483
# Shear Modulus (GPa) = 19.03641 20.67531 19.85586
#
# Velocity S-wave (km/s) = 3.31301 3.45268 3.38356
# Velocity P-wave (km/s) = 7.26426 7.62803 7.44837
#
# Compressibility (1/GPa) = 0.01511956
#
# Stress axis : x y z
#
# Youngs Moduli (GPa) = 42.71918 68.46833 48.32942
#
# Poissons Ratio (x) = 0.28215 0.44629
# Poissons Ratio (y) = 0.17604 0.40778
# Poissons Ratio (z) = 0.39448 0.57771
#
# Static dielectric constant tensor:
#      x y z
#    x 1.573530 0.000000 0.000000 
#    y 0.000000 1.576070 0.000000 
#    z 0.000000 0.000000 1.579670 
# 
# From -- ./inp_files/24268.got.cif
#   From: 2010.05.17/outbox.cif.g08.bks.cpg/sg71_13_cif.got.tgz:24268.got - 2010.06.03 16:22:01.
