data_PCOD9523197
_publ_section_title
;
Structure prediction by ZEFSAII (Michael W. Deem and Ramdas Pophale) SiO2 
 PCOD9523197
Probable space group: I M M M
;
_chemical_formula_sum "Si O2"
_cell_formula_units_Z 104
_cell_length_a 15.272102
_cell_length_b 24.147757
_cell_length_c 13.323143
_cell_angle_alpha 90.000000
_cell_angle_beta 90.000000
_cell_angle_gamma 90.000000
_cell_volume 4913.402044
_symmetry_space_group_name_H-M "I M M M"
_symmetry_group_IT_number 71
_symmetry_cell_setting 'orthorhombic'
loop_
_space_group_symop_operation_xyz
x,y,z
-x,-y,z
x,-y,-z
-x,y,-z
-x,-y,-z
x,y,-z
-x,y,z
x,-y,z
1/2+x,1/2+y,1/2+z
1/2-x,1/2-y,1/2+z
1/2+x,1/2-y,1/2-z
1/2-x,1/2+y,1/2-z
1/2-x,1/2-y,1/2-z
1/2+x,1/2+y,1/2-z
1/2-x,1/2+y,1/2+z
1/2+x,1/2-y,1/2+z
loop_
_atom_site_type_symbol
_atom_site_label
_atom_site_fract_x
_atom_site_fract_y
_atom_site_fract_z
Si Si1 0.394309 0.854206 0.610772
Si Si2 0.221455 0.310808 0.500000
Si Si3 0.107715 0.803041 0.500000
Si Si4 0.671845 0.736348 0.324799
Si Si5 0.900981 0.143217 0.292913
Si Si6 0.896702 0.440649 0.728896
Si Si7 0.394130 0.434811 0.385076
Si Si8 0.655887 0.936601 0.000000
O O1 0.367461 0.874481 0.500000
O O2 0.500000 0.853675 0.613073
O O3 0.363278 0.791895 0.626530
O O4 0.360445 0.891290 0.703119
O O5 0.151270 0.258821 0.500000
O O6 0.283441 0.301821 0.406173
O O7 0.189150 0.373245 0.500000
O O8 0.136201 0.838221 0.401323
O O9 0.000000 0.797609 0.500000
O O10 0.750000 0.750000 0.250000
O O11 0.599678 0.701195 0.266957
O O12 0.861191 0.099706 0.211928
O O13 0.000000 0.123922 0.313222
O O14 0.857237 0.500000 0.758190
O O15 0.889858 0.436178 0.609070
O O16 0.000000 0.442197 0.751525
O O17 0.365088 0.420149 0.500000
O O18 0.500000 0.427642 0.386239
O O19 0.375997 0.500000 0.371255
O O20 0.697700 0.000000 0.000000
#
# Coordination Sequence:
#
# PCOD9523197 Si02
#       8
#    16   8   8  16  16  16  16   8
#     4  10  21  37  57  86 123 157 196 246 295 354
#     4  12  24  40  57  86 114 158 197 242 299 357
#     4  10  22  40  59  86 119 154 195 240 289 354
#     4  12  23  38  57  82 116 153 197 241 293 351
#     4  10  21  37  58  85 116 152 193 240 293 350
#     4   9  18  33  57  88 118 154 198 244 295 348
#     4   8  15  30  54  84 115 147 188 239 292 344
#     4  10  21  39  59  83 118 152 198 252 298 353
#
# _framework density 21.166595999999998
#
# number of rings (size 3 to 8) (size 9 to 14) (size 15 to 20)
#    0.000    2.000    2.308    2.077    1.077    1.846 
#    0.000    2.692    0.000    3.231    0.000    0.000 
#    0.000    0.000    0.000    0.000    0.000    0.000 
#
# Total GULP energy -289658.495258 kJ/mol
# GULP energy per Si atom -5570.355678 kJ/mol
# Density = 2.111842 g / cm^3
# Si number density = 21.166596 Si / 1000 Ang^3
#
#
#
# Elastic Constant Matrix: (Units=GPa)
#
#
# Indices 1 2 3 4 5 6 
#
# 1 21.6709 19.7635 32.8526 0.0000 0.0000 0.0000
# 2 19.7635 138.4465 71.0419 0.0001 0.0000 0.0000
# 3 32.8526 71.0419 136.3191 0.0002 0.0000 0.0000
# 4 0.0000 0.0001 0.0002 43.4738 0.0000 0.0000
# 5 0.0000 0.0000 0.0000 0.0000 20.8594 0.0000
# 6 0.0000 0.0000 0.0000 0.0000 0.0000 17.7223
#
#
#
# Elastic Compliance Matrix: (Units=1/GPa)
#
#
# Indices 1 2 3 4 5 6 
#
# 1 0.073074 -0.001904 -0.016619 0.000000 0.000000 0.000000
# 2 -0.001904 0.009909 -0.004705 0.000000 0.000000 0.000000
# 3 -0.016619 -0.004705 0.013793 0.000000 0.000000 0.000000
# 4 0.000000 0.000000 0.000000 0.023002 0.000000 0.000000
# 5 0.000000 0.000000 0.000000 0.000000 0.047940 0.000000
# 6 0.000000 0.000000 0.000000 0.000000 0.000000 0.056426
#
#
# Mechanical properties :
#
#
# Convention : Reuss Voigt Hill
#
# Bulk Modulus (GPa) = 19.87240 60.41693 40.14466
# Shear Modulus (GPa) = 17.39890 27.92965 22.66428
#
# Velocity S-wave (km/s) = 2.87016 3.63645 3.27579
# Velocity P-wave (km/s) = 4.51583 6.79980 5.77191
#
# Compressibility (1/GPa) = 0.05032106
#
# Stress axis : x y z
#
# Youngs Moduli (GPa) = 13.68467 100.91566 72.50105
#
# Poissons Ratio (x) = 0.19214 1.20486
# Poissons Ratio (y) = 0.02605 0.34114
# Poissons Ratio (z) = 0.22742 0.47484
#
# Static dielectric constant tensor:
#      x y z
#    x 1.721580 0.000000 0.000000 
#    y 0.000000 1.783120 0.000000 
#    z 0.000000 0.000000 1.774270 
# 
# From -- ./inp_files/24629.got.cif
#   From: 2010.05.17/outbox.cif.g08.bks.cpg/sg71_13_cif.got.tgz:24629.got - 2010.06.03 16:22:01.
