data_PCOD9523888
_publ_section_title
;
Structure prediction by ZEFSAII (Michael W. Deem and Ramdas Pophale) SiO2 
 PCOD9523888
Probable space group: I M M M
;
_chemical_formula_sum "Si O2"
_cell_formula_units_Z 82
_cell_length_a 11.601803
_cell_length_b 23.405840
_cell_length_c 17.249241
_cell_angle_alpha 90.000000
_cell_angle_beta 90.000000
_cell_angle_gamma 90.000000
_cell_volume 4684.030440
_symmetry_space_group_name_H-M "I M M M"
_symmetry_group_IT_number 71
_symmetry_cell_setting 'orthorhombic'
loop_
_space_group_symop_operation_xyz
x,y,z
-x,-y,z
x,-y,-z
-x,y,-z
-x,-y,-z
x,y,-z
-x,y,z
x,-y,z
1/2+x,1/2+y,1/2+z
1/2-x,1/2-y,1/2+z
1/2+x,1/2-y,1/2-z
1/2-x,1/2+y,1/2-z
1/2-x,1/2-y,1/2-z
1/2+x,1/2+y,1/2-z
1/2-x,1/2+y,1/2+z
1/2+x,1/2-y,1/2+z
loop_
_atom_site_type_symbol
_atom_site_label
_atom_site_fract_x
_atom_site_fract_y
_atom_site_fract_z
Si Si1 0.000000 0.856475 0.911977
Si Si2 0.500000 0.568437 0.253653
Si Si3 0.204136 0.772796 0.866918
Si Si4 0.000000 0.000000 0.500000
Si Si5 0.746951 0.432239 0.171865
Si Si6 0.134059 0.773454 0.500000
Si Si7 0.130716 0.672328 0.759155
Si Si8 0.801336 0.094824 0.500000
O O1 0.889241 0.815395 0.903000
O O2 0.000000 0.898710 0.836547
O O3 0.000000 0.881618 0.000000
O O4 0.500000 0.500000 0.266899
O O5 0.384128 0.581189 0.203063
O O6 0.143218 0.717169 0.830040
O O7 0.273951 0.806263 0.801028
O O8 0.298937 0.751322 0.926760
O O9 0.901907 0.950936 0.500000
O O10 0.763661 0.500000 0.182609
O O11 0.834333 0.391441 0.216863
O O12 0.761082 0.416420 0.081477
O O13 0.150218 0.841420 0.500000
O O14 0.000000 0.758854 0.500000
O O15 0.000000 0.675273 0.729698
#
# Coordination Sequence:
#
# PCOD9523888 Si02
#       8
#     8   8  16   2  16   8  16   8
#     4  12  22  40  68  91 121 154 194 254 317 364
#     4  10  23  40  62  91 119 158 203 255 301 363
#     4  11  23  39  58  90 118 154 204 247 302 366
#     4  12  20  36  52  84 126 156 198 248 306 326
#     4  11  22  37  60  87 123 158 208 251 300 357
#     4  12  24  37  59  89 121 160 198 247 305 373
#     4  11  23  39  60  83 120 163 203 252 298 359
#     4  12  22  34  56  89 123 161 202 250 299 347
#
# _framework density 17.50629
#
# number of rings (size 3 to 8) (size 9 to 14) (size 15 to 20)
#    0.000    0.780    7.317    1.171    1.366    0.585 
#    0.000    1.463    0.000    1.171    0.000    0.000 
#    0.000    6.244    0.000    0.000    0.000    0.000 
#
# Total GULP energy -228537.190969 kJ/mol
# GULP energy per Si atom -5574.077829 kJ/mol
# Density = 1.746645 g / cm^3
# Si number density = 17.506290 Si / 1000 Ang^3
#
#
#
# Elastic Constant Matrix: (Units=GPa)
#
#
# Indices 1 2 3 4 5 6 
#
# 1 79.7022 29.4061 9.9559 0.0000 0.0000 0.0000
# 2 29.4061 76.4756 35.2509 0.0000 0.0001 0.0000
# 3 9.9559 35.2509 83.4603 0.0000 0.0001 0.0000
# 4 0.0000 0.0000 0.0000 45.3426 0.0000 0.0000
# 5 0.0000 0.0001 0.0001 0.0000 211.7898 0.0000
# 6 0.0000 0.0000 0.0000 0.0000 0.0000 34.2399
#
#
#
# Elastic Compliance Matrix: (Units=1/GPa)
#
#
# Indices 1 2 3 4 5 6 
#
# 1 0.014662 -0.006000 0.000785 0.000000 0.000000 0.000000
# 2 -0.006000 0.018692 -0.007179 0.000000 0.000000 0.000000
# 3 0.000785 -0.007179 0.014920 0.000000 0.000000 0.000000
# 4 0.000000 0.000000 0.000000 0.022054 0.000000 0.000000
# 5 0.000000 0.000000 0.000000 0.000000 0.004722 0.000000
# 6 0.000000 0.000000 0.000000 0.000000 0.000000 0.029206
#
#
# Mechanical properties :
#
#
# Convention : Reuss Voigt Hill
#
# Bulk Modulus (GPa) = 42.57682 43.20710 42.89196
# Shear Modulus (GPa) = 36.53005 69.27614 52.90310
#
# Velocity S-wave (km/s) = 4.57298 6.29746 5.50319
# Velocity P-wave (km/s) = 7.22886 8.80976 8.05818
#
# Compressibility (1/GPa) = 0.02348696
#
# Stress axis : x y z
#
# Youngs Moduli (GPa) = 68.20240 53.49791 67.02225
#
# Poissons Ratio (x) = 0.32097 -0.05262
# Poissons Ratio (y) = 0.40920 0.48117
# Poissons Ratio (z) = -0.05354 0.38408
#
# Static dielectric constant tensor:
#      x y z
#    x 1.567280 0.000000 0.000000 
#    y 0.000000 1.573420 0.000000 
#    z 0.000000 0.000000 1.695920 
# 
# From -- ./inp_files/23918.got.cif
#   From: 2010.05.17/outbox.cif.g08.bks.cpg/sg71_12_cif.got.tgz:23918.got - 2010.06.03 16:22:01.
