data_PCOD9523166
_publ_section_title
;
Structure prediction by ZEFSAII (Michael W. Deem and Ramdas Pophale) SiO2 
 PCOD9523166
Probable space group: I M M M
;
_chemical_formula_sum "Si O2"
_cell_formula_units_Z 72
_cell_length_a 27.708218
_cell_length_b 8.167580
_cell_length_c 15.942991
_cell_angle_alpha 90.000000
_cell_angle_beta 90.000000
_cell_angle_gamma 90.000000
_cell_volume 3608.043740
_symmetry_space_group_name_H-M "I M M M"
_symmetry_group_IT_number 71
_symmetry_cell_setting 'orthorhombic'
loop_
_space_group_symop_operation_xyz
x,y,z
-x,-y,z
x,-y,-z
-x,y,-z
-x,-y,-z
x,y,-z
-x,y,z
x,-y,z
1/2+x,1/2+y,1/2+z
1/2-x,1/2-y,1/2+z
1/2+x,1/2-y,1/2-z
1/2-x,1/2+y,1/2-z
1/2-x,1/2-y,1/2-z
1/2+x,1/2+y,1/2-z
1/2-x,1/2+y,1/2+z
1/2+x,1/2-y,1/2+z
loop_
_atom_site_type_symbol
_atom_site_label
_atom_site_fract_x
_atom_site_fract_y
_atom_site_fract_z
Si Si1 0.055326 0.695939 0.500000
Si Si2 0.444364 0.700204 0.668190
Si Si3 0.721498 0.695663 0.500000
Si Si4 0.112053 0.197866 0.665724
Si Si5 0.277468 0.304342 0.166249
Si Si6 0.389202 0.700354 0.500000
O O1 0.054082 0.500000 0.500000
O O2 0.083502 0.752816 0.417406
O O3 0.000000 0.757482 0.500000
O O4 0.500000 0.752984 0.669166
O O5 0.444377 0.500000 0.668372
O O6 0.415983 0.754531 0.751100
O O7 0.417091 0.752287 0.583797
O O8 0.719729 0.500000 0.500000
O O9 0.749242 0.750178 0.583329
O O10 0.666216 0.756125 0.500000
O O11 0.167302 0.257726 0.664782
O O12 0.113327 0.000000 0.668565
O O13 0.279440 0.500000 0.166501
O O14 0.250000 0.250000 0.250000
O O15 0.388978 0.500000 0.500000
#
# Coordination Sequence:
#
# PCOD9523166 Si02
#       6
#     8  16   8  16  16   8
#     4  11  24  39  56  82 114 147 186 234 290 347
#     4   9  16  28  50  79 107 136 173 217 266 320
#     4  11  22  37  57  81 114 153 190 233 283 335
#     4  10  21  37  57  81 110 146 188 232 278 334
#     4  11  23  39  59  85 116 150 192 240 290 346
#     4   9  17  30  49  77 112 143 172 214 267 320
#
# _framework density 19.955413
#
# number of rings (size 3 to 8) (size 9 to 14) (size 15 to 20)
#    0.000    1.889    0.000    4.333    0.000   11.111 
#    0.000    0.000    0.000    0.000    0.000    0.000 
#    0.000    8.889    0.000    0.000    0.000    0.000 
#
# Total GULP energy -201221.107849 kJ/mol
# GULP energy per Si atom -5589.475218 kJ/mol
# Density = 1.990999 g / cm^3
# Si number density = 19.955413 Si / 1000 Ang^3
#
#
#
# Elastic Constant Matrix: (Units=GPa)
#
#
# Indices 1 2 3 4 5 6 
#
# 1 249.0787 19.4695 150.3482 0.0000 0.0000 0.0000
# 2 19.4695 19.4413 14.9457 0.0000 0.0000 0.0000
# 3 150.3482 14.9457 245.4020 0.0000 0.0000 0.0000
# 4 0.0000 0.0000 0.0000 17.2935 0.0000 0.0000
# 5 0.0000 0.0000 0.0000 0.0000 45.6184 0.0000
# 6 0.0000 0.0000 0.0000 0.0000 0.0000 23.6285
#
#
#
# Elastic Compliance Matrix: (Units=1/GPa)
#
#
# Indices 1 2 3 4 5 6 
#
# 1 0.006613 -0.003680 -0.003827 0.000000 0.000000 0.000000
# 2 -0.003680 0.056011 -0.001157 0.000000 0.000000 0.000000
# 3 -0.003827 -0.001157 0.006490 0.000000 0.000000 0.000000
# 4 0.000000 0.000000 0.000000 0.057825 0.000000 0.000000
# 5 0.000000 0.000000 0.000000 0.000000 0.021921 0.000000
# 6 0.000000 0.000000 0.000000 0.000000 0.000000 0.042322
#
#
# Mechanical properties :
#
#
# Convention : Reuss Voigt Hill
#
# Bulk Modulus (GPa) = 19.31005 98.16098 58.73551
# Shear Modulus (GPa) = 22.14624 39.25198 30.69911
#
# Velocity S-wave (km/s) = 3.33496 4.43988 3.92648
# Velocity P-wave (km/s) = 4.95246 8.69369 7.07486
#
# Compressibility (1/GPa) = 0.05178651
#
# Stress axis : x y z
#
# Youngs Moduli (GPa) = 151.22683 17.85350 154.08003
#
# Poissons Ratio (x) = 0.06570 0.58969
# Poissons Ratio (y) = 0.55652 0.17821
# Poissons Ratio (z) = 0.57877 0.02065
#
# Static dielectric constant tensor:
#      x y z
#    x 1.693830 0.000000 0.000000 
#    y 0.000000 1.715240 0.000000 
#    z 0.000000 0.000000 1.637300 
# 
# From -- ./inp_files/6195.got.cif
#   From: 2010.05.17/outbox.cif.g08.bks.cpg/sg71_4_cif.got.tgz:6195.got - 2010.06.03 16:22:01.
