data_PCOD9523349
_publ_section_title
;
Structure prediction by ZEFSAII (Michael W. Deem and Ramdas Pophale) SiO2 
 PCOD9523349
Probable space group: I M M M
;
_chemical_formula_sum "Si O2"
_cell_formula_units_Z 116
_cell_length_a 29.441790
_cell_length_b 26.014694
_cell_length_c 7.870431
_cell_angle_alpha 90.000000
_cell_angle_beta 90.000000
_cell_angle_gamma 90.000000
_cell_volume 6028.113882
_symmetry_space_group_name_H-M "I M M M"
_symmetry_group_IT_number 71
_symmetry_cell_setting 'orthorhombic'
loop_
_space_group_symop_operation_xyz
x,y,z
-x,-y,z
x,-y,-z
-x,y,-z
-x,-y,-z
x,y,-z
-x,y,z
x,-y,z
1/2+x,1/2+y,1/2+z
1/2-x,1/2-y,1/2+z
1/2+x,1/2-y,1/2-z
1/2-x,1/2+y,1/2-z
1/2-x,1/2-y,1/2-z
1/2+x,1/2+y,1/2-z
1/2-x,1/2+y,1/2+z
1/2+x,1/2-y,1/2+z
loop_
_atom_site_type_symbol
_atom_site_label
_atom_site_fract_x
_atom_site_fract_y
_atom_site_fract_z
Si Si1 0.052028 0.641215 0.202698
Si Si2 0.448194 0.256456 0.205159
Si Si3 0.132264 0.823945 0.303090
Si Si4 0.301295 0.235282 0.296721
Si Si5 0.184563 0.000000 0.500000
Si Si6 0.626643 0.941895 0.799281
Si Si7 0.191601 0.082423 0.810572
Si Si8 0.212001 0.379126 0.802210
O O1 0.067632 0.699095 0.246135
O O2 0.085713 0.597603 0.267873
O O3 0.000000 0.635642 0.267428
O O4 0.051064 0.637016 0.000000
O O5 0.500000 0.261898 0.265905
O O6 0.414980 0.301268 0.266665
O O7 0.448152 0.258597 0.000000
O O8 0.126264 0.838871 0.500000
O O9 0.165765 0.775160 0.292902
O O10 0.156021 0.870870 0.209057
O O11 0.308105 0.239706 0.500000
O O12 0.250000 0.250000 0.250000
O O13 0.307465 0.175951 0.245269
O O14 0.185636 0.955651 0.347950
O O15 0.672367 0.920789 0.713857
O O16 0.615898 0.000000 0.742314
O O17 0.635553 0.942985 0.000000
O O18 0.242625 0.105223 0.794806
O O19 0.186587 0.060136 0.000000
O O20 0.224992 0.373259 0.000000
#
# Coordination Sequence:
#
# PCOD9523349 Si02
#       8
#    16  16  16  16   4  16  16  16
#     4  10  21  38  59  84 115 152 197 252 315 378
#     4   9  19  36  62  93 126 163 198 240 301 371
#     4  11  21  37  59  90 129 163 204 255 307 370
#     4  11  22  34  54  82 118 160 203 248 304 371
#     4  12  26  48  64  90 125 162 219 260 306 358
#     4  11  25  40  56  80 108 151 209 263 315 369
#     4  12  25  42  66  91 122 166 210 259 313 366
#     4  11  23  40  58  85 123 159 206 259 313 369
#
# _framework density 19.243168000000001
#
# number of rings (size 3 to 8) (size 9 to 14) (size 15 to 20)
#    0.000    1.241    2.759    3.103    0.966    7.172 
#    0.000    1.379    0.000    0.000    0.000    0.966 
#    0.000    1.103    0.000    0.000    0.000    0.000 
#
# Total GULP energy -323592.697470 kJ/mol
# GULP energy per Si atom -5579.184439 kJ/mol
# Density = 1.919937 g / cm^3
# Si number density = 19.243168 Si / 1000 Ang^3
#
#
#
# Elastic Constant Matrix: (Units=GPa)
#
#
# Indices 1 2 3 4 5 6 
#
# 1 54.2895 30.7998 4.7366 0.0000 0.0000 0.0000
# 2 30.7998 112.4119 34.5737 0.0000 0.0000 0.0000
# 3 4.7366 34.5737 88.5793 0.0000 0.0000 0.0000
# 4 0.0000 0.0000 0.0000 21.0421 0.0000 0.0000
# 5 0.0000 0.0000 0.0000 0.0000 0.4189 0.0000
# 6 0.0000 0.0000 0.0000 0.0000 0.0000 -42.3611
#
#
#
# Elastic Compliance Matrix: (Units=1/GPa)
#
#
# Indices 1 2 3 4 5 6 
#
# 1 0.021948 -0.006424 0.001334 0.000000 0.000000 0.000000
# 2 -0.006424 0.011990 -0.004336 0.000000 0.000000 0.000000
# 3 0.001334 -0.004336 0.012910 0.000000 0.000000 0.000000
# 4 0.000000 0.000000 0.000000 0.047524 0.000000 0.000000
# 5 0.000000 0.000000 0.000000 0.000000 2.387175 0.000000
# 6 0.000000 0.000000 0.000000 0.000000 0.000000 -0.023607
#
#
# Mechanical properties :
#
#
# Convention : Reuss Voigt Hill
#
# Bulk Modulus (GPa) = 35.72026 43.94455 39.83241
# Shear Modulus (GPa) = 2.01116 8.16469 5.08792
#
# Velocity S-wave (km/s) = 1.02343 2.06206 1.62781
# Velocity P-wave (km/s) = 4.47207 5.34373 4.92722
#
# Compressibility (1/GPa) = 0.02799531
#
# Stress axis : x y z
#
# Youngs Moduli (GPa) = 45.56284 83.40617 77.45650
#
# Poissons Ratio (x) = 0.53577 -0.10330
# Poissons Ratio (y) = 0.29268 0.33587
# Poissons Ratio (z) = -0.06076 0.36166
#
# Static dielectric constant tensor:
#      x y z
#    x 1.678260 0.000000 0.000000 
#    y 0.000000 1.660340 0.000000 
#    z 0.000000 0.000000 1.694050 
# 
# From -- ./inp_files/15403.got.cif
#   From: 2010.05.17/outbox.cif.g08.bks.cpg/sg71_8_cif.got.tgz:15403.got - 2010.06.03 16:22:01.
