data_PCOD9523129
_publ_section_title
;
Structure prediction by ZEFSAII (Michael W. Deem and Ramdas Pophale) SiO2 
 PCOD9523129
Probable space group: I M M M
;
_chemical_formula_sum "Si O2"
_cell_formula_units_Z 96
_cell_length_a 30.750192
_cell_length_b 7.731128
_cell_length_c 17.859078
_cell_angle_alpha 90.000000
_cell_angle_beta 90.000000
_cell_angle_gamma 90.000000
_cell_volume 4245.704162
_symmetry_space_group_name_H-M "I M M M"
_symmetry_group_IT_number 71
_symmetry_cell_setting 'orthorhombic'
loop_
_space_group_symop_operation_xyz
x,y,z
-x,-y,z
x,-y,-z
-x,y,-z
-x,-y,-z
x,y,-z
-x,y,z
x,-y,z
1/2+x,1/2+y,1/2+z
1/2-x,1/2-y,1/2+z
1/2+x,1/2-y,1/2-z
1/2-x,1/2+y,1/2-z
1/2-x,1/2-y,1/2-z
1/2+x,1/2+y,1/2-z
1/2-x,1/2+y,1/2+z
1/2+x,1/2-y,1/2+z
loop_
_atom_site_type_symbol
_atom_site_label
_atom_site_fract_x
_atom_site_fract_y
_atom_site_fract_z
Si Si1 0.621778 0.708977 0.586420
Si Si2 0.857247 0.712933 0.583157
Si Si3 0.214329 0.687498 0.310188
Si Si4 0.451204 0.709088 0.701458
Si Si5 0.951945 0.297321 0.625385
Si Si6 0.217116 0.303795 0.088405
O O1 0.616557 0.769406 0.500000
O O2 0.620815 0.500000 0.584251
O O3 0.584413 0.769714 0.642252
O O4 0.668946 0.762639 0.617206
O O5 0.840918 0.762646 0.500000
O O6 0.856328 0.500000 0.586312
O O7 0.828265 0.776278 0.653830
O O8 0.907309 0.771438 0.590733
O O9 0.199952 0.500000 0.283213
O O10 0.250000 0.750000 0.250000
O O11 0.245662 0.681927 0.382043
O O12 0.500000 0.750876 0.675303
O O13 0.447950 0.500000 0.707344
O O14 0.446401 0.781676 0.784908
O O15 0.953497 0.500000 0.605121
O O16 0.000000 0.223171 0.606820
O O17 0.229469 0.500000 0.107678
O O18 0.213622 0.288244 0.000000
#
# Coordination Sequence:
#
# PCOD9523129 Si02
#       6
#    16  16  16  16  16  16
#     4   9  18  32  51  76 104 140 186 230 276 329
#     4   9  19  36  58  84 112 143 180 225 276 326
#     4  11  23  38  57  83 113 147 187 230 277 331
#     4   9  18  32  50  74 106 143 181 225 276 330
#     4   9  18  33  55  83 111 141 178 221 271 329
#     4  10  21  37  56  78 107 143 183 229 279 330
#
# _framework density 22.611090999999998
#
# number of rings (size 3 to 8) (size 9 to 14) (size 15 to 20)
#    0.000    2.500    0.000    1.500    2.333    3.000 
#    0.000    4.167    0.000    2.500    0.000    7.000 
#    0.000    0.000    0.000    0.000    0.000    0.000 
#
# Total GULP energy -267650.733639 kJ/mol
# GULP energy per Si atom -5576.056951 kJ/mol
# Density = 2.255963 g / cm^3
# Si number density = 22.611091 Si / 1000 Ang^3
#
#
#
# Elastic Constant Matrix: (Units=GPa)
#
#
# Indices 1 2 3 4 5 6 
#
# 1 124.7450 3.3751 39.1521 0.0000 0.0000 0.0000
# 2 3.3751 34.8923 1.2483 0.0000 0.0000 0.0000
# 3 39.1521 1.2483 53.6155 0.0000 0.0000 0.0000
# 4 0.0000 0.0000 0.0000 8.4986 0.0000 0.0000
# 5 0.0000 0.0000 0.0000 0.0000 45.8178 0.0000
# 6 0.0000 0.0000 0.0000 0.0000 0.0000 6.9236
#
#
#
# Elastic Compliance Matrix: (Units=1/GPa)
#
#
# Indices 1 2 3 4 5 6 
#
# 1 0.010419 -0.000736 -0.007591 0.000000 0.000000 0.000000
# 2 -0.000736 0.028736 -0.000131 0.000000 0.000000 0.000000
# 3 -0.007591 -0.000131 0.024198 0.000000 0.000000 0.000000
# 4 0.000000 0.000000 0.000000 0.117666 0.000000 0.000000
# 5 0.000000 0.000000 0.000000 0.000000 0.021826 0.000000
# 6 0.000000 0.000000 0.000000 0.000000 0.000000 0.144433
#
#
# Mechanical properties :
#
#
# Convention : Reuss Voigt Hill
#
# Bulk Modulus (GPa) = 21.53568 33.42266 27.47917
# Shear Modulus (GPa) = 13.16925 23.54649 18.35787
#
# Velocity S-wave (km/s) = 2.41596 3.23053 2.85247
# Velocity P-wave (km/s) = 4.16264 5.35991 4.79876
#
# Compressibility (1/GPa) = 0.04643456
#
# Stress axis : x y z
#
# Youngs Moduli (GPa) = 95.98050 34.80015 41.32631
#
# Poissons Ratio (x) = 0.02562 0.31371
# Poissons Ratio (y) = 0.07066 0.00543
# Poissons Ratio (z) = 0.72859 0.00457
#
# Static dielectric constant tensor:
#      x y z
#    x 1.861480 0.000000 0.000000 
#    y 0.000000 1.941020 0.000000 
#    z 0.000000 0.000000 1.859490 
# 
# From -- ./inp_files/14847.got.cif
#   From: 2010.05.17/outbox.cif.g08.bks.cpg/sg71_8_cif.got.tgz:14847.got - 2010.06.03 16:22:01.
