data_PCOD9523408
_publ_section_title
;
Structure prediction by ZEFSAII (Michael W. Deem and Ramdas Pophale) SiO2 
 PCOD9523408
Probable space group: I M M M
;
_chemical_formula_sum "Si O2"
_cell_formula_units_Z 90
_cell_length_a 19.434792
_cell_length_b 21.437484
_cell_length_c 11.337676
_cell_angle_alpha 90.000000
_cell_angle_beta 90.000000
_cell_angle_gamma 90.000000
_cell_volume 4723.650447
_symmetry_space_group_name_H-M "I M M M"
_symmetry_group_IT_number 71
_symmetry_cell_setting 'orthorhombic'
loop_
_space_group_symop_operation_xyz
x,y,z
-x,-y,z
x,-y,-z
-x,y,-z
-x,-y,-z
x,y,-z
-x,y,z
x,-y,z
1/2+x,1/2+y,1/2+z
1/2-x,1/2-y,1/2+z
1/2+x,1/2-y,1/2-z
1/2-x,1/2+y,1/2-z
1/2-x,1/2-y,1/2-z
1/2+x,1/2+y,1/2-z
1/2-x,1/2+y,1/2+z
1/2+x,1/2-y,1/2+z
loop_
_atom_site_type_symbol
_atom_site_label
_atom_site_fract_x
_atom_site_fract_y
_atom_site_fract_z
Si Si1 0.704845 0.742590 0.630499
Si Si2 0.500000 0.070671 0.640777
Si Si3 0.500000 0.247604 0.139886
Si Si4 0.364198 0.392361 0.636949
Si Si5 0.784579 0.432109 0.641590
Si Si6 0.000000 0.000000 0.500000
Si Si7 0.500000 0.394654 0.791856
Si Si8 0.886067 0.661630 0.237875
O O1 0.739725 0.740992 0.500000
O O2 0.750000 0.750000 0.750000
O O3 0.659475 0.680041 0.639622
O O4 0.653729 0.800851 0.637514
O O5 0.500000 0.069922 0.500000
O O6 0.434929 0.108770 0.686420
O O7 0.500000 0.000000 0.685219
O O8 0.500000 0.321297 0.169553
O O9 0.566510 0.211512 0.192792
O O10 0.500000 0.240139 0.000000
O O11 0.376983 0.409223 0.500000
O O12 0.294811 0.426296 0.680409
O O13 0.431219 0.403698 0.713979
O O14 0.783399 0.430094 0.500000
O O15 0.812129 0.500000 0.678832
O O16 0.829693 0.374522 0.684590
O O17 0.000000 0.944429 0.602939
#
# Coordination Sequence:
#
# PCOD9523408 Si02
#       8
#    16   8   8  16  16   2   8  16
#     4  11  22  38  62  97 132 166 213 274 333 392
#     4  10  22  39  59  83 124 170 214 257 314 386
#     4  11  23  38  61  92 127 166 215 266 334 390
#     4  10  22  41  67  94 124 164 218 271 328 387
#     4  10  21  38  61  91 127 164 211 267 321 386
#     4  12  32  48  70  84 148 172 214 264 344 420
#     4  12  24  47  63  95 126 172 212 268 330 397
#     4  11  21  38  61  92 124 169 211 274 319 392
#
# _framework density 19.053062000000001
#
# number of rings (size 3 to 8) (size 9 to 14) (size 15 to 20)
#    0.000    1.333    4.000    1.867    1.244    0.711 
#    1.600    0.444    0.000    4.267    0.000    0.000 
#    0.000    0.000    0.000    0.000    0.000    0.000 
#
# Total GULP energy -250825.361775 kJ/mol
# GULP energy per Si atom -5573.896928 kJ/mol
# Density = 1.900970 g / cm^3
# Si number density = 19.053062 Si / 1000 Ang^3
#
#
#
# Elastic Constant Matrix: (Units=GPa)
#
#
# Indices 1 2 3 4 5 6 
#
# 1 106.1781 41.1822 60.2322 0.0000 0.0000 0.0000
# 2 41.1822 138.4038 37.8358 0.0000 0.0000 0.0000
# 3 60.2322 37.8358 119.5258 0.0000 0.0000 0.0000
# 4 0.0000 0.0000 0.0000 31.7049 0.0000 0.0000
# 5 0.0000 0.0000 0.0000 0.0000 14.6693 0.0000
# 6 0.0000 0.0000 0.0000 0.0000 0.0000 19.9365
#
#
#
# Elastic Compliance Matrix: (Units=1/GPa)
#
#
# Indices 1 2 3 4 5 6 
#
# 1 0.013897 -0.002431 -0.006234 0.000000 0.000000 0.000000
# 2 -0.002431 0.008335 -0.001413 0.000000 0.000000 0.000000
# 3 -0.006234 -0.001413 0.011955 0.000000 0.000000 0.000000
# 4 0.000000 0.000000 0.000000 0.031541 0.000000 0.000000
# 5 0.000000 0.000000 0.000000 0.000000 0.068170 0.000000
# 6 0.000000 0.000000 0.000000 0.000000 0.000000 0.050159
#
#
# Mechanical properties :
#
#
# Convention : Reuss Voigt Hill
#
# Bulk Modulus (GPa) = 71.26968 71.40090 71.33529
# Shear Modulus (GPa) = 23.93601 28.25263 26.09432
#
# Velocity S-wave (km/s) = 3.54825 3.85494 3.70477
# Velocity P-wave (km/s) = 7.36708 7.57431 7.47142
#
# Compressibility (1/GPa) = 0.01403121
#
# Stress axis : x y z
#
# Youngs Moduli (GPa) = 71.95676 119.97646 83.64636
#
# Poissons Ratio (x) = 0.29167 0.52142
# Poissons Ratio (y) = 0.17493 0.11822
# Poissons Ratio (z) = 0.44855 0.16957
#
# Static dielectric constant tensor:
#      x y z
#    x 1.674620 0.000000 0.000000 
#    y 0.000000 1.683990 0.000000 
#    z 0.000000 0.000000 1.645850 
# 
# From -- ./inp_files/24034.got.cif
#   From: 2010.05.17/outbox.cif.g08.bks.cpg/sg71_13_cif.got.tgz:24034.got - 2010.06.03 16:22:01.
