data_PCOD9523376
_publ_section_title
;
Structure prediction by ZEFSAII (Michael W. Deem and Ramdas Pophale) SiO2 
 PCOD9523376
Probable space group: I M M M
;
_chemical_formula_sum "Si O2"
_cell_formula_units_Z 72
_cell_length_a 27.379672
_cell_length_b 8.668659
_cell_length_c 15.814119
_cell_angle_alpha 90.000000
_cell_angle_beta 90.000000
_cell_angle_gamma 90.000000
_cell_volume 3753.402708
_symmetry_space_group_name_H-M "I M M M"
_symmetry_group_IT_number 71
_symmetry_cell_setting 'orthorhombic'
loop_
_space_group_symop_operation_xyz
x,y,z
-x,-y,z
x,-y,-z
-x,y,-z
-x,-y,-z
x,y,-z
-x,y,z
x,-y,z
1/2+x,1/2+y,1/2+z
1/2-x,1/2-y,1/2+z
1/2+x,1/2-y,1/2-z
1/2-x,1/2+y,1/2-z
1/2-x,1/2-y,1/2-z
1/2+x,1/2+y,1/2-z
1/2-x,1/2+y,1/2+z
1/2+x,1/2-y,1/2+z
loop_
_atom_site_type_symbol
_atom_site_label
_atom_site_fract_x
_atom_site_fract_y
_atom_site_fract_z
Si Si1 0.056609 0.815083 0.328838
Si Si2 0.227519 0.685353 0.836330
Si Si3 0.886468 0.313585 0.832030
Si Si4 0.102976 0.685090 0.500000
Si Si5 0.443902 0.188085 0.500000
Si Si6 0.282689 0.814800 0.000000
O O1 0.088899 0.754693 0.251299
O O2 0.077136 0.749054 0.416402
O O3 0.000000 0.768242 0.317307
O O4 0.058697 0.000000 0.331646
O O5 0.230790 0.500000 0.836798
O O6 0.250000 0.750000 0.750000
O O7 0.170349 0.728559 0.840035
O O8 0.256232 0.750638 0.916799
O O9 0.889100 0.500000 0.826840
O O10 0.915823 0.263111 0.915470
O O11 0.100165 0.500000 0.500000
O O12 0.160180 0.729548 0.500000
O O13 0.500000 0.239414 0.500000
O O14 0.443836 0.000000 0.500000
O O15 0.279970 0.000000 0.000000
#
# Coordination Sequence:
#
# PCOD9523376 Si02
#       6
#    16  16  16   8   8   8
#     4  11  24  40  59  87 121 154 191 239 296 353
#     4  11  23  39  60  87 119 155 197 244 293 348
#     4  10  21  38  60  86 116 152 195 239 284 341
#     4  11  24  41  62  87 114 151 200 245 287 346
#     4   9  17  32  57  85 110 141 184 231 277 327
#     4  11  24  41  61  88 120 155 198 245 296 355
#
# _framework density 19.182593000000001
#
# number of rings (size 3 to 8) (size 9 to 14) (size 15 to 20)
#    0.000    1.444    0.000    5.000    0.000   14.667 
#    0.000    0.556    0.000    2.000    0.000    0.000 
#    0.000    0.000    0.000    0.000    0.000    0.000 
#
# Total GULP energy -201366.185905 kJ/mol
# GULP energy per Si atom -5593.505164 kJ/mol
# Density = 1.913893 g / cm^3
# Si number density = 19.182593 Si / 1000 Ang^3
#
#
#
# Elastic Constant Matrix: (Units=GPa)
#
#
# Indices 1 2 3 4 5 6 
#
# 1 74.7512 20.3610 -16.9391 0.0000 0.0000 0.0000
# 2 20.3610 25.2626 4.9410 0.0000 0.0000 0.0000
# 3 -16.9391 4.9410 73.9873 0.0000 0.0000 0.0000
# 4 0.0000 0.0000 0.0000 18.9529 0.0000 0.0000
# 5 0.0000 0.0000 0.0000 0.0000 46.6591 0.0000
# 6 0.0000 0.0000 0.0000 0.0000 0.0000 32.1128
#
#
#
# Elastic Compliance Matrix: (Units=1/GPa)
#
#
# Indices 1 2 3 4 5 6 
#
# 1 0.019104 -0.016467 0.005473 0.000000 0.000000 0.000000
# 2 -0.016467 0.054303 -0.007397 0.000000 0.000000 0.000000
# 3 0.005473 -0.007397 0.015263 0.000000 0.000000 0.000000
# 4 0.000000 0.000000 0.000000 0.052762 0.000000 0.000000
# 5 0.000000 0.000000 0.000000 0.000000 0.021432 0.000000
# 6 0.000000 0.000000 0.000000 0.000000 0.000000 0.031140
#
#
# Mechanical properties :
#
#
# Convention : Reuss Voigt Hill
#
# Bulk Modulus (GPa) = 19.27216 21.19186 20.23201
# Shear Modulus (GPa) = 20.15465 30.58750 25.37108
#
# Velocity S-wave (km/s) = 3.24493 3.99751 3.64072
# Velocity P-wave (km/s) = 4.90998 5.69018 5.31442
#
# Compressibility (1/GPa) = 0.05188831
#
# Stress axis : x y z
#
# Youngs Moduli (GPa) = 52.34642 18.41512 65.51832
#
# Poissons Ratio (x) = 0.30325 -0.35861
# Poissons Ratio (y) = 0.86201 0.48461
# Poissons Ratio (z) = -0.28651 0.13621
#
# Static dielectric constant tensor:
#      x y z
#    x 1.649920 0.000000 0.000000 
#    y 0.000000 1.650980 0.000000 
#    z 0.000000 0.000000 1.615060 
# 
# From -- ./inp_files/6191.got.cif
#   From: 2010.05.17/outbox.cif.g08.bks.cpg/sg71_4_cif.got.tgz:6191.got - 2010.06.03 16:22:01.
