data_PCOD9523354
_publ_section_title
;
Structure prediction by ZEFSAII (Michael W. Deem and Ramdas Pophale) SiO2 
 PCOD9523354
Probable space group: I M M M
;
_chemical_formula_sum "Si O2"
_cell_formula_units_Z 72
_cell_length_a 7.906352
_cell_length_b 19.638694
_cell_length_c 24.305183
_cell_angle_alpha 90.000000
_cell_angle_beta 90.000000
_cell_angle_gamma 90.000000
_cell_volume 3773.876157
_symmetry_space_group_name_H-M "I M M M"
_symmetry_group_IT_number 71
_symmetry_cell_setting 'orthorhombic'
loop_
_space_group_symop_operation_xyz
x,y,z
-x,-y,z
x,-y,-z
-x,y,-z
-x,-y,-z
x,y,-z
-x,y,z
x,-y,z
1/2+x,1/2+y,1/2+z
1/2-x,1/2-y,1/2+z
1/2+x,1/2-y,1/2-z
1/2-x,1/2+y,1/2-z
1/2-x,1/2-y,1/2-z
1/2+x,1/2+y,1/2-z
1/2-x,1/2+y,1/2+z
1/2+x,1/2-y,1/2+z
loop_
_atom_site_type_symbol
_atom_site_label
_atom_site_fract_x
_atom_site_fract_y
_atom_site_fract_z
Si Si1 0.795600 0.078719 0.000000
Si Si2 0.817763 0.421260 0.821023
Si Si3 0.000000 0.774481 0.438380
Si Si4 0.699579 0.324508 0.728251
Si Si5 0.702408 0.318038 0.400602
Si Si6 0.000000 0.921728 0.400922
O O1 0.752988 0.122690 0.054970
O O2 0.000000 0.074750 0.000000
O O3 0.732703 0.000000 0.000000
O O4 0.815624 0.500000 0.804727
O O5 0.794328 0.376723 0.767213
O O6 0.664586 0.412666 0.862808
O O7 0.000000 0.405331 0.847098
O O8 0.170366 0.744585 0.411240
O O9 0.000000 0.855970 0.439011
O O10 0.000000 0.747637 0.500000
O O11 0.500000 0.333127 0.737341
O O12 0.750000 0.250000 0.750000
O O13 0.730177 0.335879 0.663499
O O14 0.500000 0.302701 0.407339
O O15 0.000000 0.000000 0.422558
#
# Coordination Sequence:
#
# PCOD9523354 Si02
#       6
#     8  16   8  16  16   8
#     4   9  18  39  65  85 114 160 204 244 292 349
#     4  10  21  38  59  85 121 160 195 236 295 359
#     4  12  24  39  64  88 112 156 201 251 311 359
#     4  11  22  35  57  88 121 158 198 245 295 352
#     4  10  23  40  58  87 124 157 199 249 301 355
#     4  10  22  41  62  86 120 155 196 248 302 368
#
# _framework density 19.078529
#
# number of rings (size 3 to 8) (size 9 to 14) (size 15 to 20)
#    0.000    1.667    2.222    2.000    3.111    3.778 
#    0.000    3.333    0.000    0.000    0.000    4.667 
#    0.000    0.000    0.000    0.000    0.000    0.000 
#
# Total GULP energy -200784.654792 kJ/mol
# GULP energy per Si atom -5577.351522 kJ/mol
# Density = 1.903511 g / cm^3
# Si number density = 19.078529 Si / 1000 Ang^3
#
#
#
# Elastic Constant Matrix: (Units=GPa)
#
#
# Indices 1 2 3 4 5 6 
#
# 1 97.0939 43.7056 22.9414 0.0000 0.0000 0.0000
# 2 43.7056 98.4595 52.0799 0.0000 0.0000 0.0000
# 3 22.9414 52.0799 60.8944 0.0000 0.0000 0.0000
# 4 0.0000 0.0000 0.0000 30.3636 0.0000 0.0000
# 5 0.0000 0.0000 0.0000 0.0000 -8.2726 0.0000
# 6 0.0000 0.0000 0.0000 0.0000 0.0000 -69.5032
#
#
#
# Elastic Compliance Matrix: (Units=1/GPa)
#
#
# Indices 1 2 3 4 5 6 
#
# 1 0.012871 -0.005750 0.000068 0.000000 0.000000 0.000000
# 2 -0.005750 0.021115 -0.015892 0.000000 0.000000 0.000000
# 3 0.000068 -0.015892 0.029988 0.000000 0.000000 0.000000
# 4 0.000000 0.000000 0.000000 0.032934 0.000000 0.000000
# 5 0.000000 0.000000 0.000000 0.000000 -0.120881 0.000000
# 6 0.000000 0.000000 0.000000 0.000000 0.000000 -0.014388
#
#
# Mechanical properties :
#
#
# Convention : Reuss Voigt Hill
#
# Bulk Modulus (GPa) = 48.01516 54.87796 51.44656
# Shear Modulus (GPa) = 426.27824 -0.30103 212.98861
#
# Velocity S-wave (km/s) = 14.96391 -0.39765 10.57734
# Velocity P-wave (km/s) = 17.99388 5.34938 13.27395
#
# Compressibility (1/GPa) = 0.02082676
#
# Stress axis : x y z
#
# Youngs Moduli (GPa) = 77.69230 47.35989 33.34646
#
# Poissons Ratio (x) = 0.27230 -0.00227
# Poissons Ratio (y) = 0.44670 0.52996
# Poissons Ratio (z) = -0.00530 0.75266
#
# Static dielectric constant tensor:
#      x y z
#    x 1.824070 0.000000 0.000000 
#    y 0.000000 1.679670 0.000000 
#    z 0.000000 0.000000 1.984090 
# 
# From -- ./inp_files/42101.got.cif
#   From: 2010.05.17/outbox.cif.g08.bks.cpg/sg71_22_cif.got.tgz:42101.got - 2010.06.03 16:22:01.
