data_PCOD9523319
_publ_section_title
;
Structure prediction by ZEFSAII (Michael W. Deem and Ramdas Pophale) SiO2 
 PCOD9523319
Probable space group: I M M M
;
_chemical_formula_sum "Si O2"
_cell_formula_units_Z 108
_cell_length_a 14.062303
_cell_length_b 25.023126
_cell_length_c 17.462297
_cell_angle_alpha 90.000000
_cell_angle_beta 90.000000
_cell_angle_gamma 90.000000
_cell_volume 6144.681610
_symmetry_space_group_name_H-M "I M M M"
_symmetry_group_IT_number 71
_symmetry_cell_setting 'orthorhombic'
loop_
_space_group_symop_operation_xyz
x,y,z
-x,-y,z
x,-y,-z
-x,y,-z
-x,-y,-z
x,y,-z
-x,y,z
x,-y,z
1/2+x,1/2+y,1/2+z
1/2-x,1/2-y,1/2+z
1/2+x,1/2-y,1/2-z
1/2-x,1/2+y,1/2-z
1/2-x,1/2-y,1/2-z
1/2+x,1/2+y,1/2-z
1/2-x,1/2+y,1/2+z
1/2+x,1/2-y,1/2+z
loop_
_atom_site_type_symbol
_atom_site_label
_atom_site_fract_x
_atom_site_fract_y
_atom_site_fract_z
Si Si1 0.233564 0.399084 0.411412
Si Si2 0.126099 0.000000 0.500000
Si Si3 0.892071 0.500000 0.592821
Si Si4 0.889622 0.130322 0.789473
Si Si5 0.389915 0.795411 0.119797
Si Si6 0.257188 0.300339 0.916807
Si Si7 0.109990 0.257304 0.207627
Si Si8 0.389987 0.399142 0.116591
O O1 0.262356 0.407500 0.500000
O O2 0.167007 0.447835 0.385518
O O3 0.321613 0.391757 0.354925
O O4 0.169909 0.346052 0.406301
O O5 0.121635 0.952845 0.432679
O O6 0.897386 0.500000 0.500000
O O7 0.000000 0.500000 0.622128
O O8 0.868535 0.194094 0.778866
O O9 0.878945 0.099293 0.708936
O O10 0.000000 0.126694 0.811932
O O11 0.500000 0.800333 0.098676
O O12 0.341164 0.743007 0.086408
O O13 0.383492 0.787428 0.211498
O O14 0.182418 0.283497 0.851894
O O15 0.309988 0.356633 0.907304
O O16 0.209774 0.297990 0.000000
O O17 0.000000 0.260420 0.181454
O O18 0.500000 0.380276 0.103701
#
# Coordination Sequence:
#
# PCOD9523319 Si02
#       8
#    16   4   8  16  16  16  16  16
#     4  11  22  37  58  86 116 153 197 243 295 352
#     4  12  25  42  62  90 125 160 201 250 310 376
#     4   9  20  39  58  76 108 148 184 228 286 349
#     4  10  21  38  59  83 119 163 202 244 297 356
#     4  11  21  34  55  84 117 151 192 241 299 359
#     4  12  22  33  55  87 117 151 194 248 303 364
#     4  10  21  38  57  80 118 164 200 238 295 367
#     4  11  22  38  59  85 120 159 199 247 306 369
#
# _framework density 17.576174000000002
#
# number of rings (size 3 to 8) (size 9 to 14) (size 15 to 20)
#    0.000    1.259    3.704    3.333    0.000    3.556 
#    0.000    2.593    0.000    1.333    0.000    1.037 
#    0.000    0.000    0.000    0.000    0.000    0.000 
#
# Total GULP energy -300937.932494 kJ/mol
# GULP energy per Si atom -5572.924676 kJ/mol
# Density = 1.753617 g / cm^3
# Si number density = 17.576174 Si / 1000 Ang^3
#
#
#
# Elastic Constant Matrix: (Units=GPa)
#
#
# Indices 1 2 3 4 5 6 
#
# 1 92.9120 45.2433 61.8094 -0.0001 0.0000 0.0001
# 2 45.2433 105.4828 41.1383 0.0001 0.0000 -0.0001
# 3 61.8094 41.1383 113.2796 0.0001 0.0000 0.0001
# 4 -0.0001 0.0001 0.0001 33.2430 0.0000 -0.0001
# 5 0.0000 0.0000 0.0000 0.0000 6.0229 0.0000
# 6 0.0001 -0.0001 0.0001 -0.0001 0.0000 -51.2381
#
#
#
# Elastic Compliance Matrix: (Units=1/GPa)
#
#
# Indices 1 2 3 4 5 6 
#
# 1 0.018710 -0.004711 -0.008498 0.000000 0.000000 0.000000
# 2 -0.004711 0.012231 -0.001871 0.000000 0.000000 0.000000
# 3 -0.008498 -0.001871 0.014144 0.000000 0.000000 0.000000
# 4 0.000000 0.000000 0.000000 0.030081 0.000000 0.000000
# 5 0.000000 0.000000 0.000000 0.000000 0.166033 0.000000
# 6 0.000000 0.000000 0.000000 0.000000 0.000000 -0.019517
#
#
# Mechanical properties :
#
#
# Convention : Reuss Voigt Hill
#
# Bulk Modulus (GPa) = 67.00407 67.56183 67.28295
# Shear Modulus (GPa) = 19.46904 8.50447 13.98675
#
# Velocity S-wave (km/s) = 3.33182 2.20208 2.82402
# Velocity P-wave (km/s) = 7.28053 6.70734 6.99981
#
# Compressibility (1/GPa) = 0.01492447
#
# Stress axis : x y z
#
# Youngs Moduli (GPa) = 53.44690 81.76256 70.70052
#
# Poissons Ratio (x) = 0.38517 0.60083
# Poissons Ratio (y) = 0.25178 0.13230
# Poissons Ratio (z) = 0.45420 0.15300
#
# Static dielectric constant tensor:
#      x y z
#    x 1.588810 0.000000 0.000000 
#    y 0.000000 1.589950 0.000000 
#    z 0.000000 0.000000 1.621280 
# 
# From -- ./inp_files/34942.got.cif
#   From: 2010.05.17/outbox.cif.g08.bks.cpg/sg71_18_cif.got.tgz:34942.got - 2010.06.03 16:22:01.
