data_PCOD9523076
_publ_section_title
;
Structure prediction by ZEFSAII (Michael W. Deem and Ramdas Pophale) SiO2 
 PCOD9523076
Probable space group: I M M M
;
_chemical_formula_sum "Si O2"
_cell_formula_units_Z 88
_cell_length_a 8.792743
_cell_length_b 19.197445
_cell_length_c 28.810364
_cell_angle_alpha 90.000000
_cell_angle_beta 90.000000
_cell_angle_gamma 90.000000
_cell_volume 4863.137589
_symmetry_space_group_name_H-M "I M M M"
_symmetry_group_IT_number 71
_symmetry_cell_setting 'orthorhombic'
loop_
_space_group_symop_operation_xyz
x,y,z
-x,-y,z
x,-y,-z
-x,y,-z
-x,-y,-z
x,y,-z
-x,y,z
x,-y,z
1/2+x,1/2+y,1/2+z
1/2-x,1/2-y,1/2+z
1/2+x,1/2-y,1/2-z
1/2-x,1/2+y,1/2-z
1/2-x,1/2-y,1/2-z
1/2+x,1/2+y,1/2-z
1/2-x,1/2+y,1/2+z
1/2+x,1/2-y,1/2+z
loop_
_atom_site_type_symbol
_atom_site_label
_atom_site_fract_x
_atom_site_fract_y
_atom_site_fract_z
Si Si1 0.316969 0.889094 0.000000
Si Si2 0.816801 0.149149 0.780317
Si Si3 0.182599 0.355901 0.088659
Si Si4 0.683604 0.000000 0.076941
Si Si5 0.182402 0.000000 0.445370
Si Si6 0.682778 0.236052 0.500000
Si Si7 0.681849 0.712544 0.180295
Si Si8 0.183598 0.000000 0.820159
O O1 0.272164 0.933370 0.954438
O O2 0.249812 0.812808 0.000000
O O3 0.500000 0.885977 0.000000
O O4 0.741502 0.209009 0.811700
O O5 0.779809 0.169503 0.727210
O O6 0.000000 0.153876 0.785276
O O7 0.768534 0.071438 0.794635
O O8 0.251992 0.431419 0.078776
O O9 0.229081 0.306526 0.045693
O O10 0.242459 0.322890 0.136074
O O11 0.000000 0.360457 0.089360
O O12 0.500000 0.000000 0.081081
O O13 0.756057 0.000000 0.127388
O O14 0.226408 0.000000 0.500000
O O15 0.000000 0.000000 0.442710
O O16 0.500000 0.240491 0.500000
O O17 0.500000 0.713173 0.175220
O O18 0.000000 0.000000 0.820894
#
# Coordination Sequence:
#
# PCOD9523076 Si02
#       8
#     8  16  16   8   8   8  16   8
#     4   9  20  38  57  77 115 154 190 235 286 337
#     4   9  20  39  59  83 118 153 191 240 295 347
#     4  11  23  40  61  86 119 155 191 234 290 350
#     4   9  20  38  55  81 115 153 188 234 291 337
#     4  11  23  40  61  86 115 148 192 241 286 342
#     4  10  23  38  56  84 116 152 193 234 280 343
#     4  10  21  38  61  87 115 153 196 241 289 341
#     4  10  21  36  58  84 111 149 189 233 285 342
#
# _framework density 18.095313000000001
#
# number of rings (size 3 to 8) (size 9 to 14) (size 15 to 20)
#    0.000    2.091    0.909    1.909    2.545    4.727 
#    0.000    2.727    0.000    0.000    0.000    0.000 
#    0.000    0.000    0.000    0.000    0.000    0.000 
#
# Total GULP energy -245726.683005 kJ/mol
# GULP energy per Si atom -5584.697341 kJ/mol
# Density = 1.805413 g / cm^3
# Si number density = 18.095313 Si / 1000 Ang^3
#
#
#
# Elastic Constant Matrix: (Units=GPa)
#
#
# Indices 1 2 3 4 5 6 
#
# 1 32.3465 51.9560 46.9485 0.0000 0.0000 0.0000
# 2 51.9560 211.7055 105.9978 0.0000 0.0000 0.0000
# 3 46.9485 105.9978 136.4415 0.0000 0.0000 0.0000
# 4 0.0000 0.0000 0.0000 45.0540 0.0000 0.0000
# 5 0.0000 0.0000 0.0000 0.0000 33.1052 0.0000
# 6 0.0000 0.0000 0.0000 0.0000 0.0000 38.7043
#
#
#
# Elastic Compliance Matrix: (Units=1/GPa)
#
#
# Indices 1 2 3 4 5 6 
#
# 1 0.069741 -0.008347 -0.017513 0.000000 0.000000 0.000000
# 2 -0.008347 0.008730 -0.003909 0.000000 0.000000 0.000000
# 3 -0.017513 -0.003909 0.016392 0.000000 0.000000 0.000000
# 4 0.000000 0.000000 0.000000 0.022196 0.000000 0.000000
# 5 0.000000 0.000000 0.000000 0.000000 0.030207 0.000000
# 6 0.000000 0.000000 0.000000 0.000000 0.000000 0.025837
#
#
# Mechanical properties :
#
#
# Convention : Reuss Voigt Hill
#
# Bulk Modulus (GPa) = 28.30919 87.81092 58.06006
# Shear Modulus (GPa) = 20.45691 35.07876 27.76784
#
# Velocity S-wave (km/s) = 3.36595 4.40768 3.92156
# Velocity P-wave (km/s) = 5.54839 8.63341 7.25673
#
# Compressibility (1/GPa) = 0.03532422
#
# Stress axis : x y z
#
# Youngs Moduli (GPa) = 14.33870 114.55349 61.00423
#
# Poissons Ratio (x) = 0.95622 1.06835
# Poissons Ratio (y) = 0.11969 0.23850
# Poissons Ratio (z) = 0.25111 0.44785
#
# Static dielectric constant tensor:
#      x y z
#    x 1.608310 0.000000 0.000000 
#    y 0.000000 1.596600 0.000000 
#    z 0.000000 0.000000 1.597420 
# 
# From -- ./inp_files/68098.got.cif
#   From: 2010.05.17/outbox.cif.g08.bks.cpg/sg71_35_cif.got.tgz:68098.got - 2010.06.03 16:22:01.
