data_PCOD9523083
_publ_section_title
;
Structure prediction by ZEFSAII (Michael W. Deem and Ramdas Pophale) SiO2 
 PCOD9523083
Probable space group: I M M M
;
_chemical_formula_sum "Si O2"
_cell_formula_units_Z 100
_cell_length_a 19.926218
_cell_length_b 28.754653
_cell_length_c 7.605669
_cell_angle_alpha 90.000000
_cell_angle_beta 90.000000
_cell_angle_gamma 90.000000
_cell_volume 4357.831455
_symmetry_space_group_name_H-M "I M M M"
_symmetry_group_IT_number 71
_symmetry_cell_setting 'orthorhombic'
loop_
_space_group_symop_operation_xyz
x,y,z
-x,-y,z
x,-y,-z
-x,y,-z
-x,-y,-z
x,y,-z
-x,y,z
x,-y,z
1/2+x,1/2+y,1/2+z
1/2-x,1/2-y,1/2+z
1/2+x,1/2-y,1/2-z
1/2-x,1/2+y,1/2-z
1/2-x,1/2-y,1/2-z
1/2+x,1/2+y,1/2-z
1/2-x,1/2+y,1/2+z
1/2+x,1/2-y,1/2+z
loop_
_atom_site_type_symbol
_atom_site_label
_atom_site_fract_x
_atom_site_fract_y
_atom_site_fract_z
Si Si1 0.826815 0.760795 0.208549
Si Si2 0.728115 0.500000 0.500000
Si Si3 0.578590 0.447435 0.714366
Si Si4 0.925970 0.679141 0.702130
Si Si5 0.324693 0.364528 0.713187
Si Si6 0.778217 0.567371 0.207119
Si Si7 0.073669 0.424872 0.200192
O O1 0.750000 0.750000 0.250000
O O2 0.872514 0.719275 0.276768
O O3 0.842325 0.812809 0.275390
O O4 0.836131 0.761385 0.000000
O O5 0.733142 0.539531 0.344336
O O6 0.584350 0.449115 0.500000
O O7 0.500000 0.440120 0.755151
O O8 0.596269 0.500000 0.775089
O O9 0.623369 0.404283 0.776179
O O10 0.925114 0.663527 0.500000
O O11 0.918382 0.631050 0.804952
O O12 0.000000 0.698234 0.744462
O O13 0.325414 0.363625 0.500000
O O14 0.250481 0.380396 0.774323
O O15 0.854662 0.558904 0.271906
O O16 0.773872 0.555033 0.000000
O O17 0.000000 0.435260 0.280289
O O18 0.071394 0.442040 0.000000
#
# Coordination Sequence:
#
# PCOD9523083 Si02
#       7
#    16   4  16  16  16  16  16
#     4  11  23  37  56  84 120 161 204 254 312 371
#     4  12  26  44  65  88 129 162 200 268 304 368
#     4   8  15  29  53  84 114 148 191 238 295 361
#     4  10  21  36  58  87 120 161 208 256 306 365
#     4  10  21  36  59  87 119 160 202 254 309 365
#     4  11  24  41  64  93 122 161 207 253 315 373
#     4   9  19  38  63  89 120 158 203 254 304 366
#
# _framework density 22.947194
#
# number of rings (size 3 to 8) (size 9 to 14) (size 15 to 20)
#    0.000    2.080    0.800    2.640    2.240    5.440 
#    0.000    2.400    0.000    2.400    0.000    1.120 
#    0.000    0.000    0.000    0.000    0.000    0.000 
#
# Total GULP energy -278734.628538 kJ/mol
# GULP energy per Si atom -5574.692571 kJ/mol
# Density = 2.289496 g / cm^3
# Si number density = 22.947194 Si / 1000 Ang^3
#
#
#
# Elastic Constant Matrix: (Units=GPa)
#
#
# Indices 1 2 3 4 5 6 
#
# 1 111.3141 27.3025 -0.0423 0.0000 0.0000 0.0000
# 2 27.3025 101.0173 11.9978 0.0000 0.0000 0.0000
# 3 -0.0423 11.9978 85.9436 0.0000 0.0000 0.0000
# 4 0.0000 0.0000 0.0000 -63.4469 0.0000 0.0000
# 5 0.0000 0.0000 0.0000 0.0000 16.9572 0.0000
# 6 0.0000 0.0000 0.0000 0.0000 0.0000 -14.6213
#
#
#
# Elastic Compliance Matrix: (Units=1/GPa)
#
#
# Indices 1 2 3 4 5 6 
#
# 1 0.009633 -0.002648 0.000374 0.000000 0.000000 0.000000
# 2 -0.002648 0.010794 -0.001508 0.000000 0.000000 0.000000
# 3 0.000374 -0.001508 0.011846 0.000000 0.000000 0.000000
# 4 0.000000 0.000000 0.000000 -0.015761 0.000000 0.000000
# 5 0.000000 0.000000 0.000000 0.000000 0.058972 0.000000
# 6 0.000000 0.000000 0.000000 0.000000 0.000000 -0.068394
#
#
# Mechanical properties :
#
#
# Convention : Reuss Voigt Hill
#
# Bulk Modulus (GPa) = 40.46954 41.86565 41.16759
# Shear Modulus (GPa) = 218.42341 5.04560 111.73450
#
# Velocity S-wave (km/s) = 9.76688 1.48444 6.98554
# Velocity P-wave (km/s) = 12.03592 4.60674 9.11278
#
# Compressibility (1/GPa) = 0.02470994
#
# Stress axis : x y z
#
# Youngs Moduli (GPa) = 103.80722 92.64288 84.41481
#
# Poissons Ratio (x) = 0.24533 -0.03161
# Poissons Ratio (y) = 0.27489 0.12731
# Poissons Ratio (z) = -0.03887 0.13972
#
# Static dielectric constant tensor:
#      x y z
#    x 1.918410 0.000000 0.000000 
#    y 0.000000 1.884880 0.000000 
#    z 0.000000 0.000000 1.874200 
# 
# From -- ./inp_files/11140.got.cif
#   From: 2010.05.17/outbox.cif.g08.bks.cpg/sg71_6_cif.got.tgz:11140.got - 2010.06.03 16:22:01.
