data_PCOD9523323
_publ_section_title
;
Structure prediction by ZEFSAII (Michael W. Deem and Ramdas Pophale) SiO2 
 PCOD9523323
Probable space group: I M M M
;
_chemical_formula_sum "Si O2"
_cell_formula_units_Z 116
_cell_length_a 29.456124
_cell_length_b 24.906045
_cell_length_c 7.982782
_cell_angle_alpha 90.000000
_cell_angle_beta 90.000000
_cell_angle_gamma 90.000000
_cell_volume 5856.452662
_symmetry_space_group_name_H-M "I M M M"
_symmetry_group_IT_number 71
_symmetry_cell_setting 'orthorhombic'
loop_
_space_group_symop_operation_xyz
x,y,z
-x,-y,z
x,-y,-z
-x,y,-z
-x,-y,-z
x,y,-z
-x,y,z
x,-y,z
1/2+x,1/2+y,1/2+z
1/2-x,1/2-y,1/2+z
1/2+x,1/2-y,1/2-z
1/2-x,1/2+y,1/2-z
1/2-x,1/2-y,1/2-z
1/2+x,1/2+y,1/2-z
1/2-x,1/2+y,1/2+z
1/2+x,1/2-y,1/2+z
loop_
_atom_site_type_symbol
_atom_site_label
_atom_site_fract_x
_atom_site_fract_y
_atom_site_fract_z
Si Si1 0.785242 0.096490 0.296303
Si Si2 0.295936 0.719997 0.199432
Si Si3 0.856029 0.314509 0.810491
Si Si4 0.051515 0.276201 0.303795
Si Si5 0.161463 0.500000 0.000000
Si Si6 0.815608 0.577887 0.310700
Si Si7 0.551706 0.655922 0.301977
Si Si8 0.883909 0.058654 0.702202
O O1 0.779900 0.093766 0.500000
O O2 0.793198 0.158431 0.245751
O O3 0.738781 0.075791 0.217239
O O4 0.831176 0.065769 0.250241
O O5 0.250000 0.750000 0.250000
O O6 0.336361 0.755798 0.269991
O O7 0.300199 0.719414 0.000000
O O8 0.909842 0.310440 0.785506
O O9 0.832331 0.360394 0.702020
O O10 0.843666 0.326955 0.000000
O O11 0.052842 0.289462 0.500000
O O12 0.061734 0.212695 0.284881
O O13 0.000000 0.284198 0.240807
O O14 0.163682 0.546099 0.847825
O O15 0.826412 0.559501 0.500000
O O16 0.552729 0.666419 0.500000
O O17 0.500000 0.640301 0.254626
O O18 0.586241 0.608411 0.262261
O O19 0.885241 0.059825 0.500000
O O20 0.900448 0.000000 0.759241
#
# Coordination Sequence:
#
# PCOD9523323 Si02
#       8
#    16  16  16  16   4  16  16  16
#     4  10  21  38  57  83 121 159 206 263 318 372
#     4  11  21  33  54  85 123 163 204 251 311 378
#     4  12  23  39  61  92 132 167 206 257 308 374
#     4  10  21  38  63  94 126 159 199 248 306 377
#     4  12  26  48  64  90 129 162 219 268 306 360
#     4  12  25  42  67  92 122 169 213 260 317 369
#     4  10  21  38  58  82 115 154 198 252 314 377
#     4  10  22  37  57  80 109 153 205 264 317 365
#
# _framework density 19.807210999999999
#
# number of rings (size 3 to 8) (size 9 to 14) (size 15 to 20)
#    0.000    1.241    2.759    3.517    0.966    4.414 
#    0.000    1.379    0.000    0.000    0.000    0.966 
#    0.000    2.207    0.000    0.000    0.000    0.000 
#
# Total GULP energy -323581.791842 kJ/mol
# GULP energy per Si atom -5578.996411 kJ/mol
# Density = 1.976213 g / cm^3
# Si number density = 19.807211 Si / 1000 Ang^3
#
#
#
# Elastic Constant Matrix: (Units=GPa)
#
#
# Indices 1 2 3 4 5 6 
#
# 1 67.3435 -6.2155 -0.6352 0.0000 0.0000 0.0000
# 2 -6.2155 31.1035 8.8583 0.0000 0.0000 0.0000
# 3 -0.6352 8.8583 83.5473 0.0000 0.0000 0.0000
# 4 0.0000 0.0000 0.0000 21.0224 0.0000 0.0000
# 5 0.0000 0.0000 0.0000 0.0000 24.5908 0.0000
# 6 0.0000 0.0000 0.0000 0.0000 0.0000 23.2641
#
#
#
# Elastic Compliance Matrix: (Units=1/GPa)
#
#
# Indices 1 2 3 4 5 6 
#
# 1 0.015132 0.003084 -0.000212 0.000000 0.000000 0.000000
# 2 0.003084 0.033780 -0.003558 0.000000 0.000000 0.000000
# 3 -0.000212 -0.003558 0.012345 0.000000 0.000000 0.000000
# 4 0.000000 0.000000 0.000000 0.047568 0.000000 0.000000
# 5 0.000000 0.000000 0.000000 0.000000 0.040666 0.000000
# 6 0.000000 0.000000 0.000000 0.000000 0.000000 0.042985
#
#
# Mechanical properties :
#
#
# Convention : Reuss Voigt Hill
#
# Bulk Modulus (GPa) = 16.69856 20.66772 18.68314
# Shear Modulus (GPa) = 23.38531 25.77458 24.57995
#
# Velocity S-wave (km/s) = 3.43978 3.61123 3.52655
# Velocity P-wave (km/s) = 4.92189 5.27684 5.10245
#
# Compressibility (1/GPa) = 0.05988540
#
# Stress axis : x y z
#
# Youngs Moduli (GPa) = 66.08554 29.60293 81.00500
#
# Poissons Ratio (x) = -0.09130 0.01717
# Poissons Ratio (y) = -0.20382 0.28823
# Poissons Ratio (z) = 0.01401 0.10533
#
# Static dielectric constant tensor:
#      x y z
#    x 1.697640 0.000000 0.000000 
#    y 0.000000 1.709770 0.000000 
#    z 0.000000 0.000000 1.713210 
# 
# From -- ./inp_files/15428.got.cif
#   From: 2010.05.17/outbox.cif.g08.bks.cpg/sg71_8_cif.got.tgz:15428.got - 2010.06.03 16:22:01.
