data_PCOD9523612
_publ_section_title
;
Structure prediction by ZEFSAII (Michael W. Deem and Ramdas Pophale) SiO2 
 PCOD9523612
Probable space group: I M M M
;
_chemical_formula_sum "Si O2"
_cell_formula_units_Z 112
_cell_length_a 14.022918
_cell_length_b 14.865072
_cell_length_c 26.508304
_cell_angle_alpha 90.000000
_cell_angle_beta 90.000000
_cell_angle_gamma 90.000000
_cell_volume 5525.700654
_symmetry_space_group_name_H-M "I M M M"
_symmetry_group_IT_number 71
_symmetry_cell_setting 'orthorhombic'
loop_
_space_group_symop_operation_xyz
x,y,z
-x,-y,z
x,-y,-z
-x,y,-z
-x,-y,-z
x,y,-z
-x,y,z
x,-y,z
1/2+x,1/2+y,1/2+z
1/2-x,1/2-y,1/2+z
1/2+x,1/2-y,1/2-z
1/2-x,1/2+y,1/2-z
1/2-x,1/2-y,1/2-z
1/2+x,1/2+y,1/2-z
1/2-x,1/2+y,1/2+z
1/2+x,1/2-y,1/2+z
loop_
_atom_site_type_symbol
_atom_site_label
_atom_site_fract_x
_atom_site_fract_y
_atom_site_fract_z
Si Si1 0.385404 0.896461 0.233835
Si Si2 0.189632 0.663914 0.370420
Si Si3 0.115052 0.500000 0.560629
Si Si4 0.889078 0.609838 0.157247
Si Si5 0.110386 0.110275 0.889160
Si Si6 0.609896 0.685174 0.943040
Si Si7 0.885470 0.101981 0.000000
Si Si8 0.697726 0.896715 0.554167
O O1 0.500000 0.899681 0.238401
O O2 0.360026 0.844190 0.183602
O O3 0.349844 0.860784 0.288173
O O4 0.352055 0.000000 0.226918
O O5 0.158370 0.583834 0.408719
O O6 0.302214 0.651357 0.358824
O O7 0.150756 0.749186 0.400671
O O8 0.133453 0.500000 0.500000
O O9 0.000000 0.500000 0.566551
O O10 0.882403 0.500000 0.158652
O O11 0.841179 0.643277 0.105980
O O12 0.000000 0.633281 0.153685
O O13 0.136639 0.142477 0.946145
O O14 0.000000 0.133984 0.877629
O O15 0.114039 0.000000 0.888392
O O16 0.500000 0.660700 0.933939
O O17 0.687763 0.606603 0.944078
O O18 0.613295 0.726784 0.000000
O O19 0.000000 0.094527 0.000000
O O20 0.847048 0.000000 0.000000
O O21 0.668645 0.854903 0.500000
O O22 0.664909 0.000000 0.553222
#
# Coordination Sequence:
#
# PCOD9523612 Si02
#       8
#    16  16   8  16  16  16   8  16
#     4   9  16  28  47  74 107 143 182 213 244 296
#     4  12  20  30  49  70 101 147 186 219 260 301
#     4  11  22  30  41  67  99 135 185 233 260 289
#     4   8  15  29  53  84 112 134 161 207 259 311
#     4   9  17  28  42  62  88 126 182 232 261 292
#     4  10  22  37  51  73 107 139 170 220 278 319
#     4   7  12  22  36  52  74 106 155 218 261 285
#     4   9  18  35  59  82 101 128 167 210 266 340
#
# _framework density 20.268923000000001
#
# number of rings (size 3 to 8) (size 9 to 14) (size 15 to 20)
#    0.000    2.571    1.429    3.429    2.000    1.714 
#    0.000    4.286    0.000    1.714    0.000    2.000 
#    0.000    0.000    0.000    0.000    0.000    0.000 
#
# Total GULP energy -311924.084580 kJ/mol
# GULP energy per Si atom -5570.072939 kJ/mol
# Density = 2.022279 g / cm^3
# Si number density = 20.268923 Si / 1000 Ang^3
#
#
#
# Elastic Constant Matrix: (Units=GPa)
#
#
# Indices 1 2 3 4 5 6 
#
# 1 86.3275 -9.5654 44.8661 0.0000 0.0000 0.0000
# 2 -9.5654 24.8625 26.0002 0.0000 0.0000 0.0000
# 3 44.8661 26.0002 159.1712 0.0000 0.0000 0.0000
# 4 0.0000 0.0000 0.0000 5.0017 0.0000 0.0000
# 5 0.0000 0.0000 0.0000 0.0000 20.5964 0.0000
# 6 0.0000 0.0000 0.0000 0.0000 0.0000 11.1403
#
#
#
# Elastic Compliance Matrix: (Units=1/GPa)
#
#
# Indices 1 2 3 4 5 6 
#
# 1 0.016712 0.013696 -0.006948 0.000000 0.000000 0.000000
# 2 0.013696 0.059731 -0.013617 0.000000 0.000000 0.000000
# 3 -0.006948 -0.013617 0.010465 0.000000 0.000000 0.000000
# 4 0.000000 0.000000 0.000000 0.199932 0.000000 0.000000
# 5 0.000000 0.000000 0.000000 0.000000 0.048552 0.000000
# 6 0.000000 0.000000 0.000000 0.000000 0.000000 0.089764
#
#
# Mechanical properties :
#
#
# Convention : Reuss Voigt Hill
#
# Bulk Modulus (GPa) = 13.66696 43.66256 28.66476
# Shear Modulus (GPa) = 10.79246 21.28502 16.03874
#
# Velocity S-wave (km/s) = 2.31002 3.24409 2.81605
# Velocity P-wave (km/s) = 3.72456 5.96829 4.97458
#
# Compressibility (1/GPa) = 0.07316917
#
# Stress axis : x y z
#
# Youngs Moduli (GPa) = 59.83636 16.74178 95.55378
#
# Poissons Ratio (x) = -0.22929 0.66390
# Poissons Ratio (y) = -0.81949 1.30118
# Poissons Ratio (z) = 0.41574 0.22798
#
# Static dielectric constant tensor:
#      x y z
#    x 1.722850 0.000000 0.000000 
#    y 0.000000 1.767610 0.000000 
#    z 0.000000 0.000000 1.749800 
# 
# From -- ./inp_files/65564.got.cif
#   From: 2010.05.17/outbox.cif.g08.bks.cpg/sg71_33_cif.got.tgz:65564.got - 2010.06.03 16:22:01.
