data_PCOD9523696
_publ_section_title
;
Structure prediction by ZEFSAII (Michael W. Deem and Ramdas Pophale) SiO2 
 PCOD9523696
Probable space group: I M M M
;
_chemical_formula_sum "Si O2"
_cell_formula_units_Z 104
_cell_length_a 21.604158
_cell_length_b 24.976033
_cell_length_c 9.818815
_cell_angle_alpha 90.000000
_cell_angle_beta 90.000000
_cell_angle_gamma 90.000000
_cell_volume 5298.096712
_symmetry_space_group_name_H-M "I M M M"
_symmetry_group_IT_number 71
_symmetry_cell_setting 'orthorhombic'
loop_
_space_group_symop_operation_xyz
x,y,z
-x,-y,z
x,-y,-z
-x,y,-z
-x,-y,-z
x,y,-z
-x,y,z
x,-y,z
1/2+x,1/2+y,1/2+z
1/2-x,1/2-y,1/2+z
1/2+x,1/2-y,1/2-z
1/2-x,1/2+y,1/2-z
1/2-x,1/2-y,1/2-z
1/2+x,1/2+y,1/2-z
1/2-x,1/2+y,1/2+z
1/2+x,1/2-y,1/2+z
loop_
_atom_site_type_symbol
_atom_site_label
_atom_site_fract_x
_atom_site_fract_y
_atom_site_fract_z
Si Si1 0.272607 0.885734 0.347660
Si Si2 0.601376 0.062913 0.352772
Si Si3 0.072577 0.776904 0.340221
Si Si4 0.071834 0.093708 0.653166
Si Si5 0.678341 0.439068 0.340370
Si Si6 0.688326 0.765158 0.662092
Si Si7 0.000000 0.565752 0.348957
O O1 0.245056 0.889121 0.500000
O O2 0.326337 0.929289 0.332957
O O3 0.222049 0.896605 0.234647
O O4 0.307460 0.829487 0.337687
O O5 0.584751 0.086692 0.500000
O O6 0.559932 0.084588 0.232441
O O7 0.587675 0.000000 0.358949
O O8 0.083910 0.761935 0.500000
O O9 0.076692 0.841725 0.334463
O O10 0.126102 0.754344 0.240242
O O11 0.000000 0.762936 0.308145
O O12 0.092352 0.078915 0.500000
O O13 0.112886 0.066446 0.766822
O O14 0.000000 0.079671 0.666120
O O15 0.674421 0.428611 0.500000
O O16 0.701656 0.500000 0.320641
O O17 0.690542 0.748452 0.500000
O O18 0.750000 0.750000 0.750000
O O19 0.000000 0.500000 0.355267
O O20 0.000000 0.586387 0.500000
#
# Coordination Sequence:
#
# PCOD9523696 Si02
#       7
#    16  16  16  16  16  16   8
#     4  10  22  39  57  79 106 143 189 232 274 325
#     4   9  17  32  54  75  97 132 177 219 260 308
#     4   9  19  38  62  87 117 152 191 238 291 346
#     4   9  19  37  61  86 111 146 192 233 271 328
#     4  11  24  38  54  82 118 151 184 230 287 341
#     4  11  23  38  58  85 115 148 190 239 289 343
#     4   9  17  29  47  73 103 133 165 205 255 309
#
# _framework density 19.62969
#
# number of rings (size 3 to 8) (size 9 to 14) (size 15 to 20)
#    0.000    2.231    0.000    3.462    0.000    9.846 
#    1.385    4.615    0.000    0.000    0.000    0.000 
#    0.000    0.000    0.000    0.000    0.000    0.000 
#
# Total GULP energy -289950.398602 kJ/mol
# GULP energy per Si atom -5575.969204 kJ/mol
# Density = 1.958501 g / cm^3
# Si number density = 19.629690 Si / 1000 Ang^3
#
#
#
# Elastic Constant Matrix: (Units=GPa)
#
#
# Indices 1 2 3 4 5 6 
#
# 1 90.1838 12.6654 78.6711 0.0000 0.0000 0.0000
# 2 12.6654 21.9272 30.3038 0.0000 0.0000 0.0000
# 3 78.6711 30.3038 152.2636 0.0000 0.0000 0.0000
# 4 0.0000 0.0000 0.0000 24.5915 0.0000 0.0000
# 5 0.0000 0.0000 0.0000 0.0000 -39.3620 0.0000
# 6 0.0000 0.0000 0.0000 0.0000 0.0000 21.2984
#
#
#
# Elastic Compliance Matrix: (Units=1/GPa)
#
#
# Indices 1 2 3 4 5 6 
#
# 1 0.020419 0.003843 -0.011315 0.000000 0.000000 0.000000
# 2 0.003843 0.063632 -0.014650 0.000000 0.000000 0.000000
# 3 -0.011315 -0.014650 0.015329 0.000000 0.000000 0.000000
# 4 0.000000 0.000000 0.000000 0.040664 0.000000 0.000000
# 5 0.000000 0.000000 0.000000 0.000000 -0.025405 0.000000
# 6 0.000000 0.000000 0.000000 0.000000 0.000000 0.046952
#
#
# Mechanical properties :
#
#
# Convention : Reuss Voigt Hill
#
# Bulk Modulus (GPa) = 18.13652 56.40612 37.27132
# Shear Modulus (GPa) = 22.30008 10.82122 16.56065
#
# Velocity S-wave (km/s) = 3.37417 2.35046 2.90772
# Velocity P-wave (km/s) = 4.94363 6.01363 5.50469
#
# Compressibility (1/GPa) = 0.05513737
#
# Stress axis : x y z
#
# Youngs Moduli (GPa) = 48.97315 15.71536 65.23385
#
# Poissons Ratio (x) = -0.06040 0.73813
# Poissons Ratio (y) = -0.18822 0.95567
# Poissons Ratio (z) = 0.55414 0.23023
#
# Static dielectric constant tensor:
#      x y z
#    x 1.702060 0.000000 0.000000 
#    y 0.000000 1.724680 0.000000 
#    z 0.000000 0.000000 1.691100 
# 
# From -- ./inp_files/11152.got.cif
#   From: 2010.05.17/outbox.cif.g08.bks.cpg/sg71_6_cif.got.tgz:11152.got - 2010.06.03 16:22:01.
