data_PCOD9523911
_publ_section_title
;
Structure prediction by ZEFSAII (Michael W. Deem and Ramdas Pophale) SiO2 
 PCOD9523911
Probable space group: I M M M
;
_chemical_formula_sum "Si O2"
_cell_formula_units_Z 72
_cell_length_a 22.950593
_cell_length_b 8.808553
_cell_length_c 19.269261
_cell_angle_alpha 90.000000
_cell_angle_beta 90.000000
_cell_angle_gamma 90.000000
_cell_volume 3895.502993
_symmetry_space_group_name_H-M "I M M M"
_symmetry_group_IT_number 71
_symmetry_cell_setting 'orthorhombic'
loop_
_space_group_symop_operation_xyz
x,y,z
-x,-y,z
x,-y,-z
-x,y,-z
-x,-y,-z
x,y,-z
-x,y,z
x,-y,z
1/2+x,1/2+y,1/2+z
1/2-x,1/2-y,1/2+z
1/2+x,1/2-y,1/2-z
1/2-x,1/2+y,1/2-z
1/2-x,1/2-y,1/2-z
1/2+x,1/2+y,1/2-z
1/2-x,1/2+y,1/2+z
1/2+x,1/2-y,1/2+z
loop_
_atom_site_type_symbol
_atom_site_label
_atom_site_fract_x
_atom_site_fract_y
_atom_site_fract_z
Si Si1 0.768173 0.681791 0.324427
Si Si2 0.000000 0.680542 0.417561
Si Si3 0.842744 0.182116 0.919245
Si Si4 0.068766 0.679149 0.813429
Si Si5 0.393411 0.319134 0.832361
O O1 0.773102 0.500000 0.318098
O O2 0.750000 0.750000 0.250000
O O3 0.717299 0.717034 0.379254
O O4 0.829879 0.750466 0.346853
O O5 0.057015 0.752225 0.382304
O O6 0.000000 0.500000 0.404073
O O7 0.000000 0.705738 0.500000
O O8 0.894410 0.265395 0.878914
O O9 0.851580 0.000000 0.914189
O O10 0.839908 0.223157 0.000000
O O11 0.078441 0.500000 0.801270
O O12 0.090033 0.769624 0.745822
O O13 0.000000 0.703993 0.823089
O O14 0.392035 0.500000 0.837339
#
# Coordination Sequence:
#
# PCOD9523911 Si02
#       5
#    16   8  16  16  16
#     4  11  22  38  63  93 126 164 211 260 311 372
#     4  11  25  45  67  93 128 167 208 261 321 375
#     4  10  23  42  63  90 125 164 207 258 317 375
#     4  11  23  39  63  92 124 163 210 258 309 372
#     4  12  24  39  64  95 127 165 210 259 312 373
#
# _framework density 18.482849999999999
#
# number of rings (size 3 to 8) (size 9 to 14) (size 15 to 20)
#    0.000    1.000    3.333    3.667    0.000    4.889 
#    0.000    4.444    0.000    0.000    0.000    0.000 
#    0.000    0.000    0.000    0.000    0.000    0.000 
#
# Total GULP energy -201377.265744 kJ/mol
# GULP energy per Si atom -5593.812937 kJ/mol
# Density = 1.844078 g / cm^3
# Si number density = 18.482850 Si / 1000 Ang^3
#
#
#
# Elastic Constant Matrix: (Units=GPa)
#
#
# Indices 1 2 3 4 5 6 
#
# 1 87.1056 49.2214 16.2686 0.0000 0.0000 0.0000
# 2 49.2214 88.1129 47.7483 0.0000 0.0000 0.0000
# 3 16.2686 47.7483 84.6999 0.0000 0.0000 0.0000
# 4 0.0000 0.0000 0.0000 31.2170 0.0000 0.0000
# 5 0.0000 0.0000 0.0000 0.0000 32.7389 0.0000
# 6 0.0000 0.0000 0.0000 0.0000 0.0000 37.6183
#
#
#
# Elastic Compliance Matrix: (Units=1/GPa)
#
#
# Indices 1 2 3 4 5 6 
#
# 1 0.017310 -0.011329 0.003062 0.000000 0.000000 0.000000
# 2 -0.011329 0.023755 -0.011216 0.000000 0.000000 0.000000
# 3 0.003062 -0.011216 0.017541 0.000000 0.000000 0.000000
# 4 0.000000 0.000000 0.000000 0.032034 0.000000 0.000000
# 5 0.000000 0.000000 0.000000 0.000000 0.030545 0.000000
# 6 0.000000 0.000000 0.000000 0.000000 0.000000 0.026583
#
#
# Mechanical properties :
#
#
# Convention : Reuss Voigt Hill
#
# Bulk Modulus (GPa) = 50.91483 54.04389 52.47936
# Shear Modulus (GPa) = 25.86910 30.09352 27.98131
#
# Velocity S-wave (km/s) = 3.74522 4.03946 3.89512
# Velocity P-wave (km/s) = 6.80508 7.14561 6.97742
#
# Compressibility (1/GPa) = 0.01964064
#
# Stress axis : x y z
#
# Youngs Moduli (GPa) = 57.76947 42.09572 57.00918
#
# Poissons Ratio (x) = 0.47690 -0.17454
# Poissons Ratio (y) = 0.65446 0.63940
# Poissons Ratio (z) = -0.17687 0.47214
#
# Static dielectric constant tensor:
#      x y z
#    x 1.616210 0.000000 0.000000 
#    y 0.000000 1.621470 0.000000 
#    z 0.000000 0.000000 1.604140 
# 
# From -- ./inp_files/47921.got.cif
#   From: 2010.05.17/outbox.cif.g08.bks.cpg/sg71_24_cif.got.tgz:47921.got - 2010.06.03 16:22:01.
