data_PCOD9523657
_publ_section_title
;
Structure prediction by ZEFSAII (Michael W. Deem and Ramdas Pophale) SiO2 
 PCOD9523657
Probable space group: I M M M
;
_chemical_formula_sum "Si O2"
_cell_formula_units_Z 90
_cell_length_a 23.652257
_cell_length_b 8.235220
_cell_length_c 22.561206
_cell_angle_alpha 90.000000
_cell_angle_beta 90.000000
_cell_angle_gamma 90.000000
_cell_volume 4394.506446
_symmetry_space_group_name_H-M "I M M M"
_symmetry_group_IT_number 71
_symmetry_cell_setting 'orthorhombic'
loop_
_space_group_symop_operation_xyz
x,y,z
-x,-y,z
x,-y,-z
-x,y,-z
-x,-y,-z
x,y,-z
-x,y,z
x,-y,z
1/2+x,1/2+y,1/2+z
1/2-x,1/2-y,1/2+z
1/2+x,1/2-y,1/2-z
1/2-x,1/2+y,1/2-z
1/2-x,1/2-y,1/2-z
1/2+x,1/2+y,1/2-z
1/2-x,1/2+y,1/2+z
1/2+x,1/2-y,1/2+z
loop_
_atom_site_type_symbol
_atom_site_label
_atom_site_fract_x
_atom_site_fract_y
_atom_site_fract_z
Si Si1 0.877697 0.306644 0.164827
Si Si2 0.216488 0.691569 0.500000
Si Si3 0.663598 0.694888 0.206892
Si Si4 0.581931 0.811025 0.000000
Si Si5 0.500000 0.180719 0.374769
Si Si6 0.940185 0.806568 0.629247
Si Si7 0.000000 0.500000 0.000000
Si Si8 0.239274 0.192426 0.875607
O O1 0.877071 0.500000 0.154007
O O2 0.857728 0.270696 0.231791
O O3 0.940420 0.244567 0.147021
O O4 0.826978 0.227864 0.127837
O O5 0.232741 0.500000 0.500000
O O6 0.149421 0.701077 0.500000
O O7 0.238398 0.761777 0.561921
O O8 0.662054 0.500000 0.213794
O O9 0.616833 0.754441 0.159350
O O10 0.724605 0.738167 0.179527
O O11 0.561422 0.730167 0.940026
O O12 0.566227 0.000000 0.000000
O O13 0.500000 0.000000 0.345716
O O14 0.500000 0.139720 0.445522
O O15 0.000000 0.742251 0.653992
O O16 0.939898 0.000000 0.637825
O O17 0.249121 0.000000 0.873862
#
# Coordination Sequence:
#
# PCOD9523657 Si02
#       8
#    16   8  16   8   8  16   2  16
#     4  11  23  41  62  94 123 158 203 247 309 376
#     4   9  20  37  59  84 117 152 200 254 310 357
#     4  11  23  39  61  88 124 168 210 254 305 369
#     4  11  20  36  58  83 116 155 207 256 305 355
#     4   8  20  40  67  93 127 158 194 248 313 368
#     4  10  22  38  56  82 117 161 205 253 305 352
#     4   8  16  44  72  96 130 160 196 258 328 376
#     4  11  22  41  63  89 123 166 204 258 314 369
#
# _framework density 20.480114
#
# number of rings (size 3 to 8) (size 9 to 14) (size 15 to 20)
#    0.267    1.422    1.778    2.667    1.244    2.844 
#    0.000    2.667    0.000    0.000    0.000    4.356 
#    0.000    0.000    0.000    0.000    0.000    0.000 
#
# Total GULP energy -250728.051075 kJ/mol
# GULP energy per Si atom -5571.734468 kJ/mol
# Density = 2.043350 g / cm^3
# Si number density = 20.480114 Si / 1000 Ang^3
#
#
#
# Elastic Constant Matrix: (Units=GPa)
#
#
# Indices 1 2 3 4 5 6 
#
# 1 135.7595 -4.2856 41.9683 0.0000 0.0000 0.0000
# 2 -4.2856 19.6382 -3.5859 0.0000 0.0000 0.0000
# 3 41.9683 -3.5859 92.8463 0.0000 0.0000 0.0000
# 4 0.0000 0.0000 0.0000 10.8691 0.0000 0.0000
# 5 0.0000 0.0000 0.0000 0.0000 50.4347 0.0000
# 6 0.0000 0.0000 0.0000 0.0000 0.0000 14.7960
#
#
#
# Elastic Compliance Matrix: (Units=1/GPa)
#
#
# Indices 1 2 3 4 5 6 
#
# 1 0.008589 0.001174 -0.003837 0.000000 0.000000 0.000000
# 2 0.001174 0.051443 0.001456 0.000000 0.000000 0.000000
# 3 -0.003837 0.001456 0.012561 0.000000 0.000000 0.000000
# 4 0.000000 0.000000 0.000000 0.092004 0.000000 0.000000
# 5 0.000000 0.000000 0.000000 0.000000 0.019828 0.000000
# 6 0.000000 0.000000 0.000000 0.000000 0.000000 0.067586
#
#
# Mechanical properties :
#
#
# Convention : Reuss Voigt Hill
#
# Bulk Modulus (GPa) = 14.24920 35.15974 24.70447
# Shear Modulus (GPa) = 17.99733 29.49642 23.74688
#
# Velocity S-wave (km/s) = 2.96762 3.79918 3.40885
# Velocity P-wave (km/s) = 4.32609 6.03738 5.25191
#
# Compressibility (1/GPa) = 0.07017936
#
# Stress axis : x y z
#
# Youngs Moduli (GPa) = 116.42491 19.43892 79.61015
#
# Poissons Ratio (x) = -0.02282 0.30548
# Poissons Ratio (y) = -0.13665 -0.11594
# Poissons Ratio (z) = 0.44674 -0.02831
#
# Static dielectric constant tensor:
#      x y z
#    x 1.800360 0.000000 0.000000 
#    y 0.000000 1.714830 0.000000 
#    z 0.000000 0.000000 1.739550 
# 
# From -- ./inp_files/61211.got.cif
#   From: 2010.05.17/outbox.cif.g08.bks.cpg/sg71_31_cif.got.tgz:61211.got - 2010.06.03 16:22:01.
