data_PCOD9523751
_publ_section_title
;
Structure prediction by ZEFSAII (Michael W. Deem and Ramdas Pophale) SiO2 
 PCOD9523751
Probable space group: I M M M
;
_chemical_formula_sum "Si O2"
_cell_formula_units_Z 88
_cell_length_a 22.491260
_cell_length_b 17.437373
_cell_length_c 11.874293
_cell_angle_alpha 90.000000
_cell_angle_beta 90.000000
_cell_angle_gamma 90.000000
_cell_volume 4656.961040
_symmetry_space_group_name_H-M "I M M M"
_symmetry_group_IT_number 71
_symmetry_cell_setting 'orthorhombic'
loop_
_space_group_symop_operation_xyz
x,y,z
-x,-y,z
x,-y,-z
-x,y,-z
-x,-y,-z
x,y,-z
-x,y,z
x,-y,z
1/2+x,1/2+y,1/2+z
1/2-x,1/2-y,1/2+z
1/2+x,1/2-y,1/2-z
1/2-x,1/2+y,1/2-z
1/2-x,1/2-y,1/2-z
1/2+x,1/2+y,1/2-z
1/2-x,1/2+y,1/2+z
1/2+x,1/2-y,1/2+z
loop_
_atom_site_type_symbol
_atom_site_label
_atom_site_fract_x
_atom_site_fract_y
_atom_site_fract_z
Si Si1 0.705731 0.084938 0.367959
Si Si2 0.244337 0.792660 0.125619
Si Si3 0.433497 0.000000 0.865563
Si Si4 0.131653 0.656565 0.695508
Si Si5 0.929847 0.815431 0.365026
Si Si6 0.669891 0.589455 0.258137
O O1 0.704456 0.083660 0.500000
O O2 0.658970 0.145656 0.320083
O O3 0.773370 0.095601 0.326534
O O4 0.688500 0.000000 0.324564
O O5 0.250000 0.750000 0.250000
O O6 0.307956 0.835330 0.123617
O O7 0.191376 0.853667 0.142895
O O8 0.238813 0.754791 0.000000
O O9 0.402383 0.920853 0.832548
O O10 0.500000 0.000000 0.817810
O O11 0.436249 0.000000 0.000000
O O12 0.092641 0.731674 0.674893
O O13 0.920839 0.820395 0.500000
O O14 0.888140 0.876936 0.302543
O O15 0.000000 0.825130 0.342477
O O16 0.663439 0.500000 0.288788
#
# Coordination Sequence:
#
# PCOD9523751 Si02
#       6
#    16  16   8  16  16  16
#     4   9  18  34  58  87 120 155 192 243 305 371
#     4  11  23  39  65  97 131 165 203 255 319 381
#     4  11  22  36  57  83 117 161 199 238 296 362
#     4  11  21  37  57  88 122 156 201 251 303 368
#     4  11  23  39  59  85 120 162 211 267 321 375
#     4  10  22  40  60  90 124 158 203 256 316 376
#
# _framework density 18.896443999999999
#
# number of rings (size 3 to 8) (size 9 to 14) (size 15 to 20)
#    0.000    1.545    2.727    2.727    1.273    6.182 
#    0.000    0.909    0.000    4.364    0.000    1.273 
#    0.000    0.000    0.000    0.000    0.000    0.000 
#
# Total GULP energy -245143.254628 kJ/mol
# GULP energy per Si atom -5571.437605 kJ/mol
# Density = 1.885343 g / cm^3
# Si number density = 18.896444 Si / 1000 Ang^3
#
#
#
# Elastic Constant Matrix: (Units=GPa)
#
#
# Indices 1 2 3 4 5 6 
#
# 1 106.1114 47.1886 29.1199 0.0000 0.0000 0.0000
# 2 47.1886 123.8009 22.7906 0.0000 0.0000 0.0000
# 3 29.1199 22.7906 91.6433 0.0000 0.0000 0.0000
# 4 0.0000 0.0000 0.0000 20.2023 0.0000 0.0000
# 5 0.0000 0.0000 0.0000 0.0000 7.1817 0.0000
# 6 0.0000 0.0000 0.0000 0.0000 0.0000 5.2305
#
#
#
# Elastic Compliance Matrix: (Units=1/GPa)
#
#
# Indices 1 2 3 4 5 6 
#
# 1 0.011998 -0.004057 -0.002803 0.000000 0.000000 0.000000
# 2 -0.004057 0.009837 -0.001157 0.000000 0.000000 0.000000
# 3 -0.002803 -0.001157 0.012090 0.000000 0.000000 0.000000
# 4 0.000000 0.000000 0.000000 0.049499 0.000000 0.000000
# 5 0.000000 0.000000 0.000000 0.000000 0.139243 0.000000
# 6 0.000000 0.000000 0.000000 0.000000 0.000000 0.191188
#
#
# Mechanical properties :
#
#
# Convention : Reuss Voigt Hill
#
# Bulk Modulus (GPa) = 55.89766 57.75043 56.82405
# Shear Modulus (GPa) = 11.47175 21.35333 16.41254
#
# Velocity S-wave (km/s) = 2.46658 3.36522 2.95032
# Velocity P-wave (km/s) = 6.14470 6.76221 6.46084
#
# Compressibility (1/GPa) = 0.01788984
#
# Stress axis : x y z
#
# Youngs Moduli (GPa) = 83.35045 101.65810 82.71014
#
# Poissons Ratio (x) = 0.41243 0.23186
# Poissons Ratio (y) = 0.33815 0.09571
# Poissons Ratio (z) = 0.23366 0.11764
#
# Static dielectric constant tensor:
#      x y z
#    x 1.644500 0.000000 0.000000 
#    y 0.000000 1.767610 0.000000 
#    z 0.000000 0.000000 1.684770 
# 
# From -- ./inp_files/25649.got.cif
#   From: 2010.05.17/outbox.cif.g08.bks.cpg/sg71_13_cif.got.tgz:25649.got - 2010.06.03 16:22:01.
