data_PCOD9523440
_publ_section_title
;
Structure prediction by ZEFSAII (Michael W. Deem and Ramdas Pophale) SiO2 
 PCOD9523440
Probable space group: I M M M
;
_chemical_formula_sum "Si O2"
_cell_formula_units_Z 66
_cell_length_a 23.925812
_cell_length_b 13.978304
_cell_length_c 9.439625
_cell_angle_alpha 90.000000
_cell_angle_beta 90.000000
_cell_angle_gamma 90.000000
_cell_volume 3157.009647
_symmetry_space_group_name_H-M "I M M M"
_symmetry_group_IT_number 71
_symmetry_cell_setting 'orthorhombic'
loop_
_space_group_symop_operation_xyz
x,y,z
-x,-y,z
x,-y,-z
-x,y,-z
-x,-y,-z
x,y,-z
-x,y,z
x,-y,z
1/2+x,1/2+y,1/2+z
1/2-x,1/2-y,1/2+z
1/2+x,1/2-y,1/2-z
1/2-x,1/2+y,1/2-z
1/2-x,1/2-y,1/2-z
1/2+x,1/2+y,1/2-z
1/2-x,1/2+y,1/2+z
1/2+x,1/2-y,1/2+z
loop_
_atom_site_type_symbol
_atom_site_label
_atom_site_fract_x
_atom_site_fract_y
_atom_site_fract_z
Si Si1 0.808233 0.759538 0.668323
Si Si2 0.114284 0.887661 0.160162
Si Si3 0.876159 0.390382 0.158388
Si Si4 0.500000 0.500000 0.000000
Si Si5 0.500000 0.892731 0.233044
Si Si6 0.000000 0.179128 0.276752
O O1 0.801627 0.760315 0.500000
O O2 0.750000 0.750000 0.750000
O O3 0.841096 0.852275 0.725530
O O4 0.847307 0.673019 0.722468
O O5 0.056331 0.832687 0.185889
O O6 0.103724 0.000000 0.175587
O O7 0.134563 0.870469 0.000000
O O8 0.857028 0.500000 0.170586
O O9 0.942869 0.391066 0.178084
O O10 0.861984 0.355724 0.000000
O O11 0.500000 0.587033 0.879721
O O12 0.500000 0.787298 0.159639
O O13 0.500000 0.000000 0.162371
#
# Coordination Sequence:
#
# PCOD9523440 Si02
#       6
#    16  16  16   2   8   8
#     4  12  27  45  68  94 129 176 229 288 352 416
#     4  11  24  43  69 102 137 179 230 285 350 423
#     4  10  21  40  68 100 137 177 224 275 333 408
#     4  12  28  40  64 108 156 184 246 274 360 406
#     4  10  21  38  66 107 142 184 227 272 341 414
#     4  12  23  39  69 102 151 186 225 290 341 424
#
# _framework density 20.905857999999998
#
# number of rings (size 3 to 8) (size 9 to 14) (size 15 to 20)
#    0.000    0.970    3.636    2.909    1.697    5.333 
#    0.000    0.303    0.000    0.000    0.000    0.000 
#    0.000    0.000    0.000    0.000    0.000    0.000 
#
# Total GULP energy -183994.259746 kJ/mol
# GULP energy per Si atom -5575.583629 kJ/mol
# Density = 2.085828 g / cm^3
# Si number density = 20.905858 Si / 1000 Ang^3
#
#
#
# Elastic Constant Matrix: (Units=GPa)
#
#
# Indices 1 2 3 4 5 6 
#
# 1 111.3932 12.3012 51.5393 0.0000 0.0000 0.0000
# 2 12.3012 177.9227 42.2774 0.0000 0.0000 0.0000
# 3 51.5393 42.2774 175.8956 0.0000 0.0000 0.0000
# 4 0.0000 0.0000 0.0000 25.8792 0.0000 0.0000
# 5 0.0000 0.0000 0.0000 0.0000 -414.5383 0.0000
# 6 0.0000 0.0000 0.0000 0.0000 0.0000 2.6208
#
#
#
# Elastic Compliance Matrix: (Units=1/GPa)
#
#
# Indices 1 2 3 4 5 6 
#
# 1 0.010385 0.000005 -0.003044 0.000000 0.000000 0.000000
# 2 0.000005 0.005961 -0.001434 0.000000 0.000000 0.000000
# 3 -0.003044 -0.001434 0.006922 0.000000 0.000000 0.000000
# 4 0.000000 0.000000 0.000000 0.038641 0.000000 0.000000
# 5 0.000000 0.000000 0.000000 0.000000 -0.002412 0.000000
# 6 0.000000 0.000000 0.000000 0.000000 0.000000 0.381563
#
#
# Mechanical properties :
#
#
# Convention : Reuss Voigt Hill
#
# Bulk Modulus (GPa) = 69.82481 75.27193 72.54837
# Shear Modulus (GPa) = 10.99434 -53.26809 -21.13688
#
# Velocity S-wave (km/s) = 2.29573 -5.05325 -3.18315
# Velocity P-wave (km/s) = 6.36391 1.42698 4.61170
#
# Compressibility (1/GPa) = 0.01432156
#
# Stress axis : x y z
#
# Youngs Moduli (GPa) = 96.29156 167.76099 144.46847
#
# Poissons Ratio (x) = -0.00090 0.43980
# Poissons Ratio (y) = -0.00052 0.20721
# Poissons Ratio (z) = 0.29313 0.24062
#
# Static dielectric constant tensor:
#      x y z
#    x 1.725130 0.000000 0.000000 
#    y 0.000000 1.787870 0.000000 
#    z 0.000000 0.000000 1.723240 
# 
# From -- ./inp_files/12027.got.cif
#   From: 2010.05.17/outbox.cif.g08.bks.cpg/sg71_7_cif.got.tgz:12027.got - 2010.06.03 16:22:01.
