data_PCOD9523087
_publ_section_title
;
Structure prediction by ZEFSAII (Michael W. Deem and Ramdas Pophale) SiO2 
 PCOD9523087
Probable space group: I M M M
;
_chemical_formula_sum "Si O2"
_cell_formula_units_Z 58
_cell_length_a 8.033074
_cell_length_b 24.042476
_cell_length_c 15.161103
_cell_angle_alpha 90.000000
_cell_angle_beta 90.000000
_cell_angle_gamma 90.000000
_cell_volume 2928.139459
_symmetry_space_group_name_H-M "I M M M"
_symmetry_group_IT_number 71
_symmetry_cell_setting 'orthorhombic'
loop_
_space_group_symop_operation_xyz
x,y,z
-x,-y,z
x,-y,-z
-x,y,-z
-x,-y,-z
x,y,-z
-x,y,z
x,-y,z
1/2+x,1/2+y,1/2+z
1/2-x,1/2-y,1/2+z
1/2+x,1/2-y,1/2-z
1/2-x,1/2+y,1/2-z
1/2-x,1/2-y,1/2-z
1/2+x,1/2+y,1/2-z
1/2-x,1/2+y,1/2+z
1/2+x,1/2-y,1/2+z
loop_
_atom_site_type_symbol
_atom_site_label
_atom_site_fract_x
_atom_site_fract_y
_atom_site_fract_z
Si Si1 0.302767 0.801412 0.102414
Si Si2 0.800655 0.323642 0.899116
Si Si3 0.500000 0.500000 0.500000
Si Si4 0.186768 0.500000 0.640454
Si Si5 0.190797 0.894050 0.764013
O O1 0.500000 0.811824 0.109062
O O2 0.268498 0.737265 0.125662
O O3 0.211046 0.843811 0.166058
O O4 0.251711 0.809231 0.000000
O O5 0.743627 0.369357 0.829855
O O6 0.000000 0.319951 0.897099
O O7 0.747541 0.335018 0.000000
O O8 0.347948 0.500000 0.575809
O O9 0.202902 0.445152 0.700337
O O10 0.000000 0.500000 0.600099
O O11 0.000000 0.911729 0.760376
#
# Coordination Sequence:
#
# PCOD9523087 Si02
#       5
#    16  16   2   8  16
#     4  10  21  36  58  90 124 164 209 257 322 385
#     4  10  21  39  62  90 122 163 210 265 325 382
#     4  12  26  52  68 102 130 168 222 256 324 368
#     4  12  27  47  70  97 132 171 215 264 314 380
#     4  12  24  41  62  90 127 166 214 264 317 383
#
# _framework density 19.8078
#
# number of rings (size 3 to 8) (size 9 to 14) (size 15 to 20)
#    0.000    1.103    1.379    5.172    1.931    3.310 
#    0.000    0.690    0.000    4.138    0.000    0.000 
#    0.000    0.000    0.000    0.000    0.000    0.000 
#
# Total GULP energy -161885.374829 kJ/mol
# GULP energy per Si atom -5582.254304 kJ/mol
# Density = 1.976272 g / cm^3
# Si number density = 19.807800 Si / 1000 Ang^3
#
#
#
# Elastic Constant Matrix: (Units=GPa)
#
#
# Indices 1 2 3 4 5 6 
#
# 1 101.4635 17.3007 22.0181 0.0000 0.0000 0.0000
# 2 17.3007 90.4126 66.8333 0.0000 0.0000 0.0000
# 3 22.0181 66.8333 89.9802 -0.0001 0.0000 0.0000
# 4 0.0000 0.0000 -0.0001 -24.5417 0.0000 0.0000
# 5 0.0000 0.0000 0.0000 0.0000 10.8409 0.0000
# 6 0.0000 0.0000 0.0000 0.0000 0.0000 15.0671
#
#
#
# Elastic Compliance Matrix: (Units=1/GPa)
#
#
# Indices 1 2 3 4 5 6 
#
# 1 0.010411 -0.000242 -0.002368 0.000000 0.000000 0.000000
# 2 -0.000242 0.024532 -0.018162 0.000000 0.000000 0.000000
# 3 -0.002368 -0.018162 0.025183 0.000000 0.000000 0.000000
# 4 0.000000 0.000000 0.000000 -0.040747 0.000000 0.000000
# 5 0.000000 0.000000 0.000000 0.000000 0.092244 0.000000
# 6 0.000000 0.000000 0.000000 0.000000 0.000000 0.066370
#
#
# Mechanical properties :
#
#
# Convention : Reuss Voigt Hill
#
# Bulk Modulus (GPa) = 53.81490 54.90673 54.36082
# Shear Modulus (GPa) = 22.15025 11.98687 17.06856
#
# Velocity S-wave (km/s) = 3.34767 2.46267 2.93867
# Velocity P-wave (km/s) = 6.49384 5.98884 6.24645
#
# Compressibility (1/GPa) = 0.01858221
#
# Stress axis : x y z
#
# Youngs Moduli (GPa) = 96.05368 40.76243 39.70892
#
# Poissons Ratio (x) = 0.00985 0.09403
# Poissons Ratio (y) = 0.02322 0.72121
# Poissons Ratio (z) = 0.22746 0.74034
#
# Static dielectric constant tensor:
#      x y z
#    x 1.700150 0.000000 0.000000 
#    y 0.000000 1.664990 0.000000 
#    z 0.000000 0.000000 1.699690 
# 
# From -- ./inp_files/31132.got.cif
#   From: 2010.05.17/outbox.cif.g08.bks.cpg/sg71_16_cif.got.tgz:31132.got - 2010.06.03 16:22:01.
