data_PCOD9523199
_publ_section_title
;
Structure prediction by ZEFSAII (Michael W. Deem and Ramdas Pophale) SiO2 
 PCOD9523199
Probable space group: I M M M
;
_chemical_formula_sum "Si O2"
_cell_formula_units_Z 90
_cell_length_a 20.934130
_cell_length_b 7.782111
_cell_length_c 25.498130
_cell_angle_alpha 90.000000
_cell_angle_beta 90.000000
_cell_angle_gamma 90.000000
_cell_volume 4153.944300
_symmetry_space_group_name_H-M "I M M M"
_symmetry_group_IT_number 71
_symmetry_cell_setting 'orthorhombic'
loop_
_space_group_symop_operation_xyz
x,y,z
-x,-y,z
x,-y,-z
-x,y,-z
-x,-y,-z
x,y,-z
-x,y,z
x,-y,z
1/2+x,1/2+y,1/2+z
1/2-x,1/2-y,1/2+z
1/2+x,1/2-y,1/2-z
1/2-x,1/2+y,1/2-z
1/2-x,1/2-y,1/2-z
1/2+x,1/2+y,1/2-z
1/2-x,1/2+y,1/2+z
1/2+x,1/2-y,1/2+z
loop_
_atom_site_type_symbol
_atom_site_label
_atom_site_fract_x
_atom_site_fract_y
_atom_site_fract_z
Si Si1 0.267144 0.792078 0.941231
Si Si2 0.633762 0.204313 0.147548
Si Si3 0.500000 0.500000 0.000000
Si Si4 0.118766 0.703093 0.941491
Si Si5 0.000000 0.298227 0.589364
Si Si6 0.069519 0.797562 0.168772
Si Si7 0.822229 0.193038 0.758863
O O1 0.314932 0.734481 0.895837
O O2 0.194670 0.731936 0.933471
O O3 0.267007 0.000000 0.940661
O O4 0.287889 0.737413 0.000000
O O5 0.563549 0.224078 0.123988
O O6 0.643939 0.295718 0.202614
O O7 0.644900 0.000000 0.156277
O O8 0.500000 0.653434 0.045207
O O9 0.106150 0.500000 0.940881
O O10 0.081986 0.783752 0.893075
O O11 0.103312 0.769452 0.000000
O O12 0.000000 0.500000 0.570524
O O13 0.129951 0.719006 0.199673
O O14 0.000000 0.722317 0.181976
O O15 0.066756 0.000000 0.182440
O O16 0.750000 0.250000 0.750000
O O17 0.814597 0.000000 0.778542
#
# Coordination Sequence:
#
# PCOD9523199 Si02
#       7
#    16  16   2  16   8  16  16
#     4   9  18  34  58  85 115 159 204 246 302 367
#     4  10  22  40  62  89 125 165 212 268 331 387
#     4  12  26  44  68  98 132 188 242 264 356 410
#     4  10  21  37  57  88 124 154 189 244 308 368
#     4  10  25  45  65  96 137 179 227 288 338 414
#     4  10  23  42  62  86 115 157 205 251 302 364
#     4  11  24  41  65  92 125 163 210 268 322 390
#
# _framework density 21.666153999999999
#
# number of rings (size 3 to 8) (size 9 to 14) (size 15 to 20)
#    0.000    1.956    0.000    2.267    3.733    8.178 
#    0.000    1.778    0.000    0.000    0.000    0.000 
#    0.000    0.000    0.000    0.000    0.000    0.000 
#
# Total GULP energy -251062.053333 kJ/mol
# GULP energy per Si atom -5579.156741 kJ/mol
# Density = 2.161684 g / cm^3
# Si number density = 21.666154 Si / 1000 Ang^3
#
#
#
# Elastic Constant Matrix: (Units=GPa)
#
#
# Indices 1 2 3 4 5 6 
#
# 1 122.0590 20.7556 55.0469 0.0000 0.0000 0.0000
# 2 20.7556 43.6471 3.3129 0.0000 0.0000 0.0000
# 3 55.0469 3.3129 88.7394 0.0000 0.0000 0.0000
# 4 0.0000 0.0000 0.0000 24.6243 0.0000 0.0000
# 5 0.0000 0.0000 0.0000 0.0000 343.9125 0.0000
# 6 0.0000 0.0000 0.0000 0.0000 0.0000 2.5202
#
#
#
# Elastic Compliance Matrix: (Units=1/GPa)
#
#
# Indices 1 2 3 4 5 6 
#
# 1 0.012519 -0.005379 -0.007565 0.000000 0.000000 0.000000
# 2 -0.005379 0.025287 0.002393 0.000000 0.000000 0.000000
# 3 -0.007565 0.002393 0.015872 0.000000 0.000000 0.000000
# 4 0.000000 0.000000 0.000000 0.040610 0.000000 0.000000
# 5 0.000000 0.000000 0.000000 0.000000 0.002908 0.000000
# 6 0.000000 0.000000 0.000000 0.000000 0.000000 0.396792
#
#
# Mechanical properties :
#
#
# Convention : Reuss Voigt Hill
#
# Bulk Modulus (GPa) = 30.69747 45.85294 38.27520
# Shear Modulus (GPa) = 9.50661 85.90007 47.70334
#
# Velocity S-wave (km/s) = 2.09697 6.30343 4.69737
# Velocity P-wave (km/s) = 4.47909 8.61318 6.86473
#
# Compressibility (1/GPa) = 0.03257598
#
# Stress axis : x y z
#
# Youngs Moduli (GPa) = 79.87728 39.54550 63.00236
#
# Poissons Ratio (x) = 0.21272 0.47662
# Poissons Ratio (y) = 0.42967 -0.15074
# Poissons Ratio (z) = 0.60428 -0.09462
#
# Static dielectric constant tensor:
#      x y z
#    x 1.801930 0.000000 0.000000 
#    y 0.000000 1.812230 0.000000 
#    z 0.000000 0.000000 1.768130 
# 
# From -- ./inp_files/61142.got.cif
#   From: 2010.05.17/outbox.cif.g08.bks.cpg/sg71_31_cif.got.tgz:61142.got - 2010.06.03 16:22:01.
