data_PCOD9523679
_publ_section_title
;
Structure prediction by ZEFSAII (Michael W. Deem and Ramdas Pophale) SiO2 
 PCOD9523679
Probable space group: I M M M
;
_chemical_formula_sum "Si O2"
_cell_formula_units_Z 90
_cell_length_a 8.778649
_cell_length_b 23.156482
_cell_length_c 24.027902
_cell_angle_alpha 90.000000
_cell_angle_beta 90.000000
_cell_angle_gamma 90.000000
_cell_volume 4884.455053
_symmetry_space_group_name_H-M "I M M M"
_symmetry_group_IT_number 71
_symmetry_cell_setting 'orthorhombic'
loop_
_space_group_symop_operation_xyz
x,y,z
-x,-y,z
x,-y,-z
-x,y,-z
-x,-y,-z
x,y,-z
-x,y,z
x,-y,z
1/2+x,1/2+y,1/2+z
1/2-x,1/2-y,1/2+z
1/2+x,1/2-y,1/2-z
1/2-x,1/2+y,1/2-z
1/2-x,1/2-y,1/2-z
1/2+x,1/2+y,1/2-z
1/2-x,1/2+y,1/2+z
1/2+x,1/2-y,1/2+z
loop_
_atom_site_type_symbol
_atom_site_label
_atom_site_fract_x
_atom_site_fract_y
_atom_site_fract_z
Si Si1 0.668547 0.500000 0.615789
Si Si2 0.683560 0.280336 0.564760
Si Si3 0.000000 0.000000 0.000000
Si Si4 0.181622 0.622282 0.358620
Si Si5 0.321660 0.433686 0.933481
Si Si6 0.319177 0.314272 0.251480
Si Si7 0.179544 0.333936 0.135380
O O1 0.500000 0.500000 0.643308
O O2 0.630171 0.500000 0.549928
O O3 0.755649 0.558017 0.632245
O O4 0.725164 0.272301 0.500000
O O5 0.500000 0.287298 0.567339
O O6 0.759876 0.336288 0.591737
O O7 0.723106 0.224295 0.601755
O O8 0.247635 0.649913 0.302033
O O9 0.000000 0.622602 0.356722
O O10 0.500000 0.421929 0.920711
O O11 0.289165 0.500000 0.917756
O O12 0.215685 0.388177 0.903303
O O13 0.304521 0.429077 0.000000
O O14 0.500000 0.311157 0.258892
O O15 0.250000 0.250000 0.250000
O O16 0.273928 0.339963 0.191852
O O17 0.000000 0.329974 0.148255
#
# Coordination Sequence:
#
# PCOD9523679 Si02
#       7
#     8  16   2  16  16  16  16
#     4  10  23  45  69  95 125 172 213 264 320 386
#     4  10  22  38  60  89 126 167 205 252 315 382
#     4   8  24  44  78  96 128 180 222 260 336 404
#     4  12  25  42  65  95 129 167 214 268 320 383
#     4   9  19  37  60  86 121 165 208 253 307 368
#     4  12  24  42  66  92 122 165 209 256 316 379
#     4  11  22  38  61  91 124 161 207 260 313 373
#
# _framework density 18.425802000000001
#
# number of rings (size 3 to 8) (size 9 to 14) (size 15 to 20)
#    0.267    1.067    1.778    5.067    1.244    2.489 
#    1.600    1.333    0.000    0.000    0.000    0.000 
#    0.000    0.000    0.000    0.000    0.000    0.000 
#
# Total GULP energy -251182.938951 kJ/mol
# GULP energy per Si atom -5581.843088 kJ/mol
# Density = 1.838386 g / cm^3
# Si number density = 18.425802 Si / 1000 Ang^3
#
#
#
# Elastic Constant Matrix: (Units=GPa)
#
#
# Indices 1 2 3 4 5 6 
#
# 1 84.6750 40.9382 47.0873 0.0000 0.0000 0.0000
# 2 40.9382 101.3628 48.4925 0.0000 0.0000 0.0000
# 3 47.0873 48.4925 109.2144 0.0000 0.0000 0.0000
# 4 0.0000 0.0000 0.0000 18.0698 0.0000 0.0000
# 5 0.0000 0.0000 0.0000 0.0000 31.6649 0.0000
# 6 0.0000 0.0000 0.0000 0.0000 0.0000 26.2974
#
#
#
# Elastic Compliance Matrix: (Units=1/GPa)
#
#
# Indices 1 2 3 4 5 6 
#
# 1 0.016850 -0.004228 -0.005388 0.000000 0.000000 0.000000
# 2 -0.004228 0.013587 -0.004210 0.000000 0.000000 0.000000
# 3 -0.005388 -0.004210 0.013348 0.000000 0.000000 0.000000
# 4 0.000000 0.000000 0.000000 0.055341 0.000000 0.000000
# 5 0.000000 0.000000 0.000000 0.000000 0.031581 0.000000
# 6 0.000000 0.000000 0.000000 0.000000 0.000000 0.038027
#
#
# Mechanical properties :
#
#
# Convention : Reuss Voigt Hill
#
# Bulk Modulus (GPa) = 61.97856 63.14314 62.56085
# Shear Modulus (GPa) = 24.78157 25.78871 25.28514
#
# Velocity S-wave (km/s) = 3.67132 3.74518 3.70843
# Velocity P-wave (km/s) = 7.18897 7.28321 7.23624
#
# Compressibility (1/GPa) = 0.01613461
#
# Stress axis : x y z
#
# Youngs Moduli (GPa) = 59.34751 73.59862 74.91517
#
# Poissons Ratio (x) = 0.31117 0.40361
# Poissons Ratio (y) = 0.25091 0.31540
# Poissons Ratio (z) = 0.31974 0.30985
#
# Static dielectric constant tensor:
#      x y z
#    x 1.627300 0.000000 0.000000 
#    y 0.000000 1.626210 0.000000 
#    z 0.000000 0.000000 1.632360 
# 
# From -- ./inp_files/57586.got.cif
#   From: 2010.05.17/outbox.cif.g08.bks.cpg/sg71_29_cif.got.tgz:57586.got - 2010.06.03 16:22:01.
