data_PCOD9523605
_publ_section_title
;
Structure prediction by ZEFSAII (Michael W. Deem and Ramdas Pophale) SiO2 
 PCOD9523605
Probable space group: I M M M
;
_chemical_formula_sum "Si O2"
_cell_formula_units_Z 88
_cell_length_a 17.779040
_cell_length_b 7.534620
_cell_length_c 33.312152
_cell_angle_alpha 90.000000
_cell_angle_beta 90.000000
_cell_angle_gamma 90.000000
_cell_volume 4462.439597
_symmetry_space_group_name_H-M "I M M M"
_symmetry_group_IT_number 71
_symmetry_cell_setting 'orthorhombic'
loop_
_space_group_symop_operation_xyz
x,y,z
-x,-y,z
x,-y,-z
-x,y,-z
-x,-y,-z
x,y,-z
-x,y,z
x,-y,z
1/2+x,1/2+y,1/2+z
1/2-x,1/2-y,1/2+z
1/2+x,1/2-y,1/2-z
1/2-x,1/2+y,1/2-z
1/2-x,1/2-y,1/2-z
1/2+x,1/2+y,1/2-z
1/2-x,1/2+y,1/2+z
1/2+x,1/2-y,1/2+z
loop_
_atom_site_type_symbol
_atom_site_label
_atom_site_fract_x
_atom_site_fract_y
_atom_site_fract_z
Si Si1 0.129280 0.215984 0.169721
Si Si2 0.160229 0.292868 0.584232
Si Si3 0.585015 0.000000 0.604544
Si Si4 0.196667 0.289057 0.327442
Si Si5 0.230652 0.500000 0.952349
Si Si6 0.419156 0.711689 0.241927
Si Si7 0.000000 0.786403 0.546316
O O1 0.095396 0.327539 0.133230
O O2 0.217014 0.268675 0.173396
O O3 0.093689 0.269466 0.212365
O O4 0.122852 0.000000 0.164599
O O5 0.183199 0.500000 0.582552
O O6 0.160771 0.229076 0.630578
O O7 0.076483 0.276466 0.567011
O O8 0.218664 0.169669 0.560421
O O9 0.500000 0.000000 0.587994
O O10 0.652454 0.000000 0.572214
O O11 0.199221 0.500000 0.329220
O O12 0.148255 0.247634 0.288407
O O13 0.218579 0.500000 0.000000
O O14 0.500000 0.779757 0.226876
O O15 0.422869 0.500000 0.244206
O O16 0.000000 0.729318 0.500000
O O17 0.000000 0.000000 0.547402
#
# Coordination Sequence:
#
# PCOD9523605 Si02
#       7
#    16  16   8  16   8  16   8
#     4  10  22  43  65  92 127 166 219 267 312 383
#     4  11  24  43  66  95 132 175 222 266 322 389
#     4  12  26  43  73 101 126 170 213 267 344 403
#     4  10  22  38  60  89 121 167 214 264 318 370
#     4  12  26  46  72 100 131 165 212 276 334 404
#     4  10  22  36  56  88 128 173 214 262 320 370
#     4  11  23  39  63  96 131 171 218 269 325 384
#
# _framework density 19.720154000000001
#
# number of rings (size 3 to 8) (size 9 to 14) (size 15 to 20)
#    0.000    1.364    2.727    1.909    5.091    3.455 
#    0.000    0.000    0.000    0.000    0.000    2.545 
#    0.000    0.000    0.000    0.000    0.000    0.000 
#
# Total GULP energy -245808.559618 kJ/mol
# GULP energy per Si atom -5586.558173 kJ/mol
# Density = 1.967527 g / cm^3
# Si number density = 19.720154 Si / 1000 Ang^3
#
#
#
# Elastic Constant Matrix: (Units=GPa)
#
#
# Indices 1 2 3 4 5 6 
#
# 1 148.5744 30.4365 52.5026 0.0000 0.0000 0.0000
# 2 30.4365 90.1750 30.2799 0.0000 0.0000 0.0000
# 3 52.5026 30.2799 106.2625 0.0000 0.0000 0.0000
# 4 0.0000 0.0000 0.0000 20.0965 0.0000 0.0000
# 5 0.0000 0.0000 0.0000 0.0000 -7.5363 0.0000
# 6 0.0000 0.0000 0.0000 0.0000 0.0000 33.4275
#
#
#
# Elastic Compliance Matrix: (Units=1/GPa)
#
#
# Indices 1 2 3 4 5 6 
#
# 1 0.008354 -0.001585 -0.003676 0.000000 0.000000 0.000000
# 2 -0.001585 0.012564 -0.002797 0.000000 0.000000 0.000000
# 3 -0.003676 -0.002797 0.012024 0.000000 0.000000 0.000000
# 4 0.000000 0.000000 0.000000 0.049760 0.000000 0.000000
# 5 0.000000 0.000000 0.000000 0.000000 -0.132690 0.000000
# 6 0.000000 0.000000 0.000000 0.000000 0.000000 0.029916
#
#
# Mechanical properties :
#
#
# Convention : Reuss Voigt Hill
#
# Bulk Modulus (GPa) = 59.43310 63.49444 61.46377
# Shear Modulus (GPa) = 3026.60037 24.65039 1525.62538
#
# Velocity S-wave (km/s) = 39.21871 3.53938 27.84452
# Velocity P-wave (km/s) = 45.61812 6.99790 32.63421
#
# Compressibility (1/GPa) = 0.01682564
#
# Stress axis : x y z
#
# Youngs Moduli (GPa) = 119.69674 79.59365 83.16801
#
# Poissons Ratio (x) = 0.12619 0.30573
# Poissons Ratio (y) = 0.18978 0.23260
# Poissons Ratio (z) = 0.44001 0.22260
#
# Static dielectric constant tensor:
#      x y z
#    x 1.747590 0.000000 0.000000 
#    y 0.000000 1.732450 0.000000 
#    z 0.000000 0.000000 1.683750 
# 
# From -- ./inp_files/70418.got.cif
#   From: 2010.05.17/outbox.cif.g08.bks.cpg/sg71_36_cif.got.tgz:70418.got - 2010.06.03 16:22:01.
