data_PCOD9523167
_publ_section_title
;
Structure prediction by ZEFSAII (Michael W. Deem and Ramdas Pophale) SiO2 
 PCOD9523167
Probable space group: I M M M
;
_chemical_formula_sum "Si O2"
_cell_formula_units_Z 96
_cell_length_a 28.456312
_cell_length_b 8.843225
_cell_length_c 20.559676
_cell_angle_alpha 90.000000
_cell_angle_beta 90.000000
_cell_angle_gamma 90.000000
_cell_volume 5173.751380
_symmetry_space_group_name_H-M "I M M M"
_symmetry_group_IT_number 71
_symmetry_cell_setting 'orthorhombic'
loop_
_space_group_symop_operation_xyz
x,y,z
-x,-y,z
x,-y,-z
-x,y,-z
-x,-y,-z
x,y,-z
-x,y,z
x,-y,z
1/2+x,1/2+y,1/2+z
1/2-x,1/2-y,1/2+z
1/2+x,1/2-y,1/2-z
1/2-x,1/2+y,1/2-z
1/2-x,1/2-y,1/2-z
1/2+x,1/2+y,1/2-z
1/2-x,1/2+y,1/2+z
1/2+x,1/2-y,1/2+z
loop_
_atom_site_type_symbol
_atom_site_label
_atom_site_fract_x
_atom_site_fract_y
_atom_site_fract_z
Si Si1 0.445405 0.182672 0.675064
Si Si2 0.128355 0.178899 0.076737
Si Si3 0.216671 0.681347 0.694712
Si Si4 0.891558 0.318085 0.305786
Si Si5 0.229770 0.319286 0.076031
Si Si6 0.445494 0.682172 0.926007
O O1 0.500000 0.225533 0.670467
O O2 0.413636 0.256050 0.619515
O O3 0.423579 0.227617 0.744630
O O4 0.442305 0.000000 0.670090
O O5 0.177213 0.262740 0.092483
O O6 0.134162 0.000000 0.087965
O O7 0.119210 0.202430 0.000000
O O8 0.219615 0.500000 0.697099
O O9 0.250000 0.750000 0.750000
O O10 0.162498 0.726817 0.705228
O O11 0.234570 0.740464 0.625145
O O12 0.892954 0.500000 0.310024
O O13 0.912200 0.251044 0.371839
O O14 0.232135 0.500000 0.083453
O O15 0.238437 0.281947 0.000000
O O16 0.500000 0.725781 0.914038
O O17 0.443239 0.500000 0.923207
O O18 0.433410 0.727766 0.000000
#
# Coordination Sequence:
#
# PCOD9523167 Si02
#       6
#    16  16  16  16  16  16
#     4  10  21  37  57  81 111 147 187 231 277 329
#     4  10  21  37  58  84 113 145 183 229 279 331
#     4  11  23  38  58  84 114 147 186 233 281 332
#     4  10  22  38  56  81 111 143 182 228 274 322
#     4  10  21  38  60  84 112 148 188 229 277 335
#     4   9  19  36  57  82 112 145 182 224 269 320
#
# _framework density 18.555199999999999
#
# number of rings (size 3 to 8) (size 9 to 14) (size 15 to 20)
#    0.000    2.000    0.000    3.500    0.000    8.000 
#    0.000    5.833    0.000    0.000    0.000    0.000 
#    0.000    0.000    0.000    0.000    0.000    0.000 
#
# Total GULP energy -268182.997063 kJ/mol
# GULP energy per Si atom -5587.145772 kJ/mol
# Density = 1.851297 g / cm^3
# Si number density = 18.555200 Si / 1000 Ang^3
#
#
#
# Elastic Constant Matrix: (Units=GPa)
#
#
# Indices 1 2 3 4 5 6 
#
# 1 25.3856 11.7732 -2.1426 0.0000 0.0000 0.0000
# 2 11.7732 23.6886 13.4479 0.0000 0.0000 0.0000
# 3 -2.1426 13.4479 30.3946 0.0000 0.0000 0.0000
# 4 0.0000 0.0000 0.0000 37.5266 0.0000 0.0000
# 5 0.0000 0.0000 0.0000 0.0000 42.2961 0.0000
# 6 0.0000 0.0000 0.0000 0.0000 0.0000 31.8552
#
#
#
# Elastic Compliance Matrix: (Units=1/GPa)
#
#
# Indices 1 2 3 4 5 6 
#
# 1 0.062067 -0.044512 0.024069 0.000000 0.000000 0.000000
# 2 -0.044512 0.088296 -0.042204 0.000000 0.000000 0.000000
# 3 0.024069 -0.042204 0.053270 0.000000 0.000000 0.000000
# 4 0.000000 0.000000 0.000000 0.026648 0.000000 0.000000
# 5 0.000000 0.000000 0.000000 0.000000 0.023643 0.000000
# 6 0.000000 0.000000 0.000000 0.000000 0.000000 0.031392
#
#
# Mechanical properties :
#
#
# Convention : Reuss Voigt Hill
#
# Bulk Modulus (GPa) = 12.76468 13.95842 13.36155
# Shear Modulus (GPa) = 11.44893 26.09495 18.77194
#
# Velocity S-wave (km/s) = 2.48668 3.75419 3.18414
# Velocity P-wave (km/s) = 3.89089 5.13136 4.55357
#
# Compressibility (1/GPa) = 0.07834116
#
# Stress axis : x y z
#
# Youngs Moduli (GPa) = 16.11151 11.32557 18.77222
#
# Poissons Ratio (x) = 0.50412 -0.45184
# Poissons Ratio (y) = 0.71715 0.79226
# Poissons Ratio (z) = -0.38779 0.47798
#
# Static dielectric constant tensor:
#      x y z
#    x 1.615860 0.000000 0.000000 
#    y 0.000000 1.624130 0.000000 
#    z 0.000000 0.000000 1.622550 
# 
# From -- ./inp_files/10910.got.cif
#   From: 2010.05.17/outbox.cif.g08.bks.cpg/sg71_6_cif.got.tgz:10910.got - 2010.06.03 16:22:01.
