data_PCOD9523214
_publ_section_title
;
Structure prediction by ZEFSAII (Michael W. Deem and Ramdas Pophale) SiO2 
 PCOD9523214
Probable space group: I M M M
;
_chemical_formula_sum "Si O2"
_cell_formula_units_Z 88
_cell_length_a 8.671885
_cell_length_b 18.065241
_cell_length_c 31.177968
_cell_angle_alpha 90.000000
_cell_angle_beta 90.000000
_cell_angle_gamma 90.000000
_cell_volume 4884.330878
_symmetry_space_group_name_H-M "I M M M"
_symmetry_group_IT_number 71
_symmetry_cell_setting 'orthorhombic'
loop_
_space_group_symop_operation_xyz
x,y,z
-x,-y,z
x,-y,-z
-x,y,-z
-x,-y,-z
x,y,-z
-x,y,z
x,-y,z
1/2+x,1/2+y,1/2+z
1/2-x,1/2-y,1/2+z
1/2+x,1/2-y,1/2-z
1/2-x,1/2+y,1/2-z
1/2-x,1/2-y,1/2-z
1/2+x,1/2+y,1/2-z
1/2-x,1/2+y,1/2+z
1/2+x,1/2-y,1/2+z
loop_
_atom_site_type_symbol
_atom_site_label
_atom_site_fract_x
_atom_site_fract_y
_atom_site_fract_z
Si Si1 0.000000 0.417688 0.449427
Si Si2 0.685926 0.413716 0.048654
Si Si3 0.819083 0.735692 0.703383
Si Si4 0.176125 0.303673 0.118902
Si Si5 0.170975 0.862289 0.917834
Si Si6 0.177267 0.917574 0.177306
O O1 0.163870 0.379649 0.438775
O O2 0.000000 0.500000 0.429295
O O3 0.000000 0.424562 0.500000
O O4 0.500000 0.410681 0.049004
O O5 0.730628 0.500000 0.054639
O O6 0.746384 0.361965 0.086694
O O7 0.735985 0.391343 0.000000
O O8 0.750000 0.750000 0.750000
O O9 0.751677 0.786818 0.665128
O O10 0.779087 0.650468 0.692645
O O11 0.000000 0.746985 0.704313
O O12 0.175334 0.223819 0.095451
O O13 0.000000 0.326416 0.126119
O O14 0.171313 0.909539 0.874066
O O15 0.000000 0.875729 0.938718
O O16 0.000000 0.907012 0.192485
O O17 0.228909 0.000000 0.189313
#
# Coordination Sequence:
#
# PCOD9523214 Si02
#       6
#     8  16  16  16  16  16
#     4  11  24  36  50  76 107 145 189 229 280 340
#     4   9  19  36  58  86 119 154 194 242 297 356
#     4  11  22  37  58  83 115 151 187 232 287 347
#     4  10  21  37  58  84 112 146 192 237 289 350
#     4   9  20  37  55  78 109 144 185 236 285 332
#     4   9  18  34  57  83 108 137 178 229 281 333
#
# _framework density 18.016798000000001
#
# number of rings (size 3 to 8) (size 9 to 14) (size 15 to 20)
#    0.000    2.273    0.000    4.364    6.364    3.273 
#    0.000    4.545    0.000    5.455    0.000    0.000 
#    0.000    0.000    0.000    0.000    0.000    0.000 
#
# Total GULP energy -245092.555299 kJ/mol
# GULP energy per Si atom -5570.285348 kJ/mol
# Density = 1.797579 g / cm^3
# Si number density = 18.016798 Si / 1000 Ang^3
#
#
#
# Elastic Constant Matrix: (Units=GPa)
#
#
# Indices 1 2 3 4 5 6 
#
# 1 141.5988 40.7493 72.2405 0.0000 0.0000 0.0000
# 2 40.7493 81.4256 61.4869 0.0000 0.0000 0.0000
# 3 72.2405 61.4869 116.8450 0.0000 0.0000 0.0000
# 4 0.0000 0.0000 0.0000 -18.2616 0.0000 0.0000
# 5 0.0000 0.0000 0.0000 0.0000 23.6008 0.0000
# 6 0.0000 0.0000 0.0000 0.0000 0.0000 22.4673
#
#
#
# Elastic Compliance Matrix: (Units=1/GPa)
#
#
# Indices 1 2 3 4 5 6 
#
# 1 0.010332 -0.000576 -0.006085 0.000000 0.000000 0.000000
# 2 -0.000576 0.020411 -0.010385 0.000000 0.000000 0.000000
# 3 -0.006085 -0.010385 0.017785 0.000000 0.000000 0.000000
# 4 0.000000 0.000000 0.000000 -0.054760 0.000000 0.000000
# 5 0.000000 0.000000 0.000000 0.000000 0.042371 0.000000
# 6 0.000000 0.000000 0.000000 0.000000 0.000000 0.044509
#
#
# Mechanical properties :
#
#
# Convention : Reuss Voigt Hill
#
# Bulk Modulus (GPa) = 69.26490 76.53586 72.90038
# Shear Modulus (GPa) = 41.82206 16.58747 29.20477
#
# Velocity S-wave (km/s) = 4.82319 3.03754 4.03050
# Velocity P-wave (km/s) = 8.33941 7.40775 7.88734
#
# Compressibility (1/GPa) = 0.01443733
#
# Stress axis : x y z
#
# Youngs Moduli (GPa) = 96.78307 48.99244 56.22600
#
# Poissons Ratio (x) = 0.02821 0.34214
# Poissons Ratio (y) = 0.05573 0.58391
# Poissons Ratio (z) = 0.58893 0.50879
#
# Static dielectric constant tensor:
#      x y z
#    x 1.891100 0.000000 0.000000 
#    y 0.000000 1.651030 0.000000 
#    z 0.000000 0.000000 1.623330 
# 
# From -- ./inp_files/67987.got.cif
#   From: 2010.05.17/outbox.cif.g08.bks.cpg/sg71_34_cif.got.tgz:67987.got - 2010.06.03 16:22:01.
