data_PCOD9523269
_publ_section_title
;
Structure prediction by ZEFSAII (Michael W. Deem and Ramdas Pophale) SiO2 
 PCOD9523269
Probable space group: I M M M
;
_chemical_formula_sum "Si O2"
_cell_formula_units_Z 112
_cell_length_a 14.126584
_cell_length_b 27.185825
_cell_length_c 14.404547
_cell_angle_alpha 90.000000
_cell_angle_beta 90.000000
_cell_angle_gamma 90.000000
_cell_volume 5531.963146
_symmetry_space_group_name_H-M "I M M M"
_symmetry_group_IT_number 71
_symmetry_cell_setting 'orthorhombic'
loop_
_space_group_symop_operation_xyz
x,y,z
-x,-y,z
x,-y,-z
-x,y,-z
-x,-y,-z
x,y,-z
-x,y,z
x,-y,z
1/2+x,1/2+y,1/2+z
1/2-x,1/2-y,1/2+z
1/2+x,1/2-y,1/2-z
1/2-x,1/2+y,1/2-z
1/2-x,1/2-y,1/2-z
1/2+x,1/2+y,1/2-z
1/2-x,1/2+y,1/2+z
1/2+x,1/2-y,1/2+z
loop_
_atom_site_type_symbol
_atom_site_label
_atom_site_fract_x
_atom_site_fract_y
_atom_site_fract_z
Si Si1 0.609839 0.352119 0.891836
Si Si2 0.724660 0.216445 0.662059
Si Si3 0.778409 0.099331 0.111533
Si Si4 0.106186 0.806393 0.893497
Si Si5 0.388520 0.942444 0.223285
Si Si6 0.386516 0.446046 0.230312
Si Si7 0.113111 0.622634 0.107994
O O1 0.500000 0.341549 0.868489
O O2 0.676438 0.304993 0.875949
O O3 0.642326 0.399593 0.832813
O O4 0.613851 0.365232 0.000000
O O5 0.750000 0.250000 0.750000
O O6 0.658381 0.254387 0.606662
O O7 0.661515 0.167287 0.663593
O O8 0.822682 0.151896 0.142979
O O9 0.675301 0.089260 0.153697
O O10 0.844797 0.061396 0.167030
O O11 0.778296 0.094730 0.000000
O O12 0.000000 0.805343 0.851063
O O13 0.093748 0.820877 0.000000
O O14 0.500000 0.934848 0.206076
O O15 0.369298 0.925296 0.329071
O O16 0.367253 0.000000 0.211351
O O17 0.500000 0.444622 0.234283
O O18 0.358060 0.500000 0.194328
O O19 0.000000 0.630286 0.105400
O O20 0.145930 0.620957 0.000000
#
# Coordination Sequence:
#
# PCOD9523269 Si02
#       7
#    16  16  16  16  16  16  16
#     4  10  22  40  61  87 121 160 201 244 293 354
#     4  12  23  35  56  84 116 155 195 238 290 351
#     4  11  23  39  59  84 117 157 201 250 301 352
#     4  10  21  38  60  83 108 142 186 237 293 349
#     4  10  22  40  61  87 121 160 201 244 293 354
#     4  10  21  37  59  88 120 155 198 249 305 361
#     4  10  21  38  62  91 120 151 194 251 309 360
#
# _framework density 20.245977
#
# number of rings (size 3 to 8) (size 9 to 14) (size 15 to 20)
#    0.000    1.571    0.000    5.143    0.000    6.286 
#    0.000    5.000    0.000    4.286    0.000    0.000 
#    0.000    0.000    0.000    0.000    0.000    0.000 
#
# Total GULP energy -312289.242885 kJ/mol
# GULP energy per Si atom -5576.593623 kJ/mol
# Density = 2.019990 g / cm^3
# Si number density = 20.245977 Si / 1000 Ang^3
#
#
#
# Elastic Constant Matrix: (Units=GPa)
#
#
# Indices 1 2 3 4 5 6 
#
# 1 125.0030 66.5624 33.4190 0.0000 0.0000 0.0000
# 2 66.5624 123.9084 41.7184 0.0000 0.0000 0.0000
# 3 33.4190 41.7184 111.5172 -0.0002 0.0000 0.0000
# 4 0.0000 0.0000 -0.0002 23.1794 0.0000 0.0000
# 5 0.0000 0.0000 0.0000 0.0000 24.9230 0.0000
# 6 0.0000 0.0000 0.0000 0.0000 0.0000 30.7967
#
#
#
# Elastic Compliance Matrix: (Units=1/GPa)
#
#
# Indices 1 2 3 4 5 6 
#
# 1 0.011363 -0.005672 -0.001283 0.000000 0.000000 0.000000
# 2 -0.005672 0.012065 -0.002814 0.000000 0.000000 0.000000
# 3 -0.001283 -0.002814 0.010404 0.000000 0.000000 0.000000
# 4 0.000000 0.000000 0.000000 0.043142 0.000000 0.000000
# 5 0.000000 0.000000 0.000000 0.000000 0.040124 0.000000
# 6 0.000000 0.000000 0.000000 0.000000 0.000000 0.032471
#
#
# Mechanical properties :
#
#
# Convention : Reuss Voigt Hill
#
# Bulk Modulus (GPa) = 69.95837 71.53647 70.74742
# Shear Modulus (GPa) = 28.75683 30.36174 29.55929
#
# Velocity S-wave (km/s) = 3.77287 3.87672 3.82515
# Velocity P-wave (km/s) = 7.32179 7.44641 7.38436
#
# Compressibility (1/GPa) = 0.01429422
#
# Stress axis : x y z
#
# Youngs Moduli (GPa) = 88.00310 82.88567 96.11333
#
# Poissons Ratio (x) = 0.47014 0.12335
# Poissons Ratio (y) = 0.49917 0.27043
# Poissons Ratio (z) = 0.11294 0.23321
#
# Static dielectric constant tensor:
#      x y z
#    x 1.762130 0.000000 0.000000 
#    y 0.000000 1.721590 0.000000 
#    z 0.000000 0.000000 1.744060 
# 
# From -- ./inp_files/34844.got.cif
#   From: 2010.05.17/outbox.cif.g08.bks.cpg/sg71_18_cif.got.tgz:34844.got - 2010.06.03 16:22:01.
