data_PCOD9523804
_publ_section_title
;
Structure prediction by ZEFSAII (Michael W. Deem and Ramdas Pophale) SiO2 
 PCOD9523804
Probable space group: I M M M
;
_chemical_formula_sum "Si O2"
_cell_formula_units_Z 88
_cell_length_a 27.514879
_cell_length_b 10.894335
_cell_length_c 15.208620
_cell_angle_alpha 90.000000
_cell_angle_beta 90.000000
_cell_angle_gamma 90.000000
_cell_volume 4558.879801
_symmetry_space_group_name_H-M "I M M M"
_symmetry_group_IT_number 71
_symmetry_cell_setting 'orthorhombic'
loop_
_space_group_symop_operation_xyz
x,y,z
-x,-y,z
x,-y,-z
-x,y,-z
-x,-y,-z
x,y,-z
-x,y,z
x,-y,z
1/2+x,1/2+y,1/2+z
1/2-x,1/2-y,1/2+z
1/2+x,1/2-y,1/2-z
1/2-x,1/2+y,1/2-z
1/2-x,1/2-y,1/2-z
1/2+x,1/2+y,1/2-z
1/2-x,1/2+y,1/2+z
1/2+x,1/2-y,1/2+z
loop_
_atom_site_type_symbol
_atom_site_label
_atom_site_fract_x
_atom_site_fract_y
_atom_site_fract_z
Si Si1 0.053522 0.000000 0.393073
Si Si2 0.555907 0.858620 0.349289
Si Si3 0.052553 0.358892 0.637228
Si Si4 0.209879 0.143235 0.250892
Si Si5 0.628450 0.639784 0.398174
Si Si6 0.367364 0.308436 0.099613
O O1 0.086548 0.886958 0.366484
O O2 0.050682 0.000000 0.500000
O O3 0.000000 0.000000 0.355969
O O4 0.500000 0.843306 0.379341
O O5 0.555327 0.849960 0.243080
O O6 0.590188 0.749477 0.382688
O O7 0.570939 0.000000 0.371642
O O8 0.047956 0.500000 0.614253
O O9 0.104791 0.319440 0.600477
O O10 0.000000 0.299283 0.608959
O O11 0.250000 0.250000 0.250000
O O12 0.173795 0.155700 0.167539
O O13 0.176762 0.168615 0.336430
O O14 0.227168 0.000000 0.252881
O O15 0.643900 0.644502 0.500000
O O16 0.608986 0.500000 0.381968
O O17 0.355191 0.344208 0.000000
#
# Coordination Sequence:
#
# PCOD9523804 Si02
#       6
#     8  16  16  16  16  16
#     4   9  18  32  54  88 127 161 193 233 287 360
#     4   9  18  34  58  88 124 165 206 246 293 356
#     4   9  18  33  54  85 127 169 204 240 289 359
#     4  11  25  45  66  88 117 156 203 261 320 368
#     4  10  22  41  63  88 119 154 197 251 308 365
#     4  11  21  36  60  90 123 158 200 248 301 365
#
# _framework density 19.302987000000002
#
# number of rings (size 3 to 8) (size 9 to 14) (size 15 to 20)
#    0.000    2.091    2.727    1.636    0.000    4.727 
#    0.000    2.727    0.000    0.000    0.000    0.000 
#    0.000    0.000    0.000    0.000    0.000    0.000 
#
# Total GULP energy -245127.287906 kJ/mol
# GULP energy per Si atom -5571.074725 kJ/mol
# Density = 1.925905 g / cm^3
# Si number density = 19.302987 Si / 1000 Ang^3
#
#
#
# Elastic Constant Matrix: (Units=GPa)
#
#
# Indices 1 2 3 4 5 6 
#
# 1 112.7130 83.4497 48.8977 0.0000 0.0000 0.0000
# 2 83.4497 146.6391 45.7884 0.0000 0.0000 0.0000
# 3 48.8977 45.7884 91.1550 0.0000 0.0000 0.0000
# 4 0.0000 0.0000 0.0000 18.5917 0.0000 0.0000
# 5 0.0000 0.0000 0.0000 0.0000 -10.0430 0.0000
# 6 0.0000 0.0000 0.0000 0.0000 0.0000 44.1122
#
#
#
# Elastic Compliance Matrix: (Units=1/GPa)
#
#
# Indices 1 2 3 4 5 6 
#
# 1 0.017113 -0.008151 -0.005086 0.000000 0.000000 0.000000
# 2 -0.008151 0.011970 -0.001641 0.000000 0.000000 0.000000
# 3 -0.005086 -0.001641 0.014522 0.000000 0.000000 0.000000
# 4 0.000000 0.000000 0.000000 0.053787 0.000000 0.000000
# 5 0.000000 0.000000 0.000000 0.000000 -0.099572 0.000000
# 6 0.000000 0.000000 0.000000 0.000000 0.000000 0.022669
#
#
# Mechanical properties :
#
#
# Convention : Reuss Voigt Hill
#
# Bulk Modulus (GPa) = 72.19242 78.53096 75.36169
# Shear Modulus (GPa) = 91.13930 22.02359 56.58145
#
# Velocity S-wave (km/s) = 6.87878 3.38145 5.41995
# Velocity P-wave (km/s) = 10.02851 7.48447 8.84840
#
# Compressibility (1/GPa) = 0.01385187
#
# Stress axis : x y z
#
# Youngs Moduli (GPa) = 58.43563 83.54137 68.85905
#
# Poissons Ratio (x) = 0.68092 0.35019
# Poissons Ratio (y) = 0.47629 0.11297
# Poissons Ratio (z) = 0.29718 0.13706
#
# Static dielectric constant tensor:
#      x y z
#    x 1.644720 0.000000 0.000000 
#    y 0.000000 1.542060 0.000000 
#    z 0.000000 0.000000 1.714950 
# 
# From -- ./inp_files/39019.got.cif
#   From: 2010.05.17/outbox.cif.g08.bks.cpg/sg71_20_cif.got.tgz:39019.got - 2010.06.03 16:22:01.
