data_PCOD9523215
_publ_section_title
;
Structure prediction by ZEFSAII (Michael W. Deem and Ramdas Pophale) SiO2 
 PCOD9523215
Probable space group: I M M M
;
_chemical_formula_sum "Si O2"
_cell_formula_units_Z 112
_cell_length_a 23.697633
_cell_length_b 17.963332
_cell_length_c 14.757452
_cell_angle_alpha 90.000000
_cell_angle_beta 90.000000
_cell_angle_gamma 90.000000
_cell_volume 6282.076856
_symmetry_space_group_name_H-M "I M M M"
_symmetry_group_IT_number 71
_symmetry_cell_setting 'orthorhombic'
loop_
_space_group_symop_operation_xyz
x,y,z
-x,-y,z
x,-y,-z
-x,y,-z
-x,-y,-z
x,y,-z
-x,y,z
x,-y,z
1/2+x,1/2+y,1/2+z
1/2-x,1/2-y,1/2+z
1/2+x,1/2-y,1/2-z
1/2-x,1/2+y,1/2-z
1/2-x,1/2-y,1/2-z
1/2+x,1/2+y,1/2-z
1/2-x,1/2+y,1/2+z
1/2+x,1/2-y,1/2+z
loop_
_atom_site_type_symbol
_atom_site_label
_atom_site_fract_x
_atom_site_fract_y
_atom_site_fract_z
Si Si1 0.763321 0.662900 0.249706
Si Si2 0.141267 0.910694 0.762992
Si Si3 0.937110 0.909515 0.397709
Si Si4 0.136658 0.658676 0.107828
Si Si5 0.155479 0.409945 0.606869
Si Si6 0.937927 0.411867 0.746471
Si Si7 0.933286 0.812367 0.107719
O O1 0.750000 0.750000 0.250000
O O2 0.704560 0.619059 0.254525
O O3 0.804233 0.651998 0.162266
O O4 0.797081 0.634376 0.338001
O O5 0.109727 0.885492 0.671630
O O6 0.102312 0.876018 0.841676
O O7 0.141559 0.000000 0.769940
O O8 0.927264 0.884251 0.500000
O O9 0.000000 0.886585 0.369119
O O10 0.936899 0.000000 0.398723
O O11 0.095497 0.602957 0.161027
O O12 0.104143 0.737567 0.122308
O O13 0.142454 0.646691 0.000000
O O14 0.154435 0.394552 0.500000
O O15 0.163362 0.500000 0.617963
O O16 0.098492 0.387225 0.659866
O O17 0.942888 0.500000 0.736511
O O18 0.000000 0.377752 0.749247
O O19 0.000000 0.806427 0.135542
O O20 0.933820 0.825808 0.000000
#
# Coordination Sequence:
#
# PCOD9523215 Si02
#       7
#    16  16  16  16  16  16  16
#     4  11  22  38  57  79 110 151 193 239 284 339
#     4  11  22  36  57  84 112 147 188 234 288 339
#     4   8  15  30  52  77 105 136 171 214 267 326
#     4  10  21  38  58  81 114 157 197 237 288 344
#     4   9  19  36  58  84 114 149 188 233 286 341
#     4   9  18  33  56  87 118 148 187 236 287 341
#     4  10  21  37  58  84 114 151 193 236 289 351
#
# _framework density 17.828499000000001
#
# number of rings (size 3 to 8) (size 9 to 14) (size 15 to 20)
#    0.000    2.286    1.429    1.714    0.000    4.857 
#    0.000    2.857    0.000    0.000    0.000    0.000 
#    0.000    0.000    0.000    0.000    0.000    0.000 
#
# Total GULP energy -311910.386950 kJ/mol
# GULP energy per Si atom -5569.828338 kJ/mol
# Density = 1.778792 g / cm^3
# Si number density = 17.828499 Si / 1000 Ang^3
#
#
#
# Elastic Constant Matrix: (Units=GPa)
#
#
# Indices 1 2 3 4 5 6 
#
# 1 142.9288 31.3535 65.5255 0.0000 0.0000 0.0000
# 2 31.3535 34.0035 27.5912 0.0000 0.0000 0.0000
# 3 65.5255 27.5912 105.0243 0.0000 0.0000 0.0000
# 4 0.0000 0.0000 0.0000 22.0306 0.0000 0.0000
# 5 0.0000 0.0000 0.0000 0.0000 15.2540 0.0000
# 6 0.0000 0.0000 0.0000 0.0000 0.0000 14.9638
#
#
#
# Elastic Compliance Matrix: (Units=1/GPa)
#
#
# Indices 1 2 3 4 5 6 
#
# 1 0.010574 -0.005588 -0.005129 0.000000 0.000000 0.000000
# 2 -0.005588 0.040329 -0.007109 0.000000 0.000000 0.000000
# 3 -0.005129 -0.007109 0.014589 0.000000 0.000000 0.000000
# 4 0.000000 0.000000 0.000000 0.045392 0.000000 0.000000
# 5 0.000000 0.000000 0.000000 0.000000 0.065557 0.000000
# 6 0.000000 0.000000 0.000000 0.000000 0.000000 0.066828
#
#
# Mechanical properties :
#
#
# Convention : Reuss Voigt Hill
#
# Bulk Modulus (GPa) = 33.51097 58.98858 46.24978
# Shear Modulus (GPa) = 17.30905 20.94875 19.12890
#
# Velocity S-wave (km/s) = 3.11925 3.43157 3.27913
# Velocity P-wave (km/s) = 5.64004 6.98995 6.35096
#
# Compressibility (1/GPa) = 0.02984097
#
# Stress axis : x y z
#
# Youngs Moduli (GPa) = 94.57483 24.79593 68.54397
#
# Poissons Ratio (x) = 0.13855 0.35156
# Poissons Ratio (y) = 0.52847 0.48726
# Poissons Ratio (z) = 0.48507 0.17627
#
# Static dielectric constant tensor:
#      x y z
#    x 1.722930 0.000000 0.000000 
#    y 0.000000 1.650440 0.000000 
#    z 0.000000 0.000000 1.592200 
# 
# From -- ./inp_files/39288.got.cif
#   From: 2010.05.17/outbox.cif.g08.bks.cpg/sg71_20_cif.got.tgz:39288.got - 2010.06.03 16:22:01.
