data_PCOD9523513
_publ_section_title
;
Structure prediction by ZEFSAII (Michael W. Deem and Ramdas Pophale) SiO2 
 PCOD9523513
Probable space group: I M M M
;
_chemical_formula_sum "Si O2"
_cell_formula_units_Z 72
_cell_length_a 24.119145
_cell_length_b 8.727807
_cell_length_c 18.059349
_cell_angle_alpha 90.000000
_cell_angle_beta 90.000000
_cell_angle_gamma 90.000000
_cell_volume 3801.623761
_symmetry_space_group_name_H-M "I M M M"
_symmetry_group_IT_number 71
_symmetry_cell_setting 'orthorhombic'
loop_
_space_group_symop_operation_xyz
x,y,z
-x,-y,z
x,-y,-z
-x,y,-z
-x,-y,-z
x,y,-z
-x,y,z
x,-y,z
1/2+x,1/2+y,1/2+z
1/2-x,1/2-y,1/2+z
1/2+x,1/2-y,1/2-z
1/2-x,1/2+y,1/2-z
1/2-x,1/2-y,1/2-z
1/2+x,1/2+y,1/2-z
1/2-x,1/2+y,1/2+z
1/2+x,1/2-y,1/2+z
loop_
_atom_site_type_symbol
_atom_site_label
_atom_site_fract_x
_atom_site_fract_y
_atom_site_fract_z
Si Si1 0.125620 0.182595 0.641781
Si Si2 0.933783 0.320625 0.500000
Si Si3 0.244606 0.317069 0.332686
Si Si4 0.851361 0.684654 0.914557
Si Si5 0.564648 0.815187 0.285682
O O1 0.090032 0.240203 0.572643
O O2 0.186594 0.255234 0.636380
O O3 0.096470 0.239567 0.717086
O O4 0.129934 0.000000 0.642418
O O5 0.917949 0.500000 0.500000
O O6 0.000000 0.311348 0.500000
O O7 0.243967 0.500000 0.329128
O O8 0.250000 0.250000 0.250000
O O9 0.296272 0.260069 0.381100
O O10 0.844628 0.500000 0.911554
O O11 0.902755 0.723883 0.861030
O O12 0.860025 0.728349 0.000000
O O13 0.500000 0.771236 0.287445
O O14 0.567334 0.000000 0.276498
#
# Coordination Sequence:
#
# PCOD9523513 Si02
#       5
#    16   8  16  16  16
#     4  12  25  41  64  94 127 167 212 261 319 381
#     4  11  25  45  67  93 129 171 214 263 318 377
#     4  12  24  41  65  92 124 162 208 260 317 378
#     4  10  22  40  63  93 130 169 212 260 312 374
#     4  10  21  39  64  92 125 168 214 259 312 375
#
# _framework density 18.939274999999999
#
# number of rings (size 3 to 8) (size 9 to 14) (size 15 to 20)
#    0.000    1.000    2.222    5.000    1.556    4.889 
#    0.000    2.222    0.000    0.000    0.000    3.111 
#    0.000    0.000    0.000    0.000    0.000    0.000 
#
# Total GULP energy -201400.788476 kJ/mol
# GULP energy per Si atom -5594.466347 kJ/mol
# Density = 1.889617 g / cm^3
# Si number density = 18.939275 Si / 1000 Ang^3
#
#
#
# Elastic Constant Matrix: (Units=GPa)
#
#
# Indices 1 2 3 4 5 6 
#
# 1 114.8627 42.2833 33.8160 0.0000 0.0000 0.0000
# 2 42.2833 72.8298 42.3912 0.0000 0.0000 0.0000
# 3 33.8160 42.3912 125.9928 0.0000 0.0000 0.0000
# 4 0.0000 0.0000 0.0000 20.2365 0.0000 0.0000
# 5 0.0000 0.0000 0.0000 0.0000 19.1641 0.0000
# 6 0.0000 0.0000 0.0000 0.0000 0.0000 30.8601
#
#
#
# Elastic Compliance Matrix: (Units=1/GPa)
#
#
# Indices 1 2 3 4 5 6 
#
# 1 0.011176 -0.005898 -0.001015 0.000000 0.000000 0.000000
# 2 -0.005898 0.020187 -0.005209 0.000000 0.000000 0.000000
# 3 -0.001015 -0.005209 0.009962 0.000000 0.000000 0.000000
# 4 0.000000 0.000000 0.000000 0.049416 0.000000 0.000000
# 5 0.000000 0.000000 0.000000 0.000000 0.052181 0.000000
# 6 0.000000 0.000000 0.000000 0.000000 0.000000 0.032404
#
#
# Mechanical properties :
#
#
# Convention : Reuss Voigt Hill
#
# Bulk Modulus (GPa) = 58.54514 61.18515 59.86515
# Shear Modulus (GPa) = 24.35899 27.06512 25.71206
#
# Velocity S-wave (km/s) = 3.59020 3.78438 3.68857
# Velocity P-wave (km/s) = 6.94012 7.17436 7.05821
#
# Compressibility (1/GPa) = 0.01708084
#
# Stress axis : x y z
#
# Youngs Moduli (GPa) = 89.47774 49.53783 100.38050
#
# Poissons Ratio (x) = 0.29215 0.10192
# Poissons Ratio (y) = 0.52770 0.52289
# Poissons Ratio (z) = 0.09085 0.25805
#
# Static dielectric constant tensor:
#      x y z
#    x 1.638540 0.000000 0.000000 
#    y 0.000000 1.638250 0.000000 
#    z 0.000000 0.000000 1.638350 
# 
# From -- ./inp_files/47908.got.cif
#   From: 2010.05.17/outbox.cif.g08.bks.cpg/sg71_24_cif.got.tgz:47908.got - 2010.06.03 16:22:01.
