data_PCOD9523047
_publ_section_title
;
Structure prediction by ZEFSAII (Michael W. Deem and Ramdas Pophale) SiO2 
 PCOD9523047
Probable space group: I M M M
;
_chemical_formula_sum "Si O2"
_cell_formula_units_Z 72
_cell_length_a 24.112647
_cell_length_b 8.030632
_cell_length_c 19.212389
_cell_angle_alpha 90.000000
_cell_angle_beta 90.000000
_cell_angle_gamma 90.000000
_cell_volume 3720.283060
_symmetry_space_group_name_H-M "I M M M"
_symmetry_group_IT_number 71
_symmetry_cell_setting 'orthorhombic'
loop_
_space_group_symop_operation_xyz
x,y,z
-x,-y,z
x,-y,-z
-x,y,-z
-x,-y,-z
x,y,-z
-x,y,z
x,-y,z
1/2+x,1/2+y,1/2+z
1/2-x,1/2-y,1/2+z
1/2+x,1/2-y,1/2-z
1/2-x,1/2+y,1/2-z
1/2-x,1/2-y,1/2-z
1/2+x,1/2+y,1/2-z
1/2-x,1/2+y,1/2+z
1/2+x,1/2-y,1/2+z
loop_
_atom_site_type_symbol
_atom_site_label
_atom_site_fract_x
_atom_site_fract_y
_atom_site_fract_z
Si Si1 0.248209 0.305793 0.170011
Si Si2 0.937686 0.000000 0.917326
Si Si3 0.618474 0.195784 0.657270
Si Si4 0.436155 0.202205 0.806667
Si Si5 0.350606 0.197942 0.078845
O O1 0.261667 0.500000 0.167527
O O2 0.250000 0.250000 0.250000
O O3 0.184361 0.283946 0.148907
O O4 0.293086 0.220334 0.120524
O O5 0.909539 0.831058 0.891404
O O6 0.000000 0.000000 0.889338
O O7 0.938236 0.000000 0.000000
O O8 0.597631 0.236370 0.735696
O O9 0.604727 0.000000 0.644342
O O10 0.500000 0.261209 0.804174
O O11 0.400287 0.264700 0.872269
O O12 0.438266 0.000000 0.811138
O O13 0.359731 0.000000 0.073443
O O14 0.348646 0.265850 0.000000
#
# Coordination Sequence:
#
# PCOD9523047 Si02
#       5
#    16   8  16  16  16
#     4  11  22  37  61  88 119 157 201 253 310 368
#     4  11  26  44  64  94 125 159 208 262 319 378
#     4  10  22  40  64  92 124 163 206 257 314 375
#     4   9  17  33  58  86 117 156 203 249 300 365
#     4  10  21  36  56  86 122 158 198 248 304 360
#
# _framework density 19.353366999999999
#
# number of rings (size 3 to 8) (size 9 to 14) (size 15 to 20)
#    0.000    1.889    2.222    1.333    3.111    3.556 
#    0.000    5.556    0.000    0.000    0.000    1.556 
#    0.000    0.000    0.000    0.000    0.000    0.000 
#
# Total GULP energy -200879.974214 kJ/mol
# GULP energy per Si atom -5579.999284 kJ/mol
# Density = 1.930932 g / cm^3
# Si number density = 19.353367 Si / 1000 Ang^3
#
#
#
# Elastic Constant Matrix: (Units=GPa)
#
#
# Indices 1 2 3 4 5 6 
#
# 1 96.2716 32.4243 47.1360 0.0000 0.0000 0.0000
# 2 32.4243 39.3987 16.4789 0.0000 0.0000 0.0000
# 3 47.1360 16.4789 101.8104 0.0000 0.0000 0.0000
# 4 0.0000 0.0000 0.0000 26.6606 0.0000 0.0000
# 5 0.0000 0.0000 0.0000 0.0000 26.3795 0.0000
# 6 0.0000 0.0000 0.0000 0.0000 0.0000 22.8327
#
#
#
# Elastic Compliance Matrix: (Units=1/GPa)
#
#
# Indices 1 2 3 4 5 6 
#
# 1 0.017328 -0.011697 -0.006129 0.000000 0.000000 0.000000
# 2 -0.011697 0.035120 -0.000269 0.000000 0.000000 0.000000
# 3 -0.006129 -0.000269 0.012703 0.000000 0.000000 0.000000
# 4 0.000000 0.000000 0.000000 0.037509 0.000000 0.000000
# 5 0.000000 0.000000 0.000000 0.000000 0.037908 0.000000
# 6 0.000000 0.000000 0.000000 0.000000 0.000000 0.043797
#
#
# Mechanical properties :
#
#
# Convention : Reuss Voigt Hill
#
# Bulk Modulus (GPa) = 34.52883 47.72877 41.12880
# Shear Modulus (GPa) = 21.71942 24.60401 23.16171
#
# Velocity S-wave (km/s) = 3.35364 3.56940 3.46320
# Velocity P-wave (km/s) = 5.73375 6.45777 6.10650
#
# Compressibility (1/GPa) = 0.02896131
#
# Stress axis : x y z
#
# Youngs Moduli (GPa) = 57.71121 28.47355 78.71915
#
# Poissons Ratio (x) = 0.33305 0.48248
# Poissons Ratio (y) = 0.67503 0.02119
# Poissons Ratio (z) = 0.35372 0.00766
#
# Static dielectric constant tensor:
#      x y z
#    x 1.693390 0.000000 0.000000 
#    y 0.000000 1.675970 0.000000 
#    z 0.000000 0.000000 1.657370 
# 
# From -- ./inp_files/47909.got.cif
#   From: 2010.05.17/outbox.cif.g08.bks.cpg/sg71_24_cif.got.tgz:47909.got - 2010.06.03 16:22:01.
