data_PCOD9523764
_publ_section_title
;
Structure prediction by ZEFSAII (Michael W. Deem and Ramdas Pophale) SiO2 
 PCOD9523764
Probable space group: I M M M
;
_chemical_formula_sum "Si O2"
_cell_formula_units_Z 100
_cell_length_a 23.248235
_cell_length_b 27.805132
_cell_length_c 7.802295
_cell_angle_alpha 90.000000
_cell_angle_beta 90.000000
_cell_angle_gamma 90.000000
_cell_volume 5043.561429
_symmetry_space_group_name_H-M "I M M M"
_symmetry_group_IT_number 71
_symmetry_cell_setting 'orthorhombic'
loop_
_space_group_symop_operation_xyz
x,y,z
-x,-y,z
x,-y,-z
-x,y,-z
-x,-y,-z
x,y,-z
-x,y,z
x,-y,z
1/2+x,1/2+y,1/2+z
1/2-x,1/2-y,1/2+z
1/2+x,1/2-y,1/2-z
1/2-x,1/2+y,1/2-z
1/2-x,1/2-y,1/2-z
1/2+x,1/2+y,1/2-z
1/2-x,1/2+y,1/2+z
1/2+x,1/2-y,1/2+z
loop_
_atom_site_type_symbol
_atom_site_label
_atom_site_fract_x
_atom_site_fract_y
_atom_site_fract_z
Si Si1 0.349671 0.500000 0.500000
Si Si2 0.000000 0.809950 0.294345
Si Si3 0.500000 0.801646 0.210962
Si Si4 0.185679 0.265052 0.795693
Si Si5 0.317558 0.946549 0.703681
Si Si6 0.614349 0.854139 0.198226
Si Si7 0.814398 0.927182 0.701094
Si Si8 0.625856 0.331061 0.297762
O O1 0.346566 0.458521 0.345426
O O2 0.057991 0.835226 0.231964
O O3 0.000000 0.809998 0.500000
O O4 0.000000 0.754130 0.234155
O O5 0.556995 0.829502 0.273212
O O6 0.500000 0.800408 0.000000
O O7 0.250000 0.250000 0.750000
O O8 0.165278 0.315454 0.720297
O O9 0.144878 0.221677 0.733698
O O10 0.180517 0.269444 0.000000
O O11 0.315600 0.950649 0.500000
O O12 0.363831 0.905591 0.740219
O O13 0.252957 0.930808 0.753843
O O14 0.329189 0.000000 0.776020
O O15 0.601735 0.860327 0.000000
O O16 0.819401 0.942980 0.500000
O O17 0.838140 0.873160 0.710811
O O18 0.638412 0.332796 0.500000
#
# Coordination Sequence:
#
# PCOD9523764 Si02
#       8
#     4   8   8  16  16  16  16  16
#     4  12  22  40  68  95 134 165 218 260 314 382
#     4  11  21  39  65  86 121 166 212 260 312 380
#     4   9  20  39  58  86 119 163 209 253 312 374
#     4  11  23  37  56  85 124 160 198 246 311 377
#     4  10  22  40  61  89 122 160 207 259 312 375
#     4  11  22  37  61  86 120 159 205 256 310 374
#     4  11  23  40  65  96 131 169 211 262 320 379
#     4  11  23  39  60  92 126 164 211 261 310 378
#
# _framework density 19.827261
#
# number of rings (size 3 to 8) (size 9 to 14) (size 15 to 20)
#    0.000    1.280    3.200    2.880    1.120    4.800 
#    0.000    2.000    0.000    3.360    0.000    1.680 
#    0.000    0.000    0.000    0.000    0.000    0.000 
#
# Total GULP energy -278697.883258 kJ/mol
# GULP energy per Si atom -5573.957665 kJ/mol
# Density = 1.978213 g / cm^3
# Si number density = 19.827261 Si / 1000 Ang^3
#
#
#
# Elastic Constant Matrix: (Units=GPa)
#
#
# Indices 1 2 3 4 5 6 
#
# 1 63.3851 22.4761 -10.2644 0.0000 0.0000 0.0000
# 2 22.4761 120.6816 13.3878 0.0000 0.0000 0.0000
# 3 -10.2644 13.3878 64.1752 0.0000 0.0000 0.0000
# 4 0.0000 0.0000 0.0000 21.1575 0.0000 0.0000
# 5 0.0000 0.0000 0.0000 0.0000 21.1356 0.0000
# 6 0.0000 0.0000 0.0000 0.0000 0.0000 25.2005
#
#
#
# Elastic Compliance Matrix: (Units=1/GPa)
#
#
# Indices 1 2 3 4 5 6 
#
# 1 0.017667 -0.003689 0.003595 0.000000 0.000000 0.000000
# 2 -0.003689 0.009253 -0.002520 0.000000 0.000000 0.000000
# 3 0.003595 -0.002520 0.016683 0.000000 0.000000 0.000000
# 4 0.000000 0.000000 0.000000 0.047265 0.000000 0.000000
# 5 0.000000 0.000000 0.000000 0.000000 0.047314 0.000000
# 6 0.000000 0.000000 0.000000 0.000000 0.000000 0.039682
#
#
# Mechanical properties :
#
#
# Convention : Reuss Voigt Hill
#
# Bulk Modulus (GPa) = 26.05887 33.27121 29.66504
# Shear Modulus (GPa) = 25.52543 28.34153 26.93348
#
# Velocity S-wave (km/s) = 3.59192 3.78487 3.68966
# Velocity P-wave (km/s) = 5.51126 5.99311 5.75722
#
# Compressibility (1/GPa) = 0.03837466
#
# Stress axis : x y z
#
# Youngs Moduli (GPa) = 56.60279 108.07361 59.94061
#
# Poissons Ratio (x) = 0.39871 -0.21551
# Poissons Ratio (y) = 0.20882 0.15107
# Poissons Ratio (z) = -0.20351 0.27238
#
# Static dielectric constant tensor:
#      x y z
#    x 1.704190 0.000000 0.000000 
#    y 0.000000 1.711300 0.000000 
#    z 0.000000 0.000000 1.728740 
# 
# From -- ./inp_files/11230.got.cif
#   From: 2010.05.17/outbox.cif.g08.bks.cpg/sg71_6_cif.got.tgz:11230.got - 2010.06.03 16:22:01.
