data_PCOD9523697
_publ_section_title
;
Structure prediction by ZEFSAII (Michael W. Deem and Ramdas Pophale) SiO2 
 PCOD9523697
Probable space group: I M M M
;
_chemical_formula_sum "Si O2"
_cell_formula_units_Z 88
_cell_length_a 29.650240
_cell_length_b 9.254768
_cell_length_c 17.751747
_cell_angle_alpha 90.000000
_cell_angle_beta 90.000000
_cell_angle_gamma 90.000000
_cell_volume 4871.187527
_symmetry_space_group_name_H-M "I M M M"
_symmetry_group_IT_number 71
_symmetry_cell_setting 'orthorhombic'
loop_
_space_group_symop_operation_xyz
x,y,z
-x,-y,z
x,-y,-z
-x,y,-z
-x,-y,-z
x,y,-z
-x,y,z
x,-y,z
1/2+x,1/2+y,1/2+z
1/2-x,1/2-y,1/2+z
1/2+x,1/2-y,1/2-z
1/2-x,1/2+y,1/2-z
1/2-x,1/2-y,1/2-z
1/2+x,1/2+y,1/2-z
1/2-x,1/2+y,1/2+z
1/2+x,1/2-y,1/2+z
loop_
_atom_site_type_symbol
_atom_site_label
_atom_site_fract_x
_atom_site_fract_y
_atom_site_fract_z
Si Si1 0.196588 0.828487 0.410770
Si Si2 0.597758 0.673313 0.142656
Si Si3 0.713163 0.666003 0.408196
Si Si4 0.947007 0.327577 0.216142
Si Si5 0.054104 0.669167 0.500000
Si Si6 0.622857 0.828034 0.587285
O O1 0.188639 0.796266 0.500000
O O2 0.151036 0.794417 0.365979
O O3 0.240785 0.743776 0.384512
O O4 0.205073 0.000000 0.405672
O O5 0.592348 0.500000 0.138325
O O6 0.576301 0.737492 0.217851
O O7 0.573183 0.749905 0.072852
O O8 0.713329 0.670749 0.500000
O O9 0.712475 0.500000 0.384300
O O10 0.667632 0.746961 0.384671
O O11 0.942902 0.500000 0.232066
O O12 0.919934 0.297744 0.139409
O O13 0.000000 0.294345 0.210507
O O14 0.067438 0.500000 0.500000
O O15 0.000000 0.675545 0.500000
O O16 0.614765 0.787996 0.500000
O O17 0.631488 0.000000 0.589508
#
# Coordination Sequence:
#
# PCOD9523697 Si02
#       6
#    16  16  16  16   8  16
#     4   9  17  32  52  76 108 144 183 224 266 316
#     4  11  22  37  56  81 111 147 190 231 276 328
#     4   9  17  29  50  82 113 140 175 221 273 326
#     4  10  22  39  57  80 111 144 182 231 284 334
#     4  11  23  37  55  79 109 147 191 237 280 323
#     4   9  18  35  59  83 108 143 183 224 276 336
#
# _framework density 18.06541
#
# number of rings (size 3 to 8) (size 9 to 14) (size 15 to 20)
#    0.000    2.273    0.909    1.909    0.000    8.000 
#    0.000    2.727    0.000    0.000    0.000    3.818 
#    0.000    0.000    0.000    0.000    0.000    0.000 
#
# Total GULP energy -245576.967821 kJ/mol
# GULP energy per Si atom -5581.294723 kJ/mol
# Density = 1.802429 g / cm^3
# Si number density = 18.065410 Si / 1000 Ang^3
#
#
#
# Elastic Constant Matrix: (Units=GPa)
#
#
# Indices 1 2 3 4 5 6 
#
# 1 168.7584 85.3358 74.4799 0.0000 0.0000 0.0000
# 2 85.3358 70.2736 56.4351 0.0000 0.0000 0.0000
# 3 74.4799 56.4351 76.6982 0.0000 0.0000 0.0000
# 4 0.0000 0.0000 0.0000 13.8785 0.0000 0.0000
# 5 0.0000 0.0000 0.0000 0.0000 31.7913 0.0000
# 6 0.0000 0.0000 0.0000 0.0000 0.0000 27.9404
#
#
#
# Elastic Compliance Matrix: (Units=1/GPa)
#
#
# Indices 1 2 3 4 5 6 
#
# 1 0.015624 -0.016594 -0.002962 0.000000 0.000000 0.000000
# 2 -0.016594 0.052409 -0.022449 0.000000 0.000000 0.000000
# 3 -0.002962 -0.022449 0.032433 0.000000 0.000000 0.000000
# 4 0.000000 0.000000 0.000000 0.072054 0.000000 0.000000
# 5 0.000000 0.000000 0.000000 0.000000 0.031455 0.000000
# 6 0.000000 0.000000 0.000000 0.000000 0.000000 0.035791
#
#
# Mechanical properties :
#
#
# Convention : Reuss Voigt Hill
#
# Bulk Modulus (GPa) = 60.76953 83.13687 71.95320
# Shear Modulus (GPa) = 15.18556 21.35400 18.26978
#
# Velocity S-wave (km/s) = 2.90243 3.44181 3.18356
# Velocity P-wave (km/s) = 6.70401 7.86858 7.30953
#
# Compressibility (1/GPa) = 0.01645561
#
# Stress axis : x y z
#
# Youngs Moduli (GPa) = 64.00416 19.08073 30.83320
#
# Poissons Ratio (x) = 0.31662 0.09133
# Poissons Ratio (y) = 1.06208 0.69217
# Poissons Ratio (z) = 0.18959 0.42834
#
# Static dielectric constant tensor:
#      x y z
#    x 1.597500 0.000000 0.000000 
#    y 0.000000 1.603800 0.000000 
#    z 0.000000 0.000000 1.616250 
# 
# From -- ./inp_files/8827.got.cif
#   From: 2010.05.17/outbox.cif.g08.bks.cpg/sg71_5_cif.got.tgz:8827.got - 2010.06.03 16:22:01.
