data_PCOD9523539
_publ_section_title
;
Structure prediction by ZEFSAII (Michael W. Deem and Ramdas Pophale) SiO2 
 PCOD9523539
Probable space group: I M M M
;
_chemical_formula_sum "Si O2"
_cell_formula_units_Z 88
_cell_length_a 26.120802
_cell_length_b 20.412619
_cell_length_c 7.831821
_cell_angle_alpha 90.000000
_cell_angle_beta 90.000000
_cell_angle_gamma 90.000000
_cell_volume 4175.879803
_symmetry_space_group_name_H-M "I M M M"
_symmetry_group_IT_number 71
_symmetry_cell_setting 'orthorhombic'
loop_
_space_group_symop_operation_xyz
x,y,z
-x,-y,z
x,-y,-z
-x,y,-z
-x,-y,-z
x,y,-z
-x,y,z
x,-y,z
1/2+x,1/2+y,1/2+z
1/2-x,1/2-y,1/2+z
1/2+x,1/2-y,1/2-z
1/2-x,1/2+y,1/2-z
1/2-x,1/2-y,1/2-z
1/2+x,1/2+y,1/2-z
1/2-x,1/2+y,1/2+z
1/2+x,1/2-y,1/2+z
loop_
_atom_site_type_symbol
_atom_site_label
_atom_site_fract_x
_atom_site_fract_y
_atom_site_fract_z
Si Si1 0.839250 0.500000 0.700412
Si Si2 0.500000 0.078005 0.709525
Si Si3 0.221670 0.000000 0.292760
Si Si4 0.307840 0.765292 0.310028
Si Si5 0.556292 0.421955 0.296453
Si Si6 0.109008 0.366779 0.801467
Si Si7 0.338999 0.629256 0.805538
O O1 0.852615 0.500000 0.500000
O O2 0.778414 0.500000 0.721729
O O3 0.862161 0.564132 0.787405
O O4 0.500000 0.076997 0.500000
O O5 0.551757 0.116259 0.766336
O O6 0.500000 0.000000 0.760262
O O7 0.191966 0.934105 0.240857
O O8 0.222897 0.000000 0.500000
O O9 0.301357 0.792551 0.500000
O O10 0.250000 0.750000 0.250000
O O11 0.350080 0.813997 0.225064
O O12 0.331822 0.693459 0.304588
O O13 0.562717 0.411476 0.500000
O O14 0.500000 0.398486 0.247085
O O15 0.558328 0.500000 0.268822
O O16 0.601972 0.389531 0.197637
O O17 0.101086 0.347607 0.000000
O O18 0.322272 0.643369 0.000000
#
# Coordination Sequence:
#
# PCOD9523539 Si02
#       7
#     8   8   8  16  16  16  16
#     4  12  24  35  57  91 120 148 188 242 298 357
#     4   9  16  34  68  96 114 147 196 247 293 355
#     4  10  22  38  56  82 114 155 201 245 292 353
#     4  11  24  41  61  87 120 160 203 251 305 365
#     4   9  18  34  57  84 114 148 189 239 290 343
#     4  10  21  40  64  88 117 156 200 244 296 363
#     4  11  22  38  59  84 117 155 198 247 300 360
#
# _framework density 21.073402999999999
#
# number of rings (size 3 to 8) (size 9 to 14) (size 15 to 20)
#    0.000    1.727    1.818    3.545    0.000    7.636 
#    1.636    1.818    0.000    0.000    0.000    0.000 
#    0.000    0.000    0.000    0.000    0.000    0.000 
#
# Total GULP energy -245415.878240 kJ/mol
# GULP energy per Si atom -5577.633596 kJ/mol
# Density = 2.102544 g / cm^3
# Si number density = 21.073403 Si / 1000 Ang^3
#
#
#
# Elastic Constant Matrix: (Units=GPa)
#
#
# Indices 1 2 3 4 5 6 
#
# 1 188.5005 61.8241 12.7833 0.0000 0.0000 0.0000
# 2 61.8241 100.8130 4.3211 0.0000 0.0000 0.0000
# 3 12.7833 4.3211 22.4718 0.0000 0.0000 0.0000
# 4 0.0000 0.0000 0.0000 13.7906 0.0000 0.0000
# 5 0.0000 0.0000 0.0000 0.0000 22.3879 0.0000
# 6 0.0000 0.0000 0.0000 0.0000 0.0000 72.4205
#
#
#
# Elastic Compliance Matrix: (Units=1/GPa)
#
#
# Indices 1 2 3 4 5 6 
#
# 1 0.006850 -0.004067 -0.003115 0.000000 0.000000 0.000000
# 2 -0.004067 0.012417 -0.000074 0.000000 0.000000 0.000000
# 3 -0.003115 -0.000074 0.046286 0.000000 0.000000 0.000000
# 4 0.000000 0.000000 0.000000 0.072513 0.000000 0.000000
# 5 0.000000 0.000000 0.000000 0.000000 0.044667 0.000000
# 6 0.000000 0.000000 0.000000 0.000000 0.000000 0.013808
#
#
# Mechanical properties :
#
#
# Convention : Reuss Voigt Hill
#
# Bulk Modulus (GPa) = 19.59191 52.18246 35.88719
# Shear Modulus (GPa) = 21.92331 37.24359 29.58345
#
# Velocity S-wave (km/s) = 3.22892 4.20852 3.75084
# Velocity P-wave (km/s) = 4.81854 6.95927 5.98539
#
# Compressibility (1/GPa) = 0.05104147
#
# Stress axis : x y z
#
# Youngs Moduli (GPa) = 145.97897 80.53521 21.60469
#
# Poissons Ratio (x) = 0.32758 0.06729
# Poissons Ratio (y) = 0.59377 0.00159
# Poissons Ratio (z) = 0.45468 0.00594
#
# Static dielectric constant tensor:
#      x y z
#    x 1.770630 0.000000 0.000000 
#    y 0.000000 1.714300 0.000000 
#    z 0.000000 0.000000 1.884330 
# 
# From -- ./inp_files/12599.got.cif
#   From: 2010.05.17/outbox.cif.g08.bks.cpg/sg71_7_cif.got.tgz:12599.got - 2010.06.03 16:22:01.
