data_PCOD9523466
_publ_section_title
;
Structure prediction by ZEFSAII (Michael W. Deem and Ramdas Pophale) SiO2 
 PCOD9523466
Probable space group: I M M M
;
_chemical_formula_sum "Si O2"
_cell_formula_units_Z 68
_cell_length_a 11.820898
_cell_length_b 16.132864
_cell_length_c 19.944575
_cell_angle_alpha 90.000000
_cell_angle_beta 90.000000
_cell_angle_gamma 90.000000
_cell_volume 3803.528975
_symmetry_space_group_name_H-M "I M M M"
_symmetry_group_IT_number 71
_symmetry_cell_setting 'orthorhombic'
loop_
_space_group_symop_operation_xyz
x,y,z
-x,-y,z
x,-y,-z
-x,y,-z
-x,-y,-z
x,y,-z
-x,y,z
x,-y,z
1/2+x,1/2+y,1/2+z
1/2-x,1/2-y,1/2+z
1/2+x,1/2-y,1/2-z
1/2-x,1/2+y,1/2-z
1/2-x,1/2-y,1/2-z
1/2+x,1/2+y,1/2-z
1/2-x,1/2+y,1/2+z
1/2+x,1/2-y,1/2+z
loop_
_atom_site_type_symbol
_atom_site_label
_atom_site_fract_x
_atom_site_fract_y
_atom_site_fract_z
Si Si1 0.500000 0.099084 0.078809
Si Si2 0.864786 0.903178 0.000000
Si Si3 0.633434 0.359376 0.112463
Si Si4 0.867647 0.095353 0.767879
Si Si5 0.268115 0.820140 0.120884
Si Si6 0.325139 0.500000 0.000000
O O1 0.611665 0.134536 0.113187
O O2 0.500000 0.000000 0.081613
O O3 0.500000 0.123809 0.000000
O O4 0.813351 0.858608 0.935354
O O5 0.000000 0.899270 0.000000
O O6 0.830264 0.000000 0.000000
O O7 0.500000 0.339805 0.101076
O O8 0.643372 0.393498 0.188174
O O9 0.707045 0.276217 0.108511
O O10 0.668017 0.427647 0.058554
O O11 0.789026 0.157993 0.808460
O O12 0.000000 0.109245 0.784815
O O13 0.840031 0.000000 0.786318
#
# Coordination Sequence:
#
# PCOD9523466 Si02
#       6
#     8   8  16  16  16   4
#     4  11  22  36  54  84 126 162 194 242 311 375
#     4  11  23  38  58  87 117 158 205 246 303 369
#     4  11  22  38  59  92 121 157 206 258 314 367
#     4  10  21  39  61  89 124 163 207 257 308 361
#     4  12  22  37  59  90 124 160 203 255 306 371
#     4  12  23  38  66  90 125 160 203 264 320 371
#
# _framework density 17.878133999999999
#
# number of rings (size 3 to 8) (size 9 to 14) (size 15 to 20)
#    0.000    0.941    3.529    5.294    0.000    1.882 
#    0.000    0.000    0.000    0.000    0.000   14.824 
#    0.000    0.000    0.000    0.000    0.000    0.000 
#
# Total GULP energy -189509.345975 kJ/mol
# GULP energy per Si atom -5573.804293 kJ/mol
# Density = 1.783744 g / cm^3
# Si number density = 17.878134 Si / 1000 Ang^3
#
#
#
# Elastic Constant Matrix: (Units=GPa)
#
#
# Indices 1 2 3 4 5 6 
#
# 1 71.7494 58.7701 45.3257 0.0000 0.0000 0.0000
# 2 58.7701 165.0827 62.4110 0.0000 0.0000 0.0000
# 3 45.3257 62.4110 115.1292 0.0000 0.0000 0.0000
# 4 0.0000 0.0000 0.0000 68.3138 0.0000 0.0000
# 5 0.0000 0.0000 0.0000 0.0000 3.6487 0.0000
# 6 0.0000 0.0000 0.0000 0.0000 0.0000 11.7905
#
#
#
# Elastic Compliance Matrix: (Units=1/GPa)
#
#
# Indices 1 2 3 4 5 6 
#
# 1 0.022225 -0.005791 -0.005611 0.000000 0.000000 0.000000
# 2 -0.005791 0.009128 -0.002668 0.000000 0.000000 0.000000
# 3 -0.005611 -0.002668 0.012341 0.000000 0.000000 0.000000
# 4 0.000000 0.000000 0.000000 0.014638 0.000000 0.000000
# 5 0.000000 0.000000 0.000000 0.000000 0.274071 0.000000
# 6 0.000000 0.000000 0.000000 0.000000 0.000000 0.084814
#
#
# Mechanical properties :
#
#
# Convention : Reuss Voigt Hill
#
# Bulk Modulus (GPa) = 64.29049 76.10831 70.19940
# Shear Modulus (GPa) = 11.09772 29.11424 20.10598
#
# Velocity S-wave (km/s) = 2.49417 4.03983 3.35716
# Velocity P-wave (km/s) = 6.65830 8.02641 7.37415
#
# Compressibility (1/GPa) = 0.01555440
#
# Stress axis : x y z
#
# Youngs Moduli (GPa) = 44.99376 109.55275 81.02916
#
# Poissons Ratio (x) = 0.63444 0.45462
# Poissons Ratio (y) = 0.26057 0.21621
# Poissons Ratio (z) = 0.25244 0.29232
#
# Static dielectric constant tensor:
#      x y z
#    x 1.588740 0.000000 0.000000 
#    y 0.000000 1.601300 0.000000 
#    z 0.000000 0.000000 1.620530 
# 
# From -- ./inp_files/51592.got.cif
#   From: 2010.05.17/outbox.cif.g08.bks.cpg/sg71_26_cif.got.tgz:51592.got - 2010.06.03 16:22:01.
