data_PCOD9523552
_publ_section_title
;
Structure prediction by ZEFSAII (Michael W. Deem and Ramdas Pophale) SiO2 
 PCOD9523552
Probable space group: I M M M
;
_chemical_formula_sum "Si O2"
_cell_formula_units_Z 72
_cell_length_a 15.236063
_cell_length_b 17.883171
_cell_length_c 13.457169
_cell_angle_alpha 90.000000
_cell_angle_beta 90.000000
_cell_angle_gamma 90.000000
_cell_volume 3666.662995
_symmetry_space_group_name_H-M "I M M M"
_symmetry_group_IT_number 71
_symmetry_cell_setting 'orthorhombic'
loop_
_space_group_symop_operation_xyz
x,y,z
-x,-y,z
x,-y,-z
-x,y,-z
-x,-y,-z
x,y,-z
-x,y,z
x,-y,z
1/2+x,1/2+y,1/2+z
1/2-x,1/2-y,1/2+z
1/2+x,1/2-y,1/2-z
1/2-x,1/2+y,1/2-z
1/2-x,1/2-y,1/2-z
1/2+x,1/2+y,1/2-z
1/2-x,1/2+y,1/2+z
1/2+x,1/2-y,1/2+z
loop_
_atom_site_type_symbol
_atom_site_label
_atom_site_fract_x
_atom_site_fract_y
_atom_site_fract_z
Si Si1 0.603932 0.294456 0.500000
Si Si2 0.742636 0.914285 0.000000
Si Si3 0.500000 0.408498 0.886145
Si Si4 0.322099 0.202838 0.313699
Si Si5 0.901317 0.413468 0.329108
Si Si6 0.185382 0.916454 0.618549
O O1 0.500000 0.311835 0.500000
O O2 0.672226 0.363131 0.500000
O O3 0.629692 0.249017 0.600188
O O4 0.677731 0.902806 0.906685
O O5 0.770917 0.000000 0.000000
O O6 0.500000 0.500000 0.889552
O O7 0.407593 0.387192 0.838598
O O8 0.500000 0.380237 0.000000
O O9 0.250000 0.250000 0.250000
O O10 0.388851 0.154540 0.247095
O O11 0.263028 0.138868 0.363478
O O12 0.893674 0.500000 0.290377
O O13 0.000000 0.409021 0.372471
O O14 0.172266 0.922569 0.500000
O O15 0.202024 0.000000 0.657482
#
# Coordination Sequence:
#
# PCOD9523552 Si02
#       6
#     8   8   8  16  16  16
#     4  12  26  46  64  88 131 173 208 266 325 377
#     4  10  21  43  70  94 122 163 211 265 323 376
#     4   7  12  26  50  80 108 139 179 230 285 342
#     4  12  23  40  61  87 127 168 208 255 314 377
#     4  10  21  40  67  97 126 160 209 265 319 382
#     4   9  17  33  57  82 115 154 196 244 301 365
#
# _framework density 19.636382999999999
#
# number of rings (size 3 to 8) (size 9 to 14) (size 15 to 20)
#    0.000    1.889    3.333    3.000    0.000    1.556 
#    4.000    0.000    0.000    2.667    0.000    0.000 
#    0.000    0.000    0.000    0.000    0.000    0.000 
#
# Total GULP energy -200570.819822 kJ/mol
# GULP energy per Si atom -5571.411662 kJ/mol
# Density = 1.959169 g / cm^3
# Si number density = 19.636383 Si / 1000 Ang^3
#
#
#
# Elastic Constant Matrix: (Units=GPa)
#
#
# Indices 1 2 3 4 5 6 
#
# 1 171.5302 72.7791 33.1062 0.0000 0.0000 0.0000
# 2 72.7791 98.9946 48.2516 0.0000 0.0000 0.0000
# 3 33.1062 48.2516 62.7423 0.0000 0.0000 0.0000
# 4 0.0000 0.0000 0.0000 37.4248 0.0000 0.0000
# 5 0.0000 0.0000 0.0000 0.0000 -1.9803 0.0000
# 6 0.0000 0.0000 0.0000 0.0000 0.0000 -1.8891
#
#
#
# Elastic Compliance Matrix: (Units=1/GPa)
#
#
# Indices 1 2 3 4 5 6 
#
# 1 0.008483 -0.006486 0.000512 0.000000 0.000000 0.000000
# 2 -0.006486 0.021118 -0.012818 0.000000 0.000000 0.000000
# 3 0.000512 -0.012818 0.025526 0.000000 0.000000 0.000000
# 4 0.000000 0.000000 0.000000 0.026720 0.000000 0.000000
# 5 0.000000 0.000000 0.000000 0.000000 -0.504972 0.000000
# 6 0.000000 0.000000 0.000000 0.000000 0.000000 -0.529345
#
#
# Mechanical properties :
#
#
# Convention : Reuss Voigt Hill
#
# Bulk Modulus (GPa) = 57.00554 71.28230 64.14392
# Shear Modulus (GPa) = -5.50032 18.65309 6.57638
#
# Velocity S-wave (km/s) = -1.67546 3.08543 1.83203
# Velocity P-wave (km/s) = 5.03495 7.00522 6.10016
#
# Compressibility (1/GPa) = 0.01754215
#
# Stress axis : x y z
#
# Youngs Moduli (GPa) = 117.88139 47.35330 39.17618
#
# Poissons Ratio (x) = 0.30714 -0.02006
# Poissons Ratio (y) = 0.76460 0.50216
# Poissons Ratio (z) = -0.06036 0.60698
#
# Static dielectric constant tensor:
#      x y z
#    x 1.716430 0.000000 0.000000 
#    y 0.000000 1.686750 0.000000 
#    z 0.000000 0.000000 1.747600 
# 
# From -- ./inp_files/34109.got.cif
#   From: 2010.05.17/outbox.cif.g08.bks.cpg/sg71_18_cif.got.tgz:34109.got - 2010.06.03 16:22:01.
