data_PCOD9523590
_publ_section_title
;
Structure prediction by ZEFSAII (Michael W. Deem and Ramdas Pophale) SiO2 
 PCOD9523590
Probable space group: I M M M
;
_chemical_formula_sum "Si O2"
_cell_formula_units_Z 96
_cell_length_a 13.468510
_cell_length_b 27.575010
_cell_length_c 14.015450
_cell_angle_alpha 90.000000
_cell_angle_beta 90.000000
_cell_angle_gamma 90.000000
_cell_volume 5205.258213
_symmetry_space_group_name_H-M "I M M M"
_symmetry_group_IT_number 71
_symmetry_cell_setting 'orthorhombic'
loop_
_space_group_symop_operation_xyz
x,y,z
-x,-y,z
x,-y,-z
-x,y,-z
-x,-y,-z
x,y,-z
-x,y,z
x,-y,z
1/2+x,1/2+y,1/2+z
1/2-x,1/2-y,1/2+z
1/2+x,1/2-y,1/2-z
1/2-x,1/2+y,1/2-z
1/2-x,1/2-y,1/2-z
1/2+x,1/2+y,1/2-z
1/2-x,1/2+y,1/2+z
1/2+x,1/2-y,1/2+z
loop_
_atom_site_type_symbol
_atom_site_label
_atom_site_fract_x
_atom_site_fract_y
_atom_site_fract_z
Si Si1 0.380804 0.794374 0.386471
Si Si2 0.879983 0.556323 0.389977
Si Si3 0.500000 0.054610 0.613337
Si Si4 0.881192 0.000000 0.106943
Si Si5 0.815026 0.609227 0.203948
Si Si6 0.117047 0.092502 0.761654
Si Si7 0.880306 0.185014 0.892907
O O1 0.364659 0.803311 0.500000
O O2 0.500000 0.797861 0.370890
O O3 0.328577 0.834703 0.322596
O O4 0.346983 0.739233 0.366465
O O5 0.853316 0.566906 0.500000
O O6 0.851300 0.500000 0.368809
O O7 0.837446 0.593693 0.313212
O O8 0.000000 0.558150 0.383724
O O9 0.500000 0.053135 0.500000
O O10 0.401280 0.081663 0.646932
O O11 0.500000 0.000000 0.652872
O O12 0.860980 0.951863 0.166883
O O13 0.000000 0.000000 0.096946
O O14 0.839615 0.000000 0.000000
O O15 0.702887 0.591840 0.182406
O O16 0.136718 0.142550 0.818261
O O17 0.000000 0.090279 0.734656
O O18 0.000000 0.188508 0.899763
O O19 0.843882 0.172935 0.000000
#
# Coordination Sequence:
#
# PCOD9523590 Si02
#       7
#    16  16   8   8  16  16  16
#     4   9  17  32  56  84 108 136 182 244 297 330
#     4   9  18  32  48  71 108 152 188 215 261 335
#     4  11  24  40  61  87 111 137 184 245 298 338
#     4   9  18  34  54  75 105 144 190 237 268 304
#     4  12  21  33  58  81 114 147 185 235 282 330
#     4  10  22  35  50  79 114 151 187 222 271 340
#     4   8  15  31  54  78 110 147 187 236 281 323
#
# _framework density 18.442889999999998
#
# number of rings (size 3 to 8) (size 9 to 14) (size 15 to 20)
#    0.000    2.333    1.667    3.000    2.333    4.000 
#    0.000    0.000    0.000    2.000    0.000    1.167 
#    0.000    0.000    0.000    0.000    0.000    0.000 
#
# Total GULP energy -267655.381154 kJ/mol
# GULP energy per Si atom -5576.153774 kJ/mol
# Density = 1.840091 g / cm^3
# Si number density = 18.442890 Si / 1000 Ang^3
#
#
#
# Elastic Constant Matrix: (Units=GPa)
#
#
# Indices 1 2 3 4 5 6 
#
# 1 107.4764 36.0780 27.2268 0.0000 0.0000 0.0000
# 2 36.0780 107.9352 33.9763 0.0000 0.0000 0.0000
# 3 27.2268 33.9763 49.3181 0.0000 0.0000 0.0000
# 4 0.0000 0.0000 0.0000 25.4218 0.0000 0.0000
# 5 0.0000 0.0000 0.0000 0.0000 7.4163 0.0000
# 6 0.0000 0.0000 0.0000 0.0000 0.0000 19.8021
#
#
#
# Elastic Compliance Matrix: (Units=1/GPa)
#
#
# Indices 1 2 3 4 5 6 
#
# 1 0.011249 -0.002305 -0.004622 0.000000 0.000000 0.000000
# 2 -0.002305 0.012303 -0.007203 0.000000 0.000000 0.000000
# 3 -0.004622 -0.007203 0.027791 0.000000 0.000000 0.000000
# 4 0.000000 0.000000 0.000000 0.039336 0.000000 0.000000
# 5 0.000000 0.000000 0.000000 0.000000 0.134837 0.000000
# 6 0.000000 0.000000 0.000000 0.000000 0.000000 0.050500
#
#
# Mechanical properties :
#
#
# Convention : Reuss Voigt Hill
#
# Bulk Modulus (GPa) = 43.32425 51.03242 47.17833
# Shear Modulus (GPa) = 16.02717 21.69130 18.85924
#
# Velocity S-wave (km/s) = 2.95111 3.43320 3.20124
# Velocity P-wave (km/s) = 5.92909 6.59139 6.26899
#
# Compressibility (1/GPa) = 0.02308176
#
# Stress axis : x y z
#
# Youngs Moduli (GPa) = 88.89621 81.28293 35.98335
#
# Poissons Ratio (x) = 0.18736 0.16632
# Poissons Ratio (y) = 0.20491 0.25919
# Poissons Ratio (z) = 0.41090 0.58549
#
# Static dielectric constant tensor:
#      x y z
#    x 1.682380 0.000000 0.000000 
#    y 0.000000 1.657290 0.000000 
#    z 0.000000 0.000000 1.634290 
# 
# From -- ./inp_files/35058.got.cif
#   From: 2010.05.17/outbox.cif.g08.bks.cpg/sg71_18_cif.got.tgz:35058.got - 2010.06.03 16:22:01.
