data_PCOD9523619
_publ_section_title
;
Structure prediction by ZEFSAII (Michael W. Deem and Ramdas Pophale) SiO2 
 PCOD9523619
Probable space group: I M M M
;
_chemical_formula_sum "Si O2"
_cell_formula_units_Z 96
_cell_length_a 14.420578
_cell_length_b 34.178557
_cell_length_c 11.098192
_cell_angle_alpha 90.000000
_cell_angle_beta 90.000000
_cell_angle_gamma 90.000000
_cell_volume 5470.016356
_symmetry_space_group_name_H-M "I M M M"
_symmetry_group_IT_number 71
_symmetry_cell_setting 'orthorhombic'
loop_
_space_group_symop_operation_xyz
x,y,z
-x,-y,z
x,-y,-z
-x,y,-z
-x,-y,-z
x,y,-z
-x,y,z
x,-y,z
1/2+x,1/2+y,1/2+z
1/2-x,1/2-y,1/2+z
1/2+x,1/2-y,1/2-z
1/2-x,1/2+y,1/2-z
1/2-x,1/2-y,1/2-z
1/2+x,1/2+y,1/2-z
1/2-x,1/2+y,1/2+z
1/2+x,1/2-y,1/2+z
loop_
_atom_site_type_symbol
_atom_site_label
_atom_site_fract_x
_atom_site_fract_y
_atom_site_fract_z
Si Si1 0.888805 0.264570 0.860846
Si Si2 0.889498 0.454209 0.500000
Si Si3 0.394952 0.000000 0.358011
Si Si4 0.605137 0.452872 0.641932
Si Si5 0.390189 0.705733 0.859625
Si Si6 0.795645 0.426818 0.740008
Si Si7 0.781438 0.345329 0.139948
O O1 0.866247 0.235785 0.748928
O O2 0.841494 0.306358 0.837608
O O3 0.000000 0.268634 0.860715
O O4 0.862700 0.252328 0.000000
O O5 0.860162 0.500000 0.500000
O O6 0.847162 0.433490 0.614798
O O7 0.000000 0.452955 0.500000
O O8 0.339469 0.038771 0.320525
O O9 0.500000 0.000000 0.303507
O O10 0.403866 0.000000 0.500000
O O11 0.618257 0.443388 0.500000
O O12 0.500000 0.441636 0.675533
O O13 0.612199 0.500000 0.651586
O O14 0.686516 0.434256 0.719280
O O15 0.500000 0.697673 0.851437
O O16 0.324753 0.668295 0.841031
O O17 0.372463 0.719257 0.000000
O O18 0.809526 0.383203 0.786470
O O19 0.792889 0.355418 0.000000
#
# Coordination Sequence:
#
# PCOD9523619 Si02
#       7
#    16   8   8  16  16  16  16
#     4   9  18  35  58  83 111 146 188 233 280 335
#     4  11  22  38  59  81 109 149 188 234 292 344
#     4  11  24  39  58  81 106 147 199 242 280 334
#     4   9  17  32  55  80 105 138 180 226 281 341
#     4   9  18  36  60  84 113 149 187 228 278 336
#     4  12  21  37  58  82 114 147 188 235 285 343
#     4  10  22  37  55  81 113 152 187 225 277 333
#
# _framework density 17.550222000000002
#
# number of rings (size 3 to 8) (size 9 to 14) (size 15 to 20)
#    0.000    2.000    2.500    2.000    0.000    2.000 
#    3.000    1.667    0.000    2.000    0.000    0.000 
#    0.000    0.000    0.000    0.000    0.000    0.000 
#
# Total GULP energy -267591.656134 kJ/mol
# GULP energy per Si atom -5574.826169 kJ/mol
# Density = 1.751028 g / cm^3
# Si number density = 17.550222 Si / 1000 Ang^3
#
#
#
# Elastic Constant Matrix: (Units=GPa)
#
#
# Indices 1 2 3 4 5 6 
#
# 1 71.0980 32.6503 35.6361 0.0001 -0.0001 0.0000
# 2 32.6503 101.7874 74.5190 0.0000 -0.0001 0.0000
# 3 35.6361 74.5190 110.0560 0.0012 -0.0005 -0.0003
# 4 0.0001 0.0000 0.0012 31.7396 -0.0003 0.0000
# 5 -0.0001 -0.0001 -0.0005 -0.0003 23.5678 0.0001
# 6 0.0000 0.0000 -0.0003 0.0000 0.0001 6.8252
#
#
#
# Elastic Compliance Matrix: (Units=1/GPa)
#
#
# Indices 1 2 3 4 5 6 
#
# 1 0.017199 -0.002855 -0.003636 0.000000 0.000000 0.000000
# 2 -0.002855 0.019956 -0.012587 0.000000 0.000000 -0.000001
# 3 -0.003636 -0.012587 0.018786 -0.000001 0.000000 0.000001
# 4 0.000000 0.000000 -0.000001 0.031506 0.000000 0.000000
# 5 0.000000 0.000000 0.000000 0.000000 0.042431 -0.000001
# 6 0.000000 -0.000001 0.000001 0.000000 -0.000001 0.146516
#
#
# Mechanical properties :
#
#
# Convention : Reuss Voigt Hill
#
# Bulk Modulus (GPa) = 56.22988 63.17246 59.70117
# Shear Modulus (GPa) = 15.60169 21.76893 18.68531
#
# Velocity S-wave (km/s) = 2.98480 3.52572 3.26648
# Velocity P-wave (km/s) = 6.63232 7.25587 6.95109
#
# Compressibility (1/GPa) = 0.01778414
#
# Stress axis : x y z
#
# Youngs Moduli (GPa) = 58.14450 50.11142 53.22975
#
# Poissons Ratio (x) = 0.14307 0.19353
# Poissons Ratio (y) = 0.16601 0.67003
# Poissons Ratio (z) = 0.21140 0.63077
#
# Static dielectric constant tensor:
#      x y z
#    x 1.622270 0.000000 0.000000 
#    y 0.000000 1.563540 0.000000 
#    z 0.000000 0.000000 1.618140 
# 
# From -- ./inp_files/22616.got.cif
#   From: 2010.05.17/outbox.cif.g08.bks.cpg/sg71_12_cif.got.tgz:22616.got - 2010.06.03 16:22:01.
