data_PCOD9523242
_publ_section_title
;
Structure prediction by ZEFSAII (Michael W. Deem and Ramdas Pophale) SiO2 
 PCOD9523242
Probable space group: I M M M
;
_chemical_formula_sum "Si O2"
_cell_formula_units_Z 116
_cell_length_a 24.293234
_cell_length_b 30.286060
_cell_length_c 7.612601
_cell_angle_alpha 90.000000
_cell_angle_beta 90.000000
_cell_angle_gamma 90.000000
_cell_volume 5600.943343
_symmetry_space_group_name_H-M "I M M M"
_symmetry_group_IT_number 71
_symmetry_cell_setting 'orthorhombic'
loop_
_space_group_symop_operation_xyz
x,y,z
-x,-y,z
x,-y,-z
-x,y,-z
-x,-y,-z
x,y,-z
-x,y,z
x,-y,z
1/2+x,1/2+y,1/2+z
1/2-x,1/2-y,1/2+z
1/2+x,1/2-y,1/2-z
1/2-x,1/2+y,1/2-z
1/2-x,1/2-y,1/2-z
1/2+x,1/2+y,1/2-z
1/2-x,1/2+y,1/2+z
1/2+x,1/2-y,1/2+z
loop_
_atom_site_type_symbol
_atom_site_label
_atom_site_fract_x
_atom_site_fract_y
_atom_site_fract_z
Si Si1 0.061986 0.620958 0.709716
Si Si2 0.095211 0.226360 0.700977
Si Si3 0.150777 0.449767 0.788300
Si Si4 0.436260 0.549163 0.714233
Si Si5 0.655499 0.187887 0.210660
Si Si6 0.866183 0.131522 0.202115
Si Si7 0.242823 0.381391 0.796753
Si Si8 0.500000 0.732506 0.500000
O O1 0.058376 0.626261 0.500000
O O2 0.094309 0.575505 0.744175
O O3 0.102285 0.659764 0.774828
O O4 0.000000 0.622402 0.781119
O O5 0.077098 0.237055 0.500000
O O6 0.143331 0.261312 0.747182
O O7 0.118077 0.176756 0.704458
O O8 0.047798 0.231331 0.844351
O O9 0.152812 0.500000 0.724058
O O10 0.201124 0.418872 0.724705
O O11 0.154437 0.450573 0.000000
O O12 0.434340 0.548751 0.500000
O O13 0.500000 0.556182 0.763324
O O14 0.419472 0.500000 0.772561
O O15 0.398368 0.589054 0.775163
O O16 0.708998 0.164273 0.286280
O O17 0.659384 0.182369 0.000000
O O18 0.801371 0.122480 0.206684
O O19 0.884226 0.137207 0.000000
O O20 0.253715 0.391752 0.000000
#
# Coordination Sequence:
#
# PCOD9523242 Si02
#       8
#    16  16  16  16  16  16  16   4
#     4   9  18  33  53  79 111 148 190 240 298 361
#     4  11  25  43  65  95 130 168 204 252 305 357
#     4   9  19  36  54  76 109 149 195 248 306 361
#     4   8  16  32  56  85 118 156 197 246 305 368
#     4   9  20  39  60  84 116 155 200 250 307 357
#     4  11  22  37  61  90 124 160 205 250 307 368
#     4  10  21  37  59  83 112 155 203 256 308 365
#     4  12  26  44  64  98 133 166 211 244 302 364
#
# _framework density 20.710798
#
# number of rings (size 3 to 8) (size 9 to 14) (size 15 to 20)
#    0.000    2.345    0.690    1.448    2.897    2.483 
#    0.000    1.379    0.000    1.241    0.000    3.862 
#    0.000    0.000    0.000    0.000    0.000    0.000 
#
# Total GULP energy -323256.724864 kJ/mol
# GULP energy per Si atom -5573.391808 kJ/mol
# Density = 2.066366 g / cm^3
# Si number density = 20.710798 Si / 1000 Ang^3
#
#
#
# Elastic Constant Matrix: (Units=GPa)
#
#
# Indices 1 2 3 4 5 6 
#
# 1 74.8615 50.5980 4.4304 0.0000 0.0000 0.0000
# 2 50.5980 147.8335 5.4318 0.0000 0.0000 0.0000
# 3 4.4304 5.4318 66.1256 0.0000 0.0000 0.0000
# 4 0.0000 0.0000 0.0000 -9.3027 0.0000 0.0000
# 5 0.0000 0.0000 0.0000 0.0000 17.4871 0.0000
# 6 0.0000 0.0000 0.0000 0.0000 0.0000 14.0546
#
#
#
# Elastic Compliance Matrix: (Units=1/GPa)
#
#
# Indices 1 2 3 4 5 6 
#
# 1 0.017408 -0.005933 -0.000679 0.000000 0.000000 0.000000
# 2 -0.005933 0.008807 -0.000326 0.000000 0.000000 0.000000
# 3 -0.000679 -0.000326 0.015195 0.000000 0.000000 0.000000
# 4 0.000000 0.000000 0.000000 -0.107495 0.000000 0.000000
# 5 0.000000 0.000000 0.000000 0.000000 0.057185 0.000000
# 6 0.000000 0.000000 0.000000 0.000000 0.000000 0.071151
#
#
# Mechanical properties :
#
#
# Convention : Reuss Voigt Hill
#
# Bulk Modulus (GPa) = 36.31860 45.52677 40.92269
# Shear Modulus (GPa) = 58.61274 19.67183 39.14228
#
# Velocity S-wave (km/s) = 5.32560 3.08528 4.35207
# Velocity P-wave (km/s) = 7.44246 5.89252 6.71238
#
# Compressibility (1/GPa) = 0.02753410
#
# Stress axis : x y z
#
# Youngs Moduli (GPa) = 57.44338 113.54472 65.81115
#
# Poissons Ratio (x) = 0.67370 0.04468
# Poissons Ratio (y) = 0.34083 0.02145
# Poissons Ratio (z) = 0.03900 0.03701
#
# Static dielectric constant tensor:
#      x y z
#    x 1.699760 0.000000 0.000000 
#    y 0.000000 1.741080 0.000000 
#    z 0.000000 0.000000 1.782010 
# 
# From -- ./inp_files/13434.got.cif
#   From: 2010.05.17/outbox.cif.g08.bks.cpg/sg71_7_cif.got.tgz:13434.got - 2010.06.03 16:22:01.
