data_PCOD9523438
_publ_section_title
;
Structure prediction by ZEFSAII (Michael W. Deem and Ramdas Pophale) SiO2 
 PCOD9523438
Probable space group: I M M M
;
_chemical_formula_sum "Si O2"
_cell_formula_units_Z 50
_cell_length_a 28.654667
_cell_length_b 9.845095
_cell_length_c 9.471448
_cell_angle_alpha 90.000000
_cell_angle_beta 90.000000
_cell_angle_gamma 90.000000
_cell_volume 2671.970483
_symmetry_space_group_name_H-M "I M M M"
_symmetry_group_IT_number 71
_symmetry_cell_setting 'orthorhombic'
loop_
_space_group_symop_operation_xyz
x,y,z
-x,-y,z
x,-y,-z
-x,y,-z
-x,-y,-z
x,y,-z
-x,y,z
x,-y,z
1/2+x,1/2+y,1/2+z
1/2-x,1/2-y,1/2+z
1/2+x,1/2-y,1/2-z
1/2-x,1/2+y,1/2-z
1/2-x,1/2-y,1/2-z
1/2+x,1/2+y,1/2-z
1/2-x,1/2+y,1/2+z
1/2+x,1/2-y,1/2+z
loop_
_atom_site_type_symbol
_atom_site_label
_atom_site_fract_x
_atom_site_fract_y
_atom_site_fract_z
Si Si1 0.891543 0.730177 0.160920
Si Si2 0.055384 0.500000 0.330570
Si Si3 0.000000 0.000000 0.500000
Si Si4 0.288605 0.661285 0.330107
Si Si5 0.448588 0.500000 0.708174
O O1 0.917852 0.628104 0.264800
O O2 0.838867 0.770847 0.200938
O O3 0.920407 0.868632 0.164535
O O4 0.891219 0.676117 0.000000
O O5 0.058100 0.500000 0.500000
O O6 0.000000 0.500000 0.293108
O O7 0.040210 0.000000 0.375186
O O8 0.281845 0.668222 0.500000
O O9 0.288097 0.500000 0.292120
O O10 0.250000 0.750000 0.250000
O O11 0.500000 0.500000 0.645014
#
# Coordination Sequence:
#
# PCOD9523438 Si02
#       5
#    16   8   2  16   8
#     4  11  23  42  66  93 126 166 213 265 314 375
#     4  11  27  43  62  90 134 174 211 259 319 379
#     4   8  24  36  58  98 140 156 198 274 308 372
#     4  10  23  44  66  94 128 162 208 263 319 377
#     4  10  21  38  65  91 126 163 208 254 317 368
#
# _framework density 18.712779999999999
#
# number of rings (size 3 to 8) (size 9 to 14) (size 15 to 20)
#    0.480    1.120    1.600    1.920    4.480    5.760 
#    0.000    0.000    0.000    0.000    0.000    0.000 
#    0.000    0.000    0.000    0.000    0.000    0.000 
#
# Total GULP energy -139256.182295 kJ/mol
# GULP energy per Si atom -5570.247292 kJ/mol
# Density = 1.867019 g / cm^3
# Si number density = 18.712780 Si / 1000 Ang^3
#
#
#
# Elastic Constant Matrix: (Units=GPa)
#
#
# Indices 1 2 3 4 5 6 
#
# 1 207.7465 94.6186 71.1515 0.0000 0.0000 0.0000
# 2 94.6186 154.5225 51.9095 0.0000 0.0000 0.0000
# 3 71.1515 51.9095 99.1983 0.0000 0.0000 0.0000
# 4 0.0000 0.0000 0.0000 -205.1553 0.0000 0.0000
# 5 0.0000 0.0000 0.0000 0.0000 34.6085 0.0000
# 6 0.0000 0.0000 0.0000 0.0000 0.0000 34.8401
#
#
#
# Elastic Compliance Matrix: (Units=1/GPa)
#
#
# Indices 1 2 3 4 5 6 
#
# 1 0.007642 -0.003443 -0.003679 0.000000 0.000000 0.000000
# 2 -0.003443 0.009403 -0.002451 0.000000 0.000000 0.000000
# 3 -0.003679 -0.002451 0.014003 0.000000 0.000000 0.000000
# 4 0.000000 0.000000 0.000000 -0.004874 0.000000 0.000000
# 5 0.000000 0.000000 0.000000 0.000000 0.028895 0.000000
# 6 0.000000 0.000000 0.000000 0.000000 0.000000 0.028703
#
#
# Mechanical properties :
#
#
# Convention : Reuss Voigt Hill
#
# Bulk Modulus (GPa) = 84.03056 99.64740 91.83898
# Shear Modulus (GPa) = 46.77923 -10.88882 17.94521
#
# Velocity S-wave (km/s) = 5.00528 -2.41486 3.10010
# Velocity P-wave (km/s) = 8.85475 6.75212 7.87394
#
# Compressibility (1/GPa) = 0.01190043
#
# Stress axis : x y z
#
# Youngs Moduli (GPa) = 130.85497 106.34495 71.41579
#
# Poissons Ratio (x) = 0.36619 0.26277
# Poissons Ratio (y) = 0.45058 0.17503
# Poissons Ratio (z) = 0.48148 0.26064
#
# Static dielectric constant tensor:
#      x y z
#    x 1.639790 0.000000 0.000000 
#    y 0.000000 1.612440 0.000000 
#    z 0.000000 0.000000 1.643200 
# 
# From -- ./inp_files/16002.got.cif
#   From: 2010.05.17/outbox.cif.g08.bks.cpg/sg71_9_cif.got.tgz:16002.got - 2010.06.03 16:22:01.
