data_PCOD9523871
_publ_section_title
;
Structure prediction by ZEFSAII (Michael W. Deem and Ramdas Pophale) SiO2 
 PCOD9523871
Probable space group: I M M M
;
_chemical_formula_sum "Si O2"
_cell_formula_units_Z 58
_cell_length_a 12.886830
_cell_length_b 7.229728
_cell_length_c 27.119346
_cell_angle_alpha 90.000000
_cell_angle_beta 90.000000
_cell_angle_gamma 90.000000
_cell_volume 2526.662704
_symmetry_space_group_name_H-M "I M M M"
_symmetry_group_IT_number 71
_symmetry_cell_setting 'orthorhombic'
loop_
_space_group_symop_operation_xyz
x,y,z
-x,-y,z
x,-y,-z
-x,y,-z
-x,-y,-z
x,y,-z
-x,y,z
x,-y,z
1/2+x,1/2+y,1/2+z
1/2-x,1/2-y,1/2+z
1/2+x,1/2-y,1/2-z
1/2-x,1/2+y,1/2-z
1/2-x,1/2-y,1/2-z
1/2+x,1/2+y,1/2-z
1/2-x,1/2+y,1/2+z
1/2+x,1/2-y,1/2+z
loop_
_atom_site_type_symbol
_atom_site_label
_atom_site_fract_x
_atom_site_fract_y
_atom_site_fract_z
Si Si1 0.500000 0.000000 0.000000
Si Si2 0.891217 0.786635 0.294095
Si Si3 0.796661 0.774123 0.500000
Si Si4 0.834407 0.275928 0.816494
Si Si5 0.113627 0.724310 0.074345
O O1 0.404877 0.837847 0.000000
O O2 0.885575 0.783302 0.234640
O O3 0.784134 0.708432 0.313408
O O4 0.000000 0.702937 0.310141
O O5 0.891355 0.000000 0.309804
O O6 0.718671 0.725013 0.454404
O O7 0.813083 0.000000 0.500000
O O8 0.836578 0.500000 0.814930
O O9 0.880398 0.219905 0.868449
O O10 0.113073 0.500000 0.072349
O O11 0.000000 0.783478 0.055218
#
# Coordination Sequence:
#
# PCOD9523871 Si02
#       5
#     2  16   8  16  16
#     4  12  26  48  66  90 128 164 202 254 288 378
#     4   9  17  29  44  68 106 149 189 234 284 345
#     4  10  22  43  69  93 123 162 201 246 312 362
#     4   9  17  30  50  76 106 141 190 239 292 349
#     4   9  17  33  60  91 117 148 194 252 307 366
#
# _framework density 22.955179999999999
#
# number of rings (size 3 to 8) (size 9 to 14) (size 15 to 20)
#    0.000    2.759    0.000    1.448    0.000    3.310 
#    4.966    1.379    0.000    0.000    0.000    0.000 
#    0.000    0.000    0.000    0.000    0.000    0.000 
#
# Total GULP energy -161469.339926 kJ/mol
# GULP energy per Si atom -5567.908273 kJ/mol
# Density = 2.290293 g / cm^3
# Si number density = 22.955180 Si / 1000 Ang^3
#
#
#
# Elastic Constant Matrix: (Units=GPa)
#
#
# Indices 1 2 3 4 5 6 
#
# 1 246.3964 28.4251 37.3059 0.0000 0.0000 0.0000
# 2 28.4251 131.8170 -4.7636 0.0000 0.0000 0.0000
# 3 37.3059 -4.7636 72.5891 0.0000 0.0000 0.0000
# 4 0.0000 0.0000 0.0000 4.4617 0.0000 0.0000
# 5 0.0000 0.0000 0.0000 0.0000 40.2208 0.0000
# 6 0.0000 0.0000 0.0000 0.0000 0.0000 19.7171
#
#
#
# Elastic Compliance Matrix: (Units=1/GPa)
#
#
# Indices 1 2 3 4 5 6 
#
# 1 0.004546 -0.001067 -0.002406 0.000000 0.000000 0.000000
# 2 -0.001067 0.007855 0.001064 0.000000 0.000000 0.000000
# 3 -0.002406 0.001064 0.015083 0.000000 0.000000 0.000000
# 4 0.000000 0.000000 0.000000 0.224132 0.000000 0.000000
# 5 0.000000 0.000000 0.000000 0.000000 0.024863 0.000000
# 6 0.000000 0.000000 0.000000 0.000000 0.000000 0.050717
#
#
# Mechanical properties :
#
#
# Convention : Reuss Voigt Hill
#
# Bulk Modulus (GPa) = 44.12238 63.63747 53.87993
# Shear Modulus (GPa) = 14.72453 38.86891 26.79672
#
# Velocity S-wave (km/s) = 2.53543 4.11938 3.42036
# Velocity P-wave (km/s) = 5.27580 7.09989 6.25469
#
# Compressibility (1/GPa) = 0.02266424
#
# Stress axis : x y z
#
# Youngs Moduli (GPa) = 219.97560 127.30961 66.30116
#
# Poissons Ratio (x) = 0.13587 0.15954
# Poissons Ratio (y) = 0.23477 -0.07054
# Poissons Ratio (z) = 0.52934 -0.13545
#
# Static dielectric constant tensor:
#      x y z
#    x 1.878440 0.000000 0.000000 
#    y 0.000000 1.853410 0.000000 
#    z 0.000000 0.000000 1.828790 
# 
# From -- ./inp_files/64113.got.cif
#   From: 2010.05.17/outbox.cif.g08.bks.cpg/sg71_33_cif.got.tgz:64113.got - 2010.06.03 16:22:01.
