data_PCOD9523509
_publ_section_title
;
Structure prediction by ZEFSAII (Michael W. Deem and Ramdas Pophale) SiO2 
 PCOD9523509
Probable space group: I M M M
;
_chemical_formula_sum "Si O2"
_cell_formula_units_Z 104
_cell_length_a 20.426095
_cell_length_b 29.361184
_cell_length_c 8.972346
_cell_angle_alpha 90.000000
_cell_angle_beta 90.000000
_cell_angle_gamma 90.000000
_cell_volume 5381.023950
_symmetry_space_group_name_H-M "I M M M"
_symmetry_group_IT_number 71
_symmetry_cell_setting 'orthorhombic'
loop_
_space_group_symop_operation_xyz
x,y,z
-x,-y,z
x,-y,-z
-x,y,-z
-x,-y,-z
x,y,-z
-x,y,z
x,-y,z
1/2+x,1/2+y,1/2+z
1/2-x,1/2-y,1/2+z
1/2+x,1/2-y,1/2-z
1/2-x,1/2+y,1/2-z
1/2-x,1/2-y,1/2-z
1/2+x,1/2+y,1/2-z
1/2-x,1/2+y,1/2+z
1/2+x,1/2-y,1/2+z
loop_
_atom_site_type_symbol
_atom_site_label
_atom_site_fract_x
_atom_site_fract_y
_atom_site_fract_z
Si Si1 0.172537 0.803087 0.322553
Si Si2 0.675701 0.205769 0.323815
Si Si3 0.611698 0.947472 0.674324
Si Si4 0.878963 0.107906 0.823829
Si Si5 0.425975 0.858951 0.173105
Si Si6 0.000000 0.053957 0.320710
Si Si7 0.731797 0.553739 0.829694
O O1 0.163181 0.805527 0.500000
O O2 0.250092 0.810203 0.289688
O O3 0.159969 0.752256 0.263304
O O4 0.129764 0.841487 0.242436
O O5 0.672926 0.214533 0.500000
O O6 0.624707 0.167833 0.275023
O O7 0.595991 0.938753 0.500000
O O8 0.577636 0.911507 0.779693
O O9 0.690360 0.941791 0.690541
O O10 0.595747 0.000000 0.706057
O O11 0.936612 0.079462 0.745054
O O12 0.811512 0.082061 0.783400
O O13 0.889797 0.109444 0.000000
O O14 0.500000 0.842190 0.194682
O O15 0.408322 0.853431 0.000000
O O16 0.000000 0.057225 0.500000
O O17 0.000000 0.000000 0.281882
O O18 0.716261 0.500000 0.818499
O O19 0.716292 0.568575 0.000000
#
# Coordination Sequence:
#
# PCOD9523509 Si02
#       7
#    16  16  16  16  16   8  16
#     4  10  21  39  64  91 120 151 187 236 296 355
#     4  10  21  39  64  92 118 149 193 244 293 345
#     4   9  19  36  58  84 113 148 194 245 290 336
#     4  12  24  37  57  88 121 153 194 243 293 351
#     4  11  24  39  55  80 116 157 196 233 284 347
#     4  11  25  45  65  83 113 161 209 251 302 363
#     4   9  18  34  56  82 113 149 190 236 289 347
#
# _framework density 19.327176999999999
#
# number of rings (size 3 to 8) (size 9 to 14) (size 15 to 20)
#    0.000    1.769    0.000    5.308    0.000   10.769 
#    1.385    3.077    0.000    0.000    0.000    0.000 
#    0.000    0.000    0.000    0.000    0.000    0.000 
#
# Total GULP energy -290660.554197 kJ/mol
# GULP energy per Si atom -5589.626042 kJ/mol
# Density = 1.928319 g / cm^3
# Si number density = 19.327177 Si / 1000 Ang^3
#
#
#
# Elastic Constant Matrix: (Units=GPa)
#
#
# Indices 1 2 3 4 5 6 
#
# 1 31.7338 38.4343 29.2618 0.0000 0.0000 0.0000
# 2 38.4343 88.8414 47.4025 0.0000 0.0000 0.0000
# 3 29.2618 47.4025 75.6880 0.0000 0.0000 0.0000
# 4 0.0000 0.0000 0.0000 35.3832 0.0000 0.0000
# 5 0.0000 0.0000 0.0000 0.0000 21.4422 0.0000
# 6 0.0000 0.0000 0.0000 0.0000 0.0000 17.6862
#
#
#
# Elastic Compliance Matrix: (Units=1/GPa)
#
#
# Indices 1 2 3 4 5 6 
#
# 1 0.073607 -0.025021 -0.012787 0.000000 0.000000 0.000000
# 2 -0.025021 0.025410 -0.006241 0.000000 0.000000 0.000000
# 3 -0.012787 -0.006241 0.022064 0.000000 0.000000 0.000000
# 4 0.000000 0.000000 0.000000 0.028262 0.000000 0.000000
# 5 0.000000 0.000000 0.000000 0.000000 0.046637 0.000000
# 6 0.000000 0.000000 0.000000 0.000000 0.000000 0.056541
#
#
# Mechanical properties :
#
#
# Convention : Reuss Voigt Hill
#
# Bulk Modulus (GPa) = 30.31753 47.38448 38.85101
# Shear Modulus (GPa) = 14.22012 20.31330 17.26671
#
# Velocity S-wave (km/s) = 2.71543 3.24547 2.99221
# Velocity P-wave (km/s) = 5.05489 6.21404 5.66420
#
# Compressibility (1/GPa) = 0.03298422
#
# Stress axis : x y z
#
# Youngs Moduli (GPa) = 13.58563 39.35389 45.32219
#
# Poissons Ratio (x) = 0.98468 0.57953
# Poissons Ratio (y) = 0.33993 0.28285
# Poissons Ratio (z) = 0.17372 0.24560
#
# Static dielectric constant tensor:
#      x y z
#    x 1.672940 0.000000 0.000000 
#    y 0.000000 1.667860 0.000000 
#    z 0.000000 0.000000 1.646760 
# 
# From -- ./inp_files/11163.got.cif
#   From: 2010.05.17/outbox.cif.g08.bks.cpg/sg71_6_cif.got.tgz:11163.got - 2010.06.03 16:22:01.
