data_PCOD9523617
_publ_section_title
;
Structure prediction by ZEFSAII (Michael W. Deem and Ramdas Pophale) SiO2 
 PCOD9523617
Probable space group: I M M M
;
_chemical_formula_sum "Si O2"
_cell_formula_units_Z 64
_cell_length_a 8.338583
_cell_length_b 26.882293
_cell_length_c 14.370467
_cell_angle_alpha 90.000000
_cell_angle_beta 90.000000
_cell_angle_gamma 90.000000
_cell_volume 3221.287208
_symmetry_space_group_name_H-M "I M M M"
_symmetry_group_IT_number 71
_symmetry_cell_setting 'orthorhombic'
loop_
_space_group_symop_operation_xyz
x,y,z
-x,-y,z
x,-y,-z
-x,y,-z
-x,-y,-z
x,y,-z
-x,y,z
x,-y,z
1/2+x,1/2+y,1/2+z
1/2-x,1/2-y,1/2+z
1/2+x,1/2-y,1/2-z
1/2-x,1/2+y,1/2-z
1/2-x,1/2-y,1/2-z
1/2+x,1/2+y,1/2-z
1/2-x,1/2+y,1/2+z
1/2+x,1/2-y,1/2+z
loop_
_atom_site_type_symbol
_atom_site_label
_atom_site_fract_x
_atom_site_fract_y
_atom_site_fract_z
Si Si1 0.821097 0.113662 0.611372
Si Si2 0.193862 0.107223 0.108015
Si Si3 0.500000 0.944139 0.613493
Si Si4 0.308764 0.000000 0.890694
Si Si5 0.685617 0.694735 0.258729
O O1 0.819020 0.117224 0.500000
O O2 0.665925 0.082212 0.640085
O O3 0.804340 0.166850 0.659955
O O4 0.000000 0.094176 0.638553
O O5 0.246889 0.053108 0.145785
O O6 0.254701 0.154277 0.167966
O O7 0.000000 0.107616 0.110161
O O8 0.245623 0.111594 0.000000
O O9 0.500000 0.945361 0.500000
O O10 0.500000 0.000000 0.649411
O O11 0.500000 0.000000 0.886509
O O12 0.257582 0.000000 0.000000
O O13 0.500000 0.699854 0.284718
O O14 0.750000 0.750000 0.250000
#
# Coordination Sequence:
#
# PCOD9523617 Si02
#       5
#    16  16   8   8  16
#     4   9  19  37  57  79 112 148 183 226 276 328
#     4   9  18  35  56  78 107 143 180 218 266 324
#     4   9  18  34  58  86 111 143 187 226 271 332
#     4   9  17  31  53  81 110 139 174 218 268 320
#     4  10  22  37  54  79 108 141 185 230 275 328
#
# _framework density 19.867833000000001
#
# number of rings (size 3 to 8) (size 9 to 14) (size 15 to 20)
#    0.000    2.750    0.000    0.375    1.750    4.000 
#    2.250    2.500    0.000    0.000    0.000    0.000 
#    0.000    0.000    0.000    0.000    0.000    0.000 
#
# Total GULP energy -178341.819064 kJ/mol
# GULP energy per Si atom -5573.181846 kJ/mol
# Density = 1.982261 g / cm^3
# Si number density = 19.867833 Si / 1000 Ang^3
#
#
#
# Elastic Constant Matrix: (Units=GPa)
#
#
# Indices 1 2 3 4 5 6 
#
# 1 101.0048 82.9172 23.8351 0.0000 0.0000 0.0000
# 2 82.9172 201.7678 47.0883 0.0000 0.0000 0.0000
# 3 23.8351 47.0883 62.8706 0.0000 0.0000 0.0000
# 4 0.0000 0.0000 0.0000 19.1416 0.0000 0.0000
# 5 0.0000 0.0000 0.0000 0.0000 10.4238 0.0000
# 6 0.0000 0.0000 0.0000 0.0000 0.0000 31.4419
#
#
#
# Elastic Compliance Matrix: (Units=1/GPa)
#
#
# Indices 1 2 3 4 5 6 
#
# 1 0.015028 -0.005873 -0.001299 0.000000 0.000000 0.000000
# 2 -0.005873 0.008301 -0.003991 0.000000 0.000000 0.000000
# 3 -0.001299 -0.003991 0.019387 0.000000 0.000000 0.000000
# 4 0.000000 0.000000 0.000000 0.052242 0.000000 0.000000
# 5 0.000000 0.000000 0.000000 0.000000 0.095934 0.000000
# 6 0.000000 0.000000 0.000000 0.000000 0.000000 0.031805
#
#
# Mechanical properties :
#
#
# Convention : Reuss Voigt Hill
#
# Bulk Modulus (GPa) = 49.04018 74.81384 61.92701
# Shear Modulus (GPa) = 19.85555 26.32164 23.08859
#
# Velocity S-wave (km/s) = 3.16473 3.64378 3.41267
# Velocity P-wave (km/s) = 6.17177 7.44583 6.83854
#
# Compressibility (1/GPa) = 0.02039144
#
# Stress axis : x y z
#
# Youngs Moduli (GPa) = 66.54211 120.46784 51.58078
#
# Poissons Ratio (x) = 0.70747 0.06700
# Poissons Ratio (y) = 0.39078 0.20585
# Poissons Ratio (z) = 0.08643 0.48076
#
# Static dielectric constant tensor:
#      x y z
#    x 1.711150 0.000000 0.000000 
#    y 0.000000 1.716270 0.000000 
#    z 0.000000 0.000000 1.742420 
# 
# From -- ./inp_files/31193.got.cif
#   From: 2010.05.17/outbox.cif.g08.bks.cpg/sg71_16_cif.got.tgz:31193.got - 2010.06.03 16:22:01.
