data_PCOD9523480
_publ_section_title
;
Structure prediction by ZEFSAII (Michael W. Deem and Ramdas Pophale) SiO2 
 PCOD9523480
Probable space group: I M M M
;
_chemical_formula_sum "Si O2"
_cell_formula_units_Z 50
_cell_length_a 15.956508
_cell_length_b 7.713178
_cell_length_c 22.286913
_cell_angle_alpha 90.000000
_cell_angle_beta 90.000000
_cell_angle_gamma 90.000000
_cell_volume 2742.970431
_symmetry_space_group_name_H-M "I M M M"
_symmetry_group_IT_number 71
_symmetry_cell_setting 'orthorhombic'
loop_
_space_group_symop_operation_xyz
x,y,z
-x,-y,z
x,-y,-z
-x,y,-z
-x,-y,-z
x,y,-z
-x,y,z
x,-y,z
1/2+x,1/2+y,1/2+z
1/2-x,1/2-y,1/2+z
1/2+x,1/2-y,1/2-z
1/2-x,1/2+y,1/2-z
1/2-x,1/2-y,1/2-z
1/2+x,1/2+y,1/2-z
1/2-x,1/2+y,1/2+z
1/2+x,1/2-y,1/2+z
loop_
_atom_site_type_symbol
_atom_site_label
_atom_site_fract_x
_atom_site_fract_y
_atom_site_fract_z
Si Si1 0.399328 0.198821 0.181360
Si Si2 0.709836 0.701475 0.067749
Si Si3 0.000000 0.000000 0.000000
Si Si4 0.398603 0.500000 0.727677
Si Si5 0.842564 0.000000 0.091035
O O1 0.500000 0.210038 0.175334
O O2 0.356508 0.252703 0.119141
O O3 0.373842 0.331370 0.233633
O O4 0.376910 0.000000 0.195342
O O5 0.734613 0.500000 0.074024
O O6 0.787456 0.831025 0.075578
O O7 0.676119 0.725181 0.000000
O O8 0.926363 0.000000 0.052210
O O9 0.500000 0.500000 0.722726
O O10 0.361056 0.500000 0.661750
#
# Coordination Sequence:
#
# PCOD9523480 Si02
#       5
#    16  16   2   8   8
#     4  10  21  39  62  93 131 165 204 249 306 377
#     4  11  23  40  62  93 128 163 208 259 306 368
#     4  12  24  48  74  92 114 178 210 256 326 352
#     4  10  22  40  63  91 124 166 204 256 311 372
#     4  12  24  44  69  88 124 162 215 265 310 364
#
# _framework density 18.228413
#
# number of rings (size 3 to 8) (size 9 to 14) (size 15 to 20)
#    0.000    1.280    5.600    0.000    0.000    3.200 
#    0.000    4.800    0.000    0.000    0.000    0.000 
#    0.000    0.000    0.000    0.000    0.000    0.000 
#
# Total GULP energy -139374.847971 kJ/mol
# GULP energy per Si atom -5574.993919 kJ/mol
# Density = 1.818692 g / cm^3
# Si number density = 18.228413 Si / 1000 Ang^3
#
#
#
# Elastic Constant Matrix: (Units=GPa)
#
#
# Indices 1 2 3 4 5 6 
#
# 1 35.4224 40.2774 43.8071 0.0000 0.0000 0.0000
# 2 40.2774 163.8530 82.7870 0.0000 0.0000 0.0000
# 3 43.8071 82.7870 184.8232 0.0000 0.0000 0.0000
# 4 0.0000 0.0000 0.0000 2.8940 0.0000 0.0000
# 5 0.0000 0.0000 0.0000 0.0000 40.0723 0.0000
# 6 0.0000 0.0000 0.0000 0.0000 0.0000 6.4188
#
#
#
# Elastic Compliance Matrix: (Units=1/GPa)
#
#
# Indices 1 2 3 4 5 6 
#
# 1 0.046139 -0.007517 -0.007569 0.000000 0.000000 0.000000
# 2 -0.007517 0.009113 -0.002300 0.000000 0.000000 0.000000
# 3 -0.007569 -0.002300 0.008235 0.000000 0.000000 0.000000
# 4 0.000000 0.000000 0.000000 0.345540 0.000000 0.000000
# 5 0.000000 0.000000 0.000000 0.000000 0.024955 0.000000
# 6 0.000000 0.000000 0.000000 0.000000 0.000000 0.155793
#
#
# Mechanical properties :
#
#
# Convention : Reuss Voigt Hill
#
# Bulk Modulus (GPa) = 34.82618 79.76017 57.29318
# Shear Modulus (GPa) = 7.88497 24.35883 16.12190
#
# Velocity S-wave (km/s) = 2.08208 3.65952 2.97718
# Velocity P-wave (km/s) = 4.99269 7.85539 6.58157
#
# Compressibility (1/GPa) = 0.02871403
#
# Stress axis : x y z
#
# Youngs Moduli (GPa) = 21.67383 109.73205 121.43574
#
# Poissons Ratio (x) = 0.82491 0.91910
# Poissons Ratio (y) = 0.16293 0.27933
# Poissons Ratio (z) = 0.16404 0.25240
#
# Static dielectric constant tensor:
#      x y z
#    x 1.599600 0.000000 0.000000 
#    y 0.000000 1.631280 0.000000 
#    z 0.000000 0.000000 1.605250 
# 
# From -- ./inp_files/5261.got.cif
#   From: 2010.05.17/outbox.cif.g08.bks.cpg/sg71_3_cif.got.tgz:5261.got - 2010.06.03 16:22:01.
