data_PCOD9523383
_publ_section_title
;
Structure prediction by ZEFSAII (Michael W. Deem and Ramdas Pophale) SiO2 
 PCOD9523383
Probable space group: I M M M
;
_chemical_formula_sum "Si O2"
_cell_formula_units_Z 66
_cell_length_a 30.685298
_cell_length_b 7.515863
_cell_length_c 14.455099
_cell_angle_alpha 90.000000
_cell_angle_beta 90.000000
_cell_angle_gamma 90.000000
_cell_volume 3333.728830
_symmetry_space_group_name_H-M "I M M M"
_symmetry_group_IT_number 71
_symmetry_cell_setting 'orthorhombic'
loop_
_space_group_symop_operation_xyz
x,y,z
-x,-y,z
x,-y,-z
-x,y,-z
-x,-y,-z
x,y,-z
-x,y,z
x,-y,z
1/2+x,1/2+y,1/2+z
1/2-x,1/2-y,1/2+z
1/2+x,1/2-y,1/2-z
1/2-x,1/2+y,1/2-z
1/2-x,1/2-y,1/2-z
1/2+x,1/2+y,1/2-z
1/2-x,1/2+y,1/2+z
1/2+x,1/2-y,1/2+z
loop_
_atom_site_type_symbol
_atom_site_label
_atom_site_fract_x
_atom_site_fract_y
_atom_site_fract_z
Si Si1 0.582900 0.789262 0.702994
Si Si2 0.000000 0.719894 0.327651
Si Si3 0.678689 0.212625 0.257250
Si Si4 0.549409 0.288405 0.500000
Si Si5 0.000000 0.000000 0.500000
Si Si6 0.245783 0.285703 0.395771
O O1 0.542423 0.731285 0.765982
O O2 0.630066 0.714644 0.731464
O O3 0.573114 0.761790 0.594835
O O4 0.585185 0.000000 0.717150
O O5 0.000000 0.841080 0.418752
O O6 0.000000 0.500000 0.342809
O O7 0.708394 0.243657 0.347276
O O8 0.707266 0.282011 0.171131
O O9 0.675530 0.000000 0.245162
O O10 0.546445 0.500000 0.500000
O O11 0.500000 0.214673 0.500000
O O12 0.243008 0.218612 0.500000
O O13 0.242396 0.500000 0.398317
#
# Coordination Sequence:
#
# PCOD9523383 Si02
#       6
#    16   8  16   8   2  16
#     4  10  21  38  60  87 120 158 199 246 296 363
#     4  10  23  44  68  93 124 163 209 253 306 364
#     4   9  19  35  55  79 110 149 191 239 292 346
#     4  11  23  35  57  87 120 157 195 237 303 370
#     4  12  26  44  72  88 124 168 202 268 308 356
#     4   9  18  34  54  78 108 145 189 239 293 350
#
# _framework density 19.797650000000001
#
# number of rings (size 3 to 8) (size 9 to 14) (size 15 to 20)
#    0.000    2.303    1.212    0.545    3.394    1.939 
#    2.182    0.000    0.000    0.000    0.000    0.000 
#    0.000    0.000    0.000    0.000    0.000    0.000 
#
# Total GULP energy -183833.119148 kJ/mol
# GULP energy per Si atom -5570.700580 kJ/mol
# Density = 1.975259 g / cm^3
# Si number density = 19.797650 Si / 1000 Ang^3
#
#
#
# Elastic Constant Matrix: (Units=GPa)
#
#
# Indices 1 2 3 4 5 6 
#
# 1 204.4093 19.8994 105.8222 0.0000 0.0000 0.0000
# 2 19.8994 66.1704 19.7267 0.0000 0.0000 0.0000
# 3 105.8222 19.7267 187.5947 0.0000 0.0000 0.0000
# 4 0.0000 0.0000 0.0000 10.5781 0.0000 0.0000
# 5 0.0000 0.0000 0.0000 0.0000 10.5942 0.0000
# 6 0.0000 0.0000 0.0000 0.0000 0.0000 15.3729
#
#
#
# Elastic Compliance Matrix: (Units=1/GPa)
#
#
# Indices 1 2 3 4 5 6 
#
# 1 0.006968 -0.000954 -0.003830 0.000000 0.000000 0.000000
# 2 -0.000954 0.015732 -0.001116 0.000000 0.000000 0.000000
# 3 -0.003830 -0.001116 0.007609 0.000000 0.000000 0.000000
# 4 0.000000 0.000000 0.000000 0.094535 0.000000 0.000000
# 5 0.000000 0.000000 0.000000 0.000000 0.094391 0.000000
# 6 0.000000 0.000000 0.000000 0.000000 0.000000 0.065050
#
#
# Mechanical properties :
#
#
# Convention : Reuss Voigt Hill
#
# Bulk Modulus (GPa) = 54.03036 83.23012 68.63024
# Shear Modulus (GPa) = 16.54233 28.15743 22.34988
#
# Velocity S-wave (km/s) = 2.89376 3.77538 3.36358
# Velocity P-wave (km/s) = 6.20610 7.81897 7.05875
#
# Compressibility (1/GPa) = 0.01850811
#
# Stress axis : x y z
#
# Youngs Moduli (GPa) = 143.51461 63.56435 131.42795
#
# Poissons Ratio (x) = 0.06061 0.50341
# Poissons Ratio (y) = 0.13685 0.14673
# Poissons Ratio (z) = 0.54971 0.07096
#
# Static dielectric constant tensor:
#      x y z
#    x 1.708510 0.000000 0.000000 
#    y 0.000000 1.758140 0.000000 
#    z 0.000000 0.000000 1.617150 
# 
# From -- ./inp_files/14262.got.cif
#   From: 2010.05.17/outbox.cif.g08.bks.cpg/sg71_8_cif.got.tgz:14262.got - 2010.06.03 16:22:01.
