data_PCOD9523305
_publ_section_title
;
Structure prediction by ZEFSAII (Michael W. Deem and Ramdas Pophale) SiO2 
 PCOD9523305
Probable space group: I M M M
;
_chemical_formula_sum "Si O2"
_cell_formula_units_Z 92
_cell_length_a 22.269451
_cell_length_b 7.477208
_cell_length_c 26.386322
_cell_angle_alpha 90.000000
_cell_angle_beta 90.000000
_cell_angle_gamma 90.000000
_cell_volume 4393.674004
_symmetry_space_group_name_H-M "I M M M"
_symmetry_group_IT_number 71
_symmetry_cell_setting 'orthorhombic'
loop_
_space_group_symop_operation_xyz
x,y,z
-x,-y,z
x,-y,-z
-x,y,-z
-x,-y,-z
x,y,-z
-x,y,z
x,-y,z
1/2+x,1/2+y,1/2+z
1/2-x,1/2-y,1/2+z
1/2+x,1/2-y,1/2-z
1/2-x,1/2+y,1/2-z
1/2-x,1/2-y,1/2-z
1/2+x,1/2+y,1/2-z
1/2-x,1/2+y,1/2+z
1/2+x,1/2-y,1/2+z
loop_
_atom_site_type_symbol
_atom_site_label
_atom_site_fract_x
_atom_site_fract_y
_atom_site_fract_z
Si Si1 0.376871 0.000000 0.060342
Si Si2 0.500000 0.000000 0.876391
Si Si3 0.932727 0.706854 0.887455
Si Si4 0.131362 0.213566 0.265689
Si Si5 0.683444 0.792471 0.336424
Si Si6 0.687010 0.716606 0.873316
Si Si7 0.572385 0.702124 0.500000
Si Si8 0.500000 0.716664 0.786657
O O1 0.340491 0.173215 0.080569
O O2 0.441118 0.000000 0.088565
O O3 0.383020 0.000000 0.000000
O O4 0.500000 0.172409 0.838953
O O5 0.937949 0.500000 0.871993
O O6 0.878410 0.791878 0.856529
O O7 0.912975 0.710909 0.946430
O O8 0.000000 0.785846 0.882873
O O9 0.177027 0.286171 0.224064
O O10 0.149092 0.262365 0.322751
O O11 0.061627 0.264517 0.257753
O O12 0.135477 0.000000 0.262368
O O13 0.745189 0.723984 0.359555
O O14 0.682863 0.000000 0.351834
O O15 0.684752 0.500000 0.880171
O O16 0.595421 0.500000 0.500000
O O17 0.500000 0.698497 0.500000
O O18 0.500000 0.500000 0.795159
#
# Coordination Sequence:
#
# PCOD9523305 Si02
#       8
#     8   4  16  16  16  16   8   8
#     4  12  27  46  74 104 129 170 225 277 336 401
#     4  12  23  44  76 100 136 170 210 277 342 386
#     4   9  18  34  52  76 108 149 197 256 310 367
#     4  10  21  37  61  90 127 171 213 259 320 388
#     4  10  22  36  58  90 124 165 217 262 316 382
#     4  10  23  45  65  91 133 174 215 266 326 397
#     4   9  17  31  51  71  97 141 191 241 304 363
#     4  10  22  39  61  99 138 179 217 259 332 406
#
# _framework density 20.939195999999999
#
# number of rings (size 3 to 8) (size 9 to 14) (size 15 to 20)
#    0.000    2.000    1.739    0.913    4.870    2.087 
#    1.565    0.000    0.000    1.565    0.000    0.000 
#    0.000    0.000    0.000    0.000    0.000    0.000 
#
# Total GULP energy -256707.804554 kJ/mol
# GULP energy per Si atom -5580.604447 kJ/mol
# Density = 2.089154 g / cm^3
# Si number density = 20.939196 Si / 1000 Ang^3
#
#
#
# Elastic Constant Matrix: (Units=GPa)
#
#
# Indices 1 2 3 4 5 6 
#
# 1 130.8051 27.6195 35.7151 0.0000 0.0000 0.0000
# 2 27.6195 76.2952 14.9712 0.0000 0.0000 0.0000
# 3 35.7151 14.9712 77.8886 0.0000 0.0000 0.0000
# 4 0.0000 0.0000 0.0000 99.3721 0.0000 0.0000
# 5 0.0000 0.0000 0.0000 0.0000 16.6292 0.0000
# 6 0.0000 0.0000 0.0000 0.0000 0.0000 -30.7086
#
#
#
# Elastic Compliance Matrix: (Units=1/GPa)
#
#
# Indices 1 2 3 4 5 6 
#
# 1 0.009211 -0.002604 -0.003723 0.000000 0.000000 0.000000
# 2 -0.002604 0.014357 -0.001566 0.000000 0.000000 0.000000
# 3 -0.003723 -0.001566 0.014847 0.000000 0.000000 0.000000
# 4 0.000000 0.000000 0.000000 0.010063 0.000000 0.000000
# 5 0.000000 0.000000 0.000000 0.000000 0.060135 0.000000
# 6 0.000000 0.000000 0.000000 0.000000 0.000000 -0.032564
#
#
# Mechanical properties :
#
#
# Convention : Reuss Voigt Hill
#
# Bulk Modulus (GPa) = 44.18978 49.06672 46.62825
# Shear Modulus (GPa) = 50.31269 30.83741 40.57505
#
# Velocity S-wave (km/s) = 4.90715 3.84176 4.40677
# Velocity P-wave (km/s) = 7.29771 6.56983 6.94331
#
# Compressibility (1/GPa) = 0.02262967
#
# Stress axis : x y z
#
# Youngs Moduli (GPa) = 108.56117 69.65313 67.35348
#
# Poissons Ratio (x) = 0.18138 0.25078
# Poissons Ratio (y) = 0.28269 0.10544
# Poissons Ratio (z) = 0.40420 0.10905
#
# Static dielectric constant tensor:
#      x y z
#    x 1.796570 0.000000 0.000000 
#    y 0.000000 1.775290 0.000000 
#    z 0.000000 0.000000 1.745640 
# 
# From -- ./inp_files/61613.got.cif
#   From: 2010.05.17/outbox.cif.g08.bks.cpg/sg71_31_cif.got.tgz:61613.got - 2010.06.03 16:22:01.
