data_PCOD9523110
_publ_section_title
;
Structure prediction by ZEFSAII (Michael W. Deem and Ramdas Pophale) SiO2 
 PCOD9523110
Probable space group: I M M M
;
_chemical_formula_sum "Si O2"
_cell_formula_units_Z 80
_cell_length_a 26.794000
_cell_length_b 19.421479
_cell_length_c 8.797040
_cell_angle_alpha 90.000000
_cell_angle_beta 90.000000
_cell_angle_gamma 90.000000
_cell_volume 4577.795831
_symmetry_space_group_name_H-M "I M M M"
_symmetry_group_IT_number 71
_symmetry_cell_setting 'orthorhombic'
loop_
_space_group_symop_operation_xyz
x,y,z
-x,-y,z
x,-y,-z
-x,y,-z
-x,-y,-z
x,y,-z
-x,y,z
x,-y,z
1/2+x,1/2+y,1/2+z
1/2-x,1/2-y,1/2+z
1/2+x,1/2-y,1/2-z
1/2-x,1/2+y,1/2-z
1/2-x,1/2-y,1/2-z
1/2+x,1/2+y,1/2-z
1/2-x,1/2+y,1/2+z
1/2+x,1/2-y,1/2+z
loop_
_atom_site_type_symbol
_atom_site_label
_atom_site_fract_x
_atom_site_fract_y
_atom_site_fract_z
Si Si1 0.201943 0.080435 0.682558
Si Si2 0.108074 0.173990 0.685120
Si Si3 0.000000 0.669360 0.675001
Si Si4 0.808345 0.581680 0.680461
Si Si5 0.895185 0.673400 0.180904
Si Si6 0.500000 0.662994 0.825417
O O1 0.208161 0.085689 0.500000
O O2 0.154617 0.126400 0.726525
O O3 0.253372 0.102271 0.761548
O O4 0.193054 0.000000 0.719022
O O5 0.105740 0.178623 0.500000
O O6 0.113806 0.250541 0.750241
O O7 0.054233 0.144634 0.739802
O O8 0.948952 0.648535 0.756737
O O9 0.000000 0.646830 0.500000
O O10 0.000000 0.753285 0.674640
O O11 0.812084 0.592587 0.500000
O O12 0.813602 0.500000 0.711336
O O13 0.851268 0.623873 0.763737
O O14 0.896766 0.677505 0.000000
O O15 0.500000 0.638450 0.000000
#
# Coordination Sequence:
#
# PCOD9523110 Si02
#       6
#    16  16   8  16  16   8
#     4   9  18  33  52  74 101 134 173 217 261 303
#     4   9  17  31  51  74 103 138 173 210 254 304
#     4   9  17  33  54  75 104 137 167 202 248 301
#     4  10  21  37  55  73  97 133 172 209 257 313
#     4  11  21  33  53  80 106 132 167 210 252 297
#     4   7  12  25  46  70  96 130 165 196 238 291
#
# _framework density 17.475659
#
# number of rings (size 3 to 8) (size 9 to 14) (size 15 to 20)
#    0.000    2.600    0.000    3.900    0.000    2.800 
#    0.000    1.000    0.000    6.000    0.000    0.000 
#    0.000    8.000    0.000    0.000    0.000    0.000 
#
# Total GULP energy -222992.720672 kJ/mol
# GULP energy per Si atom -5574.818017 kJ/mol
# Density = 1.743588 g / cm^3
# Si number density = 17.475659 Si / 1000 Ang^3
#
#
#
# Elastic Constant Matrix: (Units=GPa)
#
#
# Indices 1 2 3 4 5 6 
#
# 1 196.0551 69.7726 68.1930 0.0000 0.0000 0.0000
# 2 69.7726 40.9643 35.4030 0.0000 0.0000 0.0000
# 3 68.1930 35.4030 58.7387 0.0000 0.0000 0.0000
# 4 0.0000 0.0000 0.0000 16.3518 0.0000 0.0000
# 5 0.0000 0.0000 0.0000 0.0000 28.8459 0.0000
# 6 0.0000 0.0000 0.0000 0.0000 0.0000 -86.2087
#
#
#
# Elastic Compliance Matrix: (Units=1/GPa)
#
#
# Indices 1 2 3 4 5 6 
#
# 1 0.013333 -0.019478 -0.003739 0.000000 0.000000 0.000000
# 2 -0.019478 0.079407 -0.025247 0.000000 0.000000 0.000000
# 3 -0.003739 -0.025247 0.036583 0.000000 0.000000 0.000000
# 4 0.000000 0.000000 0.000000 0.061155 0.000000 0.000000
# 5 0.000000 0.000000 0.000000 0.000000 0.034667 0.000000
# 6 0.000000 0.000000 0.000000 0.000000 0.000000 -0.011600
#
#
# Mechanical properties :
#
#
# Convention : Reuss Voigt Hill
#
# Bulk Modulus (GPa) = 30.86996 71.38838 51.12917
# Shear Modulus (GPa) = 15.56310 -0.04290 7.76010
#
# Velocity S-wave (km/s) = 2.98746 -0.15684 2.10954
# Velocity P-wave (km/s) = 5.44084 6.39578 5.93754
#
# Compressibility (1/GPa) = 0.03239396
#
# Stress axis : x y z
#
# Youngs Moduli (GPa) = 75.00085 12.59333 27.33528
#
# Poissons Ratio (x) = 0.24529 0.10222
# Poissons Ratio (y) = 1.46087 0.69014
# Poissons Ratio (z) = 0.28046 0.31794
#
# Static dielectric constant tensor:
#      x y z
#    x 1.607060 0.000000 0.000000 
#    y 0.000000 1.568360 0.000000 
#    z 0.000000 0.000000 1.589210 
# 
# From -- ./inp_files/10301.got.cif
#   From: 2010.05.17/outbox.cif.g08.bks.cpg/sg71_6_cif.got.tgz:10301.got - 2010.06.03 16:22:01.
