data_PCOD9523476
_publ_section_title
;
Structure prediction by ZEFSAII (Michael W. Deem and Ramdas Pophale) SiO2 
 PCOD9523476
Probable space group: I M M M
;
_chemical_formula_sum "Si O2"
_cell_formula_units_Z 116
_cell_length_a 25.800043
_cell_length_b 8.967151
_cell_length_c 26.914571
_cell_angle_alpha 90.000000
_cell_angle_beta 90.000000
_cell_angle_gamma 90.000000
_cell_volume 6226.763552
_symmetry_space_group_name_H-M "I M M M"
_symmetry_group_IT_number 71
_symmetry_cell_setting 'orthorhombic'
loop_
_space_group_symop_operation_xyz
x,y,z
-x,-y,z
x,-y,-z
-x,y,-z
-x,-y,-z
x,y,-z
-x,y,z
x,-y,z
1/2+x,1/2+y,1/2+z
1/2-x,1/2-y,1/2+z
1/2+x,1/2-y,1/2-z
1/2-x,1/2+y,1/2-z
1/2-x,1/2-y,1/2-z
1/2+x,1/2+y,1/2-z
1/2-x,1/2+y,1/2+z
1/2+x,1/2-y,1/2+z
loop_
_atom_site_type_symbol
_atom_site_label
_atom_site_fract_x
_atom_site_fract_y
_atom_site_fract_z
Si Si1 0.701026 0.324635 0.776145
Si Si2 0.341023 0.664952 0.602494
Si Si3 0.440255 0.675532 0.133562
Si Si4 0.360083 0.822495 0.057635
Si Si5 0.090695 0.321983 0.263057
Si Si6 0.766894 0.173179 0.390509
Si Si7 0.556974 0.679346 0.338268
Si Si8 0.649636 0.500000 0.500000
O O1 0.696895 0.500000 0.763775
O O2 0.750000 0.250000 0.750000
O O3 0.649449 0.238150 0.760849
O O4 0.709207 0.312321 0.835377
O O5 0.328766 0.500000 0.625336
O O6 0.291812 0.769086 0.610277
O O7 0.394007 0.720552 0.627595
O O8 0.349345 0.627417 0.544557
O O9 0.500000 0.692294 0.117549
O O10 0.429193 0.500000 0.140545
O O11 0.400991 0.742182 0.093405
O O12 0.432590 0.757316 0.186037
O O13 0.302733 0.769533 0.073101
O O14 0.363933 0.000000 0.064399
O O15 0.369742 0.787042 0.000000
O O16 0.089159 0.500000 0.263605
O O17 0.062470 0.257409 0.214807
O O18 0.769082 0.000000 0.404806
O O19 0.500000 0.714203 0.359794
O O20 0.559241 0.500000 0.331661
#
# Coordination Sequence:
#
# PCOD9523476 Si02
#       8
#    16  16  16  16  16  16  16   4
#     4  11  23  38  58  87 125 165 207 255 308 372
#     4   9  20  38  61  87 124 162 203 254 312 373
#     4  11  24  43  65  90 123 163 209 260 312 370
#     4  11  25  42  64  92 122 161 208 259 313 371
#     4  12  24  38  60  90 125 166 210 255 312 378
#     4  11  23  38  60  90 124 162 208 255 308 372
#     4  10  21  39  62  90 122 161 207 258 314 375
#     4   8  20  40  63  92 124 166 207 262 314 380
#
# _framework density 18.629261
#
# number of rings (size 3 to 8) (size 9 to 14) (size 15 to 20)
#    0.414    0.966    1.379    4.138    0.966    8.828 
#    0.000    2.069    0.000    0.000    0.000    0.000 
#    0.000    2.207    0.000    0.000    0.000    0.000 
#
# Total GULP energy -323497.514675 kJ/mol
# GULP energy per Si atom -5577.543356 kJ/mol
# Density = 1.858686 g / cm^3
# Si number density = 18.629261 Si / 1000 Ang^3
#
#
#
# Elastic Constant Matrix: (Units=GPa)
#
#
# Indices 1 2 3 4 5 6 
#
# 1 116.0570 33.9880 22.1769 0.0000 0.0000 0.0000
# 2 33.9880 50.3504 16.7023 0.0000 0.0000 0.0000
# 3 22.1769 16.7023 41.0910 0.0000 0.0000 0.0000
# 4 0.0000 0.0000 0.0000 26.5858 0.0000 0.0000
# 5 0.0000 0.0000 0.0000 0.0000 -5.9344 0.0000
# 6 0.0000 0.0000 0.0000 0.0000 0.0000 28.8583
#
#
#
# Elastic Compliance Matrix: (Units=1/GPa)
#
#
# Indices 1 2 3 4 5 6 
#
# 1 0.011140 -0.006386 -0.003416 0.000000 0.000000 0.000000
# 2 -0.006386 0.026617 -0.007372 0.000000 0.000000 0.000000
# 3 -0.003416 -0.007372 0.029177 0.000000 0.000000 0.000000
# 4 0.000000 0.000000 0.000000 0.037614 0.000000 0.000000
# 5 0.000000 0.000000 0.000000 0.000000 -0.168510 0.000000
# 6 0.000000 0.000000 0.000000 0.000000 0.000000 0.034652
#
#
# Mechanical properties :
#
#
# Convention : Reuss Voigt Hill
#
# Bulk Modulus (GPa) = 30.69029 39.24811 34.96920
# Shear Modulus (GPa) = 314.45484 18.87735 166.66610
#
# Velocity S-wave (km/s) = 13.00625 3.18672 9.46884
# Velocity P-wave (km/s) = 15.55828 5.88676 11.76253
#
# Compressibility (1/GPa) = 0.03258360
#
# Stress axis : x y z
#
# Youngs Moduli (GPa) = 89.77059 37.56949 34.27396
#
# Poissons Ratio (x) = 0.23993 0.11709
# Poissons Ratio (y) = 0.57330 0.25268
# Poissons Ratio (z) = 0.30667 0.27698
#
# Static dielectric constant tensor:
#      x y z
#    x 1.650420 0.000000 0.000000 
#    y 0.000000 1.626560 0.000000 
#    z 0.000000 0.000000 1.621250 
# 
# From -- ./inp_files/66921.got.cif
#   From: 2010.05.17/outbox.cif.g08.bks.cpg/sg71_34_cif.got.tgz:66921.got - 2010.06.03 16:22:01.
