data_PCOD9523394
_publ_section_title
;
Structure prediction by ZEFSAII (Michael W. Deem and Ramdas Pophale) SiO2 
 PCOD9523394
Probable space group: I M M M
;
_chemical_formula_sum "Si O2"
_cell_formula_units_Z 112
_cell_length_a 13.863885
_cell_length_b 14.832472
_cell_length_c 27.926499
_cell_angle_alpha 90.000000
_cell_angle_beta 90.000000
_cell_angle_gamma 90.000000
_cell_volume 5742.684782
_symmetry_space_group_name_H-M "I M M M"
_symmetry_group_IT_number 71
_symmetry_cell_setting 'orthorhombic'
loop_
_space_group_symop_operation_xyz
x,y,z
-x,-y,z
x,-y,-z
-x,y,-z
-x,-y,-z
x,y,-z
-x,y,z
x,-y,z
1/2+x,1/2+y,1/2+z
1/2-x,1/2-y,1/2+z
1/2+x,1/2-y,1/2-z
1/2-x,1/2+y,1/2-z
1/2-x,1/2-y,1/2-z
1/2+x,1/2+y,1/2-z
1/2-x,1/2+y,1/2+z
1/2+x,1/2-y,1/2+z
loop_
_atom_site_type_symbol
_atom_site_label
_atom_site_fract_x
_atom_site_fract_y
_atom_site_fract_z
Si Si1 0.886903 0.392891 0.857471
Si Si2 0.884969 0.740165 0.945868
Si Si3 0.219633 0.892254 0.109496
Si Si4 0.782036 0.821962 0.289383
Si Si5 0.606668 0.604975 0.295353
Si Si6 0.117212 0.098351 0.444490
Si Si7 0.885848 0.264347 0.621899
O O1 0.877701 0.500000 0.865665
O O2 0.866268 0.336145 0.905776
O O3 0.809813 0.362861 0.817200
O O4 0.000000 0.375643 0.844187
O O5 0.834088 0.833032 0.930387
O O6 0.000000 0.755066 0.945126
O O7 0.857576 0.713629 0.000000
O O8 0.170284 0.861682 0.159984
O O9 0.328397 0.855730 0.111695
O O10 0.213410 0.000000 0.103489
O O11 0.750000 0.750000 0.250000
O O12 0.843005 0.888782 0.256013
O O13 0.852157 0.775253 0.327451
O O14 0.500000 0.647625 0.294908
O O15 0.596190 0.500000 0.306112
O O16 0.144939 0.104383 0.500000
O O17 0.145536 0.186479 0.415510
O O18 0.000000 0.096901 0.442911
O O19 0.149932 0.000000 0.425369
O O20 0.000000 0.276123 0.619673
#
# Coordination Sequence:
#
# PCOD9523394 Si02
#       7
#    16  16  16  16  16  16  16
#     4  10  22  41  66  98 136 172 203 245 310 386
#     4  10  21  40  67  97 128 163 206 257 313 376
#     4  11  23  42  62  86 123 165 211 266 322 374
#     4  12  22  39  60  87 125 164 205 255 301 358
#     4  10  21  38  61  87 117 156 201 250 306 366
#     4   8  16  34  60  88 118 152 189 233 292 363
#     4  11  23  39  60  90 123 161 208 259 311 367
#
# _framework density 19.503072
#
# number of rings (size 3 to 8) (size 9 to 14) (size 15 to 20)
#    0.000    1.714    2.857    1.714    0.000    5.714 
#    0.000    3.571    0.000    0.000    0.000    3.000 
#    0.000    0.000    0.000    0.000    0.000    0.000 
#
# Total GULP energy -312516.217223 kJ/mol
# GULP energy per Si atom -5580.646736 kJ/mol
# Density = 1.945868 g / cm^3
# Si number density = 19.503072 Si / 1000 Ang^3
#
#
#
# Elastic Constant Matrix: (Units=GPa)
#
#
# Indices 1 2 3 4 5 6 
#
# 1 134.4149 47.7454 46.2969 0.0000 0.0000 0.0000
# 2 47.7454 112.7942 47.8880 0.0000 0.0000 0.0000
# 3 46.2969 47.8880 106.2016 0.0000 0.0000 0.0000
# 4 0.0000 0.0000 0.0000 25.7372 0.0000 0.0000
# 5 0.0000 0.0000 0.0000 0.0000 28.1109 0.0000
# 6 0.0000 0.0000 0.0000 0.0000 0.0000 31.7319
#
#
#
# Elastic Compliance Matrix: (Units=1/GPa)
#
#
# Indices 1 2 3 4 5 6 
#
# 1 0.009406 -0.002771 -0.002851 0.000000 0.000000 0.000000
# 2 -0.002771 0.011781 -0.004104 0.000000 0.000000 0.000000
# 3 -0.002851 -0.004104 0.012510 0.000000 0.000000 0.000000
# 4 0.000000 0.000000 0.000000 0.038854 0.000000 0.000000
# 5 0.000000 0.000000 0.000000 0.000000 0.035573 0.000000
# 6 0.000000 0.000000 0.000000 0.000000 0.000000 0.031514
#
#
# Mechanical properties :
#
#
# Convention : Reuss Voigt Hill
#
# Bulk Modulus (GPa) = 70.20431 70.80794 70.50612
# Shear Modulus (GPa) = 30.51777 31.21468 30.86622
#
# Velocity S-wave (km/s) = 3.96001 4.00497 3.98255
# Velocity P-wave (km/s) = 7.54874 7.60074 7.57478
#
# Compressibility (1/GPa) = 0.01424414
#
# Stress axis : x y z
#
# Youngs Moduli (GPa) = 106.31629 84.88057 79.93907
#
# Poissons Ratio (x) = 0.23522 0.22789
# Poissons Ratio (y) = 0.29462 0.32810
# Poissons Ratio (z) = 0.30309 0.34838
#
# Static dielectric constant tensor:
#      x y z
#    x 1.737200 0.000000 0.000000 
#    y 0.000000 1.710780 0.000000 
#    z 0.000000 0.000000 1.655850 
# 
# From -- ./inp_files/59927.got.cif
#   From: 2010.05.17/outbox.cif.g08.bks.cpg/sg71_30_cif.got.tgz:59927.got - 2010.06.03 16:22:01.
