data_PCOD9523815
_publ_section_title
;
Structure prediction by ZEFSAII (Michael W. Deem and Ramdas Pophale) SiO2 
 PCOD9523815
Probable space group: I M M M
;
_chemical_formula_sum "Si O2"
_cell_formula_units_Z 88
_cell_length_a 27.812261
_cell_length_b 19.812159
_cell_length_c 8.516152
_cell_angle_alpha 90.000000
_cell_angle_beta 90.000000
_cell_angle_gamma 90.000000
_cell_volume 4692.578055
_symmetry_space_group_name_H-M "I M M M"
_symmetry_group_IT_number 71
_symmetry_cell_setting 'orthorhombic'
loop_
_space_group_symop_operation_xyz
x,y,z
-x,-y,z
x,-y,-z
-x,y,-z
-x,-y,-z
x,y,-z
-x,y,z
x,-y,z
1/2+x,1/2+y,1/2+z
1/2-x,1/2-y,1/2+z
1/2+x,1/2-y,1/2-z
1/2-x,1/2+y,1/2-z
1/2-x,1/2-y,1/2-z
1/2+x,1/2+y,1/2-z
1/2-x,1/2+y,1/2+z
1/2+x,1/2-y,1/2+z
loop_
_atom_site_type_symbol
_atom_site_label
_atom_site_fract_x
_atom_site_fract_y
_atom_site_fract_z
Si Si1 0.000000 0.078844 0.811355
Si Si2 0.095972 0.152044 0.686981
Si Si3 0.444316 0.074073 0.308811
Si Si4 0.191342 0.922032 0.189837
Si Si5 0.273957 0.181581 0.188783
Si Si6 0.880743 0.699100 0.811287
O O1 0.952091 0.116896 0.753185
O O2 0.000000 0.000000 0.759998
O O3 0.000000 0.079602 0.000000
O O4 0.093656 0.151307 0.500000
O O5 0.143324 0.111745 0.742705
O O6 0.102604 0.228879 0.745010
O O7 0.443017 0.074520 0.500000
O O8 0.500000 0.079786 0.262896
O O9 0.414539 0.138169 0.254910
O O10 0.426232 0.000000 0.258215
O O11 0.238536 0.879439 0.235585
O O12 0.194818 0.000000 0.237356
O O13 0.187940 0.919137 0.000000
O O14 0.250000 0.250000 0.250000
O O15 0.326984 0.180689 0.259415
O O16 0.276973 0.182863 0.000000
O O17 0.882585 0.703459 0.000000
#
# Coordination Sequence:
#
# PCOD9523815 Si02
#       6
#     8  16  16  16  16  16
#     4  11  25  45  67  89 120 161 202 247 301 362
#     4  12  25  40  61  91 125 160 200 250 301 354
#     4   8  16  33  57  86 118 153 197 247 294 343
#     4  10  22  41  64  88 117 158 204 247 300 365
#     4  11  22  38  60  85 118 157 197 245 299 356
#     4  11  22  36  60  90 122 161 203 249 299 359
#
# _framework density 18.753018999999998
#
# number of rings (size 3 to 8) (size 9 to 14) (size 15 to 20)
#    0.000    1.545    1.818    4.091    1.273    4.727 
#    0.000    0.000    0.000    1.636    0.000    5.091 
#    0.000    0.000    0.000    0.000    0.000    0.000 
#
# Total GULP energy -245823.088591 kJ/mol
# GULP energy per Si atom -5586.888377 kJ/mol
# Density = 1.871034 g / cm^3
# Si number density = 18.753019 Si / 1000 Ang^3
#
#
#
# Elastic Constant Matrix: (Units=GPa)
#
#
# Indices 1 2 3 4 5 6 
#
# 1 150.9906 122.8644 34.9574 0.0000 0.0000 0.0000
# 2 122.8644 226.5316 47.9625 0.0000 0.0000 0.0000
# 3 34.9574 47.9625 48.2655 0.0000 0.0000 0.0000
# 4 0.0000 0.0000 0.0000 11.9425 0.0000 0.0000
# 5 0.0000 0.0000 0.0000 0.0000 33.2790 0.0000
# 6 0.0000 0.0000 0.0000 0.0000 0.0000 40.9103
#
#
#
# Elastic Compliance Matrix: (Units=1/GPa)
#
#
# Indices 1 2 3 4 5 6 
#
# 1 0.012158 -0.005990 -0.002853 0.000000 0.000000 0.000000
# 2 -0.005990 0.008542 -0.004150 0.000000 0.000000 0.000000
# 3 -0.002853 -0.004150 0.026909 0.000000 0.000000 0.000000
# 4 0.000000 0.000000 0.000000 0.083735 0.000000 0.000000
# 5 0.000000 0.000000 0.000000 0.000000 0.030049 0.000000
# 6 0.000000 0.000000 0.000000 0.000000 0.000000 0.024444
#
#
# Mechanical properties :
#
#
# Convention : Reuss Voigt Hill
#
# Bulk Modulus (GPa) = 46.24784 93.03958 69.64371
# Shear Modulus (GPa) = 22.82805 31.89326 27.36066
#
# Velocity S-wave (km/s) = 3.49277 4.12843 3.82383
# Velocity P-wave (km/s) = 6.40164 8.51152 7.53084
#
# Compressibility (1/GPa) = 0.02162263
#
# Stress axis : x y z
#
# Youngs Moduli (GPa) = 82.25345 117.07218 37.16228
#
# Poissons Ratio (x) = 0.70124 0.10603
# Poissons Ratio (y) = 0.49268 0.15422
# Poissons Ratio (z) = 0.23468 0.48583
#
# Static dielectric constant tensor:
#      x y z
#    x 1.581890 0.000000 0.000000 
#    y 0.000000 1.632460 0.000000 
#    z 0.000000 0.000000 1.644430 
# 
# From -- ./inp_files/12562.got.cif
#   From: 2010.05.17/outbox.cif.g08.bks.cpg/sg71_7_cif.got.tgz:12562.got - 2010.06.03 16:22:01.
