data_PCOD9523577
_publ_section_title
;
Structure prediction by ZEFSAII (Michael W. Deem and Ramdas Pophale) SiO2 
 PCOD9523577
Probable space group: I M M M
;
_chemical_formula_sum "Si O2"
_cell_formula_units_Z 68
_cell_length_a 7.711115
_cell_length_b 23.219720
_cell_length_c 17.363492
_cell_angle_alpha 90.000000
_cell_angle_beta 90.000000
_cell_angle_gamma 90.000000
_cell_volume 3108.932048
_symmetry_space_group_name_H-M "I M M M"
_symmetry_group_IT_number 71
_symmetry_cell_setting 'orthorhombic'
loop_
_space_group_symop_operation_xyz
x,y,z
-x,-y,z
x,-y,-z
-x,y,-z
-x,-y,-z
x,y,-z
-x,y,z
x,-y,z
1/2+x,1/2+y,1/2+z
1/2-x,1/2-y,1/2+z
1/2+x,1/2-y,1/2-z
1/2-x,1/2+y,1/2-z
1/2-x,1/2-y,1/2-z
1/2+x,1/2+y,1/2-z
1/2-x,1/2+y,1/2+z
1/2+x,1/2-y,1/2+z
loop_
_atom_site_type_symbol
_atom_site_label
_atom_site_fract_x
_atom_site_fract_y
_atom_site_fract_z
Si Si1 0.800897 0.775254 0.833418
Si Si2 0.191699 0.400326 0.623229
Si Si3 0.289897 0.659832 0.086583
Si Si4 0.000000 0.081062 0.000000
Si Si5 0.709773 0.436315 0.207104
O O1 0.750000 0.750000 0.750000
O O2 0.700288 0.831292 0.861640
O O3 0.778689 0.722718 0.892016
O O4 0.000000 0.793794 0.828381
O O5 0.346721 0.417447 0.566824
O O6 0.220232 0.427311 0.707424
O O7 0.000000 0.415588 0.594666
O O8 0.500000 0.662464 0.090276
O O9 0.230354 0.613828 0.149839
O O10 0.240518 0.643524 0.000000
O O11 0.500000 0.432795 0.210985
O O12 0.755974 0.500000 0.178588
#
# Coordination Sequence:
#
# PCOD9523577 Si02
#       5
#    16  16  16   4  16
#     4  12  23  39  63  95 137 180 227 276 335 406
#     4  12  25  44  69 102 137 180 225 277 344 415
#     4  10  22  38  61  99 138 178 229 280 336 400
#     4  12  26  48  69 104 142 168 223 282 350 416
#     4  10  21  42  69  95 132 181 231 284 339 401
#
# _framework density 21.872464000000001
#
# number of rings (size 3 to 8) (size 9 to 14) (size 15 to 20)
#    0.000    0.941    4.706    2.471    1.647    1.412 
#    0.000    3.529    0.000    1.412    0.000    3.294 
#    0.000    0.000    0.000    0.000    0.000    0.000 
#
# Total GULP energy -189746.872056 kJ/mol
# GULP energy per Si atom -5580.790355 kJ/mol
# Density = 2.182268 g / cm^3
# Si number density = 21.872464 Si / 1000 Ang^3
#
#
#
# Elastic Constant Matrix: (Units=GPa)
#
#
# Indices 1 2 3 4 5 6 
#
# 1 129.2267 -7.4026 24.8387 0.0000 0.0000 0.0000
# 2 -7.4026 69.1564 -10.5281 0.0000 0.0000 0.0000
# 3 24.8387 -10.5281 106.2251 0.0000 0.0000 0.0000
# 4 0.0000 0.0000 0.0000 -23.6617 0.0000 0.0000
# 5 0.0000 0.0000 0.0000 0.0000 17.3442 0.0000
# 6 0.0000 0.0000 0.0000 0.0000 0.0000 12.7745
#
#
#
# Elastic Compliance Matrix: (Units=1/GPa)
#
#
# Indices 1 2 3 4 5 6 
#
# 1 0.008126 0.000589 -0.001842 0.000000 0.000000 0.000000
# 2 0.000589 0.014724 0.001322 0.000000 0.000000 0.000000
# 3 -0.001842 0.001322 0.009976 0.000000 0.000000 0.000000
# 4 0.000000 0.000000 0.000000 -0.042262 0.000000 0.000000
# 5 0.000000 0.000000 0.000000 0.000000 0.057656 0.000000
# 6 0.000000 0.000000 0.000000 0.000000 0.000000 0.078281
#
#
# Mechanical properties :
#
#
# Convention : Reuss Voigt Hill
#
# Bulk Modulus (GPa) = 30.33571 35.38047 32.85809
# Shear Modulus (GPa) = 36.40321 21.13806 28.77064
#
# Velocity S-wave (km/s) = 4.08406 3.11211 3.63075
# Velocity P-wave (km/s) = 6.01156 5.39672 5.71242
#
# Compressibility (1/GPa) = 0.03296445
#
# Stress axis : x y z
#
# Youngs Moduli (GPa) = 123.06025 67.91515 100.24463
#
# Poissons Ratio (x) = -0.04003 0.18462
# Poissons Ratio (y) = -0.07254 -0.13247
# Poissons Ratio (z) = 0.22664 -0.08975
#
# Static dielectric constant tensor:
#      x y z
#    x 1.824360 0.000000 0.000000 
#    y 0.000000 1.772840 0.000000 
#    z 0.000000 0.000000 1.765570 
# 
# From -- ./inp_files/9634.got.cif
#   From: 2010.05.17/outbox.cif.g08.bks.cpg/sg71_5_cif.got.tgz:9634.got - 2010.06.03 16:22:01.
