data_PCOD9523682
_publ_section_title
;
Structure prediction by ZEFSAII (Michael W. Deem and Ramdas Pophale) SiO2 
 PCOD9523682
Probable space group: I M M M
;
_chemical_formula_sum "Si O2"
_cell_formula_units_Z 90
_cell_length_a 26.337792
_cell_length_b 20.480373
_cell_length_c 7.637755
_cell_angle_alpha 90.000000
_cell_angle_beta 90.000000
_cell_angle_gamma 90.000000
_cell_volume 4119.864653
_symmetry_space_group_name_H-M "I M M M"
_symmetry_group_IT_number 71
_symmetry_cell_setting 'orthorhombic'
loop_
_space_group_symop_operation_xyz
x,y,z
-x,-y,z
x,-y,-z
-x,y,-z
-x,-y,-z
x,y,-z
-x,y,z
x,-y,z
1/2+x,1/2+y,1/2+z
1/2-x,1/2-y,1/2+z
1/2+x,1/2-y,1/2-z
1/2-x,1/2+y,1/2-z
1/2-x,1/2-y,1/2-z
1/2+x,1/2+y,1/2-z
1/2-x,1/2+y,1/2+z
1/2+x,1/2-y,1/2+z
loop_
_atom_site_type_symbol
_atom_site_label
_atom_site_fract_x
_atom_site_fract_y
_atom_site_fract_z
Si Si1 0.582078 0.500000 0.687971
Si Si2 0.664942 0.927171 0.714138
Si Si3 0.943576 0.226777 0.788511
Si Si4 0.055889 0.620158 0.213161
Si Si5 0.250294 0.673395 0.789548
Si Si6 0.000000 0.000000 0.500000
Si Si7 0.358433 0.375608 0.203619
O O1 0.556244 0.500000 0.500000
O O2 0.616758 0.436273 0.701555
O O3 0.543748 0.500000 0.847527
O O4 0.664410 0.925258 0.500000
O O5 0.606881 0.915385 0.772288
O O6 0.702602 0.869610 0.773858
O O7 0.681967 0.000000 0.764932
O O8 0.939563 0.303055 0.741483
O O9 0.898005 0.184163 0.716030
O O10 0.000000 0.203136 0.733588
O O11 0.941556 0.223036 0.000000
O O12 0.000000 0.596929 0.272258
O O13 0.055363 0.616508 0.000000
O O14 0.250000 0.750000 0.750000
O O15 0.303656 0.644565 0.725317
O O16 0.249996 0.667889 0.000000
O O17 0.352487 0.393421 0.000000
#
# Coordination Sequence:
#
# PCOD9523682 Si02
#       7
#     8  16  16  16  16   2  16
#     4  12  27  45  69  96 131 183 221 274 346 405
#     4   9  17  29  49  77 106 148 194 235 303 380
#     4   9  18  32  53  79 108 148 193 242 305 376
#     4   8  14  26  45  74 111 143 183 242 302 371
#     4  10  22  38  61  85 116 160 207 266 325 387
#     4  12  26  52  68  98 140 172 234 280 324 410
#     4  11  23  39  57  85 122 161 211 272 330 387
#
# _framework density 21.845379000000001
#
# number of rings (size 3 to 8) (size 9 to 14) (size 15 to 20)
#    0.000    2.311    0.889    2.800    2.489    3.556 
#    0.000    1.778    0.000    0.000    0.000    0.000 
#    0.000    0.000    0.000   15.289    0.000   12.444 
#
# Total GULP energy -251142.575195 kJ/mol
# GULP energy per Si atom -5580.946115 kJ/mol
# Density = 2.179566 g / cm^3
# Si number density = 21.845379 Si / 1000 Ang^3
#
#
#
# Elastic Constant Matrix: (Units=GPa)
#
#
# Indices 1 2 3 4 5 6 
#
# 1 183.9163 84.1427 21.9028 0.0000 0.0000 0.0000
# 2 84.1427 111.5958 12.4366 0.0000 0.0000 0.0000
# 3 21.9028 12.4366 76.6819 0.0000 0.0000 0.0000
# 4 0.0000 0.0000 0.0000 16.4899 0.0000 0.0000
# 5 0.0000 0.0000 0.0000 0.0000 -21.0948 0.0000
# 6 0.0000 0.0000 0.0000 0.0000 0.0000 74.8014
#
#
#
# Elastic Compliance Matrix: (Units=1/GPa)
#
#
# Indices 1 2 3 4 5 6 
#
# 1 0.008447 -0.006212 -0.001405 0.000000 0.000000 0.000000
# 2 -0.006212 0.013695 -0.000447 0.000000 0.000000 0.000000
# 3 -0.001405 -0.000447 0.013515 0.000000 0.000000 0.000000
# 4 0.000000 0.000000 0.000000 0.060643 0.000000 0.000000
# 5 0.000000 0.000000 0.000000 0.000000 -0.047405 0.000000
# 6 0.000000 0.000000 0.000000 0.000000 0.000000 0.013369
#
#
# Mechanical properties :
#
#
# Convention : Reuss Voigt Hill
#
# Bulk Modulus (GPa) = 51.20834 67.68427 59.44631
# Shear Modulus (GPa) = 58.89255 30.95340 44.92298
#
# Velocity S-wave (km/s) = 5.19782 3.76830 4.53968
# Velocity P-wave (km/s) = 7.71461 7.06994 7.39930
#
# Compressibility (1/GPa) = 0.01952807
#
# Stress axis : x y z
#
# Youngs Moduli (GPa) = 118.38938 73.02126 73.99365
#
# Poissons Ratio (x) = 0.45362 0.10397
# Poissons Ratio (y) = 0.73546 0.03305
# Poissons Ratio (z) = 0.16635 0.03262
#
# Static dielectric constant tensor:
#      x y z
#    x 1.774840 0.000000 0.000000 
#    y 0.000000 1.761700 0.000000 
#    z 0.000000 0.000000 1.830300 
# 
# From -- ./inp_files/12627.got.cif
#   From: 2010.05.17/outbox.cif.g08.bks.cpg/sg71_7_cif.got.tgz:12627.got - 2010.06.03 16:22:01.
