data_PCOD9523089
_publ_section_title
;
Structure prediction by ZEFSAII (Michael W. Deem and Ramdas Pophale) SiO2 
 PCOD9523089
Probable space group: I M M M
;
_chemical_formula_sum "Si O2"
_cell_formula_units_Z 52
_cell_length_a 16.508704
_cell_length_b 7.785361
_cell_length_c 21.491001
_cell_angle_alpha 90.000000
_cell_angle_beta 90.000000
_cell_angle_gamma 90.000000
_cell_volume 2762.157129
_symmetry_space_group_name_H-M "I M M M"
_symmetry_group_IT_number 71
_symmetry_cell_setting 'orthorhombic'
loop_
_space_group_symop_operation_xyz
x,y,z
-x,-y,z
x,-y,-z
-x,y,-z
-x,-y,-z
x,y,-z
-x,y,z
x,-y,z
1/2+x,1/2+y,1/2+z
1/2-x,1/2-y,1/2+z
1/2+x,1/2-y,1/2-z
1/2-x,1/2+y,1/2-z
1/2-x,1/2-y,1/2-z
1/2+x,1/2+y,1/2-z
1/2-x,1/2+y,1/2+z
1/2+x,1/2-y,1/2+z
loop_
_atom_site_type_symbol
_atom_site_label
_atom_site_fract_x
_atom_site_fract_y
_atom_site_fract_z
Si Si1 0.592053 0.000000 0.676163
Si Si2 0.000000 0.199430 0.607269
Si Si3 0.320196 0.294528 0.068026
Si Si4 0.500000 0.000000 0.796064
Si Si5 0.213488 0.195762 0.817189
O O1 0.643730 0.830232 0.663299
O O2 0.500000 0.000000 0.649897
O O3 0.576630 0.000000 0.750470
O O4 0.916904 0.229709 0.570855
O O5 0.000000 0.329994 0.663861
O O6 0.000000 0.000000 0.627355
O O7 0.305648 0.500000 0.072692
O O8 0.279890 0.209424 0.127993
O O9 0.290333 0.236019 0.000000
O O10 0.250000 0.250000 0.750000
O O11 0.184422 0.000000 0.812130
#
# Coordination Sequence:
#
# PCOD9523089 Si02
#       5
#     8   8  16   4  16
#     4  10  24  42  61  90 124 161 216 266 317 369
#     4  10  21  36  58  90 132 173 207 246 305 385
#     4  10  21  39  63  92 131 173 210 256 314 380
#     4  10  22  36  61  88 123 162 206 256 306 372
#     4  12  23  40  65  91 127 170 213 264 320 370
#
# _framework density 18.825865
#
# number of rings (size 3 to 8) (size 9 to 14) (size 15 to 20)
#    0.462    0.923    3.077    2.308    2.154    6.769 
#    0.000    0.769    0.000    1.846    0.000    2.154 
#    0.000    0.000    0.000    0.000    0.000    0.000 
#
# Total GULP energy -145074.616583 kJ/mol
# GULP energy per Si atom -5579.792945 kJ/mol
# Density = 1.878302 g / cm^3
# Si number density = 18.825865 Si / 1000 Ang^3
#
#
#
# Elastic Constant Matrix: (Units=GPa)
#
#
# Indices 1 2 3 4 5 6 
#
# 1 100.1830 52.9237 25.8287 0.0000 0.0000 0.0000
# 2 52.9237 110.0765 23.3009 0.0000 0.0000 0.0000
# 3 25.8287 23.3009 108.8328 0.0000 0.0000 0.0000
# 4 0.0000 0.0000 0.0000 19.5139 0.0000 0.0000
# 5 0.0000 0.0000 0.0000 0.0000 -1.9669 0.0000
# 6 0.0000 0.0000 0.0000 0.0000 0.0000 -0.7750
#
#
#
# Elastic Compliance Matrix: (Units=1/GPa)
#
#
# Indices 1 2 3 4 5 6 
#
# 1 0.013759 -0.006205 -0.001937 0.000000 0.000000 0.000000
# 2 -0.006205 0.012314 -0.001164 0.000000 0.000000 0.000000
# 3 -0.001937 -0.001164 0.009897 0.000000 0.000000 0.000000
# 4 0.000000 0.000000 0.000000 0.051245 0.000000 0.000000
# 5 0.000000 0.000000 0.000000 0.000000 -0.508411 0.000000
# 6 0.000000 0.000000 0.000000 0.000000 0.000000 -1.290303
#
#
# Mechanical properties :
#
#
# Convention : Reuss Voigt Hill
#
# Bulk Modulus (GPa) = 57.60738 58.13320 57.87029
# Shear Modulus (GPa) = -2.96367 17.82367 7.43000
#
# Velocity S-wave (km/s) = -1.25605 3.08029 1.98879
# Velocity P-wave (km/s) = 5.34444 6.60283 6.00668
#
# Compressibility (1/GPa) = 0.01735889
#
# Stress axis : x y z
#
# Youngs Moduli (GPa) = 72.67901 81.20589 101.03830
#
# Poissons Ratio (x) = 0.50390 0.19570
# Poissons Ratio (y) = 0.45099 0.11759
# Poissons Ratio (z) = 0.14077 0.09451
#
# Static dielectric constant tensor:
#      x y z
#    x 1.675620 0.000000 0.000000 
#    y 0.000000 1.682710 0.000000 
#    z 0.000000 0.000000 1.645730 
# 
# From -- ./inp_files/11871.got.cif
#   From: 2010.05.17/outbox.cif.g08.bks.cpg/sg71_6_cif.got.tgz:11871.got - 2010.06.03 16:22:01.
