data_PCOD9523780
_publ_section_title
;
Structure prediction by ZEFSAII (Michael W. Deem and Ramdas Pophale) SiO2 
 PCOD9523780
Probable space group: I M M M
;
_chemical_formula_sum "Si O2"
_cell_formula_units_Z 72
_cell_length_a 19.573616
_cell_length_b 8.887496
_cell_length_c 22.429127
_cell_angle_alpha 90.000000
_cell_angle_beta 90.000000
_cell_angle_gamma 90.000000
_cell_volume 3901.780665
_symmetry_space_group_name_H-M "I M M M"
_symmetry_group_IT_number 71
_symmetry_cell_setting 'orthorhombic'
loop_
_space_group_symop_operation_xyz
x,y,z
-x,-y,z
x,-y,-z
-x,y,-z
-x,-y,-z
x,y,-z
-x,y,z
x,-y,z
1/2+x,1/2+y,1/2+z
1/2-x,1/2-y,1/2+z
1/2+x,1/2-y,1/2-z
1/2-x,1/2+y,1/2-z
1/2-x,1/2-y,1/2-z
1/2+x,1/2+y,1/2-z
1/2-x,1/2+y,1/2+z
1/2+x,1/2-y,1/2+z
loop_
_atom_site_type_symbol
_atom_site_label
_atom_site_fract_x
_atom_site_fract_y
_atom_site_fract_z
Si Si1 0.920011 0.820710 0.768665
Si Si2 0.920380 0.320589 0.640972
Si Si3 0.159836 0.819347 0.887993
Si Si4 0.298492 0.320518 0.070152
Si Si5 0.918696 0.321151 0.000000
O O1 0.903807 0.733335 0.708074
O O2 0.873724 0.777665 0.824740
O O3 0.000000 0.793694 0.783226
O O4 0.912168 0.000000 0.758072
O O5 0.913038 0.500000 0.636494
O O6 0.869487 0.239916 0.595856
O O7 0.000000 0.281723 0.630076
O O8 0.235992 0.757043 0.895533
O O9 0.159663 0.000000 0.892637
O O10 0.115214 0.751113 0.941656
O O11 0.294417 0.500000 0.077139
O O12 0.291813 0.285002 0.000000
O O13 0.905168 0.500000 0.000000
O O14 0.000000 0.296706 0.000000
#
# Coordination Sequence:
#
# PCOD9523780 Si02
#       5
#    16  16  16  16   8
#     4   9  19  37  60  87 119 154 195 242 293 350
#     4  10  22  40  63  90 117 149 193 244 298 354
#     4  11  22  37  60  87 118 157 199 246 295 344
#     4  11  24  41  61  85 118 157 197 243 296 355
#     4  11  23  37  55  83 120 161 202 243 289 345
#
# _framework density 18.453113999999999
#
# number of rings (size 3 to 8) (size 9 to 14) (size 15 to 20)
#    0.000    1.667    1.111    3.000    0.000    7.556 
#    0.000    4.444    0.000    0.000    0.000    0.000 
#    0.000    0.000    0.000    0.000    0.000    0.000 
#
# Total GULP energy -201214.025508 kJ/mol
# GULP energy per Si atom -5589.278486 kJ/mol
# Density = 1.841111 g / cm^3
# Si number density = 18.453114 Si / 1000 Ang^3
#
#
#
# Elastic Constant Matrix: (Units=GPa)
#
#
# Indices 1 2 3 4 5 6 
#
# 1 77.0638 38.3804 34.0170 0.0000 0.0000 0.0000
# 2 38.3804 45.6123 26.1704 0.0000 0.0000 0.0000
# 3 34.0170 26.1704 40.1994 0.0000 0.0000 0.0000
# 4 0.0000 0.0000 0.0000 29.3475 0.0000 0.0000
# 5 0.0000 0.0000 0.0000 0.0000 221.6304 0.0000
# 6 0.0000 0.0000 0.0000 0.0000 0.0000 33.7013
#
#
#
# Elastic Compliance Matrix: (Units=1/GPa)
#
#
# Indices 1 2 3 4 5 6 
#
# 1 0.025605 -0.014548 -0.012197 0.000000 0.000000 0.000000
# 2 -0.014548 0.043261 -0.015853 0.000000 0.000000 0.000000
# 3 -0.012197 -0.015853 0.045517 0.000000 0.000000 0.000000
# 4 0.000000 0.000000 0.000000 0.034074 0.000000 0.000000
# 5 0.000000 0.000000 0.000000 0.000000 0.004512 0.000000
# 6 0.000000 0.000000 0.000000 0.000000 0.000000 0.029672
#
#
# Mechanical properties :
#
#
# Convention : Reuss Voigt Hill
#
# Bulk Modulus (GPa) = 34.25976 40.00124 37.13050
# Shear Modulus (GPa) = 18.01370 61.22302 39.61836
#
# Velocity S-wave (km/s) = 3.12779 5.76625 4.63857
# Velocity P-wave (km/s) = 5.62585 8.12755 6.98954
#
# Compressibility (1/GPa) = 0.02918876
#
# Stress axis : x y z
#
# Youngs Moduli (GPa) = 39.05463 23.11562 21.96960
#
# Poissons Ratio (x) = 0.33628 0.26795
# Poissons Ratio (y) = 0.56815 0.34829
# Poissons Ratio (z) = 0.47633 0.36646
#
# Static dielectric constant tensor:
#      x y z
#    x 1.621850 0.000000 0.000000 
#    y 0.000000 1.614430 0.000000 
#    z 0.000000 0.000000 1.602120 
# 
# From -- ./inp_files/7939.got.cif
#   From: 2010.05.17/outbox.cif.g08.bks.cpg/sg71_4_cif.got.tgz:7939.got - 2010.06.03 16:22:01.
