data_PCOD9523779
_publ_section_title
;
Structure prediction by ZEFSAII (Michael W. Deem and Ramdas Pophale) SiO2 
 PCOD9523779
Probable space group: I M M M
;
_chemical_formula_sum "Si O2"
_cell_formula_units_Z 84
_cell_length_a 20.729300
_cell_length_b 15.429256
_cell_length_c 15.307502
_cell_angle_alpha 90.000000
_cell_angle_beta 90.000000
_cell_angle_gamma 90.000000
_cell_volume 4895.915871
_symmetry_space_group_name_H-M "I M M M"
_symmetry_group_IT_number 71
_symmetry_cell_setting 'orthorhombic'
loop_
_space_group_symop_operation_xyz
x,y,z
-x,-y,z
x,-y,-z
-x,y,-z
-x,-y,-z
x,y,-z
-x,y,z
x,-y,z
1/2+x,1/2+y,1/2+z
1/2-x,1/2-y,1/2+z
1/2+x,1/2-y,1/2-z
1/2-x,1/2+y,1/2-z
1/2-x,1/2-y,1/2-z
1/2+x,1/2+y,1/2-z
1/2-x,1/2+y,1/2+z
1/2+x,1/2-y,1/2+z
loop_
_atom_site_type_symbol
_atom_site_label
_atom_site_fract_x
_atom_site_fract_y
_atom_site_fract_z
Si Si1 0.375715 0.832539 0.194668
Si Si2 0.500000 0.399002 0.754722
Si Si3 0.576109 0.810094 0.500000
Si Si4 0.748997 0.400440 0.395798
Si Si5 0.500000 0.244957 0.896205
Si Si6 0.617282 0.689612 0.338745
Si Si7 0.926453 0.500000 0.794392
Si Si8 0.901494 0.500000 0.000000
O O1 0.310793 0.852099 0.142805
O O2 0.436557 0.808788 0.133221
O O3 0.366031 0.751729 0.258299
O O4 0.393272 0.915005 0.254829
O O5 0.500000 0.500000 0.779010
O O6 0.500000 0.333279 0.837791
O O7 0.562130 0.374945 0.695920
O O8 0.500000 0.837193 0.500000
O O9 0.589768 0.750824 0.415780
O O10 0.619872 0.897422 0.500000
O O11 0.753489 0.399293 0.500000
O O12 0.750816 0.500000 0.365395
O O13 0.681323 0.358402 0.369458
O O14 0.500000 0.260643 0.000000
O O15 0.000000 0.500000 0.763703
O O16 0.927768 0.500000 0.899848
#
# Coordination Sequence:
#
# PCOD9523779 Si02
#       8
#    16   8   8  16   8  16   8   4
#     4  11  22  38  59  83 118 152 194 237 291 349
#     4  10  22  40  63  89 113 147 191 239 290 346
#     4  12  21  36  56  92 120 153 192 237 292 349
#     4  11  23  38  56  82 113 153 198 244 290 343
#     4  10  22  40  63  89 113 147 191 239 290 346
#     4  11  22  38  59  83 118 152 194 237 291 349
#     4  12  21  36  56  92 120 153 192 237 292 349
#     4  12  25  32  64  92 128 156 188 245 290 353
#
# _framework density 17.157157999999999
#
# number of rings (size 3 to 8) (size 9 to 14) (size 15 to 20)
#    0.000    0.952    5.714    2.571    0.000    0.190 
#    0.000    0.952    0.000    0.000    0.000    0.000 
#    0.000    0.000    0.000    0.000    0.000    0.000 
#
# Total GULP energy -234255.847493 kJ/mol
# GULP energy per Si atom -5577.520178 kJ/mol
# Density = 1.711811 g / cm^3
# Si number density = 17.157158 Si / 1000 Ang^3
#
#
#
# Elastic Constant Matrix: (Units=GPa)
#
#
# Indices 1 2 3 4 5 6 
#
# 1 112.8922 46.2137 45.2386 0.0000 0.0000 0.0000
# 2 46.2137 99.6878 34.6863 0.0000 0.0000 0.0000
# 3 45.2386 34.6863 96.8483 0.0000 0.0000 0.0000
# 4 0.0000 0.0000 0.0000 32.2992 0.0000 0.0000
# 5 0.0000 0.0000 0.0000 0.0000 17.4823 0.0000
# 6 0.0000 0.0000 0.0000 0.0000 0.0000 -69.0012
#
#
#
# Elastic Compliance Matrix: (Units=1/GPa)
#
#
# Indices 1 2 3 4 5 6 
#
# 1 0.012279 -0.004223 -0.004223 0.000000 0.000000 0.000000
# 2 -0.004223 0.012912 -0.002652 0.000000 0.000000 0.000000
# 3 -0.004223 -0.002652 0.013248 0.000000 0.000000 0.000000
# 4 0.000000 0.000000 0.000000 0.030961 0.000000 0.000000
# 5 0.000000 0.000000 0.000000 0.000000 0.057201 0.000000
# 6 0.000000 0.000000 0.000000 0.000000 0.000000 -0.014493
#
#
# Mechanical properties :
#
#
# Convention : Reuss Voigt Hill
#
# Bulk Modulus (GPa) = 61.56574 62.41174 61.98874
# Shear Modulus (GPa) = 35.78655 8.37538 22.08096
#
# Velocity S-wave (km/s) = 4.57202 2.21182 3.59135
# Velocity P-wave (km/s) = 7.98952 6.55579 7.30790
#
# Compressibility (1/GPa) = 0.01624280
#
# Stress axis : x y z
#
# Youngs Moduli (GPa) = 81.43958 77.44926 75.48398
#
# Poissons Ratio (x) = 0.32706 0.31878
# Poissons Ratio (y) = 0.34391 0.20017
# Poissons Ratio (z) = 0.34394 0.20538
#
# Static dielectric constant tensor:
#      x y z
#    x 1.557110 0.000000 0.000000 
#    y 0.000000 1.580880 0.000000 
#    z 0.000000 0.000000 1.559310 
# 
# From -- ./inp_files/37804.got.cif
#   From: 2010.05.17/outbox.cif.g08.bks.cpg/sg71_19_cif.got.tgz:37804.got - 2010.06.03 16:22:01.
