data_PCOD9523390
_publ_section_title
;
Structure prediction by ZEFSAII (Michael W. Deem and Ramdas Pophale) SiO2 
 PCOD9523390
Probable space group: I M M M
;
_chemical_formula_sum "Si O2"
_cell_formula_units_Z 88
_cell_length_a 23.216058
_cell_length_b 7.956858
_cell_length_c 23.470303
_cell_angle_alpha 90.000000
_cell_angle_beta 90.000000
_cell_angle_gamma 90.000000
_cell_volume 4335.595771
_symmetry_space_group_name_H-M "I M M M"
_symmetry_group_IT_number 71
_symmetry_cell_setting 'orthorhombic'
loop_
_space_group_symop_operation_xyz
x,y,z
-x,-y,z
x,-y,-z
-x,y,-z
-x,-y,-z
x,y,-z
-x,y,z
x,-y,z
1/2+x,1/2+y,1/2+z
1/2-x,1/2-y,1/2+z
1/2+x,1/2-y,1/2-z
1/2-x,1/2+y,1/2-z
1/2-x,1/2-y,1/2-z
1/2+x,1/2+y,1/2-z
1/2-x,1/2+y,1/2+z
1/2+x,1/2-y,1/2+z
loop_
_atom_site_type_symbol
_atom_site_label
_atom_site_fract_x
_atom_site_fract_y
_atom_site_fract_z
Si Si1 0.314336 0.193408 0.732580
Si Si2 0.936440 0.794969 0.435034
Si Si3 0.000000 0.705999 0.933073
Si Si4 0.336229 0.700083 0.146257
Si Si5 0.120947 0.701505 0.120755
Si Si6 0.264583 0.298545 0.563212
O O1 0.250000 0.250000 0.750000
O O2 0.345309 0.217131 0.792724
O O3 0.350924 0.269978 0.680166
O O4 0.307418 0.000000 0.717312
O O5 0.928921 0.739889 0.500000
O O6 0.885247 0.736071 0.396000
O O7 0.000000 0.744761 0.415328
O O8 0.934913 0.000000 0.435340
O O9 0.058485 0.762738 0.900691
O O10 0.000000 0.500000 0.932924
O O11 0.000000 0.756212 0.000000
O O12 0.340579 0.500000 0.154062
O O13 0.276003 0.734904 0.114230
O O14 0.114771 0.500000 0.126539
O O15 0.170493 0.739384 0.074712
O O16 0.245100 0.241300 0.500000
O O17 0.262989 0.500000 0.564455
#
# Coordination Sequence:
#
# PCOD9523390 Si02
#       6
#    16  16   8  16  16  16
#     4  11  22  37  57  82 113 149 188 231 281 338
#     4   8  15  30  52  78 108 141 181 230 278 327
#     4   9  18  36  63  91 115 143 190 249 298 347
#     4  11  21  34  56  83 111 147 190 234 281 338
#     4  10  21  38  61  85 111 149 194 238 288 347
#     4  11  23  36  54  83 117 148 182 232 289 342
#
# _framework density 20.297094999999999
#
# number of rings (size 3 to 8) (size 9 to 14) (size 15 to 20)
#    0.000    1.909    1.818    3.273    0.000    3.636 
#    1.636    0.455    0.000    3.273    0.000    6.364 
#    0.000    0.000    0.000    0.000    0.000    0.000 
#
# Total GULP energy -245448.976877 kJ/mol
# GULP energy per Si atom -5578.385838 kJ/mol
# Density = 2.025090 g / cm^3
# Si number density = 20.297095 Si / 1000 Ang^3
#
#
#
# Elastic Constant Matrix: (Units=GPa)
#
#
# Indices 1 2 3 4 5 6 
#
# 1 123.8842 8.1780 59.7380 0.0000 0.0000 0.0000
# 2 8.1780 16.3408 3.5768 0.0000 0.0000 0.0000
# 3 59.7380 3.5768 121.0198 0.0000 0.0000 0.0000
# 4 0.0000 0.0000 0.0000 20.6817 0.0000 0.0000
# 5 0.0000 0.0000 0.0000 0.0000 22.8384 0.0000
# 6 0.0000 0.0000 0.0000 0.0000 0.0000 1.0093
#
#
#
# Elastic Compliance Matrix: (Units=1/GPa)
#
#
# Indices 1 2 3 4 5 6 
#
# 1 0.010886 -0.004300 -0.005246 0.000000 0.000000 0.000000
# 2 -0.004300 0.063293 0.000252 0.000000 0.000000 0.000000
# 3 -0.005246 0.000252 0.010845 0.000000 0.000000 0.000000
# 4 0.000000 0.000000 0.000000 0.048352 0.000000 0.000000
# 5 0.000000 0.000000 0.000000 0.000000 0.043786 0.000000
# 6 0.000000 0.000000 0.000000 0.000000 0.000000 0.990810
#
#
# Mechanical properties :
#
#
# Convention : Reuss Voigt Hill
#
# Bulk Modulus (GPa) = 15.05208 44.91450 29.98329
# Shear Modulus (GPa) = 4.13665 21.55600 12.84633
#
# Velocity S-wave (km/s) = 1.42915 3.26241 2.51851
# Velocity P-wave (km/s) = 3.18673 6.03056 4.82301
#
# Compressibility (1/GPa) = 0.06643602
#
# Stress axis : x y z
#
# Youngs Moduli (GPa) = 91.86338 15.79944 92.20508
#
# Poissons Ratio (x) = 0.06793 0.48374
# Poissons Ratio (y) = 0.39498 -0.02321
# Poissons Ratio (z) = 0.48195 -0.00398
#
# Static dielectric constant tensor:
#      x y z
#    x 1.744790 0.000000 0.000000 
#    y 0.000000 1.731720 0.000000 
#    z 0.000000 0.000000 1.756620 
# 
# From -- ./inp_files/55529.got.cif
#   From: 2010.05.17/outbox.cif.g08.bks.cpg/sg71_28_cif.got.tgz:55529.got - 2010.06.03 16:22:01.
