data_PCOD9523921
_publ_section_title
;
Structure prediction by ZEFSAII (Michael W. Deem and Ramdas Pophale) SiO2 
 PCOD9523921
Probable space group: I M M M
;
_chemical_formula_sum "Si O2"
_cell_formula_units_Z 64
_cell_length_a 8.716566
_cell_length_b 23.222064
_cell_length_c 15.889366
_cell_angle_alpha 90.000000
_cell_angle_beta 90.000000
_cell_angle_gamma 90.000000
_cell_volume 3216.272292
_symmetry_space_group_name_H-M "I M M M"
_symmetry_group_IT_number 71
_symmetry_cell_setting 'orthorhombic'
loop_
_space_group_symop_operation_xyz
x,y,z
-x,-y,z
x,-y,-z
-x,y,-z
-x,-y,-z
x,y,-z
-x,y,z
x,-y,z
1/2+x,1/2+y,1/2+z
1/2-x,1/2-y,1/2+z
1/2+x,1/2-y,1/2-z
1/2-x,1/2+y,1/2-z
1/2-x,1/2-y,1/2-z
1/2+x,1/2+y,1/2-z
1/2-x,1/2+y,1/2+z
1/2+x,1/2-y,1/2+z
loop_
_atom_site_type_symbol
_atom_site_label
_atom_site_fract_x
_atom_site_fract_y
_atom_site_fract_z
Si Si1 0.673269 0.385567 0.600636
Si Si2 0.175589 0.752742 0.158047
Si Si3 0.833276 0.193845 0.500000
Si Si4 0.000000 0.569178 0.328827
Si Si5 0.249261 0.932603 0.500000
Si Si6 0.500000 0.067488 0.357798
O O1 0.673818 0.390792 0.500000
O O2 0.500000 0.406778 0.629181
O O3 0.679969 0.318647 0.626528
O O4 0.834271 0.412435 0.632737
O O5 0.250000 0.750000 0.250000
O O6 0.000000 0.734412 0.165388
O O7 0.250846 0.714609 0.084855
O O8 0.848156 0.124952 0.500000
O O9 0.000000 0.221884 0.500000
O O10 0.000000 0.594848 0.233627
O O11 0.000000 0.500000 0.332884
O O12 0.354523 0.924189 0.417462
O O13 0.194634 0.000000 0.500000
O O14 0.500000 0.000000 0.338982
#
# Coordination Sequence:
#
# PCOD9523921 Si02
#       6
#    16  16   8   8   8   8
#     4  10  23  43  64  89 129 171 208 262 326 388
#     4  11  25  43  65  94 129 172 216 271 331 387
#     4  12  26  39  64 100 130 169 221 263 321 403
#     4  11  24  40  68 101 125 167 219 268 326 383
#     4   9  20  39  62  88 128 172 209 261 322 382
#     4   8  18  38  62  90 123 165 214 254 311 382
#
# _framework density 19.898812
#
# number of rings (size 3 to 8) (size 9 to 14) (size 15 to 20)
#    0.000    1.750    1.250    2.250   10.500    1.750 
#    0.000    1.250    0.000    4.500    0.000    0.000 
#    0.000    0.000    0.000    0.000    0.000    0.000 
#
# Total GULP energy -178255.862347 kJ/mol
# GULP energy per Si atom -5570.495698 kJ/mol
# Density = 1.985352 g / cm^3
# Si number density = 19.898812 Si / 1000 Ang^3
#
#
#
# Elastic Constant Matrix: (Units=GPa)
#
#
# Indices 1 2 3 4 5 6 
#
# 1 198.0183 64.0168 94.8138 0.0000 0.0000 0.0000
# 2 64.0168 89.4652 36.7746 0.0000 0.0000 0.0000
# 3 94.8138 36.7746 157.2812 0.0000 0.0000 0.0000
# 4 0.0000 0.0000 0.0000 25.3513 0.0000 0.0000
# 5 0.0000 0.0000 0.0000 0.0000 22.7400 0.0000
# 6 0.0000 0.0000 0.0000 0.0000 0.0000 27.5231
#
#
#
# Elastic Compliance Matrix: (Units=1/GPa)
#
#
# Indices 1 2 3 4 5 6 
#
# 1 0.008389 -0.004341 -0.004042 0.000000 0.000000 0.000000
# 2 -0.004341 0.014613 -0.000800 0.000000 0.000000 0.000000
# 3 -0.004042 -0.000800 0.008982 0.000000 0.000000 0.000000
# 4 0.000000 0.000000 0.000000 0.039446 0.000000 0.000000
# 5 0.000000 0.000000 0.000000 0.000000 0.043975 0.000000
# 6 0.000000 0.000000 0.000000 0.000000 0.000000 0.036333
#
#
# Mechanical properties :
#
#
# Convention : Reuss Voigt Hill
#
# Bulk Modulus (GPa) = 73.43546 92.88613 83.16079
# Shear Modulus (GPa) = 28.62997 31.73350 30.18173
#
# Velocity S-wave (km/s) = 3.79724 3.99776 3.89879
# Velocity P-wave (km/s) = 7.49733 8.25167 7.88352
#
# Compressibility (1/GPa) = 0.01361740
#
# Stress axis : x y z
#
# Youngs Moduli (GPa) = 119.20562 68.43428 111.33799
#
# Poissons Ratio (x) = 0.29709 0.45003
# Poissons Ratio (y) = 0.51749 0.08903
# Poissons Ratio (z) = 0.48183 0.05472
#
# Static dielectric constant tensor:
#      x y z
#    x 1.692880 0.000000 0.000000 
#    y 0.000000 1.708990 0.000000 
#    z 0.000000 0.000000 1.639780 
# 
# From -- ./inp_files/31249.got.cif
#   From: 2010.05.17/outbox.cif.g08.bks.cpg/sg71_16_cif.got.tgz:31249.got - 2010.06.03 16:22:01.
