data_PCOD9523432
_publ_section_title
;
Structure prediction by ZEFSAII (Michael W. Deem and Ramdas Pophale) SiO2 
 PCOD9523432
Probable space group: I M M M
;
_chemical_formula_sum "Si O2"
_cell_formula_units_Z 88
_cell_length_a 11.568797
_cell_length_b 17.052763
_cell_length_c 23.965579
_cell_angle_alpha 90.000000
_cell_angle_beta 90.000000
_cell_angle_gamma 90.000000
_cell_volume 4727.928309
_symmetry_space_group_name_H-M "I M M M"
_symmetry_group_IT_number 71
_symmetry_cell_setting 'orthorhombic'
loop_
_space_group_symop_operation_xyz
x,y,z
-x,-y,z
x,-y,-z
-x,y,-z
-x,-y,-z
x,y,-z
-x,y,z
x,-y,z
1/2+x,1/2+y,1/2+z
1/2-x,1/2-y,1/2+z
1/2+x,1/2-y,1/2-z
1/2-x,1/2+y,1/2-z
1/2-x,1/2-y,1/2-z
1/2+x,1/2+y,1/2-z
1/2-x,1/2+y,1/2+z
1/2+x,1/2-y,1/2+z
loop_
_atom_site_type_symbol
_atom_site_label
_atom_site_fract_x
_atom_site_fract_y
_atom_site_fract_z
Si Si1 0.361892 0.000000 0.565866
Si Si2 0.368564 0.890831 0.000000
Si Si3 0.500000 0.408031 0.706209
Si Si4 0.500000 0.588301 0.838954
Si Si5 0.861161 0.413471 0.624877
Si Si6 0.869372 0.794369 0.500000
Si Si7 0.759984 0.150952 0.386411
Si Si8 0.715137 0.709939 0.309354
O O1 0.314305 0.074774 0.599276
O O2 0.500000 0.000000 0.565247
O O3 0.323147 0.000000 0.500000
O O4 0.316410 0.911339 0.939503
O O5 0.500000 0.921429 0.000000
O O6 0.378193 0.798196 0.000000
O O7 0.500000 0.500000 0.684459
O O8 0.500000 0.416056 0.772712
O O9 0.610549 0.352891 0.692704
O O10 0.500000 0.500000 0.863113
O O11 0.381431 0.629752 0.856683
O O12 0.831881 0.500000 0.648192
O O13 0.815895 0.342373 0.662262
O O14 0.000000 0.407172 0.621690
O O15 0.799904 0.817089 0.554273
O O16 0.000000 0.828351 0.500000
O O17 0.694748 0.216565 0.350491
O O18 0.750000 0.750000 0.250000
#
# Coordination Sequence:
#
# PCOD9523432 Si02
#       8
#     8   8   8   8  16   8  16  16
#     4  11  26  45  63  91 137 180 217 256 313 400
#     4   9  17  32  58  95 129 157 194 250 320 387
#     4  11  26  48  67  90 127 178 225 265 321 385
#     4  11  22  39  66  97 127 165 218 278 327 387
#     4  10  21  38  63  95 130 163 200 256 323 382
#     4  11  20  32  62 100 131 162 207 269 329 390
#     4  12  23  40  65  97 131 170 218 268 330 388
#     4  12  26  41  66  91 130 168 220 266 316 379
#
# _framework density 18.612803
#
# number of rings (size 3 to 8) (size 9 to 14) (size 15 to 20)
#    0.000    1.000    6.364    0.818    3.818    1.091 
#    1.636    1.364    0.000    1.636    0.000    3.818 
#    0.000    0.000    0.000    0.000    0.000    0.000 
#
# Total GULP energy -245274.099056 kJ/mol
# GULP energy per Si atom -5574.411342 kJ/mol
# Density = 1.857044 g / cm^3
# Si number density = 18.612803 Si / 1000 Ang^3
#
#
#
# Elastic Constant Matrix: (Units=GPa)
#
#
# Indices 1 2 3 4 5 6 
#
# 1 68.3545 49.6333 27.1411 0.0000 0.0000 0.0000
# 2 49.6333 171.9859 63.3083 0.0000 0.0000 0.0000
# 3 27.1411 63.3083 109.1192 0.0000 0.0000 0.0000
# 4 0.0000 0.0000 0.0000 -5.8886 0.0000 0.0000
# 5 0.0000 0.0000 0.0000 0.0000 61.0717 0.0000
# 6 0.0000 0.0000 0.0000 0.0000 0.0000 2.2706
#
#
#
# Elastic Compliance Matrix: (Units=1/GPa)
#
#
# Indices 1 2 3 4 5 6 
#
# 1 0.018827 -0.004717 -0.001946 0.000000 0.000000 0.000000
# 2 -0.004717 0.008575 -0.003802 0.000000 0.000000 0.000000
# 3 -0.001946 -0.003802 0.011854 0.000000 0.000000 0.000000
# 4 0.000000 0.000000 0.000000 -0.169819 0.000000 0.000000
# 5 0.000000 0.000000 0.000000 0.000000 0.016374 0.000000
# 6 0.000000 0.000000 0.000000 0.000000 0.000000 0.440411
#
#
# Mechanical properties :
#
#
# Convention : Reuss Voigt Hill
#
# Bulk Modulus (GPa) = 54.56556 69.95834 62.26195
# Shear Modulus (GPa) = 14.15379 25.44921 19.80150
#
# Velocity S-wave (km/s) = 2.76059 3.70171 3.26523
# Velocity P-wave (km/s) = 6.28816 7.47917 6.90937
#
# Compressibility (1/GPa) = 0.01832658
#
# Stress axis : x y z
#
# Youngs Moduli (GPa) = 53.11381 116.61584 84.35886
#
# Poissons Ratio (x) = 0.55007 0.16419
# Poissons Ratio (y) = 0.25054 0.32072
# Poissons Ratio (z) = 0.10337 0.44336
#
# Static dielectric constant tensor:
#      x y z
#    x 1.632440 0.000000 0.000000 
#    y 0.000000 1.677220 0.000000 
#    z 0.000000 0.000000 1.646950 
# 
# From -- ./inp_files/58781.got.cif
#   From: 2010.05.17/outbox.cif.g08.bks.cpg/sg71_30_cif.got.tgz:58781.got - 2010.06.03 16:22:01.
