data_PCOD9523308
_publ_section_title
;
Structure prediction by ZEFSAII (Michael W. Deem and Ramdas Pophale) SiO2 
 PCOD9523308
Probable space group: I M M M
;
_chemical_formula_sum "Si O2"
_cell_formula_units_Z 50
_cell_length_a 17.921105
_cell_length_b 8.041630
_cell_length_c 14.911507
_cell_angle_alpha 90.000000
_cell_angle_beta 90.000000
_cell_angle_gamma 90.000000
_cell_volume 2148.970275
_symmetry_space_group_name_H-M "I M M M"
_symmetry_group_IT_number 71
_symmetry_cell_setting 'orthorhombic'
loop_
_space_group_symop_operation_xyz
x,y,z
-x,-y,z
x,-y,-z
-x,y,-z
-x,-y,-z
x,y,-z
-x,y,z
x,-y,z
1/2+x,1/2+y,1/2+z
1/2-x,1/2-y,1/2+z
1/2+x,1/2-y,1/2-z
1/2-x,1/2+y,1/2-z
1/2-x,1/2-y,1/2-z
1/2+x,1/2+y,1/2-z
1/2-x,1/2+y,1/2+z
1/2+x,1/2-y,1/2+z
loop_
_atom_site_type_symbol
_atom_site_label
_atom_site_fract_x
_atom_site_fract_y
_atom_site_fract_z
Si Si1 0.500000 0.000000 0.500000
Si Si2 0.192750 0.314588 0.174961
Si Si3 0.623976 0.689077 0.500000
Si Si4 0.409027 0.194321 0.000000
Si Si5 0.911114 0.813471 0.692182
O O1 0.434151 0.153018 0.500000
O O2 0.212999 0.500000 0.147609
O O3 0.250000 0.250000 0.250000
O O4 0.176059 0.208031 0.087612
O O5 0.116580 0.310733 0.232640
O O6 0.591502 0.500000 0.500000
O O7 0.381849 0.273781 0.907445
O O8 0.500000 0.210533 0.000000
O O9 0.391578 0.000000 0.000000
O O10 0.000000 0.807379 0.687306
O O11 0.888927 0.000000 0.718565
#
# Coordination Sequence:
#
# PCOD9523308 Si02
#       5
#     2  16   8   8  16
#     4  12  26  52  80 122 156 202 260 324 392 466
#     4  12  26  47  70 102 142 189 245 306 380 462
#     4  12  27  50  78 116 157 201 258 323 391 461
#     4   9  17  32  53  85 122 162 207 265 326 397
#     4  10  21  37  61  93 129 174 228 290 362 438
#
# _framework density 23.266959
#
# number of rings (size 3 to 8) (size 9 to 14) (size 15 to 20)
#    0.000    1.120    1.600    4.560    2.240    5.120 
#    0.000    6.400    0.000    0.000    0.000    0.000 
#    0.000    0.000    0.000    0.000    0.000    0.000 
#
# Total GULP energy -139434.508194 kJ/mol
# GULP energy per Si atom -5577.380328 kJ/mol
# Density = 2.321400 g / cm^3
# Si number density = 23.266959 Si / 1000 Ang^3
#
#
#
# Elastic Constant Matrix: (Units=GPa)
#
#
# Indices 1 2 3 4 5 6 
#
# 1 56.3676 31.5268 27.9890 0.0000 0.0000 0.0000
# 2 31.5268 153.8012 32.7747 0.0000 0.0000 0.0000
# 3 27.9890 32.7747 151.1224 0.0000 0.0000 0.0000
# 4 0.0000 0.0000 0.0000 36.6667 0.0000 0.0000
# 5 0.0000 0.0000 0.0000 0.0000 12.2824 0.0000
# 6 0.0000 0.0000 0.0000 0.0000 0.0000 28.7628
#
#
#
# Elastic Compliance Matrix: (Units=1/GPa)
#
#
# Indices 1 2 3 4 5 6 
#
# 1 0.021383 -0.003711 -0.003156 0.000000 0.000000 0.000000
# 2 -0.003711 0.007461 -0.000931 0.000000 0.000000 0.000000
# 3 -0.003156 -0.000931 0.007403 0.000000 0.000000 0.000000
# 4 0.000000 0.000000 0.000000 0.027273 0.000000 0.000000
# 5 0.000000 0.000000 0.000000 0.000000 0.081418 0.000000
# 6 0.000000 0.000000 0.000000 0.000000 0.000000 0.034767
#
#
# Mechanical properties :
#
#
# Convention : Reuss Voigt Hill
#
# Bulk Modulus (GPa) = 48.41871 60.65245 54.53558
# Shear Modulus (GPa) = 24.73003 33.47575 29.10289
#
# Velocity S-wave (km/s) = 3.26372 3.79722 3.54054
# Velocity P-wave (km/s) = 5.92096 6.73423 6.34065
#
# Compressibility (1/GPa) = 0.02065317
#
# Stress axis : x y z
#
# Youngs Moduli (GPa) = 46.76615 134.03216 135.07218
#
# Poissons Ratio (x) = 0.49736 0.42622
# Poissons Ratio (y) = 0.17354 0.12573
# Poissons Ratio (z) = 0.14757 0.12476
#
# Static dielectric constant tensor:
#      x y z
#    x 1.978970 0.000000 0.000000 
#    y 0.000000 1.903860 0.000000 
#    z 0.000000 0.000000 1.877740 
# 
# From -- ./inp_files/35649.got.cif
#   From: 2010.05.17/outbox.cif.g08.bks.cpg/sg71_18_cif.got.tgz:35649.got - 2010.06.03 16:22:01.
