data_PCOD9523766
_publ_section_title
;
Structure prediction by ZEFSAII (Michael W. Deem and Ramdas Pophale) SiO2 
 PCOD9523766
Probable space group: I M M M
;
_chemical_formula_sum "Si O2"
_cell_formula_units_Z 88
_cell_length_a 11.525979
_cell_length_b 20.122554
_cell_length_c 20.892788
_cell_angle_alpha 90.000000
_cell_angle_beta 90.000000
_cell_angle_gamma 90.000000
_cell_volume 4845.708923
_symmetry_space_group_name_H-M "I M M M"
_symmetry_group_IT_number 71
_symmetry_cell_setting 'orthorhombic'
loop_
_space_group_symop_operation_xyz
x,y,z
-x,-y,z
x,-y,-z
-x,y,-z
-x,-y,-z
x,y,-z
-x,y,z
x,-y,z
1/2+x,1/2+y,1/2+z
1/2-x,1/2-y,1/2+z
1/2+x,1/2-y,1/2-z
1/2-x,1/2+y,1/2-z
1/2-x,1/2-y,1/2-z
1/2+x,1/2+y,1/2-z
1/2-x,1/2+y,1/2+z
1/2+x,1/2-y,1/2+z
loop_
_atom_site_type_symbol
_atom_site_label
_atom_site_fract_x
_atom_site_fract_y
_atom_site_fract_z
Si Si1 0.769412 0.886269 0.424542
Si Si2 0.000000 0.922982 0.648967
Si Si3 0.500000 0.583025 0.705633
Si Si4 0.763590 0.881344 0.134448
Si Si5 0.361670 0.000000 0.205931
Si Si6 0.368703 0.578934 0.500000
Si Si7 0.138857 0.741649 0.423907
Si Si8 0.862478 0.500000 0.147839
O O1 0.763103 0.900249 0.500000
O O2 0.889982 0.907793 0.393631
O O3 0.779128 0.806657 0.416741
O O4 0.678206 0.933093 0.388261
O O5 0.000000 0.894289 0.720321
O O6 0.000000 0.000000 0.662649
O O7 0.500000 0.500000 0.697705
O O8 0.615105 0.613557 0.673193
O O9 0.691434 0.813819 0.123210
O O10 0.683690 0.935777 0.168604
O O11 0.800687 0.901319 0.063085
O O12 0.315478 0.000000 0.279157
O O13 0.500000 0.000000 0.207666
O O14 0.378906 0.500000 0.500000
O O15 0.500000 0.607194 0.500000
O O16 0.144552 0.723066 0.500000
O O17 0.000000 0.754458 0.411378
O O18 0.000000 0.500000 0.150716
#
# Coordination Sequence:
#
# PCOD9523766 Si02
#       8
#    16   8   8  16   8   8  16   8
#     4  11  22  40  68  95 122 154 196 255 314 369
#     4  11  21  36  66  98 121 149 202 255 304 366
#     4  11  22  38  60  90 128 163 204 253 302 360
#     4  12  21  38  61  87 122 167 209 251 305 362
#     4  11  24  41  62  87 123 168 209 257 302 359
#     4  11  20  34  56  92 124 153 206 265 304 356
#     4  10  22  40  61  90 127 160 197 256 313 360
#     4  11  25  45  64  91 130 160 199 251 310 371
#
# _framework density 18.160397
#
# number of rings (size 3 to 8) (size 9 to 14) (size 15 to 20)
#    0.000    1.000    5.455    2.182    0.000    1.091 
#    1.636    4.091    0.000    0.000    0.000    0.000 
#    0.000    0.000    0.000    0.000    0.000    0.000 
#
# Total GULP energy -245257.962844 kJ/mol
# GULP energy per Si atom -5574.044610 kJ/mol
# Density = 1.811906 g / cm^3
# Si number density = 18.160397 Si / 1000 Ang^3
#
#
#
# Elastic Constant Matrix: (Units=GPa)
#
#
# Indices 1 2 3 4 5 6 
#
# 1 85.8743 46.2708 33.9712 0.0000 0.0000 0.0000
# 2 46.2708 99.0713 61.8827 0.0000 0.0000 0.0000
# 3 33.9712 61.8827 116.7558 0.0000 0.0000 0.0000
# 4 0.0000 0.0000 0.0000 3.5696 0.0000 0.0000
# 5 0.0000 0.0000 0.0000 0.0000 40.8256 0.0000
# 6 0.0000 0.0000 0.0000 0.0000 0.0000 9.0297
#
#
#
# Elastic Compliance Matrix: (Units=1/GPa)
#
#
# Indices 1 2 3 4 5 6 
#
# 1 0.015641 -0.006671 -0.001015 0.000000 0.000000 0.000000
# 2 -0.006671 0.017934 -0.007565 0.000000 0.000000 0.000000
# 3 -0.001015 -0.007565 0.012870 0.000000 0.000000 0.000000
# 4 0.000000 0.000000 0.000000 0.280146 0.000000 0.000000
# 5 0.000000 0.000000 0.000000 0.000000 0.024494 0.000000
# 6 0.000000 0.000000 0.000000 0.000000 0.000000 0.110746
#
#
# Mechanical properties :
#
#
# Convention : Reuss Voigt Hill
#
# Bulk Modulus (GPa) = 62.72104 65.10564 63.91334
# Shear Modulus (GPa) = 10.04727 21.32341 15.68534
#
# Velocity S-wave (km/s) = 2.35468 3.43034 2.94208
# Velocity P-wave (km/s) = 6.48112 7.18455 6.84188
#
# Compressibility (1/GPa) = 0.01594361
#
# Stress axis : x y z
#
# Youngs Moduli (GPa) = 63.93467 55.75868 77.70236
#
# Poissons Ratio (x) = 0.37196 0.07888
# Poissons Ratio (y) = 0.42650 0.58779
# Poissons Ratio (z) = 0.06490 0.42179
#
# Static dielectric constant tensor:
#      x y z
#    x 1.624670 0.000000 0.000000 
#    y 0.000000 1.658880 0.000000 
#    z 0.000000 0.000000 1.622290 
# 
# From -- ./inp_files/51856.got.cif
#   From: 2010.05.17/outbox.cif.g08.bks.cpg/sg71_26_cif.got.tgz:51856.got - 2010.06.03 16:22:01.
