data_PCOD9523507
_publ_section_title
;
Structure prediction by ZEFSAII (Michael W. Deem and Ramdas Pophale) SiO2 
 PCOD9523507
Probable space group: I M M M
;
_chemical_formula_sum "Si O2"
_cell_formula_units_Z 66
_cell_length_a 17.686707
_cell_length_b 9.147793
_cell_length_c 22.412470
_cell_angle_alpha 90.000000
_cell_angle_beta 90.000000
_cell_angle_gamma 90.000000
_cell_volume 3626.210668
_symmetry_space_group_name_H-M "I M M M"
_symmetry_group_IT_number 71
_symmetry_cell_setting 'orthorhombic'
loop_
_space_group_symop_operation_xyz
x,y,z
-x,-y,z
x,-y,-z
-x,y,-z
-x,-y,-z
x,y,-z
-x,y,z
x,-y,z
1/2+x,1/2+y,1/2+z
1/2-x,1/2-y,1/2+z
1/2+x,1/2-y,1/2-z
1/2-x,1/2+y,1/2-z
1/2-x,1/2-y,1/2-z
1/2+x,1/2+y,1/2-z
1/2-x,1/2+y,1/2+z
1/2+x,1/2-y,1/2+z
loop_
_atom_site_type_symbol
_atom_site_label
_atom_site_fract_x
_atom_site_fract_y
_atom_site_fract_z
Si Si1 0.800676 0.325721 0.121071
Si Si2 0.000000 0.000000 0.000000
Si Si3 0.912342 0.825282 0.786362
Si Si4 0.842898 0.161801 0.000000
Si Si5 0.500000 0.174923 0.069687
Si Si6 0.374477 0.325962 0.851083
O O1 0.809995 0.500000 0.116663
O O2 0.856118 0.260983 0.171075
O O3 0.819979 0.249086 0.058760
O O4 0.713714 0.295676 0.138442
O O5 0.067759 0.124844 0.000000
O O6 0.896870 0.790963 0.717059
O O7 0.000000 0.793833 0.800456
O O8 0.900844 0.000000 0.794511
O O9 0.805576 0.000000 0.000000
O O10 0.572726 0.239781 0.103385
O O11 0.500000 0.000000 0.074058
O O12 0.500000 0.216020 0.000000
O O13 0.387297 0.500000 0.859138
#
# Coordination Sequence:
#
# PCOD9523507 Si02
#       6
#    16   2  16   8   8  16
#     4  11  24  39  62  95 127 158 206 261 316 364
#     4   8  24  44  66  80 116 162 222 236 302 376
#     4  10  21  39  64  89 121 166 210 249 304 377
#     4  10  23  43  65  86 120 165 210 254 301 376
#     4  11  25  41  62  95 129 160 208 260 310 363
#     4  10  22  43  65  89 124 167 208 250 309 379
#
# _framework density 18.200818999999999
#
# number of rings (size 3 to 8) (size 9 to 14) (size 15 to 20)
#    0.364    1.333    1.212    2.182    3.394    4.364 
#    0.000    0.606    0.000    0.000    0.000    0.000 
#    0.000    0.000    0.000    0.000    0.000    0.000 
#
# Total GULP energy -184083.534517 kJ/mol
# GULP energy per Si atom -5578.288925 kJ/mol
# Density = 1.815939 g / cm^3
# Si number density = 18.200819 Si / 1000 Ang^3
#
#
#
# Elastic Constant Matrix: (Units=GPa)
#
#
# Indices 1 2 3 4 5 6 
#
# 1 152.0035 89.6822 94.4433 0.0000 0.0000 0.0000
# 2 89.6822 84.6845 87.3942 0.0000 0.0000 0.0000
# 3 94.4433 87.3942 153.5223 0.0000 0.0000 0.0000
# 4 0.0000 0.0000 0.0000 -54.2274 0.0000 0.0000
# 5 0.0000 0.0000 0.0000 0.0000 -7.0168 0.0000
# 6 0.0000 0.0000 0.0000 0.0000 0.0000 35.7728
#
#
#
# Elastic Compliance Matrix: (Units=1/GPa)
#
#
# Indices 1 2 3 4 5 6 
#
# 1 0.017552 -0.018047 -0.000524 0.000000 0.000000 0.000000
# 2 -0.018047 0.047181 -0.015756 0.000000 0.000000 0.000000
# 3 -0.000524 -0.015756 0.015806 0.000000 0.000000 0.000000
# 4 0.000000 0.000000 0.000000 -0.018441 0.000000 0.000000
# 5 0.000000 0.000000 0.000000 0.000000 -0.142515 0.000000
# 6 0.000000 0.000000 0.000000 0.000000 0.000000 0.027954
#
#
# Mechanical properties :
#
#
# Convention : Reuss Voigt Hill
#
# Bulk Modulus (GPa) = 84.14764 103.69440 93.92102
# Shear Modulus (GPa) = 248.08959 2.81843 125.45401
#
# Velocity S-wave (km/s) = 11.68772 1.24575 8.31128
# Velocity P-wave (km/s) = 15.11523 7.69189 11.99240
#
# Compressibility (1/GPa) = 0.01188387
#
# Stress axis : x y z
#
# Youngs Moduli (GPa) = 56.97227 21.19494 63.26901
#
# Poissons Ratio (x) = 0.38251 0.03317
# Poissons Ratio (y) = 1.02819 0.99687
# Poissons Ratio (z) = 0.02987 0.33395
#
# Static dielectric constant tensor:
#      x y z
#    x 1.599950 0.000000 0.000000 
#    y 0.000000 1.609860 0.000000 
#    z 0.000000 0.000000 1.600900 
# 
# From -- ./inp_files/53746.got.cif
#   From: 2010.05.17/outbox.cif.g08.bks.cpg/sg71_27_cif.got.tgz:53746.got - 2010.06.03 16:22:01.
