data_PCOD9523653
_publ_section_title
;
Structure prediction by ZEFSAII (Michael W. Deem and Ramdas Pophale) SiO2 
 PCOD9523653
Probable space group: I M M M
;
_chemical_formula_sum "Si O2"
_cell_formula_units_Z 70
_cell_length_a 15.267408
_cell_length_b 16.629136
_cell_length_c 16.500402
_cell_angle_alpha 90.000000
_cell_angle_beta 90.000000
_cell_angle_gamma 90.000000
_cell_volume 4189.184827
_symmetry_space_group_name_H-M "I M M M"
_symmetry_group_IT_number 71
_symmetry_cell_setting 'orthorhombic'
loop_
_space_group_symop_operation_xyz
x,y,z
-x,-y,z
x,-y,-z
-x,y,-z
-x,-y,-z
x,y,-z
-x,y,z
x,-y,z
1/2+x,1/2+y,1/2+z
1/2-x,1/2-y,1/2+z
1/2+x,1/2-y,1/2-z
1/2-x,1/2+y,1/2-z
1/2-x,1/2-y,1/2-z
1/2+x,1/2+y,1/2-z
1/2-x,1/2+y,1/2+z
1/2+x,1/2-y,1/2+z
loop_
_atom_site_type_symbol
_atom_site_label
_atom_site_fract_x
_atom_site_fract_y
_atom_site_fract_z
Si Si1 0.500000 0.595938 0.228208
Si Si2 0.000000 0.000000 0.000000
Si Si3 0.401255 0.000000 0.161033
Si Si4 0.143386 0.672859 0.701701
Si Si5 0.500000 0.262555 0.097482
Si Si6 0.648177 0.311286 0.323238
Si Si7 0.286684 0.000000 0.000000
Si Si8 0.145500 0.861984 0.000000
O O1 0.500000 0.500000 0.213611
O O2 0.500000 0.652544 0.147542
O O3 0.414462 0.621968 0.281016
O O4 0.074106 0.069308 0.000000
O O5 0.384624 0.918848 0.210073
O O6 0.500000 0.000000 0.131210
O O7 0.340562 0.000000 0.082499
O O8 0.248118 0.674251 0.689323
O O9 0.124177 0.728547 0.778928
O O10 0.085566 0.713139 0.629422
O O11 0.500000 0.271069 0.000000
O O12 0.635219 0.311637 0.418725
O O13 0.233478 0.915999 0.000000
#
# Coordination Sequence:
#
# PCOD9523653 Si02
#       8
#     8   2   8  16   8  16   4   8
#     4  10  23  38  59  84 113 152 189 233 282 336
#     4  10  24  32  46  92 110 134 176 232 288 322
#     4  12  22  35  57  84 114 147 183 230 281 338
#     4  10  22  38  55  84 113 152 186 230 279 336
#     4  10  22  39  60  84 113 148 191 235 284 335
#     4  10  22  38  57  80 117 150 187 227 283 334
#     4  11  23  31  51  92 114 138 183 229 285 339
#     4  11  21  35  56  81 113 147 181 230 278 342
#
# _framework density 16.709695
#
# number of rings (size 3 to 8) (size 9 to 14) (size 15 to 20)
#    0.000    1.600    3.429    0.857    9.600    0.229 
#    0.000    0.000    0.000    0.686    0.000    0.800 
#    0.000    0.000    0.000    0.000    0.000    0.000 
#
# Total GULP energy -194899.730595 kJ/mol
# GULP energy per Si atom -5568.563731 kJ/mol
# Density = 1.667166 g / cm^3
# Si number density = 16.709695 Si / 1000 Ang^3
#
#
#
# Elastic Constant Matrix: (Units=GPa)
#
#
# Indices 1 2 3 4 5 6 
#
# 1 105.0851 38.6746 35.6350 0.0000 0.0000 0.0000
# 2 38.6746 141.1407 67.4988 0.0000 0.0000 0.0000
# 3 35.6350 67.4988 136.1489 0.0000 0.0000 0.0000
# 4 0.0000 0.0000 0.0000 48.2300 0.0000 0.0000
# 5 0.0000 0.0000 0.0000 0.0000 32.8506 0.0000
# 6 0.0000 0.0000 0.0000 0.0000 0.0000 21.1817
#
#
#
# Elastic Compliance Matrix: (Units=1/GPa)
#
#
# Indices 1 2 3 4 5 6 
#
# 1 0.010910 -0.002129 -0.001800 0.000000 0.000000 0.000000
# 2 -0.002129 0.009702 -0.004253 0.000000 0.000000 0.000000
# 3 -0.001800 -0.004253 0.009925 0.000000 0.000000 0.000000
# 4 0.000000 0.000000 0.000000 0.020734 0.000000 0.000000
# 5 0.000000 0.000000 0.000000 0.000000 0.030441 0.000000
# 6 0.000000 0.000000 0.000000 0.000000 0.000000 0.047211
#
#
# Mechanical properties :
#
#
# Convention : Reuss Voigt Hill
#
# Bulk Modulus (GPa) = 70.55538 73.99906 72.27722
# Shear Modulus (GPa) = 33.33101 36.49020 34.91061
#
# Velocity S-wave (km/s) = 4.47106 4.67816 4.57578
# Velocity P-wave (km/s) = 8.30480 8.57680 8.44190
#
# Compressibility (1/GPa) = 0.01417326
#
# Stress axis : x y z
#
# Youngs Moduli (GPa) = 91.65950 103.06791 100.75944
#
# Poissons Ratio (x) = 0.21938 0.18139
# Poissons Ratio (y) = 0.19510 0.42853
# Poissons Ratio (z) = 0.16501 0.43835
#
# Static dielectric constant tensor:
#      x y z
#    x 1.611270 0.000000 0.000000 
#    y 0.000000 1.550500 0.000000 
#    z 0.000000 0.000000 1.552430 
# 
# From -- ./inp_files/44543.got.cif
#   From: 2010.05.17/outbox.cif.g08.bks.cpg/sg71_23_cif.got.tgz:44543.got - 2010.06.03 16:22:01.
