data_PCOD9523800
_publ_section_title
;
Structure prediction by ZEFSAII (Michael W. Deem and Ramdas Pophale) SiO2 
 PCOD9523800
Probable space group: I M M M
;
_chemical_formula_sum "Si O2"
_cell_formula_units_Z 88
_cell_length_a 8.698507
_cell_length_b 28.154747
_cell_length_c 18.044948
_cell_angle_alpha 90.000000
_cell_angle_beta 90.000000
_cell_angle_gamma 90.000000
_cell_volume 4419.284706
_symmetry_space_group_name_H-M "I M M M"
_symmetry_group_IT_number 71
_symmetry_cell_setting 'orthorhombic'
loop_
_space_group_symop_operation_xyz
x,y,z
-x,-y,z
x,-y,-z
-x,y,-z
-x,-y,-z
x,y,-z
-x,y,z
x,-y,z
1/2+x,1/2+y,1/2+z
1/2-x,1/2-y,1/2+z
1/2+x,1/2-y,1/2-z
1/2-x,1/2+y,1/2-z
1/2-x,1/2-y,1/2-z
1/2+x,1/2+y,1/2-z
1/2-x,1/2+y,1/2+z
1/2+x,1/2-y,1/2+z
loop_
_atom_site_type_symbol
_atom_site_label
_atom_site_fract_x
_atom_site_fract_y
_atom_site_fract_z
Si Si1 0.814742 0.357742 0.416191
Si Si2 0.684065 0.766036 0.171019
Si Si3 0.183582 0.678885 0.914427
Si Si4 0.185398 0.054743 0.165047
Si Si5 0.820318 0.500000 0.911631
Si Si6 0.815981 0.089852 0.670953
O O1 0.769059 0.344557 0.500000
O O2 0.762353 0.317674 0.357642
O O3 0.751384 0.409157 0.394856
O O4 0.000000 0.358962 0.413535
O O5 0.500000 0.766675 0.176046
O O6 0.750000 0.750000 0.250000
O O7 0.736767 0.727297 0.111065
O O8 0.239218 0.637303 0.860085
O O9 0.000000 0.683881 0.908564
O O10 0.221501 0.667284 0.000000
O O11 0.229239 0.075750 0.245505
O O12 0.000000 0.054805 0.161262
O O13 0.236754 0.000000 0.158236
O O14 0.737956 0.546289 0.879762
O O15 0.000000 0.500000 0.889503
O O16 0.813226 0.500000 0.000000
O O17 0.000000 0.094897 0.668371
#
# Coordination Sequence:
#
# PCOD9523800 Si02
#       6
#    16  16  16  16   8  16
#     4  10  23  42  63  90 123 158 200 249 302 364
#     4  11  23  41  65  92 124 162 204 252 307 369
#     4  11  24  40  59  88 126 163 204 255 307 364
#     4  10  22  41  62  88 121 156 200 252 306 363
#     4  11  23  37  55  83 120 159 202 255 311 364
#     4  11  22  39  61  86 119 161 208 254 304 367
#
# _framework density 19.912724999999998
#
# number of rings (size 3 to 8) (size 9 to 14) (size 15 to 20)
#    0.000    1.364    0.909    4.091    0.000   12.000 
#    0.000    1.818    0.000    0.000    0.000    0.000 
#    0.000    0.000    0.000    0.000    0.000    0.000 
#
# Total GULP energy -246041.936716 kJ/mol
# GULP energy per Si atom -5591.862198 kJ/mol
# Density = 1.986740 g / cm^3
# Si number density = 19.912725 Si / 1000 Ang^3
#
#
#
# Elastic Constant Matrix: (Units=GPa)
#
#
# Indices 1 2 3 4 5 6 
#
# 1 32.2964 16.5166 27.0530 0.0000 0.0000 0.0000
# 2 16.5166 132.5336 43.1285 0.0000 0.0000 0.0000
# 3 27.0530 43.1285 94.8682 0.0001 0.0000 0.0000
# 4 0.0000 0.0000 0.0001 14.1447 0.0000 0.0000
# 5 0.0000 0.0000 0.0000 0.0000 33.4796 0.0000
# 6 0.0000 0.0000 0.0000 0.0000 0.0000 30.4130
#
#
#
# Elastic Compliance Matrix: (Units=1/GPa)
#
#
# Indices 1 2 3 4 5 6 
#
# 1 0.040943 -0.001529 -0.010980 0.000000 0.000000 0.000000
# 2 -0.001529 0.008912 -0.003616 0.000000 0.000000 0.000000
# 3 -0.010980 -0.003616 0.015316 0.000000 0.000000 0.000000
# 4 0.000000 0.000000 0.000000 0.070698 0.000000 0.000000
# 5 0.000000 0.000000 0.000000 0.000000 0.029869 0.000000
# 6 0.000000 0.000000 0.000000 0.000000 0.000000 0.032881
#
#
# Mechanical properties :
#
#
# Convention : Reuss Voigt Hill
#
# Bulk Modulus (GPa) = 30.37587 48.12161 39.24874
# Shear Modulus (GPa) = 20.67462 27.14079 23.90771
#
# Velocity S-wave (km/s) = 3.22570 3.69587 3.46876
# Velocity P-wave (km/s) = 5.40011 6.51393 5.98300
#
# Compressibility (1/GPa) = 0.03292087
#
# Stress axis : x y z
#
# Youngs Moduli (GPa) = 24.42433 112.20297 65.29201
#
# Poissons Ratio (x) = 0.17159 0.71692
# Poissons Ratio (y) = 0.03735 0.23607
# Poissons Ratio (z) = 0.26818 0.40568
#
# Static dielectric constant tensor:
#      x y z
#    x 1.672870 0.000000 0.000000 
#    y 0.000000 1.686730 0.000000 
#    z 0.000000 0.000000 1.695150 
# 
# From -- ./inp_files/42464.got.cif
#   From: 2010.05.17/outbox.cif.g08.bks.cpg/sg71_22_cif.got.tgz:42464.got - 2010.06.03 16:22:01.
