data_PCOD9523505
_publ_section_title
;
Structure prediction by ZEFSAII (Michael W. Deem and Ramdas Pophale) SiO2 
 PCOD9523505
Probable space group: I M M M
;
_chemical_formula_sum "Si O2"
_cell_formula_units_Z 104
_cell_length_a 21.116260
_cell_length_b 29.076758
_cell_length_c 8.299692
_cell_angle_alpha 90.000000
_cell_angle_beta 90.000000
_cell_angle_gamma 90.000000
_cell_volume 5095.947660
_symmetry_space_group_name_H-M "I M M M"
_symmetry_group_IT_number 71
_symmetry_cell_setting 'orthorhombic'
loop_
_space_group_symop_operation_xyz
x,y,z
-x,-y,z
x,-y,-z
-x,y,-z
-x,-y,-z
x,y,-z
-x,y,z
x,-y,z
1/2+x,1/2+y,1/2+z
1/2-x,1/2-y,1/2+z
1/2+x,1/2-y,1/2-z
1/2-x,1/2+y,1/2-z
1/2-x,1/2-y,1/2-z
1/2+x,1/2+y,1/2-z
1/2-x,1/2+y,1/2+z
1/2+x,1/2-y,1/2+z
loop_
_atom_site_type_symbol
_atom_site_label
_atom_site_fract_x
_atom_site_fract_y
_atom_site_fract_z
Si Si1 0.134284 0.052832 0.807343
Si Si2 0.217229 0.863889 0.687952
Si Si3 0.658299 0.820581 0.185947
Si Si4 0.077201 0.447300 0.500000
Si Si5 0.639213 0.722439 0.307070
Si Si6 0.076002 0.606232 0.822198
Si Si7 0.500000 0.591455 0.809416
Si Si8 0.000000 0.196075 0.806953
O O1 0.184002 0.088246 0.731073
O O2 0.063540 0.069386 0.762918
O O3 0.143182 0.000000 0.755425
O O4 0.140952 0.055196 0.000000
O O5 0.233632 0.862584 0.500000
O O6 0.279789 0.851666 0.787871
O O7 0.168372 0.823038 0.728945
O O8 0.670744 0.768696 0.241639
O O9 0.603905 0.843234 0.294369
O O10 0.639283 0.820728 0.000000
O O11 0.097776 0.500000 0.500000
O O12 0.097486 0.422743 0.334163
O O13 0.000000 0.446485 0.500000
O O14 0.647098 0.719746 0.500000
O O15 0.564451 0.722581 0.267211
O O16 0.000000 0.606894 0.819516
O O17 0.095679 0.588959 0.000000
O O18 0.500000 0.645897 0.773051
O O19 0.500000 0.584007 0.000000
O O20 0.000000 0.188276 0.000000
#
# Coordination Sequence:
#
# PCOD9523505 Si02
#       8
#    16  16  16   8  16  16   8   8
#     4  11  24  43  67  94 128 172 219 270 332 395
#     4  12  25  43  65  92 127 167 217 272 324 387
#     4  12  25  42  65  92 128 173 218 265 323 387
#     4   9  18  36  62  92 126 162 204 253 312 382
#     4  11  23  41  64  94 129 170 217 263 321 387
#     4  10  21  39  63  94 131 165 206 264 326 384
#     4  12  23  37  64  97 134 170 216 272 325 383
#     4  10  22  39  63  92 132 173 210 263 321 384
#
# _framework density 20.408372
#
# number of rings (size 3 to 8) (size 9 to 14) (size 15 to 20)
#    0.000    1.000    2.308    5.077    1.077    3.077 
#    0.000    2.308    0.000    1.846    0.000    0.000 
#    0.000    0.000    0.000    0.000    0.000    0.000 
#
# Total GULP energy -290783.858587 kJ/mol
# GULP energy per Si atom -5591.997281 kJ/mol
# Density = 2.036192 g / cm^3
# Si number density = 20.408372 Si / 1000 Ang^3
#
#
#
# Elastic Constant Matrix: (Units=GPa)
#
#
# Indices 1 2 3 4 5 6 
#
# 1 33.3500 25.0948 13.9713 0.0000 0.0000 0.0000
# 2 25.0948 120.6949 27.8831 0.0000 0.0000 0.0000
# 3 13.9713 27.8831 97.0483 0.0000 0.0000 0.0000
# 4 0.0000 0.0000 0.0000 26.7801 0.0000 0.0000
# 5 0.0000 0.0000 0.0000 0.0000 19.0789 0.0000
# 6 0.0000 0.0000 0.0000 0.0000 0.0000 5.3924
#
#
#
# Elastic Compliance Matrix: (Units=1/GPa)
#
#
# Indices 1 2 3 4 5 6 
#
# 1 0.036503 -0.006829 -0.003293 0.000000 0.000000 0.000000
# 2 -0.006829 0.010152 -0.001934 0.000000 0.000000 0.000000
# 3 -0.003293 -0.001934 0.011334 0.000000 0.000000 0.000000
# 4 0.000000 0.000000 0.000000 0.037341 0.000000 0.000000
# 5 0.000000 0.000000 0.000000 0.000000 0.052414 0.000000
# 6 0.000000 0.000000 0.000000 0.000000 0.000000 0.185445
#
#
# Mechanical properties :
#
#
# Convention : Reuss Voigt Hill
#
# Bulk Modulus (GPa) = 29.51805 42.77685 36.14745
# Shear Modulus (GPa) = 13.56509 22.52655 18.04582
#
# Velocity S-wave (km/s) = 2.58094 3.32594 2.97684
# Velocity P-wave (km/s) = 4.83495 5.97956 5.43746
#
# Compressibility (1/GPa) = 0.03387758
#
# Stress axis : x y z
#
# Youngs Moduli (GPa) = 27.39487 98.50333 88.23180
#
# Poissons Ratio (x) = 0.67268 0.29055
# Poissons Ratio (y) = 0.18708 0.17061
# Poissons Ratio (z) = 0.09021 0.19047
#
# Static dielectric constant tensor:
#      x y z
#    x 1.726090 0.000000 0.000000 
#    y 0.000000 1.705050 0.000000 
#    z 0.000000 0.000000 1.712400 
# 
# From -- ./inp_files/11211.got.cif
#   From: 2010.05.17/outbox.cif.g08.bks.cpg/sg71_6_cif.got.tgz:11211.got - 2010.06.03 16:22:01.
