data_PCOD9523026
_publ_section_title
;
Structure prediction by ZEFSAII (Michael W. Deem and Ramdas Pophale) SiO2 
 PCOD9523026
Probable space group: I M M M
;
_chemical_formula_sum "Si O2"
_cell_formula_units_Z 104
_cell_length_a 21.971510
_cell_length_b 25.013164
_cell_length_c 8.860372
_cell_angle_alpha 90.000000
_cell_angle_beta 90.000000
_cell_angle_gamma 90.000000
_cell_volume 4869.456512
_symmetry_space_group_name_H-M "I M M M"
_symmetry_group_IT_number 71
_symmetry_cell_setting 'orthorhombic'
loop_
_space_group_symop_operation_xyz
x,y,z
-x,-y,z
x,-y,-z
-x,y,-z
-x,-y,-z
x,y,-z
-x,y,z
x,-y,z
1/2+x,1/2+y,1/2+z
1/2-x,1/2-y,1/2+z
1/2+x,1/2-y,1/2-z
1/2-x,1/2+y,1/2-z
1/2-x,1/2-y,1/2-z
1/2+x,1/2+y,1/2-z
1/2-x,1/2+y,1/2+z
1/2+x,1/2-y,1/2+z
loop_
_atom_site_type_symbol
_atom_site_label
_atom_site_fract_x
_atom_site_fract_y
_atom_site_fract_z
Si Si1 0.184646 0.561794 0.662496
Si Si2 0.707548 0.436760 0.837986
Si Si3 0.884323 0.878673 0.827557
Si Si4 0.000000 0.064134 0.319404
Si Si5 0.316798 0.733081 0.683194
Si Si6 0.067560 0.412551 0.175346
Si Si7 0.067875 0.704334 0.318702
O O1 0.192208 0.588639 0.500000
O O2 0.202963 0.500000 0.648759
O O3 0.226780 0.585906 0.792254
O O4 0.116144 0.561649 0.716135
O O5 0.710472 0.500000 0.855864
O O6 0.664361 0.425149 0.698804
O O7 0.686032 0.414674 0.000000
O O8 0.942049 0.901068 0.735940
O O9 0.843674 0.826731 0.782647
O O10 0.903082 0.870876 0.000000
O O11 0.000000 0.062075 0.500000
O O12 0.000000 0.000000 0.269430
O O13 0.314083 0.738425 0.500000
O O14 0.250000 0.750000 0.750000
O O15 0.371946 0.767494 0.754893
O O16 0.065568 0.351396 0.229842
O O17 0.000000 0.434912 0.190859
O O18 0.085370 0.416885 0.000000
O O19 0.073318 0.696767 0.500000
O O20 0.000000 0.730365 0.293601
#
# Coordination Sequence:
#
# PCOD9523026 Si02
#       7
#    16  16  16   8  16  16  16
#     4  10  21  36  56  83 117 157 200 250 307 369
#     4  10  21  38  61  89 121 160 206 254 310 378
#     4  11  25  43  66  97 132 173 217 268 330 396
#     4  11  25  45  71 105 143 183 229 281 340 413
#     4  11  26  45  66  95 132 173 221 275 334 401
#     4  10  21  37  58  84 114 154 200 248 306 367
#     4  10  22  41  66  93 123 162 209 262 321 387
#
# _framework density 21.357620000000001
#
# number of rings (size 3 to 8) (size 9 to 14) (size 15 to 20)
#    0.000    1.615    0.000    3.462    3.231    8.923 
#    0.000    1.538    0.000    0.000    0.000    0.000 
#    0.000    0.000    0.000    0.000    0.000    0.000 
#
# Total GULP energy -289583.613820 kJ/mol
# GULP energy per Si atom -5568.915650 kJ/mol
# Density = 2.130901 g / cm^3
# Si number density = 21.357620 Si / 1000 Ang^3
#
#
#
# Elastic Constant Matrix: (Units=GPa)
#
#
# Indices 1 2 3 4 5 6 
#
# 1 124.1553 39.4351 29.1143 0.0000 0.0000 0.0000
# 2 39.4351 60.9245 30.7811 0.0000 0.0000 0.0000
# 3 29.1143 30.7811 60.0048 0.0000 0.0000 0.0000
# 4 0.0000 0.0000 0.0000 25.4313 0.0000 0.0000
# 5 0.0000 0.0000 0.0000 0.0000 21.6456 0.0000
# 6 0.0000 0.0000 0.0000 0.0000 0.0000 31.4852
#
#
#
# Elastic Compliance Matrix: (Units=1/GPa)
#
#
# Indices 1 2 3 4 5 6 
#
# 1 0.010338 -0.005612 -0.002137 0.000000 0.000000 0.000000
# 2 -0.005612 0.025202 -0.010205 0.000000 0.000000 0.000000
# 3 -0.002137 -0.010205 0.022937 0.000000 0.000000 0.000000
# 4 0.000000 0.000000 0.000000 0.039322 0.000000 0.000000
# 5 0.000000 0.000000 0.000000 0.000000 0.046199 0.000000
# 6 0.000000 0.000000 0.000000 0.000000 0.000000 0.031761
#
#
# Mechanical properties :
#
#
# Convention : Reuss Voigt Hill
#
# Bulk Modulus (GPa) = 44.30877 49.30509 46.80693
# Shear Modulus (GPa) = 22.81116 25.42936 24.12026
#
# Velocity S-wave (km/s) = 3.27166 3.45432 3.36423
# Velocity P-wave (km/s) = 5.92139 6.24863 6.08721
#
# Compressibility (1/GPa) = 0.02256890
#
# Stress axis : x y z
#
# Youngs Moduli (GPa) = 96.72975 39.67902 43.59676
#
# Poissons Ratio (x) = 0.22267 0.09318
# Poissons Ratio (y) = 0.54283 0.44492
# Poissons Ratio (z) = 0.20674 0.40494
#
# Static dielectric constant tensor:
#      x y z
#    x 1.820870 0.000000 0.000000 
#    y 0.000000 1.868710 0.000000 
#    z 0.000000 0.000000 1.839980 
# 
# From -- ./inp_files/11060.got.cif
#   From: 2010.05.17/outbox.cif.g08.bks.cpg/sg71_6_cif.got.tgz:11060.got - 2010.06.03 16:22:01.
