data_PCOD9523709
_publ_section_title
;
Structure prediction by ZEFSAII (Michael W. Deem and Ramdas Pophale) SiO2 
 PCOD9523709
Probable space group: I M M M
;
_chemical_formula_sum "Si O2"
_cell_formula_units_Z 104
_cell_length_a 26.884820
_cell_length_b 21.749460
_cell_length_c 8.999306
_cell_angle_alpha 90.000000
_cell_angle_beta 90.000000
_cell_angle_gamma 90.000000
_cell_volume 5262.167052
_symmetry_space_group_name_H-M "I M M M"
_symmetry_group_IT_number 71
_symmetry_cell_setting 'orthorhombic'
loop_
_space_group_symop_operation_xyz
x,y,z
-x,-y,z
x,-y,-z
-x,y,-z
-x,-y,-z
x,y,-z
-x,y,z
x,-y,z
1/2+x,1/2+y,1/2+z
1/2-x,1/2-y,1/2+z
1/2+x,1/2-y,1/2-z
1/2-x,1/2+y,1/2-z
1/2-x,1/2-y,1/2-z
1/2+x,1/2+y,1/2-z
1/2-x,1/2+y,1/2+z
1/2+x,1/2-y,1/2+z
loop_
_atom_site_type_symbol
_atom_site_label
_atom_site_fract_x
_atom_site_fract_y
_atom_site_fract_z
Si Si1 0.440909 0.500000 0.829524
Si Si2 0.779874 0.692577 0.177829
Si Si3 0.382794 0.173363 0.172310
Si Si4 0.231514 0.071743 0.820873
Si Si5 0.943780 0.791420 0.325492
Si Si6 0.057123 0.426778 0.173944
Si Si7 0.882393 0.892565 0.176444
O O1 0.500000 0.500000 0.827558
O O2 0.419675 0.441372 0.746563
O O3 0.423848 0.500000 0.000000
O O4 0.750000 0.750000 0.250000
O O5 0.837040 0.696212 0.228961
O O6 0.761239 0.626238 0.239676
O O7 0.774777 0.695066 0.000000
O O8 0.428771 0.220447 0.185606
O O9 0.403075 0.108506 0.228159
O O10 0.367143 0.171798 0.000000
O O11 0.173609 0.086689 0.787734
O O12 0.242235 0.000000 0.780436
O O13 0.238483 0.076893 0.000000
O O14 0.942504 0.808726 0.500000
O O15 0.900969 0.828584 0.242213
O O16 0.000000 0.803070 0.270576
O O17 0.062540 0.500000 0.186047
O O18 0.000000 0.411675 0.215688
O O19 0.063615 0.410156 0.000000
O O20 0.886588 0.891930 0.000000
#
# Coordination Sequence:
#
# PCOD9523709 Si02
#       7
#     8  16  16  16  16  16  16
#     4  11  23  37  55  81 117 159 199 241 290 345
#     4  12  26  44  66  93 124 161 207 261 319 381
#     4  11  23  40  63  90 120 159 205 255 309 368
#     4  10  22  43  67  92 124 162 206 259 315 370
#     4  10  22  39  58  85 122 161 201 246 298 358
#     4   9  19  37  61  90 126 166 205 248 302 366
#     4  11  22  38  60  88 118 154 200 248 298 350
#
# _framework density 19.763721
#
# number of rings (size 3 to 8) (size 9 to 14) (size 15 to 20)
#    0.000    1.462    0.769    4.846    0.000    9.846 
#    0.000    0.769    0.000    0.000    0.000    0.000 
#    0.000    0.000    0.000    0.000    0.000    0.000 
#
# Total GULP energy -290510.593515 kJ/mol
# GULP energy per Si atom -5586.742183 kJ/mol
# Density = 1.971874 g / cm^3
# Si number density = 19.763721 Si / 1000 Ang^3
#
#
#
# Elastic Constant Matrix: (Units=GPa)
#
#
# Indices 1 2 3 4 5 6 
#
# 1 53.0735 30.8775 28.1833 0.0000 0.0000 0.0000
# 2 30.8775 92.8674 41.9396 0.0000 0.0000 0.0000
# 3 28.1833 41.9396 61.9220 0.0000 0.0000 0.0000
# 4 0.0000 0.0000 0.0000 39.6690 0.0000 0.0000
# 5 0.0000 0.0000 0.0000 0.0000 29.1173 0.0000
# 6 0.0000 0.0000 0.0000 0.0000 0.0000 38.6531
#
#
#
# Elastic Compliance Matrix: (Units=1/GPa)
#
#
# Indices 1 2 3 4 5 6 
#
# 1 0.026254 -0.004801 -0.008697 0.000000 0.000000 0.000000
# 2 -0.004801 0.016391 -0.008916 0.000000 0.000000 0.000000
# 3 -0.008697 -0.008916 0.026147 0.000000 0.000000 0.000000
# 4 0.000000 0.000000 0.000000 0.025209 0.000000 0.000000
# 5 0.000000 0.000000 0.000000 0.000000 0.034344 0.000000
# 6 0.000000 0.000000 0.000000 0.000000 0.000000 0.025871
#
#
# Mechanical properties :
#
#
# Convention : Reuss Voigt Hill
#
# Bulk Modulus (GPa) = 41.73314 45.54038 43.63676
# Shear Modulus (GPa) = 24.15083 28.61204 26.38144
#
# Velocity S-wave (km/s) = 3.49947 3.80900 3.65751
# Velocity P-wave (km/s) = 6.12293 6.51437 6.32168
#
# Compressibility (1/GPa) = 0.02396177
#
# Stress axis : x y z
#
# Youngs Moduli (GPa) = 38.09004 61.00856 38.24555
#
# Poissons Ratio (x) = 0.29292 0.33263
# Poissons Ratio (y) = 0.18288 0.34101
# Poissons Ratio (z) = 0.33128 0.54397
#
# Static dielectric constant tensor:
#      x y z
#    x 1.692740 0.000000 0.000000 
#    y 0.000000 1.680110 0.000000 
#    z 0.000000 0.000000 1.671550 
# 
# From -- ./inp_files/14969.got.cif
#   From: 2010.05.17/outbox.cif.g08.bks.cpg/sg71_8_cif.got.tgz:14969.got - 2010.06.03 16:22:01.
