data_PCOD9523498
_publ_section_title
;
Structure prediction by ZEFSAII (Michael W. Deem and Ramdas Pophale) SiO2 
 PCOD9523498
Probable space group: I M M M
;
_chemical_formula_sum "Si O2"
_cell_formula_units_Z 72
_cell_length_a 8.836394
_cell_length_b 29.766073
_cell_length_c 14.667012
_cell_angle_alpha 90.000000
_cell_angle_beta 90.000000
_cell_angle_gamma 90.000000
_cell_volume 3857.787148
_symmetry_space_group_name_H-M "I M M M"
_symmetry_group_IT_number 71
_symmetry_cell_setting 'orthorhombic'
loop_
_space_group_symop_operation_xyz
x,y,z
-x,-y,z
x,-y,-z
-x,y,-z
-x,-y,-z
x,y,-z
-x,y,z
x,-y,z
1/2+x,1/2+y,1/2+z
1/2-x,1/2-y,1/2+z
1/2+x,1/2-y,1/2-z
1/2-x,1/2+y,1/2-z
1/2-x,1/2-y,1/2-z
1/2+x,1/2+y,1/2-z
1/2-x,1/2+y,1/2+z
1/2+x,1/2-y,1/2+z
loop_
_atom_site_type_symbol
_atom_site_label
_atom_site_fract_x
_atom_site_fract_y
_atom_site_fract_z
Si Si1 0.822575 0.553870 0.808713
Si Si2 0.180079 0.873984 0.187722
Si Si3 0.179977 0.259252 0.000000
Si Si4 0.180556 0.660075 0.500000
Si Si5 0.681310 0.206849 0.301062
Si Si6 0.174344 0.945308 0.500000
O O1 0.806904 0.500000 0.802549
O O2 0.732720 0.578786 0.729314
O O3 0.758007 0.568444 0.907347
O O4 0.000000 0.565139 0.803216
O O5 0.252943 0.863018 0.090236
O O6 0.242658 0.836636 0.257672
O O7 0.000000 0.871064 0.181255
O O8 0.268008 0.212185 0.000000
O O9 0.212262 0.286625 0.908194
O O10 0.000000 0.248467 0.000000
O O11 0.000000 0.657557 0.500000
O O12 0.500000 0.205234 0.287545
O O13 0.750000 0.250000 0.250000
O O14 0.000000 0.930474 0.500000
O O15 0.174940 0.000000 0.500000
#
# Coordination Sequence:
#
# PCOD9523498 Si02
#       6
#    16  16   8   8  16   8
#     4  10  21  39  63  91 124 162 206 255 306 361
#     4  12  25  41  62  89 124 161 204 253 305 367
#     4  10  22  39  61  87 122 160 201 250 304 358
#     4  12  24  40  64  88 116 157 206 253 304 368
#     4  11  22  38  60  88 121 159 202 249 299 355
#     4   9  17  32  57  88 121 158 197 239 297 363
#
# _framework density 18.663550000000001
#
# number of rings (size 3 to 8) (size 9 to 14) (size 15 to 20)
#    0.000    1.222    2.222    4.667    0.000    4.444 
#    0.000    3.889    0.000    3.333    0.000    0.000 
#    0.000    0.000    0.000    0.000    0.000    0.000 
#
# Total GULP energy -201306.340137 kJ/mol
# GULP energy per Si atom -5591.842782 kJ/mol
# Density = 1.862107 g / cm^3
# Si number density = 18.663550 Si / 1000 Ang^3
#
#
#
# Elastic Constant Matrix: (Units=GPa)
#
#
# Indices 1 2 3 4 5 6 
#
# 1 150.1040 43.5154 94.9472 0.0000 0.0000 0.0000
# 2 43.5154 38.7766 44.2616 0.0001 0.0000 0.0000
# 3 94.9472 44.2616 170.7475 0.0002 0.0001 0.0000
# 4 0.0000 0.0001 0.0002 15.8283 0.0000 0.0000
# 5 0.0000 0.0000 0.0001 0.0000 30.4472 0.0000
# 6 0.0000 0.0000 0.0000 0.0000 0.0000 32.0074
#
#
#
# Elastic Compliance Matrix: (Units=1/GPa)
#
#
# Indices 1 2 3 4 5 6 
#
# 1 0.011874 -0.008221 -0.004472 0.000000 0.000000 0.000000
# 2 -0.008221 0.042318 -0.006398 0.000000 0.000000 0.000000
# 3 -0.004472 -0.006398 0.010002 0.000000 0.000000 0.000000
# 4 0.000000 0.000000 0.000000 0.063178 0.000000 0.000000
# 5 0.000000 0.000000 0.000000 0.000000 0.032844 0.000000
# 6 0.000000 0.000000 0.000000 0.000000 0.000000 0.031243
#
#
# Mechanical properties :
#
#
# Convention : Reuss Voigt Hill
#
# Bulk Modulus (GPa) = 38.44438 80.56407 59.50422
# Shear Modulus (GPa) = 20.98113 27.45017 24.21565
#
# Velocity S-wave (km/s) = 3.35651 3.83925 3.60597
# Velocity P-wave (km/s) = 5.97201 7.93179 7.02062
#
# Compressibility (1/GPa) = 0.02601161
#
# Stress axis : x y z
#
# Youngs Moduli (GPa) = 84.21962 23.63087 99.98258
#
# Poissons Ratio (x) = 0.19426 0.44708
# Poissons Ratio (y) = 0.69234 0.63973
# Poissons Ratio (z) = 0.37660 0.15120
#
# Static dielectric constant tensor:
#      x y z
#    x 1.625080 0.000000 0.000000 
#    y 0.000000 1.646960 0.000000 
#    z 0.000000 0.000000 1.628210 
# 
# From -- ./inp_files/31491.got.cif
#   From: 2010.05.17/outbox.cif.g08.bks.cpg/sg71_16_cif.got.tgz:31491.got - 2010.06.03 16:22:01.
