data_PCOD9523674
_publ_section_title
;
Structure prediction by ZEFSAII (Michael W. Deem and Ramdas Pophale) SiO2 
 PCOD9523674
Probable space group: I M M M
;
_chemical_formula_sum "Si O2"
_cell_formula_units_Z 68
_cell_length_a 23.430823
_cell_length_b 7.737231
_cell_length_c 17.655748
_cell_angle_alpha 90.000000
_cell_angle_beta 90.000000
_cell_angle_gamma 90.000000
_cell_volume 3200.805083
_symmetry_space_group_name_H-M "I M M M"
_symmetry_group_IT_number 71
_symmetry_cell_setting 'orthorhombic'
loop_
_space_group_symop_operation_xyz
x,y,z
-x,-y,z
x,-y,-z
-x,y,-z
-x,-y,-z
x,y,-z
-x,y,z
x,-y,z
1/2+x,1/2+y,1/2+z
1/2-x,1/2-y,1/2+z
1/2+x,1/2-y,1/2-z
1/2-x,1/2+y,1/2-z
1/2-x,1/2-y,1/2-z
1/2+x,1/2+y,1/2-z
1/2-x,1/2+y,1/2+z
1/2+x,1/2-y,1/2+z
loop_
_atom_site_type_symbol
_atom_site_label
_atom_site_fract_x
_atom_site_fract_y
_atom_site_fract_z
Si Si1 0.062883 0.300118 0.800826
Si Si2 0.500000 0.000000 0.096164
Si Si3 0.786075 0.792608 0.413145
Si Si4 0.911423 0.198340 0.364844
Si Si5 0.161463 0.796712 0.913492
O O1 0.060828 0.500000 0.775838
O O2 0.073448 0.196749 0.724119
O O3 0.112729 0.280769 0.861145
O O4 0.000000 0.255929 0.832173
O O5 0.549272 0.845137 0.098192
O O6 0.790132 0.729529 0.500000
O O7 0.845006 0.749595 0.372527
O O8 0.725471 0.729123 0.382162
O O9 0.782505 0.000000 0.414199
O O10 0.918388 0.000000 0.394509
O O11 0.150482 0.000000 0.916846
O O12 0.160403 0.727197 0.000000
#
# Coordination Sequence:
#
# PCOD9523674 Si02
#       5
#    16   4  16  16  16
#     4  11  22  39  61  86 119 158 203 252 302 363
#     4  12  22  40  61  92 125 162 202 246 300 368
#     4   9  20  40  63  87 118 158 202 252 305 356
#     4  11  22  39  64  90 123 163 203 250 302 354
#     4  10  22  38  59  88 120 157 201 249 306 365
#
# _framework density 21.244655999999999
#
# number of rings (size 3 to 8) (size 9 to 14) (size 15 to 20)
#    0.000    1.647    2.353    1.765    1.647    4.235 
#    0.000    3.529    0.000    2.824    0.000    0.000 
#    0.000    0.000    0.000    0.000    0.000    0.000 
#
# Total GULP energy -189322.569652 kJ/mol
# GULP energy per Si atom -5568.310872 kJ/mol
# Density = 2.119630 g / cm^3
# Si number density = 21.244656 Si / 1000 Ang^3
#
#
#
# Elastic Constant Matrix: (Units=GPa)
#
#
# Indices 1 2 3 4 5 6 
#
# 1 190.7557 42.3063 43.5354 0.0000 0.0000 0.0000
# 2 42.3063 98.5028 15.7380 0.0000 0.0000 0.0000
# 3 43.5354 15.7380 31.7643 0.0000 0.0000 0.0000
# 4 0.0000 0.0000 0.0000 -0.1603 0.0000 0.0000
# 5 0.0000 0.0000 0.0000 0.0000 57.8831 0.0000
# 6 0.0000 0.0000 0.0000 0.0000 0.0000 40.0046
#
#
#
# Elastic Compliance Matrix: (Units=1/GPa)
#
#
# Indices 1 2 3 4 5 6 
#
# 1 0.007915 -0.001809 -0.009951 0.000000 0.000000 0.000000
# 2 -0.001809 0.011438 -0.003187 0.000000 0.000000 0.000000
# 3 -0.009951 -0.003187 0.046700 0.000000 0.000000 0.000000
# 4 0.000000 0.000000 0.000000 -6.239966 0.000000 0.000000
# 5 0.000000 0.000000 0.000000 0.000000 0.017276 0.000000
# 6 0.000000 0.000000 0.000000 0.000000 0.000000 0.024997
#
#
# Mechanical properties :
#
#
# Convention : Reuss Voigt Hill
#
# Bulk Modulus (GPa) = 27.65702 58.24248 42.94975
# Shear Modulus (GPa) = -0.82106 34.17502 16.67698
#
# Velocity S-wave (km/s) = -0.62235 4.01514 2.80482
# Velocity P-wave (km/s) = 3.53980 6.99784 5.54526
#
# Compressibility (1/GPa) = 0.03615719
#
# Stress axis : x y z
#
# Youngs Moduli (GPa) = 126.34647 87.42504 21.41319
#
# Poissons Ratio (x) = 0.15819 0.21309
# Poissons Ratio (y) = 0.22861 0.06825
# Poissons Ratio (z) = 1.25731 0.27866
#
# Static dielectric constant tensor:
#      x y z
#    x 1.759760 0.000000 0.000000 
#    y 0.000000 1.769090 0.000000 
#    z 0.000000 0.000000 1.791150 
# 
# From -- ./inp_files/9638.got.cif
#   From: 2010.05.17/outbox.cif.g08.bks.cpg/sg71_5_cif.got.tgz:9638.got - 2010.06.03 16:22:01.
