data_PCOD9523217
_publ_section_title
;
Structure prediction by ZEFSAII (Michael W. Deem and Ramdas Pophale) SiO2 
 PCOD9523217
Probable space group: I M M M
;
_chemical_formula_sum "Si O2"
_cell_formula_units_Z 90
_cell_length_a 25.211014
_cell_length_b 21.460385
_cell_length_c 8.282716
_cell_angle_alpha 90.000000
_cell_angle_beta 90.000000
_cell_angle_gamma 90.000000
_cell_volume 4481.264652
_symmetry_space_group_name_H-M "I M M M"
_symmetry_group_IT_number 71
_symmetry_cell_setting 'orthorhombic'
loop_
_space_group_symop_operation_xyz
x,y,z
-x,-y,z
x,-y,-z
-x,y,-z
-x,-y,-z
x,y,-z
-x,y,z
x,-y,z
1/2+x,1/2+y,1/2+z
1/2-x,1/2-y,1/2+z
1/2+x,1/2-y,1/2-z
1/2-x,1/2+y,1/2-z
1/2-x,1/2-y,1/2-z
1/2+x,1/2+y,1/2-z
1/2-x,1/2+y,1/2+z
1/2+x,1/2-y,1/2+z
loop_
_atom_site_type_symbol
_atom_site_label
_atom_site_fract_x
_atom_site_fract_y
_atom_site_fract_z
Si Si1 0.500000 0.500000 0.500000
Si Si2 0.058649 0.314065 0.814605
Si Si3 0.281299 0.311634 0.311993
Si Si4 0.897108 0.192416 0.311985
Si Si5 0.500000 0.395773 0.199646
Si Si6 0.277669 0.070024 0.312604
Si Si7 0.607781 0.932499 0.816109
O O1 0.500000 0.445852 0.348922
O O2 0.096588 0.256501 0.784691
O O3 0.070931 0.374010 0.710063
O O4 0.000000 0.289956 0.777899
O O5 0.061231 0.333735 0.000000
O O6 0.292156 0.301910 0.500000
O O7 0.250000 0.250000 0.250000
O O8 0.336980 0.327405 0.224547
O O9 0.245616 0.372718 0.285623
O O10 0.901917 0.207948 0.500000
O O11 0.945559 0.144662 0.277560
O O12 0.500000 0.413883 0.000000
O O13 0.262400 0.076675 0.500000
O O14 0.341166 0.073037 0.296974
O O15 0.261920 0.000000 0.257864
O O16 0.581979 0.000000 0.788084
O O17 0.627773 0.931704 0.000000
#
# Coordination Sequence:
#
# PCOD9523217 Si02
#       7
#     2  16  16  16   8  16  16
#     4  12  26  44  84  98 148 176 232 288 344 432
#     4  11  23  37  59  88 120 159 208 257 312 375
#     4  12  25  41  64  94 130 169 216 268 327 393
#     4  11  23  43  68  94 130 167 215 273 327 396
#     4  10  25  47  73 106 138 180 227 281 350 415
#     4  10  21  40  63  88 121 160 202 251 312 375
#     4  10  21  37  58  84 120 164 209 256 309 370
#
# _framework density 20.083618000000001
#
# number of rings (size 3 to 8) (size 9 to 14) (size 15 to 20)
#    0.000    1.244    0.889    4.933    2.489    3.556 
#    1.600    1.778    0.000    0.000    0.000    0.000 
#    0.000    0.000    0.000    0.000    0.000    0.000 
#
# Total GULP energy -250726.737564 kJ/mol
# GULP energy per Si atom -5571.705279 kJ/mol
# Density = 2.003791 g / cm^3
# Si number density = 20.083618 Si / 1000 Ang^3
#
#
#
# Elastic Constant Matrix: (Units=GPa)
#
#
# Indices 1 2 3 4 5 6 
#
# 1 31.5991 5.7909 27.1677 0.0000 0.0000 0.0000
# 2 5.7909 88.7097 42.2969 0.0000 0.0000 0.0000
# 3 27.1677 42.2969 68.5228 0.0000 0.0000 0.0000
# 4 0.0000 0.0000 0.0000 32.4918 0.0000 0.0000
# 5 0.0000 0.0000 0.0000 0.0000 28.9423 0.0000
# 6 0.0000 0.0000 0.0000 0.0000 0.0000 22.2669
#
#
#
# Elastic Compliance Matrix: (Units=1/GPa)
#
#
# Indices 1 2 3 4 5 6 
#
# 1 0.052904 0.009278 -0.026702 0.000000 0.000000 0.000000
# 2 0.009278 0.017601 -0.014543 0.000000 0.000000 0.000000
# 3 -0.026702 -0.014543 0.034158 0.000000 0.000000 0.000000
# 4 0.000000 0.000000 0.000000 0.030777 0.000000 0.000000
# 5 0.000000 0.000000 0.000000 0.000000 0.034552 0.000000
# 6 0.000000 0.000000 0.000000 0.000000 0.000000 0.044910
#
#
# Mechanical properties :
#
#
# Convention : Reuss Voigt Hill
#
# Bulk Modulus (GPa) = 24.55321 37.70474 31.12897
# Shear Modulus (GPa) = 17.09920 24.31194 20.70557
#
# Velocity S-wave (km/s) = 2.92104 3.48305 3.21435
# Velocity P-wave (km/s) = 4.86093 5.91525 5.41382
#
# Compressibility (1/GPa) = 0.04072787
#
# Stress axis : x y z
#
# Youngs Moduli (GPa) = 18.90228 56.81395 29.27607
#
# Poissons Ratio (x) = -0.52713 0.78173
# Poissons Ratio (y) = -0.17538 0.42577
# Poissons Ratio (z) = 0.50473 0.82626
#
# Static dielectric constant tensor:
#      x y z
#    x 1.730360 0.000000 0.000000 
#    y 0.000000 1.704440 0.000000 
#    z 0.000000 0.000000 1.695540 
# 
# From -- ./inp_files/12588.got.cif
#   From: 2010.05.17/outbox.cif.g08.bks.cpg/sg71_7_cif.got.tgz:12588.got - 2010.06.03 16:22:01.
