data_PCOD9523979
_publ_section_title
;
Structure prediction by ZEFSAII (Michael W. Deem and Ramdas Pophale) SiO2 
 PCOD9523979
Probable space group: I M M M
;
_chemical_formula_sum "Si O2"
_cell_formula_units_Z 64
_cell_length_a 25.976638
_cell_length_b 12.643609
_cell_length_c 9.481634
_cell_angle_alpha 90.000000
_cell_angle_beta 90.000000
_cell_angle_gamma 90.000000
_cell_volume 3114.133212
_symmetry_space_group_name_H-M "I M M M"
_symmetry_group_IT_number 71
_symmetry_cell_setting 'orthorhombic'
loop_
_space_group_symop_operation_xyz
x,y,z
-x,-y,z
x,-y,-z
-x,y,-z
-x,-y,-z
x,y,-z
-x,y,z
x,-y,z
1/2+x,1/2+y,1/2+z
1/2-x,1/2-y,1/2+z
1/2+x,1/2-y,1/2-z
1/2-x,1/2+y,1/2-z
1/2-x,1/2-y,1/2-z
1/2+x,1/2+y,1/2-z
1/2-x,1/2+y,1/2+z
1/2+x,1/2-y,1/2+z
loop_
_atom_site_type_symbol
_atom_site_label
_atom_site_fract_x
_atom_site_fract_y
_atom_site_fract_z
Si Si1 0.731587 0.500000 0.766677
Si Si2 0.589652 0.729241 0.767962
Si Si3 0.000000 0.739986 0.500000
Si Si4 0.193996 0.500000 0.500000
Si Si5 0.614374 0.870011 0.500000
Si Si6 0.831859 0.721825 0.500000
Si Si7 0.886572 0.000000 0.167408
Si Si8 0.235441 0.335868 0.000000
O O1 0.769374 0.500000 0.634924
O O2 0.671854 0.500000 0.726253
O O3 0.745918 0.400508 0.863904
O O4 0.591639 0.813194 0.639585
O O5 0.642352 0.732071 0.859950
O O6 0.585743 0.608162 0.714880
O O7 0.544859 0.755963 0.876780
O O8 0.156846 0.400757 0.500000
O O9 0.674414 0.834758 0.500000
O O10 0.611153 0.000000 0.500000
O O11 0.769975 0.731622 0.500000
O O12 0.882969 0.000000 0.000000
#
# Coordination Sequence:
#
# PCOD9523979 Si02
#       8
#     8  16   4   4   8   8   8   8
#     4  11  22  37  58  94 144 184 228 270 318 407
#     4  11  26  47  74 101 140 179 231 301 350 419
#     4  10  28  55  75 108 126 172 241 293 378 430
#     4  12  26  36  58  95 148 193 238 274 320 410
#     4  12  26  45  71 103 146 184 229 284 347 409
#     4  11  25  39  65 102 142 197 232 280 338 398
#     4  12  23  43  69 112 145 177 231 288 351 408
#     4  11  23  39  61  99 138 191 234 265 330 409
#
# _framework density 20.551465
#
# number of rings (size 3 to 8) (size 9 to 14) (size 15 to 20)
#    0.000    0.750    5.625    1.500    5.250    5.500 
#    0.000    2.500    0.000    0.000    0.000    0.000 
#    0.000    0.000    0.000    0.000    0.000    0.000 
#
# Total GULP energy -178264.977142 kJ/mol
# GULP energy per Si atom -5570.780536 kJ/mol
# Density = 2.050469 g / cm^3
# Si number density = 20.551465 Si / 1000 Ang^3
#
#
#
# Elastic Constant Matrix: (Units=GPa)
#
#
# Indices 1 2 3 4 5 6 
#
# 1 106.5137 27.3304 59.4411 0.0000 0.0000 0.0000
# 2 27.3304 126.2959 56.4034 0.0000 0.0000 0.0000
# 3 59.4411 56.4034 185.6339 0.0000 0.0000 0.0000
# 4 0.0000 0.0000 0.0000 65.7016 0.0000 0.0000
# 5 0.0000 0.0000 0.0000 0.0000 -5.4949 0.0000
# 6 0.0000 0.0000 0.0000 0.0000 0.0000 -5.8392
#
#
#
# Elastic Compliance Matrix: (Units=1/GPa)
#
#
# Indices 1 2 3 4 5 6 
#
# 1 0.011535 -0.000980 -0.003396 0.000000 0.000000 0.000000
# 2 -0.000980 0.009244 -0.002495 0.000000 0.000000 0.000000
# 3 -0.003396 -0.002495 0.007232 0.000000 0.000000 0.000000
# 4 0.000000 0.000000 0.000000 0.015220 0.000000 0.000000
# 5 0.000000 0.000000 0.000000 0.000000 -0.181987 0.000000
# 6 0.000000 0.000000 0.000000 0.000000 0.000000 -0.171258
#
#
# Mechanical properties :
#
#
# Convention : Reuss Voigt Hill
#
# Bulk Modulus (GPa) = 70.07504 78.31036 74.19270
# Shear Modulus (GPa) = -17.15177 29.22475 6.03649
#
# Velocity S-wave (km/s) = -2.89204 3.77507 1.71570
# Velocity P-wave (km/s) = 4.79787 7.56233 6.33278
#
# Compressibility (1/GPa) = 0.01427042
#
# Stress axis : x y z
#
# Youngs Moduli (GPa) = 86.69313 108.17591 138.26540
#
# Poissons Ratio (x) = 0.10596 0.46954
# Poissons Ratio (y) = 0.08492 0.34499
# Poissons Ratio (z) = 0.29440 0.26991
#
# Static dielectric constant tensor:
#      x y z
#    x 1.704400 0.000000 0.000000 
#    y 0.000000 1.766240 0.000000 
#    z 0.000000 0.000000 1.634150 
# 
# From -- ./inp_files/16254.got.cif
#   From: 2010.05.17/outbox.cif.g08.bks.cpg/sg71_9_cif.got.tgz:16254.got - 2010.06.03 16:22:01.
