data_PCOD9523822
_publ_section_title
;
Structure prediction by ZEFSAII (Michael W. Deem and Ramdas Pophale) SiO2 
 PCOD9523822
Probable space group: I M M M
;
_chemical_formula_sum "Si O2"
_cell_formula_units_Z 116
_cell_length_a 25.701398
_cell_length_b 9.061404
_cell_length_c 26.516870
_cell_angle_alpha 90.000000
_cell_angle_beta 90.000000
_cell_angle_gamma 90.000000
_cell_volume 6175.533759
_symmetry_space_group_name_H-M "I M M M"
_symmetry_group_IT_number 71
_symmetry_cell_setting 'orthorhombic'
loop_
_space_group_symop_operation_xyz
x,y,z
-x,-y,z
x,-y,-z
-x,y,-z
-x,-y,-z
x,y,-z
-x,y,z
x,-y,z
1/2+x,1/2+y,1/2+z
1/2-x,1/2-y,1/2+z
1/2+x,1/2-y,1/2-z
1/2-x,1/2+y,1/2-z
1/2-x,1/2-y,1/2-z
1/2+x,1/2+y,1/2-z
1/2-x,1/2+y,1/2+z
1/2+x,1/2-y,1/2+z
loop_
_atom_site_type_symbol
_atom_site_label
_atom_site_fract_x
_atom_site_fract_y
_atom_site_fract_z
Si Si1 0.700212 0.327289 0.774035
Si Si2 0.342896 0.662506 0.604646
Si Si3 0.440143 0.674202 0.133213
Si Si4 0.357970 0.824431 0.058628
Si Si5 0.091085 0.324440 0.263335
Si Si6 0.765151 0.171878 0.388730
Si Si7 0.557904 0.823675 0.349456
Si Si8 0.654156 0.500000 0.500000
O O1 0.697466 0.500000 0.760650
O O2 0.750000 0.250000 0.750000
O O3 0.648840 0.240973 0.757900
O O4 0.706877 0.317678 0.834417
O O5 0.337453 0.500000 0.629646
O O6 0.292009 0.758878 0.615526
O O7 0.395307 0.739478 0.623552
O O8 0.345432 0.625905 0.545207
O O9 0.500000 0.692763 0.116749
O O10 0.428512 0.500000 0.136640
O O11 0.400393 0.749243 0.094600
O O12 0.433575 0.745946 0.188272
O O13 0.301357 0.760956 0.072749
O O14 0.357974 0.000000 0.066940
O O15 0.369361 0.795352 0.000000
O O16 0.092910 0.500000 0.272094
O O17 0.062230 0.297759 0.210633
O O18 0.762023 0.000000 0.402677
O O19 0.500000 0.779603 0.366799
O O20 0.563753 0.000000 0.357065
#
# Coordination Sequence:
#
# PCOD9523822 Si02
#       8
#    16  16  16  16  16  16  16   4
#     4  11  23  37  56  87 128 167 206 253 308 375
#     4  10  22  41  64  90 125 163 207 258 316 376
#     4  11  24  42  63  90 126 165 210 262 315 375
#     4  11  25  42  64  92 122 163 214 264 314 372
#     4  11  22  38  62  91 126 166 210 256 314 377
#     4  11  23  39  62  92 127 165 208 257 314 376
#     4  10  22  41  64  93 127 164 211 263 315 381
#     4   8  24  44  63  94 128 164 207 272 318 378
#
# _framework density 18.783802000000001
#
# number of rings (size 3 to 8) (size 9 to 14) (size 15 to 20)
#    0.414    0.966    1.379    3.724    0.966    9.379 
#    0.000    3.103    0.000    0.828    0.000    0.000 
#    0.000    0.000    0.000    0.000    0.000    0.000 
#
# Total GULP energy -323559.923566 kJ/mol
# GULP energy per Si atom -5578.619372 kJ/mol
# Density = 1.874105 g / cm^3
# Si number density = 18.783802 Si / 1000 Ang^3
#
#
#
# Elastic Constant Matrix: (Units=GPa)
#
#
# Indices 1 2 3 4 5 6 
#
# 1 107.6701 36.7050 7.8658 0.0000 0.0000 0.0000
# 2 36.7050 78.3270 22.9204 0.0000 0.0000 0.0000
# 3 7.8658 22.9204 35.9889 0.0000 0.0000 0.0000
# 4 0.0000 0.0000 0.0000 34.3827 0.0000 0.0000
# 5 0.0000 0.0000 0.0000 0.0000 1.4979 0.0000
# 6 0.0000 0.0000 0.0000 0.0000 0.0000 25.5319
#
#
#
# Elastic Compliance Matrix: (Units=1/GPa)
#
#
# Indices 1 2 3 4 5 6 
#
# 1 0.011088 -0.005515 0.001089 0.000000 0.000000 0.000000
# 2 -0.005515 0.018434 -0.010535 0.000000 0.000000 0.000000
# 3 0.001089 -0.010535 0.034258 0.000000 0.000000 0.000000
# 4 0.000000 0.000000 0.000000 0.029084 0.000000 0.000000
# 5 0.000000 0.000000 0.000000 0.000000 0.667596 0.000000
# 6 0.000000 0.000000 0.000000 0.000000 0.000000 0.039167
#
#
# Mechanical properties :
#
#
# Convention : Reuss Voigt Hill
#
# Bulk Modulus (GPa) = 29.53487 39.66314 34.59900
# Shear Modulus (GPa) = 5.94647 22.58214 14.26431
#
# Velocity S-wave (km/s) = 1.78118 3.47106 2.75870
# Velocity P-wave (km/s) = 4.47078 6.10129 5.34853
#
# Compressibility (1/GPa) = 0.03385829
#
# Stress axis : x y z
#
# Youngs Moduli (GPa) = 90.18738 54.24778 29.19047
#
# Poissons Ratio (x) = 0.29915 -0.03178
# Poissons Ratio (y) = 0.49734 0.30752
# Poissons Ratio (z) = -0.09818 0.57149
#
# Static dielectric constant tensor:
#      x y z
#    x 1.643940 0.000000 0.000000 
#    y 0.000000 1.634460 0.000000 
#    z 0.000000 0.000000 1.637500 
# 
# From -- ./inp_files/13406.got.cif
#   From: 2010.05.17/outbox.cif.g08.bks.cpg/sg71_7_cif.got.tgz:13406.got - 2010.06.03 16:22:01.
