data_PCOD9523080
_publ_section_title
;
Structure prediction by ZEFSAII (Michael W. Deem and Ramdas Pophale) SiO2 
 PCOD9523080
Probable space group: I M M M
;
_chemical_formula_sum "Si O2"
_cell_formula_units_Z 104
_cell_length_a 8.092656
_cell_length_b 28.213457
_cell_length_c 22.207688
_cell_angle_alpha 90.000000
_cell_angle_beta 90.000000
_cell_angle_gamma 90.000000
_cell_volume 5070.499344
_symmetry_space_group_name_H-M "I M M M"
_symmetry_group_IT_number 71
_symmetry_cell_setting 'orthorhombic'
loop_
_space_group_symop_operation_xyz
x,y,z
-x,-y,z
x,-y,-z
-x,y,-z
-x,-y,-z
x,y,-z
-x,y,z
x,-y,z
1/2+x,1/2+y,1/2+z
1/2-x,1/2-y,1/2+z
1/2+x,1/2-y,1/2-z
1/2-x,1/2+y,1/2-z
1/2-x,1/2-y,1/2-z
1/2+x,1/2+y,1/2-z
1/2-x,1/2+y,1/2+z
1/2+x,1/2-y,1/2+z
loop_
_atom_site_type_symbol
_atom_site_label
_atom_site_fract_x
_atom_site_fract_y
_atom_site_fract_z
Si Si1 0.803289 0.771661 0.867441
Si Si2 0.696370 0.633500 0.695941
Si Si3 0.812713 0.886364 0.000000
Si Si4 0.810565 0.500000 0.926893
Si Si5 0.305338 0.054287 0.887142
Si Si6 0.700675 0.172101 0.676230
Si Si7 0.688852 0.782422 0.000000
Si Si8 0.702429 0.896331 0.568918
O O1 0.738282 0.822075 0.843947
O O2 0.740043 0.726280 0.830739
O O3 0.770430 0.765514 0.938111
O O4 0.000000 0.773138 0.858458
O O5 0.500000 0.629315 0.686721
O O6 0.775965 0.585211 0.672412
O O7 0.733349 0.646955 0.764367
O O8 0.782843 0.918215 0.941466
O O9 0.701075 0.839715 0.000000
O O10 0.000000 0.868052 0.000000
O O11 0.737304 0.448830 0.911301
O O12 0.000000 0.500000 0.904380
O O13 0.817202 0.500000 0.000000
O O14 0.500000 0.053845 0.901015
O O15 0.248620 0.000000 0.881801
O O16 0.500000 0.172176 0.678894
O O17 0.750527 0.143137 0.616695
O O18 0.500000 0.767402 0.000000
O O19 0.754258 0.886997 0.500000
O O20 0.500000 0.898332 0.568103
#
# Coordination Sequence:
#
# PCOD9523080 Si02
#       8
#    16  16   8   8  16  16   8  16
#     4  10  22  39  60  85 116 157 200 249 305 363
#     4  11  23  40  60  82 117 162 204 247 301 364
#     4  12  23  39  64  95 130 164 201 245 307 374
#     4   7  10  20  40  68 103 135 167 212 269 328
#     4  11  24  42  65  93 124 160 208 260 303 353
#     4  10  21  36  58  86 116 153 200 248 299 358
#     4  12  24  37  61  92 122 160 203 256 308 359
#     4   8  14  26  47  76 107 141 182 232 285 339
#
# _framework density 20.5108
#
# number of rings (size 3 to 8) (size 9 to 14) (size 15 to 20)
#    0.000    1.923    1.538    3.923    1.077    3.385 
#    1.385    0.000    0.000    0.000    0.000    0.000 
#    0.000    1.846    0.000    0.000    0.000    0.000 
#
# Total GULP energy -290417.209956 kJ/mol
# GULP energy per Si atom -5584.946345 kJ/mol
# Density = 2.046412 g / cm^3
# Si number density = 20.510800 Si / 1000 Ang^3
#
#
#
# Elastic Constant Matrix: (Units=GPa)
#
#
# Indices 1 2 3 4 5 6 
#
# 1 18.5570 -2.7537 -11.2739 0.0000 0.0000 0.0000
# 2 -2.7537 70.4255 15.4999 0.0000 0.0000 0.0000
# 3 -11.2739 15.4999 83.3387 0.0000 0.0000 0.0000
# 4 0.0000 0.0000 0.0000 17.0966 0.0000 0.0000
# 5 0.0000 0.0000 0.0000 0.0000 24.0622 0.0000
# 6 0.0000 0.0000 0.0000 0.0000 0.0000 11.3713
#
#
#
# Elastic Compliance Matrix: (Units=1/GPa)
#
#
# Indices 1 2 3 4 5 6 
#
# 1 0.058735 0.000571 0.007839 0.000000 0.000000 0.000000
# 2 0.000571 0.014811 -0.002677 0.000000 0.000000 0.000000
# 3 0.007839 -0.002677 0.013558 0.000000 0.000000 0.000000
# 4 0.000000 0.000000 0.000000 0.058491 0.000000 0.000000
# 5 0.000000 0.000000 0.000000 0.000000 0.041559 0.000000
# 6 0.000000 0.000000 0.000000 0.000000 0.000000 0.087941
#
#
# Mechanical properties :
#
#
# Convention : Reuss Voigt Hill
#
# Bulk Modulus (GPa) = 10.14500 19.47396 14.80948
# Shear Modulus (GPa) = 16.86424 21.89594 19.38009
#
# Velocity S-wave (km/s) = 2.87054 3.27086 3.07721
# Velocity P-wave (km/s) = 3.99294 4.87645 4.45664
#
# Compressibility (1/GPa) = 0.09857071
#
# Stress axis : x y z
#
# Youngs Moduli (GPa) = 17.02549 67.51739 73.75894
#
# Poissons Ratio (x) = -0.03857 -0.57822
# Poissons Ratio (y) = -0.00973 0.19748
# Poissons Ratio (z) = -0.13347 0.18077
#
# Static dielectric constant tensor:
#      x y z
#    x 1.719850 0.000000 0.000000 
#    y 0.000000 1.752150 0.000000 
#    z 0.000000 0.000000 1.706840 
# 
# From -- ./inp_files/50990.got.cif
#   From: 2010.05.17/outbox.cif.g08.bks.cpg/sg71_26_cif.got.tgz:50990.got - 2010.06.03 16:22:01.
