data_PCOD9523790
_publ_section_title
;
Structure prediction by ZEFSAII (Michael W. Deem and Ramdas Pophale) SiO2 
 PCOD9523790
Probable space group: I M M M
;
_chemical_formula_sum "Si O2"
_cell_formula_units_Z 104
_cell_length_a 25.460602
_cell_length_b 8.182772
_cell_length_c 22.124012
_cell_angle_alpha 90.000000
_cell_angle_beta 90.000000
_cell_angle_gamma 90.000000
_cell_volume 4609.279075
_symmetry_space_group_name_H-M "I M M M"
_symmetry_group_IT_number 71
_symmetry_cell_setting 'orthorhombic'
loop_
_space_group_symop_operation_xyz
x,y,z
-x,-y,z
x,-y,-z
-x,y,-z
-x,-y,-z
x,y,-z
-x,y,z
x,-y,z
1/2+x,1/2+y,1/2+z
1/2-x,1/2-y,1/2+z
1/2+x,1/2-y,1/2-z
1/2-x,1/2+y,1/2-z
1/2-x,1/2-y,1/2-z
1/2+x,1/2+y,1/2-z
1/2-x,1/2+y,1/2+z
1/2+x,1/2-y,1/2+z
loop_
_atom_site_type_symbol
_atom_site_label
_atom_site_fract_x
_atom_site_fract_y
_atom_site_fract_z
Si Si1 0.942410 0.697209 0.107972
Si Si2 0.938611 0.195729 0.500000
Si Si3 0.913820 0.309816 0.761062
Si Si4 0.223388 0.811123 0.374132
Si Si5 0.393305 0.196611 0.868438
Si Si6 0.868910 0.194008 0.000000
Si Si7 0.800348 0.188945 0.787723
Si Si8 0.751640 0.302379 0.500000
O O1 0.939490 0.500000 0.111375
O O2 0.937193 0.761988 0.176857
O O3 0.898872 0.751070 0.060497
O O4 0.000000 0.742956 0.084496
O O5 0.912867 0.249892 0.564697
O O6 0.000000 0.249981 0.500000
O O7 0.936977 0.000000 0.500000
O O8 0.929338 0.500000 0.759170
O O9 0.924153 0.245826 0.692793
O O10 0.851493 0.294118 0.775097
O O11 0.166075 0.754191 0.353252
O O12 0.274747 0.710955 0.353412
O O13 0.220098 0.776744 0.443957
O O14 0.231772 0.000000 0.358870
O O15 0.393678 0.000000 0.868557
O O16 0.808963 0.250628 0.000000
O O17 0.867947 0.000000 0.000000
O O18 0.750000 0.250000 0.750000
O O19 0.812482 0.000000 0.776111
O O20 0.755894 0.500000 0.500000
#
# Coordination Sequence:
#
# PCOD9523790 Si02
#       8
#    16   8  16  16  16   8  16   8
#     4  10  22  41  65  92 123 162 207 257 313 373
#     4  11  26  47  68  91 123 163 210 265 324 385
#     4  10  22  40  64  95 129 164 209 261 316 375
#     4  12  24  39  61  91 128 168 208 252 307 374
#     4  11  23  41  67  95 126 163 208 261 316 379
#     4  11  24  41  62  90 123 163 210 261 312 365
#     4  12  23  37  59  88 124 165 207 248 300 365
#     4  11  24  41  60  87 124 163 208 261 310 367
#
# _framework density 22.563182000000001
#
# number of rings (size 3 to 8) (size 9 to 14) (size 15 to 20)
#    0.000    1.000    1.538    5.538    0.000    7.385 
#    0.000    1.538    0.000    0.000    0.000    0.000 
#    0.000    0.000    0.000    0.000    0.000    0.000 
#
# Total GULP energy -290307.669469 kJ/mol
# GULP energy per Si atom -5582.839797 kJ/mol
# Density = 2.251183 g / cm^3
# Si number density = 22.563182 Si / 1000 Ang^3
#
#
#
# Elastic Constant Matrix: (Units=GPa)
#
#
# Indices 1 2 3 4 5 6 
#
# 1 73.4787 5.1057 4.8315 0.0000 0.0000 0.0000
# 2 5.1057 55.8184 5.8347 0.0000 0.0000 0.0000
# 3 4.8315 5.8347 126.5203 0.0000 0.0000 0.0000
# 4 0.0000 0.0000 0.0000 18.5885 0.0000 0.0000
# 5 0.0000 0.0000 0.0000 0.0000 -6.7208 0.0000
# 6 0.0000 0.0000 0.0000 0.0000 0.0000 15.4519
#
#
#
# Elastic Compliance Matrix: (Units=1/GPa)
#
#
# Indices 1 2 3 4 5 6 
#
# 1 0.013724 -0.001206 -0.000468 0.000000 0.000000 0.000000
# 2 -0.001206 0.018108 -0.000789 0.000000 0.000000 0.000000
# 3 -0.000468 -0.000789 0.007958 0.000000 0.000000 0.000000
# 4 0.000000 0.000000 0.000000 0.053797 0.000000 0.000000
# 5 0.000000 0.000000 0.000000 0.000000 -0.148792 0.000000
# 6 0.000000 0.000000 0.000000 0.000000 0.000000 0.064717
#
#
# Mechanical properties :
#
#
# Convention : Reuss Voigt Hill
#
# Bulk Modulus (GPa) = 28.68407 31.92901 30.30654
# Shear Modulus (GPa) = 191.86003 21.46695 106.66349
#
# Velocity S-wave (km/s) = 9.23130 3.08785 6.88301
# Velocity P-wave (km/s) = 11.24113 5.18601 8.75379
#
# Compressibility (1/GPa) = 0.03486256
#
# Stress axis : x y z
#
# Youngs Moduli (GPa) = 72.86493 55.22399 125.65740
#
# Poissons Ratio (x) = 0.06662 0.05886
# Poissons Ratio (y) = 0.08790 0.09915
# Poissons Ratio (z) = 0.03413 0.04357
#
# Static dielectric constant tensor:
#      x y z
#    x 1.852170 0.000000 0.000000 
#    y 0.000000 1.809660 0.000000 
#    z 0.000000 0.000000 1.998820 
# 
# From -- ./inp_files/56332.got.cif
#   From: 2010.05.17/outbox.cif.g08.bks.cpg/sg71_29_cif.got.tgz:56332.got - 2010.06.03 16:22:01.
