data_PCOD9523782
_publ_section_title
;
Structure prediction by ZEFSAII (Michael W. Deem and Ramdas Pophale) SiO2 
 PCOD9523782
Probable space group: I M M M
;
_chemical_formula_sum "Si O2"
_cell_formula_units_Z 90
_cell_length_a 8.024116
_cell_length_b 26.050194
_cell_length_c 20.559217
_cell_angle_alpha 90.000000
_cell_angle_beta 90.000000
_cell_angle_gamma 90.000000
_cell_volume 4297.488575
_symmetry_space_group_name_H-M "I M M M"
_symmetry_group_IT_number 71
_symmetry_cell_setting 'orthorhombic'
loop_
_space_group_symop_operation_xyz
x,y,z
-x,-y,z
x,-y,-z
-x,y,-z
-x,-y,-z
x,y,-z
-x,y,z
x,-y,z
1/2+x,1/2+y,1/2+z
1/2-x,1/2-y,1/2+z
1/2+x,1/2-y,1/2-z
1/2-x,1/2+y,1/2-z
1/2-x,1/2-y,1/2-z
1/2+x,1/2+y,1/2-z
1/2-x,1/2+y,1/2+z
1/2+x,1/2-y,1/2+z
loop_
_atom_site_type_symbol
_atom_site_label
_atom_site_fract_x
_atom_site_fract_y
_atom_site_fract_z
Si Si1 0.500000 0.500000 0.000000
Si Si2 0.300989 0.334924 0.570466
Si Si3 0.302621 0.855680 0.634813
Si Si4 0.803176 0.584517 0.000000
Si Si5 0.309304 0.754164 0.175821
Si Si6 0.201741 0.442981 0.765823
Si Si7 0.199160 0.056280 0.115845
O O1 0.651844 0.544129 0.000000
O O2 0.240263 0.315362 0.500000
O O3 0.500000 0.339784 0.566571
O O4 0.271274 0.297187 0.630366
O O5 0.232967 0.392321 0.582935
O O6 0.500000 0.847014 0.646703
O O7 0.286013 0.880811 0.564294
O O8 0.215817 0.801371 0.643502
O O9 0.241507 0.897418 0.687537
O O10 0.000000 0.565055 0.000000
O O11 0.500000 0.768649 0.178651
O O12 0.250000 0.750000 0.250000
O O13 0.248538 0.500000 0.791015
O O14 0.269709 0.438242 0.693062
O O15 0.000000 0.441335 0.763104
O O16 0.000000 0.054956 0.104771
O O17 0.265966 0.000000 0.096059
#
# Coordination Sequence:
#
# PCOD9523782 Si02
#       7
#     2  16  16   8  16  16  16
#     4  12  26  44  68  98 140 180 250 272 340 426
#     4  10  22  40  63  90 123 163 206 253 313 381
#     4  10  22  41  64  89 123 166 216 268 335 397
#     4  10  25  45  67  96 137 185 225 288 348 412
#     4  12  26  43  66  92 125 164 214 273 330 397
#     4   9  18  33  56  85 116 155 199 247 304 373
#     4   9  18  34  56  87 122 156 196 246 304 366
#
# _framework density 20.942464999999999
#
# number of rings (size 3 to 8) (size 9 to 14) (size 15 to 20)
#    0.000    1.956    0.000    2.800    3.733    4.978 
#    0.000    1.778    0.000    0.000    0.000    3.733 
#    0.000    0.000    0.000    0.000    0.000    0.000 
#
# Total GULP energy -250965.171462 kJ/mol
# GULP energy per Si atom -5577.003810 kJ/mol
# Density = 2.089480 g / cm^3
# Si number density = 20.942465 Si / 1000 Ang^3
#
#
#
# Elastic Constant Matrix: (Units=GPa)
#
#
# Indices 1 2 3 4 5 6 
#
# 1 48.0180 23.7743 22.6008 0.0000 0.0000 0.0000
# 2 23.7743 130.2665 64.4349 0.0000 0.0000 0.0000
# 3 22.6008 64.4349 103.3698 -0.0001 0.0000 0.0000
# 4 0.0000 0.0000 -0.0001 76.9512 0.0000 0.0000
# 5 0.0000 0.0000 0.0000 0.0000 17.0524 0.0000
# 6 0.0000 0.0000 0.0000 0.0000 0.0000 19.1355
#
#
#
# Elastic Compliance Matrix: (Units=1/GPa)
#
#
# Indices 1 2 3 4 5 6 
#
# 1 0.023790 -0.002557 -0.003607 0.000000 0.000000 0.000000
# 2 -0.002557 0.011374 -0.006530 0.000000 0.000000 0.000000
# 3 -0.003607 -0.006530 0.014533 0.000000 0.000000 0.000000
# 4 0.000000 0.000000 0.000000 0.012995 0.000000 0.000000
# 5 0.000000 0.000000 0.000000 0.000000 0.058643 0.000000
# 6 0.000000 0.000000 0.000000 0.000000 0.000000 0.052259
#
#
# Mechanical properties :
#
#
# Convention : Reuss Voigt Hill
#
# Bulk Modulus (GPa) = 41.14164 55.91939 48.53051
# Shear Modulus (GPa) = 24.14457 34.01742 29.08099
#
# Velocity S-wave (km/s) = 3.39912 4.03467 3.73045
# Velocity P-wave (km/s) = 5.92394 6.96162 6.46364
#
# Compressibility (1/GPa) = 0.02430628
#
# Stress axis : x y z
#
# Youngs Moduli (GPa) = 42.03527 87.92331 68.80704
#
# Poissons Ratio (x) = 0.22486 0.24820
# Poissons Ratio (y) = 0.10750 0.44934
# Poissons Ratio (z) = 0.15163 0.57418
#
# Static dielectric constant tensor:
#      x y z
#    x 1.753040 0.000000 0.000000 
#    y 0.000000 2.124290 0.000000 
#    z 0.000000 0.000000 1.673340 
# 
# From -- ./inp_files/50562.got.cif
#   From: 2010.05.17/outbox.cif.g08.bks.cpg/sg71_26_cif.got.tgz:50562.got - 2010.06.03 16:22:01.
