data_PCOD9523094
_publ_section_title
;
Structure prediction by ZEFSAII (Michael W. Deem and Ramdas Pophale) SiO2 
 PCOD9523094
Probable space group: I M M M
;
_chemical_formula_sum "Si O2"
_cell_formula_units_Z 104
_cell_length_a 28.990894
_cell_length_b 18.201124
_cell_length_c 11.214590
_cell_angle_alpha 90.000000
_cell_angle_beta 90.000000
_cell_angle_gamma 90.000000
_cell_volume 5917.567453
_symmetry_space_group_name_H-M "I M M M"
_symmetry_group_IT_number 71
_symmetry_cell_setting 'orthorhombic'
loop_
_space_group_symop_operation_xyz
x,y,z
-x,-y,z
x,-y,-z
-x,y,-z
-x,-y,-z
x,y,-z
-x,y,z
x,-y,z
1/2+x,1/2+y,1/2+z
1/2-x,1/2-y,1/2+z
1/2+x,1/2-y,1/2-z
1/2-x,1/2+y,1/2-z
1/2-x,1/2-y,1/2-z
1/2+x,1/2+y,1/2-z
1/2-x,1/2+y,1/2+z
1/2+x,1/2-y,1/2+z
loop_
_atom_site_type_symbol
_atom_site_label
_atom_site_fract_x
_atom_site_fract_y
_atom_site_fract_z
Si Si1 0.945068 0.278520 0.857140
Si Si2 0.348416 0.411841 0.500000
Si Si3 0.605685 0.361520 0.254742
Si Si4 0.302870 0.307206 0.139780
Si Si5 0.882577 0.416823 0.143343
Si Si6 0.555020 0.500000 0.859556
Si Si7 0.209631 0.649280 0.747958
Si Si8 0.756856 0.587537 0.500000
O O1 0.923299 0.212262 0.780911
O O2 0.920057 0.354908 0.823468
O O3 0.000000 0.282535 0.840491
O O4 0.936698 0.265930 0.000000
O O5 0.347548 0.500000 0.500000
O O6 0.373689 0.385129 0.617976
O O7 0.295783 0.383720 0.500000
O O8 0.649470 0.347432 0.169444
O O9 0.575555 0.427388 0.201870
O O10 0.257183 0.352221 0.177421
O O11 0.302352 0.234295 0.221691
O O12 0.299978 0.288529 0.000000
O O13 0.892655 0.500000 0.185158
O O14 0.832829 0.390339 0.189101
O O15 0.881508 0.418298 0.000000
O O16 0.500000 0.500000 0.847101
O O17 0.566526 0.500000 0.000000
O O18 0.218925 0.614216 0.619478
O O19 0.755349 0.500000 0.500000
#
# Coordination Sequence:
#
# PCOD9523094 Si02
#       8
#    16   8  16  16  16   8  16   8
#     4  10  21  36  59  90 118 148 193 246 300 356
#     4  11  22  38  58  88 121 153 194 244 300 357
#     4  12  21  40  63  87 119 157 196 247 300 357
#     4  11  23  36  58  87 118 154 197 238 286 355
#     4  10  21  38  59  85 121 160 196 241 298 354
#     4  11  26  45  63  85 119 162 207 253 302 355
#     4  11  21  37  57  84 120 154 196 238 288 344
#     4  11  22  36  56  84 119 158 195 236 292 340
#
# _framework density 17.574788999999999
#
# number of rings (size 3 to 8) (size 9 to 14) (size 15 to 20)
#    0.000    1.154    5.385    1.846    0.000    0.308 
#    1.385    1.923    0.000    0.000    0.000    0.000 
#    0.000    3.077    0.000    0.000    0.000    0.000 
#
# Total GULP energy -290408.297826 kJ/mol
# GULP energy per Si atom -5584.774958 kJ/mol
# Density = 1.753479 g / cm^3
# Si number density = 17.574789 Si / 1000 Ang^3
#
#
#
# Elastic Constant Matrix: (Units=GPa)
#
#
# Indices 1 2 3 4 5 6 
#
# 1 110.9800 61.7109 23.4511 0.0000 0.0000 0.0000
# 2 61.7109 118.5553 21.9760 0.0000 0.0000 0.0000
# 3 23.4511 21.9760 39.6655 0.0000 0.0000 0.0000
# 4 0.0000 0.0000 0.0000 6.3902 0.0000 0.0000
# 5 0.0000 0.0000 0.0000 0.0000 27.9827 0.0000
# 6 0.0000 0.0000 0.0000 0.0000 0.0000 16.7991
#
#
#
# Elastic Compliance Matrix: (Units=1/GPa)
#
#
# Indices 1 2 3 4 5 6 
#
# 1 0.013368 -0.006122 -0.004512 0.000000 0.000000 0.000000
# 2 -0.006122 0.012204 -0.003142 0.000000 0.000000 0.000000
# 3 -0.004512 -0.003142 0.029619 0.000000 0.000000 0.000000
# 4 0.000000 0.000000 0.000000 0.156490 0.000000 0.000000
# 5 0.000000 0.000000 0.000000 0.000000 0.035736 0.000000
# 6 0.000000 0.000000 0.000000 0.000000 0.000000 0.059527
#
#
# Mechanical properties :
#
#
# Convention : Reuss Voigt Hill
#
# Bulk Modulus (GPa) = 36.17987 53.71964 44.94976
# Shear Modulus (GPa) = 14.54719 21.03858 17.79289
#
# Velocity S-wave (km/s) = 2.88015 3.46365 3.18529
# Velocity P-wave (km/s) = 5.62950 6.82851 6.25779
#
# Compressibility (1/GPa) = 0.02763968
#
# Stress axis : x y z
#
# Youngs Moduli (GPa) = 74.80399 81.94016 33.76221
#
# Poissons Ratio (x) = 0.50165 0.15233
# Poissons Ratio (y) = 0.45796 0.10608
# Poissons Ratio (z) = 0.33749 0.25744
#
# Static dielectric constant tensor:
#      x y z
#    x 1.580310 0.000000 0.000000 
#    y 0.000000 1.607270 0.000000 
#    z 0.000000 0.000000 1.570940 
# 
# From -- ./inp_files/28934.got.cif
#   From: 2010.05.17/outbox.cif.g08.bks.cpg/sg71_15_cif.got.tgz:28934.got - 2010.06.03 16:22:01.
