data_PCOD9523952
_publ_section_title
;
Structure prediction by ZEFSAII (Michael W. Deem and Ramdas Pophale) SiO2 
 PCOD9523952
Probable space group: I M M M
;
_chemical_formula_sum "Si O2"
_cell_formula_units_Z 56
_cell_length_a 8.766590
_cell_length_b 15.590458
_cell_length_c 19.961397
_cell_angle_alpha 90.000000
_cell_angle_beta 90.000000
_cell_angle_gamma 90.000000
_cell_volume 2728.226993
_symmetry_space_group_name_H-M "I M M M"
_symmetry_group_IT_number 71
_symmetry_cell_setting 'orthorhombic'
loop_
_space_group_symop_operation_xyz
x,y,z
-x,-y,z
x,-y,-z
-x,y,-z
-x,-y,-z
x,y,-z
-x,y,z
x,-y,z
1/2+x,1/2+y,1/2+z
1/2-x,1/2-y,1/2+z
1/2+x,1/2-y,1/2-z
1/2-x,1/2+y,1/2-z
1/2-x,1/2-y,1/2-z
1/2+x,1/2+y,1/2-z
1/2-x,1/2+y,1/2+z
1/2+x,1/2-y,1/2+z
loop_
_atom_site_type_symbol
_atom_site_label
_atom_site_fract_x
_atom_site_fract_y
_atom_site_fract_z
Si Si1 0.684952 0.500000 0.730695
Si Si2 0.818384 0.160605 0.137353
Si Si3 0.681501 0.000000 0.620962
Si Si4 0.818063 0.178865 0.423113
Si Si5 0.173415 0.398908 0.500000
O O1 0.500000 0.500000 0.736845
O O2 0.727617 0.412408 0.690934
O O3 0.762409 0.500000 0.802451
O O4 0.742918 0.254784 0.133083
O O5 0.000000 0.170337 0.141424
O O6 0.765730 0.123869 0.066077
O O7 0.747179 0.914259 0.587689
O O8 0.500000 0.000000 0.616789
O O9 0.779751 0.206587 0.500000
O O10 0.000000 0.173826 0.417714
O O11 0.156278 0.500000 0.500000
O O12 0.000000 0.361670 0.500000
#
# Coordination Sequence:
#
# PCOD9523952 Si02
#       5
#     8  16   8  16   8
#     4  10  24  44  64  92 131 174 212 257 318 376
#     4  11  22  38  64  96 129 166 211 263 315 374
#     4  12  27  45  67  92 122 169 219 267 315 374
#     4  11  24  43  68  97 128 165 208 263 324 380
#     4  11  21  33  55  90 131 170 207 255 317 378
#
# _framework density 20.526153000000001
#
# number of rings (size 3 to 8) (size 9 to 14) (size 15 to 20)
#    0.000    1.000    2.857    3.857    0.000    7.429 
#    0.000    0.000    0.000    0.000    0.000    0.000 
#    0.000    0.000    0.000    0.000    0.000    0.000 
#
# Total GULP energy -156444.104567 kJ/mol
# GULP energy per Si atom -5587.289449 kJ/mol
# Density = 2.047943 g / cm^3
# Si number density = 20.526153 Si / 1000 Ang^3
#
#
#
# Elastic Constant Matrix: (Units=GPa)
#
#
# Indices 1 2 3 4 5 6 
#
# 1 72.4291 51.1068 34.2664 0.0000 0.0000 0.0000
# 2 51.1068 157.2826 28.1420 0.0000 0.0000 0.0000
# 3 34.2664 28.1420 67.5105 0.0000 0.0000 0.0000
# 4 0.0000 0.0000 0.0000 29.3851 0.0000 0.0000
# 5 0.0000 0.0000 0.0000 0.0000 24.4203 0.0000
# 6 0.0000 0.0000 0.0000 0.0000 0.0000 43.4097
#
#
#
# Elastic Compliance Matrix: (Units=1/GPa)
#
#
# Indices 1 2 3 4 5 6 
#
# 1 0.021872 -0.005533 -0.008795 0.000000 0.000000 0.000000
# 2 -0.005533 0.008270 -0.000639 0.000000 0.000000 0.000000
# 3 -0.008795 -0.000639 0.019543 0.000000 0.000000 0.000000
# 4 0.000000 0.000000 0.000000 0.034031 0.000000 0.000000
# 5 0.000000 0.000000 0.000000 0.000000 0.040949 0.000000
# 6 0.000000 0.000000 0.000000 0.000000 0.000000 0.023036
#
#
# Mechanical properties :
#
#
# Convention : Reuss Voigt Hill
#
# Bulk Modulus (GPa) = 50.63123 58.25028 54.44075
# Shear Modulus (GPa) = 27.14151 31.69018 29.41584
#
# Velocity S-wave (km/s) = 3.64027 3.93350 3.78973
# Velocity P-wave (km/s) = 6.51069 7.00501 6.76236
#
# Compressibility (1/GPa) = 0.01975066
#
# Stress axis : x y z
#
# Youngs Moduli (GPa) = 45.72079 120.91492 51.16941
#
# Poissons Ratio (x) = 0.66906 0.45003
# Poissons Ratio (y) = 0.25299 0.03269
# Poissons Ratio (z) = 0.40211 0.07726
#
# Static dielectric constant tensor:
#      x y z
#    x 1.686510 0.000000 0.000000 
#    y 0.000000 1.793210 0.000000 
#    z 0.000000 0.000000 1.694630 
# 
# From -- ./inp_files/30984.got.cif
#   From: 2010.05.17/outbox.cif.g08.bks.cpg/sg71_16_cif.got.tgz:30984.got - 2010.06.03 16:22:01.
