data_PCOD9523262
_publ_section_title
;
Structure prediction by ZEFSAII (Michael W. Deem and Ramdas Pophale) SiO2 
 PCOD9523262
Probable space group: I M M M
;
_chemical_formula_sum "Si O2"
_cell_formula_units_Z 96
_cell_length_a 20.886232
_cell_length_b 15.160253
_cell_length_c 15.711335
_cell_angle_alpha 90.000000
_cell_angle_beta 90.000000
_cell_angle_gamma 90.000000
_cell_volume 4974.845934
_symmetry_space_group_name_H-M "I M M M"
_symmetry_group_IT_number 71
_symmetry_cell_setting 'orthorhombic'
loop_
_space_group_symop_operation_xyz
x,y,z
-x,-y,z
x,-y,-z
-x,y,-z
-x,-y,-z
x,y,-z
-x,y,z
x,-y,z
1/2+x,1/2+y,1/2+z
1/2-x,1/2-y,1/2+z
1/2+x,1/2-y,1/2-z
1/2-x,1/2+y,1/2-z
1/2-x,1/2-y,1/2-z
1/2+x,1/2+y,1/2-z
1/2-x,1/2+y,1/2+z
1/2+x,1/2-y,1/2+z
loop_
_atom_site_type_symbol
_atom_site_label
_atom_site_fract_x
_atom_site_fract_y
_atom_site_fract_z
Si Si1 0.124583 0.197293 0.908255
Si Si2 0.000000 0.605566 0.289611
Si Si3 0.354172 0.395722 0.903869
Si Si4 0.762497 0.254814 0.351104
Si Si5 0.930397 0.104872 0.755675
Si Si6 0.373763 0.893861 0.101509
Si Si7 0.000000 0.676757 0.096379
O O1 0.194969 0.236237 0.898366
O O2 0.117080 0.133739 0.828504
O O3 0.065918 0.266395 0.903421
O O4 0.118399 0.151975 0.000000
O O5 0.935162 0.633379 0.340390
O O6 0.000000 0.628871 0.188769
O O7 0.000000 0.500000 0.295694
O O8 0.340929 0.500000 0.892835
O O9 0.294208 0.335628 0.882412
O O10 0.407582 0.367585 0.836731
O O11 0.375222 0.381390 0.000000
O O12 0.750000 0.250000 0.250000
O O13 0.812359 0.334057 0.372967
O O14 0.000000 0.142266 0.775125
O O15 0.933990 0.000000 0.755334
O O16 0.362472 0.000000 0.113908
O O17 0.386437 0.881251 0.000000
O O18 0.000000 0.632967 0.000000
#
# Coordination Sequence:
#
# PCOD9523262 Si02
#       7
#    16   8  16  16  16  16   8
#     4  11  22  38  59  84 117 155 198 250 304 354
#     4  10  21  39  64  90 120 162 201 244 305 362
#     4  10  22  41  62  88 124 160 197 244 299 362
#     4  12  23  39  63  89 123 162 203 250 302 363
#     4  10  21  37  59  87 118 156 201 246 297 355
#     4  10  22  40  63  95 130 160 199 251 307 369
#     4  10  22  40  60  84 116 156 204 255 303 355
#
# _framework density 19.297080999999999
#
# number of rings (size 3 to 8) (size 9 to 14) (size 15 to 20)
#    0.000    1.500    2.500    2.750    0.000    3.167 
#    0.000    3.333    0.000    1.000    0.000    0.000 
#    0.000    0.000    0.000    0.000    0.000    0.000 
#
# Total GULP energy -267655.559220 kJ/mol
# GULP energy per Si atom -5576.157484 kJ/mol
# Density = 1.925316 g / cm^3
# Si number density = 19.297081 Si / 1000 Ang^3
#
#
#
# Elastic Constant Matrix: (Units=GPa)
#
#
# Indices 1 2 3 4 5 6 
#
# 1 179.0688 39.0437 82.3393 0.0000 0.0000 0.0000
# 2 39.0437 36.6647 45.3526 0.0000 0.0000 0.0000
# 3 82.3393 45.3526 191.7514 0.0000 0.0000 0.0000
# 4 0.0000 0.0000 0.0000 45.3380 0.0000 0.0000
# 5 0.0000 0.0000 0.0000 0.0000 33.4339 0.0000
# 6 0.0000 0.0000 0.0000 0.0000 0.0000 22.1847
#
#
#
# Elastic Compliance Matrix: (Units=1/GPa)
#
#
# Indices 1 2 3 4 5 6 
#
# 1 0.007755 -0.005851 -0.001946 0.000000 0.000000 0.000000
# 2 -0.005851 0.042968 -0.007650 0.000000 0.000000 0.000000
# 3 -0.001946 -0.007650 0.007860 0.000000 0.000000 0.000000
# 4 0.000000 0.000000 0.000000 0.022057 0.000000 0.000000
# 5 0.000000 0.000000 0.000000 0.000000 0.029910 0.000000
# 6 0.000000 0.000000 0.000000 0.000000 0.000000 0.045076
#
#
# Mechanical properties :
#
#
# Convention : Reuss Voigt Hill
#
# Bulk Modulus (GPa) = 36.11630 82.32846 59.22238
# Shear Modulus (GPa) = 25.54286 36.24127 30.89207
#
# Velocity S-wave (km/s) = 3.64217 4.33837 4.00542
# Velocity P-wave (km/s) = 6.03687 8.23721 7.22133
#
# Compressibility (1/GPa) = 0.02768833
#
# Stress axis : x y z
#
# Youngs Moduli (GPa) = 128.94795 23.27333 127.22263
#
# Poissons Ratio (x) = 0.13617 0.24761
# Poissons Ratio (y) = 0.75445 0.97328
# Poissons Ratio (z) = 0.25097 0.17805
#
# Static dielectric constant tensor:
#      x y z
#    x 1.651290 0.000000 0.000000 
#    y 0.000000 1.667400 0.000000 
#    z 0.000000 0.000000 1.697940 
# 
# From -- ./inp_files/37855.got.cif
#   From: 2010.05.17/outbox.cif.g08.bks.cpg/sg71_19_cif.got.tgz:37855.got - 2010.06.03 16:22:01.
