data_PCOD9523297
_publ_section_title
;
Structure prediction by ZEFSAII (Michael W. Deem and Ramdas Pophale) SiO2 
 PCOD9523297
Probable space group: I M M M
;
_chemical_formula_sum "Si O2"
_cell_formula_units_Z 96
_cell_length_a 18.964654
_cell_length_b 13.241193
_cell_length_c 14.284715
_cell_angle_alpha 90.000000
_cell_angle_beta 90.000000
_cell_angle_gamma 90.000000
_cell_volume 3587.101119
_symmetry_space_group_name_H-M "I M M M"
_symmetry_group_IT_number 71
_symmetry_cell_setting 'orthorhombic'
loop_
_space_group_symop_operation_xyz
x,y,z
-x,-y,z
x,-y,-z
-x,y,-z
-x,-y,-z
x,y,-z
-x,y,z
x,-y,z
1/2+x,1/2+y,1/2+z
1/2-x,1/2-y,1/2+z
1/2+x,1/2-y,1/2-z
1/2-x,1/2+y,1/2-z
1/2-x,1/2-y,1/2-z
1/2+x,1/2+y,1/2-z
1/2-x,1/2+y,1/2+z
1/2+x,1/2-y,1/2+z
loop_
_atom_site_type_symbol
_atom_site_label
_atom_site_fract_x
_atom_site_fract_y
_atom_site_fract_z
Si Si1 0.271736 0.614041 0.188996
Si Si2 0.732251 0.326538 0.609634
Si Si3 0.577517 0.660222 0.395268
Si Si4 0.915722 0.167442 0.605386
Si Si5 0.416993 0.893521 0.141172
Si Si6 0.081530 0.392997 0.134124
O O1 0.255696 0.500000 0.161510
O O2 0.235835 0.633347 0.291479
O O3 0.241386 0.705034 0.124836
O O4 0.357307 0.623509 0.175145
O O5 0.749306 0.348780 0.500000
O O6 0.655010 0.376306 0.629245
O O7 0.568074 0.623635 0.500000
O O8 0.500000 0.646579 0.347944
O O9 0.595336 0.779994 0.398149
O O10 0.907674 0.126439 0.500000
O O11 0.894457 0.286005 0.603080
O O12 0.000000 0.159425 0.629130
O O13 0.500000 0.897342 0.116607
O O14 0.414123 0.889429 0.253394
O O15 0.384750 0.000000 0.109175
O O16 0.114077 0.500000 0.103536
O O17 0.000000 0.401502 0.109365
#
# Coordination Sequence:
#
# PCOD9523297 Si02
#       6
#    16  16  16  16  16  16
#     4  11  25  45  69  96 129 173 224 278 338 405
#     4  10  23  44  69  98 131 168 215 271 333 403
#     4   9  17  30  52  83 118 156 196 243 304 372
#     4  10  21  37  60  93 133 178 230 285 336 391
#     4   8  14  26  46  74 111 156 203 253 314 379
#     4   8  13  21  35  60  98 142 185 230 281 341
#
# _framework density 26.762557000000001
#
# number of rings (size 3 to 8) (size 9 to 14) (size 15 to 20)
#    0.000    2.667    0.000    2.500    0.000    5.333 
#    0.000   10.833    0.000    4.000    0.000    3.500 
#    0.000    0.000    0.000    2.500    0.000    0.000 
#
# Total GULP energy -267259.776022 kJ/mol
# GULP energy per Si atom -5567.912000 kJ/mol
# Density = 2.670164 g / cm^3
# Si number density = 26.762557 Si / 1000 Ang^3
#
#
#
# Elastic Constant Matrix: (Units=GPa)
#
#
# Indices 1 2 3 4 5 6 
#
# 1 154.0398 20.4233 31.5354 0.0000 0.0000 0.0000
# 2 20.4233 120.3351 6.8507 0.0000 0.0000 0.0000
# 3 31.5354 6.8507 158.8389 0.0000 0.0000 0.0000
# 4 0.0000 0.0000 0.0000 0.1626 0.0000 0.0000
# 5 0.0000 0.0000 0.0000 0.0000 23.3311 0.0000
# 6 0.0000 0.0000 0.0000 0.0000 0.0000 8.9302
#
#
#
# Elastic Compliance Matrix: (Units=1/GPa)
#
#
# Indices 1 2 3 4 5 6 
#
# 1 0.006908 -0.001097 -0.001324 0.000000 0.000000 0.000000
# 2 -0.001097 0.008505 -0.000149 0.000000 0.000000 0.000000
# 3 -0.001324 -0.000149 0.006565 0.000000 0.000000 0.000000
# 4 0.000000 0.000000 0.000000 6.151430 0.000000 0.000000
# 5 0.000000 0.000000 0.000000 0.000000 0.042861 0.000000
# 6 0.000000 0.000000 0.000000 0.000000 0.000000 0.111980
#
#
# Mechanical properties :
#
#
# Convention : Reuss Voigt Hill
#
# Bulk Modulus (GPa) = 59.39114 61.20361 60.29737
# Shear Modulus (GPa) = 0.78877 31.44506 16.11691
#
# Velocity S-wave (km/s) = 0.54348 3.43149 2.45668
# Velocity P-wave (km/s) = 4.75751 6.21442 5.53411
#
# Compressibility (1/GPa) = 0.01683753
#
# Stress axis : x y z
#
# Youngs Moduli (GPa) = 144.75151 117.58050 152.32238
#
# Poissons Ratio (x) = 0.12900 0.20171
# Poissons Ratio (y) = 0.15881 0.02270
# Poissons Ratio (z) = 0.19169 0.01752
#
# Static dielectric constant tensor:
#      x y z
#    x 2.295450 0.000000 0.000000 
#    y 0.000000 2.068430 0.000000 
#    z 0.000000 0.000000 1.985980 
# 
# From -- ./inp_files/37838.got.cif
#   From: 2010.05.17/outbox.cif.g08.bks.cpg/sg71_19_cif.got.tgz:37838.got - 2010.06.03 16:22:01.
