data_PCOD9523763
_publ_section_title
;
Structure prediction by ZEFSAII (Michael W. Deem and Ramdas Pophale) SiO2 
 PCOD9523763
Probable space group: I M M M
;
_chemical_formula_sum "Si O2"
_cell_formula_units_Z 72
_cell_length_a 18.425330
_cell_length_b 24.318865
_cell_length_c 8.357602
_cell_angle_alpha 90.000000
_cell_angle_beta 90.000000
_cell_angle_gamma 90.000000
_cell_volume 3744.900320
_symmetry_space_group_name_H-M "I M M M"
_symmetry_group_IT_number 71
_symmetry_cell_setting 'orthorhombic'
loop_
_space_group_symop_operation_xyz
x,y,z
-x,-y,z
x,-y,-z
-x,y,-z
-x,-y,-z
x,y,-z
-x,y,z
x,-y,z
1/2+x,1/2+y,1/2+z
1/2-x,1/2-y,1/2+z
1/2+x,1/2-y,1/2-z
1/2-x,1/2+y,1/2-z
1/2-x,1/2-y,1/2-z
1/2+x,1/2+y,1/2-z
1/2-x,1/2+y,1/2+z
1/2+x,1/2-y,1/2+z
loop_
_atom_site_type_symbol
_atom_site_label
_atom_site_fract_x
_atom_site_fract_y
_atom_site_fract_z
Si Si1 0.394855 0.500000 0.192369
Si Si2 0.580425 0.375800 0.306879
Si Si3 0.150181 0.608702 0.192275
Si Si4 0.500000 0.064804 0.191265
Si Si5 0.230391 0.500000 0.806164
Si Si6 0.772342 0.810396 0.809939
O O1 0.420294 0.560133 0.251373
O O2 0.311914 0.500000 0.247499
O O3 0.402103 0.500000 0.000000
O O4 0.583767 0.376099 0.500000
O O5 0.500000 0.352778 0.260692
O O6 0.652500 0.341322 0.249918
O O7 0.189184 0.553180 0.247478
O O8 0.201379 0.654879 0.263794
O O9 0.068884 0.599161 0.248807
O O10 0.151551 0.613119 0.000000
O O11 0.500000 0.000000 0.249449
O O12 0.500000 0.062351 0.000000
O O13 0.231089 0.500000 0.000000
O O14 0.750000 0.750000 0.750000
O O15 0.780829 0.807736 0.000000
#
# Coordination Sequence:
#
# PCOD9523763 Si02
#       6
#     8  16  16   8   8  16
#     4  11  20  34  58  93 127 157 193 238 298 361
#     4  10  22  40  61  88 122 159 199 242 296 362
#     4  11  21  39  63  88 120 162 205 251 309 369
#     4  11  23  37  57  93 133 163 199 250 303 364
#     4   9  18  31  55  87 120 155 195 240 296 365
#     4  11  24  43  65  87 116 159 209 260 308 361
#
# _framework density 19.226144999999999
#
# number of rings (size 3 to 8) (size 9 to 14) (size 15 to 20)
#    0.000    1.444    3.333    2.333    0.000    3.111 
#    2.000    0.000    0.000    0.000    0.000    0.000 
#    0.000    0.000    0.000    0.000    0.000    0.000 
#
# Total GULP energy -200562.943862 kJ/mol
# GULP energy per Si atom -5571.192885 kJ/mol
# Density = 1.918239 g / cm^3
# Si number density = 19.226145 Si / 1000 Ang^3
#
#
#
# Elastic Constant Matrix: (Units=GPa)
#
#
# Indices 1 2 3 4 5 6 
#
# 1 201.4733 87.6564 25.0276 0.0000 0.0000 0.0000
# 2 87.6564 156.2576 27.7640 0.0000 0.0000 0.0000
# 3 25.0276 27.7640 40.9929 0.0000 0.0000 0.0000
# 4 0.0000 0.0000 0.0000 23.4489 0.0000 0.0000
# 5 0.0000 0.0000 0.0000 0.0000 17.9668 0.0000
# 6 0.0000 0.0000 0.0000 0.0000 0.0000 3.9535
#
#
#
# Elastic Compliance Matrix: (Units=1/GPa)
#
#
# Indices 1 2 3 4 5 6 
#
# 1 0.006675 -0.003433 -0.001750 0.000000 0.000000 0.000000
# 2 -0.003433 0.009041 -0.004027 0.000000 0.000000 0.000000
# 3 -0.001750 -0.004027 0.028190 0.000000 0.000000 0.000000
# 4 0.000000 0.000000 0.000000 0.042646 0.000000 0.000000
# 5 0.000000 0.000000 0.000000 0.000000 0.055658 0.000000
# 6 0.000000 0.000000 0.000000 0.000000 0.000000 0.252942
#
#
# Mechanical properties :
#
#
# Convention : Reuss Voigt Hill
#
# Bulk Modulus (GPa) = 39.23811 75.51331 57.37571
# Shear Modulus (GPa) = 11.84643 26.29222 19.06933
#
# Velocity S-wave (km/s) = 2.48496 3.70202 3.15277
# Velocity P-wave (km/s) = 5.35597 7.59176 6.56967
#
# Compressibility (1/GPa) = 0.02548543
#
# Stress axis : x y z
#
# Youngs Moduli (GPa) = 149.82246 110.60346 35.47306
#
# Poissons Ratio (x) = 0.37974 0.06207
# Poissons Ratio (y) = 0.51440 0.14286
# Poissons Ratio (z) = 0.26214 0.44544
#
# Static dielectric constant tensor:
#      x y z
#    x 1.743170 0.000000 0.000000 
#    y 0.000000 1.658310 0.000000 
#    z 0.000000 0.000000 1.665250 
# 
# From -- ./inp_files/8013.got.cif
#   From: 2010.05.17/outbox.cif.g08.bks.cpg/sg71_5_cif.got.tgz:8013.got - 2010.06.03 16:22:01.
