data_PCOD9523031
_publ_section_title
;
Structure prediction by ZEFSAII (Michael W. Deem and Ramdas Pophale) SiO2 
 PCOD9523031
Probable space group: I M M M
;
_chemical_formula_sum "Si O2"
_cell_formula_units_Z 84
_cell_length_a 22.100500
_cell_length_b 13.234176
_cell_length_c 15.011226
_cell_angle_alpha 90.000000
_cell_angle_beta 90.000000
_cell_angle_gamma 90.000000
_cell_volume 4390.512002
_symmetry_space_group_name_H-M "I M M M"
_symmetry_group_IT_number 71
_symmetry_cell_setting 'orthorhombic'
loop_
_space_group_symop_operation_xyz
x,y,z
-x,-y,z
x,-y,-z
-x,y,-z
-x,-y,-z
x,y,-z
-x,y,z
x,-y,z
1/2+x,1/2+y,1/2+z
1/2-x,1/2-y,1/2+z
1/2+x,1/2-y,1/2-z
1/2-x,1/2+y,1/2-z
1/2-x,1/2-y,1/2-z
1/2+x,1/2+y,1/2-z
1/2-x,1/2+y,1/2+z
1/2+x,1/2-y,1/2+z
loop_
_atom_site_type_symbol
_atom_site_label
_atom_site_fract_x
_atom_site_fract_y
_atom_site_fract_z
Si Si1 0.068802 0.384168 0.139994
Si Si2 0.227367 0.616032 0.393478
Si Si3 0.855793 0.808334 0.898843
Si Si4 0.928192 0.888016 0.266818
Si Si5 0.000000 0.366103 0.500000
Si Si6 0.593809 0.826194 0.840678
O O1 0.081215 0.500000 0.116073
O O2 0.116640 0.303966 0.103672
O O3 0.071472 0.371630 0.247061
O O4 0.000000 0.358906 0.111749
O O5 0.218860 0.620532 0.500000
O O6 0.242060 0.500000 0.369444
O O7 0.285460 0.684346 0.371950
O O8 0.163975 0.646753 0.351301
O O9 0.893976 0.869384 0.826009
O O10 0.860835 0.848230 0.000000
O O11 0.912399 0.795272 0.331457
O O12 0.000000 0.882097 0.250819
O O13 0.913983 0.000000 0.301663
O O14 0.052876 0.363973 0.421734
#
# Coordination Sequence:
#
# PCOD9523031 Si02
#       6
#    16  16  16  16   4  16
#     4  10  21  37  57  86 121 150 185 234 285 338
#     4  10  21  36  56  84 116 148 189 237 284 335
#     4  10  21  38  58  80 111 152 190 236 281 329
#     4  10  21  37  57  83 115 147 186 235 283 335
#     4  12  20  36  66  88 114 150 186 232 282 338
#     4  11  20  38  58  86 116 149 187 233 285 338
#
# _framework density 19.132165000000001
#
# number of rings (size 3 to 8) (size 9 to 14) (size 15 to 20)
#    0.000    1.714    2.857    2.857    0.000    6.095 
#    0.000    7.619    0.000    1.143    0.000    0.000 
#    0.000    0.000    0.000    0.000    0.000    0.000 
#
# Total GULP energy -233975.300888 kJ/mol
# GULP energy per Si atom -5570.840497 kJ/mol
# Density = 1.908862 g / cm^3
# Si number density = 19.132165 Si / 1000 Ang^3
#
#
#
# Elastic Constant Matrix: (Units=GPa)
#
#
# Indices 1 2 3 4 5 6 
#
# 1 149.3779 55.7214 17.1732 0.0000 0.0000 0.0000
# 2 55.7214 91.9860 -9.8435 0.0000 0.0000 0.0000
# 3 17.1732 -9.8435 64.4314 0.0000 0.0000 0.0000
# 4 0.0000 0.0000 0.0000 -11.2849 0.0000 0.0000
# 5 0.0000 0.0000 0.0000 0.0000 21.8197 0.0000
# 6 0.0000 0.0000 0.0000 0.0000 0.0000 43.0413
#
#
#
# Elastic Compliance Matrix: (Units=1/GPa)
#
#
# Indices 1 2 3 4 5 6 
#
# 1 0.009330 -0.006016 -0.003406 0.000000 0.000000 0.000000
# 2 -0.006016 0.014931 0.003885 0.000000 0.000000 0.000000
# 3 -0.003406 0.003885 0.017022 0.000000 0.000000 0.000000
# 4 0.000000 0.000000 0.000000 -0.088614 0.000000 0.000000
# 5 0.000000 0.000000 0.000000 0.000000 0.045830 0.000000
# 6 0.000000 0.000000 0.000000 0.000000 0.000000 0.023233
#
#
# Mechanical properties :
#
#
# Convention : Reuss Voigt Hill
#
# Bulk Modulus (GPa) = 33.10374 47.98863 40.54618
# Shear Modulus (GPa) = 116.61031 26.89815 71.75423
#
# Velocity S-wave (km/s) = 7.81551 3.75362 6.13074
# Velocity P-wave (km/s) = 9.93897 6.62747 8.44709
#
# Compressibility (1/GPa) = 0.03020807
#
# Stress axis : x y z
#
# Youngs Moduli (GPa) = 107.17831 66.97290 58.74856
#
# Poissons Ratio (x) = 0.40293 0.20010
# Poissons Ratio (y) = 0.64482 -0.22822
# Poissons Ratio (z) = 0.36505 -0.26017
#
# Static dielectric constant tensor:
#      x y z
#    x 1.646930 0.000000 0.000000 
#    y 0.000000 1.700760 0.000000 
#    z 0.000000 0.000000 1.657660 
# 
# From -- ./inp_files/34412.got.cif
#   From: 2010.05.17/outbox.cif.g08.bks.cpg/sg71_18_cif.got.tgz:34412.got - 2010.06.03 16:22:01.
