data_PCOD9523340
_publ_section_title
;
Structure prediction by ZEFSAII (Michael W. Deem and Ramdas Pophale) SiO2 
 PCOD9523340
Probable space group: I M M M
;
_chemical_formula_sum "Si O2"
_cell_formula_units_Z 104
_cell_length_a 28.120382
_cell_length_b 19.062488
_cell_length_c 7.624120
_cell_angle_alpha 90.000000
_cell_angle_beta 90.000000
_cell_angle_gamma 90.000000
_cell_volume 4086.867170
_symmetry_space_group_name_H-M "I M M M"
_symmetry_group_IT_number 71
_symmetry_cell_setting 'orthorhombic'
loop_
_space_group_symop_operation_xyz
x,y,z
-x,-y,z
x,-y,-z
-x,y,-z
-x,-y,-z
x,y,-z
-x,y,z
x,-y,z
1/2+x,1/2+y,1/2+z
1/2-x,1/2-y,1/2+z
1/2+x,1/2-y,1/2-z
1/2-x,1/2+y,1/2-z
1/2-x,1/2-y,1/2-z
1/2+x,1/2+y,1/2-z
1/2-x,1/2+y,1/2+z
1/2+x,1/2-y,1/2+z
loop_
_atom_site_type_symbol
_atom_site_label
_atom_site_fract_x
_atom_site_fract_y
_atom_site_fract_z
Si Si1 0.797051 0.849099 0.701271
Si Si2 0.848410 0.283227 0.206150
Si Si3 0.396366 0.584131 0.708311
Si Si4 0.947044 0.268219 0.799344
Si Si5 0.000000 0.081917 0.213665
Si Si6 0.201420 0.421154 0.215208
Si Si7 0.057052 0.574843 0.702043
O O1 0.785219 0.836628 0.500000
O O2 0.806216 0.772680 0.779834
O O3 0.847234 0.889263 0.713720
O O4 0.754019 0.895922 0.772213
O O5 0.896402 0.247830 0.283352
O O6 0.833619 0.359223 0.275843
O O7 0.857373 0.290948 0.000000
O O8 0.393365 0.598900 0.500000
O O9 0.398285 0.500000 0.730429
O O10 0.448632 0.611722 0.769442
O O11 0.937441 0.352589 0.801937
O O12 0.000000 0.257808 0.721148
O O13 0.950154 0.242415 0.000000
O O14 0.000000 0.000000 0.266122
O O15 0.000000 0.082637 0.000000
O O16 0.191305 0.500000 0.274972
O O17 0.199988 0.422255 0.000000
O O18 0.072909 0.582331 0.500000
O O19 0.075569 0.500000 0.773590
O O20 0.000000 0.568514 0.696017
#
# Coordination Sequence:
#
# PCOD9523340 Si02
#       7
#    16  16  16  16   8  16  16
#     4  11  22  36  56  83 116 151 187 231 284 342
#     4  10  21  38  59  81 110 149 191 234 283 343
#     4   9  17  32  56  84 114 150 194 238 281 334
#     4   9  18  32  50  74 103 136 179 229 273 314
#     4   7  12  26  49  77 109 147 190 235 280 327
#     4   9  19  37  61  86 110 141 184 236 295 351
#     4   8  14  25  42  65  94 130 169 208 257 317
#
# _framework density 25.447364
#
# number of rings (size 3 to 8) (size 9 to 14) (size 15 to 20)
#    0.000    2.846    0.000    2.769    0.000    2.462 
#    1.385    4.231    0.000    3.692    0.000    0.000 
#    0.000    0.000    0.000    0.000    0.000    0.000 
#
# Total GULP energy -290310.245298 kJ/mol
# GULP energy per Si atom -5582.889333 kJ/mol
# Density = 2.538944 g / cm^3
# Si number density = 25.447364 Si / 1000 Ang^3
#
#
#
# Elastic Constant Matrix: (Units=GPa)
#
#
# Indices 1 2 3 4 5 6 
#
# 1 186.3119 45.2994 8.7252 0.0000 0.0000 0.0000
# 2 45.2994 110.2142 14.9860 0.0000 0.0000 0.0000
# 3 8.7252 14.9860 48.1793 0.0000 0.0000 0.0000
# 4 0.0000 0.0000 0.0000 14.5642 0.0000 0.0000
# 5 0.0000 0.0000 0.0000 0.0000 13.0987 0.0000
# 6 0.0000 0.0000 0.0000 0.0000 0.0000 39.6383
#
#
#
# Elastic Compliance Matrix: (Units=1/GPa)
#
#
# Indices 1 2 3 4 5 6 
#
# 1 0.005968 -0.002408 -0.000332 0.000000 0.000000 0.000000
# 2 -0.002408 0.010445 -0.002813 0.000000 0.000000 0.000000
# 3 -0.000332 -0.002813 0.021691 0.000000 0.000000 0.000000
# 4 0.000000 0.000000 0.000000 0.068662 0.000000 0.000000
# 5 0.000000 0.000000 0.000000 0.000000 0.076343 0.000000
# 6 0.000000 0.000000 0.000000 0.000000 0.000000 0.025228
#
#
# Mechanical properties :
#
#
# Convention : Reuss Voigt Hill
#
# Bulk Modulus (GPa) = 37.03826 53.63627 45.33727
# Shear Modulus (GPa) = 21.88732 31.83990 26.86361
#
# Velocity S-wave (km/s) = 2.93593 3.54108 3.25261
# Velocity P-wave (km/s) = 5.10680 6.15159 5.65338
#
# Compressibility (1/GPa) = 0.02699911
#
# Stress axis : x y z
#
# Youngs Moduli (GPa) = 167.55059 95.73578 46.10242
#
# Poissons Ratio (x) = 0.23053 0.01530
# Poissons Ratio (y) = 0.40345 0.12968
# Poissons Ratio (z) = 0.05561 0.26930
#
# Static dielectric constant tensor:
#      x y z
#    x 2.068640 0.000000 0.000000 
#    y 0.000000 2.062370 0.000000 
#    z 0.000000 0.000000 1.982290 
# 
# From -- ./inp_files/17017.got.cif
#   From: 2010.05.17/outbox.cif.g08.bks.cpg/sg71_9_cif.got.tgz:17017.got - 2010.06.03 16:22:01.
