data_PCOD9523823
_publ_section_title
;
Structure prediction by ZEFSAII (Michael W. Deem and Ramdas Pophale) SiO2 
 PCOD9523823
Probable space group: I M M M
;
_chemical_formula_sum "Si O2"
_cell_formula_units_Z 72
_cell_length_a 16.221205
_cell_length_b 26.707571
_cell_length_c 8.082730
_cell_angle_alpha 90.000000
_cell_angle_beta 90.000000
_cell_angle_gamma 90.000000
_cell_volume 3501.672908
_symmetry_space_group_name_H-M "I M M M"
_symmetry_group_IT_number 71
_symmetry_cell_setting 'orthorhombic'
loop_
_space_group_symop_operation_xyz
x,y,z
-x,-y,z
x,-y,-z
-x,y,-z
-x,-y,-z
x,y,-z
-x,y,z
x,-y,z
1/2+x,1/2+y,1/2+z
1/2-x,1/2-y,1/2+z
1/2+x,1/2-y,1/2-z
1/2-x,1/2+y,1/2-z
1/2-x,1/2-y,1/2-z
1/2+x,1/2+y,1/2-z
1/2-x,1/2+y,1/2+z
1/2+x,1/2-y,1/2+z
loop_
_atom_site_type_symbol
_atom_site_label
_atom_site_fract_x
_atom_site_fract_y
_atom_site_fract_z
Si Si1 0.000000 0.864796 0.188122
Si Si2 0.000000 0.246309 0.307015
Si Si3 0.186114 0.399751 0.812206
Si Si4 0.322347 0.787849 0.799483
Si Si5 0.632194 0.556631 0.804235
Si Si6 0.902417 0.443682 0.500000
O O1 0.000000 0.813848 0.291656
O O2 0.077578 0.900667 0.221627
O O3 0.000000 0.847711 0.000000
O O4 0.912997 0.268278 0.242640
O O5 0.000000 0.259603 0.500000
O O6 0.197431 0.340714 0.784819
O O7 0.272416 0.428608 0.788572
O O8 0.126761 0.417108 0.666550
O O9 0.157362 0.409576 0.000000
O O10 0.250000 0.750000 0.750000
O O11 0.322914 0.793218 0.000000
O O12 0.616977 0.500000 0.742575
O O13 0.612070 0.557114 0.000000
O O14 0.868480 0.500000 0.500000
O O15 0.000000 0.445171 0.500000
#
# Coordination Sequence:
#
# PCOD9523823 Si02
#       6
#     8   8  16  16  16   8
#     4  12  25  37  58  95 132 168 217 271 324 389
#     4  10  24  43  65  86 126 178 215 260 327 392
#     4  11  24  43  70  99 133 175 225 274 333 401
#     4  11  23  41  65  97 133 175 225 277 334 399
#     4  10  22  41  64  90 126 173 219 265 323 388
#     4  11  26  46  70  99 135 173 219 280 342 403
#
# _framework density 20.561599999999999
#
# number of rings (size 3 to 8) (size 9 to 14) (size 15 to 20)
#    0.000    1.222    1.111    4.000    3.111   10.667 
#    0.000    1.111    0.000    0.000    0.000    0.000 
#    0.000    0.000    0.000    0.000    0.000    0.000 
#
# Total GULP energy -201252.087231 kJ/mol
# GULP energy per Si atom -5590.335756 kJ/mol
# Density = 2.051480 g / cm^3
# Si number density = 20.561600 Si / 1000 Ang^3
#
#
#
# Elastic Constant Matrix: (Units=GPa)
#
#
# Indices 1 2 3 4 5 6 
#
# 1 65.3741 -0.4316 27.5183 -0.0004 0.0005 -0.0001
# 2 -0.4316 76.2479 -0.0116 -0.0004 0.0001 -0.0001
# 3 27.5183 -0.0116 89.2104 -0.0116 -0.0002 0.0011
# 4 -0.0004 -0.0004 -0.0116 27.5553 -0.0001 0.0003
# 5 0.0005 0.0001 -0.0002 -0.0001 23.6108 -0.0004
# 6 -0.0001 -0.0001 0.0011 0.0003 -0.0004 38.1275
#
#
#
# Elastic Compliance Matrix: (Units=1/GPa)
#
#
# Indices 1 2 3 4 5 6 
#
# 1 0.017580 0.000099 -0.005423 -0.000002 0.000000 0.000000
# 2 0.000099 0.013116 -0.000029 0.000000 0.000000 0.000000
# 3 -0.005423 -0.000029 0.012882 0.000005 0.000000 0.000000
# 4 -0.000002 0.000000 0.000005 0.036291 0.000000 0.000000
# 5 0.000000 0.000000 0.000000 0.000000 0.042353 0.000000
# 6 0.000000 0.000000 0.000000 0.000000 0.000000 0.026228
#
#
# Mechanical properties :
#
#
# Convention : Reuss Voigt Hill
#
# Bulk Modulus (GPa) = 30.42094 31.66473 31.04284
# Shear Modulus (GPa) = 29.39231 31.44255 30.41743
#
# Velocity S-wave (km/s) = 3.78494 3.91473 3.85038
# Velocity P-wave (km/s) = 5.82479 5.98889 5.90741
#
# Compressibility (1/GPa) = 0.03287209
#
# Stress axis : x y z
#
# Youngs Moduli (GPa) = 56.88328 76.24468 77.62658
#
# Poissons Ratio (x) = -0.00752 0.42095
# Poissons Ratio (y) = -0.00561 0.00223
# Poissons Ratio (z) = 0.30846 0.00219
#
# Static dielectric constant tensor:
#      x y z
#    x 1.717480 0.000000 0.000000 
#    y 0.000000 1.540720 0.000000 
#    z 0.000000 0.000000 1.713440 
# 
# From -- ./inp_files/6135.got.cif
#   From: 2010.05.17/outbox.cif.g08.bks.cpg/sg71_4_cif.got.tgz:6135.got - 2010.06.03 16:22:01.
