data_PCOD9523771
_publ_section_title
;
Structure prediction by ZEFSAII (Michael W. Deem and Ramdas Pophale) SiO2 
 PCOD9523771
Probable space group: I M M M
;
_chemical_formula_sum "Si O2"
_cell_formula_units_Z 96
_cell_length_a 19.309929
_cell_length_b 29.837832
_cell_length_c 8.877945
_cell_angle_alpha 90.000000
_cell_angle_beta 90.000000
_cell_angle_gamma 90.000000
_cell_volume 5115.173765
_symmetry_space_group_name_H-M "I M M M"
_symmetry_group_IT_number 71
_symmetry_cell_setting 'orthorhombic'
loop_
_space_group_symop_operation_xyz
x,y,z
-x,-y,z
x,-y,-z
-x,y,-z
-x,-y,-z
x,y,-z
-x,y,z
x,-y,z
1/2+x,1/2+y,1/2+z
1/2-x,1/2-y,1/2+z
1/2+x,1/2-y,1/2-z
1/2-x,1/2+y,1/2-z
1/2-x,1/2-y,1/2-z
1/2+x,1/2+y,1/2-z
1/2-x,1/2+y,1/2+z
1/2+x,1/2-y,1/2+z
loop_
_atom_site_type_symbol
_atom_site_label
_atom_site_fract_x
_atom_site_fract_y
_atom_site_fract_z
Si Si1 0.581893 0.551226 0.681141
Si Si2 0.919342 0.306405 0.821198
Si Si3 0.317549 0.725739 0.321365
Si Si4 0.421059 0.053569 0.328777
Si Si5 0.675092 0.882230 0.825284
Si Si6 0.177663 0.128157 0.678975
O O1 0.590045 0.554244 0.500000
O O2 0.500000 0.556560 0.714181
O O3 0.601704 0.500000 0.725494
O O4 0.626465 0.590159 0.757130
O O5 0.882889 0.258483 0.799938
O O6 0.873650 0.341823 0.730269
O O7 0.000000 0.306777 0.778293
O O8 0.914962 0.317030 0.000000
O O9 0.305160 0.720555 0.500000
O O10 0.250000 0.750000 0.250000
O O11 0.332583 0.677597 0.248979
O O12 0.401861 0.067368 0.500000
O O13 0.500000 0.069074 0.302941
O O14 0.369625 0.073897 0.208986
O O15 0.420930 0.000000 0.324722
O O16 0.744419 0.883897 0.728146
O O17 0.692560 0.877293 0.000000
O O18 0.171591 0.130476 0.500000
#
# Coordination Sequence:
#
# PCOD9523771 Si02
#       6
#    16  16  16  16  16  16
#     4   9  20  42  70  97 127 163 204 256 318 380
#     4  10  22  40  62  87 117 156 199 243 299 368
#     4  11  22  39  63  89 121 162 204 253 310 367
#     4   9  19  37  59  81 110 151 195 240 294 356
#     4  12  24  37  57  85 118 156 198 249 302 356
#     4  12  25  40  62  91 125 165 206 252 304 364
#
# _framework density 18.767690999999999
#
# number of rings (size 3 to 8) (size 9 to 14) (size 15 to 20)
#    0.000    1.500    1.667    5.000    0.000    5.667 
#    0.000    3.333    0.000    0.000    0.000    0.000 
#    0.000    0.000    0.000    0.000    0.000    0.000 
#
# Total GULP energy -268198.518686 kJ/mol
# GULP energy per Si atom -5587.469139 kJ/mol
# Density = 1.872497 g / cm^3
# Si number density = 18.767691 Si / 1000 Ang^3
#
#
#
# Elastic Constant Matrix: (Units=GPa)
#
#
# Indices 1 2 3 4 5 6 
#
# 1 98.8172 69.8399 52.4885 0.0000 0.0000 0.0000
# 2 69.8399 136.1542 63.6009 0.0000 0.0000 0.0000
# 3 52.4885 63.6009 89.5731 0.0000 0.0000 0.0000
# 4 0.0000 0.0000 0.0000 35.0811 0.0000 0.0000
# 5 0.0000 0.0000 0.0000 0.0000 31.8097 0.0000
# 6 0.0000 0.0000 0.0000 0.0000 0.0000 38.2665
#
#
#
# Elastic Compliance Matrix: (Units=1/GPa)
#
#
# Indices 1 2 3 4 5 6 
#
# 1 0.017730 -0.006346 -0.005883 0.000000 0.000000 0.000000
# 2 -0.006346 0.013261 -0.005697 0.000000 0.000000 0.000000
# 3 -0.005883 -0.005697 0.018657 0.000000 0.000000 0.000000
# 4 0.000000 0.000000 0.000000 0.028505 0.000000 0.000000
# 5 0.000000 0.000000 0.000000 0.000000 0.031437 0.000000
# 6 0.000000 0.000000 0.000000 0.000000 0.000000 0.026133
#
#
# Mechanical properties :
#
#
# Convention : Reuss Voigt Hill
#
# Bulk Modulus (GPa) = 72.49330 77.37812 74.93571
# Shear Modulus (GPa) = 28.38084 30.27246 29.32665
#
# Velocity S-wave (km/s) = 3.89294 4.02059 3.95728
# Velocity P-wave (km/s) = 7.67575 7.92921 7.80351
#
# Compressibility (1/GPa) = 0.01379438
#
# Stress axis : x y z
#
# Youngs Moduli (GPa) = 56.40134 75.40761 53.59942
#
# Poissons Ratio (x) = 0.47856 0.31535
# Poissons Ratio (y) = 0.35794 0.30537
# Poissons Ratio (z) = 0.33183 0.42961
#
# Static dielectric constant tensor:
#      x y z
#    x 1.627050 0.000000 0.000000 
#    y 0.000000 1.657400 0.000000 
#    z 0.000000 0.000000 1.638770 
# 
# From -- ./inp_files/10816.got.cif
#   From: 2010.05.17/outbox.cif.g08.bks.cpg/sg71_6_cif.got.tgz:10816.got - 2010.06.03 16:22:01.
