data_PCOD9523959
_publ_section_title
;
Structure prediction by ZEFSAII (Michael W. Deem and Ramdas Pophale) SiO2 
 PCOD9523959
Probable space group: I M M M
;
_chemical_formula_sum "Si O2"
_cell_formula_units_Z 66
_cell_length_a 14.827445
_cell_length_b 18.778179
_cell_length_c 12.454773
_cell_angle_alpha 90.000000
_cell_angle_beta 90.000000
_cell_angle_gamma 90.000000
_cell_volume 3467.812541
_symmetry_space_group_name_H-M "I M M M"
_symmetry_group_IT_number 71
_symmetry_cell_setting 'orthorhombic'
loop_
_space_group_symop_operation_xyz
x,y,z
-x,-y,z
x,-y,-z
-x,y,-z
-x,-y,-z
x,y,-z
-x,y,z
x,-y,z
1/2+x,1/2+y,1/2+z
1/2-x,1/2-y,1/2+z
1/2+x,1/2-y,1/2-z
1/2-x,1/2+y,1/2-z
1/2-x,1/2-y,1/2-z
1/2+x,1/2+y,1/2-z
1/2-x,1/2+y,1/2+z
1/2+x,1/2-y,1/2+z
loop_
_atom_site_type_symbol
_atom_site_label
_atom_site_fract_x
_atom_site_fract_y
_atom_site_fract_z
Si Si1 0.678236 0.814223 0.229001
Si Si2 0.500000 0.000000 0.000000
Si Si3 0.000000 0.126131 0.877914
Si Si4 0.401070 0.846876 0.000000
Si Si5 0.332571 0.415678 0.228774
Si Si6 0.395195 0.413395 0.000000
Si Si7 0.500000 0.796163 0.375414
O O1 0.750000 0.750000 0.250000
O O2 0.646396 0.818477 0.106499
O O3 0.736304 0.885285 0.242685
O O4 0.591102 0.814219 0.307943
O O5 0.422242 0.933409 0.000000
O O6 0.088738 0.104284 0.811893
O O7 0.000000 0.211034 0.883015
O O8 0.000000 0.097782 0.000000
O O9 0.500000 0.813443 0.000000
O O10 0.331509 0.500000 0.223052
O O11 0.354888 0.385957 0.110480
O O12 0.386346 0.500000 0.000000
O O13 0.500000 0.397460 0.000000
O O14 0.500000 0.823652 0.500000
#
# Coordination Sequence:
#
# PCOD9523959 Si02
#       7
#    16   2   8   8  16   8   8
#     4  12  26  44  68 100 135 178 226 282 344 415
#     4   8  20  48  80  96 138 186 238 312 340 414
#     4  11  23  42  62  96 136 172 215 268 335 407
#     4  10  24  45  72 103 132 180 239 289 352 405
#     4  11  24  39  65  95 130 174 220 275 338 402
#     4   9  18  37  59  86 123 162 214 266 317 382
#     4  11  25  47  66  94 137 175 216 276 334 396
#
# _framework density 19.032171000000002
#
# number of rings (size 3 to 8) (size 9 to 14) (size 15 to 20)
#    0.364    0.848    4.848    0.364    6.788    0.970 
#    0.000    2.424    0.000    0.727    0.000    0.000 
#    0.000    0.000    0.000    0.000    0.000    0.000 
#
# Total GULP energy -183739.522319 kJ/mol
# GULP energy per Si atom -5567.864313 kJ/mol
# Density = 1.898885 g / cm^3
# Si number density = 19.032171 Si / 1000 Ang^3
#
#
#
# Elastic Constant Matrix: (Units=GPa)
#
#
# Indices 1 2 3 4 5 6 
#
# 1 151.3336 24.0410 106.8919 0.0000 0.0000 0.0000
# 2 24.0410 42.4714 36.1168 0.0000 0.0000 0.0000
# 3 106.8919 36.1168 213.7907 0.0000 0.0000 0.0000
# 4 0.0000 0.0000 0.0000 -93.2611 0.0000 0.0000
# 5 0.0000 0.0000 0.0000 0.0000 62.4335 0.0000
# 6 0.0000 0.0000 0.0000 0.0000 0.0000 94.1383
#
#
#
# Elastic Compliance Matrix: (Units=1/GPa)
#
#
# Indices 1 2 3 4 5 6 
#
# 1 0.010319 -0.001698 -0.004873 0.000000 0.000000 0.000000
# 2 -0.001698 0.027774 -0.003843 0.000000 0.000000 0.000000
# 3 -0.004873 -0.003843 0.007763 0.000000 0.000000 0.000000
# 4 0.000000 0.000000 0.000000 -0.010723 0.000000 0.000000
# 5 0.000000 0.000000 0.000000 0.000000 0.016017 0.000000
# 6 0.000000 0.000000 0.000000 0.000000 0.000000 0.010623
#
#
# Mechanical properties :
#
#
# Convention : Reuss Voigt Hill
#
# Bulk Modulus (GPa) = 39.95281 82.41057 61.18169
# Shear Modulus (GPa) = 54.97862 28.69854 41.83858
#
# Velocity S-wave (km/s) = 5.38051 3.88738 4.69370
# Velocity P-wave (km/s) = 7.72255 7.97142 7.84797
#
# Compressibility (1/GPa) = 0.02502953
#
# Stress axis : x y z
#
# Youngs Moduli (GPa) = 96.90516 36.00433 128.81581
#
# Poissons Ratio (x) = 0.06112 0.62768
# Poissons Ratio (y) = 0.16451 0.49508
# Poissons Ratio (z) = 0.47219 0.13838
#
# Static dielectric constant tensor:
#      x y z
#    x 1.484500 0.000000 0.000000 
#    y 0.000000 1.680060 0.000000 
#    z 0.000000 0.000000 1.661180 
# 
# From -- ./inp_files/21626.got.cif
#   From: 2010.05.17/outbox.cif.g08.bks.cpg/sg71_11_cif.got.tgz:21626.got - 2010.06.03 16:22:01.
