data_PCOD9523096
_publ_section_title
;
Structure prediction by ZEFSAII (Michael W. Deem and Ramdas Pophale) SiO2 
 PCOD9523096
Probable space group: I M M M
;
_chemical_formula_sum "Si O2"
_cell_formula_units_Z 88
_cell_length_a 29.294595
_cell_length_b 19.536006
_cell_length_c 7.907377
_cell_angle_alpha 90.000000
_cell_angle_beta 90.000000
_cell_angle_gamma 90.000000
_cell_volume 4525.386984
_symmetry_space_group_name_H-M "I M M M"
_symmetry_group_IT_number 71
_symmetry_cell_setting 'orthorhombic'
loop_
_space_group_symop_operation_xyz
x,y,z
-x,-y,z
x,-y,-z
-x,y,-z
-x,-y,-z
x,y,-z
-x,y,z
x,-y,z
1/2+x,1/2+y,1/2+z
1/2-x,1/2-y,1/2+z
1/2+x,1/2-y,1/2-z
1/2-x,1/2+y,1/2-z
1/2-x,1/2-y,1/2-z
1/2+x,1/2+y,1/2-z
1/2-x,1/2+y,1/2+z
1/2+x,1/2-y,1/2+z
loop_
_atom_site_type_symbol
_atom_site_label
_atom_site_fract_x
_atom_site_fract_y
_atom_site_fract_z
Si Si1 0.445365 0.579936 0.500000
Si Si2 0.693164 0.421355 0.303271
Si Si3 0.230220 0.323749 0.802701
Si Si4 0.051994 0.578207 0.706438
Si Si5 0.604728 0.345167 0.194703
Si Si6 0.374392 0.188832 0.795940
O O1 0.431598 0.500000 0.500000
O O2 0.500000 0.583888 0.500000
O O3 0.425852 0.615830 0.331693
O O4 0.679103 0.420401 0.500000
O O5 0.695942 0.500000 0.247157
O O6 0.741205 0.382755 0.288684
O O7 0.654797 0.379436 0.203884
O O8 0.250000 0.250000 0.750000
O O9 0.176470 0.324979 0.768066
O O10 0.238651 0.332595 0.000000
O O11 0.052323 0.579206 0.500000
O O12 0.062242 0.500000 0.757730
O O13 0.089124 0.632873 0.764899
O O14 0.000000 0.594593 0.758579
O O15 0.610245 0.265850 0.246343
O O16 0.588130 0.348933 0.000000
O O17 0.372611 0.185702 0.000000
#
# Coordination Sequence:
#
# PCOD9523096 Si02
#       6
#     8  16  16  16  16  16
#     4  11  26  46  66  92 127 165 211 267 321 379
#     4  11  23  40  63  89 120 160 208 260 314 375
#     4  12  24  38  58  85 121 161 202 251 308 370
#     4   8  15  31  57  87 119 156 199 248 300 359
#     4  11  23  40  65  94 126 165 208 259 318 379
#     4  10  21  36  59  91 124 161 204 254 312 371
#
# _framework density 19.445851000000001
#
# number of rings (size 3 to 8) (size 9 to 14) (size 15 to 20)
#    0.000    1.545    2.727    3.273    1.273    4.364 
#    0.000    4.545    0.000    0.000    0.000    1.273 
#    0.000    0.000    0.000    0.000    0.000    0.000 
#
# Total GULP energy -245883.614347 kJ/mol
# GULP energy per Si atom -5588.263962 kJ/mol
# Density = 1.940159 g / cm^3
# Si number density = 19.445851 Si / 1000 Ang^3
#
#
#
# Elastic Constant Matrix: (Units=GPa)
#
#
# Indices 1 2 3 4 5 6 
#
# 1 128.9699 89.6989 27.8452 0.0000 0.0000 0.0000
# 2 89.6989 159.0359 28.1001 0.0000 0.0000 0.0000
# 3 27.8452 28.1001 62.3535 0.0000 0.0000 0.0000
# 4 0.0000 0.0000 0.0000 22.7223 0.0000 0.0000
# 5 0.0000 0.0000 0.0000 0.0000 19.4198 0.0000
# 6 0.0000 0.0000 0.0000 0.0000 0.0000 41.0417
#
#
#
# Elastic Compliance Matrix: (Units=1/GPa)
#
#
# Indices 1 2 3 4 5 6 
#
# 1 0.013180 -0.006947 -0.002755 0.000000 0.000000 0.000000
# 2 -0.006947 0.010494 -0.001627 0.000000 0.000000 0.000000
# 3 -0.002755 -0.001627 0.018001 0.000000 0.000000 0.000000
# 4 0.000000 0.000000 0.000000 0.044010 0.000000 0.000000
# 5 0.000000 0.000000 0.000000 0.000000 0.051494 0.000000
# 6 0.000000 0.000000 0.000000 0.000000 0.000000 0.024365
#
#
# Mechanical properties :
#
#
# Convention : Reuss Voigt Hill
#
# Bulk Modulus (GPa) = 52.58429 71.29419 61.93924
# Shear Modulus (GPa) = 26.24111 30.28444 28.26278
#
# Velocity S-wave (km/s) = 3.67746 3.95064 3.81650
# Velocity P-wave (km/s) = 6.71802 7.58634 7.16534
#
# Compressibility (1/GPa) = 0.01901709
#
# Stress axis : x y z
#
# Youngs Moduli (GPa) = 75.87057 95.29621 55.55244
#
# Poissons Ratio (x) = 0.66203 0.15306
# Poissons Ratio (y) = 0.52708 0.09036
# Poissons Ratio (z) = 0.20904 0.15501
#
# Static dielectric constant tensor:
#      x y z
#    x 1.644090 0.000000 0.000000 
#    y 0.000000 1.650710 0.000000 
#    z 0.000000 0.000000 1.690050 
# 
# From -- ./inp_files/16632.got.cif
#   From: 2010.05.17/outbox.cif.g08.bks.cpg/sg71_9_cif.got.tgz:16632.got - 2010.06.03 16:22:01.
