data_PCOD9523614
_publ_section_title
;
Structure prediction by ZEFSAII (Michael W. Deem and Ramdas Pophale) SiO2 
 PCOD9523614
Probable space group: I M M M
;
_chemical_formula_sum "Si O2"
_cell_formula_units_Z 104
_cell_length_a 19.364174
_cell_length_b 17.044549
_cell_length_c 18.001653
_cell_angle_alpha 90.000000
_cell_angle_beta 90.000000
_cell_angle_gamma 90.000000
_cell_volume 5941.510605
_symmetry_space_group_name_H-M "I M M M"
_symmetry_group_IT_number 71
_symmetry_cell_setting 'orthorhombic'
loop_
_space_group_symop_operation_xyz
x,y,z
-x,-y,z
x,-y,-z
-x,y,-z
-x,-y,-z
x,y,-z
-x,y,z
x,-y,z
1/2+x,1/2+y,1/2+z
1/2-x,1/2-y,1/2+z
1/2+x,1/2-y,1/2-z
1/2-x,1/2+y,1/2-z
1/2-x,1/2-y,1/2-z
1/2+x,1/2+y,1/2-z
1/2-x,1/2+y,1/2+z
1/2+x,1/2-y,1/2+z
loop_
_atom_site_type_symbol
_atom_site_label
_atom_site_fract_x
_atom_site_fract_y
_atom_site_fract_z
Si Si1 0.684548 0.846432 0.704271
Si Si2 0.337027 0.405955 0.643342
Si Si3 0.840617 0.182118 0.288258
Si Si4 0.677164 0.910427 0.140125
Si Si5 0.921442 0.594176 0.912705
Si Si6 0.581602 0.230444 0.913508
Si Si7 0.920997 0.096033 0.000000
O O1 0.765521 0.847378 0.684602
O O2 0.670569 0.762905 0.742822
O O3 0.668454 0.907154 0.770694
O O4 0.634912 0.862351 0.636111
O O5 0.337127 0.500000 0.643552
O O6 0.363328 0.376713 0.723123
O O7 0.256814 0.382578 0.630449
O O8 0.382306 0.377614 0.574386
O O9 0.889536 0.204042 0.356650
O O10 0.624826 0.849008 0.103602
O O11 0.669729 0.000000 0.113310
O O12 0.913725 0.500000 0.903983
O O13 0.000000 0.614470 0.890026
O O14 0.914185 0.611547 0.000000
O O15 0.500000 0.217790 0.900805
O O16 0.591584 0.251433 0.000000
O O17 0.000000 0.121215 0.000000
O O18 0.919603 0.000000 0.000000
#
# Coordination Sequence:
#
# PCOD9523614 Si02
#       7
#    16  16  16  16  16  16   8
#     4   9  17  32  50  73 101 136 179 215 251 304
#     4   9  18  34  56  81 106 135 171 214 264 322
#     4   9  19  35  52  73 100 135 177 224 265 306
#     4   9  18  32  53  79 105 136 173 212 260 317
#     4   9  18  32  50  76 112 147 173 205 256 315
#     4  10  22  37  52  74 104 139 180 223 266 312
#     4   9  18  32  50  76 107 133 162 202 255 318
#
# _framework density 17.503965999999998
#
# number of rings (size 3 to 8) (size 9 to 14) (size 15 to 20)
#    0.000    2.846    0.000    1.846    1.077    4.923 
#    1.385    0.769    0.000    0.462    0.000    1.077 
#    0.000    0.000    0.000    0.000    0.000    0.000 
#
# Total GULP energy -289775.018523 kJ/mol
# GULP energy per Si atom -5572.596510 kJ/mol
# Density = 1.746413 g / cm^3
# Si number density = 17.503966 Si / 1000 Ang^3
#
#
#
# Elastic Constant Matrix: (Units=GPa)
#
#
# Indices 1 2 3 4 5 6 
#
# 1 113.0805 32.8226 95.0241 0.0000 0.0000 0.0000
# 2 32.8226 25.9067 33.8449 0.0000 0.0000 0.0000
# 3 95.0241 33.8449 115.7142 0.0000 0.0000 0.0000
# 4 0.0000 0.0000 0.0000 20.4144 0.0000 0.0000
# 5 0.0000 0.0000 0.0000 0.0000 65.5617 0.0000
# 6 0.0000 0.0000 0.0000 0.0000 0.0000 23.0689
#
#
#
# Elastic Compliance Matrix: (Units=1/GPa)
#
#
# Indices 1 2 3 4 5 6 
#
# 1 0.029880 -0.009388 -0.021792 0.000000 0.000000 0.000000
# 2 -0.009388 0.065420 -0.011425 0.000000 0.000000 0.000000
# 3 -0.021792 -0.011425 0.029879 0.000000 0.000000 0.000000
# 4 0.000000 0.000000 0.000000 0.048985 0.000000 0.000000
# 5 0.000000 0.000000 0.000000 0.000000 0.015253 0.000000
# 6 0.000000 0.000000 0.000000 0.000000 0.000000 0.043348
#
#
# Mechanical properties :
#
#
# Convention : Reuss Voigt Hill
#
# Bulk Modulus (GPa) = 25.01891 64.23164 44.62527
# Shear Modulus (GPa) = 15.09210 28.00963 21.55087
#
# Velocity S-wave (km/s) = 2.93953 4.00457 3.51265
# Velocity P-wave (km/s) = 5.08384 7.62609 6.48084
#
# Compressibility (1/GPa) = 0.03996977
#
# Stress axis : x y z
#
# Youngs Moduli (GPa) = 33.46689 15.28576 33.46826
#
# Poissons Ratio (x) = 0.14350 0.72933
# Poissons Ratio (y) = 0.31418 0.38239
# Poissons Ratio (z) = 0.72930 0.17465
#
# Static dielectric constant tensor:
#      x y z
#    x 1.589690 0.000000 0.000000 
#    y 0.000000 1.620290 0.000000 
#    z 0.000000 0.000000 1.597480 
# 
# From -- ./inp_files/38328.got.cif
#   From: 2010.05.17/outbox.cif.g08.bks.cpg/sg71_20_cif.got.tgz:38328.got - 2010.06.03 16:22:01.
