data_PCOD9523626
_publ_section_title
;
Structure prediction by ZEFSAII (Michael W. Deem and Ramdas Pophale) SiO2 
 PCOD9523626
Probable space group: I M M M
;
_chemical_formula_sum "Si O2"
_cell_formula_units_Z 96
_cell_length_a 8.254412
_cell_length_b 27.973951
_cell_length_c 23.745444
_cell_angle_alpha 90.000000
_cell_angle_beta 90.000000
_cell_angle_gamma 90.000000
_cell_volume 5483.025255
_symmetry_space_group_name_H-M "I M M M"
_symmetry_group_IT_number 71
_symmetry_cell_setting 'orthorhombic'
loop_
_space_group_symop_operation_xyz
x,y,z
-x,-y,z
x,-y,-z
-x,y,-z
-x,-y,-z
x,y,-z
-x,y,z
x,-y,z
1/2+x,1/2+y,1/2+z
1/2-x,1/2-y,1/2+z
1/2+x,1/2-y,1/2-z
1/2-x,1/2+y,1/2-z
1/2-x,1/2-y,1/2-z
1/2+x,1/2+y,1/2-z
1/2-x,1/2+y,1/2+z
1/2+x,1/2-y,1/2+z
loop_
_atom_site_type_symbol
_atom_site_label
_atom_site_fract_x
_atom_site_fract_y
_atom_site_fract_z
Si Si1 0.309612 0.121518 0.163668
Si Si2 0.310580 0.090954 0.710494
Si Si3 0.194395 0.054279 0.936071
Si Si4 0.685597 0.725503 0.306971
Si Si5 0.000000 0.857661 0.566019
Si Si6 0.500000 0.447057 0.147130
Si Si7 0.818061 0.678766 0.875232
O O1 0.500000 0.117312 0.156780
O O2 0.269290 0.097866 0.224013
O O3 0.235479 0.093270 0.111079
O O4 0.269035 0.177449 0.171384
O O5 0.500000 0.074183 0.705283
O O6 0.305963 0.142182 0.677959
O O7 0.165601 0.060896 0.682661
O O8 0.000000 0.052188 0.938493
O O9 0.251910 0.000000 0.921913
O O10 0.251899 0.065661 0.000000
O O11 0.500000 0.712279 0.296029
O O12 0.750000 0.750000 0.250000
O O13 0.692700 0.767468 0.352810
O O14 0.000000 0.907679 0.598750
O O15 0.165178 0.831739 0.585581
O O16 0.000000 0.863876 0.500000
O O17 0.500000 0.500000 0.123714
O O18 0.000000 0.671158 0.899415
#
# Coordination Sequence:
#
# PCOD9523626 Si02
#       7
#    16  16  16  16   8   8  16
#     4  11  22  34  54  86 116 146 187 233 279 339
#     4   9  19  35  53  81 119 151 181 225 285 349
#     4   9  20  40  61  78 103 145 194 241 287 337
#     4  11  21  32  56  87 118 151 182 226 279 336
#     4  10  22  39  62  82 110 153 194 242 284 332
#     4  10  22  37  58  84 113 150 188 234 292 342
#     4   9  19  36  56  83 116 151 190 226 282 346
#
# _framework density 17.508583000000002
#
# number of rings (size 3 to 8) (size 9 to 14) (size 15 to 20)
#    0.000    2.167    1.667    1.500    4.667    2.167 
#    0.000    3.333    0.000    1.000    0.000    4.667 
#    0.000    0.000    0.000    0.000    0.000    0.000 
#
# Total GULP energy -267477.757498 kJ/mol
# GULP energy per Si atom -5572.453281 kJ/mol
# Density = 1.746873 g / cm^3
# Si number density = 17.508583 Si / 1000 Ang^3
#
#
#
# Elastic Constant Matrix: (Units=GPa)
#
#
# Indices 1 2 3 4 5 6 
#
# 1 74.7657 25.1570 58.1413 0.0000 0.0000 0.0000
# 2 25.1570 70.3381 45.6949 0.0000 0.0000 0.0000
# 3 58.1413 45.6949 104.9703 0.0000 0.0000 0.0000
# 4 0.0000 0.0000 0.0000 11.8176 0.0000 0.0000
# 5 0.0000 0.0000 0.0000 0.0000 15.5828 0.0000
# 6 0.0000 0.0000 0.0000 0.0000 0.0000 16.4689
#
#
#
# Elastic Compliance Matrix: (Units=1/GPa)
#
#
# Indices 1 2 3 4 5 6 
#
# 1 0.023495 0.000071 -0.013045 0.000000 0.000000 0.000000
# 2 0.000071 0.019823 -0.008669 0.000000 0.000000 0.000000
# 3 -0.013045 -0.008669 0.020525 0.000000 0.000000 0.000000
# 4 0.000000 0.000000 0.000000 0.084619 0.000000 0.000000
# 5 0.000000 0.000000 0.000000 0.000000 0.064173 0.000000
# 6 0.000000 0.000000 0.000000 0.000000 0.000000 0.060721
#
#
# Mechanical properties :
#
#
# Convention : Reuss Voigt Hill
#
# Bulk Modulus (GPa) = 48.63955 56.45116 52.54535
# Shear Modulus (GPa) = 15.45621 16.84591 16.15106
#
# Velocity S-wave (km/s) = 2.97438 3.10522 3.04051
# Velocity P-wave (km/s) = 6.29576 6.72075 6.51173
#
# Compressibility (1/GPa) = 0.02055940
#
# Stress axis : x y z
#
# Youngs Moduli (GPa) = 42.56178 50.44597 48.72050
#
# Poissons Ratio (x) = -0.00358 0.63554
# Poissons Ratio (y) = -0.00302 0.42234
# Poissons Ratio (z) = 0.55520 0.43730
#
# Static dielectric constant tensor:
#      x y z
#    x 7.198640 0.000000 0.000000 
#    y 0.000000 1.534700 0.000000 
#    z 0.000000 0.000000 1.577910 
# 
# From -- ./inp_files/57787.got.cif
#   From: 2010.05.17/outbox.cif.g08.bks.cpg/sg71_29_cif.got.tgz:57787.got - 2010.06.03 16:22:01.
