data_PCOD9523832
_publ_section_title
;
Structure prediction by ZEFSAII (Michael W. Deem and Ramdas Pophale) SiO2 
 PCOD9523832
Probable space group: I M M M
;
_chemical_formula_sum "Si O2"
_cell_formula_units_Z 104
_cell_length_a 14.451762
_cell_length_b 18.303252
_cell_length_c 20.443459
_cell_angle_alpha 90.000000
_cell_angle_beta 90.000000
_cell_angle_gamma 90.000000
_cell_volume 5407.586056
_symmetry_space_group_name_H-M "I M M M"
_symmetry_group_IT_number 71
_symmetry_cell_setting 'orthorhombic'
loop_
_space_group_symop_operation_xyz
x,y,z
-x,-y,z
x,-y,-z
-x,y,-z
-x,-y,-z
x,y,-z
-x,y,z
x,-y,z
1/2+x,1/2+y,1/2+z
1/2-x,1/2-y,1/2+z
1/2+x,1/2-y,1/2-z
1/2-x,1/2+y,1/2-z
1/2-x,1/2-y,1/2-z
1/2+x,1/2+y,1/2-z
1/2-x,1/2+y,1/2+z
1/2+x,1/2-y,1/2+z
loop_
_atom_site_type_symbol
_atom_site_label
_atom_site_fract_x
_atom_site_fract_y
_atom_site_fract_z
Si Si1 0.241571 0.913592 0.800805
Si Si2 0.811415 0.160203 0.073437
Si Si3 0.500000 0.580622 0.578715
Si Si4 0.607246 0.187403 0.399703
Si Si5 0.388272 0.656036 0.805204
Si Si6 0.604542 0.814958 0.245507
Si Si7 0.773101 0.086903 0.424018
O O1 0.251544 0.870420 0.869373
O O2 0.154973 0.887634 0.756419
O O3 0.330322 0.884398 0.762061
O O4 0.238472 0.000000 0.810780
O O5 0.908894 0.124302 0.094205
O O6 0.833038 0.245647 0.072276
O O7 0.786126 0.136270 0.000000
O O8 0.500000 0.500000 0.607716
O O9 0.500000 0.574584 0.500000
O O10 0.500000 0.185413 0.422519
O O11 0.604035 0.202524 0.322359
O O12 0.668291 0.116137 0.414010
O O13 0.500000 0.649140 0.807629
O O14 0.364315 0.741353 0.791852
O O15 0.338683 0.626938 0.870942
O O16 0.500000 0.831148 0.224476
O O17 0.799282 0.101271 0.500000
O O18 0.777974 0.000000 0.412783
#
# Coordination Sequence:
#
# PCOD9523832 Si02
#       7
#    16  16   8  16  16  16  16
#     4  12  24  38  62  91 122 160 201 246 300 360
#     4  11  22  36  56  86 122 159 198 239 291 360
#     4   9  18  32  48  74 117 155 184 228 283 342
#     4  11  21  38  63  89 120 161 204 248 301 359
#     4  11  23  42  65  88 118 158 205 251 298 356
#     4  10  22  41  65  90 120 155 200 258 304 346
#     4  11  25  42  60  88 124 159 201 254 307 358
#
# _framework density 19.232241999999999
#
# number of rings (size 3 to 8) (size 9 to 14) (size 15 to 20)
#    0.000    1.154    3.846    2.769    1.077    4.000 
#    0.000    3.077    0.000    1.385    0.000    1.077 
#    0.000    0.000    0.000    0.000    0.000    0.000 
#
# Total GULP energy -290241.035031 kJ/mol
# GULP energy per Si atom -5581.558366 kJ/mol
# Density = 1.918847 g / cm^3
# Si number density = 19.232242 Si / 1000 Ang^3
#
#
#
# Elastic Constant Matrix: (Units=GPa)
#
#
# Indices 1 2 3 4 5 6 
#
# 1 59.8797 37.8926 27.7460 0.0000 0.0000 0.0000
# 2 37.8926 50.0095 25.0869 0.0000 0.0000 0.0000
# 3 27.7460 25.0869 115.4052 0.0000 0.0000 0.0000
# 4 0.0000 0.0000 0.0000 22.7646 0.0000 0.0000
# 5 0.0000 0.0000 0.0000 0.0000 19.1976 0.0000
# 6 0.0000 0.0000 0.0000 0.0000 0.0000 0.3476
#
#
#
# Elastic Compliance Matrix: (Units=1/GPa)
#
#
# Indices 1 2 3 4 5 6 
#
# 1 0.032867 -0.023502 -0.002793 0.000000 0.000000 0.000000
# 2 -0.023502 0.039250 -0.002882 0.000000 0.000000 0.000000
# 3 -0.002793 -0.002882 0.009963 0.000000 0.000000 0.000000
# 4 0.000000 0.000000 0.000000 0.043928 0.000000 0.000000
# 5 0.000000 0.000000 0.000000 0.000000 0.052090 0.000000
# 6 0.000000 0.000000 0.000000 0.000000 0.000000 2.876676
#
#
# Mechanical properties :
#
#
# Convention : Reuss Voigt Hill
#
# Bulk Modulus (GPa) = 42.14857 45.19394 43.67126
# Shear Modulus (GPa) = 1.60203 17.43323 9.51763
#
# Velocity S-wave (km/s) = 0.91367 3.01401 2.22700
# Velocity P-wave (km/s) = 4.80377 5.97180 5.41935
#
# Compressibility (1/GPa) = 0.02372560
#
# Stress axis : x y z
#
# Youngs Moduli (GPa) = 30.42573 25.47792 100.37113
#
# Poissons Ratio (x) = 0.59879 0.28033
# Poissons Ratio (y) = 0.71508 0.28923
# Poissons Ratio (z) = 0.08498 0.07342
#
# Static dielectric constant tensor:
#      x y z
#    x 1.680180 0.000000 0.000000 
#    y 0.000000 1.687280 0.000000 
#    z 0.000000 0.000000 1.679850 
# 
# From -- ./inp_files/36708.got.cif
#   From: 2010.05.17/outbox.cif.g08.bks.cpg/sg71_19_cif.got.tgz:36708.got - 2010.06.03 16:22:01.
