data_PCOD9523759
_publ_section_title
;
Structure prediction by ZEFSAII (Michael W. Deem and Ramdas Pophale) SiO2 
 PCOD9523759
Probable space group: I M M M
;
_chemical_formula_sum "Si O2"
_cell_formula_units_Z 104
_cell_length_a 11.543410
_cell_length_b 25.824209
_cell_length_c 18.290253
_cell_angle_alpha 90.000000
_cell_angle_beta 90.000000
_cell_angle_gamma 90.000000
_cell_volume 5452.314038
_symmetry_space_group_name_H-M "I M M M"
_symmetry_group_IT_number 71
_symmetry_cell_setting 'orthorhombic'
loop_
_space_group_symop_operation_xyz
x,y,z
-x,-y,z
x,-y,-z
-x,y,-z
-x,-y,-z
x,y,-z
-x,y,z
x,-y,z
1/2+x,1/2+y,1/2+z
1/2-x,1/2-y,1/2+z
1/2+x,1/2-y,1/2-z
1/2-x,1/2+y,1/2-z
1/2-x,1/2-y,1/2-z
1/2+x,1/2+y,1/2-z
1/2-x,1/2+y,1/2+z
1/2+x,1/2-y,1/2+z
loop_
_atom_site_type_symbol
_atom_site_label
_atom_site_fract_x
_atom_site_fract_y
_atom_site_fract_z
Si Si1 0.000000 0.437637 0.665199
Si Si2 0.259032 0.663673 0.770135
Si Si3 0.000000 0.283357 0.918561
Si Si4 0.863177 0.207626 0.584016
Si Si5 0.636803 0.556808 0.278191
Si Si6 0.793543 0.205516 0.879854
Si Si7 0.000000 0.351114 0.779415
Si Si8 0.758969 0.588293 0.583746
O O1 0.885349 0.419529 0.620901
O O2 0.000000 0.500000 0.671422
O O3 0.000000 0.408776 0.744225
O O4 0.296081 0.677999 0.851581
O O5 0.294340 0.604255 0.757006
O O6 0.317441 0.697818 0.706672
O O7 0.123161 0.671008 0.754327
O O8 0.108968 0.244715 0.908222
O O9 0.000000 0.331978 0.863567
O O10 0.000000 0.303828 0.000000
O O11 0.831755 0.194304 0.500000
O O12 0.826258 0.266622 0.599403
O O13 0.000000 0.199871 0.592415
O O14 0.500000 0.564986 0.268817
O O15 0.668021 0.500000 0.248955
O O16 0.670644 0.558586 0.363442
O O17 0.784119 0.147939 0.911630
O O18 0.761960 0.571470 0.500000
#
# Coordination Sequence:
#
# PCOD9523759 Si02
#       8
#     8  16   8  16  16  16   8  16
#     4  12  25  44  64  89 124 163 218 270 322 370
#     4  11  24  39  63  88 119 159 210 251 302 367
#     4  12  26  42  63  94 129 168 208 257 318 372
#     4  11  24  39  61  90 125 160 195 248 305 363
#     4  10  22  40  61  86 117 156 203 258 314 369
#     4  11  24  39  60  87 126 167 205 249 294 367
#     4  12  24  41  66  91 119 169 212 266 308 367
#     4  11  24  39  60  89 124 164 206 255 307 371
#
# _framework density 19.074470999999999
#
# number of rings (size 3 to 8) (size 9 to 14) (size 15 to 20)
#    0.000    0.923    4.615    3.000    7.538    1.846 
#    0.000    0.769    0.000    0.692    0.000    4.308 
#    0.000    0.000    0.000    0.000    0.000    0.000 
#
# Total GULP energy -290070.898887 kJ/mol
# GULP energy per Si atom -5578.286517 kJ/mol
# Density = 1.903106 g / cm^3
# Si number density = 19.074471 Si / 1000 Ang^3
#
#
#
# Elastic Constant Matrix: (Units=GPa)
#
#
# Indices 1 2 3 4 5 6 
#
# 1 61.9499 6.0165 15.2955 0.0000 0.0000 0.0000
# 2 6.0165 65.3604 35.8666 0.0000 0.0000 0.0000
# 3 15.2955 35.8666 116.1664 0.0000 0.0000 0.0000
# 4 0.0000 0.0000 0.0000 2.0424 0.0000 0.0000
# 5 0.0000 0.0000 0.0000 0.0000 22.9124 0.0000
# 6 0.0000 0.0000 0.0000 0.0000 0.0000 19.0586
#
#
#
# Elastic Compliance Matrix: (Units=1/GPa)
#
#
# Indices 1 2 3 4 5 6 
#
# 1 0.016693 -0.000398 -0.002075 0.000000 0.000000 0.000000
# 2 -0.000398 0.018430 -0.005638 0.000000 0.000000 0.000000
# 3 -0.002075 -0.005638 0.010622 0.000000 0.000000 0.000000
# 4 0.000000 0.000000 0.000000 0.489616 0.000000 0.000000
# 5 0.000000 0.000000 0.000000 0.000000 0.043645 0.000000
# 6 0.000000 0.000000 0.000000 0.000000 0.000000 0.052470
#
#
# Mechanical properties :
#
#
# Convention : Reuss Voigt Hill
#
# Bulk Modulus (GPa) = 33.87116 39.75932 36.81524
# Shear Modulus (GPa) = 7.60411 21.22256 14.41333
#
# Velocity S-wave (km/s) = 1.99880 3.33921 2.75186
# Velocity P-wave (km/s) = 4.80862 5.97968 5.42584
#
# Compressibility (1/GPa) = 0.02952364
#
# Stress axis : x y z
#
# Youngs Moduli (GPa) = 59.90516 54.25857 94.14158
#
# Poissons Ratio (x) = 0.02159 0.19535
# Poissons Ratio (y) = 0.02384 0.53077
# Poissons Ratio (z) = 0.12431 0.30591
#
# Static dielectric constant tensor:
#      x y z
#    x 1.704760 0.000000 0.000000 
#    y 0.000000 1.684010 0.000000 
#    z 0.000000 0.000000 1.676920 
# 
# From -- ./inp_files/43815.got.cif
#   From: 2010.05.17/outbox.cif.g08.bks.cpg/sg71_22_cif.got.tgz:43815.got - 2010.06.03 16:22:01.
