data_PCOD9523956
_publ_section_title
;
Structure prediction by ZEFSAII (Michael W. Deem and Ramdas Pophale) SiO2 
 PCOD9523956
Probable space group: I M M M
;
_chemical_formula_sum "Si O2"
_cell_formula_units_Z 104
_cell_length_a 18.427613
_cell_length_b 20.053529
_cell_length_c 14.147534
_cell_angle_alpha 90.000000
_cell_angle_beta 90.000000
_cell_angle_gamma 90.000000
_cell_volume 5228.060922
_symmetry_space_group_name_H-M "I M M M"
_symmetry_group_IT_number 71
_symmetry_cell_setting 'orthorhombic'
loop_
_space_group_symop_operation_xyz
x,y,z
-x,-y,z
x,-y,-z
-x,y,-z
-x,-y,-z
x,y,-z
-x,y,z
x,-y,z
1/2+x,1/2+y,1/2+z
1/2-x,1/2-y,1/2+z
1/2+x,1/2-y,1/2-z
1/2-x,1/2+y,1/2-z
1/2-x,1/2-y,1/2-z
1/2+x,1/2+y,1/2-z
1/2-x,1/2+y,1/2+z
1/2+x,1/2-y,1/2+z
loop_
_atom_site_type_symbol
_atom_site_label
_atom_site_fract_x
_atom_site_fract_y
_atom_site_fract_z
Si Si1 0.417069 0.106421 0.609770
Si Si2 0.084916 0.795372 0.308417
Si Si3 0.785641 0.426203 0.243425
Si Si4 0.644215 0.161046 0.111582
Si Si5 0.353733 0.575312 0.889667
Si Si6 0.000000 0.423662 0.614332
Si Si7 0.586063 0.732893 0.397425
O O1 0.408182 0.086438 0.500000
O O2 0.500000 0.090715 0.638083
O O3 0.356165 0.076975 0.676268
O O4 0.408541 0.186956 0.612843
O O5 0.127987 0.737295 0.362042
O O6 0.093425 0.865754 0.359256
O O7 0.112607 0.798581 0.200054
O O8 0.000000 0.775828 0.306645
O O9 0.781828 0.500000 0.287327
O O10 0.793903 0.370515 0.323320
O O11 0.717148 0.417042 0.175318
O O12 0.571972 0.118096 0.138157
O O13 0.657044 0.154308 0.000000
O O14 0.382475 0.500000 0.875872
O O15 0.334573 0.582186 0.000000
O O16 0.000000 0.500000 0.649859
O O17 0.000000 0.427409 0.500000
O O18 0.618179 0.714133 0.500000
O O19 0.500000 0.717833 0.401946
#
# Coordination Sequence:
#
# PCOD9523956 Si02
#       7
#    16  16  16  16  16   8  16
#     4   9  17  31  52  80 113 147 189 238 284 336
#     4  11  21  38  66  93 119 153 198 253 305 362
#     4  11  23  38  57  78 114 164 204 240 293 359
#     4  11  22  36  55  85 122 157 201 248 291 350
#     4  10  24  45  64  86 118 155 197 250 314 367
#     4   9  18  32  50  76 116 162 198 235 286 338
#     4   8  15  30  53  83 119 151 180 227 291 347
#
# _framework density 19.892652999999999
#
# number of rings (size 3 to 8) (size 9 to 14) (size 15 to 20)
#    0.000    2.077    2.308    2.308    1.077    4.000 
#    0.000    2.308    0.000    1.385    0.000    2.154 
#    0.000    0.000    0.000    0.000    0.000    0.000 
#
# Total GULP energy -290362.822976 kJ/mol
# GULP energy per Si atom -5583.900442 kJ/mol
# Density = 1.984738 g / cm^3
# Si number density = 19.892653 Si / 1000 Ang^3
#
#
#
# Elastic Constant Matrix: (Units=GPa)
#
#
# Indices 1 2 3 4 5 6 
#
# 1 15.2946 9.7571 12.7770 0.0000 0.0000 0.0000
# 2 9.7571 98.0809 50.3049 0.0000 0.0000 0.0000
# 3 12.7770 50.3049 105.0284 0.0000 0.0000 0.0000
# 4 0.0000 0.0000 0.0000 34.4734 0.0000 0.0000
# 5 0.0000 0.0000 0.0000 0.0000 21.3542 0.0000
# 6 0.0000 0.0000 0.0000 0.0000 0.0000 23.8879
#
#
#
# Elastic Compliance Matrix: (Units=1/GPa)
#
#
# Indices 1 2 3 4 5 6 
#
# 1 0.073739 -0.003625 -0.007234 0.000000 0.000000 0.000000
# 2 -0.003625 0.013694 -0.006118 0.000000 0.000000 0.000000
# 3 -0.007234 -0.006118 0.013332 0.000000 0.000000 0.000000
# 4 0.000000 0.000000 0.000000 0.029008 0.000000 0.000000
# 5 0.000000 0.000000 0.000000 0.000000 0.046829 0.000000
# 6 0.000000 0.000000 0.000000 0.000000 0.000000 0.041862
#
#
# Mechanical properties :
#
#
# Convention : Reuss Voigt Hill
#
# Bulk Modulus (GPa) = 14.96789 40.45356 27.71072
# Shear Modulus (GPa) = 18.20244 25.64744 21.92494
#
# Velocity S-wave (km/s) = 3.02823 3.59457 3.32349
# Velocity P-wave (km/s) = 4.44608 6.13253 5.35610
#
# Compressibility (1/GPa) = 0.06680970
#
# Stress axis : x y z
#
# Youngs Moduli (GPa) = 13.56139 73.02380 75.00977
#
# Poissons Ratio (x) = 0.26473 0.54264
# Poissons Ratio (y) = 0.04916 0.45891
# Poissons Ratio (z) = 0.09811 0.44676
#
# Static dielectric constant tensor:
#      x y z
#    x 1.688710 0.000000 0.000000 
#    y 0.000000 1.705090 0.000000 
#    z 0.000000 0.000000 1.724760 
# 
# From -- ./inp_files/38085.got.cif
#   From: 2010.05.17/outbox.cif.g08.bks.cpg/sg71_20_cif.got.tgz:38085.got - 2010.06.03 16:22:01.
