data_PCOD9523551
_publ_section_title
;
Structure prediction by ZEFSAII (Michael W. Deem and Ramdas Pophale) SiO2 
 PCOD9523551
Probable space group: I M M M
;
_chemical_formula_sum "Si O2"
_cell_formula_units_Z 96
_cell_length_a 15.977647
_cell_length_b 13.853771
_cell_length_c 21.374876
_cell_angle_alpha 90.000000
_cell_angle_beta 90.000000
_cell_angle_gamma 90.000000
_cell_volume 4731.342967
_symmetry_space_group_name_H-M "I M M M"
_symmetry_group_IT_number 71
_symmetry_cell_setting 'orthorhombic'
loop_
_space_group_symop_operation_xyz
x,y,z
-x,-y,z
x,-y,-z
-x,y,-z
-x,-y,-z
x,y,-z
-x,y,z
x,-y,z
1/2+x,1/2+y,1/2+z
1/2-x,1/2-y,1/2+z
1/2+x,1/2-y,1/2-z
1/2-x,1/2+y,1/2-z
1/2-x,1/2-y,1/2-z
1/2+x,1/2+y,1/2-z
1/2-x,1/2+y,1/2+z
1/2+x,1/2-y,1/2+z
loop_
_atom_site_type_symbol
_atom_site_label
_atom_site_fract_x
_atom_site_fract_y
_atom_site_fract_z
Si Si1 0.236374 0.389451 0.639313
Si Si2 0.723089 0.610259 0.500000
Si Si3 0.091671 0.715966 0.000000
Si Si4 0.169066 0.887427 0.573232
Si Si5 0.595258 0.699543 0.309556
Si Si6 0.906546 0.754594 0.328364
Si Si7 0.143524 0.611763 0.875266
O O1 0.226106 0.500000 0.657982
O O2 0.226235 0.380558 0.564338
O O3 0.330812 0.356216 0.655323
O O4 0.167704 0.322582 0.671034
O O5 0.687610 0.500000 0.500000
O O6 0.656818 0.696657 0.500000
O O7 0.102566 0.649000 0.939534
O O8 0.000000 0.759636 0.000000
O O9 0.180431 0.861044 0.500000
O O10 0.105752 0.820845 0.610808
O O11 0.257496 0.878295 0.609804
O O12 0.144956 0.000000 0.575009
O O13 0.500000 0.676733 0.329802
O O14 0.601817 0.684012 0.235349
O O15 0.613102 0.812675 0.323554
O O16 0.000000 0.711978 0.327722
O O17 0.124899 0.500000 0.862399
#
# Coordination Sequence:
#
# PCOD9523551 Si02
#       7
#    16   8   8  16  16  16  16
#     4  11  24  43  66  90 124 167 210 259 312 366
#     4  10  22  40  62  88 119 161 213 264 309 361
#     4  12  21  33  56  88 129 165 206 257 309 376
#     4  10  21  40  67  96 126 161 204 258 321 384
#     4  11  24  42  63  93 130 167 210 256 304 370
#     4  11  25  43  65  94 127 163 210 263 313 369
#     4  11  22  37  61  93 128 166 205 253 315 381
#
# _framework density 20.290222
#
# number of rings (size 3 to 8) (size 9 to 14) (size 15 to 20)
#    0.000    1.167    4.167    1.250    1.167    4.500 
#    0.000    5.833    0.000    1.500    0.000    0.000 
#    0.000    0.000    0.000    0.000    0.000    0.000 
#
# Total GULP energy -268190.626084 kJ/mol
# GULP energy per Si atom -5587.304710 kJ/mol
# Density = 2.024404 g / cm^3
# Si number density = 20.290222 Si / 1000 Ang^3
#
#
#
# Elastic Constant Matrix: (Units=GPa)
#
#
# Indices 1 2 3 4 5 6 
#
# 1 80.3131 11.8278 24.8140 0.0000 0.0000 0.0000
# 2 11.8278 41.4517 3.2398 0.0000 0.0000 0.0000
# 3 24.8140 3.2398 57.0457 0.0000 0.0000 0.0000
# 4 0.0000 0.0000 0.0000 7.7098 0.0000 0.0000
# 5 0.0000 0.0000 0.0000 0.0000 5.7800 0.0000
# 6 0.0000 0.0000 0.0000 0.0000 0.0000 -0.0102
#
#
#
# Elastic Compliance Matrix: (Units=1/GPa)
#
#
# Indices 1 2 3 4 5 6 
#
# 1 0.014950 -0.003774 -0.006289 0.000000 0.000000 0.000000
# 2 -0.003774 0.025185 0.000211 0.000000 0.000000 0.000000
# 3 -0.006289 0.000211 0.020253 0.000000 0.000000 0.000000
# 4 0.000000 0.000000 0.000000 0.129705 0.000000 0.000001
# 5 0.000000 0.000000 0.000000 0.000000 0.173010 0.000001
# 6 0.000000 0.000000 0.000000 0.000001 0.000001-97.875756
#
#
# Mechanical properties :
#
#
# Convention : Reuss Voigt Hill
#
# Bulk Modulus (GPa) = 24.57902 28.73040 26.65471
# Shear Modulus (GPa) = -0.05129 11.95785 5.95328
#
# Velocity S-wave (km/s) = -0.15917 2.43027 1.71477
# Velocity P-wave (km/s) = 3.47940 4.69738 4.13350
#
# Compressibility (1/GPa) = 0.04068511
#
# Stress axis : x y z
#
# Youngs Moduli (GPa) = 66.88910 39.70632 49.37468
#
# Poissons Ratio (x) = 0.14987 0.31050
# Poissons Ratio (y) = 0.25246 -0.01044
# Poissons Ratio (z) = 0.42065 -0.00840
#
# Static dielectric constant tensor:
#      x y z
#    x 1.722210 0.000000 0.000000 
#    y 0.000000 1.712050 0.000000 
#    z 0.000000 0.000000 1.728980 
# 
# From -- ./inp_files/53024.got.cif
#   From: 2010.05.17/outbox.cif.g08.bks.cpg/sg71_27_cif.got.tgz:53024.got - 2010.06.03 16:22:01.
