data_PCOD9523960
_publ_section_title
;
Structure prediction by ZEFSAII (Michael W. Deem and Ramdas Pophale) SiO2 
 PCOD9523960
Probable space group: I M M M
;
_chemical_formula_sum "Si O2"
_cell_formula_units_Z 76
_cell_length_a 16.627027
_cell_length_b 7.623330
_cell_length_c 30.433777
_cell_angle_alpha 90.000000
_cell_angle_beta 90.000000
_cell_angle_gamma 90.000000
_cell_volume 3857.582084
_symmetry_space_group_name_H-M "I M M M"
_symmetry_group_IT_number 71
_symmetry_cell_setting 'orthorhombic'
loop_
_space_group_symop_operation_xyz
x,y,z
-x,-y,z
x,-y,-z
-x,y,-z
-x,-y,-z
x,y,-z
-x,y,z
x,-y,z
1/2+x,1/2+y,1/2+z
1/2-x,1/2-y,1/2+z
1/2+x,1/2-y,1/2-z
1/2-x,1/2+y,1/2-z
1/2-x,1/2-y,1/2-z
1/2+x,1/2+y,1/2-z
1/2-x,1/2+y,1/2+z
1/2+x,1/2-y,1/2+z
loop_
_atom_site_type_symbol
_atom_site_label
_atom_site_fract_x
_atom_site_fract_y
_atom_site_fract_z
Si Si1 0.000000 0.000000 0.774175
Si Si2 0.093805 0.713065 0.453324
Si Si3 0.324666 0.797981 0.135219
Si Si4 0.093421 0.000000 0.688918
Si Si5 0.000000 0.290732 0.847502
Si Si6 0.657503 0.793478 0.403747
Si Si7 0.593313 0.291377 0.500000
O O1 0.000000 0.829183 0.804642
O O2 0.924021 0.000000 0.740968
O O3 0.128638 0.773822 0.500000
O O4 0.099567 0.500000 0.453020
O O5 0.134650 0.773993 0.409402
O O6 0.000000 0.757606 0.452477
O O7 0.356755 0.669205 0.172824
O O8 0.231479 0.795829 0.121346
O O9 0.349228 0.000000 0.143591
O O10 0.000000 0.000000 0.670728
O O11 0.923076 0.249183 0.877368
O O12 0.000000 0.500000 0.837876
O O13 0.640537 0.756689 0.455236
O O14 0.672364 0.000000 0.399793
O O15 0.587175 0.500000 0.500000
O O16 0.500000 0.221236 0.500000
#
# Coordination Sequence:
#
# PCOD9523960 Si02
#       7
#     4  16  16   8   8  16   8
#     4  10  26  46  80  95 131 158 224 296 350 426
#     4   8  15  29  50  79 115 164 216 257 303 369
#     4  11  22  38  64  95 134 179 218 278 337 394
#     4  10  24  46  67  99 127 163 222 288 344 425
#     4  10  24  45  73  99 126 179 220 273 351 415
#     4  11  23  41  65  95 143 182 231 276 327 399
#     4  11  23  37  61 103 139 192 239 271 319 401
#
# _framework density 19.701460999999998
#
# number of rings (size 3 to 8) (size 9 to 14) (size 15 to 20)
#    0.316    1.579    2.105    2.211    4.421    2.526 
#    0.000    1.579    0.000    1.895    0.000    0.000 
#    0.000    0.000    0.000    0.000    0.000    0.000 
#
# Total GULP energy -211944.195000 kJ/mol
# GULP energy per Si atom -5577.478816 kJ/mol
# Density = 1.965662 g / cm^3
# Si number density = 19.701461 Si / 1000 Ang^3
#
#
#
# Elastic Constant Matrix: (Units=GPa)
#
#
# Indices 1 2 3 4 5 6 
#
# 1 76.8414 26.5833 43.3243 0.0000 0.0000 0.0000
# 2 26.5833 85.8456 51.7115 0.0000 0.0000 0.0000
# 3 43.3243 51.7115 146.2619 0.0000 0.0000 0.0000
# 4 0.0000 0.0000 0.0000 42.2791 0.0000 0.0000
# 5 0.0000 0.0000 0.0000 0.0000 -65.3374 0.0000
# 6 0.0000 0.0000 0.0000 0.0000 0.0000 24.5429
#
#
#
# Elastic Compliance Matrix: (Units=1/GPa)
#
#
# Indices 1 2 3 4 5 6 
#
# 1 0.016095 -0.002684 -0.003819 0.000000 0.000000 0.000000
# 2 -0.002684 0.015249 -0.004596 0.000000 0.000000 0.000000
# 3 -0.003819 -0.004596 0.009593 0.000000 0.000000 0.000000
# 4 0.000000 0.000000 0.000000 0.023652 0.000000 0.000000
# 5 0.000000 0.000000 0.000000 0.000000 -0.015305 0.000000
# 6 0.000000 0.000000 0.000000 0.000000 0.000000 0.040745
#
#
# Mechanical properties :
#
#
# Convention : Reuss Voigt Hill
#
# Bulk Modulus (GPa) = 53.36301 61.35411 57.35856
# Shear Modulus (GPa) = 42.20358 12.78557 27.49457
#
# Velocity S-wave (km/s) = 4.63336 2.55024 3.73977
# Velocity P-wave (km/s) = 7.46784 6.31515 6.91556
#
# Compressibility (1/GPa) = 0.01873957
#
# Stress axis : x y z
#
# Youngs Moduli (GPa) = 62.12973 65.57997 104.24040
#
# Poissons Ratio (x) = 0.17601 0.39807
# Poissons Ratio (y) = 0.16675 0.47911
# Poissons Ratio (z) = 0.23726 0.30142
#
# Static dielectric constant tensor:
#      x y z
#    x 1.523980 0.000000 0.000000 
#    y 0.000000 1.711330 0.000000 
#    z 0.000000 0.000000 1.684840 
# 
# From -- ./inp_files/65881.got.cif
#   From: 2010.05.17/outbox.cif.g08.bks.cpg/sg71_33_cif.got.tgz:65881.got - 2010.06.03 16:22:01.
