data_PCOD9523748
_publ_section_title
;
Structure prediction by ZEFSAII (Michael W. Deem and Ramdas Pophale) SiO2 
 PCOD9523748
Probable space group: I M M M
;
_chemical_formula_sum "Si O2"
_cell_formula_units_Z 104
_cell_length_a 27.079799
_cell_length_b 21.807768
_cell_length_c 9.056864
_cell_angle_alpha 90.000000
_cell_angle_beta 90.000000
_cell_angle_gamma 90.000000
_cell_volume 5348.530800
_symmetry_space_group_name_H-M "I M M M"
_symmetry_group_IT_number 71
_symmetry_cell_setting 'orthorhombic'
loop_
_space_group_symop_operation_xyz
x,y,z
-x,-y,z
x,-y,-z
-x,y,-z
-x,-y,-z
x,y,-z
-x,y,z
x,-y,z
1/2+x,1/2+y,1/2+z
1/2-x,1/2-y,1/2+z
1/2+x,1/2-y,1/2-z
1/2-x,1/2+y,1/2-z
1/2-x,1/2-y,1/2-z
1/2+x,1/2+y,1/2-z
1/2-x,1/2+y,1/2+z
1/2+x,1/2-y,1/2+z
loop_
_atom_site_type_symbol
_atom_site_label
_atom_site_fract_x
_atom_site_fract_y
_atom_site_fract_z
Si Si1 0.441329 0.500000 0.830620
Si Si2 0.780744 0.694466 0.176681
Si Si3 0.383149 0.172815 0.171216
Si Si4 0.221262 0.070805 0.677335
Si Si5 0.943135 0.792370 0.326853
Si Si6 0.056584 0.427090 0.173535
Si Si7 0.882599 0.893999 0.175763
O O1 0.500000 0.500000 0.834277
O O2 0.421163 0.441869 0.744012
O O3 0.422796 0.500000 0.000000
O O4 0.750000 0.750000 0.250000
O O5 0.836318 0.695216 0.236336
O O6 0.758497 0.626693 0.212587
O O7 0.779156 0.701720 0.000000
O O8 0.427541 0.221743 0.183356
O O9 0.404023 0.109453 0.232331
O O10 0.368778 0.168925 0.000000
O O11 0.213797 0.072061 0.500000
O O12 0.170219 0.087911 0.757205
O O13 0.235599 0.000000 0.715301
O O14 0.938892 0.810902 0.500000
O O15 0.903494 0.829545 0.232311
O O16 0.000000 0.802457 0.281448
O O17 0.062282 0.500000 0.188363
O O18 0.000000 0.411838 0.215655
O O19 0.062564 0.411841 0.000000
O O20 0.880872 0.896932 0.000000
#
# Coordination Sequence:
#
# PCOD9523748 Si02
#       7
#     8  16  16  16  16  16  16
#     4  11  23  39  59  81 113 159 201 235 282 349
#     4  11  24  42  64  91 121 159 206 257 313 373
#     4  11  23  39  61  90 122 158 202 254 306 363
#     4  10  22  42  66  87 114 159 208 249 299 368
#     4  10  22  40  60  83 117 163 207 243 291 360
#     4   9  19  37  61  89 123 163 203 245 300 368
#     4  12  24  37  58  90 121 150 193 250 304 348
#
# _framework density 19.444592
#
# number of rings (size 3 to 8) (size 9 to 14) (size 15 to 20)
#    0.000    1.462    0.769    4.846    0.000   10.769 
#    0.000    2.308    0.000    0.000    0.000    0.000 
#    0.000    0.000    0.000    0.000    0.000    0.000 
#
# Total GULP energy -290531.803437 kJ/mol
# GULP energy per Si atom -5587.150066 kJ/mol
# Density = 1.940034 g / cm^3
# Si number density = 19.444592 Si / 1000 Ang^3
#
#
#
# Elastic Constant Matrix: (Units=GPa)
#
#
# Indices 1 2 3 4 5 6 
#
# 1 55.6640 34.1607 25.5487 0.0000 0.0000 0.0000
# 2 34.1607 84.8309 42.7408 0.0000 0.0000 0.0000
# 3 25.5487 42.7408 53.8596 0.0000 0.0000 0.0000
# 4 0.0000 0.0000 0.0000 42.6946 0.0000 0.0000
# 5 0.0000 0.0000 0.0000 0.0000 25.4845 0.0000
# 6 0.0000 0.0000 0.0000 0.0000 0.0000 35.4271
#
#
#
# Elastic Compliance Matrix: (Units=1/GPa)
#
#
# Indices 1 2 3 4 5 6 
#
# 1 0.025153 -0.006860 -0.006487 0.000000 0.000000 0.000000
# 2 -0.006860 0.021512 -0.013817 0.000000 0.000000 0.000000
# 3 -0.006487 -0.013817 0.032609 0.000000 0.000000 0.000000
# 4 0.000000 0.000000 0.000000 0.023422 0.000000 0.000000
# 5 0.000000 0.000000 0.000000 0.000000 0.039240 0.000000
# 6 0.000000 0.000000 0.000000 0.000000 0.000000 0.028227
#
#
# Mechanical properties :
#
#
# Convention : Reuss Voigt Hill
#
# Bulk Modulus (GPa) = 40.08914 44.36163 42.22539
# Shear Modulus (GPa) = 21.47712 26.84820 24.16266
#
# Velocity S-wave (km/s) = 3.32705 3.71988 3.52894
# Velocity P-wave (km/s) = 5.95155 6.42759 6.19414
#
# Compressibility (1/GPa) = 0.02494441
#
# Stress axis : x y z
#
# Youngs Moduli (GPa) = 39.75739 46.48532 30.66667
#
# Poissons Ratio (x) = 0.31890 0.19894
# Poissons Ratio (y) = 0.27274 0.42372
# Poissons Ratio (z) = 0.25792 0.64229
#
# Static dielectric constant tensor:
#      x y z
#    x 1.665840 0.000000 0.000000 
#    y 0.000000 1.677270 0.000000 
#    z 0.000000 0.000000 1.655650 
# 
# From -- ./inp_files/14970.got.cif
#   From: 2010.05.17/outbox.cif.g08.bks.cpg/sg71_8_cif.got.tgz:14970.got - 2010.06.03 16:22:01.
