data_PCOD9523159
_publ_section_title
;
Structure prediction by ZEFSAII (Michael W. Deem and Ramdas Pophale) SiO2 
 PCOD9523159
Probable space group: I M M M
;
_chemical_formula_sum "Si O2"
_cell_formula_units_Z 112
_cell_length_a 17.238085
_cell_length_b 23.810501
_cell_length_c 13.878129
_cell_angle_alpha 90.000000
_cell_angle_beta 90.000000
_cell_angle_gamma 90.000000
_cell_volume 5696.242522
_symmetry_space_group_name_H-M "I M M M"
_symmetry_group_IT_number 71
_symmetry_cell_setting 'orthorhombic'
loop_
_space_group_symop_operation_xyz
x,y,z
-x,-y,z
x,-y,-z
-x,y,-z
-x,-y,-z
x,y,-z
-x,y,z
x,-y,z
1/2+x,1/2+y,1/2+z
1/2-x,1/2-y,1/2+z
1/2+x,1/2-y,1/2-z
1/2-x,1/2+y,1/2-z
1/2-x,1/2-y,1/2-z
1/2+x,1/2+y,1/2-z
1/2-x,1/2+y,1/2+z
1/2+x,1/2-y,1/2+z
loop_
_atom_site_type_symbol
_atom_site_label
_atom_site_fract_x
_atom_site_fract_y
_atom_site_fract_z
Si Si1 0.410403 0.732076 0.886212
Si Si2 0.677267 0.832986 0.216845
Si Si3 0.905493 0.102918 0.392159
Si Si4 0.911379 0.708583 0.886476
Si Si5 0.335271 0.327664 0.610424
Si Si6 0.093400 0.939087 0.185866
Si Si7 0.908080 0.565451 0.614719
O O1 0.500000 0.733777 0.854969
O O2 0.363999 0.779516 0.832248
O O3 0.383093 0.667944 0.875142
O O4 0.407986 0.744246 0.000000
O O5 0.651643 0.826625 0.327195
O O6 0.765975 0.826993 0.186841
O O7 0.642805 0.890115 0.172534
O O8 0.879773 0.085504 0.500000
O O9 0.881738 0.068785 0.297868
O O10 0.000000 0.101771 0.394766
O O11 0.891395 0.774616 0.873393
O O12 0.000000 0.697155 0.854747
O O13 0.906344 0.697118 0.000000
O O14 0.305578 0.323157 0.500000
O O15 0.377685 0.386604 0.625178
O O16 0.000000 0.938286 0.184922
O O17 0.120118 0.000000 0.150355
O O18 0.895571 0.573236 0.500000
O O19 0.891540 0.500000 0.637235
O O20 0.000000 0.575270 0.632684
#
# Coordination Sequence:
#
# PCOD9523159 Si02
#       7
#    16  16  16  16  16  16  16
#     4   9  16  26  46  79 113 143 178 221 273 334
#     4  12  21  34  57  83 109 143 185 229 278 335
#     4   8  15  29  50  78 110 139 172 226 287 326
#     4  10  22  40  61  84 112 149 189 227 271 330
#     4  11  24  39  55  81 117 149 181 231 295 347
#     4  10  21  37  57  79 105 148 206 249 275 320
#     4   9  18  32  51  79 114 148 182 223 275 334
#
# _framework density 19.662084
#
# number of rings (size 3 to 8) (size 9 to 14) (size 15 to 20)
#    0.000    2.143    0.000    5.571    0.000    4.286 
#    0.000    4.286    0.000    0.429    0.000    2.000 
#    0.000    0.000    0.000    0.000    0.000    0.000 
#
# Total GULP energy -312762.537162 kJ/mol
# GULP energy per Si atom -5585.045306 kJ/mol
# Density = 1.961733 g / cm^3
# Si number density = 19.662084 Si / 1000 Ang^3
#
#
#
# Elastic Constant Matrix: (Units=GPa)
#
#
# Indices 1 2 3 4 5 6 
#
# 1 43.9560 5.0162 23.2707 0.0000 0.0000 0.0000
# 2 5.0162 47.8209 16.4922 0.0000 0.0000 0.0000
# 3 23.2707 16.4922 64.5575 0.0000 0.0000 0.0000
# 4 0.0000 0.0000 0.0000 13.7146 0.0000 0.0000
# 5 0.0000 0.0000 0.0000 0.0000 23.5657 0.0000
# 6 0.0000 0.0000 0.0000 0.0000 0.0000 -30.9768
#
#
#
# Elastic Compliance Matrix: (Units=1/GPa)
#
#
# Indices 1 2 3 4 5 6 
#
# 1 0.028131 0.000599 -0.010293 0.000000 0.000000 0.000000
# 2 0.000599 0.022945 -0.006077 0.000000 0.000000 0.000000
# 3 -0.010293 -0.006077 0.020753 0.000000 0.000000 0.000000
# 4 0.000000 0.000000 0.000000 0.072915 0.000000 0.000000
# 5 0.000000 0.000000 0.000000 0.000000 0.042434 0.000000
# 6 0.000000 0.000000 0.000000 0.000000 0.000000 -0.032282
#
#
# Mechanical properties :
#
#
# Convention : Reuss Voigt Hill
#
# Bulk Modulus (GPa) = 24.82304 27.32142 26.07223
# Shear Modulus (GPa) = 25.01653 8.69771 16.85712
#
# Velocity S-wave (km/s) = 3.57083 2.10552 2.93122
# Velocity P-wave (km/s) = 5.44549 4.45383 4.97443
#
# Compressibility (1/GPa) = 0.04028516
#
# Stress axis : x y z
#
# Youngs Moduli (GPa) = 35.54790 43.58343 48.18577
#
# Poissons Ratio (x) = -0.02611 0.49599
# Poissons Ratio (y) = -0.02130 0.29285
# Poissons Ratio (z) = 0.36591 0.26488
#
# Static dielectric constant tensor:
#      x y z
#    x 1.686230 0.000000 0.000000 
#    y 0.000000 1.671290 0.000000 
#    z 0.000000 0.000000 1.730540 
# 
# From -- ./inp_files/34877.got.cif
#   From: 2010.05.17/outbox.cif.g08.bks.cpg/sg71_18_cif.got.tgz:34877.got - 2010.06.03 16:22:01.
