data_PCOD9523092
_publ_section_title
;
Structure prediction by ZEFSAII (Michael W. Deem and Ramdas Pophale) SiO2 
 PCOD9523092
Probable space group: I M M M
;
_chemical_formula_sum "Si O2"
_cell_formula_units_Z 72
_cell_length_a 15.616632
_cell_length_b 14.819048
_cell_length_c 14.848813
_cell_angle_alpha 90.000000
_cell_angle_beta 90.000000
_cell_angle_gamma 90.000000
_cell_volume 3436.366045
_symmetry_space_group_name_H-M "I M M M"
_symmetry_group_IT_number 71
_symmetry_cell_setting 'orthorhombic'
loop_
_space_group_symop_operation_xyz
x,y,z
-x,-y,z
x,-y,-z
-x,y,-z
-x,-y,-z
x,y,-z
-x,y,z
x,-y,z
1/2+x,1/2+y,1/2+z
1/2-x,1/2-y,1/2+z
1/2+x,1/2-y,1/2-z
1/2-x,1/2+y,1/2-z
1/2-x,1/2-y,1/2-z
1/2+x,1/2+y,1/2-z
1/2-x,1/2+y,1/2+z
1/2+x,1/2-y,1/2+z
loop_
_atom_site_type_symbol
_atom_site_label
_atom_site_fract_x
_atom_site_fract_y
_atom_site_fract_z
Si Si1 0.896699 0.399821 0.500000
Si Si2 0.628114 0.400134 0.107306
Si Si3 0.094773 0.707474 0.678265
Si Si4 0.098140 0.890950 0.104485
Si Si5 0.245527 0.396530 0.257507
O O1 0.859418 0.500000 0.500000
O O2 0.875374 0.344134 0.587825
O O3 0.000000 0.406459 0.500000
O O4 0.591807 0.500000 0.128612
O O5 0.588426 0.311815 0.151837
O O6 0.719159 0.400398 0.156125
O O7 0.627748 0.390526 0.000000
O O8 0.169242 0.674975 0.742860
O O9 0.000000 0.675732 0.704599
O O10 0.175397 0.870893 0.174501
O O11 0.000000 0.860026 0.128771
O O12 0.094375 0.000000 0.104497
O O13 0.115395 0.863141 0.000000
O O14 0.218903 0.500000 0.281961
#
# Coordination Sequence:
#
# PCOD9523092 Si02
#       5
#     8  16  16  16  16
#     4   9  18  32  51  79 116 154 185 220 279 355
#     4  10  22  41  61  81 112 159 214 262 300 343
#     4  11  22  37  57  86 123 158 194 243 300 362
#     4   8  15  29  49  76 112 151 191 239 296 356
#     4  10  21  36  59  89 118 156 201 248 305 364
#
# _framework density 20.952365
#
# number of rings (size 3 to 8) (size 9 to 14) (size 15 to 20)
#    0.000    2.333    1.111    2.000    1.556    2.667 
#    0.000    3.333    0.000    0.667    0.000    3.111 
#    0.000    0.000    0.000    0.000    0.000    0.222 
#
# Total GULP energy -200601.852519 kJ/mol
# GULP energy per Si atom -5572.273681 kJ/mol
# Density = 2.090468 g / cm^3
# Si number density = 20.952365 Si / 1000 Ang^3
#
#
#
# Elastic Constant Matrix: (Units=GPa)
#
#
# Indices 1 2 3 4 5 6 
#
# 1 118.7968 48.5104 27.3001 0.0000 0.0000 0.0000
# 2 48.5104 119.8811 16.9735 0.0000 0.0000 0.0000
# 3 27.3001 16.9735 27.6598 0.0000 0.0000 0.0000
# 4 0.0000 0.0000 0.0000 28.2356 0.0000 0.0000
# 5 0.0000 0.0000 0.0000 0.0000 -60.0101 0.0000
# 6 0.0000 0.0000 0.0000 0.0000 0.0000 4.9108
#
#
#
# Elastic Compliance Matrix: (Units=1/GPa)
#
#
# Indices 1 2 3 4 5 6 
#
# 1 0.012101 -0.003511 -0.009789 0.000000 0.000000 0.000000
# 2 -0.003511 0.010154 -0.002766 0.000000 0.000000 0.000000
# 3 -0.009789 -0.002766 0.047513 0.000000 0.000000 0.000000
# 4 0.000000 0.000000 0.000000 0.035416 0.000000 0.000000
# 5 0.000000 0.000000 0.000000 0.000000 -0.016664 0.000000
# 6 0.000000 0.000000 0.000000 0.000000 0.000000 0.203633
#
#
# Mechanical properties :
#
#
# Convention : Reuss Voigt Hill
#
# Bulk Modulus (GPa) = 26.57035 50.21174 38.39104
# Shear Modulus (GPa) = 14.84430 6.19749 10.52089
#
# Velocity S-wave (km/s) = 2.66461 1.72172 2.24327
# Velocity P-wave (km/s) = 4.70911 5.28859 5.00724
#
# Compressibility (1/GPa) = 0.03763594
#
# Stress axis : x y z
#
# Youngs Moduli (GPa) = 82.63845 98.48508 21.04696
#
# Poissons Ratio (x) = 0.34575 0.20603
# Poissons Ratio (y) = 0.29012 0.05821
# Poissons Ratio (z) = 0.80896 0.27240
#
# Static dielectric constant tensor:
#      x y z
#    x 1.773540 0.000000 0.000000 
#    y 0.000000 1.790240 0.000000 
#    z 0.000000 0.000000 1.783380 
# 
# From -- ./inp_files/36066.got.cif
#   From: 2010.05.17/outbox.cif.g08.bks.cpg/sg71_19_cif.got.tgz:36066.got - 2010.06.03 16:22:01.
