data_PCOD9523511
_publ_section_title
;
Structure prediction by ZEFSAII (Michael W. Deem and Ramdas Pophale) SiO2 
 PCOD9523511
Probable space group: I M M M
;
_chemical_formula_sum "Si O2"
_cell_formula_units_Z 88
_cell_length_a 21.275006
_cell_length_b 24.612262
_cell_length_c 8.817554
_cell_angle_alpha 90.000000
_cell_angle_beta 90.000000
_cell_angle_gamma 90.000000
_cell_volume 4617.100722
_symmetry_space_group_name_H-M "I M M M"
_symmetry_group_IT_number 71
_symmetry_cell_setting 'orthorhombic'
loop_
_space_group_symop_operation_xyz
x,y,z
-x,-y,z
x,-y,-z
-x,y,-z
-x,-y,-z
x,y,-z
-x,y,z
x,-y,z
1/2+x,1/2+y,1/2+z
1/2-x,1/2-y,1/2+z
1/2+x,1/2-y,1/2-z
1/2-x,1/2+y,1/2-z
1/2-x,1/2-y,1/2-z
1/2+x,1/2+y,1/2-z
1/2-x,1/2+y,1/2+z
1/2+x,1/2-y,1/2+z
loop_
_atom_site_type_symbol
_atom_site_label
_atom_site_fract_x
_atom_site_fract_y
_atom_site_fract_z
Si Si1 0.134605 0.610281 0.321347
Si Si2 0.212883 0.500000 0.327100
Si Si3 0.343541 0.500000 0.823448
Si Si4 0.931108 0.784840 0.815763
Si Si5 0.929655 0.089352 0.817585
Si Si6 0.690195 0.782288 0.682745
Si Si7 0.000000 0.435437 0.314824
O O1 0.131163 0.624953 0.500000
O O2 0.170779 0.553238 0.309326
O O3 0.175103 0.656603 0.237928
O O4 0.063323 0.596759 0.267208
O O5 0.238368 0.500000 0.500000
O O6 0.270516 0.500000 0.213989
O O7 0.376620 0.447769 0.751205
O O8 0.355236 0.500000 0.000000
O O9 0.923317 0.847770 0.772754
O O10 0.872352 0.749990 0.766204
O O11 0.000000 0.765741 0.763544
O O12 0.931782 0.783498 0.000000
O O13 0.000000 0.070955 0.773370
O O14 0.926295 0.086593 0.000000
O O15 0.695054 0.781436 0.500000
O O16 0.750000 0.750000 0.750000
O O17 0.000000 0.500000 0.268905
O O18 0.000000 0.436597 0.500000
#
# Coordination Sequence:
#
# PCOD9523511 Si02
#       7
#    16   8   8  16  16  16   8
#     4  10  21  39  64  92 120 155 200 248 301 358
#     4  10  22  40  61  82 112 158 204 235 278 357
#     4  12  25  35  51  82 119 149 182 237 300 348
#     4   8  17  36  60  83 108 146 195 238 277 334
#     4   9  18  36  61  83 104 141 195 240 277 338
#     4  11  24  40  61  88 123 161 202 250 300 360
#     4   9  16  34  65  97 125 155 199 254 305 362
#
# _framework density 19.05958
#
# number of rings (size 3 to 8) (size 9 to 14) (size 15 to 20)
#    0.000    2.273    0.909    2.727    3.818    2.182 
#    0.000    0.909    0.000    2.727    0.000    0.000 
#    0.000    0.000    0.000    0.000    0.000    0.000 
#
# Total GULP energy -245451.524392 kJ/mol
# GULP energy per Si atom -5578.443736 kJ/mol
# Density = 1.901620 g / cm^3
# Si number density = 19.059580 Si / 1000 Ang^3
#
#
#
# Elastic Constant Matrix: (Units=GPa)
#
#
# Indices 1 2 3 4 5 6 
#
# 1 104.3718 54.1212 32.6034 0.0000 0.0000 0.0000
# 2 54.1212 97.8446 32.2484 0.0000 0.0000 0.0000
# 3 32.6034 32.2484 36.6845 0.0000 0.0000 0.0000
# 4 0.0000 0.0000 0.0000 -16.7016 0.0000 0.0000
# 5 0.0000 0.0000 0.0000 0.0000 13.7151 0.0000
# 6 0.0000 0.0000 0.0000 0.0000 0.0000 29.8274
#
#
#
# Elastic Compliance Matrix: (Units=1/GPa)
#
#
# Indices 1 2 3 4 5 6 
#
# 1 0.015136 -0.005545 -0.008577 0.000000 0.000000 0.000000
# 2 -0.005545 0.016421 -0.009507 0.000000 0.000000 0.000000
# 3 -0.008577 -0.009507 0.043240 0.000000 0.000000 0.000000
# 4 0.000000 0.000000 0.000000 -0.059874 0.000000 0.000000
# 5 0.000000 0.000000 0.000000 0.000000 0.072913 0.000000
# 6 0.000000 0.000000 0.000000 0.000000 0.000000 0.033526
#
#
# Mechanical properties :
#
#
# Convention : Reuss Voigt Hill
#
# Bulk Modulus (GPa) = 36.31383 52.98299 44.64841
# Shear Modulus (GPa) = 28.12158 13.36337 20.74248
#
# Velocity S-wave (km/s) = 3.84533 2.65077 3.30251
# Velocity P-wave (km/s) = 6.22974 6.10145 6.16593
#
# Compressibility (1/GPa) = 0.02753772
#
# Stress axis : x y z
#
# Youngs Moduli (GPa) = 66.06787 60.89804 23.12674
#
# Poissons Ratio (x) = 0.33769 0.19837
# Poissons Ratio (y) = 0.36636 0.21986
# Poissons Ratio (z) = 0.56669 0.57895
#
# Static dielectric constant tensor:
#      x y z
#    x 1.662700 0.000000 0.000000 
#    y 0.000000 1.670000 0.000000 
#    z 0.000000 0.000000 1.656670 
# 
# From -- ./inp_files/10513.got.cif
#   From: 2010.05.17/outbox.cif.g08.bks.cpg/sg71_6_cif.got.tgz:10513.got - 2010.06.03 16:22:01.
