data_PCOD9523963
_publ_section_title
;
Structure prediction by ZEFSAII (Michael W. Deem and Ramdas Pophale) SiO2 
 PCOD9523963
Probable space group: I M M M
;
_chemical_formula_sum "Si O2"
_cell_formula_units_Z 48
_cell_length_a 13.181468
_cell_length_b 13.353093
_cell_length_c 11.485257
_cell_angle_alpha 90.000000
_cell_angle_beta 90.000000
_cell_angle_gamma 90.000000
_cell_volume 2021.558768
_symmetry_space_group_name_H-M "I M M M"
_symmetry_group_IT_number 71
_symmetry_cell_setting 'orthorhombic'
loop_
_space_group_symop_operation_xyz
x,y,z
-x,-y,z
x,-y,-z
-x,y,-z
-x,-y,-z
x,y,-z
-x,y,z
x,-y,z
1/2+x,1/2+y,1/2+z
1/2-x,1/2-y,1/2+z
1/2+x,1/2-y,1/2-z
1/2-x,1/2+y,1/2-z
1/2-x,1/2-y,1/2-z
1/2+x,1/2+y,1/2-z
1/2-x,1/2+y,1/2+z
1/2+x,1/2-y,1/2+z
loop_
_atom_site_type_symbol
_atom_site_label
_atom_site_fract_x
_atom_site_fract_y
_atom_site_fract_z
Si Si1 0.308137 0.800689 0.373833
Si Si2 0.619800 0.619708 0.755329
Si Si3 0.378880 0.885227 0.873512
O O1 0.345859 0.833095 0.500000
O O2 0.336249 0.683343 0.353958
O O3 0.191435 0.837313 0.358191
O O4 0.355053 0.845671 0.255725
O O5 0.500000 0.640994 0.770698
O O6 0.630540 0.500000 0.745554
O O7 0.500000 0.883162 0.878931
O O8 0.344301 0.000000 0.873428
O O9 0.344879 0.841881 0.000000
#
# Coordination Sequence:
#
# PCOD9523963 Si02
#       3
#    16  16  16
#     4  11  24  42  68 103 136 167 219 291 350 392
#     4  10  24  46  68  94 136 188 232 270 328 412
#     4   9  19  37  61  91 132 183 230 269 325 409
#
# _framework density 23.744054999999999
#
# number of rings (size 3 to 8) (size 9 to 14) (size 15 to 20)
#    0.000    2.000    0.000    3.000    0.000   12.000 
#    0.000    5.000    0.000    9.000    0.000    7.000 
#    0.000    0.000    0.000    0.000    0.000    0.000 
#
# Total GULP energy -133711.082247 kJ/mol
# GULP energy per Si atom -5571.295094 kJ/mol
# Density = 2.369001 g / cm^3
# Si number density = 23.744055 Si / 1000 Ang^3
#
#
#
# Elastic Constant Matrix: (Units=GPa)
#
#
# Indices 1 2 3 4 5 6 
#
# 1 124.8053 56.6294 45.0999 0.0000 0.0000 0.0000
# 2 56.6294 147.0091 77.7529 0.0000 0.0000 0.0000
# 3 45.0999 77.7529 259.6959 0.0000 0.0000 0.0000
# 4 0.0000 0.0000 0.0000 23.3890 0.0000 0.0000
# 5 0.0000 0.0000 0.0000 0.0000 24.2351 0.0000
# 6 0.0000 0.0000 0.0000 0.0000 0.0000 38.5114
#
#
#
# Elastic Compliance Matrix: (Units=1/GPa)
#
#
# Indices 1 2 3 4 5 6 
#
# 1 0.009810 -0.003419 -0.000680 0.000000 0.000000 0.000000
# 2 -0.003419 0.009274 -0.002183 0.000000 0.000000 0.000000
# 3 -0.000680 -0.002183 0.004622 0.000000 0.000000 0.000000
# 4 0.000000 0.000000 0.000000 0.042755 0.000000 0.000000
# 5 0.000000 0.000000 0.000000 0.000000 0.041262 0.000000
# 6 0.000000 0.000000 0.000000 0.000000 0.000000 0.025966
#
#
# Mechanical properties :
#
#
# Convention : Reuss Voigt Hill
#
# Bulk Modulus (GPa) = 89.75035 98.94164 94.34599
# Shear Modulus (GPa) = 33.34061 40.69565 37.01813
#
# Velocity S-wave (km/s) = 3.75129 4.14446 3.95276
# Velocity P-wave (km/s) = 7.52622 8.04130 7.78802
#
# Compressibility (1/GPa) = 0.01114202
#
# Stress axis : x y z
#
# Youngs Moduli (GPa) = 101.94119 107.82967 216.34435
#
# Poissons Ratio (x) = 0.36869 0.14709
# Poissons Ratio (y) = 0.34855 0.47224
# Poissons Ratio (z) = 0.06931 0.23537
#
# Static dielectric constant tensor:
#      x y z
#    x 2.013780 0.000000 0.000000 
#    y 0.000000 2.020050 0.000000 
#    z 0.000000 0.000000 1.858490 
# 
# From -- ./inp_files/20697.got.cif
#   From: 2010.05.17/outbox.cif.g08.bks.cpg/sg71_11_cif.got.tgz:20697.got - 2010.06.03 16:22:01.
