data_PCOD9523235
_publ_section_title
;
Structure prediction by ZEFSAII (Michael W. Deem and Ramdas Pophale) SiO2 
 PCOD9523235
Probable space group: I M M M
;
_chemical_formula_sum "Si O2"
_cell_formula_units_Z 96
_cell_length_a 15.925943
_cell_length_b 15.267873
_cell_length_c 19.467195
_cell_angle_alpha 90.000000
_cell_angle_beta 90.000000
_cell_angle_gamma 90.000000
_cell_volume 4733.551156
_symmetry_space_group_name_H-M "I M M M"
_symmetry_group_IT_number 71
_symmetry_cell_setting 'orthorhombic'
loop_
_space_group_symop_operation_xyz
x,y,z
-x,-y,z
x,-y,-z
-x,y,-z
-x,-y,-z
x,y,-z
-x,y,z
x,-y,z
1/2+x,1/2+y,1/2+z
1/2-x,1/2-y,1/2+z
1/2+x,1/2-y,1/2-z
1/2-x,1/2+y,1/2-z
1/2-x,1/2-y,1/2-z
1/2+x,1/2+y,1/2-z
1/2-x,1/2+y,1/2+z
1/2+x,1/2-y,1/2+z
loop_
_atom_site_type_symbol
_atom_site_label
_atom_site_fract_x
_atom_site_fract_y
_atom_site_fract_z
Si Si1 0.333300 0.271517 0.295148
Si Si2 0.096305 0.600483 0.141452
Si Si3 0.233439 0.102605 0.428398
Si Si4 0.909009 0.826811 0.664684
Si Si5 0.409344 0.851187 0.920084
Si Si6 0.720310 0.399901 0.581257
O O1 0.250000 0.250000 0.250000
O O2 0.379411 0.179028 0.308191
O O3 0.394169 0.325801 0.245580
O O4 0.312652 0.326603 0.364533
O O5 0.106447 0.500000 0.168055
O O6 0.167902 0.612787 0.084326
O O7 0.000000 0.608976 0.118726
O O8 0.209394 0.146838 0.500000
O O9 0.173758 0.133057 0.368474
O O10 0.218824 0.000000 0.432882
O O11 0.909301 0.729539 0.632474
O O12 0.000000 0.866647 0.646816
O O13 0.500000 0.897052 0.910705
O O14 0.321728 0.900242 0.910798
O O15 0.408679 0.821050 0.000000
O O16 0.702579 0.379792 0.500000
O O17 0.690411 0.500000 0.595074
#
# Coordination Sequence:
#
# PCOD9523235 Si02
#       6
#    16  16  16  16  16  16
#     4  12  22  39  63  95 125 168 213 268 322 383
#     4  10  22  41  65  94 128 165 208 260 325 394
#     4  10  21  37  58  87 124 165 211 262 317 383
#     4  11  22  37  57  86 123 164 212 262 322 388
#     4   9  17  31  53  83 121 161 201 249 306 378
#     4  10  22  40  63  90 123 170 221 263 316 386
#
# _framework density 20.280756
#
# number of rings (size 3 to 8) (size 9 to 14) (size 15 to 20)
#    0.000    1.667    3.333    1.000    0.000    5.333 
#    0.000    4.167    0.000    3.000    0.000    4.667 
#    0.000    0.000    0.000    0.000    0.000    0.000 
#
# Total GULP energy -267298.912182 kJ/mol
# GULP energy per Si atom -5568.727337 kJ/mol
# Density = 2.023460 g / cm^3
# Si number density = 20.280756 Si / 1000 Ang^3
#
#
#
# Elastic Constant Matrix: (Units=GPa)
#
#
# Indices 1 2 3 4 5 6 
#
# 1 110.1827 47.3258 43.3709 0.0000 0.0000 0.0000
# 2 47.3258 74.9509 46.0198 0.0000 0.0000 0.0000
# 3 43.3709 46.0198 105.0733 0.0000 0.0000 0.0000
# 4 0.0000 0.0000 0.0000 20.0877 0.0000 0.0000
# 5 0.0000 0.0000 0.0000 0.0000 15.1684 0.0000
# 6 0.0000 0.0000 0.0000 0.0000 0.0000 19.7706
#
#
#
# Elastic Compliance Matrix: (Units=1/GPa)
#
#
# Indices 1 2 3 4 5 6 
#
# 1 0.012881 -0.006660 -0.002400 0.000000 0.000000 0.000000
# 2 -0.006660 0.021693 -0.006752 0.000000 0.000000 0.000000
# 3 -0.002400 -0.006752 0.013465 0.000000 0.000000 0.000000
# 4 0.000000 0.000000 0.000000 0.049782 0.000000 0.000000
# 5 0.000000 0.000000 0.000000 0.000000 0.065927 0.000000
# 6 0.000000 0.000000 0.000000 0.000000 0.000000 0.050580
#
#
# Mechanical properties :
#
#
# Convention : Reuss Voigt Hill
#
# Bulk Modulus (GPa) = 60.91884 62.62666 61.77275
# Shear Modulus (GPa) = 19.88677 21.23803 20.56240
#
# Velocity S-wave (km/s) = 3.13481 3.23956 3.18761
# Velocity P-wave (km/s) = 6.57310 6.70372 6.63873
#
# Compressibility (1/GPa) = 0.01641528
#
# Stress axis : x y z
#
# Youngs Moduli (GPa) = 77.63316 46.09774 74.26604
#
# Poissons Ratio (x) = 0.30700 0.17824
# Poissons Ratio (y) = 0.51702 0.50145
# Poissons Ratio (z) = 0.18632 0.31126
#
# Static dielectric constant tensor:
#      x y z
#    x 1.731030 0.000000 0.000000 
#    y 0.000000 1.781140 0.000000 
#    z 0.000000 0.000000 5.512970 
# 
# From -- ./inp_files/52993.got.cif
#   From: 2010.05.17/outbox.cif.g08.bks.cpg/sg71_27_cif.got.tgz:52993.got - 2010.06.03 16:22:01.
