data_PCOD9523037
_publ_section_title
;
Structure prediction by ZEFSAII (Michael W. Deem and Ramdas Pophale) SiO2 
 PCOD9523037
Probable space group: I M M M
;
_chemical_formula_sum "Si O2"
_cell_formula_units_Z 96
_cell_length_a 21.295257
_cell_length_b 27.382981
_cell_length_c 8.123004
_cell_angle_alpha 90.000000
_cell_angle_beta 90.000000
_cell_angle_gamma 90.000000
_cell_volume 4736.747972
_symmetry_space_group_name_H-M "I M M M"
_symmetry_group_IT_number 71
_symmetry_cell_setting 'orthorhombic'
loop_
_space_group_symop_operation_xyz
x,y,z
-x,-y,z
x,-y,-z
-x,y,-z
-x,-y,-z
x,y,-z
-x,y,z
x,-y,z
1/2+x,1/2+y,1/2+z
1/2-x,1/2-y,1/2+z
1/2+x,1/2-y,1/2-z
1/2-x,1/2+y,1/2-z
1/2-x,1/2-y,1/2-z
1/2+x,1/2+y,1/2-z
1/2-x,1/2+y,1/2+z
1/2+x,1/2-y,1/2+z
loop_
_atom_site_type_symbol
_atom_site_label
_atom_site_fract_x
_atom_site_fract_y
_atom_site_fract_z
Si Si1 0.071056 0.827299 0.697854
Si Si2 0.187981 0.889094 0.183644
Si Si3 0.309516 0.055247 0.302586
Si Si4 0.432129 0.883219 0.699399
Si Si5 0.238608 0.303297 0.815066
Si Si6 0.108980 0.715971 0.693783
O O1 0.069498 0.826497 0.500000
O O2 0.121662 0.868780 0.746599
O O3 0.089700 0.771113 0.745487
O O4 0.000000 0.836937 0.758171
O O5 0.238711 0.925259 0.267000
O O6 0.228960 0.839838 0.191826
O O7 0.176792 0.906762 0.000000
O O8 0.315088 0.054956 0.500000
O O9 0.368733 0.088221 0.243755
O O10 0.315549 0.000000 0.240137
O O11 0.428325 0.878139 0.500000
O O12 0.500000 0.908258 0.733249
O O13 0.436033 0.829822 0.782627
O O14 0.237654 0.187567 0.500000
O O15 0.250000 0.250000 0.750000
O O16 0.164639 0.304518 0.806896
O O17 0.126954 0.719385 0.500000
#
# Coordination Sequence:
#
# PCOD9523037 Si02
#       6
#    16  16  16  16  16  16
#     4  10  22  39  59  85 121 163 201 239 286 348
#     4  12  24  38  60  87 117 156 195 244 300 353
#     4  10  22  41  64  87 114 151 196 249 304 358
#     4  10  21  36  56  84 120 161 202 245 291 345
#     4  12  22  34  54  83 116 154 198 242 286 341
#     4  11  21  34  55  84 119 162 201 238 281 335
#
# _framework density 20.267068999999999
#
# number of rings (size 3 to 8) (size 9 to 14) (size 15 to 20)
#    0.000    1.167    3.333    4.000    0.000    2.667 
#    0.000    1.667    0.000    0.500    0.000    5.833 
#    0.000    0.000    0.000    0.000    0.000    0.000 
#
# Total GULP energy -267267.641209 kJ/mol
# GULP energy per Si atom -5568.075859 kJ/mol
# Density = 2.022094 g / cm^3
# Si number density = 20.267069 Si / 1000 Ang^3
#
#
#
# Elastic Constant Matrix: (Units=GPa)
#
#
# Indices 1 2 3 4 5 6 
#
# 1 154.7295 44.3034 8.9565 0.0000 0.0000 0.0000
# 2 44.3034 86.6798 -0.1193 0.0000 0.0000 0.0000
# 3 8.9565 -0.1193 40.9326 0.0000 0.0000 0.0000
# 4 0.0000 0.0000 0.0000 12.2772 0.0000 0.0000
# 5 0.0000 0.0000 0.0000 0.0000 12.2143 0.0000
# 6 0.0000 0.0000 0.0000 0.0000 0.0000 17.1098
#
#
#
# Elastic Compliance Matrix: (Units=1/GPa)
#
#
# Indices 1 2 3 4 5 6 
#
# 1 0.007686 -0.003931 -0.001693 0.000000 0.000000 0.000000
# 2 -0.003931 0.013547 0.000900 0.000000 0.000000 0.000000
# 3 -0.001693 0.000900 0.024804 0.000000 0.000000 0.000000
# 4 0.000000 0.000000 0.000000 0.081452 0.000000 0.000000
# 5 0.000000 0.000000 0.000000 0.000000 0.081871 0.000000
# 6 0.000000 0.000000 0.000000 0.000000 0.000000 0.058446
#
#
# Mechanical properties :
#
#
# Convention : Reuss Voigt Hill
#
# Bulk Modulus (GPa) = 27.33157 43.18034 35.25595
# Shear Modulus (GPa) = 17.27404 23.60034 20.43719
#
# Velocity S-wave (km/s) = 2.92262 3.41613 3.17897
# Velocity P-wave (km/s) = 4.99038 6.07551 5.55949
#
# Compressibility (1/GPa) = 0.03658773
#
# Stress axis : x y z
#
# Youngs Moduli (GPa) = 130.09872 73.81627 40.31685
#
# Poissons Ratio (x) = 0.29017 0.06827
# Poissons Ratio (y) = 0.51142 -0.03627
# Poissons Ratio (z) = 0.22030 -0.06641
#
# Static dielectric constant tensor:
#      x y z
#    x 1.570150 0.000000 0.000000 
#    y 0.000000 1.679350 0.000000 
#    z 0.000000 0.000000 1.707170 
# 
# From -- ./inp_files/10824.got.cif
#   From: 2010.05.17/outbox.cif.g08.bks.cpg/sg71_6_cif.got.tgz:10824.got - 2010.06.03 16:22:01.
