data_PCOD9523025
_publ_section_title
;
Structure prediction by ZEFSAII (Michael W. Deem and Ramdas Pophale) SiO2 
 PCOD9523025
Probable space group: I M M M
;
_chemical_formula_sum "Si O2"
_cell_formula_units_Z 120
_cell_length_a 7.670949
_cell_length_b 26.205555
_cell_length_c 29.349968
_cell_angle_alpha 90.000000
_cell_angle_beta 90.000000
_cell_angle_gamma 90.000000
_cell_volume 5899.973886
_symmetry_space_group_name_H-M "I M M M"
_symmetry_group_IT_number 71
_symmetry_cell_setting 'orthorhombic'
loop_
_space_group_symop_operation_xyz
x,y,z
-x,-y,z
x,-y,-z
-x,y,-z
-x,-y,-z
x,y,-z
-x,y,z
x,-y,z
1/2+x,1/2+y,1/2+z
1/2-x,1/2-y,1/2+z
1/2+x,1/2-y,1/2-z
1/2-x,1/2+y,1/2-z
1/2-x,1/2-y,1/2-z
1/2+x,1/2+y,1/2-z
1/2-x,1/2+y,1/2+z
1/2+x,1/2-y,1/2+z
loop_
_atom_site_type_symbol
_atom_site_label
_atom_site_fract_x
_atom_site_fract_y
_atom_site_fract_z
Si Si1 0.710817 0.594010 0.949406
Si Si2 0.787859 0.213653 0.449753
Si Si3 0.291972 0.060101 0.122949
Si Si4 0.500000 0.561899 0.448488
Si Si5 0.714658 0.249199 0.852735
Si Si6 0.700548 0.346320 0.795878
Si Si7 0.203281 0.444135 0.852178
Si Si8 0.795375 0.645061 0.692118
O O1 0.500000 0.591341 0.947729
O O2 0.759198 0.653823 0.944518
O O3 0.780646 0.563820 0.906360
O O4 0.765518 0.576895 0.000000
O O5 0.728737 0.230812 0.500000
O O6 0.729828 0.243972 0.405186
O O7 0.000000 0.214984 0.450131
O O8 0.500000 0.066381 0.114132
O O9 0.172517 0.075638 0.080158
O O10 0.234292 0.094832 0.165524
O O11 0.263252 0.000000 0.132079
O O12 0.500000 0.500000 0.450893
O O13 0.500000 0.581689 0.500000
O O14 0.500000 0.250174 0.852852
O O15 0.774923 0.298131 0.823504
O O16 0.777058 0.197186 0.829490
O O17 0.500000 0.333813 0.787427
O O18 0.711644 0.396483 0.826968
O O19 0.776719 0.356010 0.746216
O O20 0.274737 0.500000 0.840046
O O21 0.000000 0.442895 0.839743
O O22 0.000000 0.647089 0.682446
#
# Coordination Sequence:
#
# PCOD9523025 Si02
#       8
#    16  16  16   8  16  16  16  16
#     4   9  17  32  56  81 105 139 183 230 278 330
#     4   8  13  25  50  80 107 138 176 220 271 324
#     4   9  19  36  58  85 119 158 197 238 287 347
#     4   9  18  34  60  90 120 156 194 236 284 342
#     4   9  17  32  54  82 113 143 182 232 282 336
#     4  11  22  37  58  81 106 143 191 239 286 340
#     4  11  24  39  54  76 110 148 185 233 290 343
#     4  10  21  36  56  83 115 148 186 232 287 342
#
# _framework density 20.339072999999999
#
# number of rings (size 3 to 8) (size 9 to 14) (size 15 to 20)
#    0.000    2.467    1.333    2.000    0.933    2.400 
#    0.000    5.333    0.000    2.400    0.000    0.000 
#    0.000    0.000    0.000    0.000    0.000    0.000 
#
# Total GULP energy -334748.214869 kJ/mol
# GULP energy per Si atom -5579.136914 kJ/mol
# Density = 2.029278 g / cm^3
# Si number density = 20.339073 Si / 1000 Ang^3
#
#
#
# Elastic Constant Matrix: (Units=GPa)
#
#
# Indices 1 2 3 4 5 6 
#
# 1 37.7208 16.5339 11.2139 0.0000 0.0000 0.0000
# 2 16.5339 97.9232 74.3872 0.0000 0.0000 0.0000
# 3 11.2139 74.3872 155.5700 0.0000 0.0000 0.0000
# 4 0.0000 0.0000 0.0000 2.1431 0.0000 0.0000
# 5 0.0000 0.0000 0.0000 0.0000 16.1139 0.0000
# 6 0.0000 0.0000 0.0000 0.0000 0.0000 487.3256
#
#
#
# Elastic Compliance Matrix: (Units=1/GPa)
#
#
# Indices 1 2 3 4 5 6 
#
# 1 0.028644 -0.005132 0.000389 0.000000 0.000000 0.000000
# 2 -0.005132 0.016957 -0.007738 0.000000 0.000000 0.000000
# 3 0.000389 -0.007738 0.010100 0.000000 0.000000 0.000000
# 4 0.000000 0.000000 0.000000 0.466618 0.000000 0.000000
# 5 0.000000 0.000000 0.000000 0.000000 0.062058 0.000000
# 6 0.000000 0.000000 0.000000 0.000000 0.000000 0.002052
#
#
# Mechanical properties :
#
#
# Convention : Reuss Voigt Hill
#
# Bulk Modulus (GPa) = 32.53181 55.05376 43.79279
# Shear Modulus (GPa) = 8.04327 113.72178 60.88252
#
# Velocity S-wave (km/s) = 1.99077 7.48561 5.47711
# Velocity P-wave (km/s) = 4.61668 10.09154 7.84707
#
# Compressibility (1/GPa) = 0.03073914
#
# Stress axis : x y z
#
# Youngs Moduli (GPa) = 34.91081 58.97299 99.00994
#
# Poissons Ratio (x) = 0.30266 -0.03854
# Poissons Ratio (y) = 0.17917 0.76616
# Poissons Ratio (z) = -0.01359 0.45634
#
# Static dielectric constant tensor:
#      x y z
#    x 1.788620 0.000000 0.000000 
#    y 0.000000 1.716930 0.000000 
#    z 0.000000 0.000000 1.701140 
# 
# From -- ./inp_files/63753.got.cif
#   From: 2010.05.17/outbox.cif.g08.bks.cpg/sg71_32_cif.got.tgz:63753.got - 2010.06.03 16:22:01.
