data_PCOD9523443
_publ_section_title
;
Structure prediction by ZEFSAII (Michael W. Deem and Ramdas Pophale) SiO2 
 PCOD9523443
Probable space group: I M M M
;
_chemical_formula_sum "Si O2"
_cell_formula_units_Z 58
_cell_length_a 7.651467
_cell_length_b 26.782195
_cell_length_c 15.030139
_cell_angle_alpha 90.000000
_cell_angle_beta 90.000000
_cell_angle_gamma 90.000000
_cell_volume 3080.022395
_symmetry_space_group_name_H-M "I M M M"
_symmetry_group_IT_number 71
_symmetry_cell_setting 'orthorhombic'
loop_
_space_group_symop_operation_xyz
x,y,z
-x,-y,z
x,-y,-z
-x,y,-z
-x,-y,-z
x,y,-z
-x,y,z
x,-y,z
1/2+x,1/2+y,1/2+z
1/2-x,1/2-y,1/2+z
1/2+x,1/2-y,1/2-z
1/2-x,1/2+y,1/2-z
1/2-x,1/2-y,1/2-z
1/2+x,1/2+y,1/2-z
1/2-x,1/2+y,1/2+z
1/2+x,1/2-y,1/2+z
loop_
_atom_site_type_symbol
_atom_site_label
_atom_site_fract_x
_atom_site_fract_y
_atom_site_fract_z
Si Si1 0.293429 0.799357 0.193181
Si Si2 0.714124 0.851140 0.500000
Si Si3 0.500000 0.500000 0.000000
Si Si4 0.288419 0.890689 0.691168
Si Si5 0.288315 0.000000 0.340584
Si Si6 0.795203 0.237509 0.000000
O O1 0.500000 0.804120 0.195820
O O2 0.250000 0.750000 0.250000
O O3 0.219740 0.848658 0.241424
O O4 0.246235 0.790866 0.090812
O O5 0.500000 0.851960 0.500000
O O6 0.771704 0.877840 0.409367
O O7 0.779212 0.793910 0.500000
O O8 0.656282 0.500000 0.923080
O O9 0.500000 0.886078 0.689253
O O10 0.252541 0.948352 0.710965
O O11 0.500000 0.000000 0.364524
O O12 0.000000 0.245667 0.000000
#
# Coordination Sequence:
#
# PCOD9523443 Si02
#       6
#    16   8   2  16   8   8
#     4  11  21  36  56  84 113 149 192 238 290 351
#     4   9  15  27  49  78 110 145 182 220 269 344
#     4  12  22  36  56  94 120 150 206 240 280 360
#     4   9  18  34  57  78 110 154 191 226 283 346
#     4  10  21  39  57  81 120 162 193 241 294 345
#     4  11  21  36  53  78 113 149 186 232 291 339
#
# _framework density 18.831032
#
# number of rings (size 3 to 8) (size 9 to 14) (size 15 to 20)
#    0.000    1.931    2.759    2.276    0.000    2.207 
#    4.966    0.000    0.000    0.828    0.000    5.793 
#    0.000    0.000    0.000    0.000    0.000    0.000 
#
# Total GULP energy -161494.161730 kJ/mol
# GULP energy per Si atom -5568.764198 kJ/mol
# Density = 1.878817 g / cm^3
# Si number density = 18.831032 Si / 1000 Ang^3
#
#
#
# Elastic Constant Matrix: (Units=GPa)
#
#
# Indices 1 2 3 4 5 6 
#
# 1 54.9108 10.6105 3.9381 0.0000 0.0000 0.0000
# 2 10.6105 190.6076 92.5046 0.0000 0.0000 0.0000
# 3 3.9381 92.5046 137.9471 0.0000 0.0000 0.0000
# 4 0.0000 0.0000 0.0000 -0.4382 0.0000 0.0000
# 5 0.0000 0.0000 0.0000 0.0000 22.1641 0.0000
# 6 0.0000 0.0000 0.0000 0.0000 0.0000 13.5858
#
#
#
# Elastic Compliance Matrix: (Units=1/GPa)
#
#
# Indices 1 2 3 4 5 6 
#
# 1 0.018415 -0.001141 0.000240 0.000000 0.000000 0.000000
# 2 -0.001141 0.007848 -0.005230 0.000000 0.000000 0.000000
# 3 0.000240 -0.005230 0.010750 -0.000001 0.000000 0.000000
# 4 0.000000 0.000000 -0.000001 -2.281875 0.000000 0.000000
# 5 0.000000 0.000000 0.000000 0.000000 0.045118 0.000000
# 6 0.000000 0.000000 0.000000 0.000000 0.000000 0.073606
#
#
# Mechanical properties :
#
#
# Convention : Reuss Voigt Hill
#
# Bulk Modulus (GPa) = 40.40628 66.39688 53.40158
# Shear Modulus (GPa) = -2.37459 25.48981 11.55761
#
# Velocity S-wave (km/s) = -1.12416 3.68313 2.48009
# Velocity P-wave (km/s) = 4.45184 7.30911 6.05153
#
# Compressibility (1/GPa) = 0.02474863
#
# Stress axis : x y z
#
# Youngs Moduli (GPa) = 54.30433 127.41667 93.02623
#
# Poissons Ratio (x) = 0.14544 -0.02230
# Poissons Ratio (y) = 0.06198 0.48656
# Poissons Ratio (z) = -0.01302 0.66643
#
# Static dielectric constant tensor:
#      x y z
#    x 1.724710 0.000000 0.000000 
#    y 0.000000 1.709340 0.000000 
#    z 0.000000 0.000000 1.617060 
# 
# From -- ./inp_files/31158.got.cif
#   From: 2010.05.17/outbox.cif.g08.bks.cpg/sg71_16_cif.got.tgz:31158.got - 2010.06.03 16:22:01.
