data_PCOD9523192
_publ_section_title
;
Structure prediction by ZEFSAII (Michael W. Deem and Ramdas Pophale) SiO2 
 PCOD9523192
Probable space group: I M M M
;
_chemical_formula_sum "Si O2"
_cell_formula_units_Z 72
_cell_length_a 8.111209
_cell_length_b 29.318416
_cell_length_c 14.037850
_cell_angle_alpha 90.000000
_cell_angle_beta 90.000000
_cell_angle_gamma 90.000000
_cell_volume 3338.310221
_symmetry_space_group_name_H-M "I M M M"
_symmetry_group_IT_number 71
_symmetry_cell_setting 'orthorhombic'
loop_
_space_group_symop_operation_xyz
x,y,z
-x,-y,z
x,-y,-z
-x,y,-z
-x,-y,-z
x,y,-z
-x,y,z
x,-y,z
1/2+x,1/2+y,1/2+z
1/2-x,1/2-y,1/2+z
1/2+x,1/2-y,1/2-z
1/2-x,1/2+y,1/2-z
1/2-x,1/2-y,1/2-z
1/2+x,1/2+y,1/2-z
1/2-x,1/2+y,1/2+z
1/2+x,1/2-y,1/2+z
loop_
_atom_site_type_symbol
_atom_site_label
_atom_site_fract_x
_atom_site_fract_y
_atom_site_fract_z
Si Si1 0.316491 0.799949 0.273250
Si Si2 0.685506 0.354137 0.612526
Si Si3 0.307704 0.950421 0.115946
Si Si4 0.000000 0.553080 0.116078
Si Si5 0.686402 0.384805 0.114729
O O1 0.500000 0.796664 0.313127
O O2 0.250000 0.750000 0.250000
O O3 0.312612 0.825221 0.171835
O O4 0.215608 0.834804 0.339919
O O5 0.713566 0.351420 0.500000
O O6 0.500000 0.337980 0.632715
O O7 0.703754 0.406661 0.643112
O O8 0.500000 0.944363 0.142458
O O9 0.250438 0.000000 0.149841
O O10 0.304107 0.951626 0.000000
O O11 0.164834 0.581131 0.144895
O O12 0.000000 0.500000 0.147372
O O13 0.000000 0.552244 0.000000
O O14 0.500000 0.400369 0.138400
O O15 0.696569 0.381280 0.000000
#
# Coordination Sequence:
#
# PCOD9523192 Si02
#       5
#    16  16  16   8  16
#     4  12  25  42  64  88 119 160 211 267 319 382
#     4  10  21  37  57  84 119 156 198 250 304 362
#     4   8  14  27  49  76 107 146 189 231 281 341
#     4   9  18  36  64  98 133 171 215 263 325 394
#     4  10  21  40  66  96 132 170 211 264 324 390
#
# _framework density 21.567799000000001
#
# number of rings (size 3 to 8) (size 9 to 14) (size 15 to 20)
#    0.000    2.111    1.111    3.333    0.000    3.111 
#    0.000    5.556    0.000    2.667    0.000    0.000 
#    0.000    0.000    0.000    0.000    0.000    0.000 
#
# Total GULP energy -201054.054413 kJ/mol
# GULP energy per Si atom -5584.834845 kJ/mol
# Density = 2.151871 g / cm^3
# Si number density = 21.567799 Si / 1000 Ang^3
#
#
#
# Elastic Constant Matrix: (Units=GPa)
#
#
# Indices 1 2 3 4 5 6 
#
# 1 128.3425 62.2662 27.7056 0.0000 0.0000 0.0000
# 2 62.2662 146.4629 20.3639 0.0000 0.0000 0.0000
# 3 27.7056 20.3639 61.7065 0.0000 0.0000 0.0000
# 4 0.0000 0.0000 0.0000 28.2162 0.0000 0.0000
# 5 0.0000 0.0000 0.0000 0.0000 24.4335 0.0000
# 6 0.0000 0.0000 0.0000 0.0000 0.0000 32.6698
#
#
#
# Elastic Compliance Matrix: (Units=1/GPa)
#
#
# Indices 1 2 3 4 5 6 
#
# 1 0.010448 -0.003972 -0.003380 0.000000 0.000000 0.000000
# 2 -0.003972 0.008666 -0.001076 0.000000 0.000000 0.000000
# 3 -0.003380 -0.001076 0.018079 0.000000 0.000000 0.000000
# 4 0.000000 0.000000 0.000000 0.035441 0.000000 0.000000
# 5 0.000000 0.000000 0.000000 0.000000 0.040927 0.000000
# 6 0.000000 0.000000 0.000000 0.000000 0.000000 0.030609
#
#
# Mechanical properties :
#
#
# Convention : Reuss Voigt Hill
#
# Bulk Modulus (GPa) = 49.17540 61.90925 55.54232
# Shear Modulus (GPa) = 29.79617 32.14232 30.96924
#
# Velocity S-wave (km/s) = 3.72090 3.86462 3.79344
# Velocity P-wave (km/s) = 6.42729 6.97714 6.70785
#
# Compressibility (1/GPa) = 0.02033537
#
# Stress axis : x y z
#
# Youngs Moduli (GPa) = 95.70824 115.39410 55.31343
#
# Poissons Ratio (x) = 0.45834 0.18698
# Poissons Ratio (y) = 0.38015 0.05954
# Poissons Ratio (z) = 0.32354 0.12422
#
# Static dielectric constant tensor:
#      x y z
#    x 1.784780 0.000000 0.000000 
#    y 0.000000 1.709320 0.000000 
#    z 0.000000 0.000000 1.824010 
# 
# From -- ./inp_files/31445.got.cif
#   From: 2010.05.17/outbox.cif.g08.bks.cpg/sg71_16_cif.got.tgz:31445.got - 2010.06.03 16:22:01.
