data_PCOD9523624
_publ_section_title
;
Structure prediction by ZEFSAII (Michael W. Deem and Ramdas Pophale) SiO2 
 PCOD9523624
Probable space group: I M M M
;
_chemical_formula_sum "Si O2"
_cell_formula_units_Z 58
_cell_length_a 19.942211
_cell_length_b 17.137442
_cell_length_c 7.743943
_cell_angle_alpha 90.000000
_cell_angle_beta 90.000000
_cell_angle_gamma 90.000000
_cell_volume 2646.558223
_symmetry_space_group_name_H-M "I M M M"
_symmetry_group_IT_number 71
_symmetry_cell_setting 'orthorhombic'
loop_
_space_group_symop_operation_xyz
x,y,z
-x,-y,z
x,-y,-z
-x,y,-z
-x,-y,-z
x,y,-z
-x,y,z
x,-y,z
1/2+x,1/2+y,1/2+z
1/2-x,1/2-y,1/2+z
1/2+x,1/2-y,1/2-z
1/2-x,1/2+y,1/2-z
1/2-x,1/2-y,1/2-z
1/2+x,1/2+y,1/2-z
1/2-x,1/2+y,1/2+z
1/2+x,1/2-y,1/2+z
loop_
_atom_site_type_symbol
_atom_site_label
_atom_site_fract_x
_atom_site_fract_y
_atom_site_fract_z
Si Si1 0.179402 0.589815 0.710528
Si Si2 0.576006 0.788817 0.207901
Si Si3 0.500000 0.500000 0.500000
Si Si4 0.394674 0.500000 0.812095
Si Si5 0.819191 0.847778 0.206548
O O1 0.179152 0.587659 0.500000
O O2 0.188219 0.500000 0.768171
O O3 0.110137 0.630203 0.766340
O O4 0.241010 0.647379 0.760525
O O5 0.500000 0.774913 0.273314
O O6 0.630458 0.722430 0.251176
O O7 0.571796 0.790700 0.000000
O O8 0.443271 0.500000 0.651118
O O9 0.350132 0.423636 0.793681
O O10 0.427003 0.500000 0.000000
O O11 0.820061 0.856696 0.000000
#
# Coordination Sequence:
#
# PCOD9523624 Si02
#       5
#    16  16   2   8  16
#     4   9  18  36  63  88 119 162 213 275 335 391
#     4  10  22  37  57  90 125 162 212 269 333 402
#     4  12  26  44  60  98 140 176 218 260 344 386
#     4  12  25  41  65  96 132 176 223 268 319 393
#     4  11  21  39  62  88 124 168 217 266 326 388
#
# _framework density 21.915255999999999
#
# number of rings (size 3 to 8) (size 9 to 14) (size 15 to 20)
#    0.000    1.655    2.759    1.862    1.931    1.103 
#    0.000    4.138    0.000    0.000    0.000    1.931 
#    0.000    0.000    0.000    0.000    0.000    0.000 
#
# Total GULP energy -161580.818302 kJ/mol
# GULP energy per Si atom -5571.752355 kJ/mol
# Density = 2.186538 g / cm^3
# Si number density = 21.915256 Si / 1000 Ang^3
#
#
#
# Elastic Constant Matrix: (Units=GPa)
#
#
# Indices 1 2 3 4 5 6 
#
# 1 161.3895 92.3152 30.6527 0.0000 0.0000 0.0000
# 2 92.3152 118.2816 -7.6851 0.0000 0.0000 0.0000
# 3 30.6527 -7.6851 86.3175 0.0000 0.0000 0.0000
# 4 0.0000 0.0000 0.0000 14.8994 0.0000 0.0000
# 5 0.0000 0.0000 0.0000 0.0000 19.9207 0.0000
# 6 0.0000 0.0000 0.0000 0.0000 0.0000 21.6787
#
#
#
# Elastic Compliance Matrix: (Units=1/GPa)
#
#
# Indices 1 2 3 4 5 6 
#
# 1 0.013571 -0.010968 -0.005796 0.000000 0.000000 0.000000
# 2 -0.010968 0.017368 0.005441 0.000000 0.000000 0.000000
# 3 -0.005796 0.005441 0.014128 0.000000 0.000000 0.000000
# 4 0.000000 0.000000 0.000000 0.067117 0.000000 0.000000
# 5 0.000000 0.000000 0.000000 0.000000 0.050199 0.000000
# 6 0.000000 0.000000 0.000000 0.000000 0.000000 0.046128
#
#
# Mechanical properties :
#
#
# Convention : Reuss Voigt Hill
#
# Bulk Modulus (GPa) = 44.59980 66.28379 55.44180
# Shear Modulus (GPa) = 20.95296 28.01348 24.48322
#
# Velocity S-wave (km/s) = 3.09543 3.57916 3.34605
# Velocity P-wave (km/s) = 5.75941 6.88416 6.34675
#
# Compressibility (1/GPa) = 0.02242162
#
# Stress axis : x y z
#
# Youngs Moduli (GPa) = 73.68787 57.57641 70.78281
#
# Poissons Ratio (x) = 0.63151 0.41024
# Poissons Ratio (y) = 0.80822 -0.38515
# Poissons Ratio (z) = 0.42707 -0.31329
#
# Static dielectric constant tensor:
#      x y z
#    x 1.813200 0.000000 0.000000 
#    y 0.000000 1.788740 0.000000 
#    z 0.000000 0.000000 1.796470 
# 
# From -- ./inp_files/7254.got.cif
#   From: 2010.05.17/outbox.cif.g08.bks.cpg/sg71_4_cif.got.tgz:7254.got - 2010.06.03 16:22:01.
