data_PCOD9523326
_publ_section_title
;
Structure prediction by ZEFSAII (Michael W. Deem and Ramdas Pophale) SiO2 
 PCOD9523326
Probable space group: I M M M
;
_chemical_formula_sum "Si O2"
_cell_formula_units_Z 88
_cell_length_a 16.566266
_cell_length_b 18.563438
_cell_length_c 15.650356
_cell_angle_alpha 90.000000
_cell_angle_beta 90.000000
_cell_angle_gamma 90.000000
_cell_volume 4812.904710
_symmetry_space_group_name_H-M "I M M M"
_symmetry_group_IT_number 71
_symmetry_cell_setting 'orthorhombic'
loop_
_space_group_symop_operation_xyz
x,y,z
-x,-y,z
x,-y,-z
-x,y,-z
-x,-y,-z
x,y,-z
-x,y,z
x,-y,z
1/2+x,1/2+y,1/2+z
1/2-x,1/2-y,1/2+z
1/2+x,1/2-y,1/2-z
1/2-x,1/2+y,1/2-z
1/2-x,1/2-y,1/2-z
1/2+x,1/2+y,1/2-z
1/2-x,1/2+y,1/2+z
1/2+x,1/2-y,1/2+z
loop_
_atom_site_type_symbol
_atom_site_label
_atom_site_fract_x
_atom_site_fract_y
_atom_site_fract_z
Si Si1 0.174435 0.915551 0.901623
Si Si2 0.202497 0.690001 0.308402
Si Si3 0.403552 0.085624 0.500000
Si Si4 0.902945 0.802014 0.401786
Si Si5 0.905308 0.922187 0.728600
Si Si6 0.402272 0.913233 0.688213
O O1 0.239171 0.859360 0.865792
O O2 0.105845 0.908416 0.829106
O O3 0.201169 0.000000 0.898612
O O4 0.151747 0.900851 0.000000
O O5 0.250000 0.750000 0.250000
O O6 0.142473 0.731215 0.371901
O O7 0.149314 0.635458 0.251450
O O8 0.500000 0.096162 0.500000
O O9 0.375786 0.111126 0.407577
O O10 0.390019 0.000000 0.500000
O O11 0.885965 0.820928 0.500000
O O12 0.873201 0.862589 0.335303
O O13 0.000000 0.793692 0.393410
O O14 0.000000 0.925859 0.710996
O O15 0.867426 0.000000 0.710288
O O16 0.500000 0.902777 0.696828
O O17 0.388834 0.000000 0.697599
#
# Coordination Sequence:
#
# PCOD9523326 Si02
#       6
#    16  16   8  16  16  16
#     4  10  21  38  58  79 108 146 185 227 276 327
#     4  12  22  36  52  80 113 148 180 229 280 336
#     4   7  12  28  54  82 106 128 164 219 272 316
#     4  10  21  38  58  79 108 146 185 227 276 327
#     4   9  18  35  58  82 106 137 182 225 266 328
#     4   9  18  35  59  82 107 144 189 230 272 328
#
# _framework density 18.284177
#
# number of rings (size 3 to 8) (size 9 to 14) (size 15 to 20)
#    0.000    2.273    1.818    2.727    0.000    0.727 
#    3.273    3.636    0.000    0.000    0.000    7.636 
#    0.000    0.000    0.000    0.000    0.000    0.000 
#
# Total GULP energy -244936.828881 kJ/mol
# GULP energy per Si atom -5566.746111 kJ/mol
# Density = 1.824256 g / cm^3
# Si number density = 18.284177 Si / 1000 Ang^3
#
#
#
# Elastic Constant Matrix: (Units=GPa)
#
#
# Indices 1 2 3 4 5 6 
#
# 1 21.9026 24.7324 11.3914 0.0000 0.0000 0.0000
# 2 24.7324 67.1759 37.4334 0.0000 0.0000 0.0000
# 3 11.3914 37.4334 85.6607 0.0000 0.0000 0.0000
# 4 0.0000 0.0000 0.0000 29.4062 0.0000 0.0000
# 5 0.0000 0.0000 0.0000 0.0000 25.0411 0.0000
# 6 0.0000 0.0000 0.0000 0.0000 0.0000 27.7432
#
#
#
# Elastic Compliance Matrix: (Units=1/GPa)
#
#
# Indices 1 2 3 4 5 6 
#
# 1 0.078687 -0.030588 0.002903 0.000000 0.000000 0.000000
# 2 -0.030588 0.031569 -0.009728 0.000000 0.000000 0.000000
# 3 0.002903 -0.009728 0.015539 0.000000 0.000000 0.000000
# 4 0.000000 0.000000 0.000000 0.034006 0.000000 0.000000
# 5 0.000000 0.000000 0.000000 0.000000 0.039934 0.000000
# 6 0.000000 0.000000 0.000000 0.000000 0.000000 0.036045
#
#
# Mechanical properties :
#
#
# Convention : Reuss Voigt Hill
#
# Bulk Modulus (GPa) = 19.61986 35.76150 27.69068
# Shear Modulus (GPa) = 15.26269 23.18354 19.22312
#
# Velocity S-wave (km/s) = 2.89234 3.56470 3.24597
# Velocity P-wave (km/s) = 4.68059 6.04516 5.40610
#
# Compressibility (1/GPa) = 0.05096877
#
# Stress axis : x y z
#
# Youngs Moduli (GPa) = 12.70856 31.67689 64.35454
#
# Poissons Ratio (x) = 0.96894 -0.18681
# Poissons Ratio (y) = 0.38873 0.62602
# Poissons Ratio (z) = -0.03689 0.30814
#
# Static dielectric constant tensor:
#      x y z
#    x 1.643020 0.000000 0.000000 
#    y 0.000000 1.656720 0.000000 
#    z 0.000000 0.000000 1.634700 
# 
# From -- ./inp_files/23968.got.cif
#   From: 2010.05.17/outbox.cif.g08.bks.cpg/sg71_12_cif.got.tgz:23968.got - 2010.06.03 16:22:01.
