data_PCOD9523207
_publ_section_title
;
Structure prediction by ZEFSAII (Michael W. Deem and Ramdas Pophale) SiO2 
 PCOD9523207
Probable space group: I M M M
;
_chemical_formula_sum "Si O2"
_cell_formula_units_Z 80
_cell_length_a 18.906612
_cell_length_b 26.128520
_cell_length_c 8.560722
_cell_angle_alpha 90.000000
_cell_angle_beta 90.000000
_cell_angle_gamma 90.000000
_cell_volume 4229.011990
_symmetry_space_group_name_H-M "I M M M"
_symmetry_group_IT_number 71
_symmetry_cell_setting 'orthorhombic'
loop_
_space_group_symop_operation_xyz
x,y,z
-x,-y,z
x,-y,-z
-x,y,-z
-x,-y,-z
x,y,-z
-x,y,z
x,-y,z
1/2+x,1/2+y,1/2+z
1/2-x,1/2-y,1/2+z
1/2+x,1/2-y,1/2-z
1/2-x,1/2+y,1/2-z
1/2-x,1/2-y,1/2-z
1/2+x,1/2+y,1/2-z
1/2-x,1/2+y,1/2+z
1/2+x,1/2-y,1/2+z
loop_
_atom_site_type_symbol
_atom_site_label
_atom_site_fract_x
_atom_site_fract_y
_atom_site_fract_z
Si Si1 0.821067 0.441428 0.811266
Si Si2 0.581203 0.345901 0.813144
Si Si3 0.329498 0.251213 0.312891
Si Si4 0.418833 0.152072 0.690627
Si Si5 0.164100 0.941111 0.813068
O O1 0.839400 0.500000 0.768081
O O2 0.878460 0.399636 0.761367
O O3 0.744071 0.429429 0.741767
O O4 0.815555 0.439306 0.000000
O O5 0.500000 0.339350 0.761638
O O6 0.630142 0.301842 0.742106
O O7 0.611196 0.400657 0.761360
O O8 0.583888 0.342287 0.000000
O O9 0.327089 0.250323 0.500000
O O10 0.250000 0.250000 0.250000
O O11 0.373848 0.201448 0.259413
O O12 0.419969 0.152342 0.500000
O O13 0.500000 0.154228 0.743881
O O14 0.149149 0.000000 0.767060
O O15 0.160548 0.937582 0.000000
#
# Coordination Sequence:
#
# PCOD9523207 Si02
#       5
#    16  16  16  16  16
#     4   9  17  31  54  82 111 144 182 225 271 322
#     4  11  24  40  58  82 113 147 185 232 285 339
#     4  11  22  37  59  83 110 147 190 235 282 335
#     4   9  18  32  51  78 110 142 179 224 273 323
#     4  10  21  37  58  83 111 145 185 228 275 333
#
# _framework density 18.916947
#
# number of rings (size 3 to 8) (size 9 to 14) (size 15 to 20)
#    0.000    2.000    0.000    3.600    0.000    6.000 
#    0.000    5.000    0.000    3.000    0.000    2.800 
#    0.000    0.000    0.000    0.000    0.000    0.000 
#
# Total GULP energy -223465.754029 kJ/mol
# GULP energy per Si atom -5586.643851 kJ/mol
# Density = 1.887389 g / cm^3
# Si number density = 18.916947 Si / 1000 Ang^3
#
#
#
# Elastic Constant Matrix: (Units=GPa)
#
#
# Indices 1 2 3 4 5 6 
#
# 1 177.8395 102.8371 38.1950 0.0000 0.0000 0.0000
# 2 102.8371 116.0538 29.7647 0.0000 0.0000 0.0000
# 3 38.1950 29.7647 29.4227 0.0000 0.0000 0.0000
# 4 0.0000 0.0000 0.0000 16.2845 0.0000 0.0000
# 5 0.0000 0.0000 0.0000 0.0000 21.8274 0.0000
# 6 0.0000 0.0000 0.0000 0.0000 0.0000 -8.2498
#
#
#
# Elastic Compliance Matrix: (Units=1/GPa)
#
#
# Indices 1 2 3 4 5 6 
#
# 1 0.012453 -0.009302 -0.006756 0.000000 0.000000 0.000000
# 2 -0.009302 0.018584 -0.006725 0.000000 0.000000 0.000000
# 3 -0.006756 -0.006725 0.049560 0.000000 0.000000 0.000000
# 4 0.000000 0.000000 0.000000 0.061408 0.000000 0.000000
# 5 0.000000 0.000000 0.000000 0.000000 0.045814 0.000000
# 6 0.000000 0.000000 0.000000 0.000000 0.000000 -0.121215
#
#
# Mechanical properties :
#
#
# Convention : Reuss Voigt Hill
#
# Bulk Modulus (GPa) = 28.54505 73.87885 51.21195
# Shear Modulus (GPa) = 40.37264 16.14038 28.25651
#
# Velocity S-wave (km/s) = 4.62476 2.92417 3.86905
# Velocity P-wave (km/s) = 6.60608 7.10916 6.86223
#
# Compressibility (1/GPa) = 0.03503235
#
# Stress axis : x y z
#
# Youngs Moduli (GPa) = 80.30175 53.80911 20.17769
#
# Poissons Ratio (x) = 0.50054 0.13631
# Poissons Ratio (y) = 0.74698 0.13569
# Poissons Ratio (z) = 0.54248 0.36184
#
# Static dielectric constant tensor:
#      x y z
#    x 1.625580 0.000000 0.000000 
#    y 0.000000 1.646140 0.000000 
#    z 0.000000 0.000000 1.642770 
# 
# From -- ./inp_files/8314.got.cif
#   From: 2010.05.17/outbox.cif.g08.bks.cpg/sg71_5_cif.got.tgz:8314.got - 2010.06.03 16:22:01.
