data_PCOD9523363
_publ_section_title
;
Structure prediction by ZEFSAII (Michael W. Deem and Ramdas Pophale) SiO2 
 PCOD9523363
Probable space group: I M M M
;
_chemical_formula_sum "Si O2"
_cell_formula_units_Z 74
_cell_length_a 14.396679
_cell_length_b 30.083832
_cell_length_c 9.169172
_cell_angle_alpha 90.000000
_cell_angle_beta 90.000000
_cell_angle_gamma 90.000000
_cell_volume 3971.235075
_symmetry_space_group_name_H-M "I M M M"
_symmetry_group_IT_number 71
_symmetry_cell_setting 'orthorhombic'
loop_
_space_group_symop_operation_xyz
x,y,z
-x,-y,z
x,-y,-z
-x,y,-z
-x,-y,-z
x,y,-z
-x,y,z
x,-y,z
1/2+x,1/2+y,1/2+z
1/2-x,1/2-y,1/2+z
1/2+x,1/2-y,1/2-z
1/2-x,1/2+y,1/2-z
1/2-x,1/2-y,1/2-z
1/2+x,1/2+y,1/2-z
1/2-x,1/2+y,1/2+z
1/2+x,1/2-y,1/2+z
loop_
_atom_site_type_symbol
_atom_site_label
_atom_site_fract_x
_atom_site_fract_y
_atom_site_fract_z
Si Si1 0.000000 0.500000 0.000000
Si Si2 0.390490 0.171211 0.172895
Si Si3 0.388458 0.648722 0.169364
Si Si4 0.613170 0.738986 0.333822
Si Si5 0.807497 0.500000 0.838451
Si Si6 0.754564 0.589818 0.674302
O O1 0.082996 0.500000 0.124730
O O2 0.500000 0.163915 0.203058
O O3 0.358853 0.214715 0.260465
O O4 0.332219 0.127398 0.208394
O O5 0.381058 0.180079 0.000000
O O6 0.500000 0.645368 0.176925
O O7 0.361094 0.695911 0.240472
O O8 0.339533 0.610107 0.260160
O O9 0.360594 0.647082 0.000000
O O10 0.646495 0.735066 0.500000
O O11 0.500000 0.739588 0.336619
O O12 0.780119 0.543853 0.750541
O O13 0.761544 0.500000 0.000000
O O14 0.749254 0.585026 0.500000
#
# Coordination Sequence:
#
# PCOD9523363 Si02
#       6
#     2  16  16  16   8  16
#     4   8  24  44  70  92 118 168 186 232 288 352
#     4   9  19  34  53  80 116 154 192 236 290 350
#     4  10  21  38  60  84 115 157 200 242 296 353
#     4   9  17  31  52  81 114 152 196 244 289 343
#     4  10  23  43  64  90 120 152 193 231 286 346
#     4  11  23  39  61  89 118 152 195 249 297 349
#
# _framework density 18.634001000000001
#
# number of rings (size 3 to 8) (size 9 to 14) (size 15 to 20)
#    0.324    1.946    0.000    2.270    1.514    6.486 
#    0.000    1.081    0.000    3.243    0.000    0.000 
#    0.000    0.000    0.000    0.000    0.000    0.000 
#
# Total GULP energy -206359.688089 kJ/mol
# GULP energy per Si atom -5577.288867 kJ/mol
# Density = 1.859159 g / cm^3
# Si number density = 18.634001 Si / 1000 Ang^3
#
#
#
# Elastic Constant Matrix: (Units=GPa)
#
#
# Indices 1 2 3 4 5 6 
#
# 1 58.1252 45.8843 43.2221 -0.0003 0.0002 0.0001
# 2 45.8843 167.1421 96.4901 0.0001 -0.0001 0.0000
# 3 43.2221 96.4901 123.2815 -0.0062 0.0042 -0.0001
# 4 -0.0003 0.0001 -0.0062 35.0393 0.0013 -0.0001
# 5 0.0002 -0.0001 0.0042 0.0013 18.4723 -0.0004
# 6 0.0001 0.0000 -0.0001 -0.0001 -0.0004 16.3820
#
#
#
# Elastic Compliance Matrix: (Units=1/GPa)
#
#
# Indices 1 2 3 4 5 6 
#
# 1 0.024163 -0.003179 -0.005983 -0.000001 0.000001 0.000000
# 2 -0.003179 0.011333 -0.007755 -0.000001 0.000002 0.000000
# 3 -0.005983 -0.007755 0.016279 0.000003 -0.000004 0.000000
# 4 -0.000001 -0.000001 0.000003 0.028539 -0.000002 0.000000
# 5 0.000001 0.000002 -0.000004 -0.000002 0.054135 0.000001
# 6 0.000000 0.000000 0.000000 0.000000 0.000001 0.061043
#
#
# Mechanical properties :
#
#
# Convention : Reuss Voigt Hill
#
# Bulk Modulus (GPa) = 55.74287 79.97131 67.85709
# Shear Modulus (GPa) = 21.24880 24.84221 23.04550
#
# Velocity S-wave (km/s) = 3.38053 3.65521 3.52055
# Velocity P-wave (km/s) = 6.72435 7.79899 7.28152
#
# Compressibility (1/GPa) = 0.01793951
#
# Stress axis : x y z
#
# Youngs Moduli (GPa) = 41.38553 88.23921 61.42837
#
# Poissons Ratio (x) = 0.28054 0.36753
# Poissons Ratio (y) = 0.13158 0.47640
# Poissons Ratio (z) = 0.24761 0.68432
#
# Static dielectric constant tensor:
#      x y z
#    x 1.671350 0.000000 0.000000 
#    y 0.000000 1.598140 0.000000 
#    z 0.000000 0.000000 1.631680 
# 
# From -- ./inp_files/6131.got.cif
#   From: 2010.05.17/outbox.cif.g08.bks.cpg/sg71_4_cif.got.tgz:6131.got - 2010.06.03 16:22:01.
