data_PCOD9523456
_publ_section_title
;
Structure prediction by ZEFSAII (Michael W. Deem and Ramdas Pophale) SiO2 
 PCOD9523456
Probable space group: I M M M
;
_chemical_formula_sum "Si O2"
_cell_formula_units_Z 88
_cell_length_a 18.169885
_cell_length_b 8.917952
_cell_length_c 29.602754
_cell_angle_alpha 90.000000
_cell_angle_beta 90.000000
_cell_angle_gamma 90.000000
_cell_volume 4796.775856
_symmetry_space_group_name_H-M "I M M M"
_symmetry_group_IT_number 71
_symmetry_cell_setting 'orthorhombic'
loop_
_space_group_symop_operation_xyz
x,y,z
-x,-y,z
x,-y,-z
-x,y,-z
-x,-y,-z
x,y,-z
-x,y,z
x,-y,z
1/2+x,1/2+y,1/2+z
1/2-x,1/2-y,1/2+z
1/2+x,1/2-y,1/2-z
1/2-x,1/2+y,1/2-z
1/2-x,1/2-y,1/2-z
1/2+x,1/2+y,1/2-z
1/2-x,1/2+y,1/2+z
1/2+x,1/2-y,1/2+z
loop_
_atom_site_type_symbol
_atom_site_label
_atom_site_fract_x
_atom_site_fract_y
_atom_site_fract_z
Si Si1 0.585255 0.180971 0.886853
Si Si2 0.828556 0.179592 0.800188
Si Si3 0.500000 0.824560 0.446011
Si Si4 0.843760 0.679761 0.707567
Si Si5 0.142442 0.180367 0.901472
Si Si6 0.712537 0.679546 0.946642
O O1 0.500000 0.217075 0.894974
O O2 0.608936 0.225241 0.835878
O O3 0.640272 0.258116 0.921816
O O4 0.594206 0.000000 0.889958
O O5 0.864169 0.251104 0.755807
O O6 0.741770 0.221959 0.801099
O O7 0.861257 0.222555 0.848499
O O8 0.832073 0.000000 0.796036
O O9 0.500000 0.814456 0.500000
O O10 0.572272 0.745135 0.426904
O O11 0.500000 0.000000 0.433499
O O12 0.847321 0.500000 0.710980
O O13 0.216568 0.246163 0.923222
O O14 0.144806 0.000000 0.904300
O O15 0.716633 0.500000 0.941707
O O16 0.711684 0.714994 0.000000
#
# Coordination Sequence:
#
# PCOD9523456 Si02
#       6
#    16  16   8  16  16  16
#     4  10  21  39  61  85 117 156 201 249 293 347
#     4   9  18  33  56  85 115 147 188 238 287 341
#     4  11  25  43  61  87 123 157 195 245 300 355
#     4   9  17  33  55  83 116 149 189 236 288 343
#     4  11  22  40  64  89 119 154 197 244 291 351
#     4  11  24  40  60  87 118 152 194 245 299 356
#
# _framework density 18.345655000000001
#
# number of rings (size 3 to 8) (size 9 to 14) (size 15 to 20)
#    0.000    1.909    1.818    1.909    0.000    7.273 
#    1.636    1.818    0.000    0.000    0.000    0.000 
#    0.000    0.000    0.000    0.000    0.000    0.000 
#
# Total GULP energy -245718.146018 kJ/mol
# GULP energy per Si atom -5584.503319 kJ/mol
# Density = 1.830390 g / cm^3
# Si number density = 18.345655 Si / 1000 Ang^3
#
#
#
# Elastic Constant Matrix: (Units=GPa)
#
#
# Indices 1 2 3 4 5 6 
#
# 1 88.3535 36.1197 50.5047 0.0000 0.0000 0.0000
# 2 36.1197 44.2809 54.1333 0.0000 0.0000 0.0000
# 3 50.5047 54.1333 136.6620 0.0000 0.0000 0.0000
# 4 0.0000 0.0000 0.0000 37.5901 0.0000 0.0000
# 5 0.0000 0.0000 0.0000 0.0000 19.9345 0.0000
# 6 0.0000 0.0000 0.0000 0.0000 0.0000 23.0862
#
#
#
# Elastic Compliance Matrix: (Units=1/GPa)
#
#
# Indices 1 2 3 4 5 6 
#
# 1 0.017147 -0.012099 -0.001544 0.000000 0.000000 0.000000
# 2 -0.012099 0.052323 -0.016255 0.000000 0.000000 0.000000
# 3 -0.001544 -0.016255 0.014327 0.000000 0.000000 0.000000
# 4 0.000000 0.000000 0.000000 0.026603 0.000000 0.000000
# 5 0.000000 0.000000 0.000000 0.000000 0.050164 0.000000
# 6 0.000000 0.000000 0.000000 0.000000 0.000000 0.043316
#
#
# Mechanical properties :
#
#
# Convention : Reuss Voigt Hill
#
# Bulk Modulus (GPa) = 41.66408 61.20129 51.43268
# Shear Modulus (GPa) = 18.40429 24.69141 21.54785
#
# Velocity S-wave (km/s) = 3.17076 3.67263 3.43089
# Velocity P-wave (km/s) = 6.01372 7.17055 6.61747
#
# Compressibility (1/GPa) = 0.02400149
#
# Stress axis : x y z
#
# Youngs Moduli (GPa) = 58.31905 19.11198 69.79968
#
# Poissons Ratio (x) = 0.23123 0.10780
# Poissons Ratio (y) = 0.70559 1.13457
# Poissons Ratio (z) = 0.09007 0.31066
#
# Static dielectric constant tensor:
#      x y z
#    x 1.608930 0.000000 0.000000 
#    y 0.000000 1.615980 0.000000 
#    z 0.000000 0.000000 1.624290 
# 
# From -- ./inp_files/70380.got.cif
#   From: 2010.05.17/outbox.cif.g08.bks.cpg/sg71_36_cif.got.tgz:70380.got - 2010.06.03 16:22:01.
