data_PCOD9523521
_publ_section_title
;
Structure prediction by ZEFSAII (Michael W. Deem and Ramdas Pophale) SiO2 
 PCOD9523521
Probable space group: I M M M
;
_chemical_formula_sum "Si O2"
_cell_formula_units_Z 108
_cell_length_a 25.099473
_cell_length_b 15.395841
_cell_length_c 13.770896
_cell_angle_alpha 90.000000
_cell_angle_beta 90.000000
_cell_angle_gamma 90.000000
_cell_volume 5321.452852
_symmetry_space_group_name_H-M "I M M M"
_symmetry_group_IT_number 71
_symmetry_cell_setting 'orthorhombic'
loop_
_space_group_symop_operation_xyz
x,y,z
-x,-y,z
x,-y,-z
-x,y,-z
-x,-y,-z
x,y,-z
-x,y,z
x,-y,z
1/2+x,1/2+y,1/2+z
1/2-x,1/2-y,1/2+z
1/2+x,1/2-y,1/2-z
1/2-x,1/2+y,1/2-z
1/2-x,1/2-y,1/2-z
1/2+x,1/2+y,1/2-z
1/2-x,1/2+y,1/2+z
1/2+x,1/2-y,1/2+z
loop_
_atom_site_type_symbol
_atom_site_label
_atom_site_fract_x
_atom_site_fract_y
_atom_site_fract_z
Si Si1 0.889130 0.671359 0.613770
Si Si2 0.500000 0.102964 0.111273
Si Si3 0.000000 0.000000 0.655525
Si Si4 0.825041 0.600205 0.213488
Si Si5 0.296090 0.595168 0.251782
Si Si6 0.103354 0.879082 0.386225
Si Si7 0.151099 0.227461 0.885295
Si Si8 0.060739 0.096343 0.117444
O O1 0.882476 0.647319 0.500000
O O2 0.944458 0.633040 0.654572
O O3 0.842173 0.633022 0.679396
O O4 0.896046 0.774594 0.620068
O O5 0.500000 0.000000 0.107169
O O6 0.500000 0.138293 0.000000
O O7 0.951634 0.075348 0.647361
O O8 0.841406 0.500000 0.199413
O O9 0.761281 0.604851 0.202397
O O10 0.850088 0.672302 0.143249
O O11 0.295634 0.500000 0.301565
O O12 0.344800 0.595117 0.175951
O O13 0.304637 0.674131 0.326019
O O14 0.109597 0.901087 0.500000
O O15 0.097628 0.175544 0.854318
O O16 0.158153 0.217224 0.000000
O O17 0.000000 0.102459 0.151432
O O18 0.080292 0.000000 0.146769
O O19 0.059408 0.096074 0.000000
#
# Coordination Sequence:
#
# PCOD9523521 Si02
#       8
#    16   8   4  16  16  16  16  16
#     4  10  21  39  65  95 127 169 215 268 334 396
#     4   9  17  32  57  89 123 155 198 255 323 396
#     4  12  23  40  66 108 149 178 213 262 336 432
#     4  11  25  44  64  89 129 170 223 280 325 390
#     4  11  24  43  63  93 129 169 217 267 330 394
#     4  11  22  38  64  96 137 174 207 257 326 407
#     4  11  23  41  64  89 123 167 219 272 323 381
#     4   8  15  32  59  89 120 153 193 251 321 382
#
# _framework density 20.295210999999998
#
# number of rings (size 3 to 8) (size 9 to 14) (size 15 to 20)
#    0.000    1.704    2.222    2.889    0.000    4.444 
#    2.667    2.963    0.000    0.000    0.000    2.074 
#    0.000    0.000    0.000    0.000    0.000    0.000 
#
# Total GULP energy -300982.958628 kJ/mol
# GULP energy per Si atom -5573.758493 kJ/mol
# Density = 2.024902 g / cm^3
# Si number density = 20.295211 Si / 1000 Ang^3
#
#
#
# Elastic Constant Matrix: (Units=GPa)
#
#
# Indices 1 2 3 4 5 6 
#
# 1 122.0805 46.8937 25.0634 0.0000 0.0000 0.0000
# 2 46.8937 163.6226 26.1061 0.0000 0.0000 0.0000
# 3 25.0634 26.1061 79.4481 0.0000 0.0000 0.0000
# 4 0.0000 0.0000 0.0000 21.3513 0.0000 0.0000
# 5 0.0000 0.0000 0.0000 0.0000 17.9041 0.0000
# 6 0.0000 0.0000 0.0000 0.0000 0.0000 33.3717
#
#
#
# Elastic Compliance Matrix: (Units=1/GPa)
#
#
# Indices 1 2 3 4 5 6 
#
# 1 0.009566 -0.002385 -0.002234 0.000000 0.000000 0.000000
# 2 -0.002385 0.007044 -0.001562 0.000000 0.000000 0.000000
# 3 -0.002234 -0.001562 0.013805 0.000000 0.000000 0.000000
# 4 0.000000 0.000000 0.000000 0.046836 0.000000 0.000000
# 5 0.000000 0.000000 0.000000 0.000000 0.055853 0.000000
# 6 0.000000 0.000000 0.000000 0.000000 0.000000 0.029966
#
#
# Mechanical properties :
#
#
# Convention : Reuss Voigt Hill
#
# Bulk Modulus (GPa) = 55.39404 62.36418 58.87911
# Shear Modulus (GPa) = 27.55571 32.33128 29.94349
#
# Velocity S-wave (km/s) = 3.68876 3.99563 3.84526
# Velocity P-wave (km/s) = 6.74507 7.21679 6.98491
#
# Compressibility (1/GPa) = 0.01805248
#
# Stress axis : x y z
#
# Youngs Moduli (GPa) = 104.53494 141.95512 72.43765
#
# Poissons Ratio (x) = 0.33859 0.16183
# Poissons Ratio (y) = 0.24934 0.11317
# Poissons Ratio (z) = 0.23354 0.22178
#
# Static dielectric constant tensor:
#      x y z
#    x 1.731300 0.000000 0.000000 
#    y 0.000000 1.741270 0.000000 
#    z 0.000000 0.000000 1.773740 
# 
# From -- ./inp_files/39313.got.cif
#   From: 2010.05.17/outbox.cif.g08.bks.cpg/sg71_20_cif.got.tgz:39313.got - 2010.06.03 16:22:01.
