data_PCOD9523067
_publ_section_title
;
Structure prediction by ZEFSAII (Michael W. Deem and Ramdas Pophale) SiO2 
 PCOD9523067
Probable space group: I M M M
;
_chemical_formula_sum "Si O2"
_cell_formula_units_Z 84
_cell_length_a 12.373203
_cell_length_b 24.962477
_cell_length_c 13.474820
_cell_angle_alpha 90.000000
_cell_angle_beta 90.000000
_cell_angle_gamma 90.000000
_cell_volume 4161.910996
_symmetry_space_group_name_H-M "I M M M"
_symmetry_group_IT_number 71
_symmetry_cell_setting 'orthorhombic'
loop_
_space_group_symop_operation_xyz
x,y,z
-x,-y,z
x,-y,-z
-x,y,-z
-x,-y,-z
x,y,-z
-x,y,z
x,-y,z
1/2+x,1/2+y,1/2+z
1/2-x,1/2-y,1/2+z
1/2+x,1/2-y,1/2-z
1/2-x,1/2+y,1/2-z
1/2-x,1/2-y,1/2-z
1/2+x,1/2+y,1/2-z
1/2-x,1/2+y,1/2+z
1/2+x,1/2-y,1/2+z
loop_
_atom_site_type_symbol
_atom_site_label
_atom_site_fract_x
_atom_site_fract_y
_atom_site_fract_z
Si Si1 0.126249 0.092288 0.617777
Si Si2 0.232574 0.181998 0.119761
Si Si3 0.000000 0.221303 0.879417
Si Si4 0.880023 0.781235 0.380629
Si Si5 0.500000 0.847010 0.381500
Si Si6 0.676145 0.909608 0.742868
Si Si7 0.000000 0.500000 0.708607
O O1 0.141147 0.081500 0.500000
O O2 0.143530 0.156259 0.634845
O O3 0.219054 0.067068 0.685547
O O4 0.000000 0.080144 0.640915
O O5 0.296696 0.235831 0.149632
O O6 0.283816 0.130911 0.172262
O O7 0.109079 0.191672 0.151414
O O8 0.237087 0.176746 0.000000
O O9 0.000000 0.284264 0.856267
O O10 0.000000 0.219862 0.000000
O O11 0.884279 0.776658 0.500000
O O12 0.000000 0.769367 0.342002
O O13 0.500000 0.852660 0.500000
O O14 0.394882 0.875502 0.336026
O O15 0.595009 0.953536 0.785330
#
# Coordination Sequence:
#
# PCOD9523067 Si02
#       7
#    16  16   8  16   8  16   4
#     4   9  18  34  58  90 125 155 187 231 286 353
#     4  10  21  36  57  86 122 160 197 239 287 347
#     4   9  19  35  55  89 135 161 183 229 282 351
#     4   8  15  28  49  83 126 159 184 227 276 331
#     4  10  21  37  58  89 129 167 193 229 284 350
#     4  11  23  41  62  81 111 160 206 250 299 350
#     4  10  28  50  58  82 112 136 202 274 308 326
#
# _framework density 20.183035
#
# number of rings (size 3 to 8) (size 9 to 14) (size 15 to 20)
#    0.000    2.476    0.000    2.857    4.000    6.095 
#    0.000   10.000    0.000    1.143    0.000    2.000 
#    0.000    0.000    0.000    0.000    0.000    0.000 
#
# Total GULP energy -234130.465914 kJ/mol
# GULP energy per Si atom -5574.534903 kJ/mol
# Density = 2.013710 g / cm^3
# Si number density = 20.183035 Si / 1000 Ang^3
#
#
#
# Elastic Constant Matrix: (Units=GPa)
#
#
# Indices 1 2 3 4 5 6 
#
# 1 154.9585 42.1784 19.5011 0.0000 0.0000 0.0000
# 2 42.1784 68.5336 9.1226 0.0000 0.0000 0.0000
# 3 19.5011 9.1226 70.5961 0.0000 0.0000 0.0000
# 4 0.0000 0.0000 0.0000 -9.9875 0.0000 0.0000
# 5 0.0000 0.0000 0.0000 0.0000 27.4948 0.0000
# 6 0.0000 0.0000 0.0000 0.0000 0.0000 13.4553
#
#
#
# Elastic Compliance Matrix: (Units=1/GPa)
#
#
# Indices 1 2 3 4 5 6 
#
# 1 0.007923 -0.004665 -0.001586 0.000000 0.000000 0.000000
# 2 -0.004665 0.017593 -0.000985 0.000000 0.000000 0.000000
# 3 -0.001586 -0.000985 0.014730 0.000000 0.000000 0.000000
# 4 0.000000 0.000000 0.000000 -0.100125 0.000000 0.000000
# 5 0.000000 0.000000 0.000000 0.000000 0.036371 0.000000
# 6 0.000000 0.000000 0.000000 0.000000 0.000000 0.074320
#
#
# Mechanical properties :
#
#
# Convention : Reuss Voigt Hill
#
# Bulk Modulus (GPa) = 38.79641 48.41028 43.60334
# Shear Modulus (GPa) = 67.68201 21.07826 44.38014
#
# Velocity S-wave (km/s) = 5.79715 3.23515 4.69431
# Velocity P-wave (km/s) = 8.00458 6.16382 7.14373
#
# Compressibility (1/GPa) = 0.02577558
#
# Stress axis : x y z
#
# Youngs Moduli (GPa) = 126.22088 56.83951 67.88690
#
# Poissons Ratio (x) = 0.26515 0.10765
# Poissons Ratio (y) = 0.58880 0.06686
# Poissons Ratio (z) = 0.20015 0.05598
#
# Static dielectric constant tensor:
#      x y z
#    x 1.736070 0.000000 0.000000 
#    y 0.000000 1.661780 0.000000 
#    z 0.000000 0.000000 1.759110 
# 
# From -- ./inp_files/32780.got.cif
#   From: 2010.05.17/outbox.cif.g08.bks.cpg/sg71_17_cif.got.tgz:32780.got - 2010.06.03 16:22:01.
