data_PCOD9523344
_publ_section_title
;
Structure prediction by ZEFSAII (Michael W. Deem and Ramdas Pophale) SiO2 
 PCOD9523344
Probable space group: I M M M
;
_chemical_formula_sum "Si O2"
_cell_formula_units_Z 80
_cell_length_a 7.603208
_cell_length_b 15.209031
_cell_length_c 31.795858
_cell_angle_alpha 90.000000
_cell_angle_beta 90.000000
_cell_angle_gamma 90.000000
_cell_volume 3676.791182
_symmetry_space_group_name_H-M "I M M M"
_symmetry_group_IT_number 71
_symmetry_cell_setting 'orthorhombic'
loop_
_space_group_symop_operation_xyz
x,y,z
-x,-y,z
x,-y,-z
-x,y,-z
-x,-y,-z
x,y,-z
-x,y,z
x,-y,z
1/2+x,1/2+y,1/2+z
1/2-x,1/2-y,1/2+z
1/2+x,1/2-y,1/2-z
1/2-x,1/2+y,1/2-z
1/2-x,1/2-y,1/2-z
1/2+x,1/2+y,1/2-z
1/2-x,1/2+y,1/2+z
1/2+x,1/2-y,1/2+z
loop_
_atom_site_type_symbol
_atom_site_label
_atom_site_fract_x
_atom_site_fract_y
_atom_site_fract_z
Si Si1 0.705420 0.904758 0.941464
Si Si2 0.208999 0.266014 0.201221
Si Si3 0.213249 0.093832 0.155942
Si Si4 0.709328 0.399892 0.128687
Si Si5 0.284927 0.707709 0.953843
O O1 0.500000 0.905284 0.953420
O O2 0.719085 0.904836 0.891251
O O3 0.777621 0.809444 0.953778
O O4 0.781246 0.000000 0.954671
O O5 0.250000 0.250000 0.250000
O O6 0.281875 0.179215 0.178713
O O7 0.265546 0.349276 0.173045
O O8 0.000000 0.265991 0.197757
O O9 0.000000 0.097263 0.154554
O O10 0.262035 0.000000 0.175796
O O11 0.500000 0.405439 0.122563
O O12 0.778610 0.500000 0.129516
O O13 0.776053 0.343846 0.088101
O O14 0.500000 0.710290 0.951755
O O15 0.239231 0.669298 0.000000
#
# Coordination Sequence:
#
# PCOD9523344 Si02
#       5
#    16  16  16  16  16
#     4   9  16  27  48  77 107 140 177 220 272 329
#     4  11  23  38  59  85 113 145 183 229 283 346
#     4   9  18  33  53  76 103 136 172 213 266 327
#     4  10  21  38  59  82 113 153 196 243 291 336
#     4   9  17  30  51  81 115 149 189 237 287 340
#
# _framework density 21.758103999999999
#
# number of rings (size 3 to 8) (size 9 to 14) (size 15 to 20)
#    0.000    2.400    2.000    0.600    0.000    2.800 
#    0.000    6.000    0.000    2.400    0.000    4.200 
#    0.000    0.000    0.000    0.000    0.000    0.000 
#
# Total GULP energy -222939.584223 kJ/mol
# GULP energy per Si atom -5573.489606 kJ/mol
# Density = 2.170858 g / cm^3
# Si number density = 21.758104 Si / 1000 Ang^3
#
#
#
# Elastic Constant Matrix: (Units=GPa)
#
#
# Indices 1 2 3 4 5 6 
#
# 1 48.0072 11.7248 -4.8477 0.0000 0.0000 0.0000
# 2 11.7248 187.1257 100.7144 0.0000 0.0000 0.0000
# 3 -4.8477 100.7144 168.7898 0.0000 0.0000 0.0000
# 4 0.0000 0.0000 0.0000 -27.8655 0.0000 0.0000
# 5 0.0000 0.0000 0.0000 0.0000 146.9302 0.0000
# 6 0.0000 0.0000 0.0000 0.0000 0.0000 10.9629
#
#
#
# Elastic Compliance Matrix: (Units=1/GPa)
#
#
# Indices 1 2 3 4 5 6 
#
# 1 0.021652 -0.002491 0.002108 0.000000 0.000000 0.000000
# 2 -0.002491 0.008159 -0.004940 0.000000 0.000000 0.000000
# 3 0.002108 -0.004940 0.008933 0.000000 0.000000 0.000000
# 4 0.000000 0.000000 0.000000 -0.035887 0.000000 0.000000
# 5 0.000000 0.000000 0.000000 0.000000 0.006806 0.000000
# 6 0.000000 0.000000 0.000000 0.000000 0.000000 0.091216
#
#
# Mechanical properties :
#
#
# Convention : Reuss Voigt Hill
#
# Bulk Modulus (GPa) = 35.59050 68.78954 52.19002
# Shear Modulus (GPa) = 41.35989 45.76093 43.56041
#
# Velocity S-wave (km/s) = 4.36466 4.59101 4.47926
# Velocity P-wave (km/s) = 6.46476 7.73223 7.12673
#
# Compressibility (1/GPa) = 0.02809739
#
# Stress axis : x y z
#
# Youngs Moduli (GPa) = 46.18602 122.56720 111.94976
#
# Poissons Ratio (x) = 0.30537 -0.23604
# Poissons Ratio (y) = 0.11507 0.55301
# Poissons Ratio (z) = -0.09738 0.60546
#
# Static dielectric constant tensor:
#      x y z
#    x 1.840650 0.000000 0.000000 
#    y 0.000000 1.826720 0.000000 
#    z 0.000000 0.000000 1.467900 
# 
# From -- ./inp_files/64349.got.cif
#   From: 2010.05.17/outbox.cif.g08.bks.cpg/sg71_33_cif.got.tgz:64349.got - 2010.06.03 16:22:01.
