data_PCOD9523020
_publ_section_title
;
Structure prediction by ZEFSAII (Michael W. Deem and Ramdas Pophale) SiO2 
 PCOD9523020
Probable space group: I M M M
;
_chemical_formula_sum "Si O2"
_cell_formula_units_Z 104
_cell_length_a 22.033957
_cell_length_b 24.666678
_cell_length_c 9.091913
_cell_angle_alpha 90.000000
_cell_angle_beta 90.000000
_cell_angle_gamma 90.000000
_cell_volume 4941.495833
_symmetry_space_group_name_H-M "I M M M"
_symmetry_group_IT_number 71
_symmetry_cell_setting 'orthorhombic'
loop_
_space_group_symop_operation_xyz
x,y,z
-x,-y,z
x,-y,-z
-x,y,-z
-x,-y,-z
x,y,-z
-x,y,z
x,-y,z
1/2+x,1/2+y,1/2+z
1/2-x,1/2-y,1/2+z
1/2+x,1/2-y,1/2-z
1/2-x,1/2+y,1/2-z
1/2-x,1/2-y,1/2-z
1/2+x,1/2+y,1/2-z
1/2-x,1/2+y,1/2+z
1/2+x,1/2-y,1/2+z
loop_
_atom_site_type_symbol
_atom_site_label
_atom_site_fract_x
_atom_site_fract_y
_atom_site_fract_z
Si Si1 0.786097 0.936053 0.339957
Si Si2 0.123887 0.123937 0.827861
Si Si3 0.431509 0.087908 0.332629
Si Si4 0.000000 0.064571 0.820876
Si Si5 0.687409 0.727679 0.825039
Si Si6 0.567156 0.199529 0.829189
Si Si7 0.819253 0.562729 0.341149
O O1 0.805153 0.914450 0.500000
O O2 0.831897 0.925727 0.208126
O O3 0.722440 0.911807 0.284875
O O4 0.779970 0.000000 0.357751
O O5 0.159193 0.172642 0.745366
O O6 0.058725 0.100504 0.776262
O O7 0.119599 0.136953 0.000000
O O8 0.410459 0.079570 0.500000
O O9 0.500000 0.067598 0.322105
O O10 0.432278 0.150908 0.286887
O O11 0.387193 0.062651 0.214804
O O12 0.000000 0.000000 0.773242
O O13 0.000000 0.062424 0.000000
O O14 0.750000 0.750000 0.750000
O O15 0.628927 0.767329 0.808337
O O16 0.698729 0.721476 0.000000
O O17 0.500000 0.227423 0.812583
O O18 0.568117 0.179852 0.000000
O O19 0.811935 0.589540 0.500000
O O20 0.801162 0.500000 0.354786
#
# Coordination Sequence:
#
# PCOD9523020 Si02
#       7
#    16  16  16   8  16  16  16
#     4  10  21  38  60  87 119 156 200 250 306 368
#     4  11  23  40  65  95 129 170 213 260 318 383
#     4  10  21  36  56  83 113 149 192 242 300 358
#     4   9  20  40  67 101 139 179 223 271 326 397
#     4  11  25  43  64  92 128 168 214 269 328 391
#     4   9  20  40  64  86 113 155 205 256 309 373
#     4  10  21  36  56  82 113 152 196 243 297 361
#
# _framework density 21.046258999999999
#
# number of rings (size 3 to 8) (size 9 to 14) (size 15 to 20)
#    0.000    1.923    0.000    2.769    3.231    4.923 
#    0.000    2.692    0.000    2.769    0.000    0.000 
#    0.000    0.000    0.000    0.000    0.000    0.000 
#
# Total GULP energy -289526.268253 kJ/mol
# GULP energy per Si atom -5567.812851 kJ/mol
# Density = 2.099836 g / cm^3
# Si number density = 21.046259 Si / 1000 Ang^3
#
#
#
# Elastic Constant Matrix: (Units=GPa)
#
#
# Indices 1 2 3 4 5 6 
#
# 1 136.8445 43.8201 39.6895 0.0000 0.0000 0.0000
# 2 43.8201 63.8083 35.5694 0.0000 0.0000 0.0000
# 3 39.6895 35.5694 61.4157 0.0000 0.0000 0.0000
# 4 0.0000 0.0000 0.0000 22.0346 0.0000 0.0000
# 5 0.0000 0.0000 0.0000 0.0000 26.6410 0.0000
# 6 0.0000 0.0000 0.0000 0.0000 0.0000 30.1501
#
#
#
# Elastic Compliance Matrix: (Units=1/GPa)
#
#
# Indices 1 2 3 4 5 6 
#
# 1 0.009886 -0.004767 -0.003628 0.000000 0.000000 0.000000
# 2 -0.004767 0.025442 -0.011655 0.000000 0.000000 0.000000
# 3 -0.003628 -0.011655 0.025377 0.000000 0.000000 0.000000
# 4 0.000000 0.000000 0.000000 0.045383 0.000000 0.000000
# 5 0.000000 0.000000 0.000000 0.000000 0.037536 0.000000
# 6 0.000000 0.000000 0.000000 0.000000 0.000000 0.033167
#
#
# Mechanical properties :
#
#
# Convention : Reuss Voigt Hill
#
# Bulk Modulus (GPa) = 48.52867 55.58073 52.05470
# Shear Modulus (GPa) = 22.34535 25.29778 23.82156
#
# Velocity S-wave (km/s) = 3.26195 3.47076 3.36797
# Velocity P-wave (km/s) = 6.10698 6.52133 6.31755
#
# Compressibility (1/GPa) = 0.02060637
#
# Stress axis : x y z
#
# Youngs Moduli (GPa) = 101.15003 39.30463 39.40582
#
# Poissons Ratio (x) = 0.18736 0.14297
# Poissons Ratio (y) = 0.48217 0.45926
# Poissons Ratio (z) = 0.36699 0.45808
#
# Static dielectric constant tensor:
#      x y z
#    x 1.808010 0.000000 0.000000 
#    y 0.000000 1.835510 0.000000 
#    z 0.000000 0.000000 1.780120 
# 
# From -- ./inp_files/11144.got.cif
#   From: 2010.05.17/outbox.cif.g08.bks.cpg/sg71_6_cif.got.tgz:11144.got - 2010.06.03 16:22:01.
