data_PCOD9523819
_publ_section_title
;
Structure prediction by ZEFSAII (Michael W. Deem and Ramdas Pophale) SiO2 
 PCOD9523819
Probable space group: I M M M
;
_chemical_formula_sum "Si O2"
_cell_formula_units_Z 120
_cell_length_a 18.373907
_cell_length_b 18.416172
_cell_length_c 18.436120
_cell_angle_alpha 90.000000
_cell_angle_beta 90.000000
_cell_angle_gamma 90.000000
_cell_volume 6238.359560
_symmetry_space_group_name_H-M "I M M M"
_symmetry_group_IT_number 71
_symmetry_cell_setting 'orthorhombic'
loop_
_space_group_symop_operation_xyz
x,y,z
-x,-y,z
x,-y,-z
-x,y,-z
-x,-y,-z
x,y,-z
-x,y,z
x,-y,z
1/2+x,1/2+y,1/2+z
1/2-x,1/2-y,1/2+z
1/2+x,1/2-y,1/2-z
1/2-x,1/2+y,1/2-z
1/2-x,1/2-y,1/2-z
1/2+x,1/2+y,1/2-z
1/2-x,1/2+y,1/2+z
1/2+x,1/2-y,1/2+z
loop_
_atom_site_type_symbol
_atom_site_label
_atom_site_fract_x
_atom_site_fract_y
_atom_site_fract_z
Si Si1 0.582611 0.080636 0.194636
Si Si2 0.707748 0.414224 0.417878
Si Si3 0.911800 0.917781 0.500000
Si Si4 0.414157 0.320052 0.862492
Si Si5 0.084240 0.414937 0.087031
Si Si6 0.832245 0.160322 0.775255
Si Si7 0.320249 0.830338 0.696980
Si Si8 0.140918 0.327589 0.417734
O O1 0.500000 0.078942 0.219192
O O2 0.627306 0.135879 0.242479
O O3 0.587640 0.111870 0.114134
O O4 0.613742 0.000000 0.199149
O O5 0.676931 0.402650 0.500000
O O6 0.725348 0.500000 0.412954
O O7 0.664058 0.390162 0.346245
O O8 0.780013 0.364391 0.413335
O O9 0.891984 0.874943 0.426725
O O10 0.000000 0.920810 0.500000
O O11 0.883710 0.000000 0.500000
O O12 0.500000 0.303531 0.870743
O O13 0.397412 0.348035 0.781993
O O14 0.368283 0.246601 0.873845
O O15 0.092604 0.500000 0.108594
O O16 0.146376 0.366765 0.124790
O O17 0.000000 0.393751 0.105528
O O18 0.090098 0.411107 0.000000
O O19 0.760055 0.148450 0.725320
O O20 0.826820 0.243456 0.803453
O O21 0.123607 0.309377 0.500000
#
# Coordination Sequence:
#
# PCOD9523819 Si02
#       8
#    16  16   8  16  16  16  16  16
#     4  11  22  34  54  86 125 166 202 243 298 362
#     4  10  22  41  64  90 122 159 201 251 308 372
#     4   9  20  40  62  84 115 157 202 248 305 366
#     4  11  22  39  63  91 123 160 203 259 315 365
#     4   9  19  37  61  89 124 165 201 238 295 366
#     4  11  23  38  59  86 115 157 207 258 308 358
#     4  11  21  36  54  82 120 160 205 249 293 354
#     4  11  20  34  59  89 122 163 202 238 291 360
#
# _framework density 19.235824999999998
#
# number of rings (size 3 to 8) (size 9 to 14) (size 15 to 20)
#    0.000    1.533    3.333    2.800    0.000    4.800 
#    1.200    0.667    0.000    0.400    0.000    0.933 
#    0.000    0.000    0.000    0.000    0.000    0.000 
#
# Total GULP energy -334681.053535 kJ/mol
# GULP energy per Si atom -5578.017559 kJ/mol
# Density = 1.919204 g / cm^3
# Si number density = 19.235825 Si / 1000 Ang^3
#
#
#
# Elastic Constant Matrix: (Units=GPa)
#
#
# Indices 1 2 3 4 5 6 
#
# 1 26.1590 20.9477 19.7865 0.0000 0.0000 0.0000
# 2 20.9477 101.9499 50.8463 0.0000 0.0000 0.0000
# 3 19.7865 50.8463 122.2309 0.0000 0.0000 0.0000
# 4 0.0000 0.0000 0.0000 32.2431 0.0000 0.0000
# 5 0.0000 0.0000 0.0000 0.0000 26.4612 0.0000
# 6 0.0000 0.0000 0.0000 0.0000 0.0000 26.1487
#
#
#
# Elastic Compliance Matrix: (Units=1/GPa)
#
#
# Indices 1 2 3 4 5 6 
#
# 1 0.047723 -0.007511 -0.004601 0.000000 0.000000 0.000000
# 2 -0.007511 0.013559 -0.004424 0.000000 0.000000 0.000000
# 3 -0.004601 -0.004424 0.010766 0.000000 0.000000 0.000000
# 4 0.000000 0.000000 0.000000 0.031014 0.000000 0.000000
# 5 0.000000 0.000000 0.000000 0.000000 0.037791 0.000000
# 6 0.000000 0.000000 0.000000 0.000000 0.000000 0.038243
#
#
# Mechanical properties :
#
#
# Convention : Reuss Voigt Hill
#
# Bulk Modulus (GPa) = 25.65720 48.16676 36.91198
# Shear Modulus (GPa) = 22.20643 27.55453 24.88048
#
# Velocity S-wave (km/s) = 3.40138 3.78889 3.60035
# Velocity P-wave (km/s) = 5.36591 6.65097 6.04270
#
# Compressibility (1/GPa) = 0.03897541
#
# Stress axis : x y z
#
# Youngs Moduli (GPa) = 20.95447 73.75385 92.88108
#
# Poissons Ratio (x) = 0.55397 0.42732
# Poissons Ratio (y) = 0.15739 0.41094
# Poissons Ratio (z) = 0.09641 0.32631
#
# Static dielectric constant tensor:
#      x y z
#    x 1.678200 0.000000 0.000000 
#    y 0.000000 1.668980 0.000000 
#    z 0.000000 0.000000 1.734620 
# 
# From -- ./inp_files/54342.got.cif
#   From: 2010.05.17/outbox.cif.g08.bks.cpg/sg71_28_cif.got.tgz:54342.got - 2010.06.03 16:22:01.
