data_PCOD9523174
_publ_section_title
;
Structure prediction by ZEFSAII (Michael W. Deem and Ramdas Pophale) SiO2 
 PCOD9523174
Probable space group: I M M M
;
_chemical_formula_sum "Si O2"
_cell_formula_units_Z 88
_cell_length_a 9.120098
_cell_length_b 17.841642
_cell_length_c 30.665584
_cell_angle_alpha 90.000000
_cell_angle_beta 90.000000
_cell_angle_gamma 90.000000
_cell_volume 4989.827886
_symmetry_space_group_name_H-M "I M M M"
_symmetry_group_IT_number 71
_symmetry_cell_setting 'orthorhombic'
loop_
_space_group_symop_operation_xyz
x,y,z
-x,-y,z
x,-y,-z
-x,y,-z
-x,-y,-z
x,y,-z
-x,y,z
x,-y,z
1/2+x,1/2+y,1/2+z
1/2-x,1/2-y,1/2+z
1/2+x,1/2-y,1/2-z
1/2-x,1/2+y,1/2-z
1/2-x,1/2-y,1/2-z
1/2+x,1/2+y,1/2-z
1/2-x,1/2+y,1/2+z
1/2+x,1/2-y,1/2+z
loop_
_atom_site_type_symbol
_atom_site_label
_atom_site_fract_x
_atom_site_fract_y
_atom_site_fract_z
Si Si1 0.175381 0.410468 0.049958
Si Si2 0.827875 0.415507 0.325775
Si Si3 0.824429 0.234882 0.796385
Si Si4 0.336809 0.857507 0.920149
Si Si5 0.670735 0.307174 0.878313
Si Si6 0.672377 0.583881 0.500000
O O1 0.199913 0.500000 0.053834
O O2 0.257588 0.366225 0.088301
O O3 0.000000 0.397643 0.053593
O O4 0.218928 0.388604 0.000000
O O5 0.793819 0.500000 0.311219
O O6 0.725317 0.349781 0.308314
O O7 0.816782 0.409855 0.378107
O O8 0.000000 0.399158 0.315260
O O9 0.750000 0.250000 0.750000
O O10 0.758380 0.290510 0.833514
O O11 0.000000 0.241503 0.794894
O O12 0.500000 0.870011 0.937914
O O13 0.327369 0.773033 0.902692
O O14 0.222628 0.873606 0.957203
O O15 0.500000 0.325645 0.869156
O O16 0.737127 0.500000 0.500000
O O17 0.500000 0.578246 0.500000
#
# Coordination Sequence:
#
# PCOD9523174 Si02
#       6
#    16  16  16  16  16   8
#     4   9  19  36  57  83 116 152 189 232 287 347
#     4   9  18  35  58  82 108 139 177 221 270 325
#     4  11  22  38  60  84 113 146 183 229 283 337
#     4   9  19  34  51  72 101 139 178 215 259 311
#     4  10  21  37  57  82 110 142 186 231 276 332
#     4  11  23  33  43  67 102 137 176 221 261 298
#
# _framework density 17.635878000000002
#
# number of rings (size 3 to 8) (size 9 to 14) (size 15 to 20)
#    0.000    2.273    0.000    4.636    1.273    6.182 
#    0.000    1.818    0.000    5.455    0.000    0.000 
#    0.000    0.000    0.000    0.000    0.000    0.000 
#
# Total GULP energy -245370.171682 kJ/mol
# GULP energy per Si atom -5576.594811 kJ/mol
# Density = 1.759574 g / cm^3
# Si number density = 17.635878 Si / 1000 Ang^3
#
#
#
# Elastic Constant Matrix: (Units=GPa)
#
#
# Indices 1 2 3 4 5 6 
#
# 1 129.4743 47.3994 84.9668 0.0000 0.0000 0.0000
# 2 47.3994 63.5325 48.2326 0.0000 0.0000 0.0000
# 3 84.9668 48.2326 120.1440 0.0000 0.0000 0.0000
# 4 0.0000 0.0000 0.0000 17.4963 0.0000 0.0000
# 5 0.0000 0.0000 0.0000 0.0000 29.4405 0.0000
# 6 0.0000 0.0000 0.0000 0.0000 0.0000 28.1464
#
#
#
# Elastic Compliance Matrix: (Units=1/GPa)
#
#
# Indices 1 2 3 4 5 6 
#
# 1 0.015294 -0.004601 -0.008969 0.000000 0.000000 0.000000
# 2 -0.004601 0.024025 -0.006391 0.000000 0.000000 0.000000
# 3 -0.008969 -0.006391 0.017232 0.000000 0.000000 0.000000
# 4 0.000000 0.000000 0.000000 0.057155 0.000000 0.000000
# 5 0.000000 0.000000 0.000000 0.000000 0.033967 0.000000
# 6 0.000000 0.000000 0.000000 0.000000 0.000000 0.035529
#
#
# Mechanical properties :
#
#
# Convention : Reuss Voigt Hill
#
# Bulk Modulus (GPa) = 60.13742 74.92759 67.53250
# Shear Modulus (GPa) = 21.86616 23.85344 22.85980
#
# Velocity S-wave (km/s) = 3.52500 3.68170 3.60420
# Velocity P-wave (km/s) = 7.12327 7.78789 7.46298
#
# Compressibility (1/GPa) = 0.01662858
#
# Stress axis : x y z
#
# Youngs Moduli (GPa) = 65.38698 41.62409 58.03308
#
# Poissons Ratio (x) = 0.19152 0.52047
# Poissons Ratio (y) = 0.30086 0.37088
# Poissons Ratio (z) = 0.58642 0.26601
#
# Static dielectric constant tensor:
#      x y z
#    x 1.601700 0.000000 0.000000 
#    y 0.000000 1.600230 0.000000 
#    z 0.000000 0.000000 1.586870 
# 
# From -- ./inp_files/8754.got.cif
#   From: 2010.05.17/outbox.cif.g08.bks.cpg/sg71_5_cif.got.tgz:8754.got - 2010.06.03 16:22:01.
