data_PCOD9523916
_publ_section_title
;
Structure prediction by ZEFSAII (Michael W. Deem and Ramdas Pophale) SiO2 
 PCOD9523916
Probable space group: I M M M
;
_chemical_formula_sum "Si O2"
_cell_formula_units_Z 72
_cell_length_a 23.897629
_cell_length_b 17.929516
_cell_length_c 8.789031
_cell_angle_alpha 90.000000
_cell_angle_beta 90.000000
_cell_angle_gamma 90.000000
_cell_volume 3765.861790
_symmetry_space_group_name_H-M "I M M M"
_symmetry_group_IT_number 71
_symmetry_cell_setting 'orthorhombic'
loop_
_space_group_symop_operation_xyz
x,y,z
-x,-y,z
x,-y,-z
-x,y,-z
-x,-y,-z
x,y,-z
-x,y,z
x,-y,z
1/2+x,1/2+y,1/2+z
1/2-x,1/2-y,1/2+z
1/2+x,1/2-y,1/2-z
1/2-x,1/2+y,1/2-z
1/2-x,1/2-y,1/2-z
1/2+x,1/2+y,1/2-z
1/2-x,1/2+y,1/2+z
1/2+x,1/2-y,1/2+z
loop_
_atom_site_type_symbol
_atom_site_label
_atom_site_fract_x
_atom_site_fract_y
_atom_site_fract_z
Si Si1 0.872066 0.640620 0.681410
Si Si2 0.753936 0.666947 0.817499
Si Si3 0.066820 0.500000 0.177557
Si Si4 0.065643 0.783504 0.181918
Si Si5 0.862849 0.086825 0.683190
O O1 0.869500 0.641787 0.500000
O O2 0.810099 0.632061 0.749638
O O3 0.909425 0.572993 0.741419
O O4 0.898939 0.717697 0.740435
O O5 0.750000 0.750000 0.750000
O O6 0.698225 0.620592 0.778819
O O7 0.758051 0.671076 0.000000
O O8 0.000000 0.500000 0.184521
O O9 0.083654 0.500000 0.000000
O O10 0.091132 0.861602 0.237458
O O11 0.000000 0.776970 0.220846
O O12 0.071239 0.776778 0.000000
O O13 0.869280 0.092554 0.500000
O O14 0.866486 0.000000 0.725277
#
# Coordination Sequence:
#
# PCOD9523916 Si02
#       5
#    16  16   8  16  16
#     4  12  25  41  64  96 129 167 213 261 318 382
#     4  11  22  39  65  94 126 164 209 260 315 374
#     4  11  25  45  67  93 129 171 214 265 322 379
#     4  11  24  42  65  92 123 165 214 263 320 382
#     4  10  23  42  64  93 127 166 211 260 317 377
#
# _framework density 19.119129999999998
#
# number of rings (size 3 to 8) (size 9 to 14) (size 15 to 20)
#    0.000    1.000    2.222    4.333    1.556    7.111 
#    0.000    2.222    0.000    0.000    0.000    0.000 
#    0.000    0.000    0.000    0.000    0.000    0.000 
#
# Total GULP energy -201426.500513 kJ/mol
# GULP energy per Si atom -5595.180570 kJ/mol
# Density = 1.907561 g / cm^3
# Si number density = 19.119130 Si / 1000 Ang^3
#
#
#
# Elastic Constant Matrix: (Units=GPa)
#
#
# Indices 1 2 3 4 5 6 
#
# 1 72.4773 -3.0462 31.5090 0.0000 0.0000 0.0000
# 2 -3.0462 82.3332 17.7116 0.0000 0.0000 0.0000
# 3 31.5090 17.7116 71.4355 0.0000 0.0000 0.0000
# 4 0.0000 0.0000 0.0000 32.5092 0.0000 0.0000
# 5 0.0000 0.0000 0.0000 0.0000 32.9276 0.0000
# 6 0.0000 0.0000 0.0000 0.0000 0.0000 21.6469
#
#
#
# Elastic Compliance Matrix: (Units=1/GPa)
#
#
# Indices 1 2 3 4 5 6 
#
# 1 0.017523 0.002441 -0.008335 0.000000 0.000000 0.000000
# 2 0.002441 0.013170 -0.004342 0.000000 0.000000 0.000000
# 3 -0.008335 -0.004342 0.018752 0.000000 0.000000 0.000000
# 4 0.000000 0.000000 0.000000 0.030761 0.000000 0.000000
# 5 0.000000 0.000000 0.000000 0.000000 0.030370 0.000000
# 6 0.000000 0.000000 0.000000 0.000000 0.000000 0.046196
#
#
# Mechanical properties :
#
#
# Convention : Reuss Voigt Hill
#
# Bulk Modulus (GPa) = 34.51357 35.39942 34.95650
# Shear Modulus (GPa) = 26.75223 29.42152 28.08687
#
# Velocity S-wave (km/s) = 3.74470 3.92708 3.83697
# Velocity P-wave (km/s) = 6.06532 6.25443 6.16060
#
# Compressibility (1/GPa) = 0.02897411
#
# Stress axis : x y z
#
# Youngs Moduli (GPa) = 57.06643 75.92903 53.32904
#
# Poissons Ratio (x) = -0.18537 0.44448
# Poissons Ratio (y) = -0.13932 0.23157
# Poissons Ratio (z) = 0.47563 0.32970
#
# Static dielectric constant tensor:
#      x y z
#    x 1.652310 0.000000 0.000000 
#    y 0.000000 1.637360 0.000000 
#    z 0.000000 0.000000 1.640400 
# 
# From -- ./inp_files/12191.got.cif
#   From: 2010.05.17/outbox.cif.g08.bks.cpg/sg71_7_cif.got.tgz:12191.got - 2010.06.03 16:22:01.
