data_PCOD9523043
_publ_section_title
;
Structure prediction by ZEFSAII (Michael W. Deem and Ramdas Pophale) SiO2 
 PCOD9523043
Probable space group: I M M M
;
_chemical_formula_sum "Si O2"
_cell_formula_units_Z 64
_cell_length_a 29.943250
_cell_length_b 8.823758
_cell_length_c 12.924170
_cell_angle_alpha 90.000000
_cell_angle_beta 90.000000
_cell_angle_gamma 90.000000
_cell_volume 3414.720697
_symmetry_space_group_name_H-M "I M M M"
_symmetry_group_IT_number 71
_symmetry_cell_setting 'orthorhombic'
loop_
_space_group_symop_operation_xyz
x,y,z
-x,-y,z
x,-y,-z
-x,y,-z
-x,-y,-z
x,y,-z
-x,y,z
x,-y,z
1/2+x,1/2+y,1/2+z
1/2-x,1/2-y,1/2+z
1/2+x,1/2-y,1/2-z
1/2-x,1/2+y,1/2-z
1/2-x,1/2-y,1/2-z
1/2+x,1/2+y,1/2-z
1/2-x,1/2+y,1/2+z
1/2+x,1/2-y,1/2+z
loop_
_atom_site_type_symbol
_atom_site_label
_atom_site_fract_x
_atom_site_fract_y
_atom_site_fract_z
Si Si1 0.946273 0.676680 0.000000
Si Si2 0.500000 0.684321 0.878658
Si Si3 0.674178 0.820097 0.227721
Si Si4 0.920624 0.818337 0.777942
Si Si5 0.751877 0.173426 0.382694
O O1 0.930077 0.751643 0.107497
O O2 0.932816 0.500000 0.000000
O O3 0.000000 0.686130 0.000000
O O4 0.500000 0.500000 0.882520
O O5 0.457246 0.730032 0.808595
O O6 0.500000 0.735221 0.000000
O O7 0.627782 0.735949 0.240700
O O8 0.709660 0.772984 0.316565
O O9 0.703595 0.771607 0.129640
O O10 0.667080 0.000000 0.232672
O O11 0.922615 0.000000 0.785145
O O12 0.737460 0.171217 0.500000
O O13 0.762154 0.000000 0.349833
#
# Coordination Sequence:
#
# PCOD9523043 Si02
#       5
#     8   8  16  16  16
#     4  11  23  39  61  87 121 157 193 245 305 350
#     4   9  20  39  61  84 114 153 196 241 286 343
#     4  10  21  36  56  85 118 150 190 240 295 348
#     4  11  22  38  61  89 119 154 200 244 292 354
#     4   9  19  37  58  79 110 154 197 238 286 346
#
# _framework density 18.742381999999999
#
# number of rings (size 3 to 8) (size 9 to 14) (size 15 to 20)
#    0.000    2.000    1.250    1.875    1.750    3.000 
#    0.000    2.500    0.000    5.250    0.000    0.000 
#    0.000    0.000    0.000    0.000    0.000    0.000 
#
# Total GULP energy -178394.620371 kJ/mol
# GULP energy per Si atom -5574.831887 kJ/mol
# Density = 1.869972 g / cm^3
# Si number density = 18.742382 Si / 1000 Ang^3
#
#
#
# Elastic Constant Matrix: (Units=GPa)
#
#
# Indices 1 2 3 4 5 6 
#
# 1 140.5669 37.1173 52.3455 0.0000 0.0000 0.0000
# 2 37.1173 53.2905 24.5813 0.0000 0.0000 0.0000
# 3 52.3455 24.5813 113.2073 0.0000 0.0000 0.0000
# 4 0.0000 0.0000 0.0000 10.8407 0.0000 0.0000
# 5 0.0000 0.0000 0.0000 0.0000 9.1090 0.0000
# 6 0.0000 0.0000 0.0000 0.0000 0.0000 32.6605
#
#
#
# Elastic Compliance Matrix: (Units=1/GPa)
#
#
# Indices 1 2 3 4 5 6 
#
# 1 0.009753 -0.005237 -0.003372 0.000000 0.000000 0.000000
# 2 -0.005237 0.023666 -0.002717 0.000000 0.000000 0.000000
# 3 -0.003372 -0.002717 0.010983 0.000000 0.000000 0.000000
# 4 0.000000 0.000000 0.000000 0.092245 0.000000 0.000000
# 5 0.000000 0.000000 0.000000 0.000000 0.109782 0.000000
# 6 0.000000 0.000000 0.000000 0.000000 0.000000 0.030618
#
#
# Mechanical properties :
#
#
# Convention : Reuss Voigt Hill
#
# Bulk Modulus (GPa) = 45.98097 59.46142 52.72119
# Shear Modulus (GPa) = 16.28931 23.39008 19.83969
#
# Velocity S-wave (km/s) = 2.95128 3.53651 3.25706
# Velocity P-wave (km/s) = 6.01663 6.96206 6.50654
#
# Compressibility (1/GPa) = 0.02174813
#
# Stress axis : x y z
#
# Youngs Moduli (GPa) = 102.53435 42.25423 91.05266
#
# Poissons Ratio (x) = 0.22130 0.30706
# Poissons Ratio (y) = 0.53701 0.24740
# Poissons Ratio (z) = 0.34578 0.11481
#
# Static dielectric constant tensor:
#      x y z
#    x 1.622250 0.000000 0.000000 
#    y 0.000000 1.670600 0.000000 
#    z 0.000000 0.000000 1.679160 
# 
# From -- ./inp_files/14207.got.cif
#   From: 2010.05.17/outbox.cif.g08.bks.cpg/sg71_8_cif.got.tgz:14207.got - 2010.06.03 16:22:01.
