data_PCOD9523095
_publ_section_title
;
Structure prediction by ZEFSAII (Michael W. Deem and Ramdas Pophale) SiO2 
 PCOD9523095
Probable space group: I M M M
;
_chemical_formula_sum "Si O2"
_cell_formula_units_Z 120
_cell_length_a 17.537538
_cell_length_b 18.878592
_cell_length_c 18.188569
_cell_angle_alpha 90.000000
_cell_angle_beta 90.000000
_cell_angle_gamma 90.000000
_cell_volume 6021.944626
_symmetry_space_group_name_H-M "I M M M"
_symmetry_group_IT_number 71
_symmetry_cell_setting 'orthorhombic'
loop_
_space_group_symop_operation_xyz
x,y,z
-x,-y,z
x,-y,-z
-x,y,-z
-x,-y,-z
x,y,-z
-x,y,z
x,-y,z
1/2+x,1/2+y,1/2+z
1/2-x,1/2-y,1/2+z
1/2+x,1/2-y,1/2-z
1/2-x,1/2+y,1/2-z
1/2-x,1/2-y,1/2-z
1/2+x,1/2+y,1/2-z
1/2-x,1/2+y,1/2+z
1/2+x,1/2-y,1/2+z
loop_
_atom_site_type_symbol
_atom_site_label
_atom_site_fract_x
_atom_site_fract_y
_atom_site_fract_z
Si Si1 0.364358 0.919895 0.663977
Si Si2 0.796493 0.916147 0.582140
Si Si3 0.416175 0.214979 0.588501
Si Si4 0.160042 0.415419 0.661904
Si Si5 0.286857 0.321377 0.582150
Si Si6 0.910839 0.082661 0.131293
Si Si7 0.000000 0.414510 0.583972
Si Si8 0.587077 0.586439 0.201980
O O1 0.286550 0.913848 0.617419
O O2 0.415917 0.859008 0.630733
O O3 0.346109 0.909926 0.750040
O O4 0.394443 0.000000 0.655302
O O5 0.798919 0.885758 0.500000
O O6 0.855988 0.885473 0.640600
O O7 0.815311 0.000000 0.576090
O O8 0.411490 0.206363 0.500000
O O9 0.500000 0.249473 0.603300
O O10 0.337583 0.255076 0.610841
O O11 0.177026 0.500000 0.645463
O O12 0.222696 0.360927 0.630084
O O13 0.078029 0.396735 0.626345
O O14 0.257329 0.305782 0.500000
O O15 0.355458 0.377658 0.577865
O O16 0.895864 0.109321 0.214773
O O17 0.000000 0.090038 0.115364
O O18 0.893236 0.000000 0.130397
O O19 0.000000 0.500000 0.580604
O O20 0.000000 0.387657 0.500000
O O21 0.500000 0.604800 0.184725
O O22 0.591360 0.500000 0.203864
#
# Coordination Sequence:
#
# PCOD9523095 Si02
#       8
#    16  16  16  16  16  16   8  16
#     4  10  21  37  60  85 111 146 193 250 305 360
#     4   9  16  26  43  70 101 131 170 224 284 342
#     4  10  23  41  59  83 117 156 197 246 301 354
#     4  10  21  36  59  90 121 155 196 244 295 353
#     4  11  22  36  55  81 116 157 195 233 286 356
#     4   9  17  29  47  72 105 147 191 235 281 333
#     4   9  18  34  56  86 123 153 184 236 297 346
#     4   8  14  25  41  64  98 137 176 221 273 328
#
# _framework density 19.927119000000001
#
# number of rings (size 3 to 8) (size 9 to 14) (size 15 to 20)
#    0.000    2.467    0.000    3.200    0.933    6.400 
#    0.000    2.667    0.000    0.000    1.733    0.000 
#    0.000    0.000    0.000    0.000    0.000    0.000 
#
# Total GULP energy -334348.507188 kJ/mol
# GULP energy per Si atom -5572.475120 kJ/mol
# Density = 1.988176 g / cm^3
# Si number density = 19.927119 Si / 1000 Ang^3
#
#
#
# Elastic Constant Matrix: (Units=GPa)
#
#
# Indices 1 2 3 4 5 6 
#
# 1 68.8382 26.5974 35.0465 0.0000 0.0000 0.0000
# 2 26.5974 72.2892 23.9967 0.0000 0.0000 0.0000
# 3 35.0465 23.9967 48.0414 0.0000 0.0000 0.0000
# 4 0.0000 0.0000 0.0000 11.3576 0.0000 0.0000
# 5 0.0000 0.0000 0.0000 0.0000 31.1557 0.0000
# 6 0.0000 0.0000 0.0000 0.0000 0.0000 17.2236
#
#
#
# Elastic Compliance Matrix: (Units=1/GPa)
#
#
# Indices 1 2 3 4 5 6 
#
# 1 0.023866 -0.003598 -0.015613 0.000000 0.000000 0.000000
# 2 -0.003598 0.017125 -0.005929 0.000000 0.000000 0.000000
# 3 -0.015613 -0.005929 0.035167 0.000000 0.000000 0.000000
# 4 0.000000 0.000000 0.000000 0.088047 0.000000 0.000000
# 5 0.000000 0.000000 0.000000 0.000000 0.032097 0.000000
# 6 0.000000 0.000000 0.000000 0.000000 0.000000 0.058060
#
#
# Mechanical properties :
#
#
# Convention : Reuss Voigt Hill
#
# Bulk Modulus (GPa) = 38.64399 40.04999 39.34699
# Shear Modulus (GPa) = 15.96076 18.84926 17.40501
#
# Velocity S-wave (km/s) = 2.83319 3.07890 2.95860
# Velocity P-wave (km/s) = 5.48975 5.72550 5.60887
#
# Compressibility (1/GPa) = 0.02587725
#
# Stress axis : x y z
#
# Youngs Moduli (GPa) = 41.90083 58.39263 28.43591
#
# Poissons Ratio (x) = 0.21011 0.44397
# Poissons Ratio (y) = 0.15077 0.16860
# Poissons Ratio (z) = 0.65420 0.34622
#
# Static dielectric constant tensor:
#      x y z
#    x 1.702970 0.000000 0.000000 
#    y 0.000000 1.743900 0.000000 
#    z 0.000000 0.000000 1.737420 
# 
# From -- ./inp_files/46492.got.cif
#   From: 2010.05.17/outbox.cif.g08.bks.cpg/sg71_24_cif.got.tgz:46492.got - 2010.06.03 16:22:01.
