data_PCOD9523247
_publ_section_title
;
Structure prediction by ZEFSAII (Michael W. Deem and Ramdas Pophale) SiO2 
 PCOD9523247
Probable space group: I M M M
;
_chemical_formula_sum "Si O2"
_cell_formula_units_Z 90
_cell_length_a 24.889891
_cell_length_b 22.956781
_cell_length_c 7.764526
_cell_angle_alpha 90.000000
_cell_angle_beta 90.000000
_cell_angle_gamma 90.000000
_cell_volume 4436.586307
_symmetry_space_group_name_H-M "I M M M"
_symmetry_group_IT_number 71
_symmetry_cell_setting 'orthorhombic'
loop_
_space_group_symop_operation_xyz
x,y,z
-x,-y,z
x,-y,-z
-x,y,-z
-x,-y,-z
x,y,-z
-x,y,z
x,-y,z
1/2+x,1/2+y,1/2+z
1/2-x,1/2-y,1/2+z
1/2+x,1/2-y,1/2-z
1/2-x,1/2+y,1/2-z
1/2-x,1/2-y,1/2-z
1/2+x,1/2+y,1/2-z
1/2-x,1/2+y,1/2+z
1/2+x,1/2-y,1/2+z
loop_
_atom_site_type_symbol
_atom_site_label
_atom_site_fract_x
_atom_site_fract_y
_atom_site_fract_z
Si Si1 0.000000 0.212797 0.205908
Si Si2 0.500000 0.153357 0.295000
Si Si3 0.590192 0.500000 0.306038
Si Si4 0.706821 0.065538 0.208043
Si Si5 0.000000 0.000000 0.500000
Si Si6 0.116957 0.654136 0.294073
Si Si7 0.671910 0.600467 0.206467
Si Si8 0.116769 0.786570 0.295896
O O1 0.056627 0.188186 0.267564
O O2 0.000000 0.279720 0.271918
O O3 0.000000 0.212399 0.000000
O O4 0.500000 0.155248 0.500000
O O5 0.442684 0.128883 0.238548
O O6 0.567369 0.500000 0.500000
O O7 0.629571 0.555544 0.285296
O O8 0.546929 0.500000 0.153330
O O9 0.663670 0.112462 0.273338
O O10 0.767416 0.082652 0.253808
O O11 0.695684 0.000000 0.270107
O O12 0.703105 0.064857 0.000000
O O13 0.123022 0.658039 0.500000
O O14 0.119550 0.720717 0.223391
O O15 0.658467 0.665780 0.269873
O O16 0.664583 0.598788 0.000000
O O17 0.124824 0.781304 0.500000
#
# Coordination Sequence:
#
# PCOD9523247 Si02
#       8
#     8   8   8  16   2  16  16  16
#     4   9  17  30  50  78 110 145 186 231 284 355
#     4   9  17  31  53  81 115 147 181 233 296 358
#     4  12  25  45  69  92 125 170 217 262 319 369
#     4  10  21  37  59  84 112 153 207 255 302 366
#     4  12  26  48  68  98 132 164 218 282 310 362
#     4   9  18  35  57  84 115 154 199 243 302 370
#     4  11  22  39  60  85 119 160 205 255 309 369
#     4   9  19  34  55  80 114 153 191 243 304 364
#
# _framework density 20.285868000000001
#
# number of rings (size 3 to 8) (size 9 to 14) (size 15 to 20)
#    0.000    2.133    1.778    1.200    0.000    5.689 
#    0.000    0.444    0.000    2.667    0.000    0.000 
#    0.000    0.000    0.000    0.000    0.000    0.000 
#
# Total GULP energy -250813.647318 kJ/mol
# GULP energy per Si atom -5573.636607 kJ/mol
# Density = 2.023970 g / cm^3
# Si number density = 20.285868 Si / 1000 Ang^3
#
#
#
# Elastic Constant Matrix: (Units=GPa)
#
#
# Indices 1 2 3 4 5 6 
#
# 1 127.7137 77.1205 20.3552 0.0000 0.0000 0.0000
# 2 77.1205 114.4540 19.6262 0.0000 0.0000 0.0000
# 3 20.3552 19.6262 66.4272 0.0000 0.0000 0.0000
# 4 0.0000 0.0000 0.0000 9.1385 0.0000 0.0000
# 5 0.0000 0.0000 0.0000 0.0000 29.3292 0.0000
# 6 0.0000 0.0000 0.0000 0.0000 0.0000 -24.7545
#
#
#
# Elastic Compliance Matrix: (Units=1/GPa)
#
#
# Indices 1 2 3 4 5 6 
#
# 1 0.013344 -0.008732 -0.001509 0.000000 0.000000 0.000000
# 2 -0.008732 0.014918 -0.001732 0.000000 0.000000 0.000000
# 3 -0.001509 -0.001732 0.016028 0.000000 0.000000 0.000000
# 4 0.000000 0.000000 0.000000 0.109427 0.000000 0.000000
# 5 0.000000 0.000000 0.000000 0.000000 0.034096 0.000000
# 6 0.000000 0.000000 0.000000 0.000000 0.000000 -0.040397
#
#
# Mechanical properties :
#
#
# Convention : Reuss Voigt Hill
#
# Bulk Modulus (GPa) = 49.15497 60.31095 54.73296
# Shear Modulus (GPa) = 28.06731 15.50884 21.78808
#
# Velocity S-wave (km/s) = 3.72370 2.76798 3.28083
# Velocity P-wave (km/s) = 6.54000 6.32540 6.43360
#
# Compressibility (1/GPa) = 0.02034382
#
# Stress axis : x y z
#
# Youngs Moduli (GPa) = 74.94269 67.03303 62.39046
#
# Poissons Ratio (x) = 0.58535 0.09414
# Poissons Ratio (y) = 0.65442 0.10805
# Poissons Ratio (z) = 0.11308 0.11608
#
# Static dielectric constant tensor:
#      x y z
#    x 1.744270 0.000000 0.000000 
#    y 0.000000 1.753170 0.000000 
#    z 0.000000 0.000000 1.723240 
# 
# From -- ./inp_files/12663.got.cif
#   From: 2010.05.17/outbox.cif.g08.bks.cpg/sg71_7_cif.got.tgz:12663.got - 2010.06.03 16:22:01.
