data_PCOD9523875
_publ_section_title
;
Structure prediction by ZEFSAII (Michael W. Deem and Ramdas Pophale) SiO2 
 PCOD9523875
Probable space group: I M M M
;
_chemical_formula_sum "Si O2"
_cell_formula_units_Z 56
_cell_length_a 15.691241
_cell_length_b 19.408443
_cell_length_c 8.151960
_cell_angle_alpha 90.000000
_cell_angle_beta 90.000000
_cell_angle_gamma 90.000000
_cell_volume 2482.618739
_symmetry_space_group_name_H-M "I M M M"
_symmetry_group_IT_number 71
_symmetry_cell_setting 'orthorhombic'
loop_
_space_group_symop_operation_xyz
x,y,z
-x,-y,z
x,-y,-z
-x,y,-z
-x,-y,-z
x,y,-z
-x,y,z
x,-y,z
1/2+x,1/2+y,1/2+z
1/2-x,1/2-y,1/2+z
1/2+x,1/2-y,1/2-z
1/2-x,1/2+y,1/2-z
1/2-x,1/2-y,1/2-z
1/2+x,1/2+y,1/2-z
1/2-x,1/2+y,1/2+z
1/2+x,1/2-y,1/2+z
loop_
_atom_site_type_symbol
_atom_site_label
_atom_site_fract_x
_atom_site_fract_y
_atom_site_fract_z
Si Si1 0.500000 0.262781 0.813527
Si Si2 0.500000 0.114918 0.313828
Si Si3 0.185197 0.423015 0.304024
Si Si4 0.898638 0.000000 0.690047
Si Si5 0.155550 0.852439 0.808813
O O1 0.500000 0.197425 0.696496
O O2 0.414478 0.307162 0.783867
O O3 0.500000 0.237124 0.000000
O O4 0.500000 0.090695 0.500000
O O5 0.586829 0.090062 0.231385
O O6 0.197637 0.424417 0.500000
O O7 0.206742 0.500000 0.239557
O O8 0.247057 0.361010 0.244447
O O9 0.873512 0.931493 0.786674
O O10 0.867426 0.000000 0.500000
O O11 0.000000 0.000000 0.679410
O O12 0.154526 0.831952 0.000000
#
# Coordination Sequence:
#
# PCOD9523875 Si02
#       5
#     8   8  16   8  16
#     4  12  26  44  64  92 130 174 211 257 318 380
#     4  12  27  45  65  92 124 169 218 265 315 373
#     4  10  22  43  69  97 127 165 209 260 321 375
#     4  11  21  33  55  92 132 169 206 254 315 373
#     4  11  22  39  65  96 128 166 210 259 314 377
#
# _framework density 22.556826000000001
#
# number of rings (size 3 to 8) (size 9 to 14) (size 15 to 20)
#    0.000    1.000    2.857    4.286    0.000    6.286 
#    0.000    0.000    0.000    0.000    0.000    0.000 
#    0.000    0.000    0.000    0.000    0.000    0.000 
#
# Total GULP energy -156457.761405 kJ/mol
# GULP energy per Si atom -5587.777193 kJ/mol
# Density = 2.250549 g / cm^3
# Si number density = 22.556826 Si / 1000 Ang^3
#
#
#
# Elastic Constant Matrix: (Units=GPa)
#
#
# Indices 1 2 3 4 5 6 
#
# 1 151.4663 10.8211 17.2388 0.0000 0.0000 0.0000
# 2 10.8211 51.9838 -13.3350 0.0000 0.0000 0.0000
# 3 17.2388 -13.3350 54.8536 0.0000 0.0000 0.0000
# 4 0.0000 0.0000 0.0000 6.3409 0.0000 0.0000
# 5 0.0000 0.0000 0.0000 0.0000 19.7435 0.0000
# 6 0.0000 0.0000 0.0000 0.0000 0.0000 12.6618
#
#
#
# Elastic Compliance Matrix: (Units=1/GPa)
#
#
# Indices 1 2 3 4 5 6 
#
# 1 0.007071 -0.002178 -0.002752 0.000000 0.000000 0.000000
# 2 -0.002178 0.021187 0.005835 0.000000 0.000000 0.000000
# 3 -0.002752 0.005835 0.020514 0.000000 0.000000 0.000000
# 4 0.000000 0.000000 0.000000 0.157705 0.000000 0.000000
# 5 0.000000 0.000000 0.000000 0.000000 0.050649 0.000000
# 6 0.000000 0.000000 0.000000 0.000000 0.000000 0.078978
#
#
# Mechanical properties :
#
#
# Convention : Reuss Voigt Hill
#
# Bulk Modulus (GPa) = 19.76962 31.97260 25.87111
# Shear Modulus (GPa) = 14.23879 23.98784 19.11332
#
# Velocity S-wave (km/s) = 2.51518 3.26458 2.91407
# Velocity P-wave (km/s) = 4.14948 5.33057 4.77667
#
# Compressibility (1/GPa) = 0.05058267
#
# Stress axis : x y z
#
# Youngs Moduli (GPa) = 141.42523 47.19899 48.74824
#
# Poissons Ratio (x) = 0.10279 0.13413
# Poissons Ratio (y) = 0.30799 -0.28444
# Poissons Ratio (z) = 0.38914 -0.27540
#
# Static dielectric constant tensor:
#      x y z
#    x 1.921700 0.000000 0.000000 
#    y 0.000000 1.817950 0.000000 
#    z 0.000000 0.000000 1.787650 
# 
# From -- ./inp_files/5107.got.cif
#   From: 2010.05.17/outbox.cif.g08.bks.cpg/sg71_3_cif.got.tgz:5107.got - 2010.06.03 16:22:01.
