data_PCOD9523040
_publ_section_title
;
Structure prediction by ZEFSAII (Michael W. Deem and Ramdas Pophale) SiO2 
 PCOD9523040
Probable space group: I M M M
;
_chemical_formula_sum "Si O2"
_cell_formula_units_Z 72
_cell_length_a 7.821580
_cell_length_b 14.134792
_cell_length_c 29.465865
_cell_angle_alpha 90.000000
_cell_angle_beta 90.000000
_cell_angle_gamma 90.000000
_cell_volume 3257.640146
_symmetry_space_group_name_H-M "I M M M"
_symmetry_group_IT_number 71
_symmetry_cell_setting 'orthorhombic'
loop_
_space_group_symop_operation_xyz
x,y,z
-x,-y,z
x,-y,-z
-x,y,-z
-x,-y,-z
x,y,-z
-x,y,z
x,-y,z
1/2+x,1/2+y,1/2+z
1/2-x,1/2-y,1/2+z
1/2+x,1/2-y,1/2-z
1/2-x,1/2+y,1/2-z
1/2-x,1/2-y,1/2-z
1/2+x,1/2+y,1/2-z
1/2-x,1/2+y,1/2+z
1/2+x,1/2-y,1/2+z
loop_
_atom_site_type_symbol
_atom_site_label
_atom_site_fract_x
_atom_site_fract_y
_atom_site_fract_z
Si Si1 0.300150 0.191434 0.308559
Si Si2 0.792091 0.110209 0.500000
Si Si3 0.800624 0.896490 0.781382
Si Si4 0.699668 0.701222 0.092613
Si Si5 0.293333 0.607141 0.552555
O O1 0.500000 0.192495 0.296017
O O2 0.211537 0.122687 0.272649
O O3 0.229247 0.298857 0.302197
O O4 0.282499 0.166827 0.361034
O O5 0.727740 0.156907 0.453693
O O6 0.000000 0.122279 0.500000
O O7 0.754456 0.000000 0.500000
O O8 0.000000 0.899358 0.795012
O O9 0.726070 0.000000 0.792274
O O10 0.500000 0.677872 0.095549
O O11 0.722202 0.813382 0.085396
O O12 0.241307 0.625759 0.500000
O O13 0.500000 0.611015 0.553998
O O14 0.241849 0.500000 0.563880
#
# Coordination Sequence:
#
# PCOD9523040 Si02
#       5
#    16   8  16  16  16
#     4  10  21  36  56  85 116 146 182 228 281 338
#     4   9  20  38  56  75 104 146 193 235 274 319
#     4   9  19  38  61  82 108 145 185 226 276 336
#     4  11  21  35  56  82 111 147 191 237 280 326
#     4   9  18  33  53  76 105 143 182 223 279 337
#
# _framework density 22.101887000000001
#
# number of rings (size 3 to 8) (size 9 to 14) (size 15 to 20)
#    0.000    2.333    1.111    2.000    0.000    3.556 
#    0.000    5.556    0.000    4.667    0.000    0.000 
#    0.000    0.000    0.000    0.000    0.000    0.000 
#
# Total GULP energy -201009.028756 kJ/mol
# GULP energy per Si atom -5583.584132 kJ/mol
# Density = 2.205158 g / cm^3
# Si number density = 22.101887 Si / 1000 Ang^3
#
#
#
# Elastic Constant Matrix: (Units=GPa)
#
#
# Indices 1 2 3 4 5 6 
#
# 1 33.7891 -6.1770 -6.7196 0.0000 0.0000 0.0000
# 2 -6.1770 50.8237 -3.0673 0.0000 0.0000 0.0000
# 3 -6.7196 -3.0673 82.5166 0.0000 0.0000 0.0000
# 4 0.0000 0.0000 0.0000 6.1577 0.0000 0.0000
# 5 0.0000 0.0000 0.0000 0.0000 22.2145 0.0000
# 6 0.0000 0.0000 0.0000 0.0000 0.0000 114.9885
#
#
#
# Elastic Compliance Matrix: (Units=1/GPa)
#
#
# Indices 1 2 3 4 5 6 
#
# 1 0.030838 0.003908 0.002657 0.000000 0.000000 0.000000
# 2 0.003908 0.020215 0.001070 0.000000 0.000000 0.000000
# 3 0.002657 0.001070 0.012375 0.000000 0.000000 0.000000
# 4 0.000000 0.000000 0.000000 0.162399 0.000000 0.000000
# 5 0.000000 0.000000 0.000000 0.000000 0.045016 0.000000
# 6 0.000000 0.000000 0.000000 0.000000 0.000000 0.008697
#
#
# Mechanical properties :
#
#
# Convention : Reuss Voigt Hill
#
# Bulk Modulus (GPa) = 12.70685 15.02238 13.86462
# Shear Modulus (GPa) = 17.21150 40.87835 29.04492
#
# Velocity S-wave (km/s) = 2.79361 4.30529 3.62904
# Velocity P-wave (km/s) = 4.02087 5.61478 4.88329
#
# Compressibility (1/GPa) = 0.07869768
#
# Stress axis : x y z
#
# Youngs Moduli (GPa) = 32.42737 49.46712 80.80897
#
# Poissons Ratio (x) = -0.19333 -0.21467
# Poissons Ratio (y) = -0.12674 -0.08644
# Poissons Ratio (z) = -0.08614 -0.05292
#
# Static dielectric constant tensor:
#      x y z
#    x 1.835030 0.000000 0.000000 
#    y 0.000000 1.817620 0.000000 
#    z 0.000000 0.000000 1.808550 
# 
# From -- ./inp_files/6088.got.cif
#   From: 2010.05.17/outbox.cif.g08.bks.cpg/sg71_4_cif.got.tgz:6088.got - 2010.06.03 16:22:01.
