data_PCOD9523398
_publ_section_title
;
Structure prediction by ZEFSAII (Michael W. Deem and Ramdas Pophale) SiO2 
 PCOD9523398
Probable space group: I M M M
;
_chemical_formula_sum "Si O2"
_cell_formula_units_Z 80
_cell_length_a 13.560649
_cell_length_b 29.577456
_cell_length_c 9.023252
_cell_angle_alpha 90.000000
_cell_angle_beta 90.000000
_cell_angle_gamma 90.000000
_cell_volume 3619.131625
_symmetry_space_group_name_H-M "I M M M"
_symmetry_group_IT_number 71
_symmetry_cell_setting 'orthorhombic'
loop_
_space_group_symop_operation_xyz
x,y,z
-x,-y,z
x,-y,-z
-x,y,-z
-x,-y,-z
x,y,-z
-x,y,z
x,-y,z
1/2+x,1/2+y,1/2+z
1/2-x,1/2-y,1/2+z
1/2+x,1/2-y,1/2-z
1/2-x,1/2+y,1/2-z
1/2-x,1/2-y,1/2-z
1/2+x,1/2+y,1/2-z
1/2-x,1/2+y,1/2+z
1/2+x,1/2-y,1/2+z
loop_
_atom_site_type_symbol
_atom_site_label
_atom_site_fract_x
_atom_site_fract_y
_atom_site_fract_z
Si Si1 0.615893 0.585487 0.174934
Si Si2 0.799375 0.449939 0.676255
Si Si3 0.618569 0.861378 0.330927
Si Si4 0.380280 0.321375 0.667848
Si Si5 0.379414 0.769841 0.169836
O O1 0.500000 0.578349 0.204117
O O2 0.686481 0.553835 0.269865
O O3 0.642012 0.636641 0.225191
O O4 0.632717 0.579567 0.000000
O O5 0.806003 0.443965 0.500000
O O6 0.838039 0.500000 0.713824
O O7 0.852409 0.408738 0.758044
O O8 0.654730 0.858358 0.500000
O O9 0.500000 0.859165 0.335033
O O10 0.651762 0.818055 0.236023
O O11 0.345403 0.329798 0.500000
O O12 0.500000 0.319897 0.662159
O O13 0.349497 0.272799 0.730432
O O14 0.500000 0.769968 0.169641
O O15 0.348209 0.763908 0.000000
#
# Coordination Sequence:
#
# PCOD9523398 Si02
#       5
#    16  16  16  16  16
#     4  10  21  38  61  88 118 153 193 237 287 343
#     4  11  25  43  62  85 114 149 191 241 295 349
#     4  10  21  38  61  88 118 153 193 237 287 343
#     4   9  16  28  50  81 117 155 193 232 277 333
#     4   9  16  28  50  81 117 155 193 232 277 333
#
# _framework density 22.104749000000002
#
# number of rings (size 3 to 8) (size 9 to 14) (size 15 to 20)
#    0.000    2.200    0.000    3.000    0.000    9.600 
#    0.000    5.000    0.000    0.000    0.000    0.000 
#    0.000    0.000    0.000    0.000    0.000    0.000 
#
# Total GULP energy -223838.025144 kJ/mol
# GULP energy per Si atom -5595.950629 kJ/mol
# Density = 2.205444 g / cm^3
# Si number density = 22.104749 Si / 1000 Ang^3
#
#
#
# Elastic Constant Matrix: (Units=GPa)
#
#
# Indices 1 2 3 4 5 6 
#
# 1 42.5233 -5.4600 -6.0027 -0.0002 0.0000 0.0001
# 2 -5.4600 120.0818 45.4473 -0.0003 0.0001 0.0003
# 3 -6.0027 45.4473 115.7117 0.0005 -0.0005 0.0008
# 4 -0.0002 -0.0003 0.0005 34.0861 0.0000 0.0001
# 5 0.0000 0.0001 -0.0005 0.0000 29.2041 -0.0001
# 6 0.0001 0.0003 0.0008 0.0001 -0.0001 26.4133
#
#
#
# Elastic Compliance Matrix: (Units=1/GPa)
#
#
# Indices 1 2 3 4 5 6 
#
# 1 0.023743 0.000721 0.000949 0.000000 0.000000 0.000000
# 2 0.000721 0.009804 -0.003813 0.000000 0.000000 0.000000
# 3 0.000949 -0.003813 0.010189 0.000000 0.000000 0.000000
# 4 0.000000 0.000000 0.000000 0.029338 0.000000 0.000000
# 5 0.000000 0.000000 0.000000 0.000000 0.034242 0.000000
# 6 0.000000 0.000000 0.000000 0.000000 0.000000 0.037860
#
#
# Mechanical properties :
#
#
# Convention : Reuss Voigt Hill
#
# Bulk Modulus (GPa) = 25.34997 38.47623 31.91310
# Shear Modulus (GPa) = 30.74812 34.22950 32.48881
#
# Velocity S-wave (km/s) = 3.73368 3.93938 3.83791
# Velocity P-wave (km/s) = 5.48454 6.17542 5.84020
#
# Compressibility (1/GPa) = 0.03944778
#
# Stress axis : x y z
#
# Youngs Moduli (GPa) = 42.11774 102.00374 98.14477
#
# Poissons Ratio (x) = -0.07349 -0.09311
# Poissons Ratio (y) = -0.03035 0.37424
# Poissons Ratio (z) = -0.03996 0.38895
#
# Static dielectric constant tensor:
#      x y z
#    x 1.902470 0.000000 0.000000 
#    y 0.000000 1.767710 0.000000 
#    z 0.000000 0.000000 1.742030 
# 
# From -- ./inp_files/8322.got.cif
#   From: 2010.05.17/outbox.cif.g08.bks.cpg/sg71_5_cif.got.tgz:8322.got - 2010.06.03 16:22:01.
