data_PCOD9523471
_publ_section_title
;
Structure prediction by ZEFSAII (Michael W. Deem and Ramdas Pophale) SiO2 
 PCOD9523471
Probable space group: I M M M
;
_chemical_formula_sum "Si O2"
_cell_formula_units_Z 72
_cell_length_a 25.934750
_cell_length_b 16.912420
_cell_length_c 8.008037
_cell_angle_alpha 90.000000
_cell_angle_beta 90.000000
_cell_angle_gamma 90.000000
_cell_volume 3512.480261
_symmetry_space_group_name_H-M "I M M M"
_symmetry_group_IT_number 71
_symmetry_cell_setting 'orthorhombic'
loop_
_space_group_symop_operation_xyz
x,y,z
-x,-y,z
x,-y,-z
-x,y,-z
-x,-y,-z
x,y,-z
-x,y,z
x,-y,z
1/2+x,1/2+y,1/2+z
1/2-x,1/2-y,1/2+z
1/2+x,1/2-y,1/2-z
1/2-x,1/2+y,1/2-z
1/2-x,1/2-y,1/2-z
1/2+x,1/2+y,1/2-z
1/2-x,1/2+y,1/2+z
1/2+x,1/2-y,1/2+z
loop_
_atom_site_type_symbol
_atom_site_label
_atom_site_fract_x
_atom_site_fract_y
_atom_site_fract_z
Si Si1 0.443026 0.867735 0.704111
Si Si2 0.865059 0.500000 0.795657
Si Si3 0.500000 0.411545 0.199479
Si Si4 0.751633 0.000000 0.700369
Si Si5 0.711634 0.676917 0.699617
Si Si6 0.905924 0.802577 0.798725
O O1 0.443260 0.868968 0.500000
O O2 0.500000 0.893135 0.757684
O O3 0.430699 0.779589 0.759306
O O4 0.397613 0.924636 0.758657
O O5 0.807093 0.500000 0.736473
O O6 0.863532 0.500000 0.000000
O O7 0.500000 0.500000 0.267114
O O8 0.447394 0.368793 0.253571
O O9 0.500000 0.413071 0.000000
O O10 0.773800 0.913820 0.752599
O O11 0.752713 0.000000 0.500000
O O12 0.710679 0.679848 0.500000
O O13 0.750000 0.750000 0.750000
O O14 0.652834 0.689689 0.763096
O O15 0.903064 0.799838 0.000000
#
# Coordination Sequence:
#
# PCOD9523471 Si02
#       6
#    16   8   8   8  16  16
#     4   9  15  27  51  83 114 144 185 236 284 336
#     4   9  17  29  50  83 118 152 191 237 286 336
#     4  11  25  41  59  88 119 150 194 251 315 375
#     4  11  23  40  61  87 125 166 208 258 311 372
#     4  11  24  42  65  94 126 164 213 264 318 378
#     4  10  21  39  62  87 118 157 202 249 299 366
#
# _framework density 20.498336999999999
#
# number of rings (size 3 to 8) (size 9 to 14) (size 15 to 20)
#    0.000    1.889    1.111    3.000    1.556    7.556 
#    0.000    0.000    0.000    0.000    0.000    0.778 
#    0.000    0.000    0.000    0.000    0.000    0.000 
#
# Total GULP energy -200825.388071 kJ/mol
# GULP energy per Si atom -5578.483002 kJ/mol
# Density = 2.045168 g / cm^3
# Si number density = 20.498337 Si / 1000 Ang^3
#
#
#
# Elastic Constant Matrix: (Units=GPa)
#
#
# Indices 1 2 3 4 5 6 
#
# 1 148.8374 44.9958 8.6308 0.0000 0.0000 0.0000
# 2 44.9958 122.4621 7.3172 0.0000 0.0000 0.0000
# 3 8.6308 7.3172 30.3830 0.0000 0.0000 0.0000
# 4 0.0000 0.0000 0.0000 86.3226 0.0000 0.0000
# 5 0.0000 0.0000 0.0000 0.0000 23.7069 0.0000
# 6 0.0000 0.0000 0.0000 0.0000 0.0000 36.7096
#
#
#
# Elastic Compliance Matrix: (Units=1/GPa)
#
#
# Indices 1 2 3 4 5 6 
#
# 1 0.007626 -0.002712 -0.001513 0.000000 0.000000 0.000000
# 2 -0.002712 0.009249 -0.001457 0.000000 0.000000 0.000000
# 3 -0.001513 -0.001457 0.033694 0.000000 0.000000 0.000000
# 4 0.000000 0.000000 0.000000 0.011584 0.000000 0.000000
# 5 0.000000 0.000000 0.000000 0.000000 0.042182 0.000000
# 6 0.000000 0.000000 0.000000 0.000000 0.000000 0.027241
#
#
# Mechanical properties :
#
#
# Convention : Reuss Voigt Hill
#
# Bulk Modulus (GPa) = 25.50691 47.06333 36.28512
# Shear Modulus (GPa) = 32.04938 45.39706 38.72322
#
# Velocity S-wave (km/s) = 3.95842 4.71113 4.35108
# Velocity P-wave (km/s) = 5.77603 7.25276 6.55610
#
# Compressibility (1/GPa) = 0.03920506
#
# Stress axis : x y z
#
# Youngs Moduli (GPa) = 131.12561 108.11745 29.67890
#
# Poissons Ratio (x) = 0.29318 0.04491
# Poissons Ratio (y) = 0.35557 0.04325
# Poissons Ratio (z) = 0.19843 0.15755
#
# Static dielectric constant tensor:
#      x y z
#    x 1.719060 0.000000 0.000000 
#    y 0.000000 1.755760 0.000000 
#    z 0.000000 0.000000 1.747500 
# 
# From -- ./inp_files/14368.got.cif
#   From: 2010.05.17/outbox.cif.g08.bks.cpg/sg71_8_cif.got.tgz:14368.got - 2010.06.03 16:22:01.
