data_PCOD9523392
_publ_section_title
;
Structure prediction by ZEFSAII (Michael W. Deem and Ramdas Pophale) SiO2 
 PCOD9523392
Probable space group: I M M M
;
_chemical_formula_sum "Si O2"
_cell_formula_units_Z 116
_cell_length_a 22.849393
_cell_length_b 14.500456
_cell_length_c 17.810009
_cell_angle_alpha 90.000000
_cell_angle_beta 90.000000
_cell_angle_gamma 90.000000
_cell_volume 5900.930045
_symmetry_space_group_name_H-M "I M M M"
_symmetry_group_IT_number 71
_symmetry_cell_setting 'orthorhombic'
loop_
_space_group_symop_operation_xyz
x,y,z
-x,-y,z
x,-y,-z
-x,y,-z
-x,-y,-z
x,y,-z
-x,y,z
x,-y,z
1/2+x,1/2+y,1/2+z
1/2-x,1/2-y,1/2+z
1/2+x,1/2-y,1/2-z
1/2-x,1/2+y,1/2-z
1/2-x,1/2-y,1/2-z
1/2+x,1/2+y,1/2-z
1/2-x,1/2+y,1/2+z
1/2+x,1/2-y,1/2+z
loop_
_atom_site_type_symbol
_atom_site_label
_atom_site_fract_x
_atom_site_fract_y
_atom_site_fract_z
Si Si1 0.725401 0.673404 0.390659
Si Si2 0.882544 0.607655 0.224856
Si Si3 0.241292 0.107238 0.272392
Si Si4 0.208810 0.000000 0.000000
Si Si5 0.322138 0.305152 0.084616
Si Si6 0.612449 0.773394 0.583742
Si Si7 0.569365 0.272438 0.177751
Si Si8 0.069979 0.103906 0.822016
O O1 0.719282 0.661067 0.301217
O O2 0.710559 0.581277 0.434963
O O3 0.790748 0.705413 0.410185
O O4 0.682021 0.754825 0.415916
O O5 0.897051 0.500000 0.233701
O O6 0.811863 0.616876 0.226693
O O7 0.902410 0.649212 0.144592
O O8 0.911038 0.674554 0.286703
O O9 0.211020 0.139919 0.349052
O O10 0.228304 0.000000 0.261487
O O11 0.389586 0.295432 0.107783
O O12 0.315058 0.341254 0.000000
O O13 0.592038 0.793288 0.500000
O O14 0.589416 0.674933 0.613958
O O15 0.500000 0.273738 0.163672
O O16 0.583528 0.348195 0.242490
O O17 0.000000 0.098715 0.826012
O O18 0.093375 0.000000 0.829180
#
# Coordination Sequence:
#
# PCOD9523392 Si02
#       8
#    16  16  16   4  16  16  16  16
#     4  12  22  38  56  88 124 160 201 251 312 374
#     4  10  21  38  61  86 116 160 210 261 315 376
#     4  11  22  37  63  90 120 165 209 252 317 387
#     4  12  24  36  60  88 126 168 200 250 314 390
#     4  12  24  40  60  89 131 164 202 261 315 374
#     4  11  22  34  54  84 124 158 196 244 303 375
#     4  10  22  41  64  88 116 160 213 265 313 365
#     4   9  20  38  60  85 114 152 201 252 303 366
#
# _framework density 19.657917999999999
#
# number of rings (size 3 to 8) (size 9 to 14) (size 15 to 20)
#    0.000    1.241    4.828    2.069    0.966    3.310 
#    0.000    2.069    0.000    0.000    0.000    8.207 
#    0.000    0.000    0.000    0.000    0.000    0.000 
#
# Total GULP energy -323466.096776 kJ/mol
# GULP energy per Si atom -5577.001669 kJ/mol
# Density = 1.961318 g / cm^3
# Si number density = 19.657918 Si / 1000 Ang^3
#
#
#
# Elastic Constant Matrix: (Units=GPa)
#
#
# Indices 1 2 3 4 5 6 
#
# 1 70.6377 2.2874 15.2037 0.0000 0.0000 0.0000
# 2 2.2874 60.8460 1.1670 0.0000 0.0000 0.0000
# 3 15.2037 1.1670 118.5054 0.0000 0.0000 0.0000
# 4 0.0000 0.0000 0.0000 19.6078 0.0000 0.0000
# 5 0.0000 0.0000 0.0000 0.0000 7.4637 0.0000
# 6 0.0000 0.0000 0.0000 0.0000 0.0000 21.9642
#
#
#
# Elastic Compliance Matrix: (Units=1/GPa)
#
#
# Indices 1 2 3 4 5 6 
#
# 1 0.014575 -0.000512 -0.001865 0.000000 0.000000 0.000000
# 2 -0.000512 0.016456 -0.000096 0.000000 0.000000 0.000000
# 3 -0.001865 -0.000096 0.008679 0.000000 0.000000 0.000000
# 4 0.000000 0.000000 0.000000 0.051000 0.000000 0.000000
# 5 0.000000 0.000000 0.000000 0.000000 0.133982 0.000000
# 6 0.000000 0.000000 0.000000 0.000000 0.000000 0.045529
#
#
# Mechanical properties :
#
#
# Convention : Reuss Voigt Hill
#
# Bulk Modulus (GPa) = 28.76641 31.92279 30.34460
# Shear Modulus (GPa) = 17.43653 25.22922 21.33288
#
# Velocity S-wave (km/s) = 2.98148 3.58636 3.29782
# Velocity P-wave (km/s) = 5.14952 5.78133 5.47455
#
# Compressibility (1/GPa) = 0.03476277
#
# Stress axis : x y z
#
# Youngs Moduli (GPa) = 68.61200 60.76798 115.22559
#
# Poissons Ratio (x) = 0.03112 0.21487
# Poissons Ratio (y) = 0.03514 0.01110
# Poissons Ratio (z) = 0.12795 0.00585
#
# Static dielectric constant tensor:
#      x y z
#    x 1.750430 0.000000 0.000000 
#    y 0.000000 1.688810 0.000000 
#    z 0.000000 0.000000 1.689240 
# 
# From -- ./inp_files/48288.got.cif
#   From: 2010.05.17/outbox.cif.g08.bks.cpg/sg71_25_cif.got.tgz:48288.got - 2010.06.03 16:22:01.
