data_PCOD9523431
_publ_section_title
;
Structure prediction by ZEFSAII (Michael W. Deem and Ramdas Pophale) SiO2 
 PCOD9523431
Probable space group: I M M M
;
_chemical_formula_sum "Si O2"
_cell_formula_units_Z 56
_cell_length_a 18.138622
_cell_length_b 10.534472
_cell_length_c 14.032547
_cell_angle_alpha 90.000000
_cell_angle_beta 90.000000
_cell_angle_gamma 90.000000
_cell_volume 2681.350385
_symmetry_space_group_name_H-M "I M M M"
_symmetry_group_IT_number 71
_symmetry_cell_setting 'orthorhombic'
loop_
_space_group_symop_operation_xyz
x,y,z
-x,-y,z
x,-y,-z
-x,y,-z
-x,-y,-z
x,y,-z
-x,y,z
x,-y,z
1/2+x,1/2+y,1/2+z
1/2-x,1/2-y,1/2+z
1/2+x,1/2-y,1/2-z
1/2-x,1/2+y,1/2-z
1/2-x,1/2-y,1/2-z
1/2+x,1/2+y,1/2-z
1/2-x,1/2+y,1/2+z
1/2+x,1/2-y,1/2+z
loop_
_atom_site_type_symbol
_atom_site_label
_atom_site_fract_x
_atom_site_fract_y
_atom_site_fract_z
Si Si1 0.310930 0.144369 0.385965
Si Si2 0.584751 0.359110 0.699108
Si Si3 0.915969 0.500000 0.614517
Si Si4 0.141828 0.776905 0.612321
O O1 0.321441 0.145241 0.500000
O O2 0.363905 0.248996 0.341369
O O3 0.225968 0.182757 0.369082
O O4 0.324081 0.000000 0.351935
O O5 0.500000 0.339466 0.671301
O O6 0.608226 0.500000 0.667211
O O7 0.591818 0.352085 0.813569
O O8 0.923124 0.500000 0.500000
O O9 0.872851 0.370976 0.635924
O O10 0.000000 0.500000 0.654238
O O11 0.126082 0.797628 0.500000
#
# Coordination Sequence:
#
# PCOD9523431 Si02
#       4
#    16  16   8  16
#     4  10  23  43  67  92 119 161 215 263 312 369
#     4  11  25  41  61  92 127 166 208 254 315 375
#     4   9  18  32  54  90 128 162 200 239 294 366
#     4  10  21  38  63  93 127 164 203 254 309 371
#
# _framework density 20.885000000000002
#
# number of rings (size 3 to 8) (size 9 to 14) (size 15 to 20)
#    0.000    1.857    0.000    2.571    4.000    5.143 
#    0.000    4.286    0.000    0.000    0.000    0.000 
#    0.000    0.000    0.000    0.000    0.000    0.000 
#
# Total GULP energy -156454.312446 kJ/mol
# GULP energy per Si atom -5587.654016 kJ/mol
# Density = 2.083746 g / cm^3
# Si number density = 20.885000 Si / 1000 Ang^3
#
#
#
# Elastic Constant Matrix: (Units=GPa)
#
#
# Indices 1 2 3 4 5 6 
#
# 1 80.7620 75.0906 25.9053 0.0000 0.0000 0.0000
# 2 75.0906 182.6797 31.8745 0.0000 0.0000 0.0000
# 3 25.9053 31.8745 39.0414 0.0000 0.0000 0.0000
# 4 0.0000 0.0000 0.0000 23.3534 0.0000 0.0000
# 5 0.0000 0.0000 0.0000 0.0000 2.9182 0.0000
# 6 0.0000 0.0000 0.0000 0.0000 0.0000 26.4181
#
#
#
# Elastic Compliance Matrix: (Units=1/GPa)
#
#
# Indices 1 2 3 4 5 6 
#
# 1 0.022222 -0.007652 -0.008498 0.000000 0.000000 0.000000
# 2 -0.007652 0.009018 -0.002285 0.000000 0.000000 0.000000
# 3 -0.008498 -0.002285 0.033119 0.000000 0.000000 0.000000
# 4 0.000000 0.000000 0.000000 0.042820 0.000000 0.000000
# 5 0.000000 0.000000 0.000000 0.000000 0.342675 0.000000
# 6 0.000000 0.000000 0.000000 0.000000 0.000000 0.037853
#
#
# Mechanical properties :
#
#
# Convention : Reuss Voigt Hill
#
# Bulk Modulus (GPa) = 36.37911 63.13599 49.75755
# Shear Modulus (GPa) = 9.36785 21.84546 15.60666
#
# Velocity S-wave (km/s) = 2.12018 3.23768 2.73658
# Velocity P-wave (km/s) = 4.84254 6.65377 5.81906
#
# Compressibility (1/GPa) = 0.02748830
#
# Stress axis : x y z
#
# Youngs Moduli (GPa) = 44.99974 110.88839 30.19450
#
# Poissons Ratio (x) = 0.84849 0.25660
# Poissons Ratio (y) = 0.34433 0.06901
# Poissons Ratio (z) = 0.38242 0.25343
#
# Static dielectric constant tensor:
#      x y z
#    x 1.714470 0.000000 0.000000 
#    y 0.000000 1.747450 0.000000 
#    z 0.000000 0.000000 1.778220 
# 
# From -- ./inp_files/5037.got.cif
#   From: 2010.05.17/outbox.cif.g08.bks.cpg/sg71_3_cif.got.tgz:5037.got - 2010.06.03 16:22:01.
