data_PCOD9523571
_publ_section_title
;
Structure prediction by ZEFSAII (Michael W. Deem and Ramdas Pophale) SiO2 
 PCOD9523571
Probable space group: I M M M
;
_chemical_formula_sum "Si O2"
_cell_formula_units_Z 66
_cell_length_a 8.815999
_cell_length_b 14.289005
_cell_length_c 30.286024
_cell_angle_alpha 90.000000
_cell_angle_beta 90.000000
_cell_angle_gamma 90.000000
_cell_volume 3815.186587
_symmetry_space_group_name_H-M "I M M M"
_symmetry_group_IT_number 71
_symmetry_cell_setting 'orthorhombic'
loop_
_space_group_symop_operation_xyz
x,y,z
-x,-y,z
x,-y,-z
-x,y,-z
-x,-y,-z
x,y,-z
-x,y,z
x,-y,z
1/2+x,1/2+y,1/2+z
1/2-x,1/2-y,1/2+z
1/2+x,1/2-y,1/2-z
1/2-x,1/2+y,1/2-z
1/2-x,1/2-y,1/2-z
1/2+x,1/2+y,1/2-z
1/2-x,1/2+y,1/2+z
1/2+x,1/2-y,1/2+z
loop_
_atom_site_type_symbol
_atom_site_label
_atom_site_fract_x
_atom_site_fract_y
_atom_site_fract_z
Si Si1 0.817340 0.751201 0.320646
Si Si2 0.682852 0.106545 0.744954
Si Si3 0.000000 0.500000 0.000000
Si Si4 0.682428 0.801986 0.919555
Si Si5 0.320401 0.500000 0.552854
Si Si6 0.332410 0.195716 0.500000
O O1 0.747826 0.842713 0.298125
O O2 0.771560 0.666398 0.287980
O O3 0.771217 0.732340 0.370776
O O4 0.000000 0.757697 0.319553
O O5 0.500000 0.108290 0.742852
O O6 0.733711 0.000000 0.748362
O O7 0.130048 0.414860 0.000000
O O8 0.500000 0.804552 0.921778
O O9 0.745729 0.905840 0.928256
O O10 0.746102 0.732604 0.956905
O O11 0.500000 0.500000 0.561748
O O12 0.297633 0.500000 0.500000
O O13 0.500000 0.242899 0.500000
#
# Coordination Sequence:
#
# PCOD9523571 Si02
#       6
#    16  16   2  16   8   8
#     4   9  20  36  55  81 114 146 185 233 287 335
#     4   9  18  35  57  79 107 148 190 233 280 338
#     4   8  24  44  66  78 104 168 190 248 296 330
#     4  11  22  37  61  89 118 154 190 241 291 347
#     4  11  23  37  57  89 123 158 188 228 287 357
#     4  10  21  42  62  82 113 151 194 239 288 335
#
# _framework density 17.299285000000001
#
# number of rings (size 3 to 8) (size 9 to 14) (size 15 to 20)
#    0.364    1.818    1.212    1.455    1.697    2.909 
#    2.182    1.212    0.000    0.000    0.000    0.000 
#    0.000    0.000    0.000    0.000    0.000    0.000 
#
# Total GULP energy -183790.876214 kJ/mol
# GULP energy per Si atom -5569.420491 kJ/mol
# Density = 1.725991 g / cm^3
# Si number density = 17.299285 Si / 1000 Ang^3
#
#
#
# Elastic Constant Matrix: (Units=GPa)
#
#
# Indices 1 2 3 4 5 6 
#
# 1 37.8916 24.0319 40.1703 0.0000 0.0000 0.0000
# 2 24.0319 132.9833 59.2661 0.0000 0.0000 0.0000
# 3 40.1703 59.2661 145.3290 0.0000 0.0000 0.0000
# 4 0.0000 0.0000 0.0000 14.0331 0.0000 0.0000
# 5 0.0000 0.0000 0.0000 0.0000 24.3600 0.0000
# 6 0.0000 0.0000 0.0000 0.0000 0.0000 25.8746
#
#
#
# Elastic Compliance Matrix: (Units=1/GPa)
#
#
# Indices 1 2 3 4 5 6 
#
# 1 0.038095 -0.002678 -0.009438 0.000000 0.000000 0.000000
# 2 -0.002678 0.009378 -0.003084 0.000000 0.000000 0.000000
# 3 -0.009438 -0.003084 0.010747 0.000000 0.000000 0.000000
# 4 0.000000 0.000000 0.000000 0.071260 0.000000 0.000000
# 5 0.000000 0.000000 0.000000 0.000000 0.041051 0.000000
# 6 0.000000 0.000000 0.000000 0.000000 0.000000 0.038648
#
#
# Mechanical properties :
#
#
# Convention : Reuss Voigt Hill
#
# Bulk Modulus (GPa) = 35.94497 62.57117 49.25807
# Shear Modulus (GPa) = 20.09219 25.70258 22.89739
#
# Velocity S-wave (km/s) = 3.41170 3.85874 3.64208
# Velocity P-wave (km/s) = 6.02851 7.49009 6.79869
#
# Compressibility (1/GPa) = 0.02782031
#
# Stress axis : x y z
#
# Youngs Moduli (GPa) = 26.25034 106.62948 93.04645
#
# Poissons Ratio (x) = 0.28558 0.87813
# Poissons Ratio (y) = 0.07031 0.28698
# Poissons Ratio (z) = 0.24774 0.32887
#
# Static dielectric constant tensor:
#      x y z
#    x 1.589130 0.000000 0.000000 
#    y 0.000000 1.567500 0.000000 
#    z 0.000000 0.000000 1.572700 
# 
# From -- ./inp_files/67827.got.cif
#   From: 2010.05.17/outbox.cif.g08.bks.cpg/sg71_34_cif.got.tgz:67827.got - 2010.06.03 16:22:01.
