data_PCOD9523435
_publ_section_title
;
Structure prediction by ZEFSAII (Michael W. Deem and Ramdas Pophale) SiO2 
 PCOD9523435
Probable space group: I M M M
;
_chemical_formula_sum "Si O2"
_cell_formula_units_Z 64
_cell_length_a 8.043342
_cell_length_b 18.576615
_cell_length_c 22.533174
_cell_angle_alpha 90.000000
_cell_angle_beta 90.000000
_cell_angle_gamma 90.000000
_cell_volume 3366.863317
_symmetry_space_group_name_H-M "I M M M"
_symmetry_group_IT_number 71
_symmetry_cell_setting 'orthorhombic'
loop_
_space_group_symop_operation_xyz
x,y,z
-x,-y,z
x,-y,-z
-x,y,-z
-x,-y,-z
x,y,-z
-x,y,z
x,-y,z
1/2+x,1/2+y,1/2+z
1/2-x,1/2-y,1/2+z
1/2+x,1/2-y,1/2-z
1/2-x,1/2+y,1/2-z
1/2-x,1/2-y,1/2-z
1/2+x,1/2+y,1/2-z
1/2-x,1/2+y,1/2+z
1/2+x,1/2-y,1/2+z
loop_
_atom_site_type_symbol
_atom_site_label
_atom_site_fract_x
_atom_site_fract_y
_atom_site_fract_z
Si Si1 0.302857 0.581672 0.500000
Si Si2 0.200894 0.665849 0.748125
Si Si3 0.307959 0.662083 0.123822
Si Si4 0.801513 0.333242 0.382057
Si Si5 0.000000 0.579896 0.070193
O O1 0.231937 0.500000 0.500000
O O2 0.500000 0.575897 0.500000
O O3 0.256874 0.625050 0.440253
O O4 0.250000 0.750000 0.750000
O O5 0.286499 0.637687 0.807539
O O6 0.255804 0.638812 0.682965
O O7 0.000000 0.659125 0.753386
O O8 0.500000 0.651950 0.105564
O O9 0.266469 0.747449 0.116851
O O10 0.167220 0.620207 0.088912
O O11 0.000000 0.339188 0.381082
O O12 0.000000 0.500000 0.096804
O O13 0.000000 0.575291 0.000000
#
# Coordination Sequence:
#
# PCOD9523435 Si02
#       5
#     8  16  16  16   8
#     4  11  25  39  53  81 123 166 205 246 300 362
#     4   9  16  31  56  90 122 150 197 254 305 349
#     4  10  21  38  64  95 122 154 207 257 300 364
#     4   9  20  35  59  89 116 157 204 249 299 351
#     4  11  26  44  62  88 124 163 199 245 317 379
#
# _framework density 19.008792
#
# number of rings (size 3 to 8) (size 9 to 14) (size 15 to 20)
#    0.000    2.250    1.250    2.625    3.500    4.000 
#    0.000    2.500    0.000    0.000    0.000    0.000 
#    0.000    0.000    0.000    0.000    0.000    0.000 
#
# Total GULP energy -178290.513624 kJ/mol
# GULP energy per Si atom -5571.578551 kJ/mol
# Density = 1.896553 g / cm^3
# Si number density = 19.008792 Si / 1000 Ang^3
#
#
#
# Elastic Constant Matrix: (Units=GPa)
#
#
# Indices 1 2 3 4 5 6 
#
# 1 80.3952 51.6568 30.1989 0.0000 0.0000 0.0000
# 2 51.6568 71.4021 62.9131 0.0000 0.0000 0.0000
# 3 30.1989 62.9131 145.0567 0.0000 0.0000 0.0000
# 4 0.0000 0.0000 0.0000 47.7120 0.0000 0.0000
# 5 0.0000 0.0000 0.0000 0.0000 25.8930 0.0000
# 6 0.0000 0.0000 0.0000 0.0000 0.0000 1.9004
#
#
#
# Elastic Compliance Matrix: (Units=1/GPa)
#
#
# Indices 1 2 3 4 5 6 
#
# 1 0.024749 -0.021632 0.004230 0.000000 0.000000 0.000000
# 2 -0.021632 0.041575 -0.013528 0.000000 0.000000 0.000000
# 3 0.004230 -0.013528 0.011881 0.000000 0.000000 0.000000
# 4 0.000000 0.000000 0.000000 0.020959 0.000000 0.000000
# 5 0.000000 0.000000 0.000000 0.000000 0.038620 0.000000
# 6 0.000000 0.000000 0.000000 0.000000 0.000000 0.526194
#
#
# Mechanical properties :
#
#
# Convention : Reuss Voigt Hill
#
# Bulk Modulus (GPa) = 61.18511 65.15462 63.16986
# Shear Modulus (GPa) = 6.83727 25.24011 16.03869
#
# Velocity S-wave (km/s) = 1.89861 3.64787 2.90789
# Velocity P-wave (km/s) = 6.08802 7.21755 6.67671
#
# Compressibility (1/GPa) = 0.01634385
#
# Stress axis : x y z
#
# Youngs Moduli (GPa) = 40.40586 24.05318 84.17066
#
# Poissons Ratio (x) = 0.52031 -0.35600
# Poissons Ratio (y) = 0.87404 1.13866
# Poissons Ratio (z) = -0.17090 0.32539
#
# Static dielectric constant tensor:
#      x y z
#    x 1.769610 0.000000 0.000000 
#    y 0.000000 1.454960 0.000000 
#    z 0.000000 0.000000 1.711530 
# 
# From -- ./inp_files/49955.got.cif
#   From: 2010.05.17/outbox.cif.g08.bks.cpg/sg71_25_cif.got.tgz:49955.got - 2010.06.03 16:22:01.
