data_PCOD9523695
_publ_section_title
;
Structure prediction by ZEFSAII (Michael W. Deem and Ramdas Pophale) SiO2 
 PCOD9523695
Probable space group: I M M M
;
_chemical_formula_sum "Si O2"
_cell_formula_units_Z 92
_cell_length_a 24.033217
_cell_length_b 9.793406
_cell_length_c 22.515170
_cell_angle_alpha 90.000000
_cell_angle_beta 90.000000
_cell_angle_gamma 90.000000
_cell_volume 5299.329178
_symmetry_space_group_name_H-M "I M M M"
_symmetry_group_IT_number 71
_symmetry_cell_setting 'orthorhombic'
loop_
_space_group_symop_operation_xyz
x,y,z
-x,-y,z
x,-y,-z
-x,y,-z
-x,-y,-z
x,y,-z
-x,y,z
x,-y,z
1/2+x,1/2+y,1/2+z
1/2-x,1/2-y,1/2+z
1/2+x,1/2-y,1/2-z
1/2-x,1/2+y,1/2-z
1/2-x,1/2-y,1/2-z
1/2+x,1/2+y,1/2-z
1/2-x,1/2+y,1/2+z
1/2+x,1/2-y,1/2+z
loop_
_atom_site_type_symbol
_atom_site_label
_atom_site_fract_x
_atom_site_fract_y
_atom_site_fract_z
Si Si1 0.122771 0.718546 0.394133
Si Si2 0.395242 0.000000 0.000000
Si Si3 0.766480 0.840096 0.571137
Si Si4 0.863376 0.660709 0.070680
Si Si5 0.434531 0.153548 0.228152
Si Si6 0.566664 0.660128 0.660498
Si Si7 0.435063 0.500000 0.071279
O O1 0.106028 0.618389 0.447503
O O2 0.188973 0.744584 0.397157
O O3 0.101466 0.666325 0.331035
O O4 0.094179 0.864668 0.405124
O O5 0.774761 0.824452 0.500000
O O6 0.701862 0.811738 0.583752
O O7 0.776797 0.000000 0.584863
O O8 0.873862 0.500000 0.083338
O O9 0.901836 0.758813 0.108882
O O10 0.871373 0.680083 0.000000
O O11 0.500000 0.171077 0.212623
O O12 0.419731 0.265318 0.277391
O O13 0.428303 0.000000 0.253143
O O14 0.500000 0.672018 0.652388
O O15 0.580935 0.500000 0.661432
O O16 0.500000 0.500000 0.087661
O O17 0.430509 0.500000 0.000000
#
# Coordination Sequence:
#
# PCOD9523695 Si02
#       7
#    16   4  16  16  16  16   8
#     4  12  21  38  54  82 114 153 195 241 293 341
#     4  12  24  34  55  84 118 152 203 246 296 342
#     4   9  17  33  58  81 111 150 189 235 281 338
#     4   9  19  37  62  92 116 146 189 229 283 346
#     4  10  22  39  57  78 109 153 197 237 287 344
#     4  10  22  40  60  85 117 150 186 234 288 345
#     4  11  22  34  52  76 105 147 195 239 290 340
#
# _framework density 17.360688
#
# number of rings (size 3 to 8) (size 9 to 14) (size 15 to 20)
#    0.000    1.826    3.478    2.087    1.217    1.739 
#    1.565    4.348    0.000    0.000    0.000    0.000 
#    0.000    0.000    0.000    0.000    0.000    0.000 
#
# Total GULP energy -256190.879463 kJ/mol
# GULP energy per Si atom -5569.366945 kJ/mol
# Density = 1.732117 g / cm^3
# Si number density = 17.360688 Si / 1000 Ang^3
#
#
#
# Elastic Constant Matrix: (Units=GPa)
#
#
# Indices 1 2 3 4 5 6 
#
# 1 56.0670 54.4029 54.8654 0.0000 0.0000 0.0000
# 2 54.4029 134.0516 66.3514 0.0000 0.0000 0.0000
# 3 54.8654 66.3514 95.2990 0.0000 0.0000 0.0000
# 4 0.0000 0.0000 0.0000 31.7097 0.0000 0.0000
# 5 0.0000 0.0000 0.0000 0.0000 15.2407 0.0000
# 6 0.0000 0.0000 0.0000 0.0000 0.0000 22.0125
#
#
#
# Elastic Compliance Matrix: (Units=1/GPa)
#
#
# Indices 1 2 3 4 5 6 
#
# 1 0.046530 -0.008582 -0.020813 0.000000 0.000000 0.000000
# 2 -0.008582 0.012965 -0.004086 0.000000 0.000000 0.000000
# 3 -0.020813 -0.004086 0.025321 0.000000 0.000000 0.000000
# 4 0.000000 0.000000 0.000000 0.031536 0.000000 0.000000
# 5 0.000000 0.000000 0.000000 0.000000 0.065614 0.000000
# 6 0.000000 0.000000 0.000000 0.000000 0.000000 0.045429
#
#
# Mechanical properties :
#
#
# Convention : Reuss Voigt Hill
#
# Bulk Modulus (GPa) = 56.01095 70.73966 63.37531
# Shear Modulus (GPa) = 16.64961 21.11246 18.88104
#
# Velocity S-wave (km/s) = 3.10020 3.49106 3.30142
# Velocity P-wave (km/s) = 6.71923 7.55549 7.14960
#
# Compressibility (1/GPa) = 0.01785365
#
# Stress axis : x y z
#
# Youngs Moduli (GPa) = 21.49164 77.13001 39.49305
#
# Poissons Ratio (x) = 0.66189 0.82198
# Poissons Ratio (y) = 0.18443 0.16138
# Poissons Ratio (z) = 0.44731 0.31518
#
# Static dielectric constant tensor:
#      x y z
#    x 1.596850 0.000000 0.000000 
#    y 0.000000 1.564790 0.000000 
#    z 0.000000 0.000000 1.560510 
# 
# From -- ./inp_files/61592.got.cif
#   From: 2010.05.17/outbox.cif.g08.bks.cpg/sg71_31_cif.got.tgz:61592.got - 2010.06.03 16:22:01.
