data_PCOD9523862
_publ_section_title
;
Structure prediction by ZEFSAII (Michael W. Deem and Ramdas Pophale) SiO2 
 PCOD9523862
Probable space group: I M M M
;
_chemical_formula_sum "Si O2"
_cell_formula_units_Z 48
_cell_length_a 15.555386
_cell_length_b 11.094849
_cell_length_c 14.624126
_cell_angle_alpha 90.000000
_cell_angle_beta 90.000000
_cell_angle_gamma 90.000000
_cell_volume 2523.899796
_symmetry_space_group_name_H-M "I M M M"
_symmetry_group_IT_number 71
_symmetry_cell_setting 'orthorhombic'
loop_
_space_group_symop_operation_xyz
x,y,z
-x,-y,z
x,-y,-z
-x,y,-z
-x,-y,-z
x,y,-z
-x,y,z
x,-y,z
1/2+x,1/2+y,1/2+z
1/2-x,1/2-y,1/2+z
1/2+x,1/2-y,1/2-z
1/2-x,1/2+y,1/2-z
1/2-x,1/2-y,1/2-z
1/2+x,1/2+y,1/2-z
1/2-x,1/2+y,1/2+z
1/2+x,1/2-y,1/2+z
loop_
_atom_site_type_symbol
_atom_site_label
_atom_site_fract_x
_atom_site_fract_y
_atom_site_fract_z
Si Si1 0.331958 0.500000 0.897127
Si Si2 0.161274 0.500000 0.000000
Si Si3 0.603312 0.500000 0.608346
Si Si4 0.654102 0.701161 0.249643
Si Si5 0.500000 0.144937 0.699572
Si Si6 0.500000 0.174247 0.500000
O O1 0.227719 0.500000 0.915133
O O2 0.357656 0.615706 0.838476
O O3 0.367740 0.500000 0.000000
O O4 0.093330 0.607899 0.000000
O O5 0.500000 0.500000 0.618766
O O6 0.622377 0.500000 0.500000
O O7 0.640332 0.384909 0.662395
O O8 0.750000 0.750000 0.250000
O O9 0.585197 0.808693 0.250891
O O10 0.500000 0.218362 0.603114
O O11 0.500000 0.000000 0.682600
#
# Coordination Sequence:
#
# PCOD9523862 Si02
#       6
#     8   4   8  16   8   4
#     4   9  22  42  64  88 120 167 230 251 297 369
#     4   9  16  36  62  91 118 148 214 263 318 357
#     4  10  22  43  64  98 133 159 203 268 338 381
#     4  11  24  39  66  95 130 171 210 260 318 382
#     4  12  25  39  62  98 136 163 212 261 333 381
#     4  11  20  32  62  93 130 155 194 268 335 384
#
# _framework density 19.018187000000001
#
# number of rings (size 3 to 8) (size 9 to 14) (size 15 to 20)
#    0.500    1.000    3.333    2.000    7.000    1.333 
#    0.000    1.667    0.000    1.000    0.000    0.000 
#    0.000    0.000    0.000    0.000    0.000    0.000 
#
# Total GULP energy -133765.366683 kJ/mol
# GULP energy per Si atom -5573.556945 kJ/mol
# Density = 1.897490 g / cm^3
# Si number density = 19.018187 Si / 1000 Ang^3
#
#
#
# Elastic Constant Matrix: (Units=GPa)
#
#
# Indices 1 2 3 4 5 6 
#
# 1 121.5162 52.6185 41.9067 0.0000 0.0000 0.0000
# 2 52.6185 109.5428 51.6382 0.0000 0.0000 0.0000
# 3 41.9067 51.6382 145.5324 0.0000 0.0000 0.0000
# 4 0.0000 0.0000 0.0000 -3.4367 0.0000 0.0000
# 5 0.0000 0.0000 0.0000 0.0000 30.8082 0.0000
# 6 0.0000 0.0000 0.0000 0.0000 0.0000 -33.8050
#
#
#
# Elastic Compliance Matrix: (Units=1/GPa)
#
#
# Indices 1 2 3 4 5 6 
#
# 1 0.010658 -0.004410 -0.001504 0.000000 0.000000 0.000000
# 2 -0.004410 0.012788 -0.003267 0.000000 0.000000 0.000000
# 3 -0.001504 -0.003267 0.008464 0.000000 0.000000 0.000000
# 4 0.000000 0.000000 0.000000 -0.290979 0.000000 0.000000
# 5 0.000000 0.000000 0.000000 0.000000 0.032459 0.000000
# 6 0.000000 0.000000 0.000000 0.000000 0.000000 -0.029581
#
#
# Mechanical properties :
#
#
# Convention : Reuss Voigt Hill
#
# Bulk Modulus (GPa) = 73.82501 74.32424 74.07462
# Shear Modulus (GPa) = -21.43035 14.07516 -3.67760
#
# Velocity S-wave (km/s) = -3.36048 2.72341 -1.39209
# Velocity P-wave (km/s) = 4.88316 7.00391 6.03739
#
# Compressibility (1/GPa) = 0.01354555
#
# Stress axis : x y z
#
# Youngs Moduli (GPa) = 93.82753 78.20073 118.15112
#
# Poissons Ratio (x) = 0.34490 0.17770
# Poissons Ratio (y) = 0.41382 0.38604
# Poissons Ratio (z) = 0.14112 0.25551
#
# Static dielectric constant tensor:
#      x y z
#    x 1.657110 0.000000 0.000000 
#    y 0.000000 1.695230 0.000000 
#    z 0.000000 0.000000 1.675280 
# 
# From -- ./inp_files/33557.got.cif
#   From: 2010.05.17/outbox.cif.g08.bks.cpg/sg71_17_cif.got.tgz:33557.got - 2010.06.03 16:22:01.
