data_PCOD9523451
_publ_section_title
;
Structure prediction by ZEFSAII (Michael W. Deem and Ramdas Pophale) SiO2 
 PCOD9523451
Probable space group: I M M M
;
_chemical_formula_sum "Si O2"
_cell_formula_units_Z 64
_cell_length_a 15.414650
_cell_length_b 7.766460
_cell_length_c 28.141046
_cell_angle_alpha 90.000000
_cell_angle_beta 90.000000
_cell_angle_gamma 90.000000
_cell_volume 3368.968995
_symmetry_space_group_name_H-M "I M M M"
_symmetry_group_IT_number 71
_symmetry_cell_setting 'orthorhombic'
loop_
_space_group_symop_operation_xyz
x,y,z
-x,-y,z
x,-y,-z
-x,y,-z
-x,-y,-z
x,y,-z
-x,y,z
x,-y,z
1/2+x,1/2+y,1/2+z
1/2-x,1/2-y,1/2+z
1/2+x,1/2-y,1/2-z
1/2-x,1/2+y,1/2-z
1/2-x,1/2-y,1/2-z
1/2+x,1/2+y,1/2-z
1/2-x,1/2+y,1/2+z
1/2+x,1/2-y,1/2+z
loop_
_atom_site_type_symbol
_atom_site_label
_atom_site_fract_x
_atom_site_fract_y
_atom_site_fract_z
Si Si1 0.194301 0.500000 0.055503
Si Si2 0.329295 0.806636 0.055370
Si Si3 0.000000 0.795168 0.388381
Si Si4 0.103465 0.500000 0.848172
Si Si5 0.000000 0.706451 0.277938
Si Si6 0.832998 0.197667 0.781489
O O1 0.255862 0.665266 0.063681
O O2 0.121490 0.500000 0.095697
O O3 0.166412 0.500000 0.000000
O O4 0.413569 0.776397 0.087113
O O5 0.296125 0.000000 0.062985
O O6 0.355734 0.790016 0.000000
O O7 0.000000 0.748271 0.333288
O O8 0.000000 0.000000 0.394351
O O9 0.147852 0.666390 0.823439
O O10 0.000000 0.500000 0.838897
O O11 0.084251 0.784171 0.252918
O O12 0.000000 0.500000 0.271767
O O13 0.750000 0.250000 0.750000
O O14 0.823674 0.000000 0.797760
#
# Coordination Sequence:
#
# PCOD9523451 Si02
#       6
#     8  16   8   8   8  16
#     4  10  24  44  68  94 123 163 220 280 329 386
#     4  10  21  39  60  89 129 171 216 266 320 381
#     4  12  23  33  56  92 132 177 216 257 315 386
#     4  12  26  47  69  99 132 170 217 264 333 394
#     4  12  24  43  61  93 135 170 219 266 315 382
#     4  12  24  43  67  95 133 176 216 267 318 382
#
# _framework density 18.99691
#
# number of rings (size 3 to 8) (size 9 to 14) (size 15 to 20)
#    0.000    0.750    5.000    2.625    3.500    2.750 
#    0.000    0.000    0.000    0.000    0.000    5.250 
#    0.000    0.000    0.000    0.000    0.000    0.000 
#
# Total GULP energy -178939.007038 kJ/mol
# GULP energy per Si atom -5591.843970 kJ/mol
# Density = 1.895367 g / cm^3
# Si number density = 18.996910 Si / 1000 Ang^3
#
#
#
# Elastic Constant Matrix: (Units=GPa)
#
#
# Indices 1 2 3 4 5 6 
#
# 1 92.0549 25.7675 41.9269 0.0000 0.0000 0.0000
# 2 25.7675 162.5994 41.0277 0.0000 0.0000 0.0000
# 3 41.9269 41.0277 96.2606 0.0000 0.0000 0.0000
# 4 0.0000 0.0000 0.0000 26.1770 0.0000 0.0000
# 5 0.0000 0.0000 0.0000 0.0000 38.1799 0.0000
# 6 0.0000 0.0000 0.0000 0.0000 0.0000 -6.8749
#
#
#
# Elastic Compliance Matrix: (Units=1/GPa)
#
#
# Indices 1 2 3 4 5 6 
#
# 1 0.013631 -0.000742 -0.005621 0.000000 0.000000 0.000000
# 2 -0.000742 0.006932 -0.002631 0.000000 0.000000 0.000000
# 3 -0.005621 -0.002631 0.013958 0.000000 0.000000 0.000000
# 4 0.000000 0.000000 0.000000 0.038202 0.000000 0.000000
# 5 0.000000 0.000000 0.000000 0.000000 0.026192 0.000000
# 6 0.000000 0.000000 0.000000 0.000000 0.000000 -0.145456
#
#
# Mechanical properties :
#
#
# Convention : Reuss Voigt Hill
#
# Bulk Modulus (GPa) = 60.48605 63.15100 61.81852
# Shear Modulus (GPa) = -216.97827 27.64258 -94.66785
#
# Velocity S-wave (km/s) = -10.69886 3.81873 -7.06693
# Velocity P-wave (km/s) = 10.98689 7.26351 5.82895
#
# Compressibility (1/GPa) = 0.01653274
#
# Stress axis : x y z
#
# Youngs Moduli (GPa) = 73.36356 144.26758 71.64308
#
# Poissons Ratio (x) = 0.10702 0.40269
# Poissons Ratio (y) = 0.05442 0.18851
# Poissons Ratio (z) = 0.41236 0.37960
#
# Static dielectric constant tensor:
#      x y z
#    x 1.602910 0.000000 0.000000 
#    y 0.000000 1.677110 0.000000 
#    z 0.000000 0.000000 1.646070 
# 
# From -- ./inp_files/31212.got.cif
#   From: 2010.05.17/outbox.cif.g08.bks.cpg/sg71_16_cif.got.tgz:31212.got - 2010.06.03 16:22:01.
