data_PCOD9523897
_publ_section_title
;
Structure prediction by ZEFSAII (Michael W. Deem and Ramdas Pophale) SiO2 
 PCOD9523897
Probable space group: I M M M
;
_chemical_formula_sum "Si O2"
_cell_formula_units_Z 72
_cell_length_a 8.017015
_cell_length_b 23.928704
_cell_length_c 18.956979
_cell_angle_alpha 90.000000
_cell_angle_beta 90.000000
_cell_angle_gamma 90.000000
_cell_volume 3636.645789
_symmetry_space_group_name_H-M "I M M M"
_symmetry_group_IT_number 71
_symmetry_cell_setting 'orthorhombic'
loop_
_space_group_symop_operation_xyz
x,y,z
-x,-y,z
x,-y,-z
-x,y,-z
-x,-y,-z
x,y,-z
-x,y,z
x,-y,z
1/2+x,1/2+y,1/2+z
1/2-x,1/2-y,1/2+z
1/2+x,1/2-y,1/2-z
1/2-x,1/2+y,1/2-z
1/2-x,1/2-y,1/2-z
1/2+x,1/2+y,1/2-z
1/2-x,1/2+y,1/2+z
1/2+x,1/2-y,1/2+z
loop_
_atom_site_type_symbol
_atom_site_label
_atom_site_fract_x
_atom_site_fract_y
_atom_site_fract_z
Si Si1 0.701818 0.647028 0.418450
Si Si2 0.500000 0.934707 0.417091
Si Si3 0.302202 0.934584 0.201379
Si Si4 0.315524 0.380874 0.843274
Si Si5 0.700803 0.757849 0.668643
O O1 0.755985 0.646976 0.500000
O O2 0.500000 0.644685 0.417388
O O3 0.768101 0.595014 0.373151
O O4 0.749866 0.704188 0.377853
O O5 0.500000 0.924770 0.500000
O O6 0.666161 0.909721 0.384133
O O7 0.500000 0.000000 0.402021
O O8 0.500000 0.931611 0.216595
O O9 0.208461 0.899111 0.261572
O O10 0.253160 0.000000 0.202527
O O11 0.500000 0.397819 0.866297
O O12 0.289754 0.314915 0.853213
O O13 0.500000 0.764804 0.663460
O O14 0.750000 0.750000 0.750000
#
# Coordination Sequence:
#
# PCOD9523897 Si02
#       5
#    16   8  16  16  16
#     4  10  23  41  62  92 130 174 221 272 333 395
#     4  11  26  48  70  98 137 175 216 276 341 394
#     4  11  23  40  64  94 129 172 222 272 327 392
#     4  12  24  42  70 101 131 174 226 272 328 400
#     4  11  21  38  64  97 130 169 219 274 331 394
#
# _framework density 19.798463999999999
#
# number of rings (size 3 to 8) (size 9 to 14) (size 15 to 20)
#    0.000    1.000    4.444    2.000    0.000    6.222 
#    0.000    3.333    0.000    0.000    0.000    0.000 
#    0.000    0.000    0.000    0.000    0.000    0.000 
#
# Total GULP energy -201312.230289 kJ/mol
# GULP energy per Si atom -5592.006397 kJ/mol
# Density = 1.975340 g / cm^3
# Si number density = 19.798464 Si / 1000 Ang^3
#
#
#
# Elastic Constant Matrix: (Units=GPa)
#
#
# Indices 1 2 3 4 5 6 
#
# 1 103.4414 27.8432 28.2134 0.0000 0.0000 0.0000
# 2 27.8432 107.1068 12.2043 0.0000 0.0000 0.0000
# 3 28.2134 12.2043 122.0340 0.0001 0.0000 0.0000
# 4 0.0000 0.0000 0.0001 32.4636 0.0000 0.0000
# 5 0.0000 0.0000 0.0000 0.0000 15.6388 0.0000
# 6 0.0000 0.0000 0.0000 0.0000 0.0000 16.2148
#
#
#
# Elastic Compliance Matrix: (Units=1/GPa)
#
#
# Indices 1 2 3 4 5 6 
#
# 1 0.010988 -0.002597 -0.002281 0.000000 0.000000 0.000000
# 2 -0.002597 0.010058 -0.000406 0.000000 0.000000 0.000000
# 3 -0.002281 -0.000406 0.008762 0.000000 0.000000 0.000000
# 4 0.000000 0.000000 0.000000 0.030804 0.000000 0.000000
# 5 0.000000 0.000000 0.000000 0.000000 0.063944 0.000000
# 6 0.000000 0.000000 0.000000 0.000000 0.000000 0.061672
#
#
# Mechanical properties :
#
#
# Convention : Reuss Voigt Hill
#
# Bulk Modulus (GPa) = 51.96822 52.12267 52.04544
# Shear Modulus (GPa) = 24.60538 30.48486 27.54512
#
# Velocity S-wave (km/s) = 3.52915 3.92823 3.73403
# Velocity P-wave (km/s) = 6.55074 6.85262 6.70338
#
# Compressibility (1/GPa) = 0.01924253
#
# Stress axis : x y z
#
# Youngs Moduli (GPa) = 91.00594 99.42646 114.12549
#
# Poissons Ratio (x) = 0.25817 0.26029
# Poissons Ratio (y) = 0.23631 0.04628
# Poissons Ratio (z) = 0.20756 0.04032
#
# Static dielectric constant tensor:
#      x y z
#    x 1.690430 0.000000 0.000000 
#    y 0.000000 1.692020 0.000000 
#    z 0.000000 0.000000 1.685970 
# 
# From -- ./inp_files/42083.got.cif
#   From: 2010.05.17/outbox.cif.g08.bks.cpg/sg71_22_cif.got.tgz:42083.got - 2010.06.03 16:22:01.
