data_PCOD9523056
_publ_section_title
;
Structure prediction by ZEFSAII (Michael W. Deem and Ramdas Pophale) SiO2 
 PCOD9523056
Probable space group: I M M M
;
_chemical_formula_sum "Si O2"
_cell_formula_units_Z 88
_cell_length_a 24.918691
_cell_length_b 21.559580
_cell_length_c 7.681146
_cell_angle_alpha 90.000000
_cell_angle_beta 90.000000
_cell_angle_gamma 90.000000
_cell_volume 4126.592086
_symmetry_space_group_name_H-M "I M M M"
_symmetry_group_IT_number 71
_symmetry_cell_setting 'orthorhombic'
loop_
_space_group_symop_operation_xyz
x,y,z
-x,-y,z
x,-y,-z
-x,y,-z
-x,-y,-z
x,y,-z
-x,y,z
x,-y,z
1/2+x,1/2+y,1/2+z
1/2-x,1/2-y,1/2+z
1/2+x,1/2-y,1/2-z
1/2-x,1/2+y,1/2-z
1/2-x,1/2-y,1/2-z
1/2+x,1/2+y,1/2-z
1/2-x,1/2+y,1/2+z
1/2+x,1/2-y,1/2+z
loop_
_atom_site_type_symbol
_atom_site_label
_atom_site_fract_x
_atom_site_fract_y
_atom_site_fract_z
Si Si1 0.284410 0.931706 0.706622
Si Si2 0.000000 0.661899 0.712080
Si Si3 0.280914 0.686174 0.209820
Si Si4 0.408737 0.931096 0.789692
Si Si5 0.608474 0.369265 0.202678
Si Si6 0.436543 0.500000 0.785903
Si Si7 0.000000 0.804204 0.799301
O O1 0.273786 0.933851 0.500000
O O2 0.252916 0.872808 0.776576
O O3 0.347752 0.922491 0.732251
O O4 0.270342 0.000000 0.778666
O O5 0.051747 0.622633 0.768657
O O6 0.000000 0.665311 0.500000
O O7 0.000000 0.730553 0.783172
O O8 0.250000 0.750000 0.250000
O O9 0.341760 0.671672 0.272743
O O10 0.282095 0.685375 0.000000
O O11 0.426430 0.000000 0.732808
O O12 0.409608 0.930965 0.000000
O O13 0.594128 0.437703 0.274441
O O14 0.553586 0.331157 0.215049
O O15 0.621331 0.380354 0.000000
O O16 0.500000 0.500000 0.735208
O O17 0.437026 0.500000 0.000000
O O18 0.000000 0.823400 0.000000
#
# Coordination Sequence:
#
# PCOD9523056 Si02
#       7
#    16   8  16  16  16   8   8
#     4   9  19  36  56  82 116 150 185 230 283 336
#     4  10  21  36  57  81 110 147 191 237 280 338
#     4  10  23  39  60  86 117 155 196 243 288 342
#     4   9  18  34  57  83 109 142 186 234 282 333
#     4  10  21  40  64  89 115 151 196 239 289 349
#     4   9  16  32  64  96 116 142 190 247 290 347
#     4  12  26  40  56  83 119 155 188 233 288 347
#
# _framework density 21.325104
#
# number of rings (size 3 to 8) (size 9 to 14) (size 15 to 20)
#    0.000    2.273    0.909    1.091    3.818    3.273 
#    0.000    0.909    0.000    2.727    0.000    0.000 
#    0.000    0.000    0.000    0.000    0.000    0.000 
#
# Total GULP energy -245550.729769 kJ/mol
# GULP energy per Si atom -5580.698404 kJ/mol
# Density = 2.127657 g / cm^3
# Si number density = 21.325104 Si / 1000 Ang^3
#
#
#
# Elastic Constant Matrix: (Units=GPa)
#
#
# Indices 1 2 3 4 5 6 
#
# 1 143.1523 117.3495 -0.7215 0.0000 0.0000 0.0000
# 2 117.3495 196.9447 1.5839 0.0000 0.0000 0.0000
# 3 -0.7215 1.5839 38.5015 0.0000 0.0000 0.0000
# 4 0.0000 0.0000 0.0000 10.3544 0.0000 0.0000
# 5 0.0000 0.0000 0.0000 0.0000 14.9345 0.0000
# 6 0.0000 0.0000 0.0000 0.0000 0.0000 26.0929
#
#
#
# Elastic Compliance Matrix: (Units=1/GPa)
#
#
# Indices 1 2 3 4 5 6 
#
# 1 0.013669 -0.008149 0.000591 0.000000 0.000000 0.000000
# 2 -0.008149 0.009938 -0.000562 0.000000 0.000000 0.000000
# 3 0.000591 -0.000562 0.026007 0.000000 0.000000 0.000000
# 4 0.000000 0.000000 0.000000 0.096577 0.000000 0.000000
# 5 0.000000 0.000000 0.000000 0.000000 0.066959 0.000000
# 6 0.000000 0.000000 0.000000 0.000000 0.000000 0.038325
#
#
# Mechanical properties :
#
#
# Convention : Reuss Voigt Hill
#
# Bulk Modulus (GPa) = 29.96253 68.33580 49.14916
# Shear Modulus (GPa) = 17.93147 27.63546 22.78347
#
# Velocity S-wave (km/s) = 2.90291 3.60378 3.27217
# Velocity P-wave (km/s) = 5.03157 7.03070 6.11340
#
# Compressibility (1/GPa) = 0.03337502
#
# Stress axis : x y z
#
# Youngs Moduli (GPa) = 73.15759 100.62429 38.45086
#
# Poissons Ratio (x) = 0.82004 -0.02274
# Poissons Ratio (y) = 0.59620 0.02159
# Poissons Ratio (z) = -0.04326 0.05650
#
# Static dielectric constant tensor:
#      x y z
#    x 1.759800 0.000000 0.000000 
#    y 0.000000 1.762960 0.000000 
#    z 0.000000 0.000000 1.816360 
# 
# From -- ./inp_files/12616.got.cif
#   From: 2010.05.17/outbox.cif.g08.bks.cpg/sg71_7_cif.got.tgz:12616.got - 2010.06.03 16:22:01.
