data_PCOD9523268
_publ_section_title
;
Structure prediction by ZEFSAII (Michael W. Deem and Ramdas Pophale) SiO2 
 PCOD9523268
Probable space group: I M M M
;
_chemical_formula_sum "Si O2"
_cell_formula_units_Z 88
_cell_length_a 17.238586
_cell_length_b 29.469856
_cell_length_c 7.879995
_cell_angle_alpha 90.000000
_cell_angle_beta 90.000000
_cell_angle_gamma 90.000000
_cell_volume 4003.184399
_symmetry_space_group_name_H-M "I M M M"
_symmetry_group_IT_number 71
_symmetry_cell_setting 'orthorhombic'
loop_
_space_group_symop_operation_xyz
x,y,z
-x,-y,z
x,-y,-z
-x,y,-z
-x,-y,-z
x,y,-z
-x,y,z
x,-y,z
1/2+x,1/2+y,1/2+z
1/2-x,1/2-y,1/2+z
1/2+x,1/2-y,1/2-z
1/2-x,1/2+y,1/2-z
1/2-x,1/2-y,1/2-z
1/2+x,1/2+y,1/2-z
1/2-x,1/2+y,1/2+z
1/2+x,1/2-y,1/2+z
loop_
_atom_site_type_symbol
_atom_site_label
_atom_site_fract_x
_atom_site_fract_y
_atom_site_fract_z
Si Si1 0.410583 0.638880 0.207923
Si Si2 0.913789 0.320738 0.799236
Si Si3 0.177090 0.051009 0.699866
Si Si4 0.338202 0.907079 0.801331
Si Si5 0.834285 0.231127 0.702594
Si Si6 0.000000 0.446987 0.705553
O O1 0.500000 0.645959 0.255837
O O2 0.378165 0.590569 0.270350
O O3 0.357400 0.681044 0.265205
O O4 0.407596 0.638158 0.000000
O O5 0.848405 0.353155 0.720434
O O6 0.894889 0.268566 0.766246
O O7 0.000000 0.331662 0.731038
O O8 0.913020 0.328724 0.000000
O O9 0.159380 0.047552 0.500000
O O10 0.264115 0.070450 0.716731
O O11 0.171184 0.000000 0.772107
O O12 0.419770 0.925975 0.730699
O O13 0.333014 0.918252 0.000000
O O14 0.838345 0.229741 0.500000
O O15 0.750000 0.250000 0.750000
O O16 0.000000 0.500000 0.741225
O O17 0.000000 0.440760 0.500000
#
# Coordination Sequence:
#
# PCOD9523268 Si02
#       6
#    16  16  16  16  16   8
#     4   9  19  37  60  86 116 153 199 249 294 345
#     4  11  23  38  57  83 119 157 196 247 302 356
#     4  10  21  37  59  88 120 152 191 245 308 366
#     4  11  21  36  58  83 116 157 203 248 296 359
#     4  11  22  37  60  88 120 158 201 247 299 360
#     4   9  18  32  51  77 109 147 195 247 290 341
#
# _framework density 21.982500999999999
#
# number of rings (size 3 to 8) (size 9 to 14) (size 15 to 20)
#    0.000    1.727    0.909    3.818    0.000    4.727 
#    0.000    2.727    0.000    4.909    0.000    1.273 
#    0.000    0.000    0.000    0.000    0.000    0.000 
#
# Total GULP energy -245886.000559 kJ/mol
# GULP energy per Si atom -5588.318195 kJ/mol
# Density = 2.193247 g / cm^3
# Si number density = 21.982501 Si / 1000 Ang^3
#
#
#
# Elastic Constant Matrix: (Units=GPa)
#
#
# Indices 1 2 3 4 5 6 
#
# 1 113.3927 68.3904 -3.2961 -0.0006 0.0001 -0.0003
# 2 68.3904 174.6024 -0.1943 0.0010 0.0005 0.0005
# 3 -3.2961 -0.1943 30.0205 -0.0034 0.0045 0.0017
# 4 -0.0006 0.0010 -0.0034 17.0089 0.0013 0.0012
# 5 0.0001 0.0005 0.0045 0.0013 18.7151 0.0002
# 6 -0.0003 0.0005 0.0017 0.0012 0.0002 31.2286
#
#
#
# Elastic Compliance Matrix: (Units=1/GPa)
#
#
# Indices 1 2 3 4 5 6 
#
# 1 0.011593 -0.004539 0.001243 0.000001 0.000000 0.000000
# 2 -0.004539 0.007505 -0.000450 -0.000001 0.000000 0.000000
# 3 0.001243 -0.000450 0.033444 0.000007 -0.000008 -0.000002
# 4 0.000001 -0.000001 0.000007 0.058793 -0.000004 -0.000002
# 5 0.000000 0.000000 -0.000008 -0.000004 0.053433 0.000000
# 6 0.000000 0.000000 -0.000002 -0.000002 0.000000 0.032022
#
#
# Mechanical properties :
#
#
# Convention : Reuss Voigt Hill
#
# Bulk Modulus (GPa) = 22.19743 49.75730 35.97736
# Shear Modulus (GPa) = 22.80001 30.26488 26.53245
#
# Velocity S-wave (km/s) = 3.22404 3.71451 3.47793
# Velocity P-wave (km/s) = 4.89683 6.40944 5.70350
#
# Compressibility (1/GPa) = 0.04505026
#
# Stress axis : x y z
#
# Youngs Moduli (GPa) = 86.25926 133.24656 29.90060
#
# Poissons Ratio (x) = 0.60487 -0.03718
# Poissons Ratio (y) = 0.39157 0.01345
# Poissons Ratio (z) = -0.10726 0.05994
#
# Static dielectric constant tensor:
#      x y z
#    x 1.785420 0.000000 0.000000 
#    y 0.000000 1.827460 0.000000 
#    z 0.000000 0.000000 1.810650 
# 
# From -- ./inp_files/8721.got.cif
#   From: 2010.05.17/outbox.cif.g08.bks.cpg/sg71_5_cif.got.tgz:8721.got - 2010.06.03 16:22:01.
