data_PCOD9523563
_publ_section_title
;
Structure prediction by ZEFSAII (Michael W. Deem and Ramdas Pophale) SiO2 
 PCOD9523563
Probable space group: I M M M
;
_chemical_formula_sum "Si O2"
_cell_formula_units_Z 90
_cell_length_a 21.043320
_cell_length_b 7.482031
_cell_length_c 25.714878
_cell_angle_alpha 90.000000
_cell_angle_beta 90.000000
_cell_angle_gamma 90.000000
_cell_volume 4048.724548
_symmetry_space_group_name_H-M "I M M M"
_symmetry_group_IT_number 71
_symmetry_cell_setting 'orthorhombic'
loop_
_space_group_symop_operation_xyz
x,y,z
-x,-y,z
x,-y,-z
-x,y,-z
-x,-y,-z
x,y,-z
-x,y,z
x,-y,z
1/2+x,1/2+y,1/2+z
1/2-x,1/2-y,1/2+z
1/2+x,1/2-y,1/2-z
1/2-x,1/2+y,1/2-z
1/2-x,1/2-y,1/2-z
1/2+x,1/2+y,1/2-z
1/2-x,1/2+y,1/2+z
1/2+x,1/2-y,1/2+z
loop_
_atom_site_type_symbol
_atom_site_label
_atom_site_fract_x
_atom_site_fract_y
_atom_site_fract_z
Si Si1 0.691809 0.718369 0.500000
Si Si2 0.572593 0.217751 0.905542
Si Si3 0.809670 0.205669 0.214571
Si Si4 0.000000 0.786916 0.906368
Si Si5 0.071631 0.284358 0.713227
Si Si6 0.660983 0.218399 0.000000
Si Si7 0.639701 0.283696 0.610491
Si Si8 0.500000 0.000000 0.500000
O O1 0.689644 0.500000 0.500000
O O2 0.765600 0.771981 0.500000
O O3 0.657940 0.781142 0.447114
O O4 0.500000 0.270449 0.918481
O O5 0.586108 0.273668 0.846218
O O6 0.622691 0.276914 0.948695
O O7 0.573505 0.000000 0.905814
O O8 0.750000 0.250000 0.250000
O O9 0.873942 0.229017 0.247342
O O10 0.818041 0.290391 0.157562
O O11 0.801131 0.000000 0.202910
O O12 0.065856 0.750034 0.877095
O O13 0.000000 0.000000 0.920410
O O14 0.000000 0.657481 0.955252
O O15 0.070872 0.500000 0.712672
O O16 0.000000 0.223708 0.726348
O O17 0.660564 0.000000 0.000000
O O18 0.646232 0.500000 0.607462
#
# Coordination Sequence:
#
# PCOD9523563 Si02
#       8
#     8  16  16   8  16   8  16   2
#     4   9  17  29  48  79 105 139 184 232 285 355
#     4   8  14  25  43  71 107 142 179 222 280 335
#     4  11  24  40  61  88 118 160 206 256 315 378
#     4  10  21  41  65  92 131 169 208 272 320 381
#     4   9  19  36  58  85 118 156 191 239 299 358
#     4   9  15  21  41  72 106 142 180 231 271 329
#     4   9  20  38  61  83 113 156 203 247 314 376
#     4  12  22  36  64 110 128 168 218 248 334 400
#
# _framework density 22.229222
#
# number of rings (size 3 to 8) (size 9 to 14) (size 15 to 20)
#    0.000    2.667    0.000    2.533    3.733    2.844 
#    3.200    0.000    0.000    0.000    0.000    1.867 
#    0.000    2.844    0.000    0.000    0.000    0.000 
#
# Total GULP energy -250958.535389 kJ/mol
# GULP energy per Si atom -5576.856342 kJ/mol
# Density = 2.217863 g / cm^3
# Si number density = 22.229222 Si / 1000 Ang^3
#
#
#
# Elastic Constant Matrix: (Units=GPa)
#
#
# Indices 1 2 3 4 5 6 
#
# 1 124.3676 -5.1831 92.1554 0.0000 0.0000 0.0000
# 2 -5.1831 62.5923 -4.3570 0.0000 0.0000 0.0000
# 3 92.1554 -4.3570 151.2296 0.0000 0.0000 0.0000
# 4 0.0000 0.0000 0.0000 20.2428 0.0000 0.0000
# 5 0.0000 0.0000 0.0000 0.0000 -85.6739 0.0000
# 6 0.0000 0.0000 0.0000 0.0000 0.0000 8.9195
#
#
#
# Elastic Compliance Matrix: (Units=1/GPa)
#
#
# Indices 1 2 3 4 5 6 
#
# 1 0.014683 0.000594 -0.008930 0.000000 0.000000 0.000000
# 2 0.000594 0.016033 0.000100 0.000000 0.000000 0.000000
# 3 -0.008930 0.000100 0.012057 0.000000 0.000000 0.000000
# 4 0.000000 0.000000 0.000000 0.049400 0.000000 0.000000
# 5 0.000000 0.000000 0.000000 0.000000 -0.011672 0.000000
# 6 0.000000 0.000000 0.000000 0.000000 0.000000 0.112114
#
#
# Mechanical properties :
#
#
# Convention : Reuss Voigt Hill
#
# Bulk Modulus (GPa) = 38.02264 55.93557 46.97910
# Shear Modulus (GPa) = 22.95128 5.73596 14.34362
#
# Velocity S-wave (km/s) = 3.21671 1.60810 2.54295
# Velocity P-wave (km/s) = 5.56222 5.35403 5.45912
#
# Compressibility (1/GPa) = 0.02630012
#
# Stress axis : x y z
#
# Youngs Moduli (GPa) = 68.10817 62.37307 82.93891
#
# Poissons Ratio (x) = -0.03706 0.74065
# Poissons Ratio (y) = -0.04047 -0.00828
# Poissons Ratio (z) = 0.60821 -0.00623
#
# Static dielectric constant tensor:
#      x y z
#    x 1.751450 0.000000 0.000000 
#    y 0.000000 1.929690 0.000000 
#    z 0.000000 0.000000 1.808110 
# 
# From -- ./inp_files/61190.got.cif
#   From: 2010.05.17/outbox.cif.g08.bks.cpg/sg71_31_cif.got.tgz:61190.got - 2010.06.03 16:22:01.
