data_PCOD9523397
_publ_section_title
;
Structure prediction by ZEFSAII (Michael W. Deem and Ramdas Pophale) SiO2 
 PCOD9523397
Probable space group: I M M M
;
_chemical_formula_sum "Si O2"
_cell_formula_units_Z 64
_cell_length_a 21.053487
_cell_length_b 18.245629
_cell_length_c 8.865077
_cell_angle_alpha 90.000000
_cell_angle_beta 90.000000
_cell_angle_gamma 90.000000
_cell_volume 3405.378490
_symmetry_space_group_name_H-M "I M M M"
_symmetry_group_IT_number 71
_symmetry_cell_setting 'orthorhombic'
loop_
_space_group_symop_operation_xyz
x,y,z
-x,-y,z
x,-y,-z
-x,y,-z
-x,-y,-z
x,y,-z
-x,y,z
x,-y,z
1/2+x,1/2+y,1/2+z
1/2-x,1/2-y,1/2+z
1/2+x,1/2-y,1/2-z
1/2-x,1/2+y,1/2-z
1/2-x,1/2-y,1/2-z
1/2+x,1/2+y,1/2-z
1/2-x,1/2+y,1/2+z
1/2+x,1/2-y,1/2+z
loop_
_atom_site_type_symbol
_atom_site_label
_atom_site_fract_x
_atom_site_fract_y
_atom_site_fract_z
Si Si1 0.878819 0.085875 0.681468
Si Si2 0.371423 0.914371 0.181779
Si Si3 0.000000 0.328396 0.681824
Si Si4 0.248524 0.330951 0.180829
Si Si5 0.500000 0.666717 0.320327
O O1 0.886744 0.091333 0.500000
O O2 0.813041 0.125861 0.721392
O O3 0.937878 0.125130 0.759430
O O4 0.876229 0.000000 0.720787
O O5 0.436878 0.873665 0.222352
O O6 0.312067 0.874630 0.257702
O O7 0.373942 0.000000 0.222959
O O8 0.364754 0.909735 0.000000
O O9 0.000000 0.249267 0.757678
O O10 0.000000 0.318918 0.500000
O O11 0.250000 0.250000 0.250000
O O12 0.245421 0.326174 0.000000
O O13 0.500000 0.667301 0.500000
#
# Coordination Sequence:
#
# PCOD9523397 Si02
#       5
#    16  16   8  16   8
#     4  10  22  41  62  82 110 152 195 232 279 344
#     4  10  21  38  61  88 117 151 193 240 287 337
#     4  10  21  39  61  84 115 157 197 230 276 344
#     4  11  23  39  60  87 118 153 194 238 286 342
#     4  12  25  38  57  88 119 146 185 240 292 336
#
# _framework density 18.793799
#
# number of rings (size 3 to 8) (size 9 to 14) (size 15 to 20)
#    0.000    1.500    0.000    4.875    0.000   14.000 
#    0.000    0.000    0.000    2.250    0.000    0.000 
#    0.000    0.000    0.000    0.000    0.000    0.000 
#
# Total GULP energy -178978.387546 kJ/mol
# GULP energy per Si atom -5593.074611 kJ/mol
# Density = 1.875102 g / cm^3
# Si number density = 18.793799 Si / 1000 Ang^3
#
#
#
# Elastic Constant Matrix: (Units=GPa)
#
#
# Indices 1 2 3 4 5 6 
#
# 1 237.6863 149.5292 82.5440 0.0000 0.0000 0.0000
# 2 149.5292 236.2950 79.5083 0.0000 0.0000 0.0000
# 3 82.5440 79.5083 42.5206 0.0000 0.0000 0.0000
# 4 0.0000 0.0000 0.0000 26.8690 0.0000 0.0000
# 5 0.0000 0.0000 0.0000 0.0000 36.7384 0.0000
# 6 0.0000 0.0000 0.0000 0.0000 0.0000 45.0578
#
#
#
# Elastic Compliance Matrix: (Units=1/GPa)
#
#
# Indices 1 2 3 4 5 6 
#
# 1 0.012957 0.000712 -0.026484 0.000000 0.000000 0.000000
# 2 0.000712 0.011452 -0.022796 0.000000 0.000000 0.000000
# 3 -0.026484 -0.022796 0.117557 0.000000 0.000000 0.000000
# 4 0.000000 0.000000 0.000000 0.037218 0.000000 0.000000
# 5 0.000000 0.000000 0.000000 0.000000 0.027219 0.000000
# 6 0.000000 0.000000 0.000000 0.000000 0.000000 0.022194
#
#
# Mechanical properties :
#
#
# Convention : Reuss Voigt Hill
#
# Bulk Modulus (GPa) = 22.30688 126.62942 74.46815
# Shear Modulus (GPa) = 14.67678 35.39441 25.03559
#
# Velocity S-wave (km/s) = 2.79756 4.34441 3.65378
# Velocity P-wave (km/s) = 4.72548 9.62755 7.58353
#
# Compressibility (1/GPa) = 0.04482922
#
# Stress axis : x y z
#
# Youngs Moduli (GPa) = 77.18125 87.32442 8.50653
#
# Poissons Ratio (x) = -0.06221 0.22529
# Poissons Ratio (y) = -0.05498 0.19391
# Poissons Ratio (z) = 2.04408 1.99064
#
# Static dielectric constant tensor:
#      x y z
#    x 1.613310 0.000000 0.000000 
#    y 0.000000 1.616090 0.000000 
#    z 0.000000 0.000000 1.647700 
# 
# From -- ./inp_files/9534.got.cif
#   From: 2010.05.17/outbox.cif.g08.bks.cpg/sg71_5_cif.got.tgz:9534.got - 2010.06.03 16:22:01.
