data_PCOD9523914
_publ_section_title
;
Structure prediction by ZEFSAII (Michael W. Deem and Ramdas Pophale) SiO2 
 PCOD9523914
Probable space group: I M M M
;
_chemical_formula_sum "Si O2"
_cell_formula_units_Z 72
_cell_length_a 15.420997
_cell_length_b 10.311661
_cell_length_c 24.056978
_cell_angle_alpha 90.000000
_cell_angle_beta 90.000000
_cell_angle_gamma 90.000000
_cell_volume 3825.446659
_symmetry_space_group_name_H-M "I M M M"
_symmetry_group_IT_number 71
_symmetry_cell_setting 'orthorhombic'
loop_
_space_group_symop_operation_xyz
x,y,z
-x,-y,z
x,-y,-z
-x,y,-z
-x,-y,-z
x,y,-z
-x,y,z
x,-y,z
1/2+x,1/2+y,1/2+z
1/2-x,1/2-y,1/2+z
1/2+x,1/2-y,1/2-z
1/2-x,1/2+y,1/2-z
1/2-x,1/2-y,1/2-z
1/2+x,1/2+y,1/2-z
1/2-x,1/2+y,1/2+z
1/2+x,1/2-y,1/2+z
loop_
_atom_site_type_symbol
_atom_site_label
_atom_site_fract_x
_atom_site_fract_y
_atom_site_fract_z
Si Si1 0.606405 0.000000 0.564978
Si Si2 0.641158 0.000000 0.066596
Si Si3 0.332819 0.343679 0.745289
Si Si4 0.664545 0.500000 0.434835
Si Si5 0.500000 0.347435 0.817809
Si Si6 0.500000 0.783173 0.066955
Si Si7 0.100408 0.242540 0.874147
O O1 0.637714 0.873399 0.598553
O O2 0.500000 0.000000 0.564013
O O3 0.633279 0.000000 0.500000
O O4 0.583656 0.126222 0.078910
O O5 0.737747 0.000000 0.090541
O O6 0.647531 0.000000 0.000000
O O7 0.315950 0.500000 0.751963
O O8 0.250000 0.250000 0.750000
O O9 0.411135 0.302565 0.787267
O O10 0.364020 0.313623 0.683037
O O11 0.674071 0.500000 0.500000
O O12 0.614213 0.627449 0.417244
O O13 0.500000 0.500000 0.807824
O O14 0.500000 0.321175 0.883871
O O15 0.500000 0.749445 0.000000
O O16 0.000000 0.269482 0.864602
#
# Coordination Sequence:
#
# PCOD9523914 Si02
#       7
#     8   8  16   8   8   8  16
#     4   9  20  38  59  86 123 164 202 244 301 366
#     4   8  18  36  56  86 124 152 184 254 312 355
#     4  11  25  44  64  91 126 165 211 262 321 378
#     4  11  22  34  61  95 121 155 210 255 307 375
#     4  10  23  42  64  88 126 161 199 261 322 372
#     4   9  18  37  63  87 117 157 201 250 318 381
#     4  11  22  39  62  85 124 164 201 257 312 367
#
# _framework density 18.821331000000001
#
# number of rings (size 3 to 8) (size 9 to 14) (size 15 to 20)
#    0.000    1.889    2.222    1.667    4.667    2.000 
#    2.000    0.000    0.000    0.000    0.000    0.000 
#    0.000    0.000    0.000    0.000    0.000    0.000 
#
# Total GULP energy -200515.947758 kJ/mol
# GULP energy per Si atom -5569.887438 kJ/mol
# Density = 1.877849 g / cm^3
# Si number density = 18.821331 Si / 1000 Ang^3
#
#
#
# Elastic Constant Matrix: (Units=GPa)
#
#
# Indices 1 2 3 4 5 6 
#
# 1 57.7428 17.7612 27.7210 0.0000 0.0000 0.0000
# 2 17.7612 97.2530 23.6465 0.0000 0.0000 0.0000
# 3 27.7210 23.6465 83.7579 0.0000 0.0000 0.0000
# 4 0.0000 0.0000 0.0000 43.9835 0.0000 0.0000
# 5 0.0000 0.0000 0.0000 0.0000 15.9454 0.0000
# 6 0.0000 0.0000 0.0000 0.0000 0.0000 17.6372
#
#
#
# Elastic Compliance Matrix: (Units=1/GPa)
#
#
# Indices 1 2 3 4 5 6 
#
# 1 0.021062 -0.002310 -0.006319 0.000000 0.000000 0.000000
# 2 -0.002310 0.011294 -0.002424 0.000000 0.000000 0.000000
# 3 -0.006319 -0.002424 0.014715 0.000000 0.000000 0.000000
# 4 0.000000 0.000000 0.000000 0.022736 0.000000 0.000000
# 5 0.000000 0.000000 0.000000 0.000000 0.062714 0.000000
# 6 0.000000 0.000000 0.000000 0.000000 0.000000 0.056698
#
#
# Mechanical properties :
#
#
# Convention : Reuss Voigt Hill
#
# Bulk Modulus (GPa) = 40.05570 41.89014 40.97292
# Shear Modulus (GPa) = 22.76392 26.82156 24.79274
#
# Velocity S-wave (km/s) = 3.48152 3.77909 3.63336
# Velocity P-wave (km/s) = 6.12288 6.43017 6.27840
#
# Compressibility (1/GPa) = 0.02496524
#
# Stress axis : x y z
#
# Youngs Moduli (GPa) = 47.47837 88.54488 67.95916
#
# Poissons Ratio (x) = 0.20456 0.42941
# Poissons Ratio (y) = 0.10969 0.16472
# Poissons Ratio (z) = 0.30000 0.21462
#
# Static dielectric constant tensor:
#      x y z
#    x 1.710610 0.000000 0.000000 
#    y 0.000000 1.639990 0.000000 
#    z 0.000000 0.000000 1.665660 
# 
# From -- ./inp_files/65219.got.cif
#   From: 2010.05.17/outbox.cif.g08.bks.cpg/sg71_33_cif.got.tgz:65219.got - 2010.06.03 16:22:01.
