data_PCOD9523809
_publ_section_title
;
Structure prediction by ZEFSAII (Michael W. Deem and Ramdas Pophale) SiO2 
 PCOD9523809
Probable space group: I M M M
;
_chemical_formula_sum "Si O2"
_cell_formula_units_Z 108
_cell_length_a 11.664887
_cell_length_b 28.932242
_cell_length_c 15.075285
_cell_angle_alpha 90.000000
_cell_angle_beta 90.000000
_cell_angle_gamma 90.000000
_cell_volume 5087.778039
_symmetry_space_group_name_H-M "I M M M"
_symmetry_group_IT_number 71
_symmetry_cell_setting 'orthorhombic'
loop_
_space_group_symop_operation_xyz
x,y,z
-x,-y,z
x,-y,-z
-x,y,-z
-x,-y,-z
x,y,-z
-x,y,z
x,-y,z
1/2+x,1/2+y,1/2+z
1/2-x,1/2-y,1/2+z
1/2+x,1/2-y,1/2-z
1/2-x,1/2+y,1/2-z
1/2-x,1/2-y,1/2-z
1/2+x,1/2+y,1/2-z
1/2-x,1/2+y,1/2+z
1/2+x,1/2-y,1/2+z
loop_
_atom_site_type_symbol
_atom_site_label
_atom_site_fract_x
_atom_site_fract_y
_atom_site_fract_z
Si Si1 0.807958 0.947548 0.737921
Si Si2 0.126159 0.781868 0.603493
Si Si3 0.163981 0.325164 0.360021
Si Si4 0.000000 0.634080 0.500000
Si Si5 0.367718 0.928875 0.595822
Si Si6 0.000000 0.056494 0.601018
Si Si7 0.371241 0.175475 0.346263
Si Si8 0.865160 0.880898 0.896658
O O1 0.690037 0.947521 0.684420
O O2 0.815083 0.917121 0.825557
O O3 0.892583 0.928929 0.660793
O O4 0.842235 0.000000 0.759862
O O5 0.124581 0.794214 0.500000
O O6 0.128390 0.726314 0.612813
O O7 0.250446 0.798322 0.638112
O O8 0.000000 0.797376 0.641158
O O9 0.131289 0.333124 0.258878
O O10 0.298046 0.333623 0.376744
O O11 0.098778 0.360728 0.422967
O O12 0.315425 0.943076 0.500000
O O13 0.500000 0.942318 0.594654
O O14 0.362773 0.873319 0.603760
O O15 0.000000 0.073595 0.500000
O O16 0.000000 0.000000 0.596856
O O17 0.500000 0.195395 0.367569
O O18 0.000000 0.876912 0.880475
O O19 0.849671 0.893915 0.000000
#
# Coordination Sequence:
#
# PCOD9523809 Si02
#       8
#    16  16  16   4  16   8  16  16
#     4  11  22  40  65  91 122 162 208 258 313 381
#     4  11  22  40  62  91 130 169 215 262 312 371
#     4  12  21  40  66  90 120 166 211 260 313 374
#     4  12  20  40  70  90 117 160 222 252 315 372
#     4  10  22  41  63  90 129 169 207 257 317 380
#     4   9  18  34  59  90 120 152 196 247 300 363
#     4  11  23  38  63  94 127 169 214 260 318 379
#     4  11  24  41  63  94 129 165 210 263 320 380
#
# _framework density 21.227340999999999
#
# number of rings (size 3 to 8) (size 9 to 14) (size 15 to 20)
#    0.000    1.111    5.185    1.333    0.000    3.556 
#    1.333    1.481    0.000    0.000    0.000    1.556 
#    0.000    0.000    0.000    0.000    0.000    0.000 
#
# Total GULP energy -300748.562729 kJ/mol
# GULP energy per Si atom -5569.417828 kJ/mol
# Density = 2.117903 g / cm^3
# Si number density = 21.227341 Si / 1000 Ang^3
#
#
#
# Elastic Constant Matrix: (Units=GPa)
#
#
# Indices 1 2 3 4 5 6 
#
# 1 149.3976 37.1131 56.6700 -0.0001 0.0000 0.0015
# 2 37.1131 31.2885 13.9661 0.0000 0.0000 -0.0027
# 3 56.6700 13.9661 122.2431 0.0004 0.0001 -0.0017
# 4 -0.0001 0.0000 0.0004 -71.4533 -0.0001 -0.0035
# 5 0.0000 0.0000 0.0001 -0.0001 36.1732 -0.0004
# 6 0.0015 -0.0027 -0.0017 -0.0035 -0.0004 120.4018
#
#
#
# Elastic Compliance Matrix: (Units=1/GPa)
#
#
# Indices 1 2 3 4 5 6 
#
# 1 0.010928 -0.011276 -0.003778 0.000000 0.000000 0.000000
# 2 -0.011276 0.045313 0.000050 0.000000 0.000000 0.000001
# 3 -0.003778 0.000050 0.009926 0.000000 0.000000 0.000000
# 4 0.000000 0.000000 0.000000 -0.013995 0.000000 0.000000
# 5 0.000000 0.000000 0.000000 0.000000 0.027645 0.000000
# 6 0.000000 0.000001 0.000000 0.000000 0.000000 0.008306
#
#
# Mechanical properties :
#
#
# Convention : Reuss Voigt Hill
#
# Bulk Modulus (GPa) = 27.65460 57.60307 42.62883
# Shear Modulus (GPa) = 38.40816 30.03635 34.22225
#
# Velocity S-wave (km/s) = 4.25829 3.76571 4.01955
# Velocity P-wave (km/s) = 6.10192 6.78989 6.45508
#
# Compressibility (1/GPa) = 0.03616036
#
# Stress axis : x y z
#
# Youngs Moduli (GPa) = 91.51184 22.06884 100.74623
#
# Poissons Ratio (x) = 0.24884 0.38058
# Poissons Ratio (y) = 1.03185 -0.00506
# Poissons Ratio (z) = 0.34570 -0.00111
#
# Static dielectric constant tensor:
#      x y z
#    x 1.897660 0.000000 0.000000 
#    y 0.000000 1.780800 0.000000 
#    z 0.000000 0.000000 1.738880 
# 
# From -- ./inp_files/33314.got.cif
#   From: 2010.05.17/outbox.cif.g08.bks.cpg/sg71_17_cif.got.tgz:33314.got - 2010.06.03 16:22:01.
