data_PCOD9523886
_publ_section_title
;
Structure prediction by ZEFSAII (Michael W. Deem and Ramdas Pophale) SiO2 
 PCOD9523886
Probable space group: I M M M
;
_chemical_formula_sum "Si O2"
_cell_formula_units_Z 64
_cell_length_a 9.786237
_cell_length_b 19.677223
_cell_length_c 16.259337
_cell_angle_alpha 90.000000
_cell_angle_beta 90.000000
_cell_angle_gamma 90.000000
_cell_volume 3130.994965
_symmetry_space_group_name_H-M "I M M M"
_symmetry_group_IT_number 71
_symmetry_cell_setting 'orthorhombic'
loop_
_space_group_symop_operation_xyz
x,y,z
-x,-y,z
x,-y,-z
-x,y,-z
-x,-y,-z
x,y,-z
-x,y,z
x,-y,z
1/2+x,1/2+y,1/2+z
1/2-x,1/2-y,1/2+z
1/2+x,1/2-y,1/2-z
1/2-x,1/2+y,1/2-z
1/2-x,1/2-y,1/2-z
1/2+x,1/2+y,1/2-z
1/2-x,1/2+y,1/2+z
1/2+x,1/2-y,1/2+z
loop_
_atom_site_type_symbol
_atom_site_label
_atom_site_fract_x
_atom_site_fract_y
_atom_site_fract_z
Si Si1 0.500000 0.000000 0.776117
Si Si2 0.793855 0.849175 0.905645
Si Si3 0.000000 0.826211 0.500000
Si Si4 0.500000 0.793355 0.129828
Si Si5 0.761505 0.423945 0.000000
Si Si6 0.000000 0.754915 0.816703
Si Si7 0.246822 0.500000 0.404425
Si Si8 0.000000 0.603758 0.127844
O O1 0.629461 0.000000 0.836076
O O2 0.500000 0.064982 0.714948
O O3 0.633309 0.836896 0.892191
O O4 0.871966 0.800726 0.843023
O O5 0.825399 0.928803 0.894588
O O6 0.828107 0.830289 0.000000
O O7 0.000000 0.775181 0.576644
O O8 0.137564 0.871055 0.500000
O O9 0.500000 0.768644 0.223199
O O10 0.864275 0.416257 0.077319
O O11 0.704243 0.500000 0.000000
O O12 0.000000 0.684663 0.865954
O O13 0.195772 0.500000 0.500000
#
# Coordination Sequence:
#
# PCOD9523886 Si02
#       8
#     4  16   4   8   8   8   8   8
#     4  12  21  41  68  98 126 166 218 273 323 372
#     4  11  23  43  66  97 129 173 218 264 330 391
#     4  12  25  40  70  89 134 182 198 264 336 397
#     4  12  24  43  64  98 133 167 222 266 323 388
#     4  11  23  45  65  97 129 166 222 260 319 395
#     4  12  26  40  67  99 132 169 218 276 323 384
#     4  10  23  39  65  94 133 170 212 269 324 391
#     4  11  23  41  70  98 125 168 219 274 314 372
#
# _framework density 20.440785999999999
#
# number of rings (size 3 to 8) (size 9 to 14) (size 15 to 20)
#    0.000    0.750    2.500    5.625    3.500    4.500 
#    0.000    1.875    2.750    0.000    0.000    0.000 
#    0.000    0.000    0.000    0.000    0.000    0.000 
#
# Total GULP energy -179003.473720 kJ/mol
# GULP energy per Si atom -5593.858554 kJ/mol
# Density = 2.039426 g / cm^3
# Si number density = 20.440786 Si / 1000 Ang^3
#
#
#
# Elastic Constant Matrix: (Units=GPa)
#
#
# Indices 1 2 3 4 5 6 
#
# 1 90.6020 29.6323 5.1322 0.0000 0.0000 0.0000
# 2 29.6323 159.9677 29.5646 0.0000 0.0000 0.0000
# 3 5.1322 29.5646 97.3446 0.0000 0.0000 0.0000
# 4 0.0000 0.0000 0.0000 15.1579 0.0000 0.0000
# 5 0.0000 0.0000 0.0000 0.0000 31.8947 0.0000
# 6 0.0000 0.0000 0.0000 0.0000 0.0000 1.7896
#
#
#
# Elastic Compliance Matrix: (Units=1/GPa)
#
#
# Indices 1 2 3 4 5 6 
#
# 1 0.011749 -0.002185 0.000044 0.000000 0.000000 0.000000
# 2 -0.002185 0.007029 -0.002020 0.000000 0.000000 0.000000
# 3 0.000044 -0.002020 0.010884 0.000000 0.000000 0.000000
# 4 0.000000 0.000000 0.000000 0.065972 0.000000 0.000000
# 5 0.000000 0.000000 0.000000 0.000000 0.031353 0.000000
# 6 0.000000 0.000000 0.000000 0.000000 0.000000 0.558794
#
#
# Mechanical properties :
#
#
# Convention : Reuss Voigt Hill
#
# Bulk Modulus (GPa) = 46.85613 52.95248 49.90430
# Shear Modulus (GPa) = 7.13046 28.67410 17.90228
#
# Velocity S-wave (km/s) = 1.86974 3.74944 2.96262
# Velocity P-wave (km/s) = 5.25679 6.68625 6.01414
#
# Compressibility (1/GPa) = 0.02134193
#
# Stress axis : x y z
#
# Youngs Moduli (GPa) = 85.11163 142.26379 91.87918
#
# Poissons Ratio (x) = 0.31078 -0.00405
# Poissons Ratio (y) = 0.18593 0.18557
# Poissons Ratio (z) = -0.00375 0.28733
#
# Static dielectric constant tensor:
#      x y z
#    x 1.774360 0.000000 0.000000 
#    y 0.000000 1.714800 0.000000 
#    z 0.000000 0.000000 1.718880 
# 
# From -- ./inp_files/32344.got.cif
#   From: 2010.05.17/outbox.cif.g08.bks.cpg/sg71_17_cif.got.tgz:32344.got - 2010.06.03 16:22:01.
