data_PCOD9523640
_publ_section_title
;
Structure prediction by ZEFSAII (Michael W. Deem and Ramdas Pophale) SiO2 
 PCOD9523640
Probable space group: I M M M
;
_chemical_formula_sum "Si O2"
_cell_formula_units_Z 72
_cell_length_a 8.930663
_cell_length_b 32.087580
_cell_length_c 13.625384
_cell_angle_alpha 90.000000
_cell_angle_beta 90.000000
_cell_angle_gamma 90.000000
_cell_volume 3904.535868
_symmetry_space_group_name_H-M "I M M M"
_symmetry_group_IT_number 71
_symmetry_cell_setting 'orthorhombic'
loop_
_space_group_symop_operation_xyz
x,y,z
-x,-y,z
x,-y,-z
-x,y,-z
-x,-y,-z
x,y,-z
-x,y,z
x,-y,z
1/2+x,1/2+y,1/2+z
1/2-x,1/2-y,1/2+z
1/2+x,1/2-y,1/2-z
1/2-x,1/2+y,1/2-z
1/2-x,1/2-y,1/2-z
1/2+x,1/2+y,1/2-z
1/2-x,1/2+y,1/2+z
1/2+x,1/2-y,1/2+z
loop_
_atom_site_type_symbol
_atom_site_label
_atom_site_fract_x
_atom_site_fract_y
_atom_site_fract_z
Si Si1 0.667398 0.221295 0.326740
Si Si2 0.180083 0.500000 0.382293
Si Si3 0.324087 0.131867 0.000000
Si Si4 0.180885 0.913792 0.187688
Si Si5 0.658649 0.713257 0.500000
Si Si6 0.180423 0.134747 0.612947
O O1 0.500000 0.209178 0.294389
O O2 0.750000 0.250000 0.250000
O O3 0.657961 0.254698 0.412391
O O4 0.752953 0.179884 0.359917
O O5 0.212641 0.500000 0.500000
O O6 0.251528 0.459294 0.332780
O O7 0.000000 0.500000 0.371893
O O8 0.248055 0.113957 0.098902
O O9 0.500000 0.121462 0.000000
O O10 0.293009 0.181082 0.000000
O O11 0.221134 0.895790 0.296040
O O12 0.000000 0.914382 0.180575
O O13 0.500000 0.688736 0.500000
O O14 0.226158 0.123587 0.500000
O O15 0.000000 0.137335 0.612969
#
# Coordination Sequence:
#
# PCOD9523640 Si02
#       6
#    16   8   8  16   8  16
#     4  11  22  37  57  83 115 157 206 255 305 356
#     4  11  23  41  66  97 129 157 196 251 307 368
#     4  12  24  37  57  90 126 160 204 259 310 362
#     4  11  23  40  65  93 123 163 202 246 309 377
#     4  10  22  38  53  77 116 157 201 246 295 354
#     4  10  22  41  63  89 123 163 209 257 307 365
#
# _framework density 18.440092
#
# number of rings (size 3 to 8) (size 9 to 14) (size 15 to 20)
#    0.000    1.222    2.222    4.000    0.000    9.333 
#    0.000    0.556    0.000    3.333    0.000    0.000 
#    0.000    0.000    0.000    0.000    0.000    0.000 
#
# Total GULP energy -200796.089854 kJ/mol
# GULP energy per Si atom -5577.669163 kJ/mol
# Density = 1.839812 g / cm^3
# Si number density = 18.440092 Si / 1000 Ang^3
#
#
#
# Elastic Constant Matrix: (Units=GPa)
#
#
# Indices 1 2 3 4 5 6 
#
# 1 72.0703 43.3771 67.4607 0.0000 0.0000 0.0000
# 2 43.3771 128.2750 72.9655 0.0000 0.0000 0.0000
# 3 67.4607 72.9655 181.1241 0.0001 -0.0001 0.0000
# 4 0.0000 0.0000 0.0001 37.5081 0.0000 0.0000
# 5 0.0000 0.0000 -0.0001 0.0000 12.4554 0.0000
# 6 0.0000 0.0000 0.0000 0.0000 0.0000 33.0513
#
#
#
# Elastic Compliance Matrix: (Units=1/GPa)
#
#
# Indices 1 2 3 4 5 6 
#
# 1 0.022579 -0.003699 -0.006919 0.000000 0.000000 0.000000
# 2 -0.003699 0.010719 -0.002940 0.000000 0.000000 0.000000
# 3 -0.006919 -0.002940 0.009283 0.000000 0.000000 0.000000
# 4 0.000000 0.000000 0.000000 0.026661 0.000000 0.000000
# 5 0.000000 0.000000 0.000000 0.000000 0.080287 0.000000
# 6 0.000000 0.000000 0.000000 0.000000 0.000000 0.030256
#
#
# Mechanical properties :
#
#
# Convention : Reuss Voigt Hill
#
# Bulk Modulus (GPa) = 64.67203 83.23066 73.95134
# Shear Modulus (GPa) = 23.57865 29.78069 26.67967
#
# Velocity S-wave (km/s) = 3.57972 4.02306 3.80785
# Velocity P-wave (km/s) = 7.22727 8.17397 7.71515
#
# Compressibility (1/GPa) = 0.01546264
#
# Stress axis : x y z
#
# Youngs Moduli (GPa) = 44.28980 93.29006 107.72679
#
# Poissons Ratio (x) = 0.34511 0.74539
# Poissons Ratio (y) = 0.16384 0.31676
# Poissons Ratio (z) = 0.30645 0.27431
#
# Static dielectric constant tensor:
#      x y z
#    x 1.679240 0.000000 0.000000 
#    y 0.000000 1.596420 0.000000 
#    z 0.000000 0.000000 1.253660 
# 
# From -- ./inp_files/31503.got.cif
#   From: 2010.05.17/outbox.cif.g08.bks.cpg/sg71_16_cif.got.tgz:31503.got - 2010.06.03 16:22:01.
