data_PCOD9523186
_publ_section_title
;
Structure prediction by ZEFSAII (Michael W. Deem and Ramdas Pophale) SiO2 
 PCOD9523186
Probable space group: I M M M
;
_chemical_formula_sum "Si O2"
_cell_formula_units_Z 58
_cell_length_a 14.676196
_cell_length_b 26.082398
_cell_length_c 8.812998
_cell_angle_alpha 90.000000
_cell_angle_beta 90.000000
_cell_angle_gamma 90.000000
_cell_volume 3373.530899
_symmetry_space_group_name_H-M "I M M M"
_symmetry_group_IT_number 71
_symmetry_cell_setting 'orthorhombic'
loop_
_space_group_symop_operation_xyz
x,y,z
-x,-y,z
x,-y,-z
-x,y,-z
-x,-y,-z
x,y,-z
-x,y,z
x,-y,z
1/2+x,1/2+y,1/2+z
1/2-x,1/2-y,1/2+z
1/2+x,1/2-y,1/2-z
1/2-x,1/2+y,1/2-z
1/2-x,1/2-y,1/2-z
1/2+x,1/2+y,1/2-z
1/2-x,1/2+y,1/2+z
1/2+x,1/2-y,1/2+z
loop_
_atom_site_type_symbol
_atom_site_label
_atom_site_fract_x
_atom_site_fract_y
_atom_site_fract_z
Si Si1 0.500000 0.347023 0.681603
Si Si2 0.810021 0.703885 0.818852
Si Si3 0.309968 0.500000 0.332620
Si Si4 0.500000 0.767441 0.818437
Si Si5 0.500000 0.500000 0.500000
Si Si6 0.682730 0.393333 0.180179
O O1 0.500000 0.344252 0.500000
O O2 0.500000 0.290495 0.753487
O O3 0.409978 0.376187 0.736918
O O4 0.750000 0.750000 0.750000
O O5 0.908840 0.706024 0.743030
O O6 0.757178 0.650843 0.791004
O O7 0.818257 0.711357 0.000000
O O8 0.265634 0.500000 0.500000
O O9 0.418417 0.500000 0.370547
O O10 0.288135 0.551607 0.242827
O O11 0.500000 0.765425 0.000000
O O12 0.666208 0.395419 0.000000
#
# Coordination Sequence:
#
# PCOD9523186 Si02
#       6
#     8  16   8   8   2  16
#     4  12  23  34  56  84 119 160 196 242 295 351
#     4  11  23  39  60  87 118 156 199 246 300 355
#     4  10  21  37  57  82 117 156 197 239 290 352
#     4  12  24  39  58  85 122 156 199 245 300 356
#     4   8  20  36  54  84 120 150 202 232 284 354
#     4  11  23  38  59  85 118 156 202 245 294 352
#
# _framework density 17.192668000000001
#
# number of rings (size 3 to 8) (size 9 to 14) (size 15 to 20)
#    0.414    0.552    2.759    5.379    1.931    3.310 
#    0.000    2.069    0.000    0.828    0.000    5.793 
#    0.000    0.000    0.000    0.000    0.000    0.000 
#
# Total GULP energy -161805.579351 kJ/mol
# GULP energy per Si atom -5579.502736 kJ/mol
# Density = 1.715354 g / cm^3
# Si number density = 17.192668 Si / 1000 Ang^3
#
#
#
# Elastic Constant Matrix: (Units=GPa)
#
#
# Indices 1 2 3 4 5 6 
#
# 1 119.4515 59.5015 76.4134 0.0002 -0.0001 -0.0003
# 2 59.5015 145.7279 94.6336 0.0004 -0.0001 -0.0002
# 3 76.4134 94.6336 147.9216 0.0063 -0.0019 -0.0023
# 4 0.0002 0.0004 0.0063 29.3771 -0.0006 -0.0011
# 5 -0.0001 -0.0001 -0.0019 -0.0006 28.1295 -0.0001
# 6 -0.0003 -0.0002 -0.0023 -0.0011 -0.0001 -19.7521
#
#
#
# Elastic Compliance Matrix: (Units=1/GPa)
#
#
# Indices 1 2 3 4 5 6 
#
# 1 0.012714 -0.001584 -0.005554 0.000001 0.000000 0.000000
# 2 -0.001584 0.011937 -0.006818 0.000001 0.000000 0.000001
# 3 -0.005554 -0.006818 0.013991 -0.000003 0.000001 -0.000001
# 4 0.000001 0.000001 -0.000003 0.034040 0.000001 -0.000002
# 5 0.000000 0.000000 0.000001 0.000001 0.035550 0.000000
# 6 0.000000 0.000001 -0.000001 -0.000002 0.000000 -0.050628
#
#
# Mechanical properties :
#
#
# Convention : Reuss Voigt Hill
#
# Bulk Modulus (GPa) = 93.20775 97.13310 95.17043
# Shear Modulus (GPa) = 56.12110 19.72107 37.92109
#
# Velocity S-wave (km/s) = 5.71956 3.39051 4.70153
# Velocity P-wave (km/s) = 9.89693 8.48215 9.21672
#
# Compressibility (1/GPa) = 0.01072872
#
# Stress axis : x y z
#
# Youngs Moduli (GPa) = 78.65493 83.77654 71.47293
#
# Poissons Ratio (x) = 0.13273 0.39697
# Poissons Ratio (y) = 0.12462 0.48730
# Poissons Ratio (z) = 0.43686 0.57119
#
# Static dielectric constant tensor:
#      x y z
#    x 1.554750 0.000000 0.000000 
#    y 0.000000 1.582570 0.000000 
#    z 0.000000 0.000000 1.580540 
# 
# From -- ./inp_files/3430.got.cif
#   From: 2010.05.17/outbox.cif.g08.bks.cpg/sg71_2_cif.got.tgz:3430.got - 2010.06.03 16:22:01.
