data_PCOD9523183
_publ_section_title
;
Structure prediction by ZEFSAII (Michael W. Deem and Ramdas Pophale) SiO2 
 PCOD9523183
Probable space group: I M M M
;
_chemical_formula_sum "Si O2"
_cell_formula_units_Z 76
_cell_length_a 18.111875
_cell_length_b 7.375007
_cell_length_c 25.834943
_cell_angle_alpha 90.000000
_cell_angle_beta 90.000000
_cell_angle_gamma 90.000000
_cell_volume 3450.907805
_symmetry_space_group_name_H-M "I M M M"
_symmetry_group_IT_number 71
_symmetry_cell_setting 'orthorhombic'
loop_
_space_group_symop_operation_xyz
x,y,z
-x,-y,z
x,-y,-z
-x,y,-z
-x,-y,-z
x,y,-z
-x,y,z
x,-y,z
1/2+x,1/2+y,1/2+z
1/2-x,1/2-y,1/2+z
1/2+x,1/2-y,1/2-z
1/2-x,1/2+y,1/2-z
1/2-x,1/2-y,1/2-z
1/2+x,1/2+y,1/2-z
1/2-x,1/2+y,1/2+z
1/2+x,1/2-y,1/2+z
loop_
_atom_site_type_symbol
_atom_site_label
_atom_site_fract_x
_atom_site_fract_y
_atom_site_fract_z
Si Si1 0.651495 0.220287 0.414966
Si Si2 0.602118 0.500000 0.500000
Si Si3 0.183321 0.208870 0.598191
Si Si4 0.584530 0.218134 0.000000
Si Si5 0.084375 0.786643 0.310570
Si Si6 0.584021 0.217194 0.694790
O O1 0.605727 0.339994 0.454922
O O2 0.737411 0.278180 0.420422
O O3 0.629227 0.265444 0.356008
O O4 0.643299 0.000000 0.423132
O O5 0.127011 0.217723 0.550759
O O6 0.141523 0.290845 0.647718
O O7 0.199999 0.000000 0.611745
O O8 0.500000 0.278544 0.000000
O O9 0.585864 0.000000 0.000000
O O10 0.111510 0.771049 0.251599
O O11 0.000000 0.712699 0.313610
O O12 0.078121 0.000000 0.322497
O O13 0.500000 0.286002 0.690235
O O14 0.581234 0.000000 0.695266
#
# Coordination Sequence:
#
# PCOD9523183 Si02
#       6
#    16   4  16   8  16  16
#     4  10  23  41  61  90 122 157 204 252 302 368
#     4  12  24  40  65  88 115 162 200 242 316 356
#     4  10  21  37  57  82 116 158 198 248 298 351
#     4  11  24  37  53  81 115 151 196 246 289 346
#     4   9  18  33  56  85 116 152 199 247 297 361
#     4   9  19  38  61  85 119 158 193 244 310 363
#
# _framework density 22.023191000000001
#
# number of rings (size 3 to 8) (size 9 to 14) (size 15 to 20)
#    0.000    2.211    0.000    1.895    4.421    5.053 
#    0.000    3.158    0.000    2.526    0.000    0.000 
#    0.000    0.000    0.000    0.000    0.000    0.000 
#
# Total GULP energy -211611.859200 kJ/mol
# GULP energy per Si atom -5568.733137 kJ/mol
# Density = 2.197307 g / cm^3
# Si number density = 22.023191 Si / 1000 Ang^3
#
#
#
# Elastic Constant Matrix: (Units=GPa)
#
#
# Indices 1 2 3 4 5 6 
#
# 1 34.0875 -3.1711 13.6803 0.0000 0.0000 0.0000
# 2 -3.1711 101.1309 4.5059 0.0000 0.0000 0.0000
# 3 13.6803 4.5059 116.0376 0.0000 0.0000 0.0000
# 4 0.0000 0.0000 0.0000 25.1942 0.0000 0.0000
# 5 0.0000 0.0000 0.0000 0.0000 51.2422 0.0000
# 6 0.0000 0.0000 0.0000 0.0000 0.0000 3.1634
#
#
#
# Elastic Compliance Matrix: (Units=1/GPa)
#
#
# Indices 1 2 3 4 5 6 
#
# 1 0.030923 0.001134 -0.003690 0.000000 0.000000 0.000000
# 2 0.001134 0.009947 -0.000520 0.000000 0.000000 0.000000
# 3 -0.003690 -0.000520 0.009073 0.000000 0.000000 0.000000
# 4 0.000000 0.000000 0.000000 0.039692 0.000000 0.000000
# 5 0.000000 0.000000 0.000000 0.000000 0.019515 0.000000
# 6 0.000000 0.000000 0.000000 0.000000 0.000000 0.316120
#
#
# Mechanical properties :
#
#
# Convention : Reuss Voigt Hill
#
# Bulk Modulus (GPa) = 22.83559 31.25404 27.04481
# Shear Modulus (GPa) = 11.21031 31.66933 21.43982
#
# Velocity S-wave (km/s) = 2.25860 3.79621 3.12350
# Velocity P-wave (km/s) = 4.14646 5.78249 5.03141
#
# Compressibility (1/GPa) = 0.04379129
#
# Stress axis : x y z
#
# Youngs Moduli (GPa) = 32.33890 100.53385 110.21612
#
# Poissons Ratio (x) = -0.11401 0.40666
# Poissons Ratio (y) = -0.03667 0.05731
# Poissons Ratio (z) = 0.11932 0.05227
#
# Static dielectric constant tensor:
#      x y z
#    x 1.835560 0.000000 0.000000 
#    y 0.000000 1.855090 0.000000 
#    z 0.000000 0.000000 1.767990 
# 
# From -- ./inp_files/65825.got.cif
#   From: 2010.05.17/outbox.cif.g08.bks.cpg/sg71_33_cif.got.tgz:65825.got - 2010.06.03 16:22:01.
