data_PCOD9523717
_publ_section_title
;
Structure prediction by ZEFSAII (Michael W. Deem and Ramdas Pophale) SiO2 
 PCOD9523717
Probable space group: I M M M
;
_chemical_formula_sum "Si O2"
_cell_formula_units_Z 80
_cell_length_a 29.397887
_cell_length_b 15.468036
_cell_length_c 8.703322
_cell_angle_alpha 90.000000
_cell_angle_beta 90.000000
_cell_angle_gamma 90.000000
_cell_volume 3957.640503
_symmetry_space_group_name_H-M "I M M M"
_symmetry_group_IT_number 71
_symmetry_cell_setting 'orthorhombic'
loop_
_space_group_symop_operation_xyz
x,y,z
-x,-y,z
x,-y,-z
-x,y,-z
-x,-y,-z
x,y,-z
-x,y,z
x,-y,z
1/2+x,1/2+y,1/2+z
1/2-x,1/2-y,1/2+z
1/2+x,1/2-y,1/2-z
1/2-x,1/2+y,1/2-z
1/2-x,1/2-y,1/2-z
1/2+x,1/2+y,1/2-z
1/2-x,1/2+y,1/2+z
1/2+x,1/2-y,1/2+z
loop_
_atom_site_type_symbol
_atom_site_label
_atom_site_fract_x
_atom_site_fract_y
_atom_site_fract_z
Si Si1 0.811788 0.400900 0.171780
Si Si2 0.050716 0.770884 0.314869
Si Si3 0.409844 0.899494 0.313757
Si Si4 0.227131 0.163971 0.180470
Si Si5 0.368520 0.399292 0.185780
O O1 0.824719 0.500000 0.151635
O O2 0.859201 0.364826 0.234755
O O3 0.767878 0.400005 0.276430
O O4 0.801631 0.365908 0.000000
O O5 0.053739 0.765924 0.500000
O O6 0.057411 0.674297 0.249450
O O7 0.090130 0.837275 0.262474
O O8 0.000000 0.802172 0.274495
O O9 0.410375 0.898904 0.500000
O O10 0.418511 0.000000 0.265057
O O11 0.250000 0.250000 0.250000
O O12 0.179757 0.137558 0.256620
O O13 0.220734 0.169737 0.000000
O O14 0.373489 0.500000 0.234279
O O15 0.367850 0.398610 0.000000
#
# Coordination Sequence:
#
# PCOD9523717 Si02
#       5
#    16  16  16  16  16
#     4   9  18  34  55  79 110 146 182 221 268 326
#     4  10  22  39  59  85 114 146 191 246 300 352
#     4   9  19  36  58  85 117 154 194 235 285 349
#     4  12  24  36  54  82 116 151 189 233 281 337
#     4  10  22  41  63  86 116 155 197 243 296 351
#
# _framework density 20.214064
#
# number of rings (size 3 to 8) (size 9 to 14) (size 15 to 20)
#    0.000    2.000    0.000    4.800    0.000    9.600 
#    0.000    6.000    0.000    0.000    0.000    2.800 
#    0.000    0.000    0.000    0.000    0.000    0.000 
#
# Total GULP energy -222942.901676 kJ/mol
# GULP energy per Si atom -5573.572542 kJ/mol
# Density = 2.016806 g / cm^3
# Si number density = 20.214064 Si / 1000 Ang^3
#
#
#
# Elastic Constant Matrix: (Units=GPa)
#
#
# Indices 1 2 3 4 5 6 
#
# 1 139.9652 60.9078 23.0367 0.0000 0.0000 0.0000
# 2 60.9078 120.1548 21.1369 0.0000 0.0000 0.0000
# 3 23.0367 21.1369 24.1780 0.0000 0.0000 0.0000
# 4 0.0000 0.0000 0.0000 22.3278 0.0000 0.0000
# 5 0.0000 0.0000 0.0000 0.0000 23.2756 0.0000
# 6 0.0000 0.0000 0.0000 0.0000 0.0000 25.1195
#
#
#
# Elastic Compliance Matrix: (Units=1/GPa)
#
#
# Indices 1 2 3 4 5 6 
#
# 1 0.009836 -0.003944 -0.005924 0.000000 0.000000 0.000000
# 2 -0.003944 0.011416 -0.006223 0.000000 0.000000 0.000000
# 3 -0.005924 -0.006223 0.052444 0.000000 0.000000 0.000000
# 4 0.000000 0.000000 0.000000 0.044787 0.000000 0.000000
# 5 0.000000 0.000000 0.000000 0.000000 0.042964 0.000000
# 6 0.000000 0.000000 0.000000 0.000000 0.000000 0.039810
#
#
# Mechanical properties :
#
#
# Convention : Reuss Voigt Hill
#
# Bulk Modulus (GPa) = 24.08733 54.94006 39.51369
# Shear Modulus (GPa) = 20.22030 26.09234 23.15632
#
# Velocity S-wave (km/s) = 3.16620 3.59667 3.38828
# Velocity P-wave (km/s) = 5.03074 6.66980 5.90739
#
# Compressibility (1/GPa) = 0.04151561
#
# Stress axis : x y z
#
# Youngs Moduli (GPa) = 101.66915 87.59297 19.06791
#
# Poissons Ratio (x) = 0.34545 0.11295
# Poissons Ratio (y) = 0.40096 0.11866
# Poissons Ratio (z) = 0.60226 0.54508
#
# Static dielectric constant tensor:
#      x y z
#    x 1.775170 0.000000 0.000000 
#    y 0.000000 1.562560 0.000000 
#    z 0.000000 0.000000 1.715160 
# 
# From -- ./inp_files/14545.got.cif
#   From: 2010.05.17/outbox.cif.g08.bks.cpg/sg71_8_cif.got.tgz:14545.got - 2010.06.03 16:22:01.
