data_PCOD9523547
_publ_section_title
;
Structure prediction by ZEFSAII (Michael W. Deem and Ramdas Pophale) SiO2 
 PCOD9523547
Probable space group: I M M M
;
_chemical_formula_sum "Si O2"
_cell_formula_units_Z 116
_cell_length_a 24.278930
_cell_length_b 7.930934
_cell_length_c 27.401635
_cell_angle_alpha 90.000000
_cell_angle_beta 90.000000
_cell_angle_gamma 90.000000
_cell_volume 5276.310632
_symmetry_space_group_name_H-M "I M M M"
_symmetry_group_IT_number 71
_symmetry_cell_setting 'orthorhombic'
loop_
_space_group_symop_operation_xyz
x,y,z
-x,-y,z
x,-y,-z
-x,y,-z
-x,-y,-z
x,y,-z
-x,y,z
x,-y,z
1/2+x,1/2+y,1/2+z
1/2-x,1/2-y,1/2+z
1/2+x,1/2-y,1/2-z
1/2-x,1/2+y,1/2-z
1/2-x,1/2-y,1/2-z
1/2+x,1/2+y,1/2-z
1/2-x,1/2+y,1/2+z
1/2+x,1/2-y,1/2+z
loop_
_atom_site_type_symbol
_atom_site_label
_atom_site_fract_x
_atom_site_fract_y
_atom_site_fract_z
Si Si1 0.725717 0.196382 0.801343
Si Si2 0.398672 0.794482 0.576851
Si Si3 0.440625 0.806872 0.116511
Si Si4 0.337827 0.700555 0.053995
Si Si5 0.105443 0.188760 0.289441
Si Si6 0.725000 0.202584 0.399335
Si Si7 0.437059 0.798079 0.312111
Si Si8 0.573123 0.500000 0.500000
O O1 0.750000 0.250000 0.750000
O O2 0.668447 0.294225 0.806829
O O3 0.768704 0.232435 0.844302
O O4 0.711735 0.000000 0.801251
O O5 0.332805 0.759512 0.575124
O O6 0.416598 0.764727 0.633003
O O7 0.425810 0.653662 0.542182
O O8 0.407735 0.000000 0.566469
O O9 0.500000 0.728407 0.105020
O O10 0.388390 0.728645 0.089951
O O11 0.430504 0.801405 0.174547
O O12 0.441624 0.000000 0.100759
O O13 0.330183 0.500000 0.050643
O O14 0.279449 0.768665 0.073402
O O15 0.349951 0.767268 0.000000
O O16 0.099264 0.229671 0.232440
O O17 0.086065 0.000000 0.297738
O O18 0.727344 0.000000 0.396519
O O19 0.500000 0.737085 0.306470
O O20 0.436871 0.000000 0.307060
#
# Coordination Sequence:
#
# PCOD9523547 Si02
#       8
#    16  16  16  16  16  16  16   4
#     4  12  24  38  61  92 131 173 214 262 322 390
#     4  10  24  45  69 100 140 180 222 284 347 400
#     4  11  24  42  62  88 125 169 217 268 325 387
#     4  10  22  40  64  93 123 164 216 267 324 386
#     4  12  24  39  63  96 131 171 219 267 329 398
#     4  10  21  40  65  93 130 171 214 268 330 394
#     4  10  22  43  70  98 132 175 223 277 340 407
#     4  12  26  44  73 104 136 176 241 282 330 422
#
# _framework density 21.985060000000001
#
# number of rings (size 3 to 8) (size 9 to 14) (size 15 to 20)
#    0.000    1.241    1.379    4.345    2.897    4.690 
#    0.000    2.069    0.000    1.655    0.000    0.000 
#    0.000    0.000    0.000    0.000    0.000    0.000 
#
# Total GULP energy -323528.717198 kJ/mol
# GULP energy per Si atom -5578.081331 kJ/mol
# Density = 2.193502 g / cm^3
# Si number density = 21.985060 Si / 1000 Ang^3
#
#
#
# Elastic Constant Matrix: (Units=GPa)
#
#
# Indices 1 2 3 4 5 6 
#
# 1 53.6549 3.6953 -1.6106 0.0000 0.0000 0.0000
# 2 3.6953 67.2626 20.9072 0.0000 0.0000 0.0000
# 3 -1.6106 20.9072 95.3521 0.0000 0.0000 0.0000
# 4 0.0000 0.0000 0.0000 10.4530 0.0000 0.0000
# 5 0.0000 0.0000 0.0000 0.0000 -11.1404 0.0000
# 6 0.0000 0.0000 0.0000 0.0000 0.0000 8.6376
#
#
#
# Elastic Compliance Matrix: (Units=1/GPa)
#
#
# Indices 1 2 3 4 5 6 
#
# 1 0.018738 -0.001210 0.000582 0.000000 0.000000 0.000000
# 2 -0.001210 0.016033 -0.003536 0.000000 0.000000 0.000000
# 3 0.000582 -0.003536 0.011273 0.000000 0.000000 0.000000
# 4 0.000000 0.000000 0.000000 0.095666 0.000000 0.000000
# 5 0.000000 0.000000 0.000000 0.000000 -0.089763 0.000000
# 6 0.000000 0.000000 0.000000 0.000000 0.000000 0.115772
#
#
# Mechanical properties :
#
#
# Convention : Reuss Voigt Hill
#
# Bulk Modulus (GPa) = 26.51455 29.13927 27.82691
# Shear Modulus (GPa) = 26.50841 14.47522 20.49182
#
# Velocity S-wave (km/s) = 3.47615 2.56874 3.05631
# Velocity P-wave (km/s) = 5.31018 4.69902 5.01392
#
# Compressibility (1/GPa) = 0.03771514
#
# Stress axis : x y z
#
# Youngs Moduli (GPa) = 53.36618 62.37277 88.71113
#
# Poissons Ratio (x) = 0.07549 -0.05162
# Poissons Ratio (y) = 0.06459 0.31367
# Poissons Ratio (z) = -0.03105 0.22054
#
# Static dielectric constant tensor:
#      x y z
#    x 1.833950 0.000000 0.000000 
#    y 0.000000 1.885830 0.000000 
#    z 0.000000 0.000000 1.793640 
# 
# From -- ./inp_files/66923.got.cif
#   From: 2010.05.17/outbox.cif.g08.bks.cpg/sg71_34_cif.got.tgz:66923.got - 2010.06.03 16:22:01.
