data_PCOD9523663
_publ_section_title
;
Structure prediction by ZEFSAII (Michael W. Deem and Ramdas Pophale) SiO2 
 PCOD9523663
Probable space group: I M M M
;
_chemical_formula_sum "Si O2"
_cell_formula_units_Z 104
_cell_length_a 24.658817
_cell_length_b 8.551509
_cell_length_c 26.633491
_cell_angle_alpha 90.000000
_cell_angle_beta 90.000000
_cell_angle_gamma 90.000000
_cell_volume 5616.206791
_symmetry_space_group_name_H-M "I M M M"
_symmetry_group_IT_number 71
_symmetry_cell_setting 'orthorhombic'
loop_
_space_group_symop_operation_xyz
x,y,z
-x,-y,z
x,-y,-z
-x,y,-z
-x,-y,-z
x,y,-z
-x,y,z
x,-y,z
1/2+x,1/2+y,1/2+z
1/2-x,1/2-y,1/2+z
1/2+x,1/2-y,1/2-z
1/2-x,1/2+y,1/2-z
1/2-x,1/2-y,1/2-z
1/2+x,1/2+y,1/2-z
1/2-x,1/2+y,1/2+z
1/2+x,1/2-y,1/2+z
loop_
_atom_site_type_symbol
_atom_site_label
_atom_site_fract_x
_atom_site_fract_y
_atom_site_fract_z
Si Si1 0.500000 0.675317 0.939788
Si Si2 0.063601 0.690082 0.056524
Si Si3 0.229221 0.817738 0.802391
Si Si4 0.348370 0.185495 0.158026
Si Si5 0.615069 0.187333 0.338025
Si Si6 0.613820 0.186515 0.944274
Si Si7 0.437743 0.312683 0.763261
O O1 0.500000 0.500000 0.917644
O O2 0.447373 0.774547 0.928768
O O3 0.500000 0.658147 0.000000
O O4 0.066211 0.500000 0.056140
O O5 0.096182 0.742073 0.106296
O O6 0.000000 0.732105 0.062243
O O7 0.081163 0.741615 0.000000
O O8 0.250000 0.750000 0.750000
O O9 0.284672 0.802451 0.832667
O O10 0.177002 0.733081 0.825192
O O11 0.214724 0.000000 0.796610
O O12 0.354438 0.253811 0.102364
O O13 0.390482 0.257428 0.198167
O O14 0.361453 0.000000 0.158264
O O15 0.578768 0.254840 0.292495
O O16 0.609908 0.000000 0.336686
O O17 0.621565 0.000000 0.946988
O O18 0.624438 0.250841 0.000000
O O19 0.500000 0.261048 0.775643
O O20 0.437462 0.500000 0.763698
#
# Coordination Sequence:
#
# PCOD9523663 Si02
#       7
#     8  16  16  16  16  16  16
#     4   9  17  29  47  73 103 135 169 207 256 315
#     4   8  15  30  54  85 119 153 191 234 279 333
#     4  11  22  38  58  81 109 146 191 236 281 331
#     4  10  22  38  57  79 104 141 186 228 273 331
#     4  11  21  35  59  87 114 149 190 234 283 336
#     4   9  18  34  54  75 100 133 175 221 267 318
#     4  11  24  38  54  81 115 147 180 227 283 335
#
# _framework density 18.517835999999999
#
# number of rings (size 3 to 8) (size 9 to 14) (size 15 to 20)
#    0.000    2.077    1.538    2.538    1.077    4.000 
#    0.000    0.769    0.000    2.769    0.000    5.385 
#    0.000    0.000    0.000    0.000    0.000    0.000 
#
# Total GULP energy -289605.836021 kJ/mol
# GULP energy per Si atom -5569.343000 kJ/mol
# Density = 1.847569 g / cm^3
# Si number density = 18.517836 Si / 1000 Ang^3
#
#
#
# Elastic Constant Matrix: (Units=GPa)
#
#
# Indices 1 2 3 4 5 6 
#
# 1 65.8432 21.4408 46.4415 0.0000 0.0000 0.0000
# 2 21.4408 19.7097 15.9093 0.0000 0.0000 0.0000
# 3 46.4415 15.9093 128.4076 0.0000 0.0000 0.0000
# 4 0.0000 0.0000 0.0000 3.0619 0.0000 0.0000
# 5 0.0000 0.0000 0.0000 0.0000 28.4762 0.0000
# 6 0.0000 0.0000 0.0000 0.0000 0.0000 22.9339
#
#
#
# Elastic Compliance Matrix: (Units=1/GPa)
#
#
# Indices 1 2 3 4 5 6 
#
# 1 0.028430 -0.025142 -0.007167 0.000000 0.000000 0.000000
# 2 -0.025142 0.078608 -0.000646 0.000000 0.000000 0.000000
# 3 -0.007167 -0.000646 0.010460 0.000000 0.000000 0.000000
# 4 0.000000 0.000000 0.000000 0.326593 0.000000 0.000000
# 5 0.000000 0.000000 0.000000 0.000000 0.035117 0.000000
# 6 0.000000 0.000000 0.000000 0.000000 0.000000 0.043604
#
#
# Mechanical properties :
#
#
# Convention : Reuss Voigt Hill
#
# Bulk Modulus (GPa) = 19.38454 42.39375 30.88914
# Shear Modulus (GPa) = 8.25195 19.57234 13.91214
#
# Velocity S-wave (km/s) = 2.11326 3.25460 2.74393
# Velocity P-wave (km/s) = 4.05528 6.08822 5.17260
#
# Compressibility (1/GPa) = 0.05158749
#
# Stress axis : x y z
#
# Youngs Moduli (GPa) = 35.17422 12.72136 95.60225
#
# Poissons Ratio (x) = 0.31983 0.68521
# Poissons Ratio (y) = 0.88433 0.06179
# Poissons Ratio (z) = 0.25211 0.00822
#
# Static dielectric constant tensor:
#      x y z
#    x 1.538360 0.000000 0.000000 
#    y 0.000000 1.647680 0.000000 
#    z 0.000000 0.000000 1.716240 
# 
# From -- ./inp_files/66451.got.cif
#   From: 2010.05.17/outbox.cif.g08.bks.cpg/sg71_34_cif.got.tgz:66451.got - 2010.06.03 16:22:01.
