data_PCOD9523869
_publ_section_title
;
Structure prediction by ZEFSAII (Michael W. Deem and Ramdas Pophale) SiO2 
 PCOD9523869
Probable space group: I M M M
;
_chemical_formula_sum "Si O2"
_cell_formula_units_Z 90
_cell_length_a 17.277548
_cell_length_b 12.813921
_cell_length_c 21.641617
_cell_angle_alpha 90.000000
_cell_angle_beta 90.000000
_cell_angle_gamma 90.000000
_cell_volume 4791.305437
_symmetry_space_group_name_H-M "I M M M"
_symmetry_group_IT_number 71
_symmetry_cell_setting 'orthorhombic'
loop_
_space_group_symop_operation_xyz
x,y,z
-x,-y,z
x,-y,-z
-x,y,-z
-x,-y,-z
x,y,-z
-x,y,z
x,-y,z
1/2+x,1/2+y,1/2+z
1/2-x,1/2-y,1/2+z
1/2+x,1/2-y,1/2-z
1/2-x,1/2+y,1/2-z
1/2-x,1/2-y,1/2-z
1/2+x,1/2+y,1/2-z
1/2-x,1/2+y,1/2+z
1/2+x,1/2-y,1/2+z
loop_
_atom_site_type_symbol
_atom_site_label
_atom_site_fract_x
_atom_site_fract_y
_atom_site_fract_z
Si Si1 0.500000 0.000000 0.000000
Si Si2 0.408085 0.500000 0.926680
Si Si3 0.906805 0.878510 0.928885
Si Si4 0.412412 0.209533 0.000000
Si Si5 0.846326 0.214124 0.374566
Si Si6 0.907555 0.377874 0.274013
Si Si7 0.164853 0.308614 0.144354
Si Si8 0.089901 0.500000 0.926313
O O1 0.434514 0.909725 0.000000
O O2 0.500000 0.500000 0.930368
O O3 0.381715 0.599990 0.887110
O O4 0.379712 0.500000 0.000000
O O5 0.869493 0.800217 0.880362
O O6 0.000000 0.869450 0.925428
O O7 0.886955 0.000000 0.918087
O O8 0.884667 0.852156 0.000000
O O9 0.362672 0.235208 0.940742
O O10 0.500000 0.263241 0.000000
O O11 0.885562 0.293124 0.325975
O O12 0.756998 0.199952 0.357755
O O13 0.887744 0.500000 0.288936
O O14 0.865225 0.342052 0.211596
O O15 0.000000 0.375092 0.264811
O O16 0.133079 0.398480 0.099053
O O17 0.000000 0.500000 0.904909
O O18 0.090056 0.500000 0.000000
#
# Coordination Sequence:
#
# PCOD9523869 Si02
#       8
#     2   8  16   8  16  16  16   8
#     4   8  24  40  72  98 140 168 230 288 300 404
#     4  11  23  43  67  94 131 178 213 260 326 410
#     4   9  19  37  60  87 124 172 217 256 314 391
#     4  10  22  43  68 102 131 173 221 275 332 396
#     4  12  26  41  67  99 135 170 218 276 343 403
#     4  11  25  46  71  91 125 179 232 281 336 406
#     4  12  24  41  63  99 135 171 218 279 343 388
#     4  11  23  39  68 102 136 182 234 274 324 402
#
# _framework density 18.784025
#
# number of rings (size 3 to 8) (size 9 to 14) (size 15 to 20)
#    0.267    0.889    1.778    5.333    3.733    2.844 
#    1.600    0.000    0.000    0.000    0.000    0.000 
#    0.000    0.000    0.000    0.000    0.000    0.000 
#
# Total GULP energy -250934.107038 kJ/mol
# GULP energy per Si atom -5576.313490 kJ/mol
# Density = 1.874127 g / cm^3
# Si number density = 18.784025 Si / 1000 Ang^3
#
#
#
# Elastic Constant Matrix: (Units=GPa)
#
#
# Indices 1 2 3 4 5 6 
#
# 1 111.1803 57.1748 52.8135 0.0000 0.0000 0.0000
# 2 57.1748 166.1824 73.7547 0.0000 0.0000 0.0000
# 3 52.8135 73.7547 125.6177 0.0000 0.0000 0.0000
# 4 0.0000 0.0000 0.0000 45.7111 0.0000 0.0000
# 5 0.0000 0.0000 0.0000 0.0000 45.2317 0.0000
# 6 0.0000 0.0000 0.0000 0.0000 0.0000 -18.8279
#
#
#
# Elastic Compliance Matrix: (Units=1/GPa)
#
#
# Indices 1 2 3 4 5 6 
#
# 1 0.011990 -0.002553 -0.003542 0.000000 0.000000 0.000000
# 2 -0.002553 0.008682 -0.004024 0.000000 0.000000 0.000000
# 3 -0.003542 -0.004024 0.011812 0.000000 0.000000 0.000000
# 4 0.000000 0.000000 0.000000 0.021877 0.000000 0.000000
# 5 0.000000 0.000000 0.000000 0.000000 0.022108 0.000000
# 6 0.000000 0.000000 0.000000 0.000000 0.000000 -0.053113
#
#
# Mechanical properties :
#
#
# Convention : Reuss Voigt Hill
#
# Bulk Modulus (GPa) = 81.65883 85.60738 83.63311
# Shear Modulus (GPa) = 104.87421 29.03881 66.95651
#
# Velocity S-wave (km/s) = 7.48016 3.93610 5.97686
# Velocity P-wave (km/s) = 10.87063 8.14436 9.60472
#
# Compressibility (1/GPa) = 0.01224607
#
# Stress axis : x y z
#
# Youngs Moduli (GPa) = 83.40405 115.18349 84.65691
#
# Poissons Ratio (x) = 0.29408 0.29984
# Poissons Ratio (y) = 0.21294 0.34066
# Poissons Ratio (z) = 0.29540 0.46350
#
# Static dielectric constant tensor:
#      x y z
#    x 1.630750 0.000000 0.000000 
#    y 0.000000 1.676140 0.000000 
#    z 0.000000 0.000000 1.637340 
# 
# From -- ./inp_files/53991.got.cif
#   From: 2010.05.17/outbox.cif.g08.bks.cpg/sg71_27_cif.got.tgz:53991.got - 2010.06.03 16:22:01.
