data_PCOD9523404
_publ_section_title
;
Structure prediction by ZEFSAII (Michael W. Deem and Ramdas Pophale) SiO2 
 PCOD9523404
Probable space group: I M M M
;
_chemical_formula_sum "Si O2"
_cell_formula_units_Z 88
_cell_length_a 21.085335
_cell_length_b 8.699930
_cell_length_c 25.759589
_cell_angle_alpha 90.000000
_cell_angle_beta 90.000000
_cell_angle_gamma 90.000000
_cell_volume 4725.363182
_symmetry_space_group_name_H-M "I M M M"
_symmetry_group_IT_number 71
_symmetry_cell_setting 'orthorhombic'
loop_
_space_group_symop_operation_xyz
x,y,z
-x,-y,z
x,-y,-z
-x,y,-z
-x,-y,-z
x,y,-z
-x,y,z
x,-y,z
1/2+x,1/2+y,1/2+z
1/2-x,1/2-y,1/2+z
1/2+x,1/2-y,1/2-z
1/2-x,1/2+y,1/2-z
1/2-x,1/2-y,1/2-z
1/2+x,1/2+y,1/2-z
1/2-x,1/2+y,1/2+z
1/2+x,1/2-y,1/2+z
loop_
_atom_site_type_symbol
_atom_site_label
_atom_site_fract_x
_atom_site_fract_y
_atom_site_fract_z
Si Si1 0.673646 0.818685 0.191008
Si Si2 0.776333 0.186798 0.000000
Si Si3 0.369485 0.679559 0.591477
Si Si4 0.000000 0.317526 0.058466
Si Si5 0.187499 0.677599 0.811285
Si Si6 0.574562 0.684858 0.108206
Si Si7 0.628850 0.186112 0.000000
O O1 0.738520 0.723050 0.185209
O O2 0.661323 0.806476 0.252774
O O3 0.619145 0.756137 0.153149
O O4 0.684918 0.000000 0.179460
O O5 0.816193 0.236414 0.949437
O O6 0.703121 0.235174 0.000000
O O7 0.774526 0.000000 0.000000
O O8 0.378042 0.500000 0.581237
O O9 0.435854 0.761819 0.584070
O O10 0.346644 0.710833 0.649154
O O11 0.000000 0.500000 0.056982
O O12 0.000000 0.254764 0.000000
O O13 0.179536 0.500000 0.826943
O O14 0.500000 0.720772 0.116425
O O15 0.581661 0.500000 0.108135
O O16 0.596442 0.750348 0.052299
O O17 0.625698 0.000000 0.000000
#
# Coordination Sequence:
#
# PCOD9523404 Si02
#       7
#    16   8  16   8  16  16   8
#     4  10  21  39  63  89 118 155 197 243 295 352
#     4   9  20  35  55  85 117 146 187 240 287 340
#     4  11  21  37  60  85 116 156 200 242 291 354
#     4  11  23  39  57  81 117 157 199 244 297 354
#     4  10  21  38  61  90 121 153 193 246 299 350
#     4  11  24  41  60  85 120 159 199 244 294 351
#     4  11  22  38  62  91 120 154 195 238 293 355
#
# _framework density 18.622907000000001
#
# number of rings (size 3 to 8) (size 9 to 14) (size 15 to 20)
#    0.000    1.545    0.909    4.091    0.000    6.545 
#    1.636    2.727    0.000    0.000    0.000    0.000 
#    0.000    0.000    0.000    0.000    0.000    0.000 
#
# Total GULP energy -245720.917935 kJ/mol
# GULP energy per Si atom -5584.566317 kJ/mol
# Density = 1.858052 g / cm^3
# Si number density = 18.622907 Si / 1000 Ang^3
#
#
#
# Elastic Constant Matrix: (Units=GPa)
#
#
# Indices 1 2 3 4 5 6 
#
# 1 108.1179 23.3616 55.0207 0.0000 0.0000 0.0000
# 2 23.3616 52.8591 21.7673 0.0000 0.0000 0.0000
# 3 55.0207 21.7673 78.7186 0.0000 0.0000 0.0000
# 4 0.0000 0.0000 0.0000 33.1829 0.0000 0.0000
# 5 0.0000 0.0000 0.0000 0.0000 68.8908 0.0000
# 6 0.0000 0.0000 0.0000 0.0000 0.0000 44.6363
#
#
#
# Elastic Compliance Matrix: (Units=1/GPa)
#
#
# Indices 1 2 3 4 5 6 
#
# 1 0.014653 -0.002549 -0.009537 0.000000 0.000000 0.000000
# 2 -0.002549 0.021793 -0.004245 0.000000 0.000000 0.000000
# 3 -0.009537 -0.004245 0.020543 0.000000 0.000000 0.000000
# 4 0.000000 0.000000 0.000000 0.030136 0.000000 0.000000
# 5 0.000000 0.000000 0.000000 0.000000 0.014516 0.000000
# 6 0.000000 0.000000 0.000000 0.000000 0.000000 0.022403
#
#
# Mechanical properties :
#
#
# Convention : Reuss Voigt Hill
#
# Bulk Modulus (GPa) = 41.10494 48.88832 44.99663
# Shear Modulus (GPa) = 30.33708 38.64507 34.49107
#
# Velocity S-wave (km/s) = 4.04049 4.56031 4.30825
# Velocity P-wave (km/s) = 6.62477 7.35100 6.99731
#
# Compressibility (1/GPa) = 0.02432798
#
# Stress axis : x y z
#
# Youngs Moduli (GPa) = 68.24374 45.88717 48.67770
#
# Poissons Ratio (x) = 0.11696 0.46425
# Poissons Ratio (y) = 0.17394 0.20662
# Poissons Ratio (z) = 0.65086 0.19477
#
# Static dielectric constant tensor:
#      x y z
#    x 1.588980 0.000000 0.000000 
#    y 0.000000 1.638110 0.000000 
#    z 0.000000 0.000000 1.637990 
# 
# From -- ./inp_files/61159.got.cif
#   From: 2010.05.17/outbox.cif.g08.bks.cpg/sg71_31_cif.got.tgz:61159.got - 2010.06.03 16:22:01.
