data_PCOD9523665
_publ_section_title
;
Structure prediction by ZEFSAII (Michael W. Deem and Ramdas Pophale) SiO2 
 PCOD9523665
Probable space group: I M M M
;
_chemical_formula_sum "Si O2"
_cell_formula_units_Z 96
_cell_length_a 13.979090
_cell_length_b 24.998498
_cell_length_c 13.868977
_cell_angle_alpha 90.000000
_cell_angle_beta 90.000000
_cell_angle_gamma 90.000000
_cell_volume 4846.600741
_symmetry_space_group_name_H-M "I M M M"
_symmetry_group_IT_number 71
_symmetry_cell_setting 'orthorhombic'
loop_
_space_group_symop_operation_xyz
x,y,z
-x,-y,z
x,-y,-z
-x,y,-z
-x,-y,-z
x,y,-z
-x,y,z
x,-y,z
1/2+x,1/2+y,1/2+z
1/2-x,1/2-y,1/2+z
1/2+x,1/2-y,1/2-z
1/2-x,1/2+y,1/2-z
1/2-x,1/2-y,1/2-z
1/2+x,1/2+y,1/2-z
1/2-x,1/2+y,1/2+z
1/2+x,1/2-y,1/2+z
loop_
_atom_site_type_symbol
_atom_site_label
_atom_site_fract_x
_atom_site_fract_y
_atom_site_fract_z
Si Si1 0.387480 0.000000 0.890472
Si Si2 0.108978 0.771786 0.220416
Si Si3 0.614884 0.561804 0.000000
Si Si4 0.386165 0.610021 0.792225
Si Si5 0.700984 0.099273 0.786295
Si Si6 0.607641 0.810923 0.892563
Si Si7 0.116797 0.669398 0.887922
O O1 0.358787 0.948863 0.828538
O O2 0.500000 0.000000 0.900954
O O3 0.345952 0.000000 0.000000
O O4 0.140363 0.829798 0.257288
O O5 0.109679 0.736189 0.316380
O O6 0.151661 0.729530 0.143303
O O7 0.000000 0.780837 0.186843
O O8 0.636538 0.594920 0.903021
O O9 0.652663 0.500000 0.000000
O O10 0.500000 0.556781 0.000000
O O11 0.500000 0.601450 0.777940
O O12 0.308524 0.578391 0.730116
O O13 0.686685 0.146203 0.864613
O O14 0.659736 0.126410 0.687563
O O15 0.500000 0.835494 0.884995
O O16 0.619255 0.790693 0.000000
O O17 0.000000 0.668742 0.876836
O O18 0.138921 0.658945 0.000000
#
# Coordination Sequence:
#
# PCOD9523665 Si02
#       7
#     8  16   8  16  16  16  16
#     4  11  24  44  70  94 117 144 186 244 301 353
#     4   8  16  32  53  81 115 154 196 239 294 347
#     4   9  20  38  60  80 104 150 202 247 301 343
#     4  10  22  38  57  83 118 154 199 252 291 342
#     4  11  22  36  58  86 114 154 197 242 293 355
#     4   9  17  31  55  85 118 151 190 242 299 354
#     4   9  18  34  55  82 122 163 195 232 292 368
#
# _framework density 19.807697000000001
#
# number of rings (size 3 to 8) (size 9 to 14) (size 15 to 20)
#    0.000    2.500    0.000    3.000    3.500    4.000 
#    0.000    3.750    0.000    6.000    0.000    0.000 
#    0.000    0.000    0.000    0.000    0.000    0.000 
#
# Total GULP energy -267221.029637 kJ/mol
# GULP energy per Si atom -5567.104784 kJ/mol
# Density = 1.976261 g / cm^3
# Si number density = 19.807697 Si / 1000 Ang^3
#
#
#
# Elastic Constant Matrix: (Units=GPa)
#
#
# Indices 1 2 3 4 5 6 
#
# 1 80.1228 13.2218 21.3314 0.0000 0.0000 0.0000
# 2 13.2218 82.2375 32.1086 0.0000 0.0000 0.0000
# 3 21.3314 32.1086 99.0565 0.0000 -0.0001 0.0000
# 4 0.0000 0.0000 0.0000 12.9094 0.0000 0.0000
# 5 0.0000 0.0000 -0.0001 0.0000 11.7829 0.0000
# 6 0.0000 0.0000 0.0000 0.0000 0.0000 1.2102
#
#
#
# Elastic Compliance Matrix: (Units=1/GPa)
#
#
# Indices 1 2 3 4 5 6 
#
# 1 0.013338 -0.001171 -0.002493 0.000000 0.000000 0.000000
# 2 -0.001171 0.014025 -0.004294 0.000000 0.000000 0.000000
# 3 -0.002493 -0.004294 0.012024 0.000000 0.000000 0.000000
# 4 0.000000 0.000000 0.000000 0.077463 0.000000 0.000000
# 5 0.000000 0.000000 0.000000 0.000000 0.084869 0.000001
# 6 0.000000 0.000000 0.000000 0.000000 0.000001 0.826332
#
#
# Mechanical properties :
#
#
# Convention : Reuss Voigt Hill
#
# Bulk Modulus (GPa) = 42.60567 43.86005 43.23286
# Shear Modulus (GPa) = 4.75381 18.16417 11.45899
#
# Velocity S-wave (km/s) = 1.55087 3.03153 2.40784
# Velocity P-wave (km/s) = 4.97627 5.86895 5.44095
#
# Compressibility (1/GPa) = 0.02347105
#
# Stress axis : x y z
#
# Youngs Moduli (GPa) = 74.97534 71.30301 83.16817
#
# Poissons Ratio (x) = 0.08351 0.20730
# Poissons Ratio (y) = 0.08781 0.35711
# Poissons Ratio (z) = 0.18688 0.30616
#
# Static dielectric constant tensor:
#      x y z
#    x 1.772890 0.000000 0.000000 
#    y 0.000000 1.980120 0.000000 
#    z 0.000000 0.000000 1.675720 
# 
# From -- ./inp_files/34543.got.cif
#   From: 2010.05.17/outbox.cif.g08.bks.cpg/sg71_18_cif.got.tgz:34543.got - 2010.06.03 16:22:01.
