data_PCOD9523611
_publ_section_title
;
Structure prediction by ZEFSAII (Michael W. Deem and Ramdas Pophale) SiO2 
 PCOD9523611
Probable space group: I M M M
;
_chemical_formula_sum "Si O2"
_cell_formula_units_Z 96
_cell_length_a 13.066372
_cell_length_b 31.755595
_cell_length_c 13.674404
_cell_angle_alpha 90.000000
_cell_angle_beta 90.000000
_cell_angle_gamma 90.000000
_cell_volume 5673.926159
_symmetry_space_group_name_H-M "I M M M"
_symmetry_group_IT_number 71
_symmetry_cell_setting 'orthorhombic'
loop_
_space_group_symop_operation_xyz
x,y,z
-x,-y,z
x,-y,-z
-x,y,-z
-x,-y,-z
x,y,-z
-x,y,z
x,-y,z
1/2+x,1/2+y,1/2+z
1/2-x,1/2-y,1/2+z
1/2+x,1/2-y,1/2-z
1/2-x,1/2+y,1/2-z
1/2-x,1/2-y,1/2-z
1/2+x,1/2+y,1/2-z
1/2-x,1/2+y,1/2+z
1/2+x,1/2-y,1/2+z
loop_
_atom_site_type_symbol
_atom_site_label
_atom_site_fract_x
_atom_site_fract_y
_atom_site_fract_z
Si Si1 0.685098 0.869480 0.288372
Si Si2 0.877044 0.452365 0.888836
Si Si3 0.111194 0.257438 0.382091
Si Si4 0.278600 0.322993 0.617669
Si Si5 0.000000 0.212609 0.882475
Si Si6 0.609982 0.659799 0.117130
Si Si7 0.000000 0.686363 0.879474
O O1 0.651685 0.916784 0.311734
O O2 0.719722 0.859223 0.177565
O O3 0.790306 0.862425 0.345683
O O4 0.598852 0.837549 0.332721
O O5 0.841018 0.500000 0.867722
O O6 0.000000 0.453541 0.891793
O O7 0.843163 0.440901 0.000000
O O8 0.111949 0.258401 0.500000
O O9 0.210471 0.282639 0.351890
O O10 0.115498 0.208913 0.354043
O O11 0.000000 0.275405 0.352409
O O12 0.273689 0.328777 0.500000
O O13 0.395927 0.312202 0.644756
O O14 0.000000 0.262956 0.858392
O O15 0.000000 0.212895 0.000000
O O16 0.500000 0.642750 0.150961
O O17 0.610090 0.658925 0.000000
O O18 0.000000 0.681449 0.000000
#
# Coordination Sequence:
#
# PCOD9523611 Si02
#       7
#    16  16  16  16   8  16   8
#     4  12  22  32  54  82 105 139 185 227 266 318
#     4   9  18  35  59  85 114 140 162 203 271 344
#     4   8  15  29  46  64  96 138 177 219 265 311
#     4  10  22  37  51  70 102 148 194 232 270 306
#     4   9  20  38  52  68 108 153 190 236 276 304
#     4   9  18  31  47  71 104 140 175 219 268 317
#     4  11  22  34  52  83 114 139 176 235 285 315
#
# _framework density 16.919501
#
# number of rings (size 3 to 8) (size 9 to 14) (size 15 to 20)
#    0.000    2.333    0.833    4.000    2.333    5.333 
#    0.000    0.000    0.000    1.000    0.000    3.500 
#    0.000    2.000    0.000    0.000    0.000    0.000 
#
# Total GULP energy -267484.790692 kJ/mol
# GULP energy per Si atom -5572.599806 kJ/mol
# Density = 1.688099 g / cm^3
# Si number density = 16.919501 Si / 1000 Ang^3
#
#
#
# Elastic Constant Matrix: (Units=GPa)
#
#
# Indices 1 2 3 4 5 6 
#
# 1 109.7468 28.0724 30.6046 0.0000 0.0000 0.0000
# 2 28.0724 74.7378 29.9183 0.0000 0.0000 0.0000
# 3 30.6046 29.9183 95.1885 0.0002 -0.0002 0.0000
# 4 0.0000 0.0000 0.0002 2.8681 0.0000 0.0000
# 5 0.0000 0.0000 -0.0002 0.0000 13.4283 0.0000
# 6 0.0000 0.0000 0.0000 0.0000 0.0000 17.1031
#
#
#
# Elastic Compliance Matrix: (Units=1/GPa)
#
#
# Indices 1 2 3 4 5 6 
#
# 1 0.010560 -0.002983 -0.002458 0.000000 0.000000 0.000000
# 2 -0.002983 0.016148 -0.004117 0.000000 0.000000 0.000000
# 3 -0.002458 -0.004117 0.012590 -0.000001 0.000000 0.000000
# 4 0.000000 0.000000 -0.000001 0.348664 0.000001 0.000001
# 5 0.000000 0.000000 0.000000 0.000001 0.074470 0.000000
# 6 0.000000 0.000000 0.000000 0.000001 0.000000 0.058469
#
#
# Mechanical properties :
#
#
# Convention : Reuss Voigt Hill
#
# Bulk Modulus (GPa) = 49.54401 50.76263 50.15332
# Shear Modulus (GPa) = 9.14508 19.41842 14.28175
#
# Velocity S-wave (km/s) = 2.32740 3.39144 2.90849
# Velocity P-wave (km/s) = 6.04716 6.73820 6.40201
#
# Compressibility (1/GPa) = 0.02018408
#
# Stress axis : x y z
#
# Youngs Moduli (GPa) = 94.69496 61.92592 79.43098
#
# Poissons Ratio (x) = 0.18470 0.19523
# Poissons Ratio (y) = 0.28244 0.32698
# Poissons Ratio (z) = 0.23274 0.25492
#
# Static dielectric constant tensor:
#      x y z
#    x 1.624130 0.000000 0.000000 
#    y 0.000000 1.555720 0.000000 
#    z 0.000000 0.000000 1.651170 
# 
# From -- ./inp_files/33238.got.cif
#   From: 2010.05.17/outbox.cif.g08.bks.cpg/sg71_17_cif.got.tgz:33238.got - 2010.06.03 16:22:01.
