data_PCOD9523934
_publ_section_title
;
Structure prediction by ZEFSAII (Michael W. Deem and Ramdas Pophale) SiO2 
 PCOD9523934
Probable space group: I M M M
;
_chemical_formula_sum "Si O2"
_cell_formula_units_Z 66
_cell_length_a 23.739124
_cell_length_b 14.509176
_cell_length_c 11.852990
_cell_angle_alpha 90.000000
_cell_angle_beta 90.000000
_cell_angle_gamma 90.000000
_cell_volume 4082.586130
_symmetry_space_group_name_H-M "I M M M"
_symmetry_group_IT_number 71
_symmetry_cell_setting 'orthorhombic'
loop_
_space_group_symop_operation_xyz
x,y,z
-x,-y,z
x,-y,-z
-x,y,-z
-x,-y,-z
x,y,-z
-x,y,z
x,-y,z
1/2+x,1/2+y,1/2+z
1/2-x,1/2-y,1/2+z
1/2+x,1/2-y,1/2-z
1/2-x,1/2+y,1/2-z
1/2-x,1/2-y,1/2-z
1/2+x,1/2+y,1/2-z
1/2-x,1/2+y,1/2+z
1/2+x,1/2-y,1/2+z
loop_
_atom_site_type_symbol
_atom_site_label
_atom_site_fract_x
_atom_site_fract_y
_atom_site_fract_z
Si Si1 0.432170 0.890642 0.500000
Si Si2 0.500000 0.000000 0.000000
Si Si3 0.832963 0.894746 0.135650
Si Si4 0.799045 0.390428 0.631898
Si Si5 0.500000 0.191676 0.124565
Si Si6 0.108810 0.284810 0.776864
O O1 0.500000 0.879739 0.500000
O O2 0.407204 0.841499 0.610693
O O3 0.419740 0.000000 0.500000
O O4 0.500000 0.082239 0.903449
O O5 0.766810 0.875661 0.158871
O O6 0.871410 0.817397 0.190414
O O7 0.845199 0.000000 0.171042
O O8 0.839171 0.890799 0.000000
O O9 0.808341 0.366005 0.500000
O O10 0.810097 0.500000 0.641808
O O11 0.840357 0.334999 0.711825
O O12 0.444900 0.215671 0.195244
O O13 0.500000 0.236422 0.000000
#
# Coordination Sequence:
#
# PCOD9523934 Si02
#       6
#     8   2  16  16   8  16
#     4  11  24  34  49  78 117 150 170 214 281 337
#     4   8  24  40  52  86 110 144 184 224 262 322
#     4   9  19  37  56  80 108 143 189 231 265 313
#     4   9  19  33  56  83 109 142 183 226 271 321
#     4  10  24  35  57  81 110 137 181 220 267 321
#     4  12  20  35  56  80 112 144 183 223 271 330
#
# _framework density 16.166222999999999
#
# number of rings (size 3 to 8) (size 9 to 14) (size 15 to 20)
#    0.364    1.576    2.424    3.636    3.394    0.000 
#    0.000    0.606    0.000    5.818    0.000    0.000 
#    0.000    0.000    0.000    0.000    0.000    0.000 
#
# Total GULP energy -183816.027303 kJ/mol
# GULP energy per Si atom -5570.182646 kJ/mol
# Density = 1.612943 g / cm^3
# Si number density = 16.166223 Si / 1000 Ang^3
#
#
#
# Elastic Constant Matrix: (Units=GPa)
#
#
# Indices 1 2 3 4 5 6 
#
# 1 101.6402 99.0079 76.3285 0.0000 0.0000 0.0000
# 2 99.0079 128.1419 76.2425 0.0000 0.0000 0.0000
# 3 76.3285 76.2425 115.0586 0.0000 0.0000 0.0000
# 4 0.0000 0.0000 0.0000 32.9604 0.0000 0.0000
# 5 0.0000 0.0000 0.0000 0.0000 -3.2447 0.0000
# 6 0.0000 0.0000 0.0000 0.0000 0.0000 16.5298
#
#
#
# Elastic Compliance Matrix: (Units=1/GPa)
#
#
# Indices 1 2 3 4 5 6 
#
# 1 0.048104 -0.030013 -0.012023 0.000000 0.000000 0.000000
# 2 -0.030013 0.031609 -0.001035 0.000000 0.000000 0.000000
# 3 -0.012023 -0.001035 0.017353 0.000000 0.000000 0.000000
# 4 0.000000 0.000000 0.000000 0.030339 0.000000 0.000000
# 5 0.000000 0.000000 0.000000 0.000000 -0.308196 0.000000
# 6 0.000000 0.000000 0.000000 0.000000 0.000000 0.060497
#
#
# Mechanical properties :
#
#
# Convention : Reuss Voigt Hill
#
# Bulk Modulus (GPa) = 91.55258 94.22205 92.88732
# Shear Modulus (GPa) = -163.89271 15.46657 -74.21307
#
# Velocity S-wave (km/s) = -10.07967 3.09645 -6.78277
# Velocity P-wave (km/s) = 8.87195 8.43764 1.93877
#
# Compressibility (1/GPa) = 0.01092269
#
# Stress axis : x y z
#
# Youngs Moduli (GPa) = 20.78826 31.63612 57.62568
#
# Poissons Ratio (x) = 0.94951 0.69286
# Poissons Ratio (y) = 0.62393 0.05965
# Poissons Ratio (z) = 0.24995 0.03275
#
# Static dielectric constant tensor:
#      x y z
#    x 1.536420 0.000000 0.000000 
#    y 0.000000 1.516810 0.000000 
#    z 0.000000 0.000000 1.531060 
# 
# From -- ./inp_files/25337.got.cif
#   From: 2010.05.17/outbox.cif.g08.bks.cpg/sg71_13_cif.got.tgz:25337.got - 2010.06.03 16:22:01.
