data_PCOD9523702
_publ_section_title
;
Structure prediction by ZEFSAII (Michael W. Deem and Ramdas Pophale) SiO2 
 PCOD9523702
Probable space group: I M M M
;
_chemical_formula_sum "Si O2"
_cell_formula_units_Z 88
_cell_length_a 11.920953
_cell_length_b 24.619688
_cell_length_c 15.498195
_cell_angle_alpha 90.000000
_cell_angle_beta 90.000000
_cell_angle_gamma 90.000000
_cell_volume 4548.567475
_symmetry_space_group_name_H-M "I M M M"
_symmetry_group_IT_number 71
_symmetry_cell_setting 'orthorhombic'
loop_
_space_group_symop_operation_xyz
x,y,z
-x,-y,z
x,-y,-z
-x,y,-z
-x,-y,-z
x,y,-z
-x,y,z
x,-y,z
1/2+x,1/2+y,1/2+z
1/2-x,1/2-y,1/2+z
1/2+x,1/2-y,1/2-z
1/2-x,1/2+y,1/2-z
1/2-x,1/2-y,1/2-z
1/2+x,1/2+y,1/2-z
1/2-x,1/2+y,1/2+z
1/2+x,1/2-y,1/2+z
loop_
_atom_site_type_symbol
_atom_site_label
_atom_site_fract_x
_atom_site_fract_y
_atom_site_fract_z
Si Si1 0.500000 0.134059 0.604725
Si Si2 0.634300 0.434490 0.500000
Si Si3 0.128031 0.940343 0.603136
Si Si4 0.125949 0.738565 0.402034
Si Si5 0.759633 0.663192 0.831148
Si Si6 0.787193 0.376893 0.357747
Si Si7 0.500000 0.063972 0.775158
O O1 0.500000 0.123294 0.500000
O O2 0.613090 0.165093 0.633443
O O3 0.500000 0.084515 0.675027
O O4 0.647151 0.500000 0.500000
O O5 0.500000 0.422601 0.500000
O O6 0.698424 0.408734 0.416935
O O7 0.122983 0.943635 0.500000
O O8 0.202480 0.888696 0.623638
O O9 0.000000 0.932944 0.634960
O O10 0.168973 0.000000 0.634868
O O11 0.123872 0.759584 0.500000
O O12 0.202099 0.779886 0.350279
O O13 0.166470 0.676767 0.404236
O O14 0.000000 0.738979 0.366241
O O15 0.743460 0.648065 0.731574
O O16 0.891235 0.413772 0.326000
O O17 0.500000 0.000000 0.775607
#
# Coordination Sequence:
#
# PCOD9523702 Si02
#       7
#     8   8  16  16  16  16   8
#     4  10  22  39  57  89 140 176 211 249 305 391
#     4  11  26  47  69  95 129 170 216 267 332 410
#     4   9  18  34  57  86 119 154 202 259 312 375
#     4  11  22  40  67  92 120 156 209 270 318 376
#     4  11  23  38  61  92 128 170 213 256 322 380
#     4  11  23  44  62  91 127 162 212 272 327 379
#     4  10  22  40  68  96 121 165 221 273 327 382
#
# _framework density 19.346751000000001
#
# number of rings (size 3 to 8) (size 9 to 14) (size 15 to 20)
#    0.000    1.545    1.818    3.818    0.000    7.091 
#    1.636    2.727    0.000    0.000    0.000    0.000 
#    0.000    0.000    0.000    0.000    0.000    0.000 
#
# Total GULP energy -245365.054246 kJ/mol
# GULP energy per Si atom -5576.478506 kJ/mol
# Density = 1.930272 g / cm^3
# Si number density = 19.346751 Si / 1000 Ang^3
#
#
#
# Elastic Constant Matrix: (Units=GPa)
#
#
# Indices 1 2 3 4 5 6 
#
# 1 131.9600 83.7306 58.2508 0.0000 0.0000 0.0000
# 2 83.7306 137.2274 46.7065 0.0001 0.0000 0.0000
# 3 58.2508 46.7065 126.2569 0.0001 0.0000 0.0000
# 4 0.0000 0.0001 0.0001 25.8218 0.0000 0.0000
# 5 0.0000 0.0000 0.0000 0.0000 11.1649 0.0000
# 6 0.0000 0.0000 0.0000 0.0000 0.0000 29.4223
#
#
#
# Elastic Compliance Matrix: (Units=1/GPa)
#
#
# Indices 1 2 3 4 5 6 
#
# 1 0.013727 -0.007116 -0.003701 0.000000 0.000000 0.000000
# 2 -0.007116 0.012026 -0.001166 0.000000 0.000000 0.000000
# 3 -0.003701 -0.001166 0.010059 0.000000 0.000000 0.000000
# 4 0.000000 0.000000 0.000000 0.038727 0.000000 0.000000
# 5 0.000000 0.000000 0.000000 0.000000 0.089567 0.000000
# 6 0.000000 0.000000 0.000000 0.000000 0.000000 0.033988
#
#
# Mechanical properties :
#
#
# Convention : Reuss Voigt Hill
#
# Bulk Modulus (GPa) = 84.40996 85.86889 85.13943
# Shear Modulus (GPa) = 22.12324 27.06555 24.59440
#
# Velocity S-wave (km/s) = 3.38525 3.74434 3.56932
# Velocity P-wave (km/s) = 7.68145 7.94820 7.81597
#
# Compressibility (1/GPa) = 0.01184694
#
# Stress axis : x y z
#
# Youngs Moduli (GPa) = 72.84983 83.15434 99.41404
#
# Poissons Ratio (x) = 0.59173 0.36790
# Poissons Ratio (y) = 0.51840 0.11588
# Poissons Ratio (z) = 0.26959 0.09693
#
# Static dielectric constant tensor:
#      x y z
#    x 1.719940 0.000000 0.000000 
#    y 0.000000 1.669800 0.000000 
#    z 0.000000 0.000000 1.741960 
# 
# From -- ./inp_files/32777.got.cif
#   From: 2010.05.17/outbox.cif.g08.bks.cpg/sg71_17_cif.got.tgz:32777.got - 2010.06.03 16:22:01.
