data_PCOD9523978
_publ_section_title
;
Structure prediction by ZEFSAII (Michael W. Deem and Ramdas Pophale) SiO2 
 PCOD9523978
Probable space group: I M M M
;
_chemical_formula_sum "Si O2"
_cell_formula_units_Z 58
_cell_length_a 14.189549
_cell_length_b 25.629731
_cell_length_c 7.913046
_cell_angle_alpha 90.000000
_cell_angle_beta 90.000000
_cell_angle_gamma 90.000000
_cell_volume 2877.771654
_symmetry_space_group_name_H-M "I M M M"
_symmetry_group_IT_number 71
_symmetry_cell_setting 'orthorhombic'
loop_
_space_group_symop_operation_xyz
x,y,z
-x,-y,z
x,-y,-z
-x,y,-z
-x,-y,-z
x,y,-z
-x,y,z
x,-y,z
1/2+x,1/2+y,1/2+z
1/2-x,1/2-y,1/2+z
1/2+x,1/2-y,1/2-z
1/2-x,1/2+y,1/2-z
1/2-x,1/2-y,1/2-z
1/2+x,1/2+y,1/2-z
1/2-x,1/2+y,1/2+z
1/2+x,1/2-y,1/2+z
loop_
_atom_site_type_symbol
_atom_site_label
_atom_site_fract_x
_atom_site_fract_y
_atom_site_fract_z
Si Si1 0.303223 0.404010 0.691473
Si Si2 0.000000 0.261340 0.295560
Si Si3 0.329586 0.000000 0.213076
Si Si4 0.000000 0.500000 0.000000
Si Si5 0.199368 0.696950 0.196913
Si Si6 0.000000 0.141782 0.696114
O O1 0.324097 0.418306 0.500000
O O2 0.235863 0.449953 0.755076
O O3 0.242630 0.351161 0.703419
O O4 0.404939 0.390007 0.767199
O O5 0.909163 0.292069 0.232081
O O6 0.000000 0.261431 0.500000
O O7 0.000000 0.201034 0.228388
O O8 0.417277 0.000000 0.344804
O O9 0.349435 0.000000 0.000000
O O10 0.250000 0.750000 0.250000
O O11 0.216926 0.686762 0.000000
O O12 0.000000 0.152433 0.500000
#
# Coordination Sequence:
#
# PCOD9523978 Si02
#       6
#    16   8   8   2  16   8
#     4  11  24  45  70  98 139 180 226 285 346 410
#     4  11  23  40  61  92 130 179 224 274 341 403
#     4  10  27  50  76 109 138 181 235 291 352 414
#     4  12  26  48  88  96 144 176 238 292 356 406
#     4  12  24  39  63  95 133 176 228 279 338 411
#     4  11  23  38  67 102 139 177 226 276 332 416
#
# _framework density 20.154484
#
# number of rings (size 3 to 8) (size 9 to 14) (size 15 to 20)
#    0.000    0.828    2.759    4.345    3.862    2.759 
#    0.000    4.138    0.000    0.000    0.000    0.000 
#    0.000    0.000    0.000    0.000    0.000    0.000 
#
# Total GULP energy -161570.364001 kJ/mol
# GULP energy per Si atom -5571.391862 kJ/mol
# Density = 2.010861 g / cm^3
# Si number density = 20.154484 Si / 1000 Ang^3
#
#
#
# Elastic Constant Matrix: (Units=GPa)
#
#
# Indices 1 2 3 4 5 6 
#
# 1 190.1434 64.3937 18.2035 0.0000 -0.0004 0.0000
# 2 64.3937 119.2017 -4.7305 0.0001 -0.0002 -0.0001
# 3 18.2035 -4.7305 65.1369 -0.0038 0.0010 0.0000
# 4 0.0000 0.0001 -0.0038 20.2792 -0.0002 -0.0002
# 5 -0.0004 -0.0002 0.0010 -0.0002 43.0046 -0.0005
# 6 0.0000 -0.0001 0.0000 -0.0002 -0.0005 -3.9339
#
#
#
# Elastic Compliance Matrix: (Units=1/GPa)
#
#
# Indices 1 2 3 4 5 6 
#
# 1 0.006724 -0.003718 -0.002149 0.000000 0.000000 0.000000
# 2 -0.003718 0.010469 0.001799 0.000000 0.000000 0.000000
# 3 -0.002149 0.001799 0.016084 0.000003 0.000000 0.000000
# 4 0.000000 0.000000 0.000003 0.049312 0.000000 -0.000002
# 5 0.000000 0.000000 0.000000 0.000000 0.023253 -0.000003
# 6 0.000000 0.000000 0.000000 -0.000002 -0.000003 -0.254201
#
#
# Mechanical properties :
#
#
# Convention : Reuss Voigt Hill
#
# Bulk Modulus (GPa) = 39.77511 58.91285 49.34398
# Shear Modulus (GPa) = -37.92344 31.64434 -3.13955
#
# Velocity S-wave (km/s) = -4.34249 3.96673 -1.24945
# Velocity P-wave (km/s) = 2.31625 7.09042 4.73862
#
# Compressibility (1/GPa) = 0.02514135
#
# Stress axis : x y z
#
# Youngs Moduli (GPa) = 148.72237 95.52168 62.17537
#
# Poissons Ratio (x) = 0.35511 0.13362
# Poissons Ratio (y) = 0.55289 -0.11187
# Poissons Ratio (z) = 0.31962 -0.17187
#
# Static dielectric constant tensor:
#      x y z
#    x 1.495090 -0.000010 0.000000 
#    y -0.000010 1.745140 0.000000 
#    z 0.000000 0.000000 1.756080 
# 
# From -- ./inp_files/3435.got.cif
#   From: 2010.05.17/outbox.cif.g08.bks.cpg/sg71_2_cif.got.tgz:3435.got - 2010.06.03 16:22:01.
