data_PCOD9523030
_publ_section_title
;
Structure prediction by ZEFSAII (Michael W. Deem and Ramdas Pophale) SiO2 
 PCOD9523030
Probable space group: I M M M
;
_chemical_formula_sum "Si O2"
_cell_formula_units_Z 104
_cell_length_a 24.978479
_cell_length_b 9.727913
_cell_length_c 20.504679
_cell_angle_alpha 90.000000
_cell_angle_beta 90.000000
_cell_angle_gamma 90.000000
_cell_volume 4982.400590
_symmetry_space_group_name_H-M "I M M M"
_symmetry_group_IT_number 71
_symmetry_cell_setting 'orthorhombic'
loop_
_space_group_symop_operation_xyz
x,y,z
-x,-y,z
x,-y,-z
-x,y,-z
-x,-y,-z
x,y,-z
-x,y,z
x,-y,z
1/2+x,1/2+y,1/2+z
1/2-x,1/2-y,1/2+z
1/2+x,1/2-y,1/2-z
1/2-x,1/2+y,1/2-z
1/2-x,1/2-y,1/2-z
1/2+x,1/2+y,1/2-z
1/2-x,1/2+y,1/2+z
1/2+x,1/2-y,1/2+z
loop_
_atom_site_type_symbol
_atom_site_label
_atom_site_fract_x
_atom_site_fract_y
_atom_site_fract_z
Si Si1 0.934319 0.348395 0.000000
Si Si2 0.298541 0.163734 0.281103
Si Si3 0.436122 0.351530 0.390405
Si Si4 0.105645 0.845926 0.253379
Si Si5 0.235653 0.663712 0.076222
Si Si6 0.838989 0.345793 0.422944
Si Si7 0.439456 0.658241 0.107761
O O1 0.916205 0.267916 0.063555
O O2 0.912404 0.500000 0.000000
O O3 0.000000 0.354590 0.000000
O O4 0.250000 0.250000 0.250000
O O5 0.350701 0.226571 0.246402
O O6 0.301601 0.188676 0.360040
O O7 0.292615 0.000000 0.271450
O O8 0.500000 0.355257 0.399293
O O9 0.414237 0.500000 0.411403
O O10 0.424262 0.333937 0.314993
O O11 0.065751 0.839388 0.313818
O O12 0.131037 0.000000 0.255883
O O13 0.247068 0.500000 0.076090
O O14 0.288999 0.749186 0.094973
O O15 0.220008 0.697843 0.000000
O O16 0.832893 0.361669 0.500000
O O17 0.838244 0.500000 0.393619
O O18 0.894259 0.264319 0.413507
O O19 0.500000 0.691594 0.087488
O O20 0.427777 0.500000 0.087006
#
# Coordination Sequence:
#
# PCOD9523030 Si02
#       7
#     8  16  16  16  16  16  16
#     4   9  17  29  47  73 103 135 173 217 261 305
#     4  11  23  38  58  83 112 145 184 229 281 337
#     4   9  17  32  54  76 102 139 180 219 263 319
#     4  10  21  37  56  80 109 140 180 228 278 326
#     4   9  19  38  61  82 108 146 190 231 275 332
#     4  10  21  36  56  84 115 145 179 223 277 332
#     4  10  21  37  57  81 110 147 190 231 271 322
#
# _framework density 20.873470999999999
#
# number of rings (size 3 to 8) (size 9 to 14) (size 15 to 20)
#    0.000    2.231    0.000    2.538    0.000   10.462 
#    1.385    1.538    0.000    2.769    0.000    0.000 
#    0.000    0.000    0.000    0.000    0.000    0.000 
#
# Total GULP energy -290074.565679 kJ/mol
# GULP energy per Si atom -5578.357032 kJ/mol
# Density = 2.082596 g / cm^3
# Si number density = 20.873471 Si / 1000 Ang^3
#
#
#
# Elastic Constant Matrix: (Units=GPa)
#
#
# Indices 1 2 3 4 5 6 
#
# 1 40.1973 12.1074 -0.9882 0.0000 0.0000 0.0000
# 2 12.1074 80.8444 23.2566 0.0000 0.0000 0.0000
# 3 -0.9882 23.2566 63.8829 0.0000 0.0000 0.0000
# 4 0.0000 0.0000 0.0000 27.2903 0.0000 0.0000
# 5 0.0000 0.0000 0.0000 0.0000 27.6724 0.0000
# 6 0.0000 0.0000 0.0000 0.0000 0.0000 15.0890
#
#
#
# Elastic Compliance Matrix: (Units=1/GPa)
#
#
# Indices 1 2 3 4 5 6 
#
# 1 0.026292 -0.004529 0.002055 0.000000 0.000000 0.000000
# 2 -0.004529 0.014596 -0.005384 0.000000 0.000000 0.000000
# 3 0.002055 -0.005384 0.017645 0.000000 0.000000 0.000000
# 4 0.000000 0.000000 0.000000 0.036643 0.000000 0.000000
# 5 0.000000 0.000000 0.000000 0.000000 0.036137 0.000000
# 6 0.000000 0.000000 0.000000 0.000000 0.000000 0.066273
#
#
# Mechanical properties :
#
#
# Convention : Reuss Voigt Hill
#
# Bulk Modulus (GPa) = 23.35399 28.18624 25.77012
# Shear Modulus (GPa) = 21.97077 24.04692 23.00884
#
# Velocity S-wave (km/s) = 3.24785 3.39784 3.32369
# Velocity P-wave (km/s) = 5.02766 5.37833 5.20595
#
# Compressibility (1/GPa) = 0.04281923
#
# Stress axis : x y z
#
# Youngs Moduli (GPa) = 38.03452 68.50964 56.67186
#
# Poissons Ratio (x) = 0.31027 -0.11648
# Poissons Ratio (y) = 0.17225 0.30512
# Poissons Ratio (z) = -0.07818 0.36885
#
# Static dielectric constant tensor:
#      x y z
#    x 1.737580 0.000000 0.000000 
#    y 0.000000 1.755810 0.000000 
#    z 0.000000 0.000000 1.779500 
# 
# From -- ./inp_files/11080.got.cif
#   From: 2010.05.17/outbox.cif.g08.bks.cpg/sg71_6_cif.got.tgz:11080.got - 2010.06.03 16:22:01.
