data_PCOD9523216
_publ_section_title
;
Structure prediction by ZEFSAII (Michael W. Deem and Ramdas Pophale) SiO2 
 PCOD9523216
Probable space group: I M M M
;
_chemical_formula_sum "Si O2"
_cell_formula_units_Z 88
_cell_length_a 11.506309
_cell_length_b 21.754198
_cell_length_c 18.657436
_cell_angle_alpha 90.000000
_cell_angle_beta 90.000000
_cell_angle_gamma 90.000000
_cell_volume 4670.152586
_symmetry_space_group_name_H-M "I M M M"
_symmetry_group_IT_number 71
_symmetry_cell_setting 'orthorhombic'
loop_
_space_group_symop_operation_xyz
x,y,z
-x,-y,z
x,-y,-z
-x,y,-z
-x,-y,-z
x,y,-z
-x,y,z
x,-y,z
1/2+x,1/2+y,1/2+z
1/2-x,1/2-y,1/2+z
1/2+x,1/2-y,1/2-z
1/2-x,1/2+y,1/2-z
1/2-x,1/2-y,1/2-z
1/2+x,1/2+y,1/2-z
1/2-x,1/2+y,1/2+z
1/2+x,1/2-y,1/2+z
loop_
_atom_site_type_symbol
_atom_site_label
_atom_site_fract_x
_atom_site_fract_y
_atom_site_fract_z
Si Si1 0.638300 0.426850 0.915761
Si Si2 0.629765 0.284198 0.317607
Si Si3 0.500000 0.888823 0.084262
Si Si4 0.863456 0.000000 0.912347
Si Si5 0.211998 0.650065 0.198138
Si Si6 0.740516 0.372488 0.416181
Si Si7 0.000000 0.430489 0.740673
O O1 0.500000 0.416045 0.905061
O O2 0.658840 0.500000 0.904429
O O3 0.713342 0.386601 0.860719
O O4 0.663956 0.413690 0.000000
O O5 0.500000 0.288373 0.290096
O O6 0.710122 0.321102 0.261715
O O7 0.657629 0.213198 0.331600
O O8 0.652634 0.321970 0.388985
O O9 0.623706 0.855088 0.094627
O O10 0.500000 0.932362 0.153660
O O11 0.500000 0.911860 0.000000
O O12 0.796118 0.060745 0.885727
O O13 0.000000 0.000000 0.891560
O O14 0.861505 0.000000 0.000000
O O15 0.112610 0.606531 0.231265
O O16 0.727582 0.379183 0.500000
O O17 0.000000 0.500000 0.768087
#
# Coordination Sequence:
#
# PCOD9523216 Si02
#       7
#    16  16   8   8  16  16   8
#     4   9  19  40  69  97 123 154 201 263 325 381
#     4  11  23  39  61  85 121 168 213 255 303 373
#     4  10  22  39  58  87 123 162 210 254 304 359
#     4   9  18  33  53  79 115 154 196 247 304 351
#     4  11  23  41  61  90 126 162 206 252 318 371
#     4  10  21  37  58  84 118 160 204 257 305 359
#     4  12  24  41  65  94 128 166 207 254 315 378
#
# _framework density 18.843067000000001
#
# number of rings (size 3 to 8) (size 9 to 14) (size 15 to 20)
#    0.000    1.727    2.727    2.182    1.273    2.000 
#    3.273    0.455    0.000    1.636    0.000    0.000 
#    0.000    0.000    0.000    0.000    0.000    0.000 
#
# Total GULP energy -245126.278710 kJ/mol
# GULP energy per Si atom -5571.051789 kJ/mol
# Density = 1.880018 g / cm^3
# Si number density = 18.843067 Si / 1000 Ang^3
#
#
#
# Elastic Constant Matrix: (Units=GPa)
#
#
# Indices 1 2 3 4 5 6 
#
# 1 91.6056 60.2407 36.6432 0.0000 0.0000 0.0000
# 2 60.2407 125.5451 35.0217 0.0000 0.0000 0.0000
# 3 36.6432 35.0217 51.5756 0.0000 0.0000 0.0000
# 4 0.0000 0.0000 0.0000 21.2602 0.0000 0.0000
# 5 0.0000 0.0000 0.0000 0.0000 19.1413 0.0000
# 6 0.0000 0.0000 0.0000 0.0000 0.0000 30.1773
#
#
#
# Elastic Compliance Matrix: (Units=1/GPa)
#
#
# Indices 1 2 3 4 5 6 
#
# 1 0.018767 -0.006521 -0.008906 0.000000 0.000000 0.000000
# 2 -0.006521 0.012092 -0.003578 0.000000 0.000000 0.000000
# 3 -0.008906 -0.003578 0.028146 0.000000 0.000000 0.000000
# 4 0.000000 0.000000 0.000000 0.047036 0.000000 0.000000
# 5 0.000000 0.000000 0.000000 0.000000 0.052243 0.000000
# 6 0.000000 0.000000 0.000000 0.000000 0.000000 0.033137
#
#
# Mechanical properties :
#
#
# Convention : Reuss Voigt Hill
#
# Bulk Modulus (GPa) = 47.62823 59.17083 53.39953
# Shear Modulus (GPa) = 21.14795 23.23713 22.19254
#
# Velocity S-wave (km/s) = 3.35374 3.51549 3.43557
# Velocity P-wave (km/s) = 6.35042 6.92447 6.64365
#
# Compressibility (1/GPa) = 0.02099595
#
# Stress axis : x y z
#
# Youngs Moduli (GPa) = 53.28589 82.69732 35.52907
#
# Poissons Ratio (x) = 0.53924 0.31640
# Poissons Ratio (y) = 0.34746 0.12714
# Poissons Ratio (z) = 0.47454 0.29592
#
# Static dielectric constant tensor:
#      x y z
#    x 1.673020 0.000000 0.000000 
#    y 0.000000 1.644000 0.000000 
#    z 0.000000 0.000000 1.675980 
# 
# From -- ./inp_files/43398.got.cif
#   From: 2010.05.17/outbox.cif.g08.bks.cpg/sg71_22_cif.got.tgz:43398.got - 2010.06.03 16:22:01.
