data_PCOD9523909
_publ_section_title
;
Structure prediction by ZEFSAII (Michael W. Deem and Ramdas Pophale) SiO2 
 PCOD9523909
Probable space group: I M M M
;
_chemical_formula_sum "Si O2"
_cell_formula_units_Z 72
_cell_length_a 18.077090
_cell_length_b 8.583250
_cell_length_c 24.238719
_cell_angle_alpha 90.000000
_cell_angle_beta 90.000000
_cell_angle_gamma 90.000000
_cell_volume 3760.884069
_symmetry_space_group_name_H-M "I M M M"
_symmetry_group_IT_number 71
_symmetry_cell_setting 'orthorhombic'
loop_
_space_group_symop_operation_xyz
x,y,z
-x,-y,z
x,-y,-z
-x,y,-z
-x,-y,-z
x,y,-z
-x,y,z
x,-y,z
1/2+x,1/2+y,1/2+z
1/2-x,1/2-y,1/2+z
1/2+x,1/2-y,1/2-z
1/2-x,1/2+y,1/2-z
1/2-x,1/2-y,1/2-z
1/2+x,1/2+y,1/2-z
1/2-x,1/2+y,1/2+z
1/2+x,1/2-y,1/2+z
loop_
_atom_site_type_symbol
_atom_site_label
_atom_site_fract_x
_atom_site_fract_y
_atom_site_fract_z
Si Si1 0.585679 0.311492 0.638521
Si Si2 0.785829 0.313190 0.936000
Si Si3 0.355828 0.812901 0.129603
Si Si4 0.000000 0.310130 0.562507
Si Si5 0.333425 0.686845 0.248251
O O1 0.500000 0.263890 0.634503
O O2 0.588559 0.500000 0.635934
O O3 0.637623 0.244177 0.590745
O O4 0.621065 0.264252 0.697496
O O5 0.783068 0.500000 0.934122
O O6 0.719203 0.247118 0.898771
O O7 0.778355 0.263363 0.000000
O O8 0.425803 0.761974 0.093466
O O9 0.365660 0.749369 0.191138
O O10 0.352460 0.000000 0.131438
O O11 0.000000 0.500000 0.561917
O O12 0.000000 0.254493 0.500000
O O13 0.331588 0.500000 0.247419
O O14 0.250000 0.750000 0.250000
#
# Coordination Sequence:
#
# PCOD9523909 Si02
#       5
#    16  16  16   8  16
#     4  10  23  42  63  89 121 161 205 249 301 359
#     4  11  24  41  62  89 120 157 202 252 306 363
#     4  11  22  38  62  91 121 160 204 248 301 359
#     4   9  20  38  59  87 123 161 204 251 296 351
#     4  11  22  38  62  90 121 156 197 246 299 357
#
# _framework density 19.144434
#
# number of rings (size 3 to 8) (size 9 to 14) (size 15 to 20)
#    0.000    1.444    2.222    2.667    1.556    4.444 
#    0.000    3.889    0.000    4.000    0.000    0.000 
#    0.000    0.000    0.000    0.000    0.000    0.000 
#
# Total GULP energy -201230.716131 kJ/mol
# GULP energy per Si atom -5589.742115 kJ/mol
# Density = 1.910086 g / cm^3
# Si number density = 19.144434 Si / 1000 Ang^3
#
#
#
# Elastic Constant Matrix: (Units=GPa)
#
#
# Indices 1 2 3 4 5 6 
#
# 1 95.0422 14.5518 7.4956 0.0000 0.0000 0.0000
# 2 14.5518 34.6415 16.8900 0.0000 0.0000 0.0000
# 3 7.4956 16.8900 93.3316 0.0000 0.0000 0.0000
# 4 0.0000 0.0000 0.0000 34.0678 0.0000 0.0000
# 5 0.0000 0.0000 0.0000 0.0000 34.6815 0.0000
# 6 0.0000 0.0000 0.0000 0.0000 0.0000 12.4437
#
#
#
# Elastic Compliance Matrix: (Units=1/GPa)
#
#
# Indices 1 2 3 4 5 6 
#
# 1 0.011245 -0.004698 -0.000053 0.000000 0.000000 0.000000
# 2 -0.004698 0.033623 -0.005707 0.000000 0.000000 0.000000
# 3 -0.000053 -0.005707 0.011752 0.000000 0.000000 0.000000
# 4 0.000000 0.000000 0.000000 0.029353 0.000000 0.000000
# 5 0.000000 0.000000 0.000000 0.000000 0.028834 0.000000
# 6 0.000000 0.000000 0.000000 0.000000 0.000000 0.080362
#
#
# Mechanical properties :
#
#
# Convention : Reuss Voigt Hill
#
# Bulk Modulus (GPa) = 28.00849 33.43224 30.72036
# Shear Modulus (GPa) = 21.93108 28.51045 25.22077
#
# Velocity S-wave (km/s) = 3.38828 3.86324 3.63353
# Velocity P-wave (km/s) = 5.47441 6.11560 5.80387
#
# Compressibility (1/GPa) = 0.03570346
#
# Stress axis : x y z
#
# Youngs Moduli (GPa) = 88.92753 29.74124 85.09481
#
# Poissons Ratio (x) = 0.13972 0.00451
# Poissons Ratio (y) = 0.41777 0.48567
# Poissons Ratio (z) = 0.00471 0.16975
#
# Static dielectric constant tensor:
#      x y z
#    x 1.643930 0.000000 0.000000 
#    y 0.000000 1.652210 0.000000 
#    z 0.000000 0.000000 1.663630 
# 
# From -- ./inp_files/9903.got.cif
#   From: 2010.05.17/outbox.cif.g08.bks.cpg/sg71_5_cif.got.tgz:9903.got - 2010.06.03 16:22:01.
