data_PCOD9523103
_publ_section_title
;
Structure prediction by ZEFSAII (Michael W. Deem and Ramdas Pophale) SiO2 
 PCOD9523103
Probable space group: I M M M
;
_chemical_formula_sum "Si O2"
_cell_formula_units_Z 64
_cell_length_a 15.195612
_cell_length_b 8.078262
_cell_length_c 24.813578
_cell_angle_alpha 90.000000
_cell_angle_beta 90.000000
_cell_angle_gamma 90.000000
_cell_volume 3045.969303
_symmetry_space_group_name_H-M "I M M M"
_symmetry_group_IT_number 71
_symmetry_cell_setting 'orthorhombic'
loop_
_space_group_symop_operation_xyz
x,y,z
-x,-y,z
x,-y,-z
-x,y,-z
-x,-y,-z
x,y,-z
-x,y,z
x,-y,z
1/2+x,1/2+y,1/2+z
1/2-x,1/2-y,1/2+z
1/2+x,1/2-y,1/2-z
1/2-x,1/2+y,1/2-z
1/2-x,1/2-y,1/2-z
1/2+x,1/2+y,1/2-z
1/2-x,1/2+y,1/2+z
1/2+x,1/2-y,1/2+z
loop_
_atom_site_type_symbol
_atom_site_label
_atom_site_fract_x
_atom_site_fract_y
_atom_site_fract_z
Si Si1 0.101523 0.302642 0.603403
Si Si2 0.398757 0.260185 0.500000
Si Si3 0.289878 0.308604 0.000000
Si Si4 0.597013 0.305343 0.615934
Si Si5 0.258995 0.303070 0.811714
O O1 0.102836 0.500000 0.594949
O O2 0.152489 0.222086 0.553154
O O3 0.154525 0.262906 0.657829
O O4 0.000000 0.247907 0.605640
O O5 0.500000 0.331898 0.500000
O O6 0.295154 0.311322 0.500000
O O7 0.398815 0.196601 0.438412
O O8 0.258567 0.500000 0.000000
O O9 0.500000 0.284520 0.640572
O O10 0.604321 0.500000 0.598764
O O11 0.675270 0.264606 0.655510
O O12 0.259557 0.500000 0.815151
O O13 0.250000 0.250000 0.750000
#
# Coordination Sequence:
#
# PCOD9523103 Si02
#       5
#    16   8   8  16  16
#     4  11  25  45  69  96 129 172 219 270 328 388
#     4  10  21  36  63 101 139 174 209 251 313 385
#     4  12  24  39  65 101 137 175 214 265 325 386
#     4  10  21  39  65  97 132 170 211 257 314 382
#     4  12  26  44  67  94 127 169 216 269 325 382
#
# _framework density 21.011374
#
# number of rings (size 3 to 8) (size 9 to 14) (size 15 to 20)
#    0.000    1.000    2.500    4.125    0.000    7.750 
#    0.000    2.500    0.000    0.000    0.000    0.000 
#    0.000    0.000    0.000    0.000    0.000    0.000 
#
# Total GULP energy -178409.574848 kJ/mol
# GULP energy per Si atom -5575.299214 kJ/mol
# Density = 2.096355 g / cm^3
# Si number density = 21.011374 Si / 1000 Ang^3
#
#
#
# Elastic Constant Matrix: (Units=GPa)
#
#
# Indices 1 2 3 4 5 6 
#
# 1 210.4805 29.1455 79.6105 0.0000 0.0000 0.0000
# 2 29.1455 91.4610 13.0758 0.0000 0.0000 0.0000
# 3 79.6105 13.0758 149.3789 0.0000 0.0000 0.0000
# 4 0.0000 0.0000 0.0000 14.9584 0.0000 0.0000
# 5 0.0000 0.0000 0.0000 0.0000 13.7733 0.0000
# 6 0.0000 0.0000 0.0000 0.0000 0.0000 40.8037
#
#
#
# Elastic Compliance Matrix: (Units=1/GPa)
#
#
# Indices 1 2 3 4 5 6 
#
# 1 0.006150 -0.001510 -0.003145 0.000000 0.000000 0.000000
# 2 -0.001510 0.011443 -0.000197 0.000000 0.000000 0.000000
# 3 -0.003145 -0.000197 0.008388 0.000000 0.000000 0.000000
# 4 0.000000 0.000000 0.000000 0.066852 0.000000 0.000000
# 5 0.000000 0.000000 0.000000 0.000000 0.072604 0.000000
# 6 0.000000 0.000000 0.000000 0.000000 0.000000 0.024508
#
#
# Mechanical properties :
#
#
# Convention : Reuss Voigt Hill
#
# Bulk Modulus (GPa) = 61.43952 77.22043 69.32998
# Shear Modulus (GPa) = 24.38136 35.87297 30.12717
#
# Velocity S-wave (km/s) = 3.41014 4.13645 3.79073
# Velocity P-wave (km/s) = 6.69403 7.72302 7.22686
#
# Compressibility (1/GPa) = 0.01627617
#
# Stress axis : x y z
#
# Youngs Moduli (GPa) = 162.60716 87.38990 119.21945
#
# Poissons Ratio (x) = 0.13196 0.37498
# Poissons Ratio (y) = 0.24555 0.02347
# Poissons Ratio (z) = 0.51145 0.01720
#
# Static dielectric constant tensor:
#      x y z
#    x 1.741160 0.000000 0.000000 
#    y 0.000000 1.903270 0.000000 
#    z 0.000000 0.000000 1.724260 
# 
# From -- ./inp_files/59490.got.cif
#   From: 2010.05.17/outbox.cif.g08.bks.cpg/sg71_30_cif.got.tgz:59490.got - 2010.06.03 16:22:01.
