data_PCOD9523071
_publ_section_title
;
Structure prediction by ZEFSAII (Michael W. Deem and Ramdas Pophale) SiO2 
 PCOD9523071
Probable space group: I M M M
;
_chemical_formula_sum "Si O2"
_cell_formula_units_Z 96
_cell_length_a 26.912647
_cell_length_b 14.747213
_cell_length_c 13.654931
_cell_angle_alpha 90.000000
_cell_angle_beta 90.000000
_cell_angle_gamma 90.000000
_cell_volume 5419.458287
_symmetry_space_group_name_H-M "I M M M"
_symmetry_group_IT_number 71
_symmetry_cell_setting 'orthorhombic'
loop_
_space_group_symop_operation_xyz
x,y,z
-x,-y,z
x,-y,-z
-x,y,-z
-x,-y,-z
x,y,-z
-x,y,z
x,-y,z
1/2+x,1/2+y,1/2+z
1/2-x,1/2-y,1/2+z
1/2+x,1/2-y,1/2-z
1/2-x,1/2+y,1/2-z
1/2-x,1/2-y,1/2-z
1/2+x,1/2+y,1/2-z
1/2-x,1/2+y,1/2+z
1/2+x,1/2-y,1/2+z
loop_
_atom_site_type_symbol
_atom_site_label
_atom_site_fract_x
_atom_site_fract_y
_atom_site_fract_z
Si Si1 0.778335 0.500000 0.117334
Si Si2 0.604336 0.000000 0.618129
Si Si3 0.443610 0.397145 0.882589
Si Si4 0.733842 0.353848 0.259474
Si Si5 0.630218 0.725023 0.767510
Si Si6 0.177110 0.395542 0.384569
Si Si7 0.442288 0.809478 0.617656
O O1 0.837130 0.500000 0.143749
O O2 0.752639 0.413113 0.167457
O O3 0.773483 0.500000 0.000000
O O4 0.574816 0.089420 0.648020
O O5 0.604099 0.000000 0.500000
O O6 0.500000 0.376307 0.850431
O O7 0.431696 0.500000 0.850427
O O8 0.404777 0.325700 0.843797
O O9 0.443340 0.396947 0.000000
O O10 0.750000 0.250000 0.250000
O O11 0.674853 0.343030 0.261124
O O12 0.765020 0.391862 0.351053
O O13 0.650529 0.818495 0.817889
O O14 0.596541 0.746806 0.673767
O O15 0.171962 0.374607 0.500000
O O16 0.159680 0.500000 0.369265
O O17 0.437641 0.801859 0.500000
O O18 0.500000 0.793827 0.642977
#
# Coordination Sequence:
#
# PCOD9523071 Si02
#       7
#     8   8  16  16  16  16  16
#     4  11  22  37  59  88 125 159 195 250 299 350
#     4   9  17  32  55  81 112 151 185 219 276 342
#     4   9  19  36  57  81 110 145 187 238 295 343
#     4  10  22  36  54  83 116 149 194 236 290 354
#     4  11  22  35  59  85 112 149 193 244 288 348
#     4  10  21  38  58  79 114 155 190 229 283 352
#     4  10  21  36  57  87 119 152 191 237 290 350
#
# _framework density 17.713947000000001
#
# number of rings (size 3 to 8) (size 9 to 14) (size 15 to 20)
#    0.000    2.000    0.833    3.750    2.333    5.000 
#    0.000    0.000    0.000    0.500    0.000    5.833 
#    0.000    0.000    0.000    0.000    0.000    0.000 
#
# Total GULP energy -267500.640800 kJ/mol
# GULP energy per Si atom -5572.930017 kJ/mol
# Density = 1.767363 g / cm^3
# Si number density = 17.713947 Si / 1000 Ang^3
#
#
#
# Elastic Constant Matrix: (Units=GPa)
#
#
# Indices 1 2 3 4 5 6 
#
# 1 122.1941 47.5794 47.1325 0.0000 0.0000 0.0000
# 2 47.5794 80.5655 26.7302 0.0000 0.0000 0.0000
# 3 47.1325 26.7302 72.5293 0.0000 0.0000 0.0000
# 4 0.0000 0.0000 0.0000 29.3440 0.0000 0.0000
# 5 0.0000 0.0000 0.0000 0.0000 28.1027 0.0000
# 6 0.0000 0.0000 0.0000 0.0000 0.0000 35.5618
#
#
#
# Elastic Compliance Matrix: (Units=1/GPa)
#
#
# Indices 1 2 3 4 5 6 
#
# 1 0.012713 -0.005431 -0.006260 0.000000 0.000000 0.000000
# 2 -0.005431 0.016461 -0.002538 0.000000 0.000000 0.000000
# 3 -0.006260 -0.002538 0.018791 0.000000 0.000000 0.000000
# 4 0.000000 0.000000 0.000000 0.034079 0.000000 0.000000
# 5 0.000000 0.000000 0.000000 0.000000 0.035584 0.000000
# 6 0.000000 0.000000 0.000000 0.000000 0.000000 0.028120
#
#
# Mechanical properties :
#
#
# Convention : Reuss Voigt Hill
#
# Bulk Modulus (GPa) = 51.25989 57.57479 54.41734
# Shear Modulus (GPa) = 27.66913 28.85814 28.26364
#
# Velocity S-wave (km/s) = 3.95650 4.04061 3.99878
# Velocity P-wave (km/s) = 7.06203 7.37169 7.21852
#
# Compressibility (1/GPa) = 0.01950843
#
# Stress axis : x y z
#
# Youngs Moduli (GPa) = 78.66025 60.74781 53.21804
#
# Poissons Ratio (x) = 0.32992 0.33314
# Poissons Ratio (y) = 0.42720 0.13504
# Poissons Ratio (z) = 0.49240 0.15415
#
# Static dielectric constant tensor:
#      x y z
#    x 1.634250 0.000000 0.000000 
#    y 0.000000 1.613660 0.000000 
#    z 0.000000 0.000000 1.596430 
# 
# From -- ./inp_files/39221.got.cif
#   From: 2010.05.17/outbox.cif.g08.bks.cpg/sg71_20_cif.got.tgz:39221.got - 2010.06.03 16:22:01.
