data_PCOD9523746
_publ_section_title
;
Structure prediction by ZEFSAII (Michael W. Deem and Ramdas Pophale) SiO2 
 PCOD9523746
Probable space group: I M M M
;
_chemical_formula_sum "Si O2"
_cell_formula_units_Z 58
_cell_length_a 14.770775
_cell_length_b 29.260150
_cell_length_c 8.001132
_cell_angle_alpha 90.000000
_cell_angle_beta 90.000000
_cell_angle_gamma 90.000000
_cell_volume 3458.049982
_symmetry_space_group_name_H-M "I M M M"
_symmetry_group_IT_number 71
_symmetry_cell_setting 'orthorhombic'
loop_
_space_group_symop_operation_xyz
x,y,z
-x,-y,z
x,-y,-z
-x,y,-z
-x,-y,-z
x,y,-z
-x,y,z
x,-y,z
1/2+x,1/2+y,1/2+z
1/2-x,1/2-y,1/2+z
1/2+x,1/2-y,1/2-z
1/2-x,1/2+y,1/2-z
1/2-x,1/2-y,1/2-z
1/2+x,1/2+y,1/2-z
1/2-x,1/2+y,1/2+z
1/2+x,1/2-y,1/2+z
loop_
_atom_site_type_symbol
_atom_site_label
_atom_site_fract_x
_atom_site_fract_y
_atom_site_fract_z
Si Si1 0.000000 0.742307 0.189423
Si Si2 0.500000 0.500000 0.000000
Si Si3 0.807067 0.881596 0.803929
Si Si4 0.688211 0.792830 0.801505
Si Si5 0.000000 0.843807 0.694438
Si Si6 0.187984 0.050369 0.500000
O O1 0.090197 0.713514 0.221218
O O2 0.000000 0.788702 0.295799
O O3 0.000000 0.759051 0.000000
O O4 0.580772 0.461155 0.000000
O O5 0.740500 0.839486 0.761304
O O6 0.791863 0.921296 0.668128
O O7 0.909396 0.863115 0.779262
O O8 0.794854 0.894301 0.000000
O O9 0.750000 0.750000 0.750000
O O10 0.676560 0.791355 0.000000
O O11 0.000000 0.856344 0.500000
O O12 0.232715 0.000000 0.500000
#
# Coordination Sequence:
#
# PCOD9523746 Si02
#       6
#     8   2  16  16   8   8
#     4  12  24  35  53  83 118 159 205 245 290 343
#     4   8  20  40  58  92 116 144 204 248 286 368
#     4  11  23  38  59  83 116 160 202 240 297 354
#     4  11  23  37  54  82 116 157 202 243 289 351
#     4  12  21  33  53  78 119 163 201 240 288 344
#     4  10  22  40  60  83 116 152 201 246 301 348
#
# _framework density 16.772459000000001
#
# number of rings (size 3 to 8) (size 9 to 14) (size 15 to 20)
#    0.414    0.552    4.138    4.138    3.862    0.552 
#    0.000    0.690    0.000    0.000    0.000    1.931 
#    0.000    4.414    0.000    0.000    0.000    0.000 
#
# Total GULP energy -161635.016036 kJ/mol
# GULP energy per Si atom -5573.621243 kJ/mol
# Density = 1.673428 g / cm^3
# Si number density = 16.772459 Si / 1000 Ang^3
#
#
#
# Elastic Constant Matrix: (Units=GPa)
#
#
# Indices 1 2 3 4 5 6 
#
# 1 97.5168 40.6240 26.6576 0.0003 0.0002 0.0008
# 2 40.6240 124.5518 71.0335 0.0011 0.0004 0.0013
# 3 26.6576 71.0335 98.8337 -0.0013 0.0041 0.0039
# 4 0.0003 0.0011 -0.0013 16.4170 0.0004 0.0004
# 5 0.0002 0.0004 0.0041 0.0004 20.9831 0.0000
# 6 0.0008 0.0013 0.0039 0.0004 0.0000 21.1403
#
#
#
# Elastic Compliance Matrix: (Units=1/GPa)
#
#
# Indices 1 2 3 4 5 6 
#
# 1 0.011897 -0.003474 -0.000712 0.000000 0.000000 0.000000
# 2 -0.003474 0.014620 -0.009571 -0.000002 0.000002 0.000001
# 3 -0.000712 -0.009571 0.017189 0.000002 -0.000003 -0.000003
# 4 0.000000 -0.000002 0.000002 0.060912 -0.000001 -0.000001
# 5 0.000000 0.000002 -0.000003 -0.000001 0.047657 0.000000
# 6 0.000000 0.000001 -0.000003 -0.000001 0.000000 0.047303
#
#
# Mechanical properties :
#
#
# Convention : Reuss Voigt Hill
#
# Bulk Modulus (GPa) = 61.75918 66.39251 64.07585
# Shear Modulus (GPa) = 21.50638 23.88057 22.69348
#
# Velocity S-wave (km/s) = 3.58473 3.77742 3.68233
# Velocity P-wave (km/s) = 7.35088 7.66129 7.50769
#
# Compressibility (1/GPa) = 0.01619192
#
# Stress axis : x y z
#
# Youngs Moduli (GPa) = 84.05804 68.39802 58.17788
#
# Poissons Ratio (x) = 0.23763 0.04141
# Poissons Ratio (y) = 0.29204 0.55681
# Poissons Ratio (z) = 0.05983 0.65462
#
# Static dielectric constant tensor:
#      x y z
#    x 1.547020 0.000000 0.000000 
#    y 0.000000 1.556780 0.000000 
#    z 0.000000 0.000000 1.583620 
# 
# From -- ./inp_files/5816.got.cif
#   From: 2010.05.17/outbox.cif.g08.bks.cpg/sg71_3_cif.got.tgz:5816.got - 2010.06.03 16:22:01.
