data_PCOD9523212
_publ_section_title
;
Structure prediction by ZEFSAII (Michael W. Deem and Ramdas Pophale) SiO2 
 PCOD9523212
Probable space group: I M M M
;
_chemical_formula_sum "Si O2"
_cell_formula_units_Z 88
_cell_length_a 8.896533
_cell_length_b 18.090259
_cell_length_c 27.849401
_cell_angle_alpha 90.000000
_cell_angle_beta 90.000000
_cell_angle_gamma 90.000000
_cell_volume 4482.098921
_symmetry_space_group_name_H-M "I M M M"
_symmetry_group_IT_number 71
_symmetry_cell_setting 'orthorhombic'
loop_
_space_group_symop_operation_xyz
x,y,z
-x,-y,z
x,-y,-z
-x,y,-z
-x,-y,-z
x,y,-z
-x,y,z
x,-y,z
1/2+x,1/2+y,1/2+z
1/2-x,1/2-y,1/2+z
1/2+x,1/2-y,1/2-z
1/2-x,1/2+y,1/2-z
1/2-x,1/2-y,1/2-z
1/2+x,1/2+y,1/2-z
1/2-x,1/2+y,1/2+z
1/2+x,1/2-y,1/2+z
loop_
_atom_site_type_symbol
_atom_site_label
_atom_site_fract_x
_atom_site_fract_y
_atom_site_fract_z
Si Si1 0.681609 0.000000 0.557670
Si Si2 0.321503 0.415083 0.595146
Si Si3 0.825461 0.279956 0.446349
Si Si4 0.817600 0.860486 0.616105
Si Si5 0.330784 0.911902 0.195173
Si Si6 0.178460 0.822794 0.725348
O O1 0.744685 0.071445 0.586862
O O2 0.500000 0.000000 0.559719
O O3 0.723201 0.000000 0.500000
O O4 0.500000 0.413881 0.601497
O O5 0.277694 0.500000 0.583765
O O6 0.269468 0.354322 0.557632
O O7 0.241142 0.390958 0.644434
O O8 0.816371 0.249293 0.500000
O O9 0.777653 0.215927 0.410394
O O10 0.000000 0.298660 0.436422
O O11 0.772524 0.847414 0.671772
O O12 0.000000 0.869582 0.614466
O O13 0.500000 0.881393 0.199850
O O14 0.226692 0.886517 0.238194
O O15 0.339325 0.000000 0.195114
O O16 0.250000 0.750000 0.750000
O O17 0.000000 0.812532 0.723499
#
# Coordination Sequence:
#
# PCOD9523212 Si02
#       6
#     8  16  16  16  16  16
#     4  11  25  43  65  95 127 161 209 269 326 379
#     4  10  21  37  58  86 120 159 201 248 301 359
#     4  10  21  38  61  87 116 154 202 253 305 365
#     4  10  23  42  64  90 121 161 206 253 309 374
#     4  10  21  37  58  83 115 155 194 235 288 348
#     4  11  23  38  60  90 123 158 200 248 299 360
#
# _framework density 19.633659000000002
#
# number of rings (size 3 to 8) (size 9 to 14) (size 15 to 20)
#    0.000    1.727    0.000    3.545    1.273    8.000 
#    0.000    1.818    0.000    0.000    0.000    0.000 
#    0.000    0.000    0.000    0.000    0.000    0.000 
#
# Total GULP energy -245585.552149 kJ/mol
# GULP energy per Si atom -5581.489822 kJ/mol
# Density = 1.958897 g / cm^3
# Si number density = 19.633659 Si / 1000 Ang^3
#
#
#
# Elastic Constant Matrix: (Units=GPa)
#
#
# Indices 1 2 3 4 5 6 
#
# 1 46.3748 30.8187 27.8276 0.0000 0.0000 0.0000
# 2 30.8187 78.4117 51.7503 0.0000 0.0000 0.0000
# 3 27.8276 51.7503 112.8419 0.0000 0.0000 0.0000
# 4 0.0000 0.0000 0.0000 33.5271 0.0000 0.0000
# 5 0.0000 0.0000 0.0000 0.0000 29.6361 0.0000
# 6 0.0000 0.0000 0.0000 0.0000 0.0000 34.4974
#
#
#
# Elastic Compliance Matrix: (Units=1/GPa)
#
#
# Indices 1 2 3 4 5 6 
#
# 1 0.029807 -0.009843 -0.002836 0.000000 0.000000 0.000000
# 2 -0.009843 0.021539 -0.007451 0.000000 0.000000 0.000000
# 3 -0.002836 -0.007451 0.012978 0.000000 0.000000 0.000000
# 4 0.000000 0.000000 0.000000 0.029827 0.000000 0.000000
# 5 0.000000 0.000000 0.000000 0.000000 0.033743 0.000000
# 6 0.000000 0.000000 0.000000 0.000000 0.000000 0.028988
#
#
# Mechanical properties :
#
#
# Convention : Reuss Voigt Hill
#
# Bulk Modulus (GPa) = 41.55610 50.93576 46.24593
# Shear Modulus (GPa) = 24.37083 28.01423 26.19253
#
# Velocity S-wave (km/s) = 3.52700 3.78146 3.65644
# Velocity P-wave (km/s) = 6.14801 6.71307 6.43674
#
# Compressibility (1/GPa) = 0.02406386
#
# Stress axis : x y z
#
# Youngs Moduli (GPa) = 33.54942 46.42683 77.05111
#
# Poissons Ratio (x) = 0.45699 0.21855
# Poissons Ratio (y) = 0.33023 0.57409
# Poissons Ratio (z) = 0.09516 0.34591
#
# Static dielectric constant tensor:
#      x y z
#    x 1.690070 0.000000 0.000000 
#    y 0.000000 1.742370 0.000000 
#    z 0.000000 0.000000 1.692760 
# 
# From -- ./inp_files/57534.got.cif
#   From: 2010.05.17/outbox.cif.g08.bks.cpg/sg71_29_cif.got.tgz:57534.got - 2010.06.03 16:22:01.
