data_PCOD9523537
_publ_section_title
;
Structure prediction by ZEFSAII (Michael W. Deem and Ramdas Pophale) SiO2 
 PCOD9523537
Probable space group: I M M M
;
_chemical_formula_sum "Si O2"
_cell_formula_units_Z 64
_cell_length_a 24.650722
_cell_length_b 8.525635
_cell_length_c 15.953697
_cell_angle_alpha 90.000000
_cell_angle_beta 90.000000
_cell_angle_gamma 90.000000
_cell_volume 3352.877752
_symmetry_space_group_name_H-M "I M M M"
_symmetry_group_IT_number 71
_symmetry_cell_setting 'orthorhombic'
loop_
_space_group_symop_operation_xyz
x,y,z
-x,-y,z
x,-y,-z
-x,y,-z
-x,-y,-z
x,y,-z
-x,y,z
x,-y,z
1/2+x,1/2+y,1/2+z
1/2-x,1/2-y,1/2+z
1/2+x,1/2-y,1/2-z
1/2-x,1/2+y,1/2-z
1/2-x,1/2-y,1/2-z
1/2+x,1/2+y,1/2-z
1/2-x,1/2+y,1/2+z
1/2+x,1/2-y,1/2+z
loop_
_atom_site_type_symbol
_atom_site_label
_atom_site_fract_x
_atom_site_fract_y
_atom_site_fract_z
Si Si1 0.500000 0.810619 0.364530
Si Si2 0.886583 0.810220 0.403380
Si Si3 0.289691 0.689080 0.500000
Si Si4 0.000000 0.189062 0.676399
Si Si5 0.776111 0.311997 0.335225
Si Si6 0.088390 0.310768 0.000000
O O1 0.500000 0.741401 0.272443
O O2 0.552734 0.763707 0.418980
O O3 0.500000 0.000000 0.359797
O O4 0.879226 0.760479 0.500000
O O5 0.945044 0.757548 0.369267
O O6 0.837345 0.746154 0.348398
O O7 0.885280 0.000000 0.401205
O O8 0.288624 0.500000 0.500000
O O9 0.258389 0.742906 0.416346
O O10 0.351619 0.743753 0.500000
O O11 0.000000 0.000000 0.672897
O O12 0.775528 0.500000 0.334053
O O13 0.750000 0.250000 0.250000
O O14 0.091182 0.500000 0.000000
#
# Coordination Sequence:
#
# PCOD9523537 Si02
#       6
#     8  16   8   8  16   8
#     4   9  20  39  57  84 118 152 192 241 288 345
#     4  10  21  40  63  87 118 156 197 242 295 353
#     4  10  23  41  61  87 121 154 196 248 297 350
#     4  10  22  37  59  89 118 150 193 244 293 347
#     4  11  24  42  62  89 123 159 200 249 299 355
#     4   9  20  38  60  82 115 155 195 236 288 349
#
# _framework density 19.088080999999999
#
# number of rings (size 3 to 8) (size 9 to 14) (size 15 to 20)
#    0.000    2.000    1.250    1.875    3.500    5.500 
#    0.000    1.250    0.000    2.250    0.000    0.000 
#    0.000    0.000    0.000    0.000    0.000    0.000 
#
# Total GULP energy -178767.503827 kJ/mol
# GULP energy per Si atom -5586.484495 kJ/mol
# Density = 1.904464 g / cm^3
# Si number density = 19.088081 Si / 1000 Ang^3
#
#
#
# Elastic Constant Matrix: (Units=GPa)
#
#
# Indices 1 2 3 4 5 6 
#
# 1 192.5642 27.7656 88.5099 0.0000 0.0000 0.0000
# 2 27.7656 13.5857 25.7354 0.0000 0.0000 0.0000
# 3 88.5099 25.7354 153.6657 0.0000 0.0000 0.0000
# 4 0.0000 0.0000 0.0000 29.8790 0.0000 0.0000
# 5 0.0000 0.0000 0.0000 0.0000 10.3358 0.0000
# 6 0.0000 0.0000 0.0000 0.0000 0.0000 34.4655
#
#
#
# Elastic Compliance Matrix: (Units=1/GPa)
#
#
# Indices 1 2 3 4 5 6 
#
# 1 0.008096 -0.011296 -0.002771 0.000000 0.000000 0.000000
# 2 -0.011296 0.123570 -0.014189 0.000000 0.000000 0.000000
# 3 -0.002771 -0.014189 0.010480 0.000000 0.000000 0.000000
# 4 0.000000 0.000000 0.000000 0.033468 0.000000 0.000000
# 5 0.000000 0.000000 0.000000 0.000000 0.096751 0.000000
# 6 0.000000 0.000000 0.000000 0.000000 0.000000 0.029015
#
#
# Mechanical properties :
#
#
# Convention : Reuss Voigt Hill
#
# Bulk Modulus (GPa) = 11.67759 71.53751 41.60755
# Shear Modulus (GPa) = 12.93876 29.45637 21.19757
#
# Velocity S-wave (km/s) = 2.60637 3.93260 3.33605
# Velocity P-wave (km/s) = 3.89725 7.62754 6.05673
#
# Compressibility (1/GPa) = 0.08563412
#
# Stress axis : x y z
#
# Youngs Moduli (GPa) = 123.52502 8.09258 95.41872
#
# Poissons Ratio (x) = 0.09141 0.26442
# Poissons Ratio (y) = 1.39530 1.35389
# Poissons Ratio (z) = 0.34231 0.11482
#
# Static dielectric constant tensor:
#      x y z
#    x 1.639750 0.000000 0.000000 
#    y 0.000000 1.656870 0.000000 
#    z 0.000000 0.000000 1.642130 
# 
# From -- ./inp_files/12046.got.cif
#   From: 2010.05.17/outbox.cif.g08.bks.cpg/sg71_7_cif.got.tgz:12046.got - 2010.06.03 16:22:01.
