data_PCOD9523546
_publ_section_title
;
Structure prediction by ZEFSAII (Michael W. Deem and Ramdas Pophale) SiO2 
 PCOD9523546
Probable space group: I M M M
;
_chemical_formula_sum "Si O2"
_cell_formula_units_Z 80
_cell_length_a 24.167646
_cell_length_b 11.607289
_cell_length_c 13.670035
_cell_angle_alpha 90.000000
_cell_angle_beta 90.000000
_cell_angle_gamma 90.000000
_cell_volume 3834.729859
_symmetry_space_group_name_H-M "I M M M"
_symmetry_group_IT_number 71
_symmetry_cell_setting 'orthorhombic'
loop_
_space_group_symop_operation_xyz
x,y,z
-x,-y,z
x,-y,-z
-x,y,-z
-x,-y,-z
x,y,-z
-x,y,z
x,-y,z
1/2+x,1/2+y,1/2+z
1/2-x,1/2-y,1/2+z
1/2+x,1/2-y,1/2-z
1/2-x,1/2+y,1/2-z
1/2-x,1/2-y,1/2-z
1/2+x,1/2+y,1/2-z
1/2-x,1/2+y,1/2+z
1/2+x,1/2-y,1/2+z
loop_
_atom_site_type_symbol
_atom_site_label
_atom_site_fract_x
_atom_site_fract_y
_atom_site_fract_z
Si Si1 0.671518 0.755657 0.383416
Si Si2 0.216398 0.130799 0.380829
Si Si3 0.650348 0.500000 0.615749
Si Si4 0.602199 0.265062 0.884578
Si Si5 0.562942 0.864193 0.708552
Si Si6 0.936663 0.000000 0.711339
O O1 0.669759 0.772419 0.500000
O O2 0.723482 0.829277 0.346230
O O3 0.681581 0.620029 0.365991
O O4 0.611841 0.794659 0.344360
O O5 0.217205 0.128882 0.500000
O O6 0.166830 0.217575 0.355717
O O7 0.203474 0.000000 0.349233
O O8 0.634478 0.500000 0.500000
O O9 0.599637 0.500000 0.690720
O O10 0.573238 0.166405 0.821967
O O11 0.575885 0.386736 0.852318
O O12 0.597844 0.248335 0.000000
O O13 0.500000 0.830183 0.681572
O O14 0.569079 0.000000 0.689891
O O15 0.000000 0.000000 0.740127
#
# Coordination Sequence:
#
# PCOD9523546 Si02
#       6
#    16  16   8  16  16   8
#     4  10  21  40  65  92 124 162 198 246 310 367
#     4   9  18  36  62  91 124 157 200 253 301 359
#     4  10  22  40  61  94 132 159 195 247 304 366
#     4  11  23  41  63  91 123 160 206 257 307 357
#     4  11  25  43  61  88 123 159 208 257 300 366
#     4  12  23  39  64  93 123 160 205 249 302 370
#
# _framework density 20.861965000000001
#
# number of rings (size 3 to 8) (size 9 to 14) (size 15 to 20)
#    0.000    1.600    3.000    1.500    0.000    5.000 
#    1.800    4.000    0.000    0.000    0.000    0.000 
#    0.000    0.000    0.000    0.000    0.000    0.000 
#
# Total GULP energy -223528.222291 kJ/mol
# GULP energy per Si atom -5588.205557 kJ/mol
# Density = 2.081448 g / cm^3
# Si number density = 20.861965 Si / 1000 Ang^3
#
#
#
# Elastic Constant Matrix: (Units=GPa)
#
#
# Indices 1 2 3 4 5 6 
#
# 1 91.0022 22.6279 -7.4568 0.0000 0.0000 0.0000
# 2 22.6279 63.2762 -2.3904 0.0000 0.0000 0.0000
# 3 -7.4568 -2.3904 43.6141 0.0000 0.0000 0.0000
# 4 0.0000 0.0000 0.0000 18.5826 0.0000 0.0000
# 5 0.0000 0.0000 0.0000 0.0000 22.9101 0.0000
# 6 0.0000 0.0000 0.0000 0.0000 0.0000 22.1345
#
#
#
# Elastic Compliance Matrix: (Units=1/GPa)
#
#
# Indices 1 2 3 4 5 6 
#
# 1 0.012209 -0.004296 0.001852 0.000000 0.000000 0.000000
# 2 -0.004296 0.017348 0.000216 0.000000 0.000000 0.000000
# 3 0.001852 0.000216 0.023257 0.000000 0.000000 0.000000
# 4 0.000000 0.000000 0.000000 0.053814 0.000000 0.000000
# 5 0.000000 0.000000 0.000000 0.000000 0.043649 0.000000
# 6 0.000000 0.000000 0.000000 0.000000 0.000000 0.045178
#
#
# Mechanical properties :
#
#
# Convention : Reuss Voigt Hill
#
# Bulk Modulus (GPa) = 20.67900 24.82822 22.75361
# Shear Modulus (GPa) = 23.14498 25.06623 24.10560
#
# Velocity S-wave (km/s) = 3.33443 3.47007 3.40292
# Velocity P-wave (km/s) = 4.97578 5.28982 5.13520
#
# Compressibility (1/GPa) = 0.04835825
#
# Stress axis : x y z
#
# Youngs Moduli (GPa) = 81.90892 57.64308 42.99813
#
# Poissons Ratio (x) = 0.24763 -0.07963
# Poissons Ratio (y) = 0.35187 -0.00930
# Poissons Ratio (z) = -0.15169 -0.01247
#
# Static dielectric constant tensor:
#      x y z
#    x 1.734210 0.000000 0.000000 
#    y 0.000000 1.730450 0.000000 
#    z 0.000000 0.000000 1.780650 
# 
# From -- ./inp_files/38973.got.cif
#   From: 2010.05.17/outbox.cif.g08.bks.cpg/sg71_20_cif.got.tgz:38973.got - 2010.06.03 16:22:01.
