data_PCOD9523720
_publ_section_title
;
Structure prediction by ZEFSAII (Michael W. Deem and Ramdas Pophale) SiO2 
 PCOD9523720
Probable space group: I M M M
;
_chemical_formula_sum "Si O2"
_cell_formula_units_Z 88
_cell_length_a 21.954154
_cell_length_b 18.473491
_cell_length_c 11.617276
_cell_angle_alpha 90.000000
_cell_angle_beta 90.000000
_cell_angle_gamma 90.000000
_cell_volume 4711.617074
_symmetry_space_group_name_H-M "I M M M"
_symmetry_group_IT_number 71
_symmetry_cell_setting 'orthorhombic'
loop_
_space_group_symop_operation_xyz
x,y,z
-x,-y,z
x,-y,-z
-x,y,-z
-x,-y,-z
x,y,-z
-x,y,z
x,-y,z
1/2+x,1/2+y,1/2+z
1/2-x,1/2-y,1/2+z
1/2+x,1/2-y,1/2-z
1/2-x,1/2+y,1/2-z
1/2-x,1/2-y,1/2-z
1/2+x,1/2+y,1/2-z
1/2-x,1/2+y,1/2+z
1/2+x,1/2-y,1/2+z
loop_
_atom_site_type_symbol
_atom_site_label
_atom_site_fract_x
_atom_site_fract_y
_atom_site_fract_z
Si Si1 0.690192 0.080966 0.364012
Si Si2 0.242283 0.791384 0.125925
Si Si3 0.428832 0.077982 0.000000
Si Si4 0.126063 0.675761 0.688348
Si Si5 0.928165 0.830803 0.361136
Si Si6 0.678975 0.584088 0.255153
O O1 0.686704 0.082637 0.500000
O O2 0.646590 0.140783 0.308317
O O3 0.760753 0.090571 0.325925
O O4 0.672550 0.000000 0.322777
O O5 0.250000 0.750000 0.250000
O O6 0.310583 0.820607 0.119430
O O7 0.194900 0.856558 0.147238
O O8 0.229553 0.755547 0.000000
O O9 0.413964 0.122145 0.114146
O O10 0.500000 0.069090 0.000000
O O11 0.396948 0.000000 0.000000
O O12 0.094966 0.754121 0.690032
O O13 0.921408 0.826928 0.500000
O O14 0.881899 0.890516 0.310631
O O15 0.000000 0.842719 0.336482
O O16 0.674770 0.500000 0.291304
#
# Coordination Sequence:
#
# PCOD9523720 Si02
#       6
#    16  16   8  16  16  16
#     4   9  19  35  57  87 121 154 188 240 306 371
#     4  11  22  38  63  94 125 160 198 249 310 374
#     4  11  22  36  58  86 117 155 196 240 295 354
#     4  11  20  36  57  85 118 155 193 244 299 359
#     4  11  22  37  58  83 118 162 210 260 311 366
#     4  10  22  39  59  88 124 157 197 250 308 367
#
# _framework density 18.677240000000001
#
# number of rings (size 3 to 8) (size 9 to 14) (size 15 to 20)
#    0.000    1.545    3.636    1.636    0.000    5.455 
#    0.000    0.909    0.000    3.818    0.000    7.636 
#    0.000    0.000    0.000    0.000    0.000    0.000 
#
# Total GULP energy -245090.334272 kJ/mol
# GULP energy per Si atom -5570.234870 kJ/mol
# Density = 1.863473 g / cm^3
# Si number density = 18.677240 Si / 1000 Ang^3
#
#
#
# Elastic Constant Matrix: (Units=GPa)
#
#
# Indices 1 2 3 4 5 6 
#
# 1 94.5579 29.1695 23.1299 0.0000 0.0000 0.0000
# 2 29.1695 104.4953 30.5760 0.0000 0.0000 0.0000
# 3 23.1299 30.5760 98.5494 0.0000 0.0000 0.0000
# 4 0.0000 0.0000 0.0000 14.2223 0.0000 0.0000
# 5 0.0000 0.0000 0.0000 0.0000 92.8371 0.0000
# 6 0.0000 0.0000 0.0000 0.0000 0.0000 22.9342
#
#
#
# Elastic Compliance Matrix: (Units=1/GPa)
#
#
# Indices 1 2 3 4 5 6 
#
# 1 0.011899 -0.002755 -0.001938 0.000000 0.000000 0.000000
# 2 -0.002755 0.011163 -0.002817 0.000000 0.000000 0.000000
# 3 -0.001938 -0.002817 0.011476 0.000000 0.000000 0.000000
# 4 0.000000 0.000000 0.000000 0.070312 0.000000 0.000000
# 5 0.000000 0.000000 0.000000 0.000000 0.010772 0.000000
# 6 0.000000 0.000000 0.000000 0.000000 0.000000 0.043603
#
#
# Mechanical properties :
#
#
# Convention : Reuss Voigt Hill
#
# Bulk Modulus (GPa) = 51.23190 51.48370 51.35780
# Shear Modulus (GPa) = 27.66238 40.31386 33.98812
#
# Velocity S-wave (km/s) = 3.85265 4.65095 4.27049
# Velocity P-wave (km/s) = 6.87606 7.51442 7.20232
#
# Compressibility (1/GPa) = 0.01951909
#
# Stress axis : x y z
#
# Youngs Moduli (GPa) = 84.03815 89.58180 87.13770
#
# Poissons Ratio (x) = 0.24676 0.16889
# Poissons Ratio (y) = 0.23149 0.24546
# Poissons Ratio (z) = 0.16288 0.25235
#
# Static dielectric constant tensor:
#      x y z
#    x 1.679910 0.000000 0.000000 
#    y 0.000000 -10.008660 0.000000 
#    z 0.000000 0.000000 1.650280 
# 
# From -- ./inp_files/23939.got.cif
#   From: 2010.05.17/outbox.cif.g08.bks.cpg/sg71_12_cif.got.tgz:23939.got - 2010.06.03 16:22:01.
