data_PCOD9523371
_publ_section_title
;
Structure prediction by ZEFSAII (Michael W. Deem and Ramdas Pophale) SiO2 
 PCOD9523371
Probable space group: I M M M
;
_chemical_formula_sum "Si O2"
_cell_formula_units_Z 88
_cell_length_a 28.327259
_cell_length_b 8.248835
_cell_length_c 18.201078
_cell_angle_alpha 90.000000
_cell_angle_beta 90.000000
_cell_angle_gamma 90.000000
_cell_volume 4252.989209
_symmetry_space_group_name_H-M "I M M M"
_symmetry_group_IT_number 71
_symmetry_cell_setting 'orthorhombic'
loop_
_space_group_symop_operation_xyz
x,y,z
-x,-y,z
x,-y,-z
-x,y,-z
-x,-y,-z
x,y,-z
-x,y,z
x,-y,z
1/2+x,1/2+y,1/2+z
1/2-x,1/2-y,1/2+z
1/2+x,1/2-y,1/2-z
1/2-x,1/2+y,1/2-z
1/2-x,1/2-y,1/2-z
1/2+x,1/2+y,1/2-z
1/2-x,1/2+y,1/2+z
1/2+x,1/2-y,1/2+z
loop_
_atom_site_type_symbol
_atom_site_label
_atom_site_fract_x
_atom_site_fract_y
_atom_site_fract_z
Si Si1 0.766531 0.693633 0.830246
Si Si2 0.824751 0.195892 0.416698
Si Si3 0.053691 0.194388 0.838150
Si Si4 0.500000 0.802486 0.082948
Si Si5 0.355197 0.695616 0.581705
Si Si6 0.911408 0.694193 0.319684
O O1 0.767604 0.500000 0.829625
O O2 0.750000 0.750000 0.750000
O O3 0.726836 0.747847 0.888869
O O4 0.817214 0.753725 0.857453
O O5 0.834713 0.252895 0.500000
O O6 0.862846 0.254735 0.357630
O O7 0.825853 0.000000 0.417353
O O8 0.092207 0.252967 0.897010
O O9 0.076486 0.233096 0.759232
O O10 0.000000 0.258989 0.842936
O O11 0.050655 0.000000 0.845429
O O12 0.453462 0.752120 0.126165
O O13 0.500000 0.000000 0.081402
O O14 0.500000 0.742978 0.000000
O O15 0.341715 0.753337 0.500000
O O16 0.355951 0.500000 0.580747
O O17 0.912356 0.500000 0.313037
#
# Coordination Sequence:
#
# PCOD9523371 Si02
#       6
#    16  16  16   8  16  16
#     4  11  23  40  62  88 119 156 196 239 292 350
#     4  10  22  39  57  80 114 153 192 235 284 341
#     4  10  21  38  60  85 116 154 194 239 292 349
#     4   9  18  32  49  73 108 145 182 230 285 335
#     4  10  22  40  62  89 120 154 196 246 296 349
#     4  11  21  35  56  83 115 151 192 238 287 342
#
# _framework density 20.691329
#
# number of rings (size 3 to 8) (size 9 to 14) (size 15 to 20)
#    0.000    1.727    0.909    3.273    0.000    9.091 
#    0.000    1.818    0.000    2.182    0.000    2.545 
#    0.000    0.000    0.000    0.000    0.000    0.000 
#
# Total GULP energy -245840.956501 kJ/mol
# GULP energy per Si atom -5587.294466 kJ/mol
# Density = 2.064423 g / cm^3
# Si number density = 20.691329 Si / 1000 Ang^3
#
#
#
# Elastic Constant Matrix: (Units=GPa)
#
#
# Indices 1 2 3 4 5 6 
#
# 1 145.7595 16.3513 42.5545 0.0000 0.0000 0.0000
# 2 16.3513 10.3215 7.3479 0.0000 0.0000 0.0000
# 3 42.5545 7.3479 101.4590 0.0000 0.0000 0.0000
# 4 0.0000 0.0000 0.0000 17.0011 0.0000 0.0000
# 5 0.0000 0.0000 0.0000 0.0000 42.9267 0.0000
# 6 0.0000 0.0000 0.0000 0.0000 0.0000 22.8498
#
#
#
# Elastic Compliance Matrix: (Units=1/GPa)
#
#
# Indices 1 2 3 4 5 6 
#
# 1 0.009097 -0.012331 -0.002923 0.000000 0.000000 0.000000
# 2 -0.012331 0.118866 -0.003437 0.000000 0.000000 0.000000
# 3 -0.002923 -0.003437 0.011331 0.000000 0.000000 0.000000
# 4 0.000000 0.000000 0.000000 0.058820 0.000000 0.000000
# 5 0.000000 0.000000 0.000000 0.000000 0.023296 0.000000
# 6 0.000000 0.000000 0.000000 0.000000 0.000000 0.043764
#
#
# Mechanical properties :
#
#
# Convention : Reuss Voigt Hill
#
# Bulk Modulus (GPa) = 9.81224 43.33860 26.57542
# Shear Modulus (GPa) = 14.85776 29.30796 22.08286
#
# Velocity S-wave (km/s) = 2.68258 3.76764 3.27043
# Velocity P-wave (km/s) = 3.78781 6.31804 5.20889
#
# Compressibility (1/GPa) = 0.10191355
#
# Stress axis : x y z
#
# Youngs Moduli (GPa) = 109.92461 8.41285 88.25450
#
# Poissons Ratio (x) = 0.10374 0.25793
# Poissons Ratio (y) = 1.35548 0.30329
# Poissons Ratio (z) = 0.32126 0.02891
#
# Static dielectric constant tensor:
#      x y z
#    x 1.743260 0.000000 0.000000 
#    y 0.000000 1.724220 0.000000 
#    z 0.000000 0.000000 1.727070 
# 
# From -- ./inp_files/49219.got.cif
#   From: 2010.05.17/outbox.cif.g08.bks.cpg/sg71_25_cif.got.tgz:49219.got - 2010.06.03 16:22:01.
