data_PCOD9523575
_publ_section_title
;
Structure prediction by ZEFSAII (Michael W. Deem and Ramdas Pophale) SiO2 
 PCOD9523575
Probable space group: I M M M
;
_chemical_formula_sum "Si O2"
_cell_formula_units_Z 66
_cell_length_a 14.454980
_cell_length_b 7.307122
_cell_length_c 30.564509
_cell_angle_alpha 90.000000
_cell_angle_beta 90.000000
_cell_angle_gamma 90.000000
_cell_volume 3228.354940
_symmetry_space_group_name_H-M "I M M M"
_symmetry_group_IT_number 71
_symmetry_cell_setting 'orthorhombic'
loop_
_space_group_symop_operation_xyz
x,y,z
-x,-y,z
x,-y,-z
-x,y,-z
-x,-y,-z
x,y,-z
-x,y,z
x,-y,z
1/2+x,1/2+y,1/2+z
1/2-x,1/2-y,1/2+z
1/2+x,1/2-y,1/2-z
1/2-x,1/2+y,1/2-z
1/2-x,1/2-y,1/2-z
1/2+x,1/2+y,1/2-z
1/2-x,1/2+y,1/2+z
1/2+x,1/2-y,1/2+z
loop_
_atom_site_type_symbol
_atom_site_label
_atom_site_fract_x
_atom_site_fract_y
_atom_site_fract_z
Si Si1 0.741491 0.287570 0.322697
Si Si2 0.326813 0.278996 0.500000
Si Si3 0.000000 0.500000 0.000000
Si Si4 0.199379 0.722351 0.416625
Si Si5 0.394224 0.721679 0.751751
Si Si6 0.500000 0.223135 0.050944
O O1 0.717285 0.500000 0.329247
O O2 0.760266 0.209997 0.370558
O O3 0.661195 0.211747 0.291210
O O4 0.834633 0.277442 0.293831
O O5 0.343628 0.500000 0.500000
O O6 0.265232 0.234579 0.542706
O O7 0.418754 0.160174 0.500000
O O8 0.195281 0.500000 0.414301
O O9 0.094615 0.783323 0.426080
O O10 0.500000 0.782029 0.753096
O O11 0.393227 0.500000 0.751042
O O12 0.500000 0.000000 0.051243
O O13 0.500000 0.277378 0.000000
#
# Coordination Sequence:
#
# PCOD9523575 Si02
#       6
#    16   8   2  16  16   8
#     4   9  18  32  52  77 104 136 184 233 274 332
#     4  10  21  42  65  86 120 157 195 242 299 345
#     4  12  26  44  64  88 112 160 202 260 284 340
#     4   9  17  31  55  85 113 147 186 233 287 349
#     4   9  18  33  49  69 103 144 181 227 283 333
#     4   9  14  24  48  82 115 142 174 219 279 347
#
# _framework density 20.443847000000002
#
# number of rings (size 3 to 8) (size 9 to 14) (size 15 to 20)
#    0.000    2.788    1.212    0.182    1.697    0.485 
#    4.364    0.000    0.000    1.455    0.000    0.000 
#    0.000    0.000    0.000    0.000    0.000    0.000 
#
# Total GULP energy -183931.768345 kJ/mol
# GULP energy per Si atom -5573.689950 kJ/mol
# Density = 2.039732 g / cm^3
# Si number density = 20.443847 Si / 1000 Ang^3
#
#
#
# Elastic Constant Matrix: (Units=GPa)
#
#
# Indices 1 2 3 4 5 6 
#
# 1 132.0649 8.1015 49.8254 0.0000 0.0000 0.0000
# 2 8.1015 92.2471 4.6738 0.0000 0.0000 0.0000
# 3 49.8254 4.6738 165.4787 0.0000 0.0000 0.0000
# 4 0.0000 0.0000 0.0000 39.5353 0.0000 0.0000
# 5 0.0000 0.0000 0.0000 0.0000 11.8509 0.0000
# 6 0.0000 0.0000 0.0000 0.0000 0.0000 -25.2082
#
#
#
# Elastic Compliance Matrix: (Units=1/GPa)
#
#
# Indices 1 2 3 4 5 6 
#
# 1 0.008578 -0.000623 -0.002565 0.000000 0.000000 0.000000
# 2 -0.000623 0.010901 -0.000120 0.000000 0.000000 0.000000
# 3 -0.002565 -0.000120 0.006819 0.000000 0.000000 0.000000
# 4 0.000000 0.000000 0.000000 0.025294 0.000000 0.000000
# 5 0.000000 0.000000 0.000000 0.000000 0.084382 0.000000
# 6 0.000000 0.000000 0.000000 0.000000 0.000000 -0.039670
#
#
# Mechanical properties :
#
#
# Convention : Reuss Voigt Hill
#
# Bulk Modulus (GPa) = 50.81152 57.22135 54.01643
# Shear Modulus (GPa) = 45.66953 27.04825 36.35889
#
# Velocity S-wave (km/s) = 4.73154 3.64132 4.22177
# Velocity P-wave (km/s) = 7.39988 6.76234 7.08828
#
# Compressibility (1/GPa) = 0.01968058
#
# Stress axis : x y z
#
# Youngs Moduli (GPa) = 116.57602 91.73231 146.65204
#
# Poissons Ratio (x) = 0.05718 0.37620
# Poissons Ratio (y) = 0.07267 0.01763
# Poissons Ratio (z) = 0.29905 0.01103
#
# Static dielectric constant tensor:
#      x y z
#    x 1.678940 0.000000 0.000000 
#    y 0.000000 1.809580 0.000000 
#    z 0.000000 0.000000 1.703180 
# 
# From -- ./inp_files/65123.got.cif
#   From: 2010.05.17/outbox.cif.g08.bks.cpg/sg71_33_cif.got.tgz:65123.got - 2010.06.03 16:22:01.
