data_PCOD9523260
_publ_section_title
;
Structure prediction by ZEFSAII (Michael W. Deem and Ramdas Pophale) SiO2 
 PCOD9523260
Probable space group: I M M M
;
_chemical_formula_sum "Si O2"
_cell_formula_units_Z 72
_cell_length_a 9.076356
_cell_length_b 13.846724
_cell_length_c 29.096473
_cell_angle_alpha 90.000000
_cell_angle_beta 90.000000
_cell_angle_gamma 90.000000
_cell_volume 3656.780611
_symmetry_space_group_name_H-M "I M M M"
_symmetry_group_IT_number 71
_symmetry_cell_setting 'orthorhombic'
loop_
_space_group_symop_operation_xyz
x,y,z
-x,-y,z
x,-y,-z
-x,y,-z
-x,-y,-z
x,y,-z
-x,y,z
x,-y,z
1/2+x,1/2+y,1/2+z
1/2-x,1/2-y,1/2+z
1/2+x,1/2-y,1/2-z
1/2-x,1/2+y,1/2-z
1/2-x,1/2-y,1/2-z
1/2+x,1/2+y,1/2-z
1/2-x,1/2+y,1/2+z
1/2+x,1/2-y,1/2+z
loop_
_atom_site_type_symbol
_atom_site_label
_atom_site_fract_x
_atom_site_fract_y
_atom_site_fract_z
Si Si1 0.675045 0.889018 0.720284
Si Si2 0.325628 0.296804 0.411793
Si Si3 0.672872 0.388107 0.944884
Si Si4 0.668008 0.114919 0.000000
Si Si5 0.173500 0.298387 0.319349
O O1 0.500000 0.876357 0.710652
O O2 0.766849 0.808247 0.693508
O O3 0.696143 0.864386 0.774323
O O4 0.715041 0.000000 0.710600
O O5 0.500000 0.305734 0.413213
O O6 0.275048 0.185618 0.418033
O O7 0.251191 0.349524 0.454800
O O8 0.260558 0.333666 0.363832
O O9 0.500000 0.368996 0.935166
O O10 0.702760 0.500000 0.934209
O O11 0.693725 0.375464 0.000000
O O12 0.500000 0.152782 0.000000
O O13 0.663460 0.000000 0.000000
O O14 0.000000 0.294770 0.329217
#
# Coordination Sequence:
#
# PCOD9523260 Si02
#       5
#    16  16  16   8  16
#     4   9  19  38  62  87 116 149 190 242 296 349
#     4  12  24  38  59  88 122 157 195 245 296 345
#     4   9  18  34  57  82 110 148 193 238 285 342
#     4  11  25  45  66  85 112 155 203 248 294 345
#     4  10  21  37  59  87 118 155 196 237 288 352
#
# _framework density 19.689450999999998
#
# number of rings (size 3 to 8) (size 9 to 14) (size 15 to 20)
#    0.000    1.889    1.111    3.667    0.000    4.444 
#    0.000    3.333    0.000    0.000    0.000    0.000 
#    0.000    0.000    0.000    0.000    0.000    0.000 
#
# Total GULP energy -201233.107850 kJ/mol
# GULP energy per Si atom -5589.808551 kJ/mol
# Density = 1.964464 g / cm^3
# Si number density = 19.689451 Si / 1000 Ang^3
#
#
#
# Elastic Constant Matrix: (Units=GPa)
#
#
# Indices 1 2 3 4 5 6 
#
# 1 111.0099 12.9444 53.9058 0.0000 0.0000 0.0000
# 2 12.9444 46.9171 -2.1781 0.0000 0.0000 0.0000
# 3 53.9058 -2.1781 84.5268 0.0000 0.0000 0.0000
# 4 0.0000 0.0000 0.0000 2.8189 0.0000 0.0000
# 5 0.0000 0.0000 0.0000 0.0000 31.6939 0.0000
# 6 0.0000 0.0000 0.0000 0.0000 0.0000 -52.2887
#
#
#
# Elastic Compliance Matrix: (Units=1/GPa)
#
#
# Indices 1 2 3 4 5 6 
#
# 1 0.013841 -0.004234 -0.008936 0.000000 0.000000 0.000000
# 2 -0.004234 0.022635 0.003283 0.000000 0.000000 0.000000
# 3 -0.008936 0.003283 0.017614 0.000000 0.000000 0.000000
# 4 0.000000 0.000000 0.000000 0.354752 0.000000 0.000000
# 5 0.000000 0.000000 0.000000 0.000000 0.031552 0.000000
# 6 0.000000 0.000000 0.000000 0.000000 0.000000 -0.019125
#
#
# Mechanical properties :
#
#
# Convention : Reuss Voigt Hill
#
# Bulk Modulus (GPa) = 29.14027 41.31090 35.22559
# Shear Modulus (GPa) = 11.05018 8.29693 9.67356
#
# Velocity S-wave (km/s) = 2.37159 2.05501 2.21895
# Velocity P-wave (km/s) = 4.72560 5.16309 4.94918
#
# Compressibility (1/GPa) = 0.03431677
#
# Stress axis : x y z
#
# Youngs Moduli (GPa) = 72.24806 44.18003 56.77284
#
# Poissons Ratio (x) = 0.18704 0.50733
# Poissons Ratio (y) = 0.30587 -0.18640
# Poissons Ratio (z) = 0.64562 -0.14505
#
# Static dielectric constant tensor:
#      x y z
#    x 1.652160 0.000000 0.000000 
#    y 0.000000 1.686210 0.000000 
#    z 0.000000 0.000000 1.700420 
# 
# From -- ./inp_files/16377.got.cif
#   From: 2010.05.17/outbox.cif.g08.bks.cpg/sg71_9_cif.got.tgz:16377.got - 2010.06.03 16:22:01.
