data_PCOD9523828
_publ_section_title
;
Structure prediction by ZEFSAII (Michael W. Deem and Ramdas Pophale) SiO2 
 PCOD9523828
Probable space group: I M M M
;
_chemical_formula_sum "Si O2"
_cell_formula_units_Z 42
_cell_length_a 27.192190
_cell_length_b 10.276942
_cell_length_c 7.552843
_cell_angle_alpha 90.000000
_cell_angle_beta 90.000000
_cell_angle_gamma 90.000000
_cell_volume 2110.661308
_symmetry_space_group_name_H-M "I M M M"
_symmetry_group_IT_number 71
_symmetry_cell_setting 'orthorhombic'
loop_
_space_group_symop_operation_xyz
x,y,z
-x,-y,z
x,-y,-z
-x,y,-z
-x,-y,-z
x,y,-z
-x,y,z
x,-y,z
1/2+x,1/2+y,1/2+z
1/2-x,1/2-y,1/2+z
1/2+x,1/2-y,1/2-z
1/2-x,1/2+y,1/2-z
1/2-x,1/2-y,1/2-z
1/2+x,1/2+y,1/2-z
1/2-x,1/2+y,1/2+z
1/2+x,1/2-y,1/2+z
loop_
_atom_site_type_symbol
_atom_site_label
_atom_site_fract_x
_atom_site_fract_y
_atom_site_fract_z
Si Si1 0.868023 0.731805 0.705177
Si Si2 0.817569 0.000000 0.715442
Si Si3 0.295421 0.000000 0.286194
Si Si4 0.445945 0.772199 0.500000
Si Si5 0.500000 0.500000 0.500000
O O1 0.882970 0.742865 0.500000
O O2 0.825080 0.625756 0.722015
O O3 0.913424 0.694807 0.829350
O O4 0.845874 0.869578 0.767545
O O5 0.761004 0.000000 0.774889
O O6 0.816295 0.000000 0.500000
O O7 0.296002 0.000000 0.500000
O O8 0.500000 0.834856 0.500000
O O9 0.458134 0.617281 0.500000
#
# Coordination Sequence:
#
# PCOD9523828 Si02
#       5
#    16   8   8   8   2
#     4  11  22  41  63  93 130 167 210 267 315 377
#     4   9  21  37  62  94 128 169 216 259 313 377
#     4  11  21  40  62  91 132 174 211 256 315 383
#     4  10  22  41  64  94 125 159 216 262 318 373
#     4   8  20  40  66  94 120 158 212 254 326 372
#
# _framework density 19.898976000000001
#
# number of rings (size 3 to 8) (size 9 to 14) (size 15 to 20)
#    0.571    1.143    1.905    2.857    0.000    0.762 
#    6.857    2.857    0.000    2.286    0.000    0.000 
#    0.000    0.000    0.000    0.000    0.000    0.000 
#
# Total GULP energy -117031.975042 kJ/mol
# GULP energy per Si atom -5572.951192 kJ/mol
# Density = 1.985368 g / cm^3
# Si number density = 19.898976 Si / 1000 Ang^3
#
#
#
# Elastic Constant Matrix: (Units=GPa)
#
#
# Indices 1 2 3 4 5 6 
#
# 1 171.5183 24.4401 63.4348 0.0000 0.0000 0.0000
# 2 24.4401 82.4823 9.2175 0.0000 0.0000 0.0000
# 3 63.4348 9.2175 110.3703 0.0000 0.0000 0.0000
# 4 0.0000 0.0000 0.0000 18.9990 0.0000 0.0000
# 5 0.0000 0.0000 0.0000 0.0000 14.7837 0.0000
# 6 0.0000 0.0000 0.0000 0.0000 0.0000 60.5663
#
#
#
# Elastic Compliance Matrix: (Units=1/GPa)
#
#
# Indices 1 2 3 4 5 6 
#
# 1 0.007658 -0.001794 -0.004252 0.000000 0.000000 0.000000
# 2 -0.001794 0.012658 -0.000026 0.000000 0.000000 0.000000
# 3 -0.004252 -0.000026 0.011506 0.000000 0.000000 0.000000
# 4 0.000000 0.000000 0.000000 0.052634 0.000000 0.000000
# 5 0.000000 0.000000 0.000000 0.000000 0.067642 0.000000
# 6 0.000000 0.000000 0.000000 0.000000 0.000000 0.016511
#
#
# Mechanical properties :
#
#
# Convention : Reuss Voigt Hill
#
# Bulk Modulus (GPa) = 50.81505 62.06175 56.43840
# Shear Modulus (GPa) = 26.69315 36.68837 31.69076
#
# Velocity S-wave (km/s) = 3.66653 4.29853 3.99505
# Velocity P-wave (km/s) = 6.59671 7.47613 7.05015
#
# Compressibility (1/GPa) = 0.01967921
#
# Stress axis : x y z
#
# Youngs Moduli (GPa) = 130.57507 78.99942 86.90904
#
# Poissons Ratio (x) = 0.14173 0.36952
# Poissons Ratio (y) = 0.23426 0.00226
# Poissons Ratio (z) = 0.55518 0.00205
#
# Static dielectric constant tensor:
#      x y z
#    x 1.670010 0.000000 0.000000 
#    y 0.000000 1.691580 0.000000 
#    z 0.000000 0.000000 1.717790 
# 
# From -- ./inp_files/11708.got.cif
#   From: 2010.05.17/outbox.cif.g08.bks.cpg/sg71_6_cif.got.tgz:11708.got - 2010.06.03 16:22:01.
