data_PCOD9523416
_publ_section_title
;
Structure prediction by ZEFSAII (Michael W. Deem and Ramdas Pophale) SiO2 
 PCOD9523416
Probable space group: I M M M
;
_chemical_formula_sum "Si O2"
_cell_formula_units_Z 72
_cell_length_a 25.211671
_cell_length_b 18.509285
_cell_length_c 7.677621
_cell_angle_alpha 90.000000
_cell_angle_beta 90.000000
_cell_angle_gamma 90.000000
_cell_volume 3582.761869
_symmetry_space_group_name_H-M "I M M M"
_symmetry_group_IT_number 71
_symmetry_cell_setting 'orthorhombic'
loop_
_space_group_symop_operation_xyz
x,y,z
-x,-y,z
x,-y,-z
-x,y,-z
-x,-y,-z
x,y,-z
-x,y,z
x,-y,z
1/2+x,1/2+y,1/2+z
1/2-x,1/2-y,1/2+z
1/2+x,1/2-y,1/2-z
1/2-x,1/2+y,1/2-z
1/2-x,1/2-y,1/2-z
1/2+x,1/2+y,1/2-z
1/2-x,1/2+y,1/2+z
1/2+x,1/2-y,1/2+z
loop_
_atom_site_type_symbol
_atom_site_label
_atom_site_fract_x
_atom_site_fract_y
_atom_site_fract_z
Si Si1 0.937617 0.413410 0.000000
Si Si2 0.248855 0.579780 0.293726
Si Si3 0.939458 0.917518 0.210800
Si Si4 0.138159 0.349372 0.286469
Si Si5 0.156473 0.814447 0.298827
O O1 0.909495 0.381507 0.172755
O O2 0.931354 0.500000 0.000000
O O3 0.000000 0.396049 0.000000
O O4 0.243710 0.572621 0.500000
O O5 0.262218 0.500000 0.221475
O O6 0.191588 0.607678 0.235069
O O7 0.294730 0.638441 0.269062
O O8 0.896595 0.861348 0.276523
O O9 0.000000 0.901477 0.264313
O O10 0.926954 0.000000 0.264792
O O11 0.937944 0.916296 0.000000
O O12 0.130598 0.353360 0.500000
O O13 0.147543 0.266139 0.230566
O O14 0.168404 0.803815 0.500000
#
# Coordination Sequence:
#
# PCOD9523416 Si02
#       5
#     8  16  16  16  16
#     4  11  26  46  72 102 125 163 218 264 321 386
#     4  10  21  38  62  89 122 169 215 258 315 378
#     4   9  19  36  56  78 111 160 212 259 309 368
#     4  10  24  44  65  94 133 169 208 261 324 384
#     4  11  23  36  56  90 126 164 206 257 319 372
#
# _framework density 20.096226999999999
#
# number of rings (size 3 to 8) (size 9 to 14) (size 15 to 20)
#    0.000    1.889    0.000    3.333    4.667    6.667 
#    0.000    4.444    0.000    0.000    0.000    0.000 
#    0.000    0.000    0.000    0.000    0.000    0.000 
#
# Total GULP energy -200995.838885 kJ/mol
# GULP energy per Si atom -5583.217747 kJ/mol
# Density = 2.005049 g / cm^3
# Si number density = 20.096227 Si / 1000 Ang^3
#
#
#
# Elastic Constant Matrix: (Units=GPa)
#
#
# Indices 1 2 3 4 5 6 
#
# 1 135.1113 86.2045 35.6867 0.0000 0.0000 0.0000
# 2 86.2045 137.9661 39.8833 0.0000 0.0000 0.0000
# 3 35.6867 39.8833 50.2703 0.0000 0.0000 0.0000
# 4 0.0000 0.0000 0.0000 43.9783 0.0000 0.0000
# 5 0.0000 0.0000 0.0000 0.0000 37.1449 0.0000
# 6 0.0000 0.0000 0.0000 0.0000 0.0000 27.0939
#
#
#
# Elastic Compliance Matrix: (Units=1/GPa)
#
#
# Indices 1 2 3 4 5 6 
#
# 1 0.012778 -0.006958 -0.003551 0.000000 0.000000 0.000000
# 2 -0.006958 0.013194 -0.005528 0.000000 0.000000 0.000000
# 3 -0.003551 -0.005528 0.026800 0.000000 0.000000 0.000000
# 4 0.000000 0.000000 0.000000 0.022738 0.000000 0.000000
# 5 0.000000 0.000000 0.000000 0.000000 0.026922 0.000000
# 6 0.000000 0.000000 0.000000 0.000000 0.000000 0.036909
#
#
# Mechanical properties :
#
#
# Convention : Reuss Voigt Hill
#
# Bulk Modulus (GPa) = 48.31603 71.87740 60.09671
# Shear Modulus (GPa) = 28.04044 32.41499 30.22771
#
# Velocity S-wave (km/s) = 3.73944 4.02056 3.88254
# Velocity P-wave (km/s) = 6.53751 7.57611 7.07589
#
# Compressibility (1/GPa) = 0.02069707
#
# Stress axis : x y z
#
# Youngs Moduli (GPa) = 78.25648 75.79440 37.31407
#
# Poissons Ratio (x) = 0.52735 0.13252
# Poissons Ratio (y) = 0.54448 0.20628
# Poissons Ratio (z) = 0.27792 0.41901
#
# Static dielectric constant tensor:
#      x y z
#    x 1.678160 0.000000 0.000000 
#    y 0.000000 1.779630 0.000000 
#    z 0.000000 0.000000 1.740100 
# 
# From -- ./inp_files/7946.got.cif
#   From: 2010.05.17/outbox.cif.g08.bks.cpg/sg71_4_cif.got.tgz:7946.got - 2010.06.03 16:22:01.
