data_PCOD9523252
_publ_section_title
;
Structure prediction by ZEFSAII (Michael W. Deem and Ramdas Pophale) SiO2 
 PCOD9523252
Probable space group: I M M M
;
_chemical_formula_sum "Si O2"
_cell_formula_units_Z 88
_cell_length_a 23.350296
_cell_length_b 12.477367
_cell_length_c 16.757840
_cell_angle_alpha 90.000000
_cell_angle_beta 90.000000
_cell_angle_gamma 90.000000
_cell_volume 4882.400249
_symmetry_space_group_name_H-M "I M M M"
_symmetry_group_IT_number 71
_symmetry_cell_setting 'orthorhombic'
loop_
_space_group_symop_operation_xyz
x,y,z
-x,-y,z
x,-y,-z
-x,y,-z
-x,-y,-z
x,y,-z
-x,y,z
x,-y,z
1/2+x,1/2+y,1/2+z
1/2-x,1/2-y,1/2+z
1/2+x,1/2-y,1/2-z
1/2-x,1/2+y,1/2-z
1/2-x,1/2-y,1/2-z
1/2+x,1/2+y,1/2-z
1/2-x,1/2+y,1/2+z
1/2+x,1/2-y,1/2+z
loop_
_atom_site_type_symbol
_atom_site_label
_atom_site_fract_x
_atom_site_fract_y
_atom_site_fract_z
Si Si1 0.135123 0.500000 0.902579
Si Si2 0.347713 0.695972 0.139152
Si Si3 0.934489 0.289589 0.095985
Si Si4 0.265847 0.500000 0.904256
Si Si5 0.739285 0.872473 0.093126
Si Si6 0.857687 0.871457 0.817238
Si Si7 0.067819 0.870624 0.500000
O O1 0.102013 0.392955 0.877269
O O2 0.200693 0.500000 0.874800
O O3 0.135948 0.500000 0.000000
O O4 0.300205 0.604060 0.123169
O O5 0.315582 0.806909 0.122101
O O6 0.365120 0.680004 0.230337
O O7 0.399215 0.674935 0.077410
O O8 0.904465 0.182432 0.126288
O O9 0.000000 0.297966 0.123106
O O10 0.934292 0.290373 0.000000
O O11 0.265195 0.500000 0.000000
O O12 0.795066 0.846250 0.145971
O O13 0.730257 0.000000 0.097713
O O14 0.750606 0.844401 0.000000
O O15 0.862940 0.000000 0.812493
O O16 0.000000 0.847432 0.500000
O O17 0.074986 0.000000 0.500000
#
# Coordination Sequence:
#
# PCOD9523252 Si02
#       7
#     8  16  16   8  16  16   8
#     4   9  19  34  59  90 116 148 193 243 291 351
#     4  12  20  39  58  85 120 151 199 247 294 357
#     4  10  21  39  60  83 117 161 202 241 287 344
#     4  11  18  31  60  89 115 148 189 245 308 345
#     4  10  21  37  59  85 120 159 190 236 301 362
#     4  11  23  37  56  88 124 153 197 244 300 350
#     4  11  22  38  61  87 117 159 202 250 300 342
#
# _framework density 18.023921000000001
#
# number of rings (size 3 to 8) (size 9 to 14) (size 15 to 20)
#    0.000    1.364    3.636    2.455    0.000    4.727 
#    1.636    0.909    0.000    1.091    0.000    0.000 
#    0.000    0.000    0.000    0.000    0.000    0.000 
#
# Total GULP energy -245813.254075 kJ/mol
# GULP energy per Si atom -5586.664865 kJ/mol
# Density = 1.798290 g / cm^3
# Si number density = 18.023921 Si / 1000 Ang^3
#
#
#
# Elastic Constant Matrix: (Units=GPa)
#
#
# Indices 1 2 3 4 5 6 
#
# 1 130.3793 34.0784 26.0469 0.0000 0.0000 0.0000
# 2 34.0784 34.9730 24.3290 0.0000 0.0000 0.0000
# 3 26.0469 24.3290 45.1226 0.0000 0.0000 0.0000
# 4 0.0000 0.0000 0.0000 21.5798 0.0000 0.0000
# 5 0.0000 0.0000 0.0000 0.0000 2.2777 0.0000
# 6 0.0000 0.0000 0.0000 0.0000 0.0000 10.1999
#
#
#
# Elastic Compliance Matrix: (Units=1/GPa)
#
#
# Indices 1 2 3 4 5 6 
#
# 1 0.010312 -0.009452 -0.000856 0.000000 0.000000 0.000000
# 2 -0.009452 0.054420 -0.023886 0.000000 0.000000 0.000000
# 3 -0.000856 -0.023886 0.035534 0.000000 0.000000 0.000000
# 4 0.000000 0.000000 0.000000 0.046340 0.000000 0.000000
# 5 0.000000 0.000000 0.000000 0.000000 0.439036 0.000000
# 6 0.000000 0.000000 0.000000 0.000000 0.000000 0.098040
#
#
# Mechanical properties :
#
#
# Convention : Reuss Voigt Hill
#
# Bulk Modulus (GPa) = 31.36919 42.15370 36.76145
# Shear Modulus (GPa) = 6.55570 15.21286 10.88428
#
# Velocity S-wave (km/s) = 1.90922 2.90838 2.46006
# Velocity P-wave (km/s) = 4.72251 5.89209 5.33942
#
# Compressibility (1/GPa) = 0.03187841
#
# Stress axis : x y z
#
# Youngs Moduli (GPa) = 96.97845 18.37559 28.14178
#
# Poissons Ratio (x) = 0.17369 0.02408
# Poissons Ratio (y) = 0.91668 0.67218
# Poissons Ratio (z) = 0.08300 0.43891
#
# Static dielectric constant tensor:
#      x y z
#    x 1.596860 0.000000 0.000000 
#    y 0.000000 1.595840 0.000000 
#    z 0.000000 0.000000 1.630820 
# 
# From -- ./inp_files/25715.got.cif
#   From: 2010.05.17/outbox.cif.g08.bks.cpg/sg71_13_cif.got.tgz:25715.got - 2010.06.03 16:22:01.
