data_PCOD9523010
_publ_section_title
;
Structure prediction by ZEFSAII (Michael W. Deem and Ramdas Pophale) SiO2 
 PCOD9523010
Probable space group: I M M M
;
_chemical_formula_sum "Si O2"
_cell_formula_units_Z 64
_cell_length_a 9.161082
_cell_length_b 27.578006
_cell_length_c 11.740360
_cell_angle_alpha 90.000000
_cell_angle_beta 90.000000
_cell_angle_gamma 90.000000
_cell_volume 2966.135907
_symmetry_space_group_name_H-M "I M M M"
_symmetry_group_IT_number 71
_symmetry_cell_setting 'orthorhombic'
loop_
_space_group_symop_operation_xyz
x,y,z
-x,-y,z
x,-y,-z
-x,y,-z
-x,-y,-z
x,y,-z
-x,y,z
x,-y,z
1/2+x,1/2+y,1/2+z
1/2-x,1/2-y,1/2+z
1/2+x,1/2-y,1/2-z
1/2-x,1/2+y,1/2-z
1/2-x,1/2-y,1/2-z
1/2+x,1/2+y,1/2-z
1/2-x,1/2+y,1/2+z
1/2+x,1/2-y,1/2+z
loop_
_atom_site_type_symbol
_atom_site_label
_atom_site_fract_x
_atom_site_fract_y
_atom_site_fract_z
Si Si1 0.329417 0.758877 0.627558
Si Si2 0.324448 0.442498 0.000000
Si Si3 0.832082 0.370387 0.170746
Si Si4 0.168456 0.098536 0.865223
Si Si5 0.835156 0.500000 0.362929
O O1 0.278248 0.740677 0.500000
O O2 0.500000 0.743515 0.638735
O O3 0.250000 0.750000 0.750000
O O4 0.325917 0.817362 0.617854
O O5 0.259873 0.411228 0.895200
O O6 0.282927 0.500000 0.000000
O O7 0.500000 0.440522 0.000000
O O8 0.764679 0.364190 0.295938
O O9 0.000000 0.386086 0.174766
O O10 0.241641 0.047083 0.835697
O O11 0.000000 0.099817 0.831111
O O12 0.176461 0.105249 0.000000
O O13 0.848510 0.500000 0.500000
O O14 0.000000 0.500000 0.315830
#
# Coordination Sequence:
#
# PCOD9523010 Si02
#       5
#    16   8  16  16   8
#     4  10  23  45  70 100 136 173 221 280 341 409
#     4  11  25  43  65  95 131 173 223 275 329 394
#     4  11  23  42  66  92 130 172 217 272 327 391
#     4  10  21  36  55  83 121 162 208 262 319 380
#     4   9  17  31  51  76 109 156 211 261 316 379
#
# _framework density 21.576892999999998
#
# number of rings (size 3 to 8) (size 9 to 14) (size 15 to 20)
#    0.000    1.750    1.250    2.250    1.750    7.500 
#    0.000    5.000    0.000    0.000    0.000    0.000 
#    0.000    0.000    0.000    0.000    0.000    0.000 
#
# Total GULP energy -178476.828969 kJ/mol
# GULP energy per Si atom -5577.400905 kJ/mol
# Density = 2.152778 g / cm^3
# Si number density = 21.576893 Si / 1000 Ang^3
#
#
#
# Elastic Constant Matrix: (Units=GPa)
#
#
# Indices 1 2 3 4 5 6 
#
# 1 119.3414 32.4403 68.1490 0.0000 0.0000 0.0000
# 2 32.4403 50.7829 25.4895 0.0000 0.0000 0.0000
# 3 68.1490 25.4895 145.9455 -0.0003 -0.0001 0.0000
# 4 0.0000 0.0000 -0.0003 47.7121 0.0000 0.0000
# 5 0.0000 0.0000 -0.0001 0.0000 36.4623 0.0000
# 6 0.0000 0.0000 0.0000 0.0000 0.0000 15.6082
#
#
#
# Elastic Compliance Matrix: (Units=1/GPa)
#
#
# Indices 1 2 3 4 5 6 
#
# 1 0.012753 -0.005653 -0.004968 0.000000 0.000000 0.000000
# 2 -0.005653 0.024090 -0.001568 0.000000 0.000000 0.000000
# 3 -0.004968 -0.001568 0.009445 0.000000 0.000000 0.000000
# 4 0.000000 0.000000 0.000000 0.020959 0.000000 0.000000
# 5 0.000000 0.000000 0.000000 0.000000 0.027426 0.000000
# 6 0.000000 0.000000 0.000000 0.000000 0.000000 0.064069
#
#
# Mechanical properties :
#
#
# Convention : Reuss Voigt Hill
#
# Bulk Modulus (GPa) = 45.63878 63.13638 54.38758
# Shear Modulus (GPa) = 26.25761 32.62261 29.44011
#
# Velocity S-wave (km/s) = 3.49224 3.89256 3.69782
# Velocity P-wave (km/s) = 6.12034 7.03757 6.59492
#
# Compressibility (1/GPa) = 0.02191119
#
# Stress axis : x y z
#
# Youngs Moduli (GPa) = 78.41515 41.51156 105.87367
#
# Poissons Ratio (x) = 0.23467 0.52593
# Poissons Ratio (y) = 0.44329 0.16597
# Poissons Ratio (z) = 0.38953 0.06507
#
# Static dielectric constant tensor:
#      x y z
#    x 1.733030 0.000000 0.000000 
#    y 0.000000 2.233680 0.000000 
#    z 0.000000 0.000000 1.875360 
# 
# From -- ./inp_files/18499.got.cif
#   From: 2010.05.17/outbox.cif.g08.bks.cpg/sg71_10_cif.got.tgz:18499.got - 2010.06.03 16:22:01.
