data_PCOD9523545
_publ_section_title
;
Structure prediction by ZEFSAII (Michael W. Deem and Ramdas Pophale) SiO2 
 PCOD9523545
Probable space group: I M M M
;
_chemical_formula_sum "Si O2"
_cell_formula_units_Z 116
_cell_length_a 21.933482
_cell_length_b 17.997320
_cell_length_c 15.475558
_cell_angle_alpha 90.000000
_cell_angle_beta 90.000000
_cell_angle_gamma 90.000000
_cell_volume 6108.882031
_symmetry_space_group_name_H-M "I M M M"
_symmetry_group_IT_number 71
_symmetry_cell_setting 'orthorhombic'
loop_
_space_group_symop_operation_xyz
x,y,z
-x,-y,z
x,-y,-z
-x,y,-z
-x,-y,-z
x,y,-z
-x,y,z
x,-y,z
1/2+x,1/2+y,1/2+z
1/2-x,1/2-y,1/2+z
1/2+x,1/2-y,1/2-z
1/2-x,1/2+y,1/2-z
1/2-x,1/2-y,1/2-z
1/2+x,1/2+y,1/2-z
1/2-x,1/2+y,1/2+z
1/2+x,1/2-y,1/2+z
loop_
_atom_site_type_symbol
_atom_site_label
_atom_site_fract_x
_atom_site_fract_y
_atom_site_fract_z
Si Si1 0.569641 0.723919 0.408628
Si Si2 0.249467 0.830378 0.599375
Si Si3 0.239532 0.847082 0.102179
Si Si4 0.176839 0.412043 0.747144
Si Si5 0.606747 0.339886 0.859522
Si Si6 0.112914 0.912539 0.827336
Si Si7 0.426912 0.805125 0.237136
Si Si8 0.000000 0.132612 0.500000
O O1 0.601313 0.738206 0.500000
O O2 0.500000 0.749022 0.414219
O O3 0.569910 0.636932 0.387791
O O4 0.594924 0.765437 0.325943
O O5 0.266792 0.848325 0.500000
O O6 0.259463 0.742067 0.613686
O O7 0.287102 0.874999 0.671969
O O8 0.176774 0.845786 0.609528
O O9 0.292386 0.882567 0.159383
O O10 0.178852 0.883490 0.141800
O O11 0.244065 0.862495 0.000000
O O12 0.181040 0.500000 0.754128
O O13 0.107881 0.382454 0.739629
O O14 0.601739 0.386958 0.771015
O O15 0.593800 0.253148 0.836203
O O16 0.554445 0.365014 0.925209
O O17 0.107131 0.000000 0.836612
O O18 0.500000 0.810714 0.234281
#
# Coordination Sequence:
#
# PCOD9523545 Si02
#       8
#    16  16  16  16  16  16  16   4
#     4   9  19  36  59  85 112 150 204 258 304 362
#     4  11  22  40  67  94 123 167 219 270 322 380
#     4  11  23  39  64  91 121 164 215 266 318 380
#     4  12  25  40  61  94 135 169 207 266 332 394
#     4  11  21  39  64  91 121 160 213 267 311 370
#     4  11  23  37  55  82 123 164 199 249 315 376
#     4  10  21  40  65  89 121 163 210 263 316 382
#     4  12  24  40  69 100 123 162 222 274 312 370
#
# _framework density 18.988744000000001
#
# number of rings (size 3 to 8) (size 9 to 14) (size 15 to 20)
#    0.000    1.241    4.138    2.897    0.966    4.414 
#    0.000    1.379    0.000    0.000    0.000    4.345 
#    0.000    0.000    0.000    0.000    0.000    0.000 
#
# Total GULP energy -323188.731411 kJ/mol
# GULP energy per Si atom -5572.219507 kJ/mol
# Density = 1.894553 g / cm^3
# Si number density = 18.988744 Si / 1000 Ang^3
#
#
#
# Elastic Constant Matrix: (Units=GPa)
#
#
# Indices 1 2 3 4 5 6 
#
# 1 81.2403 12.7113 11.1469 0.0000 0.0000 0.0000
# 2 12.7113 85.2292 22.8672 0.0000 0.0000 0.0000
# 3 11.1469 22.8672 97.8588 0.0000 0.0000 0.0000
# 4 0.0000 0.0000 0.0000 10.0485 0.0000 0.0000
# 5 0.0000 0.0000 0.0000 0.0000 15.2298 0.0000
# 6 0.0000 0.0000 0.0000 0.0000 0.0000 6.2095
#
#
#
# Elastic Compliance Matrix: (Units=1/GPa)
#
#
# Indices 1 2 3 4 5 6 
#
# 1 0.012708 -0.001608 -0.001072 0.000000 0.000000 0.000000
# 2 -0.001608 0.012721 -0.002790 0.000000 0.000000 0.000000
# 3 -0.001072 -0.002790 0.010993 0.000000 0.000000 0.000000
# 4 0.000000 0.000000 0.000000 0.099517 0.000000 0.000000
# 5 0.000000 0.000000 0.000000 0.000000 0.065661 0.000000
# 6 0.000000 0.000000 0.000000 0.000000 0.000000 0.161043
#
#
# Mechanical properties :
#
#
# Convention : Reuss Voigt Hill
#
# Bulk Modulus (GPa) = 39.24081 39.75325 39.49703
# Shear Modulus (GPa) = 13.08641 20.80442 16.94541
#
# Velocity S-wave (km/s) = 2.62805 3.31360 2.99053
# Velocity P-wave (km/s) = 5.46983 5.96830 5.72449
#
# Compressibility (1/GPa) = 0.02548367
#
# Stress axis : x y z
#
# Youngs Moduli (GPa) = 78.69198 78.60848 90.96909
#
# Poissons Ratio (x) = 0.12638 0.09750
# Poissons Ratio (y) = 0.12651 0.25376
# Poissons Ratio (z) = 0.08435 0.21928
#
# Static dielectric constant tensor:
#      x y z
#    x 1.777290 0.000000 0.000000 
#    y 0.000000 1.634720 0.000000 
#    z 0.000000 0.000000 1.688820 
# 
# From -- ./inp_files/39551.got.cif
#   From: 2010.05.17/outbox.cif.g08.bks.cpg/sg71_20_cif.got.tgz:39551.got - 2010.06.03 16:22:01.
