data_PCOD9523335
_publ_section_title
;
Structure prediction by ZEFSAII (Michael W. Deem and Ramdas Pophale) SiO2 
 PCOD9523335
Probable space group: I M M M
;
_chemical_formula_sum "Si O2"
_cell_formula_units_Z 80
_cell_length_a 8.974761
_cell_length_b 26.175450
_cell_length_c 18.727071
_cell_angle_alpha 90.000000
_cell_angle_beta 90.000000
_cell_angle_gamma 90.000000
_cell_volume 4399.333702
_symmetry_space_group_name_H-M "I M M M"
_symmetry_group_IT_number 71
_symmetry_cell_setting 'orthorhombic'
loop_
_space_group_symop_operation_xyz
x,y,z
-x,-y,z
x,-y,-z
-x,y,-z
-x,-y,-z
x,y,-z
-x,y,z
x,-y,z
1/2+x,1/2+y,1/2+z
1/2-x,1/2-y,1/2+z
1/2+x,1/2-y,1/2-z
1/2-x,1/2+y,1/2-z
1/2-x,1/2-y,1/2-z
1/2+x,1/2+y,1/2-z
1/2-x,1/2+y,1/2+z
1/2+x,1/2-y,1/2+z
loop_
_atom_site_type_symbol
_atom_site_label
_atom_site_fract_x
_atom_site_fract_y
_atom_site_fract_z
Si Si1 0.821597 0.059058 0.584009
Si Si2 0.178424 0.652243 0.165538
Si Si3 0.179366 0.058410 0.916870
Si Si4 0.679403 0.849359 0.831443
Si Si5 0.179763 0.752619 0.416580
O O1 0.788994 0.067913 0.500000
O O2 0.736869 0.099545 0.632061
O O3 0.000000 0.065082 0.592903
O O4 0.784501 0.000000 0.600332
O O5 0.222575 0.655919 0.248676
O O6 0.248224 0.698796 0.121400
O O7 0.000000 0.654468 0.161129
O O8 0.251962 0.100404 0.866796
O O9 0.000000 0.061462 0.912092
O O10 0.222439 0.000000 0.898949
O O11 0.219987 0.067575 0.000000
O O12 0.500000 0.852915 0.834855
O O13 0.724682 0.799218 0.876011
O O14 0.220518 0.750349 0.500000
O O15 0.000000 0.757010 0.412212
#
# Coordination Sequence:
#
# PCOD9523335 Si02
#       5
#    16  16  16  16  16
#     4   9  19  37  59  80 104 140 185 225 263 315
#     4  11  23  36  53  81 114 143 174 218 271 322
#     4   9  19  36  57  82 111 142 179 223 268 314
#     4  10  22  38  55  79 111 145 180 218 264 319
#     4  10  21  38  59  79 102 138 183 225 265 316
#
# _framework density 18.184571999999999
#
# number of rings (size 3 to 8) (size 9 to 14) (size 15 to 20)
#    0.000    2.200    0.000    3.600    0.000    8.400 
#    0.000    6.000    0.000    0.000    0.000    0.000 
#    0.000    0.000    0.000    0.000    0.000    0.000 
#
# Total GULP energy -223407.213209 kJ/mol
# GULP energy per Si atom -5585.180330 kJ/mol
# Density = 1.814318 g / cm^3
# Si number density = 18.184572 Si / 1000 Ang^3
#
#
#
# Elastic Constant Matrix: (Units=GPa)
#
#
# Indices 1 2 3 4 5 6 
#
# 1 20.3018 47.7410 54.7175 0.0001 0.0000 0.0000
# 2 47.7410 155.8151 127.2188 0.0001 0.0000 0.0000
# 3 54.7175 127.2188 173.9529 0.0003 0.0000 0.0001
# 4 0.0001 0.0001 0.0003 -82.7682 -0.0001 0.0000
# 5 0.0000 0.0000 0.0000 -0.0001 28.0175 0.0000
# 6 0.0000 0.0000 0.0001 0.0000 0.0000 52.5307
#
#
#
# Elastic Compliance Matrix: (Units=1/GPa)
#
#
# Indices 1 2 3 4 5 6 
#
# 1 0.467308 -0.057498 -0.104943 0.000000 0.000000 0.000000
# 2 -0.057498 0.023005 0.001262 0.000000 0.000000 0.000000
# 3 -0.104943 0.001262 0.037836 0.000000 0.000000 0.000000
# 4 0.000000 0.000000 0.000000 -0.012082 0.000000 0.000000
# 5 0.000000 0.000000 0.000000 0.000000 0.035692 0.000000
# 6 0.000000 0.000000 0.000000 0.000000 0.000000 0.019036
#
#
# Mechanical properties :
#
#
# Convention : Reuss Voigt Hill
#
# Bulk Modulus (GPa) = 4.85929 89.93602 47.39766
# Shear Modulus (GPa) = 5.19886 7.58217 6.39052
#
# Velocity S-wave (km/s) = 1.69267 2.04417 1.87667
# Velocity P-wave (km/s) = 2.54916 7.42537 5.55132
#
# Compressibility (1/GPa) = 0.20579129
#
# Stress axis : x y z
#
# Youngs Moduli (GPa) = 2.13991 43.46964 26.42998
#
# Poissons Ratio (x) = 2.49942 2.77364
# Poissons Ratio (y) = 0.12304 -0.03335
# Poissons Ratio (z) = 0.22457 -0.05486
#
# Static dielectric constant tensor:
#      x y z
#    x 1.607990 0.000000 0.000000 
#    y 0.000000 1.594240 0.000000 
#    z 0.000000 0.000000 1.606660 
# 
# From -- ./inp_files/8295.got.cif
#   From: 2010.05.17/outbox.cif.g08.bks.cpg/sg71_5_cif.got.tgz:8295.got - 2010.06.03 16:22:01.
