data_PCOD9523747
_publ_section_title
;
Structure prediction by ZEFSAII (Michael W. Deem and Ramdas Pophale) SiO2 
 PCOD9523747
Probable space group: I M M M
;
_chemical_formula_sum "Si O2"
_cell_formula_units_Z 72
_cell_length_a 8.265227
_cell_length_b 22.351917
_cell_length_c 20.692551
_cell_angle_alpha 90.000000
_cell_angle_beta 90.000000
_cell_angle_gamma 90.000000
_cell_volume 3822.817770
_symmetry_space_group_name_H-M "I M M M"
_symmetry_group_IT_number 71
_symmetry_cell_setting 'orthorhombic'
loop_
_space_group_symop_operation_xyz
x,y,z
-x,-y,z
x,-y,-z
-x,y,-z
-x,-y,-z
x,y,-z
-x,y,z
x,-y,z
1/2+x,1/2+y,1/2+z
1/2-x,1/2-y,1/2+z
1/2+x,1/2-y,1/2-z
1/2-x,1/2+y,1/2-z
1/2-x,1/2-y,1/2-z
1/2+x,1/2+y,1/2-z
1/2-x,1/2+y,1/2+z
1/2+x,1/2-y,1/2+z
loop_
_atom_site_type_symbol
_atom_site_label
_atom_site_fract_x
_atom_site_fract_y
_atom_site_fract_z
Si Si1 0.808561 0.566615 0.258785
Si Si2 0.187640 0.115166 0.370565
Si Si3 0.192792 0.697519 0.300382
Si Si4 0.192866 0.259656 0.924314
Si Si5 0.818694 0.569146 0.000000
O O1 0.743466 0.500000 0.276528
O O2 0.781430 0.577373 0.182790
O O3 0.742759 0.630231 0.285756
O O4 0.000000 0.565339 0.273185
O O5 0.261702 0.179895 0.385955
O O6 0.214138 0.084197 0.438357
O O7 0.000000 0.120637 0.352454
O O8 0.250000 0.750000 0.250000
O O9 0.234948 0.711346 0.374936
O O10 0.000000 0.696430 0.292375
O O11 0.000000 0.253473 0.925902
O O12 0.249341 0.260540 0.000000
O O13 0.846162 0.500000 0.000000
O O14 0.000000 0.599415 0.000000
#
# Coordination Sequence:
#
# PCOD9523747 Si02
#       5
#    16  16  16  16   8
#     4  10  22  40  60  83 116 157 195 234 290 356
#     4  12  23  34  54  82 113 150 193 242 290 341
#     4  11  22  37  62  90 119 154 197 248 296 350
#     4  11  23  39  60  84 117 157 197 242 297 358
#     4  11  23  37  51  69 105 157 200 235 284 347
#
# _framework density 18.834275999999999
#
# number of rings (size 3 to 8) (size 9 to 14) (size 15 to 20)
#    0.000    1.000    3.333    4.333    0.000    6.222 
#    0.000    0.000    0.000    0.667    0.000    4.667 
#    0.000    0.000    0.000    0.000    0.000    0.000 
#
# Total GULP energy -200623.458724 kJ/mol
# GULP energy per Si atom -5572.873853 kJ/mol
# Density = 1.879141 g / cm^3
# Si number density = 18.834276 Si / 1000 Ang^3
#
#
#
# Elastic Constant Matrix: (Units=GPa)
#
#
# Indices 1 2 3 4 5 6 
#
# 1 37.1783 12.2326 3.0942 0.0000 0.0000 0.0000
# 2 12.2326 145.4141 41.4946 0.0000 0.0000 0.0000
# 3 3.0942 41.4946 52.0429 0.0000 0.0000 0.0000
# 4 0.0000 0.0000 0.0000 -35.8977 0.0000 0.0000
# 5 0.0000 0.0000 0.0000 0.0000 27.9582 0.0000
# 6 0.0000 0.0000 0.0000 0.0000 0.0000 18.7157
#
#
#
# Elastic Compliance Matrix: (Units=1/GPa)
#
#
# Indices 1 2 3 4 5 6 
#
# 1 0.027666 -0.002405 0.000273 0.000000 0.000000 0.000000
# 2 -0.002405 0.009111 -0.007122 0.000000 0.000000 0.000000
# 3 0.000273 -0.007122 0.024877 0.000000 0.000000 0.000000
# 4 0.000000 0.000000 0.000000 -0.027857 0.000000 0.000000
# 5 0.000000 0.000000 0.000000 0.000000 0.035768 0.000000
# 6 0.000000 0.000000 0.000000 0.000000 0.000000 0.053431
#
#
# Mechanical properties :
#
#
# Convention : Reuss Voigt Hill
#
# Bulk Modulus (GPa) = 23.17695 38.69757 30.93726
# Shear Modulus (GPa) = 32.07464 14.00951 23.04208
#
# Velocity S-wave (km/s) = 4.13121 2.73028 3.50153
# Velocity P-wave (km/s) = 5.92354 5.52542 5.72794
#
# Compressibility (1/GPa) = 0.04314632
#
# Stress axis : x y z
#
# Youngs Moduli (GPa) = 36.14535 109.75199 40.19790
#
# Poissons Ratio (x) = 0.26397 -0.01097
# Poissons Ratio (y) = 0.08694 0.28628
# Poissons Ratio (z) = -0.00986 0.78162
#
# Static dielectric constant tensor:
#      x y z
#    x 1.689110 0.000000 0.000000 
#    y 0.000000 1.718070 0.000000 
#    z 0.000000 0.000000 1.707820 
# 
# From -- ./inp_files/9910.got.cif
#   From: 2010.05.17/outbox.cif.g08.bks.cpg/sg71_5_cif.got.tgz:9910.got - 2010.06.03 16:22:01.
