data_PCOD9523119
_publ_section_title
;
Structure prediction by ZEFSAII (Michael W. Deem and Ramdas Pophale) SiO2 
 PCOD9523119
Probable space group: I M M M
;
_chemical_formula_sum "Si O2"
_cell_formula_units_Z 116
_cell_length_a 29.618303
_cell_length_b 26.019543
_cell_length_c 7.823169
_cell_angle_alpha 90.000000
_cell_angle_beta 90.000000
_cell_angle_gamma 90.000000
_cell_volume 6028.962025
_symmetry_space_group_name_H-M "I M M M"
_symmetry_group_IT_number 71
_symmetry_cell_setting 'orthorhombic'
loop_
_space_group_symop_operation_xyz
x,y,z
-x,-y,z
x,-y,-z
-x,y,-z
-x,-y,-z
x,y,-z
-x,y,z
x,-y,z
1/2+x,1/2+y,1/2+z
1/2-x,1/2-y,1/2+z
1/2+x,1/2-y,1/2-z
1/2-x,1/2+y,1/2-z
1/2-x,1/2-y,1/2-z
1/2+x,1/2+y,1/2-z
1/2-x,1/2+y,1/2+z
1/2+x,1/2-y,1/2+z
loop_
_atom_site_type_symbol
_atom_site_label
_atom_site_fract_x
_atom_site_fract_y
_atom_site_fract_z
Si Si1 0.051406 0.643574 0.203773
Si Si2 0.448601 0.258479 0.205500
Si Si3 0.131574 0.825673 0.303990
Si Si4 0.301540 0.241419 0.304103
Si Si5 0.188081 0.000000 0.500000
Si Si6 0.623593 0.942495 0.795310
Si Si7 0.195779 0.085835 0.801943
Si Si8 0.204197 0.372900 0.704972
O O1 0.067523 0.700516 0.255709
O O2 0.084041 0.597946 0.259311
O O3 0.000000 0.637395 0.271112
O O4 0.049558 0.642674 0.000000
O O5 0.500000 0.262970 0.270165
O O6 0.414609 0.302012 0.270122
O O7 0.449474 0.263085 0.000000
O O8 0.123944 0.842042 0.500000
O O9 0.165668 0.777330 0.302916
O O10 0.156171 0.871918 0.208879
O O11 0.307131 0.257349 0.500000
O O12 0.250000 0.250000 0.250000
O O13 0.310291 0.181072 0.284231
O O14 0.188745 0.044402 0.653445
O O15 0.670734 0.917831 0.734277
O O16 0.615724 0.000000 0.727216
O O17 0.627105 0.946371 0.000000
O O18 0.243744 0.113634 0.762424
O O19 0.198688 0.066781 0.000000
O O20 0.199459 0.367524 0.500000
#
# Coordination Sequence:
#
# PCOD9523119 Si02
#       8
#    16  16  16  16   4  16  16  16
#     4  10  21  37  55  80 114 148 188 243 305 364
#     4   9  19  36  61  90 121 157 193 235 294 363
#     4  11  21  37  59  89 125 159 200 247 300 365
#     4  12  23  34  53  81 117 157 198 243 299 364
#     4  12  26  44  64  90 121 162 215 252 298 354
#     4  10  22  39  57  77 103 145 200 253 302 351
#     4  11  24  42  64  89 121 162 205 255 305 354
#     4  10  22  39  56  80 114 152 197 249 307 358
#
# _framework density 19.240459000000001
#
# number of rings (size 3 to 8) (size 9 to 14) (size 15 to 20)
#    0.000    1.517    2.069    3.103    1.931    6.345 
#    0.000    1.379    0.000    0.000    0.000    0.966 
#    0.000    1.103    0.000    0.000    0.000    0.000 
#
# Total GULP energy -323423.468774 kJ/mol
# GULP energy per Si atom -5576.266703 kJ/mol
# Density = 1.919667 g / cm^3
# Si number density = 19.240459 Si / 1000 Ang^3
#
#
#
# Elastic Constant Matrix: (Units=GPa)
#
#
# Indices 1 2 3 4 5 6 
#
# 1 64.8798 26.4038 5.6039 0.0000 0.0000 0.0000
# 2 26.4038 90.8487 29.1723 0.0000 0.0000 0.0000
# 3 5.6039 29.1723 69.6525 0.0000 0.0000 0.0000
# 4 0.0000 0.0000 0.0000 28.9808 0.0000 0.0000
# 5 0.0000 0.0000 0.0000 0.0000 17.8807 0.0000
# 6 0.0000 0.0000 0.0000 0.0000 0.0000 10.4803
#
#
#
# Elastic Compliance Matrix: (Units=1/GPa)
#
#
# Indices 1 2 3 4 5 6 
#
# 1 0.017523 -0.005361 0.000836 0.000000 0.000000 0.000000
# 2 -0.005361 0.014358 -0.005582 0.000000 0.000000 0.000000
# 3 0.000836 -0.005582 0.016628 0.000000 0.000000 0.000000
# 4 0.000000 0.000000 0.000000 0.034506 0.000000 0.000000
# 5 0.000000 0.000000 0.000000 0.000000 0.055926 0.000000
# 6 0.000000 0.000000 0.000000 0.000000 0.000000 0.095417
#
#
# Mechanical properties :
#
#
# Convention : Reuss Voigt Hill
#
# Bulk Modulus (GPa) = 35.34431 38.63787 36.99109
# Shear Modulus (GPa) = 18.93915 22.41510 20.67713
#
# Velocity S-wave (km/s) = 3.14082 3.41691 3.28177
# Velocity P-wave (km/s) = 5.61807 5.97429 5.79892
#
# Compressibility (1/GPa) = 0.02829310
#
# Stress axis : x y z
#
# Youngs Moduli (GPa) = 57.06887 69.64812 60.14050
#
# Poissons Ratio (x) = 0.37338 -0.05025
# Poissons Ratio (y) = 0.30595 0.33571
# Poissons Ratio (z) = -0.04768 0.38879
#
# Static dielectric constant tensor:
#      x y z
#    x 1.677890 0.000000 0.000000 
#    y 0.000000 1.586850 0.000000 
#    z 0.000000 0.000000 1.680710 
# 
# From -- ./inp_files/15402.got.cif
#   From: 2010.05.17/outbox.cif.g08.bks.cpg/sg71_8_cif.got.tgz:15402.got - 2010.06.03 16:22:01.
