data_PCOD9523386
_publ_section_title
;
Structure prediction by ZEFSAII (Michael W. Deem and Ramdas Pophale) SiO2 
 PCOD9523386
Probable space group: I M M M
;
_chemical_formula_sum "Si O2"
_cell_formula_units_Z 88
_cell_length_a 21.417337
_cell_length_b 18.713011
_cell_length_c 11.841967
_cell_angle_alpha 90.000000
_cell_angle_beta 90.000000
_cell_angle_gamma 90.000000
_cell_volume 4746.057436
_symmetry_space_group_name_H-M "I M M M"
_symmetry_group_IT_number 71
_symmetry_cell_setting 'orthorhombic'
loop_
_space_group_symop_operation_xyz
x,y,z
-x,-y,z
x,-y,-z
-x,y,-z
-x,-y,-z
x,y,-z
-x,y,z
x,-y,z
1/2+x,1/2+y,1/2+z
1/2-x,1/2-y,1/2+z
1/2+x,1/2-y,1/2-z
1/2-x,1/2+y,1/2-z
1/2-x,1/2-y,1/2-z
1/2+x,1/2+y,1/2-z
1/2-x,1/2+y,1/2+z
1/2+x,1/2-y,1/2+z
loop_
_atom_site_type_symbol
_atom_site_label
_atom_site_fract_x
_atom_site_fract_y
_atom_site_fract_z
Si Si1 0.871669 0.848154 0.787201
Si Si2 0.500000 0.414486 0.632910
Si Si3 0.154017 0.583353 0.500000
Si Si4 0.774374 0.084643 0.632614
Si Si5 0.426970 0.206637 0.633581
Si Si6 0.303668 0.416569 0.500000
Si Si7 0.141746 0.414068 0.751121
O O1 0.833061 0.870697 0.677458
O O2 0.885072 0.764548 0.801487
O O3 0.830454 0.877786 0.890767
O O4 0.938506 0.885886 0.805205
O O5 0.500000 0.500000 0.632272
O O6 0.500000 0.390465 0.500000
O O7 0.135433 0.500000 0.500000
O O8 0.229162 0.585287 0.500000
O O9 0.133305 0.611796 0.378335
O O10 0.762465 0.096341 0.500000
O O11 0.711824 0.101080 0.703717
O O12 0.787548 0.000000 0.649811
O O13 0.417700 0.217102 0.500000
O O14 0.500000 0.218430 0.657900
O O15 0.405802 0.128231 0.670388
O O16 0.323557 0.500000 0.500000
O O17 0.134204 0.500000 0.755716
#
# Coordination Sequence:
#
# PCOD9523386 Si02
#       7
#    16   8   8  16  16   8  16
#     4  12  21  36  56  87 122 156 193 242 293 342
#     4  11  20  30  53  85 114 152 200 240 283 341
#     4   9  18  36  62  96 122 141 182 246 299 343
#     4  10  21  38  60  89 123 157 196 241 287 348
#     4  11  24  42  60  84 121 156 195 249 296 341
#     4  11  18  31  60  92 121 151 187 236 292 348
#     4  10  21  40  66  91 116 150 193 242 298 355
#
# _framework density 18.541706000000001
#
# number of rings (size 3 to 8) (size 9 to 14) (size 15 to 20)
#    0.000    1.364    4.545    2.182    0.000    2.182 
#    1.636    1.818    0.000    3.273    0.000    0.000 
#    0.000    0.000    0.000    0.000    0.000    0.000 
#
# Total GULP energy -245668.703390 kJ/mol
# GULP energy per Si atom -5583.379623 kJ/mol
# Density = 1.849950 g / cm^3
# Si number density = 18.541706 Si / 1000 Ang^3
#
#
#
# Elastic Constant Matrix: (Units=GPa)
#
#
# Indices 1 2 3 4 5 6 
#
# 1 22.6989 19.6675 14.4563 0.0000 0.0000 0.0000
# 2 19.6675 56.1620 23.9844 0.0000 0.0000 0.0000
# 3 14.4563 23.9844 65.8780 0.0000 0.0000 0.0000
# 4 0.0000 0.0000 0.0000 24.3616 0.0000 0.0000
# 5 0.0000 0.0000 0.0000 0.0000 26.4542 0.0000
# 6 0.0000 0.0000 0.0000 0.0000 0.0000 78.4167
#
#
#
# Elastic Compliance Matrix: (Units=1/GPa)
#
#
# Indices 1 2 3 4 5 6 
#
# 1 0.065998 -0.020043 -0.007185 0.000000 0.000000 0.000000
# 2 -0.020043 0.027171 -0.005494 0.000000 0.000000 0.000000
# 3 -0.007185 -0.005494 0.018756 0.000000 0.000000 0.000000
# 4 0.000000 0.000000 0.000000 0.041048 0.000000 0.000000
# 5 0.000000 0.000000 0.000000 0.000000 0.037801 0.000000
# 6 0.000000 0.000000 0.000000 0.000000 0.000000 0.012752
#
#
# Mechanical properties :
#
#
# Convention : Reuss Voigt Hill
#
# Bulk Modulus (GPa) = 21.51462 28.99505 25.25483
# Shear Modulus (GPa) = 17.57683 31.62186 24.59934
#
# Velocity S-wave (km/s) = 3.08224 4.13418 3.64635
# Velocity P-wave (km/s) = 4.92904 6.20164 5.60160
#
# Compressibility (1/GPa) = 0.04648003
#
# Stress axis : x y z
#
# Youngs Moduli (GPa) = 15.15201 36.80419 53.31486
#
# Poissons Ratio (x) = 0.73768 0.38309
# Poissons Ratio (y) = 0.30370 0.29290
# Poissons Ratio (z) = 0.10887 0.20220
#
# Static dielectric constant tensor:
#      x y z
#    x 1.621530 0.000000 0.000000 
#    y 0.000000 1.647140 0.000000 
#    z 0.000000 0.000000 1.646720 
# 
# From -- ./inp_files/23981.got.cif
#   From: 2010.05.17/outbox.cif.g08.bks.cpg/sg71_12_cif.got.tgz:23981.got - 2010.06.03 16:22:01.
