data_PCOD9523147
_publ_section_title
;
Structure prediction by ZEFSAII (Michael W. Deem and Ramdas Pophale) SiO2 
 PCOD9523147
Probable space group: I M M M
;
_chemical_formula_sum "Si O2"
_cell_formula_units_Z 58
_cell_length_a 35.643145
_cell_length_b 10.554739
_cell_length_c 7.560956
_cell_angle_alpha 90.000000
_cell_angle_beta 90.000000
_cell_angle_gamma 90.000000
_cell_volume 2844.462591
_symmetry_space_group_name_H-M "I M M M"
_symmetry_group_IT_number 71
_symmetry_cell_setting 'orthorhombic'
loop_
_space_group_symop_operation_xyz
x,y,z
-x,-y,z
x,-y,-z
-x,y,-z
-x,-y,-z
x,y,-z
-x,y,z
x,-y,z
1/2+x,1/2+y,1/2+z
1/2-x,1/2-y,1/2+z
1/2+x,1/2-y,1/2-z
1/2-x,1/2+y,1/2-z
1/2-x,1/2-y,1/2-z
1/2+x,1/2+y,1/2-z
1/2-x,1/2+y,1/2+z
1/2+x,1/2-y,1/2+z
loop_
_atom_site_type_symbol
_atom_site_label
_atom_site_fract_x
_atom_site_fract_y
_atom_site_fract_z
Si Si1 0.920685 0.142035 0.714166
Si Si2 0.779963 0.358211 0.210121
Si Si3 0.000000 0.500000 0.000000
Si Si4 0.500000 0.228269 0.788157
Si Si5 0.865829 0.641557 0.291977
O O1 0.916264 0.136888 0.500000
O O2 0.962737 0.189707 0.746177
O O3 0.891697 0.247692 0.782849
O O4 0.914249 0.000000 0.781017
O O5 0.769509 0.500000 0.276082
O O6 0.750000 0.250000 0.250000
O O7 0.821726 0.328819 0.277653
O O8 0.782929 0.365376 0.000000
O O9 0.000000 0.389799 0.843285
O O10 0.500000 0.194072 0.000000
O O11 0.874865 0.633172 0.500000
O O12 0.872029 0.500000 0.215991
#
# Coordination Sequence:
#
# PCOD9523147 Si02
#       5
#    16  16   2   8  16
#     4   9  18  35  61  88 117 156 197 238 294 354
#     4  10  21  37  56  81 111 148 188 234 290 346
#     4  12  26  40  58  98 120 160 212 248 312 346
#     4  10  22  41  63  89 124 161 204 252 300 358
#     4   9  18  33  54  82 115 151 193 239 285 344
#
# _framework density 20.390495999999999
#
# number of rings (size 3 to 8) (size 9 to 14) (size 15 to 20)
#    0.000    2.483    0.000    1.448    1.931    4.414 
#    2.483    4.138    0.000    0.000    0.000    0.000 
#    0.000    0.000    0.000    0.000    0.000    0.000 
#
# Total GULP energy -161563.034029 kJ/mol
# GULP energy per Si atom -5571.139104 kJ/mol
# Density = 2.034409 g / cm^3
# Si number density = 20.390496 Si / 1000 Ang^3
#
#
#
# Elastic Constant Matrix: (Units=GPa)
#
#
# Indices 1 2 3 4 5 6 
#
# 1 130.1528 135.5922 5.8235 0.0000 0.0000 0.0000
# 2 135.5922 219.0880 26.4476 0.0000 0.0000 0.0000
# 3 5.8235 26.4476 65.7051 0.0000 0.0000 -0.0001
# 4 0.0000 0.0000 0.0000 10.2527 0.0000 0.0000
# 5 0.0000 0.0000 0.0000 0.0000 7.9329 0.0000
# 6 0.0000 0.0000 -0.0001 0.0000 0.0000 -60.4783
#
#
#
# Elastic Compliance Matrix: (Units=1/GPa)
#
#
# Indices 1 2 3 4 5 6 
#
# 1 0.022494 -0.014379 0.003794 0.000000 0.000000 0.000000
# 2 -0.014379 0.013990 -0.004357 0.000000 0.000000 0.000000
# 3 0.003794 -0.004357 0.016637 0.000000 0.000000 0.000000
# 4 0.000000 0.000000 0.000000 0.097536 0.000000 0.000000
# 5 0.000000 0.000000 0.000000 0.000000 0.126058 0.000000
# 6 0.000000 0.000000 0.000000 0.000000 0.000000 -0.016535
#
#
# Mechanical properties :
#
#
# Convention : Reuss Voigt Hill
#
# Bulk Modulus (GPa) = 43.03493 83.40804 63.22148
# Shear Modulus (GPa) = 16.78937 8.01362 12.40149
#
# Velocity S-wave (km/s) = 2.87259 1.98459 2.46885
# Velocity P-wave (km/s) = 5.67041 6.80041 6.26096
#
# Compressibility (1/GPa) = 0.02323694
#
# Stress axis : x y z
#
# Youngs Moduli (GPa) = 44.45696 71.48218 60.10751
#
# Poissons Ratio (x) = 1.02786 -0.22806
# Poissons Ratio (y) = 0.63926 0.26186
# Poissons Ratio (z) = -0.16868 0.31142
#
# Static dielectric constant tensor:
#      x y z
#    x 1.696900 0.000000 0.000000 
#    y 0.000000 1.738870 0.000000 
#    z 0.000000 0.000000 1.789630 
# 
# From -- ./inp_files/16109.got.cif
#   From: 2010.05.17/outbox.cif.g08.bks.cpg/sg71_9_cif.got.tgz:16109.got - 2010.06.03 16:22:01.
