data_PCOD9523939
_publ_section_title
;
Structure prediction by ZEFSAII (Michael W. Deem and Ramdas Pophale) SiO2 
 PCOD9523939
Probable space group: I M M M
;
_chemical_formula_sum "Si O2"
_cell_formula_units_Z 52
_cell_length_a 7.475677
_cell_length_b 25.084879
_cell_length_c 13.493703
_cell_angle_alpha 90.000000
_cell_angle_beta 90.000000
_cell_angle_gamma 90.000000
_cell_volume 2530.426261
_symmetry_space_group_name_H-M "I M M M"
_symmetry_group_IT_number 71
_symmetry_cell_setting 'orthorhombic'
loop_
_space_group_symop_operation_xyz
x,y,z
-x,-y,z
x,-y,-z
-x,y,-z
-x,-y,-z
x,y,-z
-x,y,z
x,-y,z
1/2+x,1/2+y,1/2+z
1/2-x,1/2-y,1/2+z
1/2+x,1/2-y,1/2-z
1/2-x,1/2+y,1/2-z
1/2-x,1/2-y,1/2-z
1/2+x,1/2+y,1/2-z
1/2-x,1/2+y,1/2+z
1/2+x,1/2-y,1/2+z
loop_
_atom_site_type_symbol
_atom_site_label
_atom_site_fract_x
_atom_site_fract_y
_atom_site_fract_z
Si Si1 0.289345 0.267294 0.140824
Si Si2 0.000000 0.937606 0.760567
Si Si3 0.294584 0.889116 0.386597
Si Si4 0.286795 0.825730 0.000000
Si Si5 0.500000 0.586010 0.500000
O O1 0.500000 0.273714 0.120490
O O2 0.250000 0.250000 0.250000
O O3 0.207532 0.324417 0.116191
O O4 0.231001 0.213595 0.087078
O O5 0.831443 0.910287 0.702482
O O6 0.000000 0.935546 0.882984
O O7 0.000000 0.000000 0.735259
O O8 0.237384 0.904245 0.500000
O O9 0.500000 0.906876 0.372827
O O10 0.500000 0.834609 0.000000
O O11 0.179242 0.879369 0.000000
#
# Coordination Sequence:
#
# PCOD9523939 Si02
#       5
#    16   8  16   8   4
#     4  11  21  35  58  94 139 182 219 264 331 413
#     4  12  28  50  73  97 134 184 244 307 352 397
#     4  11  24  43  70 103 140 178 227 285 351 422
#     4  10  24  39  59  97 138 175 219 265 336 413
#     4  12  27  46  72 100 134 188 243 286 350 418
#
# _framework density 20.549897999999999
#
# number of rings (size 3 to 8) (size 9 to 14) (size 15 to 20)
#    0.000    0.923    3.077    3.462    4.308    5.538 
#    0.000    1.538    0.000    2.769    0.000    0.000 
#    0.000    0.000    0.000    0.000    0.000    0.000 
#
# Total GULP energy -144812.494812 kJ/mol
# GULP energy per Si atom -5569.711339 kJ/mol
# Density = 2.050313 g / cm^3
# Si number density = 20.549898 Si / 1000 Ang^3
#
#
#
# Elastic Constant Matrix: (Units=GPa)
#
#
# Indices 1 2 3 4 5 6 
#
# 1 102.2704 28.6434 35.2244 0.0000 0.0000 0.0000
# 2 28.6434 79.6759 23.5835 0.0000 0.0000 0.0000
# 3 35.2244 23.5835 169.9292 0.0000 0.0000 0.0000
# 4 0.0000 0.0000 0.0000 25.3167 0.0000 0.0000
# 5 0.0000 0.0000 0.0000 0.0000 17.0057 0.0000
# 6 0.0000 0.0000 0.0000 0.0000 0.0000 -14.2524
#
#
#
# Elastic Compliance Matrix: (Units=1/GPa)
#
#
# Indices 1 2 3 4 5 6 
#
# 1 0.011418 -0.003550 -0.001874 0.000000 0.000000 0.000000
# 2 -0.003550 0.014192 -0.001234 0.000000 0.000000 0.000000
# 3 -0.001874 -0.001234 0.006445 0.000000 0.000000 0.000000
# 4 0.000000 0.000000 0.000000 0.039500 0.000000 0.000000
# 5 0.000000 0.000000 0.000000 0.000000 0.058804 0.000000
# 6 0.000000 0.000000 0.000000 0.000000 0.000000 -0.070163
#
#
# Mechanical properties :
#
#
# Convention : Reuss Voigt Hill
#
# Bulk Modulus (GPa) = 53.36515 58.53091 55.94803
# Shear Modulus (GPa) = 62.69084 23.24227 42.96655
#
# Velocity S-wave (km/s) = 5.52927 3.36671 4.57753
# Velocity P-wave (km/s) = 8.17244 6.60735 7.43121
#
# Compressibility (1/GPa) = 0.01873882
#
# Stress axis : x y z
#
# Youngs Moduli (GPa) = 87.58306 70.46106 155.17077
#
# Poissons Ratio (x) = 0.25013 0.29080
# Poissons Ratio (y) = 0.31091 0.19145
# Poissons Ratio (z) = 0.16414 0.08693
#
# Static dielectric constant tensor:
#      x y z
#    x 1.747540 0.000000 0.000000 
#    y 0.000000 1.690470 0.000000 
#    z 0.000000 0.000000 1.743410 
# 
# From -- ./inp_files/3239.got.cif
#   From: 2010.05.17/outbox.cif.g08.bks.cpg/sg71_2_cif.got.tgz:3239.got - 2010.06.03 16:22:01.
