data_PCOD9523322
_publ_section_title
;
Structure prediction by ZEFSAII (Michael W. Deem and Ramdas Pophale) SiO2 
 PCOD9523322
Probable space group: I M M M
;
_chemical_formula_sum "Si O2"
_cell_formula_units_Z 112
_cell_length_a 27.060385
_cell_length_b 14.397973
_cell_length_c 14.844038
_cell_angle_alpha 90.000000
_cell_angle_beta 90.000000
_cell_angle_gamma 90.000000
_cell_volume 5783.455302
_symmetry_space_group_name_H-M "I M M M"
_symmetry_group_IT_number 71
_symmetry_cell_setting 'orthorhombic'
loop_
_space_group_symop_operation_xyz
x,y,z
-x,-y,z
x,-y,-z
-x,y,-z
-x,-y,-z
x,y,-z
-x,y,z
x,-y,z
1/2+x,1/2+y,1/2+z
1/2-x,1/2-y,1/2+z
1/2+x,1/2-y,1/2-z
1/2-x,1/2+y,1/2-z
1/2-x,1/2-y,1/2-z
1/2+x,1/2+y,1/2-z
1/2-x,1/2+y,1/2+z
1/2+x,1/2-y,1/2+z
loop_
_atom_site_type_symbol
_atom_site_label
_atom_site_fract_x
_atom_site_fract_y
_atom_site_fract_z
Si Si1 0.654320 0.391058 0.903474
Si Si2 0.664926 0.101018 0.268562
Si Si3 0.944031 0.111390 0.155171
Si Si4 0.446982 0.301200 0.855168
Si Si5 0.347122 0.719039 0.396828
Si Si6 0.590967 0.893750 0.893612
Si Si7 0.726645 0.350487 0.261143
O O1 0.642961 0.500000 0.898589
O O2 0.602882 0.337284 0.899843
O O3 0.688988 0.367950 0.820138
O O4 0.679169 0.371659 0.000000
O O5 0.652950 0.187317 0.334982
O O6 0.637802 0.115884 0.172848
O O7 0.723194 0.093306 0.249072
O O8 0.647999 0.000000 0.304749
O O9 0.944541 0.156362 0.254924
O O10 0.899550 0.165673 0.107415
O O11 0.000000 0.123740 0.118145
O O12 0.934756 0.000000 0.159289
O O13 0.500000 0.331421 0.893452
O O14 0.444078 0.189702 0.861850
O O15 0.335114 0.741483 0.500000
O O16 0.305953 0.651760 0.351413
O O17 0.572174 0.000000 0.883139
O O18 0.602083 0.881457 0.000000
O O19 0.750000 0.250000 0.250000
#
# Coordination Sequence:
#
# PCOD9523322 Si02
#       7
#    16  16  16  16  16  16  16
#     4  11  23  38  59  87 120 157 196 242 298 359
#     4  10  21  40  64  88 120 162 204 251 303 354
#     4  10  21  39  63  88 117 156 200 248 303 359
#     4  11  21  36  60  87 118 159 200 243 293 352
#     4  11  23  39  61  91 123 158 202 252 303 357
#     4  10  21  38  61  90 123 159 201 246 297 356
#     4  10  21  38  57  83 118 157 197 245 294 349
#
# _framework density 19.365586
#
# number of rings (size 3 to 8) (size 9 to 14) (size 15 to 20)
#    0.000    1.571    2.857    2.143    0.000    6.571 
#    0.000    2.143    0.000    0.429    0.000    1.000 
#    0.000    0.000    0.000    0.000    0.000    0.000 
#
# Total GULP energy -312087.986767 kJ/mol
# GULP energy per Si atom -5572.999764 kJ/mol
# Density = 1.932151 g / cm^3
# Si number density = 19.365586 Si / 1000 Ang^3
#
#
#
# Elastic Constant Matrix: (Units=GPa)
#
#
# Indices 1 2 3 4 5 6 
#
# 1 114.9536 44.5919 35.9586 0.0000 0.0000 0.0000
# 2 44.5919 121.1025 40.9492 0.0000 0.0000 0.0000
# 3 35.9586 40.9492 95.8873 0.0000 0.0000 0.0000
# 4 0.0000 0.0000 0.0000 21.9263 0.0000 0.0000
# 5 0.0000 0.0000 0.0000 0.0000 -14.8573 0.0000
# 6 0.0000 0.0000 0.0000 0.0000 0.0000 14.9917
#
#
#
# Elastic Compliance Matrix: (Units=1/GPa)
#
#
# Indices 1 2 3 4 5 6 
#
# 1 0.010727 -0.003027 -0.002730 0.000000 0.000000 0.000000
# 2 -0.003027 0.010505 -0.003351 0.000000 0.000000 0.000000
# 3 -0.002730 -0.003351 0.012884 0.000000 0.000000 0.000000
# 4 0.000000 0.000000 0.000000 0.045607 0.000000 0.000000
# 5 0.000000 0.000000 0.000000 0.000000 -0.067307 0.000000
# 6 0.000000 0.000000 0.000000 0.000000 0.000000 0.066703
#
#
# Mechanical properties :
#
#
# Convention : Reuss Voigt Hill
#
# Bulk Modulus (GPa) = 62.89332 63.88253 63.38793
# Shear Modulus (GPa) = 48.71560 18.44174 33.57867
#
# Velocity S-wave (km/s) = 5.02099 3.08927 4.16857
# Velocity P-wave (km/s) = 8.13395 6.76639 7.48149
#
# Compressibility (1/GPa) = 0.01589994
#
# Stress axis : x y z
#
# Youngs Moduli (GPa) = 93.21986 95.19147 77.61609
#
# Poissons Ratio (x) = 0.28812 0.21191
# Poissons Ratio (y) = 0.28216 0.26011
# Poissons Ratio (z) = 0.25451 0.31901
#
# Static dielectric constant tensor:
#      x y z
#    x 1.683910 0.000000 0.000000 
#    y 0.000000 1.723290 0.000000 
#    z 0.000000 0.000000 1.672960 
# 
# From -- ./inp_files/40337.got.cif
#   From: 2010.05.17/outbox.cif.g08.bks.cpg/sg71_21_cif.got.tgz:40337.got - 2010.06.03 16:22:01.
