data_PCOD9523989
_publ_section_title
;
Structure prediction by ZEFSAII (Michael W. Deem and Ramdas Pophale) SiO2 
 PCOD9523989
Probable space group: I M M M
;
_chemical_formula_sum "Si O2"
_cell_formula_units_Z 92
_cell_length_a 15.933770
_cell_length_b 14.592071
_cell_length_c 21.850130
_cell_angle_alpha 90.000000
_cell_angle_beta 90.000000
_cell_angle_gamma 90.000000
_cell_volume 5080.301689
_symmetry_space_group_name_H-M "I M M M"
_symmetry_group_IT_number 71
_symmetry_cell_setting 'orthorhombic'
loop_
_space_group_symop_operation_xyz
x,y,z
-x,-y,z
x,-y,-z
-x,y,-z
-x,-y,-z
x,y,-z
-x,y,z
x,-y,z
1/2+x,1/2+y,1/2+z
1/2-x,1/2-y,1/2+z
1/2+x,1/2-y,1/2-z
1/2-x,1/2+y,1/2-z
1/2-x,1/2-y,1/2-z
1/2+x,1/2+y,1/2-z
1/2-x,1/2+y,1/2+z
1/2+x,1/2-y,1/2+z
loop_
_atom_site_type_symbol
_atom_site_label
_atom_site_fract_x
_atom_site_fract_y
_atom_site_fract_z
Si Si1 0.400480 0.500000 0.074257
Si Si2 0.000000 0.242980 0.500000
Si Si3 0.898392 0.752704 0.733166
Si Si4 0.898740 0.396018 0.830887
Si Si5 0.162705 0.745339 0.930244
Si Si6 0.851863 0.795955 0.402867
Si Si7 0.101479 0.894765 0.162862
O O1 0.500000 0.500000 0.089834
O O2 0.359704 0.593289 0.097622
O O3 0.396276 0.500000 0.000000
O O4 0.926692 0.237146 0.553440
O O5 0.871633 0.663585 0.772029
O O6 0.861497 0.759633 0.665940
O O7 0.875310 0.839694 0.775483
O O8 0.000000 0.751736 0.727805
O O9 0.867390 0.500000 0.830633
O O10 0.872560 0.339495 0.890715
O O11 0.000000 0.397881 0.829389
O O12 0.262723 0.734632 0.928418
O O13 0.135937 0.836525 0.893947
O O14 0.132653 0.745119 0.000000
O O15 0.000000 0.892673 0.159454
O O16 0.128981 0.000000 0.163411
#
# Coordination Sequence:
#
# PCOD9523989 Si02
#       7
#     8   4  16  16  16  16  16
#     4  11  18  32  50  76 113 151 192 228 275 334
#     4  12  20  41  56  84 123 160 192 228 281 342
#     4   9  18  35  59  85 112 150 195 235 283 342
#     4   9  20  39  59  81 113 150 190 235 286 348
#     4  11  23  37  55  86 119 150 189 239 289 343
#     4  12  22  35  56  86 118 155 192 236 284 338
#     4   9  20  39  61  87 117 149 191 240 291 346
#
# _framework density 18.109161
#
# number of rings (size 3 to 8) (size 9 to 14) (size 15 to 20)
#    0.000    1.826    3.478    1.565    2.435    4.870 
#    0.000    4.348    0.000    0.000    0.000    2.435 
#    0.000    0.000    0.000    0.000    0.000    0.000 
#
# Total GULP energy -256264.928029 kJ/mol
# GULP energy per Si atom -5570.976696 kJ/mol
# Density = 1.806794 g / cm^3
# Si number density = 18.109161 Si / 1000 Ang^3
#
#
#
# Elastic Constant Matrix: (Units=GPa)
#
#
# Indices 1 2 3 4 5 6 
#
# 1 28.0866 21.6861 15.8183 0.0000 0.0000 0.0000
# 2 21.6861 127.8199 60.5537 0.0000 0.0000 0.0000
# 3 15.8183 60.5537 164.2334 0.0000 0.0000 0.0000
# 4 0.0000 0.0000 0.0000 5.6823 0.0000 0.0000
# 5 0.0000 0.0000 0.0000 0.0000 29.9275 0.0000
# 6 0.0000 0.0000 0.0000 0.0000 0.0000 12.0396
#
#
#
# Elastic Compliance Matrix: (Units=1/GPa)
#
#
# Indices 1 2 3 4 5 6 
#
# 1 0.041356 -0.006215 -0.001692 0.000000 0.000000 0.000000
# 2 -0.006215 0.010413 -0.003241 0.000000 0.000000 0.000000
# 3 -0.001692 -0.003241 0.007447 0.000000 0.000000 0.000000
# 4 0.000000 0.000000 0.000000 0.175984 0.000000 0.000000
# 5 0.000000 0.000000 0.000000 0.000000 0.033414 0.000000
# 6 0.000000 0.000000 0.000000 0.000000 0.000000 0.083060
#
#
# Mechanical properties :
#
#
# Convention : Reuss Voigt Hill
#
# Bulk Modulus (GPa) = 27.08514 57.36179 42.22347
# Shear Modulus (GPa) = 12.94413 24.33532 18.63973
#
# Velocity S-wave (km/s) = 2.67644 3.66978 3.21175
# Velocity P-wave (km/s) = 4.95381 7.04987 6.09266
#
# Compressibility (1/GPa) = 0.03692061
#
# Stress axis : x y z
#
# Youngs Moduli (GPa) = 24.18047 96.03129 134.28693
#
# Poissons Ratio (x) = 0.59684 0.22717
# Poissons Ratio (y) = 0.15028 0.43520
# Poissons Ratio (z) = 0.04091 0.31122
#
# Static dielectric constant tensor:
#      x y z
#    x 1.627080 0.000000 0.000000 
#    y 0.000000 1.619270 0.000000 
#    z 0.000000 0.000000 1.601490 
# 
# From -- ./inp_files/53015.got.cif
#   From: 2010.05.17/outbox.cif.g08.bks.cpg/sg71_27_cif.got.tgz:53015.got - 2010.06.03 16:22:01.
