data_PCOD9523175
_publ_section_title
;
Structure prediction by ZEFSAII (Michael W. Deem and Ramdas Pophale) SiO2 
 PCOD9523175
Probable space group: I M M M
;
_chemical_formula_sum "Si O2"
_cell_formula_units_Z 64
_cell_length_a 20.315938
_cell_length_b 20.317675
_cell_length_c 8.498058
_cell_angle_alpha 90.000000
_cell_angle_beta 90.000000
_cell_angle_gamma 90.000000
_cell_volume 3507.765713
_symmetry_space_group_name_H-M "I M M M"
_symmetry_group_IT_number 71
_symmetry_cell_setting 'orthorhombic'
loop_
_space_group_symop_operation_xyz
x,y,z
-x,-y,z
x,-y,-z
-x,y,-z
-x,-y,-z
x,y,-z
-x,y,z
x,-y,z
1/2+x,1/2+y,1/2+z
1/2-x,1/2-y,1/2+z
1/2+x,1/2-y,1/2-z
1/2-x,1/2+y,1/2-z
1/2-x,1/2-y,1/2-z
1/2+x,1/2+y,1/2-z
1/2-x,1/2+y,1/2+z
1/2+x,1/2-y,1/2+z
loop_
_atom_site_type_symbol
_atom_site_label
_atom_site_fract_x
_atom_site_fract_y
_atom_site_fract_z
Si Si1 0.749831 0.500000 0.810415
Si Si2 0.000000 0.747738 0.679106
Si Si3 0.249859 0.643801 0.688090
Si Si4 0.895377 0.500000 0.188523
Si Si5 0.000000 0.391436 0.810572
Si Si6 0.854941 0.256988 0.187747
O O1 0.727933 0.427378 0.754511
O O2 0.824075 0.500000 0.742620
O O3 0.746846 0.500000 0.000000
O O4 0.000000 0.669429 0.698020
O O5 0.928522 0.762189 0.756012
O O6 0.000000 0.770596 0.500000
O O7 0.245851 0.639419 0.500000
O O8 0.180753 0.676173 0.748631
O O9 0.305398 0.697784 0.730918
O O10 0.937509 0.436275 0.224176
O O11 0.888226 0.500000 0.000000
O O12 0.000000 0.374657 0.000000
O O13 0.857381 0.264284 0.000000
#
# Coordination Sequence:
#
# PCOD9523175 Si02
#       6
#     8   8  16   8   8  16
#     4  11  20  31  52  79 109 145 180 216 267 327
#     4  12  23  33  51  79 107 136 177 226 271 320
#     4  10  21  37  57  82 111 142 182 230 272 317
#     4   8  16  28  44  68  97 134 173 204 239 298
#     4   9  16  30  48  66  97 137 175 210 249 305
#     4  10  21  38  58  79 108 146 184 224 275 328
#
# _framework density 18.245232000000001
#
# number of rings (size 3 to 8) (size 9 to 14) (size 15 to 20)
#    0.000    2.000    0.000    5.250    0.000    5.000 
#    0.000    2.500    0.000    0.750    0.000    5.250 
#    0.000    0.000    0.000    0.000    0.000    0.000 
#
# Total GULP energy -178210.760395 kJ/mol
# GULP energy per Si atom -5569.086262 kJ/mol
# Density = 1.820370 g / cm^3
# Si number density = 18.245232 Si / 1000 Ang^3
#
#
#
# Elastic Constant Matrix: (Units=GPa)
#
#
# Indices 1 2 3 4 5 6 
#
# 1 103.8191 31.0655 23.7933 0.0000 0.0000 0.0000
# 2 31.0655 109.2939 30.7709 0.0000 0.0000 0.0000
# 3 23.7933 30.7709 39.0563 0.0000 0.0000 0.0000
# 4 0.0000 0.0000 0.0000 29.7907 0.0000 0.0000
# 5 0.0000 0.0000 0.0000 0.0000 24.9341 0.0000
# 6 0.0000 0.0000 0.0000 0.0000 0.0000 169.2835
#
#
#
# Elastic Compliance Matrix: (Units=1/GPa)
#
#
# Indices 1 2 3 4 5 6 
#
# 1 0.011423 -0.001655 -0.005656 0.000000 0.000000 0.000000
# 2 -0.001655 0.011997 -0.008444 0.000000 0.000000 0.000000
# 3 -0.005656 -0.008444 0.035702 0.000000 0.000000 0.000000
# 4 0.000000 0.000000 0.000000 0.033568 0.000000 0.000000
# 5 0.000000 0.000000 0.000000 0.000000 0.040106 0.000000
# 6 0.000000 0.000000 0.000000 0.000000 0.000000 0.005907
#
#
# Mechanical properties :
#
#
# Convention : Reuss Voigt Hill
#
# Bulk Modulus (GPa) = 36.21325 47.04766 41.63046
# Shear Modulus (GPa) = 27.86802 55.90431 41.88617
#
# Velocity S-wave (km/s) = 3.91245 5.54139 4.79658
# Velocity P-wave (km/s) = 6.34830 8.17221 7.31730
#
# Compressibility (1/GPa) = 0.02761420
#
# Stress axis : x y z
#
# Youngs Moduli (GPa) = 87.53955 83.35164 28.00942
#
# Poissons Ratio (x) = 0.13792 0.15841
# Poissons Ratio (y) = 0.14485 0.23652
# Poissons Ratio (z) = 0.49508 0.70384
#
# Static dielectric constant tensor:
#      x y z
#    x 1.704360 0.000000 0.000000 
#    y 0.000000 1.657210 0.000000 
#    z 0.000000 0.000000 1.629860 
# 
# From -- ./inp_files/9836.got.cif
#   From: 2010.05.17/outbox.cif.g08.bks.cpg/sg71_5_cif.got.tgz:9836.got - 2010.06.03 16:22:01.
