data_PCOD9523113
_publ_section_title
;
Structure prediction by ZEFSAII (Michael W. Deem and Ramdas Pophale) SiO2 
 PCOD9523113
Probable space group: I M M M
;
_chemical_formula_sum "Si O2"
_cell_formula_units_Z 96
_cell_length_a 24.587241
_cell_length_b 24.651089
_cell_length_c 8.789745
_cell_angle_alpha 90.000000
_cell_angle_beta 90.000000
_cell_angle_gamma 90.000000
_cell_volume 5327.484363
_symmetry_space_group_name_H-M "I M M M"
_symmetry_group_IT_number 71
_symmetry_cell_setting 'orthorhombic'
loop_
_space_group_symop_operation_xyz
x,y,z
-x,-y,z
x,-y,-z
-x,y,-z
-x,-y,-z
x,y,-z
-x,y,z
x,-y,z
1/2+x,1/2+y,1/2+z
1/2-x,1/2-y,1/2+z
1/2+x,1/2-y,1/2-z
1/2-x,1/2+y,1/2-z
1/2-x,1/2-y,1/2-z
1/2+x,1/2+y,1/2-z
1/2-x,1/2+y,1/2+z
1/2+x,1/2-y,1/2+z
loop_
_atom_site_type_symbol
_atom_site_label
_atom_site_fract_x
_atom_site_fract_y
_atom_site_fract_z
Si Si1 0.936318 0.935594 0.669065
Si Si2 0.361022 0.358897 0.324289
Si Si3 0.062396 0.349610 0.818683
Si Si4 0.642570 0.938177 0.183229
Si Si5 0.062243 0.769606 0.318089
Si Si6 0.269366 0.438661 0.685173
O O1 0.917069 0.917244 0.500000
O O2 0.904506 0.907007 0.802424
O O3 0.000000 0.922987 0.676979
O O4 0.930294 0.000000 0.675664
O O5 0.352525 0.344549 0.500000
O O6 0.390522 0.309078 0.241645
O O7 0.306644 0.388532 0.262133
O O8 0.104149 0.394023 0.758275
O O9 0.071528 0.291016 0.742993
O O10 0.000000 0.365721 0.782805
O O11 0.067168 0.344023 0.000000
O O12 0.706136 0.931021 0.224832
O O13 0.627182 0.000000 0.224638
O O14 0.639140 0.933661 0.000000
O O15 0.062827 0.769835 0.500000
O O16 0.000000 0.785727 0.269784
O O17 0.273082 0.439134 0.500000
O O18 0.286139 0.500000 0.735598
#
# Coordination Sequence:
#
# PCOD9523113 Si02
#       6
#    16  16  16  16  16  16
#     4   9  18  31  44  61  91 130 170 215 266 315
#     4  11  20  30  49  75 101 132 174 220 265 311
#     4  10  21  37  57  82 111 137 164 207 261 310
#     4   9  18  35  59  83 108 140 175 207 244 301
#     4  10  21  37  55  74 101 139 180 219 260 310
#     4   8  16  32  52  75 105 140 176 216 260 302
#
# _framework density 18.019763000000001
#
# number of rings (size 3 to 8) (size 9 to 14) (size 15 to 20)
#    0.000    2.500    0.000    4.000    0.000    6.000 
#    0.000    5.000    0.000    2.000    0.000    0.000 
#    0.000    0.000    0.000    0.000    0.000    0.000 
#
# Total GULP energy -267561.649665 kJ/mol
# GULP energy per Si atom -5574.201035 kJ/mol
# Density = 1.797875 g / cm^3
# Si number density = 18.019763 Si / 1000 Ang^3
#
#
#
# Elastic Constant Matrix: (Units=GPa)
#
#
# Indices 1 2 3 4 5 6 
#
# 1 100.6543 86.1880 32.5948 0.0000 0.0000 0.0000
# 2 86.1880 124.0996 36.8147 0.0000 0.0000 0.0000
# 3 32.5948 36.8147 31.6144 0.0000 0.0000 0.0000
# 4 0.0000 0.0000 0.0000 33.0845 0.0000 0.0000
# 5 0.0000 0.0000 0.0000 0.0000 21.9502 0.0000
# 6 0.0000 0.0000 0.0000 0.0000 0.0000 36.6747
#
#
#
# Elastic Compliance Matrix: (Units=1/GPa)
#
#
# Indices 1 2 3 4 5 6 
#
# 1 0.026035 -0.015459 -0.008841 0.000000 0.000000 0.000000
# 2 -0.015459 0.021490 -0.009087 0.000000 0.000000 0.000000
# 3 -0.008841 -0.009087 0.051327 0.000000 0.000000 0.000000
# 4 0.000000 0.000000 0.000000 0.030226 0.000000 0.000000
# 5 0.000000 0.000000 0.000000 0.000000 0.045558 0.000000
# 6 0.000000 0.000000 0.000000 0.000000 0.000000 0.027267
#
#
# Mechanical properties :
#
#
# Convention : Reuss Voigt Hill
#
# Bulk Modulus (GPa) = 31.17211 63.06259 47.11735
# Shear Modulus (GPa) = 17.89760 25.05993 21.47876
#
# Velocity S-wave (km/s) = 3.15496 3.73324 3.45622
# Velocity P-wave (km/s) = 5.53246 7.32497 6.49089
#
# Compressibility (1/GPa) = 0.03207996
#
# Stress axis : x y z
#
# Youngs Moduli (GPa) = 38.41011 46.53369 19.48283
#
# Poissons Ratio (x) = 0.71935 0.17224
# Poissons Ratio (y) = 0.59377 0.17703
# Poissons Ratio (z) = 0.33957 0.42283
#
# Static dielectric constant tensor:
#      x y z
#    x 1.622100 0.000000 0.000000 
#    y 0.000000 1.609760 0.000000 
#    z 0.000000 0.000000 1.632510 
# 
# From -- ./inp_files/12811.got.cif
#   From: 2010.05.17/outbox.cif.g08.bks.cpg/sg71_7_cif.got.tgz:12811.got - 2010.06.03 16:22:01.
