data_PCOD9523417
_publ_section_title
;
Structure prediction by ZEFSAII (Michael W. Deem and Ramdas Pophale) SiO2 
 PCOD9523417
Probable space group: I M M M
;
_chemical_formula_sum "Si O2"
_cell_formula_units_Z 82
_cell_length_a 21.720884
_cell_length_b 9.173357
_cell_length_c 22.101258
_cell_angle_alpha 90.000000
_cell_angle_beta 90.000000
_cell_angle_gamma 90.000000
_cell_volume 4403.751315
_symmetry_space_group_name_H-M "I M M M"
_symmetry_group_IT_number 71
_symmetry_cell_setting 'orthorhombic'
loop_
_space_group_symop_operation_xyz
x,y,z
-x,-y,z
x,-y,-z
-x,y,-z
-x,-y,-z
x,y,-z
-x,y,z
x,-y,z
1/2+x,1/2+y,1/2+z
1/2-x,1/2-y,1/2+z
1/2+x,1/2-y,1/2-z
1/2-x,1/2+y,1/2-z
1/2-x,1/2-y,1/2-z
1/2+x,1/2+y,1/2-z
1/2-x,1/2+y,1/2+z
1/2+x,1/2-y,1/2+z
loop_
_atom_site_type_symbol
_atom_site_label
_atom_site_fract_x
_atom_site_fract_y
_atom_site_fract_z
Si Si1 0.733866 0.674733 0.428014
Si Si2 0.000000 0.703138 0.932935
Si Si3 0.569089 0.676359 0.000000
Si Si4 0.073093 0.324398 0.269933
Si Si5 0.500000 0.500000 0.500000
Si Si6 0.355713 0.324051 0.880350
Si Si7 0.875113 0.334639 0.138486
O O1 0.734815 0.712862 0.500000
O O2 0.739232 0.500000 0.423629
O O3 0.789367 0.753191 0.392693
O O4 0.671334 0.730091 0.396857
O O5 0.939389 0.662607 0.896885
O O6 0.000000 0.873816 0.947632
O O7 0.000000 0.640384 0.000000
O O8 0.604939 0.717376 0.060247
O O9 0.566285 0.500000 0.000000
O O10 0.500000 0.734294 0.000000
O O11 0.076736 0.500000 0.278658
O O12 0.108581 0.241149 0.323062
O O13 0.107100 0.290592 0.206654
O O14 0.000000 0.287105 0.267565
O O15 0.351359 0.500000 0.876359
O O16 0.849485 0.500000 0.139489
#
# Coordination Sequence:
#
# PCOD9523417 Si02
#       7
#    16   8   8  16   2  16  16
#     4  11  25  42  64  91 127 168 211 262 321 379
#     4  10  21  38  62  89 127 163 209 260 322 371
#     4   9  18  34  60  91 125 152 194 258 314 363
#     4  10  22  42  64  91 130 168 207 259 316 379
#     4   8  24  36  54  92 128 164 194 270 314 368
#     4  11  22  40  64  93 125 165 211 261 315 374
#     4  11  23  40  64  92 125 167 214 259 315 374
#
# _framework density 18.620488000000002
#
# number of rings (size 3 to 8) (size 9 to 14) (size 15 to 20)
#    0.293    1.268    1.951    2.634    1.366    5.463 
#    0.000    0.000    0.000    2.341    0.000    0.000 
#    0.000    0.000    0.000    0.000    0.000    0.000 
#
# Total GULP energy -228590.034405 kJ/mol
# GULP energy per Si atom -5575.366693 kJ/mol
# Density = 1.857811 g / cm^3
# Si number density = 18.620488 Si / 1000 Ang^3
#
#
#
# Elastic Constant Matrix: (Units=GPa)
#
#
# Indices 1 2 3 4 5 6 
#
# 1 122.6225 36.2027 49.1773 0.0000 0.0000 0.0000
# 2 36.2027 85.5757 46.8580 0.0000 0.0000 0.0000
# 3 49.1773 46.8580 147.4508 0.0000 0.0000 0.0000
# 4 0.0000 0.0000 0.0000 33.3297 0.0000 0.0000
# 5 0.0000 0.0000 0.0000 0.0000 37.2962 0.0000
# 6 0.0000 0.0000 0.0000 0.0000 0.0000 60.1501
#
#
#
# Elastic Compliance Matrix: (Units=1/GPa)
#
#
# Indices 1 2 3 4 5 6 
#
# 1 0.009977 -0.002904 -0.002405 0.000000 0.000000 0.000000
# 2 -0.002904 0.014993 -0.003796 0.000000 0.000000 0.000000
# 3 -0.002405 -0.003796 0.008790 0.000000 0.000000 0.000000
# 4 0.000000 0.000000 0.000000 0.030003 0.000000 0.000000
# 5 0.000000 0.000000 0.000000 0.000000 0.026812 0.000000
# 6 0.000000 0.000000 0.000000 0.000000 0.000000 0.016625
#
#
# Mechanical properties :
#
#
# Convention : Reuss Voigt Hill
#
# Bulk Modulus (GPa) = 64.30632 68.90278 66.60455
# Shear Modulus (GPa) = 38.28689 41.04924 39.66807
#
# Velocity S-wave (km/s) = 4.53942 4.70033 4.62057
# Velocity P-wave (km/s) = 7.87942 8.15730 8.01956
#
# Compressibility (1/GPa) = 0.01555057
#
# Stress axis : x y z
#
# Youngs Moduli (GPa) = 100.23219 66.69947 113.76323
#
# Poissons Ratio (x) = 0.19370 0.27355
# Poissons Ratio (y) = 0.29108 0.43184
# Poissons Ratio (z) = 0.24102 0.25319
#
# Static dielectric constant tensor:
#      x y z
#    x 1.639290 0.000000 0.000000 
#    y 0.000000 1.638950 0.000000 
#    z 0.000000 0.000000 1.630790 
# 
# From -- ./inp_files/61070.got.cif
#   From: 2010.05.17/outbox.cif.g08.bks.cpg/sg71_31_cif.got.tgz:61070.got - 2010.06.03 16:22:01.
