data_PCOD9523336
_publ_section_title
;
Structure prediction by ZEFSAII (Michael W. Deem and Ramdas Pophale) SiO2 
 PCOD9523336
Probable space group: I M M M
;
_chemical_formula_sum "Si O2"
_cell_formula_units_Z 104
_cell_length_a 20.479766
_cell_length_b 9.392233
_cell_length_c 24.491590
_cell_angle_alpha 90.000000
_cell_angle_beta 90.000000
_cell_angle_gamma 90.000000
_cell_volume 4710.975315
_symmetry_space_group_name_H-M "I M M M"
_symmetry_group_IT_number 71
_symmetry_cell_setting 'orthorhombic'
loop_
_space_group_symop_operation_xyz
x,y,z
-x,-y,z
x,-y,-z
-x,y,-z
-x,-y,-z
x,y,-z
-x,y,z
x,-y,z
1/2+x,1/2+y,1/2+z
1/2-x,1/2-y,1/2+z
1/2+x,1/2-y,1/2-z
1/2-x,1/2+y,1/2-z
1/2-x,1/2-y,1/2-z
1/2+x,1/2+y,1/2-z
1/2-x,1/2+y,1/2+z
1/2+x,1/2-y,1/2+z
loop_
_atom_site_type_symbol
_atom_site_label
_atom_site_fract_x
_atom_site_fract_y
_atom_site_fract_z
Si Si1 0.420240 0.837275 0.500000
Si Si2 0.758943 0.660196 0.162213
Si Si3 0.389794 0.165475 0.715537
Si Si4 0.897089 0.835206 0.679274
Si Si5 0.754156 0.668873 0.440236
Si Si6 0.422167 0.338683 0.393042
Si Si7 0.892780 0.170662 0.440532
O O1 0.500000 0.843932 0.500000
O O2 0.401236 0.753100 0.554645
O O3 0.395963 0.000000 0.500000
O O4 0.768091 0.500000 0.139866
O O5 0.810289 0.673425 0.211354
O O6 0.682524 0.672823 0.176045
O O7 0.777017 0.770134 0.114669
O O8 0.415589 0.234064 0.771126
O O9 0.411893 0.255662 0.663408
O O10 0.408143 0.000000 0.710722
O O11 0.922878 0.795901 0.618759
O O12 0.914230 0.000000 0.690621
O O13 0.725083 0.700660 0.500000
O O14 0.761764 0.500000 0.435939
O O15 0.824906 0.744801 0.441041
O O16 0.500000 0.352521 0.399244
O O17 0.394672 0.500000 0.393173
O O18 0.924578 0.198405 0.500000
O O19 0.880718 0.000000 0.438293
#
# Coordination Sequence:
#
# PCOD9523336 Si02
#       7
#     8  16  16  16  16  16  16
#     4   9  17  33  59  85 105 127 159 203 257 313
#     4   9  19  33  46  63  90 129 169 202 244 296
#     4  11  22  34  49  72  99 129 167 206 250 300
#     4   9  17  30  48  69  97 132 168 205 245 291
#     4   9  16  25  39  60  84 113 153 200 245 283
#     4  10  21  38  59  80 102 130 165 208 259 311
#     4   8  14  26  44  64  88 122 161 198 237 282
#
# _framework density 22.076108000000001
#
# number of rings (size 3 to 8) (size 9 to 14) (size 15 to 20)
#    0.000    2.692    0.000    3.000    0.000    6.462 
#    1.385    0.000    0.000    0.000    0.000    0.000 
#    0.000    0.615    0.000    7.077    0.000    2.154 
#
# Total GULP energy -290175.043241 kJ/mol
# GULP energy per Si atom -5580.289293 kJ/mol
# Density = 2.202586 g / cm^3
# Si number density = 22.076108 Si / 1000 Ang^3
#
#
#
# Elastic Constant Matrix: (Units=GPa)
#
#
# Indices 1 2 3 4 5 6 
#
# 1 59.3655 11.4963 7.1979 0.0000 0.0000 0.0000
# 2 11.4963 142.6968 114.8838 0.0000 0.0000 0.0000
# 3 7.1979 114.8838 199.1589 0.0000 0.0000 0.0000
# 4 0.0000 0.0000 0.0000 41.5747 0.0000 0.0000
# 5 0.0000 0.0000 0.0000 0.0000 8.5820 0.0000
# 6 0.0000 0.0000 0.0000 0.0000 0.0000 4.4944
#
#
#
# Elastic Compliance Matrix: (Units=1/GPa)
#
#
# Indices 1 2 3 4 5 6 
#
# 1 0.017123 -0.001645 0.000330 0.000000 0.000000 0.000000
# 2 -0.001645 0.013243 -0.007579 0.000000 0.000000 0.000000
# 3 0.000330 -0.007579 0.009381 0.000000 0.000000 0.000000
# 4 0.000000 0.000000 0.000000 0.024053 0.000000 0.000000
# 5 0.000000 0.000000 0.000000 0.000000 0.116523 0.000000
# 6 0.000000 0.000000 0.000000 0.000000 0.000000 0.222501
#
#
# Mechanical properties :
#
#
# Convention : Reuss Voigt Hill
#
# Bulk Modulus (GPa) = 45.54126 74.26414 59.90270
# Shear Modulus (GPa) = 11.68408 28.77310 20.22859
#
# Velocity S-wave (km/s) = 2.30307 3.61412 3.03035
# Velocity P-wave (km/s) = 5.26746 7.15045 6.27993
#
# Compressibility (1/GPa) = 0.02195811
#
# Stress axis : x y z
#
# Youngs Moduli (GPa) = 58.39963 75.51408 106.59464
#
# Poissons Ratio (x) = 0.12426 -0.03521
# Poissons Ratio (y) = 0.09610 0.80793
# Poissons Ratio (z) = -0.01929 0.57235
#
# Static dielectric constant tensor:
#      x y z
#    x 1.863750 0.000000 0.000000 
#    y 0.000000 1.747680 0.000000 
#    z 0.000000 0.000000 1.814990 
# 
# From -- ./inp_files/61949.got.cif
#   From: 2010.05.17/outbox.cif.g08.bks.cpg/sg71_31_cif.got.tgz:61949.got - 2010.06.03 16:22:01.
