data_PCOD9523942
_publ_section_title
;
Structure prediction by ZEFSAII (Michael W. Deem and Ramdas Pophale) SiO2 
 PCOD9523942
Probable space group: I M M M
;
_chemical_formula_sum "Si O2"
_cell_formula_units_Z 52
_cell_length_a 13.753740
_cell_length_b 22.244267
_cell_length_c 9.571869
_cell_angle_alpha 90.000000
_cell_angle_beta 90.000000
_cell_angle_gamma 90.000000
_cell_volume 2928.435452
_symmetry_space_group_name_H-M "I M M M"
_symmetry_group_IT_number 71
_symmetry_cell_setting 'orthorhombic'
loop_
_space_group_symop_operation_xyz
x,y,z
-x,-y,z
x,-y,-z
-x,y,-z
-x,-y,-z
x,y,-z
-x,y,z
x,-y,z
1/2+x,1/2+y,1/2+z
1/2-x,1/2-y,1/2+z
1/2+x,1/2-y,1/2-z
1/2-x,1/2+y,1/2-z
1/2-x,1/2-y,1/2-z
1/2+x,1/2+y,1/2-z
1/2-x,1/2+y,1/2+z
1/2+x,1/2-y,1/2+z
loop_
_atom_site_type_symbol
_atom_site_label
_atom_site_fract_x
_atom_site_fract_y
_atom_site_fract_z
Si Si1 0.325325 0.884096 0.278699
Si Si2 0.000000 0.896683 0.500000
Si Si3 0.000000 0.000000 0.268216
Si Si4 0.804246 0.817966 0.500000
Si Si5 0.386075 0.185611 0.000000
Si Si6 0.000000 0.404698 0.000000
Si Si7 0.715739 0.500000 0.663761
O O1 0.258410 0.838215 0.366257
O O2 0.361802 0.852547 0.137776
O O3 0.414543 0.902871 0.377909
O O4 0.261633 0.941830 0.237451
O O5 0.095568 0.855475 0.500000
O O6 0.000000 0.941236 0.367279
O O7 0.900408 0.000000 0.182193
O O8 0.826724 0.747639 0.500000
O O9 0.500000 0.200572 0.000000
O O10 0.740829 0.500000 0.500000
#
# Coordination Sequence:
#
# PCOD9523942 Si02
#       7
#    16   4   4   8   8   4   8
#     4  11  24  42  65  96 126 171 214 266 322 382
#     4  11  20  36  66  98 114 163 214 250 328 373
#     4  11  23  40  62  94 129 153 208 276 306 388
#     4  11  23  41  68  93 130 165 218 262 318 384
#     4  12  23  43  66  91 132 174 212 265 314 384
#     4  10  24  41  62  94 128 160 214 269 308 372
#     4  12  24  41  67  89 132 171 211 268 334 378
#
# _framework density 17.756921999999999
#
# number of rings (size 3 to 8) (size 9 to 14) (size 15 to 20)
#    0.000    0.769    6.923    1.154    0.000    3.692 
#    0.000    1.538    0.000    0.000    0.000    0.000 
#    0.000    0.000    0.000    0.000    0.000    0.000 
#
# Total GULP energy -144756.056476 kJ/mol
# GULP energy per Si atom -5567.540634 kJ/mol
# Density = 1.771651 g / cm^3
# Si number density = 17.756922 Si / 1000 Ang^3
#
#
#
# Elastic Constant Matrix: (Units=GPa)
#
#
# Indices 1 2 3 4 5 6 
#
# 1 145.2747 35.1910 56.0195 0.0000 0.0000 0.0000
# 2 35.1910 88.8887 43.9726 0.0000 0.0000 0.0000
# 3 56.0195 43.9726 151.5137 0.0000 0.0000 0.0000
# 4 0.0000 0.0000 0.0000 -14.5232 0.0000 0.0000
# 5 0.0000 0.0000 0.0000 0.0000 19.9127 0.0000
# 6 0.0000 0.0000 0.0000 0.0000 0.0000 16.7948
#
#
#
# Elastic Compliance Matrix: (Units=1/GPa)
#
#
# Indices 1 2 3 4 5 6 
#
# 1 0.008343 -0.002075 -0.002483 0.000000 0.000000 0.000000
# 2 -0.002075 0.013652 -0.003195 0.000000 0.000000 0.000000
# 3 -0.002483 -0.003195 0.008445 0.000000 0.000000 0.000000
# 4 0.000000 0.000000 0.000000 -0.068855 0.000000 0.000000
# 5 0.000000 0.000000 0.000000 0.000000 0.050219 0.000000
# 6 0.000000 0.000000 0.000000 0.000000 0.000000 0.059542
#
#
# Mechanical properties :
#
#
# Convention : Reuss Voigt Hill
#
# Bulk Modulus (GPa) = 66.95432 72.89371 69.92401
# Shear Modulus (GPa) = 54.44797 21.13645 37.79221
#
# Velocity S-wave (km/s) = 5.54342 3.45385 4.61836
# Velocity P-wave (km/s) = 8.87472 7.55284 8.24033
#
# Compressibility (1/GPa) = 0.01493556
#
# Stress axis : x y z
#
# Youngs Moduli (GPa) = 119.85387 73.24915 118.41034
#
# Poissons Ratio (x) = 0.15199 0.29397
# Poissons Ratio (y) = 0.24870 0.37831
# Poissons Ratio (z) = 0.29755 0.23402
#
# Static dielectric constant tensor:
#      x y z
#    x 1.577210 0.000000 0.000000 
#    y 0.000000 1.576720 0.000000 
#    z 0.000000 0.000000 1.581640 
# 
# From -- ./inp_files/4983.got.cif
#   From: 2010.05.17/outbox.cif.g08.bks.cpg/sg71_3_cif.got.tgz:4983.got - 2010.06.03 16:22:01.
