data_PCOD9523676
_publ_section_title
;
Structure prediction by ZEFSAII (Michael W. Deem and Ramdas Pophale) SiO2 
 PCOD9523676
Probable space group: I M M M
;
_chemical_formula_sum "Si O2"
_cell_formula_units_Z 56
_cell_length_a 13.065312
_cell_length_b 24.812224
_cell_length_c 8.647240
_cell_angle_alpha 90.000000
_cell_angle_beta 90.000000
_cell_angle_gamma 90.000000
_cell_volume 2803.257490
_symmetry_space_group_name_H-M "I M M M"
_symmetry_group_IT_number 71
_symmetry_cell_setting 'orthorhombic'
loop_
_space_group_symop_operation_xyz
x,y,z
-x,-y,z
x,-y,-z
-x,y,-z
-x,-y,-z
x,y,-z
-x,y,z
x,-y,z
1/2+x,1/2+y,1/2+z
1/2-x,1/2-y,1/2+z
1/2+x,1/2-y,1/2-z
1/2-x,1/2+y,1/2-z
1/2-x,1/2-y,1/2-z
1/2+x,1/2+y,1/2-z
1/2-x,1/2+y,1/2+z
1/2+x,1/2-y,1/2+z
loop_
_atom_site_type_symbol
_atom_site_label
_atom_site_fract_x
_atom_site_fract_y
_atom_site_fract_z
Si Si1 0.204541 0.696887 0.678154
Si Si2 0.279936 0.588788 0.181608
Si Si3 0.500000 0.740114 0.827630
Si Si4 0.500000 0.379502 0.684113
Si Si5 0.377137 0.000000 0.814010
O O1 0.236093 0.685985 0.500000
O O2 0.250000 0.750000 0.750000
O O3 0.235220 0.647733 0.784509
O O4 0.089911 0.716864 0.682675
O O5 0.395849 0.592572 0.250479
O O6 0.194235 0.549670 0.256929
O O7 0.287151 0.576778 0.000000
O O8 0.500000 0.685613 0.723942
O O9 0.500000 0.715560 0.000000
O O10 0.500000 0.384698 0.500000
O O11 0.500000 0.000000 0.764668
O O12 0.379568 0.000000 0.000000
#
# Coordination Sequence:
#
# PCOD9523676 Si02
#       5
#    16  16   8   8   8
#     4  11  22  38  62  96 135 178 224 272 331 396
#     4  12  26  45  69 100 138 177 224 278 338 401
#     4  10  22  38  59  90 135 180 222 273 332 393
#     4  12  24  41  69 100 135 177 227 277 334 399
#     4  11  27  52  77 100 131 171 223 279 332 395
#
# _framework density 19.976759999999999
#
# number of rings (size 3 to 8) (size 9 to 14) (size 15 to 20)
#    0.000    0.714    2.857    5.143    2.000    2.857 
#    0.000    2.857    0.000    0.000    0.000    0.000 
#    0.000    0.000    0.000    0.000    0.000    0.000 
#
# Total GULP energy -155956.157287 kJ/mol
# GULP energy per Si atom -5569.862760 kJ/mol
# Density = 1.993129 g / cm^3
# Si number density = 19.976760 Si / 1000 Ang^3
#
#
#
# Elastic Constant Matrix: (Units=GPa)
#
#
# Indices 1 2 3 4 5 6 
#
# 1 179.4539 56.2697 73.3818 -0.0001 0.0001 0.0000
# 2 56.2697 107.7310 18.0068 -0.0003 0.0000 -0.0001
# 3 73.3818 18.0068 125.2626 -0.0005 0.0001 -0.0001
# 4 -0.0001 -0.0003 -0.0005 35.8389 0.0000 -0.0001
# 5 0.0001 0.0000 0.0001 0.0000 24.1063 0.0000
# 6 0.0000 -0.0001 -0.0001 -0.0001 0.0000 35.3536
#
#
#
# Elastic Compliance Matrix: (Units=1/GPa)
#
#
# Indices 1 2 3 4 5 6 
#
# 1 0.008578 -0.003730 -0.004489 0.000000 0.000000 0.000000
# 2 -0.003730 0.011133 0.000585 0.000000 0.000000 0.000000
# 3 -0.004489 0.000585 0.010529 0.000000 0.000000 0.000000
# 4 0.000000 0.000000 0.000000 0.027903 0.000000 0.000000
# 5 0.000000 0.000000 0.000000 0.000000 0.041483 0.000000
# 6 0.000000 0.000000 0.000000 0.000000 0.000000 0.028286
#
#
# Mechanical properties :
#
#
# Convention : Reuss Voigt Hill
#
# Bulk Modulus (GPa) = 66.79465 78.64044 72.71754
# Shear Modulus (GPa) = 33.74532 36.71238 35.22885
#
# Velocity S-wave (km/s) = 4.11448 4.29155 4.20395
# Velocity P-wave (km/s) = 7.48871 8.00050 7.74883
#
# Compressibility (1/GPa) = 0.01497126
#
# Stress axis : x y z
#
# Youngs Moduli (GPa) = 116.58361 89.82427 94.97769
#
# Poissons Ratio (x) = 0.33504 0.42633
# Poissons Ratio (y) = 0.43485 -0.05553
# Poissons Ratio (z) = 0.52331 -0.05252
#
# Static dielectric constant tensor:
#      x y z
#    x 1.680570 0.000000 0.000000 
#    y 0.000000 1.673690 0.000000 
#    z 0.000000 0.000000 1.731920 
# 
# From -- ./inp_files/5131.got.cif
#   From: 2010.05.17/outbox.cif.g08.bks.cpg/sg71_3_cif.got.tgz:5131.got - 2010.06.03 16:22:01.
