data_PCOD9523029
_publ_section_title
;
Structure prediction by ZEFSAII (Michael W. Deem and Ramdas Pophale) SiO2 
 PCOD9523029
Probable space group: I M M M
;
_chemical_formula_sum "Si O2"
_cell_formula_units_Z 62
_cell_length_a 17.584359
_cell_length_b 16.308025
_cell_length_c 13.354605
_cell_angle_alpha 90.000000
_cell_angle_beta 90.000000
_cell_angle_gamma 90.000000
_cell_volume 3829.648877
_symmetry_space_group_name_H-M "I M M M"
_symmetry_group_IT_number 71
_symmetry_cell_setting 'orthorhombic'
loop_
_space_group_symop_operation_xyz
x,y,z
-x,-y,z
x,-y,-z
-x,y,-z
-x,-y,-z
x,y,-z
-x,y,z
x,-y,z
1/2+x,1/2+y,1/2+z
1/2-x,1/2-y,1/2+z
1/2+x,1/2-y,1/2-z
1/2-x,1/2+y,1/2-z
1/2-x,1/2-y,1/2-z
1/2+x,1/2+y,1/2-z
1/2-x,1/2+y,1/2+z
1/2+x,1/2-y,1/2+z
loop_
_atom_site_type_symbol
_atom_site_label
_atom_site_fract_x
_atom_site_fract_y
_atom_site_fract_z
Si Si1 0.373720 0.282072 0.275147
Si Si2 0.500000 0.000000 0.265861
Si Si3 0.500000 0.409421 0.792046
Si Si4 0.282339 0.175745 0.882706
Si Si5 0.000000 0.000000 0.500000
Si Si6 0.000000 0.328228 0.880304
Si Si7 0.141758 0.500000 0.384285
O O1 0.426635 0.356761 0.239153
O O2 0.338940 0.233065 0.180892
O O3 0.302069 0.311808 0.339823
O O4 0.426891 0.220946 0.338755
O O5 0.500000 0.918792 0.333482
O O6 0.426885 0.000000 0.193681
O O7 0.500000 0.500000 0.742569
O O8 0.500000 0.429838 0.910110
O O9 0.309024 0.081969 0.870217
O O10 0.285077 0.196245 0.000000
O O11 0.000000 0.330516 0.000000
O O12 0.113899 0.500000 0.500000
#
# Coordination Sequence:
#
# PCOD9523029 Si02
#       7
#    16   4   8  16   2   8   8
#     4  10  21  38  58  83 111 146 186 232 276 336
#     4  12  20  38  54  86 114 152 182 226 278 336
#     4   9  21  36  56  82 112 145 180 229 279 333
#     4  10  21  36  59  82 110 146 185 230 281 327
#     4   8  20  36  56  88 106 142 184 230 288 328
#     4  11  22  38  59  81 115 149 187 229 277 336
#     4  10  21  36  56  84 114 147 180 230 276 329
#
# _framework density 16.189473
#
# number of rings (size 3 to 8) (size 9 to 14) (size 15 to 20)
#    0.387    1.548    2.581    1.161    3.613    0.000 
#    0.000    0.000    0.000    2.323    0.000    0.000 
#    0.000    0.000    0.000    0.000    0.000    0.000 
#
# Total GULP energy -172622.936846 kJ/mol
# GULP energy per Si atom -5568.481834 kJ/mol
# Density = 1.615263 g / cm^3
# Si number density = 16.189473 Si / 1000 Ang^3
#
#
#
# Elastic Constant Matrix: (Units=GPa)
#
#
# Indices 1 2 3 4 5 6 
#
# 1 139.1277 83.7176 92.4851 0.0000 0.0000 0.0000
# 2 83.7176 150.9592 92.6125 0.0000 0.0000 0.0000
# 3 92.4851 92.6125 161.9601 0.0000 0.0000 0.0000
# 4 0.0000 0.0000 0.0000 29.0102 0.0000 0.0000
# 5 0.0000 0.0000 0.0000 0.0000 5.4808 0.0000
# 6 0.0000 0.0000 0.0000 0.0000 0.0000 14.1975
#
#
#
# Elastic Compliance Matrix: (Units=1/GPa)
#
#
# Indices 1 2 3 4 5 6 
#
# 1 0.013052 -0.004106 -0.005105 0.000000 0.000000 0.000000
# 2 -0.004106 0.011496 -0.004229 0.000000 0.000000 0.000000
# 3 -0.005105 -0.004229 0.011508 0.000000 0.000000 0.000000
# 4 0.000000 0.000000 0.000000 0.034471 0.000000 0.000000
# 5 0.000000 0.000000 0.000000 0.000000 0.182455 0.000000
# 6 0.000000 0.000000 0.000000 0.000000 0.000000 0.070435
#
#
# Mechanical properties :
#
#
# Convention : Reuss Voigt Hill
#
# Bulk Modulus (GPa) = 108.98898 109.96415 109.47656
# Shear Modulus (GPa) = 14.15008 21.95317 18.05162
#
# Velocity S-wave (km/s) = 2.95961 3.68641 3.34282
# Velocity P-wave (km/s) = 8.89641 9.28386 9.09220
#
# Compressibility (1/GPa) = 0.00917524
#
# Stress axis : x y z
#
# Youngs Moduli (GPa) = 76.61504 86.98767 86.89862
#
# Poissons Ratio (x) = 0.35721 0.44363
# Poissons Ratio (y) = 0.31461 0.36747
# Poissons Ratio (z) = 0.39113 0.36784
#
# Static dielectric constant tensor:
#      x y z
#    x 1.516840 0.000000 0.000000 
#    y 0.000000 1.526820 0.000000 
#    z 0.000000 0.000000 1.516090 
# 
# From -- ./inp_files/23448.got.cif
#   From: 2010.05.17/outbox.cif.g08.bks.cpg/sg71_12_cif.got.tgz:23448.got - 2010.06.03 16:22:01.
