data_PCOD9523689
_publ_section_title
;
Structure prediction by ZEFSAII (Michael W. Deem and Ramdas Pophale) SiO2 
 PCOD9523689
Probable space group: I M M M
;
_chemical_formula_sum "Si O2"
_cell_formula_units_Z 116
_cell_length_a 25.363471
_cell_length_b 29.578329
_cell_length_c 8.001946
_cell_angle_alpha 90.000000
_cell_angle_beta 90.000000
_cell_angle_gamma 90.000000
_cell_volume 6003.132625
_symmetry_space_group_name_H-M "I M M M"
_symmetry_group_IT_number 71
_symmetry_cell_setting 'orthorhombic'
loop_
_space_group_symop_operation_xyz
x,y,z
-x,-y,z
x,-y,-z
-x,y,-z
-x,-y,-z
x,y,-z
-x,y,z
x,-y,z
1/2+x,1/2+y,1/2+z
1/2-x,1/2-y,1/2+z
1/2+x,1/2-y,1/2-z
1/2-x,1/2+y,1/2-z
1/2-x,1/2-y,1/2-z
1/2+x,1/2+y,1/2-z
1/2-x,1/2+y,1/2+z
1/2+x,1/2-y,1/2+z
loop_
_atom_site_type_symbol
_atom_site_label
_atom_site_fract_x
_atom_site_fract_y
_atom_site_fract_z
Si Si1 0.056870 0.612704 0.195081
Si Si2 0.717285 0.793105 0.808557
Si Si3 0.000000 0.831817 0.000000
Si Si4 0.347752 0.949459 0.199771
Si Si5 0.418571 0.689396 0.799870
Si Si6 0.599754 0.795205 0.199225
Si Si7 0.194679 0.855803 0.306673
Si Si8 0.771982 0.051572 0.202084
O O1 0.107582 0.586707 0.263362
O O2 0.064977 0.666142 0.218654
O O3 0.000000 0.599399 0.270046
O O4 0.055514 0.602341 0.000000
O O5 0.750000 0.750000 0.750000
O O6 0.659608 0.799063 0.730749
O O7 0.755910 0.835491 0.792566
O O8 0.705207 0.783894 0.000000
O O9 0.954742 0.830085 0.152185
O O10 0.288380 0.939168 0.260203
O O11 0.362156 0.000000 0.260704
O O12 0.343102 0.951742 0.000000
O O13 0.418848 0.743806 0.778915
O O14 0.359361 0.670568 0.772530
O O15 0.431471 0.680389 0.000000
O O16 0.598740 0.804907 0.000000
O O17 0.207277 0.847935 0.500000
O O18 0.191328 0.909001 0.271295
O O19 0.785119 0.000000 0.250555
O O20 0.773404 0.053567 0.000000
#
# Coordination Sequence:
#
# PCOD9523689 Si02
#       8
#    16  16   4  16  16  16  16  16
#     4  11  25  38  52  77 107 144 198 254 301 352
#     4  11  21  34  55  82 116 155 195 237 293 363
#     4  12  26  40  68  86 113 170 207 248 310 346
#     4   9  19  38  60  81 108 146 191 238 297 362
#     4  10  24  42  60  89 121 156 207 256 296 355
#     4  10  22  39  55  77 114 153 196 249 301 347
#     4  11  22  37  57  88 126 158 194 243 296 357
#     4   9  19  36  60  90 122 153 189 235 290 360
#
# _framework density 19.323245
#
# number of rings (size 3 to 8) (size 9 to 14) (size 15 to 20)
#    0.000    1.793    1.379    3.103    3.862    6.897 
#    0.000    2.759    0.000    0.000    0.000    0.966 
#    0.000    2.207    0.000    0.000    0.000    0.000 
#
# Total GULP energy -323085.086817 kJ/mol
# GULP energy per Si atom -5570.432531 kJ/mol
# Density = 1.927926 g / cm^3
# Si number density = 19.323245 Si / 1000 Ang^3
#
#
#
# Elastic Constant Matrix: (Units=GPa)
#
#
# Indices 1 2 3 4 5 6 
#
# 1 30.1006 1.1896 7.7506 0.0000 0.0000 0.0000
# 2 1.1896 72.9680 -7.8884 0.0000 0.0000 0.0000
# 3 7.7506 -7.8884 41.1680 0.0000 0.0000 0.0000
# 4 0.0000 0.0000 0.0000 19.5768 0.0000 0.0000
# 5 0.0000 0.0000 0.0000 0.0000 16.2550 0.0000
# 6 0.0000 0.0000 0.0000 0.0000 0.0000 -38.9449
#
#
#
# Elastic Compliance Matrix: (Units=1/GPa)
#
#
# Indices 1 2 3 4 5 6 
#
# 1 0.035037 -0.001311 -0.006848 0.000000 0.000000 0.000000
# 2 -0.001311 0.014044 0.002938 0.000000 0.000000 0.000000
# 3 -0.006848 0.002938 0.026143 0.000000 0.000000 0.000000
# 4 0.000000 0.000000 0.000000 0.051081 0.000000 0.000000
# 5 0.000000 0.000000 0.000000 0.000000 0.061519 0.000000
# 6 0.000000 0.000000 0.000000 0.000000 0.000000 -0.025677
#
#
# Mechanical properties :
#
#
# Convention : Reuss Voigt Hill
#
# Bulk Modulus (GPa) = 15.43663 16.26002 15.84832
# Shear Modulus (GPa) = 25.74896 8.92304 17.33600
#
# Velocity S-wave (km/s) = 3.65435 2.15123 2.99851
# Velocity P-wave (km/s) = 5.08052 3.82144 4.49528
#
# Compressibility (1/GPa) = 0.06478099
#
# Stress axis : x y z
#
# Youngs Moduli (GPa) = 28.54127 71.20670 38.25139
#
# Poissons Ratio (x) = 0.09339 0.26193
# Poissons Ratio (y) = 0.03743 -0.11238
# Poissons Ratio (z) = 0.19544 -0.20920
#
# Static dielectric constant tensor:
#      x y z
#    x 1.742860 0.000000 0.000000 
#    y 0.000000 1.679640 0.000000 
#    z 0.000000 0.000000 1.699090 
# 
# From -- ./inp_files/13744.got.cif
#   From: 2010.05.17/outbox.cif.g08.bks.cpg/sg71_7_cif.got.tgz:13744.got - 2010.06.03 16:22:01.
