data_PCOD9523524
_publ_section_title
;
Structure prediction by ZEFSAII (Michael W. Deem and Ramdas Pophale) SiO2 
 PCOD9523524
Probable space group: I M M M
;
_chemical_formula_sum "Si O2"
_cell_formula_units_Z 58
_cell_length_a 11.694654
_cell_length_b 14.473820
_cell_length_c 15.516459
_cell_angle_alpha 90.000000
_cell_angle_beta 90.000000
_cell_angle_gamma 90.000000
_cell_volume 2626.413867
_symmetry_space_group_name_H-M "I M M M"
_symmetry_group_IT_number 71
_symmetry_cell_setting 'orthorhombic'
loop_
_space_group_symop_operation_xyz
x,y,z
-x,-y,z
x,-y,-z
-x,y,-z
-x,-y,-z
x,y,-z
-x,y,z
x,-y,z
1/2+x,1/2+y,1/2+z
1/2-x,1/2-y,1/2+z
1/2+x,1/2-y,1/2-z
1/2-x,1/2+y,1/2-z
1/2-x,1/2-y,1/2-z
1/2+x,1/2+y,1/2-z
1/2-x,1/2+y,1/2+z
1/2+x,1/2-y,1/2+z
loop_
_atom_site_type_symbol
_atom_site_label
_atom_site_fract_x
_atom_site_fract_y
_atom_site_fract_z
Si Si1 0.202481 0.153524 0.000000
Si Si2 0.000000 0.000000 0.000000
Si Si3 0.500000 0.385840 0.100748
Si Si4 0.868571 0.387346 0.341412
Si Si5 0.763725 0.105511 0.674485
Si Si6 0.131479 0.363402 0.000000
O O1 0.284645 0.142269 0.082452
O O2 0.146387 0.253631 0.000000
O O3 0.101493 0.079441 0.000000
O O4 0.500000 0.500000 0.099488
O O5 0.613636 0.352978 0.149619
O O6 0.500000 0.358017 0.000000
O O7 0.871712 0.500000 0.341391
O O8 0.812765 0.354892 0.251199
O O9 0.000000 0.357026 0.352091
O O10 0.693377 0.103134 0.586141
O O11 0.789204 0.000000 0.701573
O O12 0.000000 0.390242 0.000000
#
# Coordination Sequence:
#
# PCOD9523524 Si02
#       6
#     8   2   8  16  16   8
#     4  12  25  44  68  89 125 169 219 273 318 372
#     4  12  24  48  70  92 118 174 228 258 328 372
#     4   9  16  33  59  91 131 171 211 241 294 380
#     4  10  21  41  68  96 121 162 217 266 323 387
#     4  10  21  39  65  96 132 168 207 257 320 390
#     4  12  25  40  60  93 132 165 210 266 319 382
#
# _framework density 22.083345000000001
#
# number of rings (size 3 to 8) (size 9 to 14) (size 15 to 20)
#    0.000    1.517    3.448    1.655    0.000    5.517 
#    7.448    0.000    0.000    0.000    0.000    0.000 
#    0.000    0.000    0.000    0.000    0.000    0.000 
#
# Total GULP energy -161941.567233 kJ/mol
# GULP energy per Si atom -5584.191974 kJ/mol
# Density = 2.203308 g / cm^3
# Si number density = 22.083345 Si / 1000 Ang^3
#
#
#
# Elastic Constant Matrix: (Units=GPa)
#
#
# Indices 1 2 3 4 5 6 
#
# 1 235.1539 18.6330 86.4397 0.0000 0.0000 0.0000
# 2 18.6330 83.7994 -4.6292 0.0000 0.0000 0.0000
# 3 86.4397 -4.6292 152.9795 0.0000 0.0000 0.0000
# 4 0.0000 0.0000 0.0000 10.1743 0.0000 0.0000
# 5 0.0000 0.0000 0.0000 0.0000 58.6368 0.0000
# 6 0.0000 0.0000 0.0000 0.0000 0.0000 -18.1872
#
#
#
# Elastic Compliance Matrix: (Units=1/GPa)
#
#
# Indices 1 2 3 4 5 6 
#
# 1 0.005527 -0.001404 -0.003166 0.000000 0.000000 0.000000
# 2 -0.001404 0.012310 0.001166 0.000000 0.000000 0.000000
# 3 -0.003166 0.001166 0.008361 0.000000 0.000000 0.000000
# 4 0.000000 0.000000 0.000000 0.098287 0.000000 0.000000
# 5 0.000000 0.000000 0.000000 0.000000 0.017054 0.000000
# 6 0.000000 0.000000 0.000000 0.000000 0.000000 -0.054984
#
#
# Mechanical properties :
#
#
# Convention : Reuss Voigt Hill
#
# Bulk Modulus (GPa) = 51.57190 74.75774 63.16482
# Shear Modulus (GPa) = 50.08692 34.89074 42.48883
#
# Velocity S-wave (km/s) = 4.76761 3.97918 4.39113
# Velocity P-wave (km/s) = 7.32877 7.41875 7.37390
#
# Compressibility (1/GPa) = 0.01939040
#
# Stress axis : x y z
#
# Youngs Moduli (GPa) = 180.91501 81.23591 119.60483
#
# Poissons Ratio (x) = 0.11405 0.37864
# Poissons Ratio (y) = 0.25399 -0.13943
# Poissons Ratio (z) = 0.57273 -0.09470
#
# Static dielectric constant tensor:
#      x y z
#    x 1.761650 0.000000 0.000000 
#    y 0.000000 1.878090 0.000000 
#    z 0.000000 0.000000 1.761900 
# 
# From -- ./inp_files/23175.got.cif
#   From: 2010.05.17/outbox.cif.g08.bks.cpg/sg71_12_cif.got.tgz:23175.got - 2010.06.03 16:22:01.
