data_PCOD9523608
_publ_section_title
;
Structure prediction by ZEFSAII (Michael W. Deem and Ramdas Pophale) SiO2 
 PCOD9523608
Probable space group: I M M M
;
_chemical_formula_sum "Si O2"
_cell_formula_units_Z 52
_cell_length_a 7.720024
_cell_length_b 14.799998
_cell_length_c 24.366522
_cell_angle_alpha 90.000000
_cell_angle_beta 90.000000
_cell_angle_gamma 90.000000
_cell_volume 2784.029616
_symmetry_space_group_name_H-M "I M M M"
_symmetry_group_IT_number 71
_symmetry_cell_setting 'orthorhombic'
loop_
_space_group_symop_operation_xyz
x,y,z
-x,-y,z
x,-y,-z
-x,y,-z
-x,-y,-z
x,y,-z
-x,y,z
x,-y,z
1/2+x,1/2+y,1/2+z
1/2-x,1/2-y,1/2+z
1/2+x,1/2-y,1/2-z
1/2-x,1/2+y,1/2-z
1/2-x,1/2-y,1/2-z
1/2+x,1/2+y,1/2-z
1/2-x,1/2+y,1/2+z
1/2+x,1/2-y,1/2+z
loop_
_atom_site_type_symbol
_atom_site_label
_atom_site_fract_x
_atom_site_fract_y
_atom_site_fract_z
Si Si1 0.210141 0.500000 0.236089
Si Si2 0.500000 0.715778 0.500000
Si Si3 0.296736 0.500000 0.635808
Si Si4 0.806796 0.693293 0.589649
Si Si5 0.707225 0.805655 0.695118
O O1 0.275947 0.500000 0.298510
O O2 0.264224 0.408625 0.205502
O O3 0.000000 0.500000 0.239220
O O4 0.653007 0.713126 0.547650
O O5 0.500000 0.500000 0.621843
O O6 0.215508 0.409495 0.611077
O O7 0.788386 0.757590 0.642696
O O8 0.000000 0.703891 0.566661
O O9 0.500000 0.804805 0.687804
O O10 0.750000 0.750000 0.750000
#
# Coordination Sequence:
#
# PCOD9523608 Si02
#       5
#     8   4   8  16  16
#     4  10  22  36  62  95 136 176 211 264 340 397
#     4  12  26  49  66  95 132 186 228 269 322 393
#     4  12  22  38  61  96 135 176 217 266 325 401
#     4  12  25  43  67  94 132 174 224 275 326 390
#     4  11  21  38  62  98 133 171 217 272 332 395
#
# _framework density 18.677962999999998
#
# number of rings (size 3 to 8) (size 9 to 14) (size 15 to 20)
#    0.000    0.615    6.154    2.769    0.000    2.462 
#    0.000    1.538    0.000    1.846    0.000    2.154 
#    0.000    0.000    0.000    0.000    0.000    0.000 
#
# Total GULP energy -144857.823067 kJ/mol
# GULP energy per Si atom -5571.454733 kJ/mol
# Density = 1.863545 g / cm^3
# Si number density = 18.677963 Si / 1000 Ang^3
#
#
#
# Elastic Constant Matrix: (Units=GPa)
#
#
# Indices 1 2 3 4 5 6 
#
# 1 159.7891 30.7392 56.5449 0.0000 0.0000 0.0000
# 2 30.7392 121.0837 49.7723 0.0000 0.0000 0.0000
# 3 56.5449 49.7723 139.2946 0.0000 0.0000 0.0000
# 4 0.0000 0.0000 0.0000 -7.7902 0.0000 0.0000
# 5 0.0000 0.0000 0.0000 0.0000 40.3095 0.0000
# 6 0.0000 0.0000 0.0000 0.0000 0.0000 2.2497
#
#
#
# Elastic Compliance Matrix: (Units=1/GPa)
#
#
# Indices 1 2 3 4 5 6 
#
# 1 0.007366 -0.000751 -0.002722 0.000000 0.000000 0.000000
# 2 -0.000751 0.009757 -0.003181 0.000000 0.000000 0.000000
# 3 -0.002722 -0.003181 0.009421 0.000000 0.000000 0.000000
# 4 0.000000 0.000000 0.000000 -0.128367 0.000000 0.000000
# 5 0.000000 0.000000 0.000000 0.000000 0.024808 0.000000
# 6 0.000000 0.000000 0.000000 0.000000 0.000000 0.444499
#
#
# Mechanical properties :
#
#
# Convention : Reuss Voigt Hill
#
# Bulk Modulus (GPa) = 75.55688 77.14225 76.34957
# Shear Modulus (GPa) = 12.98011 25.82789 19.40400
#
# Velocity S-wave (km/s) = 2.63904 3.72264 3.22665
# Velocity P-wave (km/s) = 7.05877 7.73746 7.40589
#
# Compressibility (1/GPa) = 0.01323506
#
# Stress axis : x y z
#
# Youngs Moduli (GPa) = 135.76107 102.48818 106.14973
#
# Poissons Ratio (x) = 0.07699 0.28890
# Poissons Ratio (y) = 0.10198 0.33771
# Poissons Ratio (z) = 0.36950 0.32606
#
# Static dielectric constant tensor:
#      x y z
#    x 1.669020 0.000000 0.000000 
#    y 0.000000 1.638450 0.000000 
#    z 0.000000 0.000000 1.598720 
# 
# From -- ./inp_files/49783.got.cif
#   From: 2010.05.17/outbox.cif.g08.bks.cpg/sg71_25_cif.got.tgz:49783.got - 2010.06.03 16:22:01.
