data_PCOD9523573
_publ_section_title
;
Structure prediction by ZEFSAII (Michael W. Deem and Ramdas Pophale) SiO2 
 PCOD9523573
Probable space group: I M M M
;
_chemical_formula_sum "Si O2"
_cell_formula_units_Z 66
_cell_length_a 14.560622
_cell_length_b 7.343352
_cell_length_c 30.494096
_cell_angle_alpha 90.000000
_cell_angle_beta 90.000000
_cell_angle_gamma 90.000000
_cell_volume 3260.543789
_symmetry_space_group_name_H-M "I M M M"
_symmetry_group_IT_number 71
_symmetry_cell_setting 'orthorhombic'
loop_
_space_group_symop_operation_xyz
x,y,z
-x,-y,z
x,-y,-z
-x,y,-z
-x,-y,-z
x,y,-z
-x,y,z
x,-y,z
1/2+x,1/2+y,1/2+z
1/2-x,1/2-y,1/2+z
1/2+x,1/2-y,1/2-z
1/2-x,1/2+y,1/2-z
1/2-x,1/2-y,1/2-z
1/2+x,1/2+y,1/2-z
1/2-x,1/2+y,1/2+z
1/2+x,1/2-y,1/2+z
loop_
_atom_site_type_symbol
_atom_site_label
_atom_site_fract_x
_atom_site_fract_y
_atom_site_fract_z
Si Si1 0.500000 0.000000 0.500000
Si Si2 0.896806 0.283018 0.248271
Si Si3 0.500000 0.221963 0.050952
Si Si4 0.253352 0.782128 0.179299
Si Si5 0.327515 0.721406 0.500000
Si Si6 0.801037 0.278701 0.417304
O O1 0.580893 0.160137 0.500000
O O2 0.902269 0.500000 0.254421
O O3 0.843368 0.253772 0.202787
O O4 0.831668 0.211815 0.287299
O O5 0.000000 0.210876 0.248689
O O6 0.405365 0.281361 0.073376
O O7 0.500000 0.000000 0.051748
O O8 0.500000 0.275613 0.000000
O O9 0.265553 0.714945 0.129976
O O10 0.263337 0.000000 0.177618
O O11 0.343239 0.500000 0.500000
O O12 0.266171 0.767521 0.457227
O O13 0.803387 0.500000 0.416507
#
# Coordination Sequence:
#
# PCOD9523573 Si02
#       6
#     2  16   8  16   8  16
#     4  12  26  44  64  88 104 176 202 244 300 340
#     4   9  18  33  50  73 103 140 181 232 281 328
#     4   9  14  24  50  86 113 138 174 215 283 355
#     4   9  18  32  51  76 105 139 181 226 279 335
#     4  10  21  42  63  88 124 151 197 250 289 343
#     4   9  17  31  55  85 114 145 180 235 290 348
#
# _framework density 20.242023
#
# number of rings (size 3 to 8) (size 9 to 14) (size 15 to 20)
#    0.000    2.788    1.212    0.182    1.697    0.485 
#    4.364    0.000    0.000    1.455    0.000    0.000 
#    0.000    0.000    0.000    0.000    0.000    0.000 
#
# Total GULP energy -183896.340344 kJ/mol
# GULP energy per Si atom -5572.616374 kJ/mol
# Density = 2.019595 g / cm^3
# Si number density = 20.242023 Si / 1000 Ang^3
#
#
#
# Elastic Constant Matrix: (Units=GPa)
#
#
# Indices 1 2 3 4 5 6 
#
# 1 185.4395 25.9844 75.0524 0.0000 0.0000 0.0000
# 2 25.9844 91.5531 14.0907 0.0000 0.0000 0.0000
# 3 75.0524 14.0907 142.4880 0.0000 0.0000 0.0000
# 4 0.0000 0.0000 0.0000 8.7727 0.0000 0.0000
# 5 0.0000 0.0000 0.0000 0.0000 8.6383 0.0000
# 6 0.0000 0.0000 0.0000 0.0000 0.0000 -14.4250
#
#
#
# Elastic Compliance Matrix: (Units=1/GPa)
#
#
# Indices 1 2 3 4 5 6 
#
# 1 0.007038 -0.001449 -0.003564 0.000000 0.000000 0.000000
# 2 -0.001449 0.011390 -0.000363 0.000000 0.000000 0.000000
# 3 -0.003564 -0.000363 0.008931 0.000000 0.000000 0.000000
# 4 0.000000 0.000000 0.000000 0.113990 0.000000 0.000000
# 5 0.000000 0.000000 0.000000 0.000000 0.115763 0.000000
# 6 0.000000 0.000000 0.000000 0.000000 0.000000 -0.069324
#
#
# Mechanical properties :
#
#
# Convention : Reuss Voigt Hill
#
# Bulk Modulus (GPa) = 60.21521 72.19286 66.20404
# Shear Modulus (GPa) = 24.50064 20.88740 22.69402
#
# Velocity S-wave (km/s) = 3.48283 3.21578 3.35197
# Velocity P-wave (km/s) = 6.78128 7.03780 6.91073
#
# Compressibility (1/GPa) = 0.01660710
#
# Stress axis : x y z
#
# Youngs Moduli (GPa) = 142.08561 87.79815 111.96695
#
# Poissons Ratio (x) = 0.12722 0.39903
# Poissons Ratio (y) = 0.20588 0.04066
# Poissons Ratio (z) = 0.50637 0.03188
#
# Static dielectric constant tensor:
#      x y z
#    x 1.682410 0.000000 0.000000 
#    y 0.000000 1.805610 0.000000 
#    z 0.000000 0.000000 1.694460 
# 
# From -- ./inp_files/65115.got.cif
#   From: 2010.05.17/outbox.cif.g08.bks.cpg/sg71_33_cif.got.tgz:65115.got - 2010.06.03 16:22:01.
