data_PCOD9523396
_publ_section_title
;
Structure prediction by ZEFSAII (Michael W. Deem and Ramdas Pophale) SiO2 
 PCOD9523396
Probable space group: I M M M
;
_chemical_formula_sum "Si O2"
_cell_formula_units_Z 104
_cell_length_a 9.128612
_cell_length_b 29.512284
_cell_length_c 20.522251
_cell_angle_alpha 90.000000
_cell_angle_beta 90.000000
_cell_angle_gamma 90.000000
_cell_volume 5528.821449
_symmetry_space_group_name_H-M "I M M M"
_symmetry_group_IT_number 71
_symmetry_cell_setting 'orthorhombic'
loop_
_space_group_symop_operation_xyz
x,y,z
-x,-y,z
x,-y,-z
-x,y,-z
-x,-y,-z
x,y,-z
-x,y,z
x,-y,z
1/2+x,1/2+y,1/2+z
1/2-x,1/2-y,1/2+z
1/2+x,1/2-y,1/2-z
1/2-x,1/2+y,1/2-z
1/2-x,1/2-y,1/2-z
1/2+x,1/2+y,1/2-z
1/2-x,1/2+y,1/2+z
1/2+x,1/2-y,1/2+z
loop_
_atom_site_type_symbol
_atom_site_label
_atom_site_fract_x
_atom_site_fract_y
_atom_site_fract_z
Si Si1 0.325775 0.698728 0.326365
Si Si2 0.671422 0.860085 0.573534
Si Si3 0.332069 0.446631 0.266255
Si Si4 0.674756 0.110186 0.126995
Si Si5 0.678160 0.947602 0.000000
Si Si6 0.673749 0.295023 0.173966
Si Si7 0.828642 0.947695 0.389571
O O1 0.500000 0.700049 0.336633
O O2 0.252501 0.658743 0.367495
O O3 0.298554 0.690569 0.248986
O O4 0.254914 0.747627 0.339392
O O5 0.693497 0.842914 0.500000
O O6 0.500000 0.856723 0.589557
O O7 0.765748 0.832222 0.624949
O O8 0.724776 0.911779 0.576959
O O9 0.500000 0.432547 0.281109
O O10 0.317630 0.500000 0.281662
O O11 0.222203 0.417652 0.309000
O O12 0.312107 0.442183 0.188697
O O13 0.500000 0.116064 0.124671
O O14 0.721438 0.080343 0.064427
O O15 0.500000 0.949254 0.000000
O O16 0.729488 0.000000 0.000000
O O17 0.500000 0.289134 0.166817
O O18 0.000000 0.938883 0.405028
O O19 0.797898 0.000000 0.405720
#
# Coordination Sequence:
#
# PCOD9523396 Si02
#       7
#    16  16  16  16   8  16  16
#     4  10  21  38  61  88 117 143 176 230 290 340
#     4  11  24  39  55  80 115 152 187 226 277 329
#     4   9  18  33  53  79 111 143 179 230 288 337
#     4  11  21  34  55  82 110 147 193 235 281 338
#     4   9  20  38  55  75 111 155 197 241 282 329
#     4  10  21  39  63  88 112 145 187 229 278 339
#     4   9  19  36  57  81 110 146 188 232 277 329
#
# _framework density 18.810518999999999
#
# number of rings (size 3 to 8) (size 9 to 14) (size 15 to 20)
#    0.000    2.077    0.000    4.154    0.000    8.923 
#    1.385    4.615    0.000    2.769    0.000    0.000 
#    0.000    0.000    0.000    0.000    0.000    0.000 
#
# Total GULP energy -290478.735698 kJ/mol
# GULP energy per Si atom -5586.129533 kJ/mol
# Density = 1.876771 g / cm^3
# Si number density = 18.810519 Si / 1000 Ang^3
#
#
#
# Elastic Constant Matrix: (Units=GPa)
#
#
# Indices 1 2 3 4 5 6 
#
# 1 60.8388 48.1452 33.3675 0.0000 0.0000 0.0000
# 2 48.1452 98.7185 46.2873 0.0000 0.0000 0.0000
# 3 33.3675 46.2873 38.1587 -0.0001 0.0000 0.0000
# 4 0.0000 0.0000 -0.0001 20.8224 0.0000 0.0000
# 5 0.0000 0.0000 0.0000 0.0000 14.0725 0.0000
# 6 0.0000 0.0000 0.0000 0.0000 0.0000 36.4890
#
#
#
# Elastic Compliance Matrix: (Units=1/GPa)
#
#
# Indices 1 2 3 4 5 6 
#
# 1 0.033026 -0.005950 -0.021662 0.000000 0.000000 0.000000
# 2 -0.005950 0.024562 -0.024591 0.000000 0.000000 0.000000
# 3 -0.021662 -0.024591 0.074978 0.000000 0.000000 0.000000
# 4 0.000000 0.000000 0.000000 0.048025 0.000000 0.000000
# 5 0.000000 0.000000 0.000000 0.000000 0.071061 0.000000
# 6 0.000000 0.000000 0.000000 0.000000 0.000000 0.027406
#
#
# Mechanical properties :
#
#
# Convention : Reuss Voigt Hill
#
# Bulk Modulus (GPa) = 35.51153 50.36844 42.93999
# Shear Modulus (GPa) = 12.72749 18.93784 15.83266
#
# Velocity S-wave (km/s) = 2.60401 3.17640 2.90434
# Velocity P-wave (km/s) = 5.28778 6.34725 5.84159
#
# Compressibility (1/GPa) = 0.02815986
#
# Stress axis : x y z
#
# Youngs Moduli (GPa) = 30.27915 40.71305 13.33725
#
# Poissons Ratio (x) = 0.24225 0.28891
# Poissons Ratio (y) = 0.18016 0.32798
# Poissons Ratio (z) = 0.65590 1.00119
#
# Static dielectric constant tensor:
#      x y z
#    x 1.626130 0.000000 0.000000 
#    y 0.000000 1.645330 0.000000 
#    z 0.000000 0.000000 1.646130 
# 
# From -- ./inp_files/11162.got.cif
#   From: 2010.05.17/outbox.cif.g08.bks.cpg/sg71_6_cif.got.tgz:11162.got - 2010.06.03 16:22:01.
