data_PCOD9523970
_publ_section_title
;
Structure prediction by ZEFSAII (Michael W. Deem and Ramdas Pophale) SiO2 
 PCOD9523970
Probable space group: I M M M
;
_chemical_formula_sum "Si O2"
_cell_formula_units_Z 58
_cell_length_a 19.620577
_cell_length_b 8.296934
_cell_length_c 16.758458
_cell_angle_alpha 90.000000
_cell_angle_beta 90.000000
_cell_angle_gamma 90.000000
_cell_volume 2728.119976
_symmetry_space_group_name_H-M "I M M M"
_symmetry_group_IT_number 71
_symmetry_cell_setting 'orthorhombic'
loop_
_space_group_symop_operation_xyz
x,y,z
-x,-y,z
x,-y,-z
-x,y,-z
-x,-y,-z
x,y,-z
-x,y,z
x,-y,z
1/2+x,1/2+y,1/2+z
1/2-x,1/2-y,1/2+z
1/2+x,1/2-y,1/2-z
1/2-x,1/2+y,1/2-z
1/2-x,1/2-y,1/2-z
1/2+x,1/2+y,1/2-z
1/2-x,1/2+y,1/2+z
1/2+x,1/2-y,1/2+z
loop_
_atom_site_type_symbol
_atom_site_label
_atom_site_fract_x
_atom_site_fract_y
_atom_site_fract_z
Si Si1 0.398987 0.314402 0.000000
Si Si2 0.077781 0.690505 0.801231
Si Si3 0.322350 0.683909 0.832243
Si Si4 0.500000 0.000000 0.000000
Si Si5 0.809714 0.809596 0.090179
O O1 0.354681 0.309088 0.920137
O O2 0.428807 0.500000 0.000000
O O3 0.442544 0.148767 0.000000
O O4 0.075766 0.500000 0.814988
O O5 0.126111 0.722795 0.725284
O O6 0.115833 0.771234 0.875597
O O7 0.000000 0.747529 0.787987
O O8 0.320587 0.500000 0.803123
O O9 0.245640 0.742893 0.847113
O O10 0.799566 0.000000 0.086734
O O11 0.800891 0.743812 0.000000
#
# Coordination Sequence:
#
# PCOD9523970 Si02
#       5
#     8  16  16   2  16
#     4  10  25  41  63 100 134 184 231 275 344 405
#     4  11  26  44  66  96 132 175 221 270 337 407
#     4  11  23  42  67  96 134 171 220 280 330 398
#     4  12  26  36  68  90 148 184 218 292 328 422
#     4  11  24  43  70  98 129 171 223 275 335 401
#
# _framework density 21.260062999999999
#
# number of rings (size 3 to 8) (size 9 to 14) (size 15 to 20)
#    0.000    1.103    1.379    3.517    5.793    4.414 
#    0.000    2.759    0.000    0.000    0.000    0.000 
#    0.000    0.000    0.000    0.000    0.000    0.000 
#
# Total GULP energy -161716.773931 kJ/mol
# GULP energy per Si atom -5576.440480 kJ/mol
# Density = 2.121167 g / cm^3
# Si number density = 21.260063 Si / 1000 Ang^3
#
#
#
# Elastic Constant Matrix: (Units=GPa)
#
#
# Indices 1 2 3 4 5 6 
#
# 1 139.4125 18.5357 29.6661 0.0000 0.0000 0.0000
# 2 18.5357 85.7543 -18.9676 0.0000 0.0000 0.0000
# 3 29.6661 -18.9676 69.5922 0.0000 0.0000 0.0000
# 4 0.0000 0.0000 0.0000 28.5777 0.0000 0.0000
# 5 0.0000 0.0000 0.0000 0.0000 52.1498 0.0000
# 6 0.0000 0.0000 0.0000 0.0000 0.0000 36.9816
#
#
#
# Elastic Compliance Matrix: (Units=1/GPa)
#
#
# Indices 1 2 3 4 5 6 
#
# 1 0.008477 -0.002800 -0.004377 0.000000 0.000000 0.000000
# 2 -0.002800 0.013334 0.004828 0.000000 0.000000 0.000000
# 3 -0.004377 0.004828 0.017551 0.000000 0.000000 0.000000
# 4 0.000000 0.000000 0.000000 0.034992 0.000000 0.000000
# 5 0.000000 0.000000 0.000000 0.000000 0.019176 0.000000
# 6 0.000000 0.000000 0.000000 0.000000 0.000000 0.027041
#
#
# Mechanical properties :
#
#
# Convention : Reuss Voigt Hill
#
# Bulk Modulus (GPa) = 28.84814 39.24747 34.04780
# Shear Modulus (GPa) = 36.54357 41.24345 38.89351
#
# Velocity S-wave (km/s) = 4.15044 4.40926 4.28181
# Velocity P-wave (km/s) = 6.04705 6.66505 6.36356
#
# Compressibility (1/GPa) = 0.03466428
#
# Stress axis : x y z
#
# Youngs Moduli (GPa) = 117.97184 74.99404 56.97667
#
# Poissons Ratio (x) = 0.21000 0.24937
# Poissons Ratio (y) = 0.33035 -0.27509
# Poissons Ratio (z) = 0.51632 -0.36208
#
# Static dielectric constant tensor:
#      x y z
#    x 1.782310 0.000000 0.000000 
#    y 0.000000 1.756510 0.000000 
#    z 0.000000 0.000000 1.789070 
# 
# From -- ./inp_files/7288.got.cif
#   From: 2010.05.17/outbox.cif.g08.bks.cpg/sg71_4_cif.got.tgz:7288.got - 2010.06.03 16:22:01.
