data_PCOD9523064
_publ_section_title
;
Structure prediction by ZEFSAII (Michael W. Deem and Ramdas Pophale) SiO2 
 PCOD9523064
Probable space group: I M M M
;
_chemical_formula_sum "Si O2"
_cell_formula_units_Z 90
_cell_length_a 9.041450
_cell_length_b 23.119681
_cell_length_c 22.455298
_cell_angle_alpha 90.000000
_cell_angle_beta 90.000000
_cell_angle_gamma 90.000000
_cell_volume 4693.953093
_symmetry_space_group_name_H-M "I M M M"
_symmetry_group_IT_number 71
_symmetry_cell_setting 'orthorhombic'
loop_
_space_group_symop_operation_xyz
x,y,z
-x,-y,z
x,-y,-z
-x,y,-z
-x,-y,-z
x,y,-z
-x,y,z
x,-y,z
1/2+x,1/2+y,1/2+z
1/2-x,1/2-y,1/2+z
1/2+x,1/2-y,1/2-z
1/2-x,1/2+y,1/2-z
1/2-x,1/2-y,1/2-z
1/2+x,1/2+y,1/2-z
1/2-x,1/2+y,1/2+z
1/2+x,1/2-y,1/2+z
loop_
_atom_site_type_symbol
_atom_site_label
_atom_site_fract_x
_atom_site_fract_y
_atom_site_fract_z
Si Si1 0.325554 0.885857 0.826512
Si Si2 0.824675 0.280366 0.000000
Si Si3 0.831175 0.437900 0.887445
Si Si4 0.663109 0.500000 0.625805
Si Si5 0.324975 0.831140 0.298337
Si Si6 0.173758 0.738170 0.620385
Si Si7 0.500000 0.500000 0.500000
Si Si8 0.328829 0.597404 0.000000
O O1 0.500000 0.899437 0.819117
O O2 0.271720 0.859890 0.763174
O O3 0.311251 0.830123 0.868851
O O4 0.245580 0.942109 0.852304
O O5 0.757477 0.254001 0.939992
O O6 0.774403 0.346502 0.000000
O O7 0.000000 0.274786 0.000000
O O8 0.818537 0.500000 0.855244
O O9 0.811351 0.382512 0.846337
O O10 0.000000 0.434950 0.911279
O O11 0.715879 0.435840 0.940706
O O12 0.500000 0.500000 0.654494
O O13 0.627373 0.500000 0.554549
O O14 0.500000 0.816645 0.291374
O O15 0.240390 0.775915 0.325093
O O16 0.000000 0.752235 0.615320
O O17 0.500000 0.613548 0.000000
#
# Coordination Sequence:
#
# PCOD9523064 Si02
#       8
#    16   8  16   8  16  16   2   8
#     4  10  23  42  67  98 131 170 211 258 325 400
#     4  12  24  40  62  86 117 166 217 266 323 387
#     4  10  21  36  57  85 118 164 212 254 305 369
#     4  10  23  45  71  97 131 167 213 270 327 383
#     4  10  21  38  63  92 129 172 214 254 311 388
#     4  11  23  40  62  95 131 165 212 268 328 381
#     4   8  24  48  70  96 136 160 214 282 342 392
#     4  12  23  37  57  82 119 161 208 269 318 367
#
# _framework density 19.173604999999998
#
# number of rings (size 3 to 8) (size 9 to 14) (size 15 to 20)
#    0.267    1.244    1.778    3.200    1.244    4.267 
#    1.600    1.778    0.000    0.000    0.000    0.000 
#    0.000    0.000    0.000    0.000    0.000    0.000 
#
# Total GULP energy -250863.860400 kJ/mol
# GULP energy per Si atom -5574.752453 kJ/mol
# Density = 1.912996 g / cm^3
# Si number density = 19.173605 Si / 1000 Ang^3
#
#
#
# Elastic Constant Matrix: (Units=GPa)
#
#
# Indices 1 2 3 4 5 6 
#
# 1 104.3192 68.4308 52.6249 0.0000 0.0000 0.0000
# 2 68.4308 113.3844 43.4473 0.0000 0.0000 0.0000
# 3 52.6249 43.4473 106.4653 0.0000 0.0000 0.0000
# 4 0.0000 0.0000 0.0000 5.6702 0.0000 0.0000
# 5 0.0000 0.0000 0.0000 0.0000 28.4734 0.0000
# 6 0.0000 0.0000 0.0000 0.0000 0.0000 28.4122
#
#
#
# Elastic Compliance Matrix: (Units=1/GPa)
#
#
# Indices 1 2 3 4 5 6 
#
# 1 0.018097 -0.008884 -0.005320 0.000000 0.000000 0.000000
# 2 -0.008884 0.014815 -0.001655 0.000000 0.000000 0.000000
# 3 -0.005320 -0.001655 0.012698 0.000000 0.000000 0.000000
# 4 0.000000 0.000000 0.000000 0.176360 0.000000 0.000000
# 5 0.000000 0.000000 0.000000 0.000000 0.035120 0.000000
# 6 0.000000 0.000000 0.000000 0.000000 0.000000 0.035196
#
#
# Mechanical properties :
#
#
# Convention : Reuss Voigt Hill
#
# Bulk Modulus (GPa) = 71.97770 72.57498 72.27634
# Shear Modulus (GPa) = 15.21450 23.15557 19.18503
#
# Velocity S-wave (km/s) = 2.81999 3.47894 3.16665
# Velocity P-wave (km/s) = 6.94440 7.35330 7.15177
#
# Compressibility (1/GPa) = 0.01389319
#
# Stress axis : x y z
#
# Youngs Moduli (GPa) = 55.25764 67.49843 78.75474
#
# Poissons Ratio (x) = 0.59963 0.41897
# Poissons Ratio (y) = 0.49089 0.13033
# Poissons Ratio (z) = 0.29397 0.11170
#
# Static dielectric constant tensor:
#      x y z
#    x 1.658230 0.000000 0.000000 
#    y 0.000000 1.664670 0.000000 
#    z 0.000000 0.000000 1.697470 
# 
# From -- ./inp_files/50658.got.cif
#   From: 2010.05.17/outbox.cif.g08.bks.cpg/sg71_26_cif.got.tgz:50658.got - 2010.06.03 16:22:01.
