data_PCOD9523775
_publ_section_title
;
Structure prediction by ZEFSAII (Michael W. Deem and Ramdas Pophale) SiO2 
 PCOD9523775
Probable space group: I M M M
;
_chemical_formula_sum "Si O2"
_cell_formula_units_Z 80
_cell_length_a 8.710040
_cell_length_b 18.808618
_cell_length_c 25.232764
_cell_angle_alpha 90.000000
_cell_angle_beta 90.000000
_cell_angle_gamma 90.000000
_cell_volume 4133.727665
_symmetry_space_group_name_H-M "I M M M"
_symmetry_group_IT_number 71
_symmetry_cell_setting 'orthorhombic'
loop_
_space_group_symop_operation_xyz
x,y,z
-x,-y,z
x,-y,-z
-x,y,-z
-x,-y,-z
x,y,-z
-x,y,z
x,-y,z
1/2+x,1/2+y,1/2+z
1/2-x,1/2-y,1/2+z
1/2+x,1/2-y,1/2-z
1/2-x,1/2+y,1/2-z
1/2-x,1/2-y,1/2-z
1/2+x,1/2+y,1/2-z
1/2-x,1/2+y,1/2+z
1/2+x,1/2-y,1/2+z
loop_
_atom_site_type_symbol
_atom_site_label
_atom_site_fract_x
_atom_site_fract_y
_atom_site_fract_z
Si Si1 0.182359 0.832398 0.093882
Si Si2 0.818232 0.682884 0.216961
Si Si3 0.684091 0.417613 0.300162
Si Si4 0.312742 0.417489 0.000000
Si Si5 0.324535 0.915878 0.000000
Si Si6 0.183339 0.819695 0.401176
O O1 0.221997 0.865969 0.150813
O O2 0.269026 0.759497 0.081790
O O3 0.000000 0.820033 0.092568
O O4 0.233884 0.888718 0.050705
O O5 0.750000 0.750000 0.250000
O O6 0.771768 0.613133 0.249830
O O7 0.754159 0.674327 0.157578
O O8 0.000000 0.692969 0.214353
O O9 0.500000 0.412947 0.291531
O O10 0.720698 0.500000 0.311478
O O11 0.264749 0.375388 0.053460
O O12 0.263995 0.500000 0.000000
O O13 0.500000 0.416660 0.000000
O O14 0.500000 0.888393 0.000000
O O15 0.330369 0.000000 0.000000
O O16 0.000000 0.825454 0.396711
#
# Coordination Sequence:
#
# PCOD9523775 Si02
#       6
#    16  16  16   8   8  16
#     4  11  22  38  62  89 121 161 207 258 313 378
#     4  12  24  40  63  92 127 169 215 263 319 381
#     4  10  22  40  62  90 124 163 206 258 321 382
#     4   9  21  42  66  94 128 167 214 265 320 382
#     4  11  24  39  56  82 120 163 206 253 306 366
#     4  11  22  39  67  97 125 163 211 265 321 380
#
# _framework density 19.352993000000001
#
# number of rings (size 3 to 8) (size 9 to 14) (size 15 to 20)
#    0.000    1.200    2.000    4.500    0.000    4.400 
#    0.000    3.500    0.000    4.200    0.000    0.000 
#    0.000    0.000    0.000    0.000    0.000    0.000 
#
# Total GULP energy -223529.802421 kJ/mol
# GULP energy per Si atom -5588.245061 kJ/mol
# Density = 1.930894 g / cm^3
# Si number density = 19.352993 Si / 1000 Ang^3
#
#
#
# Elastic Constant Matrix: (Units=GPa)
#
#
# Indices 1 2 3 4 5 6 
#
# 1 48.5825 39.1592 43.7525 0.0000 0.0000 0.0000
# 2 39.1592 132.3850 64.3174 0.0000 0.0000 0.0000
# 3 43.7525 64.3174 143.7584 0.0000 0.0000 0.0000
# 4 0.0000 0.0000 0.0000 -2.6294 0.0000 0.0000
# 5 0.0000 0.0000 0.0000 0.0000 30.9948 0.0000
# 6 0.0000 0.0000 0.0000 0.0000 0.0000 22.2843
#
#
#
# Elastic Compliance Matrix: (Units=1/GPa)
#
#
# Indices 1 2 3 4 5 6 
#
# 1 0.031681 -0.005988 -0.006963 0.000000 0.000000 0.000000
# 2 -0.005988 0.010784 -0.003002 0.000000 0.000000 0.000000
# 3 -0.006963 -0.003002 0.010418 0.000000 0.000000 0.000000
# 4 0.000000 0.000000 0.000000 -0.380318 0.000000 0.000000
# 5 0.000000 0.000000 0.000000 0.000000 0.032263 0.000000
# 6 0.000000 0.000000 0.000000 0.000000 0.000000 0.044875
#
#
# Mechanical properties :
#
#
# Convention : Reuss Voigt Hill
#
# Bulk Modulus (GPa) = 47.67256 68.79824 58.23540
# Shear Modulus (GPa) = -23.65200 21.96308 -0.84446
#
# Velocity S-wave (km/s) = -3.49970 3.37243 -0.66128
# Velocity P-wave (km/s) = 2.89070 7.12676 5.43815
#
# Compressibility (1/GPa) = 0.02097643
#
# Stress axis : x y z
#
# Youngs Moduli (GPa) = 31.56474 92.73374 95.98469
#
# Poissons Ratio (x) = 0.55532 0.66832
# Poissons Ratio (y) = 0.18902 0.28815
# Poissons Ratio (z) = 0.21978 0.27839
#
# Static dielectric constant tensor:
#      x y z
#    x 1.662700 0.000000 0.000000 
#    y 0.000000 1.675130 0.000000 
#    z 0.000000 0.000000 1.677540 
# 
# From -- ./inp_files/63072.got.cif
#   From: 2010.05.17/outbox.cif.g08.bks.cpg/sg71_32_cif.got.tgz:63072.got - 2010.06.03 16:22:01.
