data_PCOD9523618
_publ_section_title
;
Structure prediction by ZEFSAII (Michael W. Deem and Ramdas Pophale) SiO2 
 PCOD9523618
Probable space group: I M M M
;
_chemical_formula_sum "Si O2"
_cell_formula_units_Z 120
_cell_length_a 24.240678
_cell_length_b 14.110191
_cell_length_c 18.849427
_cell_angle_alpha 90.000000
_cell_angle_beta 90.000000
_cell_angle_gamma 90.000000
_cell_volume 6447.269256
_symmetry_space_group_name_H-M "I M M M"
_symmetry_group_IT_number 71
_symmetry_cell_setting 'orthorhombic'
loop_
_space_group_symop_operation_xyz
x,y,z
-x,-y,z
x,-y,-z
-x,y,-z
-x,-y,-z
x,y,-z
-x,y,z
x,-y,z
1/2+x,1/2+y,1/2+z
1/2-x,1/2-y,1/2+z
1/2+x,1/2-y,1/2-z
1/2-x,1/2+y,1/2-z
1/2-x,1/2-y,1/2-z
1/2+x,1/2+y,1/2-z
1/2-x,1/2+y,1/2+z
1/2+x,1/2-y,1/2+z
loop_
_atom_site_type_symbol
_atom_site_label
_atom_site_fract_x
_atom_site_fract_y
_atom_site_fract_z
Si Si1 0.713632 0.384876 0.159145
Si Si2 0.440238 0.201764 0.584423
Si Si3 0.500000 0.609455 0.086144
Si Si4 0.283296 0.614626 0.322427
Si Si5 0.612448 0.282167 0.914826
Si Si6 0.838045 0.387290 0.835433
Si Si7 0.887608 0.107948 0.083793
Si Si8 0.158955 0.612816 0.333084
O O1 0.711273 0.500000 0.155990
O O2 0.706124 0.354567 0.241575
O O3 0.665289 0.342230 0.111788
O O4 0.776607 0.355020 0.141765
O O5 0.436988 0.185097 0.500000
O O6 0.500000 0.167776 0.609895
O O7 0.388359 0.155465 0.621872
O O8 0.434324 0.314585 0.595954
O O9 0.500000 0.500000 0.110938
O O10 0.555910 0.664479 0.106838
O O11 0.500000 0.606796 0.000000
O O12 0.281154 0.500000 0.319343
O O13 0.333627 0.639079 0.372962
O O14 0.222594 0.641496 0.349233
O O15 0.619158 0.180033 0.877667
O O16 0.613173 0.273679 0.000000
O O17 0.838281 0.500000 0.845230
O O18 0.845962 0.370736 0.751375
O O19 0.902051 0.000000 0.103676
O O20 0.874805 0.108606 0.000000
O O21 0.151858 0.500000 0.346304
#
# Coordination Sequence:
#
# PCOD9523618 Si02
#       8
#    16  16   8  16  16  16  16  16
#     4   9  19  35  57  85 113 142 181 230 279 332
#     4  10  22  37  54  79 111 148 188 231 280 329
#     4   9  20  42  63  79 111 149 179 220 276 342
#     4   8  16  32  54  79 111 149 181 219 281 336
#     4  11  23  36  58  87 111 148 190 225 281 339
#     4   9  20  39  59  80 110 147 186 231 284 333
#     4   9  18  32  52  79 111 149 190 226 266 325
#     4   9  20  38  57  82 115 149 185 227 279 337
#
# _framework density 18.612531000000001
#
# number of rings (size 3 to 8) (size 9 to 14) (size 15 to 20)
#    0.000    2.733    0.000    2.000    3.733    4.000 
#    1.200    5.000    0.000    1.200    0.000    0.000 
#    0.000    0.000    0.000    0.000    0.000    0.000 
#
# Total GULP energy -334676.752183 kJ/mol
# GULP energy per Si atom -5577.945870 kJ/mol
# Density = 1.857017 g / cm^3
# Si number density = 18.612531 Si / 1000 Ang^3
#
#
#
# Elastic Constant Matrix: (Units=GPa)
#
#
# Indices 1 2 3 4 5 6 
#
# 1 152.0287 65.7652 58.0283 0.0000 0.0000 0.0000
# 2 65.7652 87.2799 39.9882 0.0000 0.0000 0.0000
# 3 58.0283 39.9882 33.7740 0.0000 0.0000 0.0000
# 4 0.0000 0.0000 0.0000 30.3114 0.0000 0.0000
# 5 0.0000 0.0000 0.0000 0.0000 52.3366 0.0000
# 6 0.0000 0.0000 0.0000 0.0000 0.0000 11.8807
#
#
#
# Elastic Compliance Matrix: (Units=1/GPa)
#
#
# Indices 1 2 3 4 5 6 
#
# 1 0.019190 0.001413 -0.034643 0.000000 0.000000 0.000000
# 2 0.001413 0.025145 -0.032199 0.000000 0.000000 0.000000
# 3 -0.034643 -0.032199 0.127253 0.000000 0.000000 0.000000
# 4 0.000000 0.000000 0.000000 0.032991 0.000000 0.000000
# 5 0.000000 0.000000 0.000000 0.000000 0.019107 0.000000
# 6 0.000000 0.000000 0.000000 0.000000 0.000000 0.084170
#
#
# Mechanical properties :
#
#
# Convention : Reuss Voigt Hill
#
# Bulk Modulus (GPa) = 24.55222 66.73846 45.64534
# Shear Modulus (GPa) = 11.05485 26.19247 18.62366
#
# Velocity S-wave (km/s) = 2.43975 3.75540 3.16665
# Velocity P-wave (km/s) = 4.59960 7.39856 6.16015
#
# Compressibility (1/GPa) = 0.04072952
#
# Stress axis : x y z
#
# Youngs Moduli (GPa) = 52.11174 39.76901 7.85837
#
# Poissons Ratio (x) = -0.05618 0.27224
# Poissons Ratio (y) = -0.07362 0.25303
# Poissons Ratio (z) = 1.80530 1.28052
#
# Static dielectric constant tensor:
#      x y z
#    x 1.625560 0.000000 0.000000 
#    y 0.000000 1.695250 0.000000 
#    z 0.000000 0.000000 1.614390 
# 
# From -- ./inp_files/55151.got.cif
#   From: 2010.05.17/outbox.cif.g08.bks.cpg/sg71_28_cif.got.tgz:55151.got - 2010.06.03 16:22:01.
