data_PCOD9523791
_publ_section_title
;
Structure prediction by ZEFSAII (Michael W. Deem and Ramdas Pophale) SiO2 
 PCOD9523791
Probable space group: I M M M
;
_chemical_formula_sum "Si O2"
_cell_formula_units_Z 66
_cell_length_a 27.269235
_cell_length_b 16.646314
_cell_length_c 7.670593
_cell_angle_alpha 90.000000
_cell_angle_beta 90.000000
_cell_angle_gamma 90.000000
_cell_volume 3481.929527
_symmetry_space_group_name_H-M "I M M M"
_symmetry_group_IT_number 71
_symmetry_cell_setting 'orthorhombic'
loop_
_space_group_symop_operation_xyz
x,y,z
-x,-y,z
x,-y,-z
-x,y,-z
-x,-y,-z
x,y,-z
-x,y,z
x,-y,z
1/2+x,1/2+y,1/2+z
1/2-x,1/2-y,1/2+z
1/2+x,1/2-y,1/2-z
1/2-x,1/2+y,1/2-z
1/2-x,1/2-y,1/2-z
1/2+x,1/2+y,1/2-z
1/2-x,1/2+y,1/2+z
1/2+x,1/2-y,1/2+z
loop_
_atom_site_type_symbol
_atom_site_label
_atom_site_fract_x
_atom_site_fract_y
_atom_site_fract_z
Si Si1 0.637894 0.408228 0.210347
Si Si2 0.000000 0.500000 0.500000
Si Si3 0.181966 0.592977 0.500000
Si Si4 0.445136 0.718818 0.697400
Si Si5 0.253652 0.655755 0.207372
Si Si6 0.926735 0.345510 0.500000
O O1 0.631780 0.500000 0.270895
O O2 0.596115 0.348371 0.275803
O O3 0.692158 0.376274 0.254493
O O4 0.634987 0.407916 0.000000
O O5 0.957257 0.427983 0.500000
O O6 0.169759 0.500000 0.500000
O O7 0.213980 0.613460 0.329664
O O8 0.131494 0.641132 0.500000
O O9 0.441481 0.749551 0.500000
O O10 0.500000 0.684337 0.721991
O O11 0.439038 0.791003 0.832643
O O12 0.250000 0.750000 0.250000
O O13 0.246066 0.642820 0.000000
#
# Coordination Sequence:
#
# PCOD9523791 Si02
#       6
#    16   2   8  16  16   8
#     4  10  22  40  64  95 135 181 222 268 326 386
#     4  12  24  48  82  92 134 174 212 288 348 380
#     4  12  26  40  66  99 129 167 217 264 327 393
#     4  11  24  42  68  97 130 173 219 271 328 395
#     4  11  23  42  64  94 132 175 219 269 322 388
#     4  12  24  48  71  99 128 171 218 276 339 401
#
# _framework density 18.955006000000001
#
# number of rings (size 3 to 8) (size 9 to 14) (size 15 to 20)
#    0.000    0.970    4.242    2.182    1.697    5.333 
#    0.000    3.636    0.000    0.000    0.000    0.000 
#    0.000    0.000    0.000    0.000    0.000    0.000 
#
# Total GULP energy -184204.192682 kJ/mol
# GULP energy per Si atom -5581.945233 kJ/mol
# Density = 1.891186 g / cm^3
# Si number density = 18.955006 Si / 1000 Ang^3
#
#
#
# Elastic Constant Matrix: (Units=GPa)
#
#
# Indices 1 2 3 4 5 6 
#
# 1 173.9192 57.6365 71.6341 0.0000 0.0000 0.0000
# 2 57.6365 126.1397 48.7073 0.0000 0.0000 0.0000
# 3 71.6341 48.7073 108.7459 0.0000 0.0000 0.0000
# 4 0.0000 0.0000 0.0000 12.2106 0.0000 0.0000
# 5 0.0000 0.0000 0.0000 0.0000 29.3467 0.0000
# 6 0.0000 0.0000 0.0000 0.0000 0.0000 41.7023
#
#
#
# Elastic Compliance Matrix: (Units=1/GPa)
#
#
# Indices 1 2 3 4 5 6 
#
# 1 0.008301 -0.002033 -0.004557 0.000000 0.000000 0.000000
# 2 -0.002033 0.010083 -0.003177 0.000000 0.000000 0.000000
# 3 -0.004557 -0.003177 0.013621 0.000000 0.000000 0.000000
# 4 0.000000 0.000000 0.000000 0.081896 0.000000 0.000000
# 5 0.000000 0.000000 0.000000 0.000000 0.034075 0.000000
# 6 0.000000 0.000000 0.000000 0.000000 0.000000 0.023979
#
#
# Mechanical properties :
#
#
# Convention : Reuss Voigt Hill
#
# Bulk Modulus (GPa) = 80.19269 84.97342 82.58305
# Shear Modulus (GPa) = 25.55621 32.04039 28.79830
#
# Velocity S-wave (km/s) = 3.67584 4.11583 3.90205
# Velocity P-wave (km/s) = 7.77268 8.21664 7.99774
#
# Compressibility (1/GPa) = 0.01246996
#
# Stress axis : x y z
#
# Youngs Moduli (GPa) = 120.47343 99.17194 73.41712
#
# Poissons Ratio (x) = 0.20162 0.33458
# Poissons Ratio (y) = 0.24493 0.23326
# Poissons Ratio (z) = 0.54903 0.31509
#
# Static dielectric constant tensor:
#      x y z
#    x 1.583800 0.000000 0.000000 
#    y 0.000000 1.648470 0.000000 
#    z 0.000000 0.000000 1.656850 
# 
# From -- ./inp_files/14216.got.cif
#   From: 2010.05.17/outbox.cif.g08.bks.cpg/sg71_8_cif.got.tgz:14216.got - 2010.06.03 16:22:01.
