data_PCOD9523131
_publ_section_title
;
Structure prediction by ZEFSAII (Michael W. Deem and Ramdas Pophale) SiO2 
 PCOD9523131
Probable space group: I M M M
;
_chemical_formula_sum "Si O2"
_cell_formula_units_Z 88
_cell_length_a 9.126044
_cell_length_b 19.295804
_cell_length_c 28.420836
_cell_angle_alpha 90.000000
_cell_angle_beta 90.000000
_cell_angle_gamma 90.000000
_cell_volume 5004.748821
_symmetry_space_group_name_H-M "I M M M"
_symmetry_group_IT_number 71
_symmetry_cell_setting 'orthorhombic'
loop_
_space_group_symop_operation_xyz
x,y,z
-x,-y,z
x,-y,-z
-x,y,-z
-x,-y,-z
x,y,-z
-x,y,z
x,-y,z
1/2+x,1/2+y,1/2+z
1/2-x,1/2-y,1/2+z
1/2+x,1/2-y,1/2-z
1/2-x,1/2+y,1/2-z
1/2-x,1/2-y,1/2-z
1/2+x,1/2+y,1/2-z
1/2-x,1/2+y,1/2+z
1/2+x,1/2-y,1/2+z
loop_
_atom_site_type_symbol
_atom_site_label
_atom_site_fract_x
_atom_site_fract_y
_atom_site_fract_z
Si Si1 0.823962 0.658503 0.586697
Si Si2 0.824692 0.581331 0.316980
Si Si3 0.829192 0.917132 0.000000
Si Si4 0.168336 0.915716 0.721176
Si Si5 0.324434 0.080049 0.625159
Si Si6 0.675767 0.798178 0.555367
O O1 0.785918 0.625892 0.637297
O O2 0.751188 0.612742 0.545725
O O3 0.760759 0.735140 0.579481
O O4 0.000000 0.657867 0.581870
O O5 0.787013 0.500000 0.325064
O O6 0.746944 0.605879 0.269310
O O7 0.000000 0.584603 0.310394
O O8 0.000000 0.895095 0.000000
O O9 0.823297 0.000000 0.000000
O O10 0.250124 0.894901 0.673454
O O11 0.000000 0.893426 0.720467
O O12 0.172304 0.000000 0.721450
O O13 0.500000 0.080897 0.631627
O O14 0.288585 0.130656 0.582221
O O15 0.280876 0.000000 0.616418
O O16 0.711729 0.800601 0.500000
O O17 0.500000 0.786988 0.559272
#
# Coordination Sequence:
#
# PCOD9523131 Si02
#       6
#    16  16   8  16  16  16
#     4  11  22  36  55  79 108 145 185 223 268 322
#     4   9  18  33  53  77 106 140 179 222 264 311
#     4  11  23  37  55  79 108 143 184 229 271 312
#     4   9  17  30  51  80 110 138 171 217 272 323
#     4   9  18  34  57  82 107 139 179 221 268 326
#     4  10  21  37  56  78 108 144 180 223 275 326
#
# _framework density 17.583300000000001
#
# number of rings (size 3 to 8) (size 9 to 14) (size 15 to 20)
#    0.000    2.273    0.909    1.909    0.000    6.182 
#    0.000    4.545    0.000    0.000    0.000    3.818 
#    0.000    0.000    0.000    0.000    0.000    0.000 
#
# Total GULP energy -245509.328464 kJ/mol
# GULP energy per Si atom -5579.757465 kJ/mol
# Density = 1.754328 g / cm^3
# Si number density = 17.583300 Si / 1000 Ang^3
#
#
#
# Elastic Constant Matrix: (Units=GPa)
#
#
# Indices 1 2 3 4 5 6 
#
# 1 44.1363 41.1848 51.3606 0.0000 0.0000 0.0000
# 2 41.1848 83.4845 66.8439 0.0000 0.0000 0.0000
# 3 51.3606 66.8439 124.5523 0.0000 0.0000 0.0000
# 4 0.0000 0.0000 0.0000 -128.7451 0.0000 0.0000
# 5 0.0000 0.0000 0.0000 0.0000 20.4841 0.0000
# 6 0.0000 0.0000 0.0000 0.0000 0.0000 19.4733
#
#
#
# Elastic Compliance Matrix: (Units=1/GPa)
#
#
# Indices 1 2 3 4 5 6 
#
# 1 0.052465 -0.015009 -0.013579 0.000000 0.000000 0.000000
# 2 -0.015009 0.025298 -0.007387 0.000000 0.000000 0.000000
# 3 -0.013579 -0.007387 0.017593 0.000000 0.000000 0.000000
# 4 0.000000 0.000000 0.000000 -0.007767 0.000000 0.000000
# 5 0.000000 0.000000 0.000000 0.000000 0.048818 0.000000
# 6 0.000000 0.000000 0.000000 0.000000 0.000000 0.051352
#
#
# Mechanical properties :
#
#
# Convention : Reuss Voigt Hill
#
# Bulk Modulus (GPa) = 42.72904 63.43908 53.08406
# Shear Modulus (GPa) = 18.69075 -11.57198 3.55939
#
# Velocity S-wave (km/s) = 3.26388 -2.56817 1.42432
# Velocity P-wave (km/s) = 6.20947 5.23101 5.74112
#
# Compressibility (1/GPa) = 0.02340329
#
# Stress axis : x y z
#
# Youngs Moduli (GPa) = 19.06037 39.52958 56.84125
#
# Poissons Ratio (x) = 0.59332 0.77187
# Poissons Ratio (y) = 0.28609 0.41990
# Poissons Ratio (z) = 0.25883 0.29201
#
# Static dielectric constant tensor:
#      x y z
#    x 1.591140 0.000000 0.000000 
#    y 0.000000 1.595310 0.000000 
#    z 0.000000 0.000000 1.572010 
# 
# From -- ./inp_files/56591.got.cif
#   From: 2010.05.17/outbox.cif.g08.bks.cpg/sg71_29_cif.got.tgz:56591.got - 2010.06.03 16:22:01.
