data_PCOD9523620
_publ_section_title
;
Structure prediction by ZEFSAII (Michael W. Deem and Ramdas Pophale) SiO2 
 PCOD9523620
Probable space group: I M M M
;
_chemical_formula_sum "Si O2"
_cell_formula_units_Z 64
_cell_length_a 20.201110
_cell_length_b 20.278035
_cell_length_c 7.574415
_cell_angle_alpha 90.000000
_cell_angle_beta 90.000000
_cell_angle_gamma 90.000000
_cell_volume 3102.774390
_symmetry_space_group_name_H-M "I M M M"
_symmetry_group_IT_number 71
_symmetry_cell_setting 'orthorhombic'
loop_
_space_group_symop_operation_xyz
x,y,z
-x,-y,z
x,-y,-z
-x,y,-z
-x,-y,-z
x,y,-z
-x,y,z
x,-y,z
1/2+x,1/2+y,1/2+z
1/2-x,1/2-y,1/2+z
1/2+x,1/2-y,1/2-z
1/2-x,1/2+y,1/2-z
1/2-x,1/2-y,1/2-z
1/2+x,1/2+y,1/2-z
1/2-x,1/2+y,1/2+z
1/2+x,1/2-y,1/2+z
loop_
_atom_site_type_symbol
_atom_site_label
_atom_site_fract_x
_atom_site_fract_y
_atom_site_fract_z
Si Si1 0.181504 0.421975 0.210160
Si Si2 0.920141 0.000000 0.800536
Si Si3 0.574130 0.646348 0.795320
Si Si4 0.575164 0.920071 0.000000
Si Si5 0.288678 0.316582 0.788546
O O1 0.193853 0.500000 0.237728
O O2 0.118161 0.402141 0.327671
O O3 0.243787 0.378197 0.269179
O O4 0.170302 0.412077 0.000000
O O5 0.904361 0.930785 0.710965
O O6 0.000000 0.000000 0.806752
O O7 0.894294 0.000000 0.000000
O O8 0.500000 0.652599 0.716960
O O9 0.636708 0.683732 0.714903
O O10 0.568126 0.665448 0.000000
O O11 0.500000 0.894408 0.000000
O O12 0.571252 0.000000 0.000000
O O13 0.250000 0.250000 0.750000
O O14 0.294689 0.323140 0.000000
#
# Coordination Sequence:
#
# PCOD9523620 Si02
#       5
#    16   8  16   8  16
#     4   9  19  36  57  84 117 151 191 236 286 343
#     4   9  17  29  47  79 115 141 173 222 279 324
#     4   9  18  34  55  78 107 146 189 228 271 330
#     4   9  18  34  58  88 115 145 190 240 293 346
#     4  10  22  37  56  80 112 151 190 232 286 341
#
# _framework density 20.6267
#
# number of rings (size 3 to 8) (size 9 to 14) (size 15 to 20)
#    0.000    2.750    0.000    0.375    3.500    3.000 
#    0.000    3.750    0.000    1.500    0.000    0.000 
#    0.000    0.000    0.000    0.000    0.000    0.000 
#
# Total GULP energy -178371.311231 kJ/mol
# GULP energy per Si atom -5574.103476 kJ/mol
# Density = 2.057975 g / cm^3
# Si number density = 20.626700 Si / 1000 Ang^3
#
#
#
# Elastic Constant Matrix: (Units=GPa)
#
#
# Indices 1 2 3 4 5 6 
#
# 1 204.2287 71.0172 37.3021 0.0000 0.0000 0.0000
# 2 71.0172 56.3918 9.7905 0.0000 0.0000 0.0000
# 3 37.3021 9.7905 69.0852 0.0000 0.0000 0.0000
# 4 0.0000 0.0000 0.0000 18.8228 0.0000 0.0000
# 5 0.0000 0.0000 0.0000 0.0000 15.8882 0.0000
# 6 0.0000 0.0000 0.0000 0.0000 0.0000 28.7090
#
#
#
# Elastic Compliance Matrix: (Units=1/GPa)
#
#
# Indices 1 2 3 4 5 6 
#
# 1 0.009475 -0.011323 -0.003511 0.000000 0.000000 0.000000
# 2 -0.011323 0.031712 0.001620 0.000000 0.000000 0.000000
# 3 -0.003511 0.001620 0.016141 0.000000 0.000000 0.000000
# 4 0.000000 0.000000 0.000000 0.053127 0.000000 0.000000
# 5 0.000000 0.000000 0.000000 0.000000 0.062940 0.000000
# 6 0.000000 0.000000 0.000000 0.000000 0.000000 0.034832
#
#
# Mechanical properties :
#
#
# Convention : Reuss Voigt Hill
#
# Bulk Modulus (GPa) = 32.36382 62.88059 47.62221
# Shear Modulus (GPa) = 20.41182 26.79041 23.60112
#
# Velocity S-wave (km/s) = 3.14918 3.60783 3.38628
# Velocity P-wave (km/s) = 5.38028 6.92145 6.19895
#
# Compressibility (1/GPa) = 0.03089870
#
# Stress axis : x y z
#
# Youngs Moduli (GPa) = 105.53836 31.53425 61.95286
#
# Poissons Ratio (x) = 0.35706 0.21754
# Poissons Ratio (y) = 1.19501 -0.10035
# Poissons Ratio (z) = 0.37059 -0.05108
#
# Static dielectric constant tensor:
#      x y z
#    x 1.786930 0.000000 0.000000 
#    y 0.000000 1.707900 0.000000 
#    z 0.000000 0.000000 1.761440 
# 
# From -- ./inp_files/9542.got.cif
#   From: 2010.05.17/outbox.cif.g08.bks.cpg/sg71_5_cif.got.tgz:9542.got - 2010.06.03 16:22:01.
