data_PCOD9523357
_publ_section_title
;
Structure prediction by ZEFSAII (Michael W. Deem and Ramdas Pophale) SiO2 
 PCOD9523357
Probable space group: I M M M
;
_chemical_formula_sum "Si O2"
_cell_formula_units_Z 88
_cell_length_a 19.784794
_cell_length_b 7.543943
_cell_length_c 25.122909
_cell_angle_alpha 90.000000
_cell_angle_beta 90.000000
_cell_angle_gamma 90.000000
_cell_volume 3749.728782
_symmetry_space_group_name_H-M "I M M M"
_symmetry_group_IT_number 71
_symmetry_cell_setting 'orthorhombic'
loop_
_space_group_symop_operation_xyz
x,y,z
-x,-y,z
x,-y,-z
-x,y,-z
-x,-y,-z
x,y,-z
-x,y,z
x,-y,z
1/2+x,1/2+y,1/2+z
1/2-x,1/2-y,1/2+z
1/2+x,1/2-y,1/2-z
1/2-x,1/2+y,1/2-z
1/2-x,1/2-y,1/2-z
1/2+x,1/2+y,1/2-z
1/2-x,1/2+y,1/2+z
1/2+x,1/2-y,1/2+z
loop_
_atom_site_type_symbol
_atom_site_label
_atom_site_fract_x
_atom_site_fract_y
_atom_site_fract_z
Si Si1 0.000000 0.298264 0.435242
Si Si2 0.927107 0.709634 0.726752
Si Si3 0.356756 0.218396 0.668608
Si Si4 0.648563 0.784466 0.939127
Si Si5 0.708990 0.297361 0.832812
Si Si6 0.921006 0.284252 0.941241
O O1 0.073052 0.219631 0.422619
O O2 0.000000 0.500000 0.413587
O O3 0.000000 0.309618 0.500000
O O4 0.934369 0.500000 0.732007
O O5 0.907884 0.777299 0.785467
O O6 0.860899 0.728732 0.690746
O O7 0.000000 0.779911 0.707438
O O8 0.281151 0.281735 0.682719
O O9 0.379443 0.275802 0.609989
O O10 0.355857 0.000000 0.668267
O O11 0.701805 0.718716 0.896511
O O12 0.646515 0.000000 0.937793
O O13 0.661533 0.731513 0.000000
O O14 0.711300 0.500000 0.816438
O O15 0.919054 0.500000 0.941111
O O16 0.000000 0.235036 0.935563
O O17 0.897421 0.225939 0.000000
#
# Coordination Sequence:
#
# PCOD9523357 Si02
#       6
#     8  16  16  16  16  16
#     4   7  12  26  49  71  89 119 167 217 252 279
#     4  10  21  38  60  79  97 133 187 236 269 309
#     4   9  18  33  51  74 106 143 178 214 262 319
#     4   9  18  34  55  77 103 139 183 222 255 302
#     4  11  23  35  51  79 115 145 170 214 276 336
#     4   8  13  23  44  75 107 137 171 213 259 307
#
# _framework density 23.468364999999999
#
# number of rings (size 3 to 8) (size 9 to 14) (size 15 to 20)
#    0.000    2.818    0.000    3.273    1.273    3.636 
#    0.000    2.727    0.000    1.636    0.000    0.000 
#    0.000    0.000    0.000   15.636    0.000   13.818 
#
# Total GULP energy -245608.569144 kJ/mol
# GULP energy per Si atom -5582.012935 kJ/mol
# Density = 2.341495 g / cm^3
# Si number density = 23.468365 Si / 1000 Ang^3
#
#
#
# Elastic Constant Matrix: (Units=GPa)
#
#
# Indices 1 2 3 4 5 6 
#
# 1 117.2367 11.9339 43.3905 0.0000 0.0000 0.0000
# 2 11.9339 53.4760 1.3200 0.0000 0.0000 0.0000
# 3 43.3905 1.3200 104.4897 0.0000 0.0000 0.0000
# 4 0.0000 0.0000 0.0000 2.2981 0.0000 0.0000
# 5 0.0000 0.0000 0.0000 0.0000 21.3238 0.0000
# 6 0.0000 0.0000 0.0000 0.0000 0.0000 0.4037
#
#
#
# Elastic Compliance Matrix: (Units=1/GPa)
#
#
# Indices 1 2 3 4 5 6 
#
# 1 0.010331 -0.002200 -0.004262 0.000000 0.000000 0.000000
# 2 -0.002200 0.019174 0.000672 0.000000 0.000000 0.000000
# 3 -0.004262 0.000672 0.011332 0.000000 0.000000 0.000000
# 4 0.000000 0.000000 0.000000 0.435144 0.000000 0.000000
# 5 0.000000 0.000000 0.000000 0.000000 0.046896 0.000000
# 6 0.000000 0.000000 0.000000 0.000000 0.000000 2.477231
#
#
# Mechanical properties :
#
#
# Convention : Reuss Voigt Hill
#
# Bulk Modulus (GPa) = 34.18206 43.16566 38.67386
# Shear Modulus (GPa) = 1.65484 19.37565 10.51524
#
# Velocity S-wave (km/s) = 0.84063 2.87646 2.11904
# Velocity P-wave (km/s) = 3.94195 5.42817 4.74363
#
# Compressibility (1/GPa) = 0.02925511
#
# Stress axis : x y z
#
# Youngs Moduli (GPa) = 96.79337 52.15272 88.24692
#
# Poissons Ratio (x) = 0.11475 0.37614
# Poissons Ratio (y) = 0.21298 -0.05926
# Poissons Ratio (z) = 0.41257 -0.03502
#
# Static dielectric constant tensor:
#      x y z
#    x 1.912230 0.000000 0.000000 
#    y 0.000000 1.907380 0.000000 
#    z 0.000000 0.000000 1.881960 
# 
# From -- ./inp_files/61124.got.cif
#   From: 2010.05.17/outbox.cif.g08.bks.cpg/sg71_31_cif.got.tgz:61124.got - 2010.06.03 16:22:01.
