data_PCOD9523077
_publ_section_title
;
Structure prediction by ZEFSAII (Michael W. Deem and Ramdas Pophale) SiO2 
 PCOD9523077
Probable space group: I M M M
;
_chemical_formula_sum "Si O2"
_cell_formula_units_Z 64
_cell_length_a 8.849425
_cell_length_b 28.629385
_cell_length_c 13.567082
_cell_angle_alpha 90.000000
_cell_angle_beta 90.000000
_cell_angle_gamma 90.000000
_cell_volume 3437.269003
_symmetry_space_group_name_H-M "I M M M"
_symmetry_group_IT_number 71
_symmetry_cell_setting 'orthorhombic'
loop_
_space_group_symop_operation_xyz
x,y,z
-x,-y,z
x,-y,-z
-x,y,-z
-x,-y,-z
x,y,-z
-x,y,z
x,-y,z
1/2+x,1/2+y,1/2+z
1/2-x,1/2-y,1/2+z
1/2+x,1/2-y,1/2-z
1/2-x,1/2+y,1/2-z
1/2-x,1/2-y,1/2-z
1/2+x,1/2+y,1/2-z
1/2-x,1/2+y,1/2+z
1/2+x,1/2-y,1/2+z
loop_
_atom_site_type_symbol
_atom_site_label
_atom_site_fract_x
_atom_site_fract_y
_atom_site_fract_z
Si Si1 0.176395 0.753716 0.500000
Si Si2 0.675310 0.886711 0.201632
Si Si3 0.182385 0.444471 0.110040
Si Si4 0.826777 0.289006 0.814988
Si Si5 0.180716 0.148581 0.000000
O O1 0.225958 0.786006 0.410410
O O2 0.257067 0.702484 0.500000
O O3 0.000000 0.743354 0.500000
O O4 0.500000 0.899762 0.179708
O O5 0.737498 0.920809 0.288209
O O6 0.674046 0.836909 0.256399
O O7 0.760950 0.878077 0.098592
O O8 0.208647 0.500000 0.114347
O O9 0.000000 0.436779 0.110178
O O10 0.235256 0.428168 0.000000
O O11 0.750000 0.250000 0.750000
O O12 0.000000 0.277396 0.839852
O O13 0.000000 0.150468 0.000000
#
# Coordination Sequence:
#
# PCOD9523077 Si02
#       5
#     8  16  16  16   8
#     4  12  24  38  54  75 110 151 192 238 284 333
#     4  10  21  36  58  84 114 148 187 233 283 336
#     4   8  15  31  58  90 117 141 176 227 283 335
#     4  11  22  35  54  80 112 149 190 232 279 333
#     4  12  24  38  57  77 110 152 195 238 280 334
#
# _framework density 18.619433000000001
#
# number of rings (size 3 to 8) (size 9 to 14) (size 15 to 20)
#    0.000    1.750    2.500    3.750    1.750    1.000 
#    0.000    0.625    0.000    4.500    0.000    1.750 
#    0.000    0.000    0.000    0.000    0.000    0.000 
#
# Total GULP energy -178269.617243 kJ/mol
# GULP energy per Si atom -5570.925539 kJ/mol
# Density = 1.857705 g / cm^3
# Si number density = 18.619433 Si / 1000 Ang^3
#
#
#
# Elastic Constant Matrix: (Units=GPa)
#
#
# Indices 1 2 3 4 5 6 
#
# 1 92.0536 19.0416 56.4424 0.0000 0.0000 0.0000
# 2 19.0416 37.3465 30.7454 0.0000 0.0000 0.0000
# 3 56.4424 30.7454 169.0443 0.0001 0.0000 0.0000
# 4 0.0000 0.0000 0.0001 33.6465 0.0000 0.0000
# 5 0.0000 0.0000 0.0000 0.0000 25.2280 0.0000
# 6 0.0000 0.0000 0.0000 0.0000 0.0000 11.4895
#
#
#
# Elastic Compliance Matrix: (Units=1/GPa)
#
#
# Indices 1 2 3 4 5 6 
#
# 1 0.014128 -0.003904 -0.004007 0.000000 0.000000 0.000000
# 2 -0.003904 0.032571 -0.004620 0.000000 0.000000 0.000000
# 3 -0.004007 -0.004620 0.008094 0.000000 0.000000 0.000000
# 4 0.000000 0.000000 0.000000 0.029721 0.000000 0.000000
# 5 0.000000 0.000000 0.000000 0.000000 0.039638 0.000000
# 6 0.000000 0.000000 0.000000 0.000000 0.000000 0.087036
#
#
# Mechanical properties :
#
#
# Convention : Reuss Voigt Hill
#
# Bulk Modulus (GPa) = 33.63737 56.76701 45.20219
# Shear Modulus (GPa) = 20.31197 26.88714 23.59955
#
# Velocity S-wave (km/s) = 3.30646 3.80417 3.56402
# Velocity P-wave (km/s) = 5.71681 7.06044 6.42385
#
# Compressibility (1/GPa) = 0.02972884
#
# Stress axis : x y z
#
# Youngs Moduli (GPa) = 70.78254 30.70255 123.55109
#
# Poissons Ratio (x) = 0.11988 0.49507
# Poissons Ratio (y) = 0.27637 0.57083
# Poissons Ratio (z) = 0.28363 0.14185
#
# Static dielectric constant tensor:
#      x y z
#    x 1.610860 0.000000 0.000000 
#    y 0.000000 1.614650 0.000000 
#    z 0.000000 0.000000 1.640520 
# 
# From -- ./inp_files/3755.got.cif
#   From: 2010.05.17/outbox.cif.g08.bks.cpg/sg71_2_cif.got.tgz:3755.got - 2010.06.03 16:22:01.
