data_PCOD9523310
_publ_section_title
;
Structure prediction by ZEFSAII (Michael W. Deem and Ramdas Pophale) SiO2 
 PCOD9523310
Probable space group: I M M M
;
_chemical_formula_sum "Si O2"
_cell_formula_units_Z 72
_cell_length_a 13.556877
_cell_length_b 29.074070
_cell_length_c 10.081704
_cell_angle_alpha 90.000000
_cell_angle_beta 90.000000
_cell_angle_gamma 90.000000
_cell_volume 3973.739834
_symmetry_space_group_name_H-M "I M M M"
_symmetry_group_IT_number 71
_symmetry_cell_setting 'orthorhombic'
loop_
_space_group_symop_operation_xyz
x,y,z
-x,-y,z
x,-y,-z
-x,y,-z
-x,-y,-z
x,y,-z
-x,y,z
x,-y,z
1/2+x,1/2+y,1/2+z
1/2-x,1/2-y,1/2+z
1/2+x,1/2-y,1/2-z
1/2-x,1/2+y,1/2-z
1/2-x,1/2-y,1/2-z
1/2+x,1/2+y,1/2-z
1/2-x,1/2+y,1/2+z
1/2+x,1/2-y,1/2+z
loop_
_atom_site_type_symbol
_atom_site_label
_atom_site_fract_x
_atom_site_fract_y
_atom_site_fract_z
Si Si1 0.882567 0.055802 0.000000
Si Si2 0.388812 0.745415 0.849046
Si Si3 0.617382 0.000000 0.660334
Si Si4 0.614046 0.444515 0.000000
Si Si5 0.700870 0.181445 0.343317
Si Si6 0.754609 0.082433 0.745756
O O1 0.820807 0.074234 0.874965
O O2 0.000000 0.068257 0.000000
O O3 0.879100 0.000000 0.000000
O O4 0.500000 0.727921 0.836243
O O5 0.368343 0.784106 0.739178
O O6 0.308549 0.705345 0.834969
O O7 0.376895 0.764077 0.000000
O O8 0.670462 0.044021 0.724885
O O9 0.500000 0.000000 0.680586
O O10 0.635059 0.000000 0.500000
O O11 0.669452 0.424973 0.125978
O O12 0.621273 0.500000 0.000000
O O13 0.500000 0.432067 0.000000
O O14 0.675244 0.177178 0.500000
O O15 0.707011 0.132353 0.272625
#
# Coordination Sequence:
#
# PCOD9523310 Si02
#       6
#     8  16   8   8  16  16
#     4  11  24  40  60  87 126 166 196 242 305 360
#     4   9  20  39  60  85 117 153 194 244 302 360
#     4  11  22  39  62  89 121 159 201 249 298 343
#     4  11  20  34  60  87 116 154 200 240 295 360
#     4  10  21  37  62  88 117 154 196 249 298 347
#     4  12  21  40  59  89 123 158 200 249 296 349
#
# _framework density 18.118952
#
# number of rings (size 3 to 8) (size 9 to 14) (size 15 to 20)
#    0.000    1.444    4.444    0.667    1.556    4.889 
#    0.000    1.111    0.000    0.000    0.000    0.000 
#    0.000    0.000    0.000    0.000    0.000    0.000 
#
# Total GULP energy -200926.604783 kJ/mol
# GULP energy per Si atom -5581.294577 kJ/mol
# Density = 1.807771 g / cm^3
# Si number density = 18.118952 Si / 1000 Ang^3
#
#
#
# Elastic Constant Matrix: (Units=GPa)
#
#
# Indices 1 2 3 4 5 6 
#
# 1 93.9606 9.6397 32.3600 0.0000 -0.0001 0.0000
# 2 9.6397 85.0193 25.0208 -0.0002 0.0000 0.0000
# 3 32.3600 25.0208 120.7207 -0.0010 -0.0001 -0.0001
# 4 0.0000 -0.0002 -0.0010 30.4094 0.0000 0.0001
# 5 -0.0001 0.0000 -0.0001 0.0000 36.0158 0.0001
# 6 0.0000 0.0000 -0.0001 0.0001 0.0001 0.2999
#
#
#
# Elastic Compliance Matrix: (Units=1/GPa)
#
#
# Indices 1 2 3 4 5 6 
#
# 1 0.011740 -0.000431 -0.003058 0.000000 0.000000 0.000001
# 2 -0.000431 0.012542 -0.002484 0.000000 0.000000 -0.000002
# 3 -0.003058 -0.002484 0.009618 0.000000 0.000000 0.000004
# 4 0.000000 0.000000 0.000000 0.032885 0.000000 -0.000008
# 5 0.000000 0.000000 0.000000 0.000000 0.027766 -0.000013
# 6 0.000001 -0.000002 0.000004 -0.000008 -0.000013 3.334637
#
#
# Mechanical properties :
#
#
# Convention : Reuss Voigt Hill
#
# Bulk Modulus (GPa) = 45.54880 48.19353 46.87116
# Shear Modulus (GPa) = 1.44993 28.85702 15.15347
#
# Velocity S-wave (km/s) = 0.89552 3.99512 2.89508
# Velocity P-wave (km/s) = 5.12471 6.92369 6.09098
#
# Compressibility (1/GPa) = 0.02195448
#
# Stress axis : x y z
#
# Youngs Moduli (GPa) = 85.17854 79.73263 103.97157
#
# Poissons Ratio (x) = 0.03439 0.31791
# Poissons Ratio (y) = 0.03674 0.25825
# Poissons Ratio (z) = 0.26044 0.19804
#
# Static dielectric constant tensor:
#      x y z
#    x 1.599080 0.000000 0.000000 
#    y 0.000000 1.662470 0.000000 
#    z 0.000000 0.000000 1.594850 
# 
# From -- ./inp_files/6154.got.cif
#   From: 2010.05.17/outbox.cif.g08.bks.cpg/sg71_4_cif.got.tgz:6154.got - 2010.06.03 16:22:01.
