data_PCOD9523412
_publ_section_title
;
Structure prediction by ZEFSAII (Michael W. Deem and Ramdas Pophale) SiO2 
 PCOD9523412
Probable space group: I M M M
;
_chemical_formula_sum "Si O2"
_cell_formula_units_Z 72
_cell_length_a 33.342237
_cell_length_b 14.729226
_cell_length_c 7.402742
_cell_angle_alpha 90.000000
_cell_angle_beta 90.000000
_cell_angle_gamma 90.000000
_cell_volume 3635.526157
_symmetry_space_group_name_H-M "I M M M"
_symmetry_group_IT_number 71
_symmetry_cell_setting 'orthorhombic'
loop_
_space_group_symop_operation_xyz
x,y,z
-x,-y,z
x,-y,-z
-x,y,-z
-x,-y,-z
x,y,-z
-x,y,z
x,-y,z
1/2+x,1/2+y,1/2+z
1/2-x,1/2-y,1/2+z
1/2+x,1/2-y,1/2-z
1/2-x,1/2+y,1/2-z
1/2-x,1/2-y,1/2-z
1/2+x,1/2+y,1/2-z
1/2-x,1/2+y,1/2+z
1/2+x,1/2-y,1/2+z
loop_
_atom_site_type_symbol
_atom_site_label
_atom_site_fract_x
_atom_site_fract_y
_atom_site_fract_z
Si Si1 0.954131 0.898202 0.219247
Si Si2 0.241546 0.103111 0.716626
Si Si3 0.453357 0.108222 0.000000
Si Si4 0.405074 0.778232 0.281098
Si Si5 0.186646 0.270071 0.785028
O O1 0.923865 0.819274 0.270660
O O2 0.000000 0.878846 0.276367
O O3 0.943453 0.000000 0.279315
O O4 0.954500 0.899607 0.000000
O O5 0.245205 0.098074 0.500000
O O6 0.204219 0.169545 0.753111
O O7 0.280774 0.157462 0.786238
O O8 0.237991 0.000000 0.784190
O O9 0.431087 0.148170 0.824720
O O10 0.500000 0.136006 0.000000
O O11 0.451280 0.000000 0.000000
O O12 0.407647 0.788054 0.500000
O O13 0.358703 0.782543 0.222795
O O14 0.185405 0.282467 0.000000
#
# Coordination Sequence:
#
# PCOD9523412 Si02
#       5
#    16  16   8  16  16
#     4   8  14  27  50  80 111 143 181 224 278 346
#     4   9  18  33  53  77 111 152 188 232 289 346
#     4  11  26  44  61  87 119 153 202 256 299 351
#     4  10  21  38  62  87 116 156 195 246 301 350
#     4   9  19  34  54  81 111 145 191 240 285 345
#
# _framework density 19.804561
#
# number of rings (size 3 to 8) (size 9 to 14) (size 15 to 20)
#    0.000    2.778    0.000    1.333    1.556    4.000 
#    0.000    6.111    0.000    2.000    0.000    0.000 
#    0.000    0.000    0.000    0.000    0.000    0.000 
#
# Total GULP energy -200864.939884 kJ/mol
# GULP energy per Si atom -5579.581663 kJ/mol
# Density = 1.975948 g / cm^3
# Si number density = 19.804561 Si / 1000 Ang^3
#
#
#
# Elastic Constant Matrix: (Units=GPa)
#
#
# Indices 1 2 3 4 5 6 
#
# 1 163.0440 76.3499 32.3950 0.0000 0.0000 0.0000
# 2 76.3499 110.4035 16.1454 0.0000 0.0000 0.0000
# 3 32.3950 16.1454 77.4603 0.0000 -0.0001 0.0000
# 4 0.0000 0.0000 0.0000 24.3175 0.0000 0.0000
# 5 0.0000 0.0000 -0.0001 0.0000 -524.4630 0.0001
# 6 0.0000 0.0000 0.0000 0.0000 0.0001 -55.5865
#
#
#
# Elastic Compliance Matrix: (Units=1/GPa)
#
#
# Indices 1 2 3 4 5 6 
#
# 1 0.009593 -0.006237 -0.002712 0.000000 0.000000 0.000000
# 2 -0.006237 0.013398 -0.000184 0.000000 0.000000 0.000000
# 3 -0.002712 -0.000184 0.014082 0.000000 0.000000 0.000000
# 4 0.000000 0.000000 0.000000 0.041123 0.000000 0.000000
# 5 0.000000 0.000000 0.000000 0.000000 -0.001907 0.000000
# 6 0.000000 0.000000 0.000000 0.000000 0.000000 -0.017990
#
#
# Mechanical properties :
#
#
# Convention : Reuss Voigt Hill
#
# Bulk Modulus (GPa) = 53.17229 66.74316 59.95772
# Shear Modulus (GPa) = 60.36099 -96.07856 -17.85878
#
# Velocity S-wave (km/s) = 5.52671 -6.97271 -3.00617
# Velocity P-wave (km/s) = 8.22392 5.57233 4.27680
#
# Compressibility (1/GPa) = 0.01880679
#
# Stress axis : x y z
#
# Youngs Moduli (GPa) = 104.24264 74.63718 71.01106
#
# Poissons Ratio (x) = 0.46555 0.19257
# Poissons Ratio (y) = 0.65021 0.01307
# Poissons Ratio (z) = 0.28269 0.01373
#
# Static dielectric constant tensor:
#      x y z
#    x 1.677510 0.000000 0.000000 
#    y 0.000000 1.678050 0.000000 
#    z 0.000000 0.000000 1.762460 
# 
# From -- ./inp_files/16354.got.cif
#   From: 2010.05.17/outbox.cif.g08.bks.cpg/sg71_9_cif.got.tgz:16354.got - 2010.06.03 16:22:01.
