data_PCOD9523760
_publ_section_title
;
Structure prediction by ZEFSAII (Michael W. Deem and Ramdas Pophale) SiO2 
 PCOD9523760
Probable space group: I M M M
;
_chemical_formula_sum "Si O2"
_cell_formula_units_Z 72
_cell_length_a 22.014458
_cell_length_b 20.859010
_cell_length_c 8.623156
_cell_angle_alpha 90.000000
_cell_angle_beta 90.000000
_cell_angle_gamma 90.000000
_cell_volume 3959.751507
_symmetry_space_group_name_H-M "I M M M"
_symmetry_group_IT_number 71
_symmetry_cell_setting 'orthorhombic'
loop_
_space_group_symop_operation_xyz
x,y,z
-x,-y,z
x,-y,-z
-x,y,-z
-x,-y,-z
x,y,-z
-x,y,z
x,-y,z
1/2+x,1/2+y,1/2+z
1/2-x,1/2-y,1/2+z
1/2+x,1/2-y,1/2-z
1/2-x,1/2+y,1/2-z
1/2-x,1/2-y,1/2-z
1/2+x,1/2+y,1/2-z
1/2-x,1/2+y,1/2+z
1/2+x,1/2-y,1/2+z
loop_
_atom_site_type_symbol
_atom_site_label
_atom_site_fract_x
_atom_site_fract_y
_atom_site_fract_z
Si Si1 0.301104 0.698943 0.316233
Si Si2 0.570009 0.000000 0.326625
Si Si3 0.243854 0.424334 0.182610
Si Si4 0.568675 0.259516 0.814548
Si Si5 0.621356 0.122576 0.179915
O O1 0.297523 0.705848 0.500000
O O2 0.250000 0.750000 0.250000
O O3 0.288105 0.625226 0.268206
O O4 0.369876 0.712274 0.259227
O O5 0.584650 0.060327 0.222445
O O6 0.500000 0.000000 0.354329
O O7 0.600960 0.000000 0.500000
O O8 0.241531 0.500000 0.233379
O O9 0.180278 0.388209 0.214675
O O10 0.256976 0.424614 0.000000
O O11 0.500000 0.277186 0.760739
O O12 0.580246 0.183959 0.789266
O O13 0.570626 0.271478 0.000000
O O14 0.640899 0.125212 0.000000
#
# Coordination Sequence:
#
# PCOD9523760 Si02
#       5
#    16   8  16  16  16
#     4  12  24  39  63  91 122 161 206 253 304 360
#     4  11  23  35  47  69 109 159 204 245 290 347
#     4  11  23  39  61  88 121 158 199 249 306 364
#     4  10  22  40  61  87 120 157 199 248 303 361
#     4  11  21  34  56  82 113 155 198 243 294 353
#
# _framework density 18.182960000000001
#
# number of rings (size 3 to 8) (size 9 to 14) (size 15 to 20)
#    0.000    1.000    3.333    4.333    0.000    4.444 
#    0.000    0.000    0.000    0.667    0.000    4.667 
#    0.000    0.000    0.000    0.000    0.000    0.000 
#
# Total GULP energy -200567.905476 kJ/mol
# GULP energy per Si atom -5571.330708 kJ/mol
# Density = 1.814157 g / cm^3
# Si number density = 18.182960 Si / 1000 Ang^3
#
#
#
# Elastic Constant Matrix: (Units=GPa)
#
#
# Indices 1 2 3 4 5 6 
#
# 1 129.9959 38.2691 45.7220 0.0000 0.0000 0.0000
# 2 38.2691 52.1179 26.5199 0.0000 0.0000 0.0000
# 3 45.7220 26.5199 56.1342 0.0000 0.0000 0.0000
# 4 0.0000 0.0000 0.0000 23.3895 0.0000 0.0000
# 5 0.0000 0.0000 0.0000 0.0000 27.5261 0.0000
# 6 0.0000 0.0000 0.0000 0.0000 0.0000 16.9568
#
#
#
# Elastic Compliance Matrix: (Units=1/GPa)
#
#
# Indices 1 2 3 4 5 6 
#
# 1 0.011664 -0.004911 -0.007180 0.000000 0.000000 0.000000
# 2 -0.004911 0.027327 -0.008910 0.000000 0.000000 0.000000
# 3 -0.007180 -0.008910 0.027872 0.000000 0.000000 0.000000
# 4 0.000000 0.000000 0.000000 0.042754 0.000000 0.000000
# 5 0.000000 0.000000 0.000000 0.000000 0.036329 0.000000
# 6 0.000000 0.000000 0.000000 0.000000 0.000000 0.058973
#
#
# Mechanical properties :
#
#
# Convention : Reuss Voigt Hill
#
# Bulk Modulus (GPa) = 40.22460 51.02999 45.62729
# Shear Modulus (GPa) = 19.59176 22.09029 20.84103
#
# Velocity S-wave (km/s) = 3.28606 3.48931 3.38921
# Velocity P-wave (km/s) = 6.04713 6.66028 6.36110
#
# Compressibility (1/GPa) = 0.02486041
#
# Stress axis : x y z
#
# Youngs Moduli (GPa) = 85.73683 36.59364 35.87785
#
# Poissons Ratio (x) = 0.17970 0.25761
# Poissons Ratio (y) = 0.42103 0.31969
# Poissons Ratio (z) = 0.61560 0.32607
#
# Static dielectric constant tensor:
#      x y z
#    x 1.699510 0.000000 0.000000 
#    y 0.000000 1.664390 0.000000 
#    z 0.000000 0.000000 1.655050 
# 
# From -- ./inp_files/9919.got.cif
#   From: 2010.05.17/outbox.cif.g08.bks.cpg/sg71_5_cif.got.tgz:9919.got - 2010.06.03 16:22:01.
