data_PCOD9523484
_publ_section_title
;
Structure prediction by ZEFSAII (Michael W. Deem and Ramdas Pophale) SiO2 
 PCOD9523484
Probable space group: I M M M
;
_chemical_formula_sum "Si O2"
_cell_formula_units_Z 88
_cell_length_a 18.497029
_cell_length_b 8.930973
_cell_length_c 28.961818
_cell_angle_alpha 90.000000
_cell_angle_beta 90.000000
_cell_angle_gamma 90.000000
_cell_volume 4784.389999
_symmetry_space_group_name_H-M "I M M M"
_symmetry_group_IT_number 71
_symmetry_cell_setting 'orthorhombic'
loop_
_space_group_symop_operation_xyz
x,y,z
-x,-y,z
x,-y,-z
-x,y,-z
-x,-y,-z
x,y,-z
-x,y,z
x,-y,z
1/2+x,1/2+y,1/2+z
1/2-x,1/2-y,1/2+z
1/2+x,1/2-y,1/2-z
1/2-x,1/2+y,1/2-z
1/2-x,1/2-y,1/2-z
1/2+x,1/2+y,1/2-z
1/2-x,1/2+y,1/2+z
1/2+x,1/2-y,1/2+z
loop_
_atom_site_type_symbol
_atom_site_label
_atom_site_fract_x
_atom_site_fract_y
_atom_site_fract_z
Si Si1 0.583266 0.820279 0.141531
Si Si2 0.850046 0.827345 0.055619
Si Si3 0.710592 0.323217 0.706084
Si Si4 0.414739 0.172675 0.749590
Si Si5 0.000000 0.673022 0.056345
Si Si6 0.727161 0.321567 0.886656
O O1 0.500000 0.777579 0.131230
O O2 0.596602 0.789206 0.196172
O O3 0.645235 0.740367 0.112249
O O4 0.588919 0.000000 0.136245
O O5 0.925925 0.753643 0.071197
O O6 0.780633 0.739233 0.074048
O O7 0.846547 0.000000 0.071150
O O8 0.850205 0.825314 0.000000
O O9 0.723151 0.500000 0.703724
O O10 0.750000 0.250000 0.750000
O O11 0.627666 0.282513 0.716190
O O12 0.739063 0.244380 0.660371
O O13 0.500000 0.177169 0.741721
O O14 0.390226 0.000000 0.742797
O O15 0.000000 0.500000 0.070962
O O16 0.000000 0.675771 0.000000
O O17 0.726680 0.500000 0.885920
#
# Coordination Sequence:
#
# PCOD9523484 Si02
#       6
#    16  16  16  16   8  16
#     4   9  18  34  57  82 110 146 187 231 278 333
#     4  10  21  39  63  88 115 149 189 232 278 333
#     4  12  23  36  54  78 111 148 188 231 278 330
#     4   9  18  34  55  77 105 143 185 229 277 328
#     4   9  17  33  59  89 119 149 183 227 279 333
#     4  12  24  37  57  85 115 149 188 232 284 336
#
# _framework density 18.393149000000001
#
# number of rings (size 3 to 8) (size 9 to 14) (size 15 to 20)
#    0.000    1.727    1.818    5.182    0.000    2.909 
#    1.636    1.818    0.000    0.545    0.000    3.818 
#    0.000    0.000    0.000    0.000    0.000    0.000 
#
# Total GULP energy -245711.896964 kJ/mol
# GULP energy per Si atom -5584.361295 kJ/mol
# Density = 1.835129 g / cm^3
# Si number density = 18.393149 Si / 1000 Ang^3
#
#
#
# Elastic Constant Matrix: (Units=GPa)
#
#
# Indices 1 2 3 4 5 6 
#
# 1 143.1854 73.4104 24.3216 0.0000 0.0000 0.0000
# 2 73.4104 129.4075 22.5164 0.0000 0.0000 0.0000
# 3 24.3216 22.5164 19.4153 0.0000 0.0000 0.0000
# 4 0.0000 0.0000 0.0000 22.0385 0.0000 0.0000
# 5 0.0000 0.0000 0.0000 0.0000 27.1331 0.0000
# 6 0.0000 0.0000 0.0000 0.0000 0.0000 35.3073
#
#
#
# Elastic Compliance Matrix: (Units=1/GPa)
#
#
# Indices 1 2 3 4 5 6 
#
# 1 0.010760 -0.004709 -0.008018 0.000000 0.000000 0.000000
# 2 -0.004709 0.011742 -0.007718 0.000000 0.000000 0.000000
# 3 -0.008018 -0.007718 0.070501 0.000000 0.000000 0.000000
# 4 0.000000 0.000000 0.000000 0.045375 0.000000 0.000000
# 5 0.000000 0.000000 0.000000 0.000000 0.036855 0.000000
# 6 0.000000 0.000000 0.000000 0.000000 0.000000 0.028323
#
#
# Mechanical properties :
#
#
# Convention : Reuss Voigt Hill
#
# Bulk Modulus (GPa) = 19.18934 59.16723 39.17829
# Shear Modulus (GPa) = 19.09722 28.34644 23.72183
#
# Velocity S-wave (km/s) = 3.22573 3.93000 3.59515
# Velocity P-wave (km/s) = 4.93247 7.26850 6.21129
#
# Compressibility (1/GPa) = 0.05211226
#
# Stress axis : x y z
#
# Youngs Moduli (GPa) = 92.93528 85.16618 14.18413
#
# Poissons Ratio (x) = 0.40104 0.11373
# Poissons Ratio (y) = 0.43762 0.10948
# Poissons Ratio (z) = 0.74518 0.65734
#
# Static dielectric constant tensor:
#      x y z
#    x 1.681700 0.000000 0.000000 
#    y 0.000000 1.624150 0.000000 
#    z 0.000000 0.000000 1.625980 
# 
# From -- ./inp_files/70389.got.cif
#   From: 2010.05.17/outbox.cif.g08.bks.cpg/sg71_36_cif.got.tgz:70389.got - 2010.06.03 16:22:01.
