data_PCOD9523198
_publ_section_title
;
Structure prediction by ZEFSAII (Michael W. Deem and Ramdas Pophale) SiO2 
 PCOD9523198
Probable space group: I M M M
;
_chemical_formula_sum "Si O2"
_cell_formula_units_Z 116
_cell_length_a 27.457143
_cell_length_b 23.769654
_cell_length_c 8.008396
_cell_angle_alpha 90.000000
_cell_angle_beta 90.000000
_cell_angle_gamma 90.000000
_cell_volume 5226.653934
_symmetry_space_group_name_H-M "I M M M"
_symmetry_group_IT_number 71
_symmetry_cell_setting 'orthorhombic'
loop_
_space_group_symop_operation_xyz
x,y,z
-x,-y,z
x,-y,-z
-x,y,-z
-x,-y,-z
x,y,-z
-x,y,z
x,-y,z
1/2+x,1/2+y,1/2+z
1/2-x,1/2-y,1/2+z
1/2+x,1/2-y,1/2-z
1/2-x,1/2+y,1/2-z
1/2-x,1/2-y,1/2-z
1/2+x,1/2+y,1/2-z
1/2-x,1/2+y,1/2+z
1/2+x,1/2-y,1/2+z
loop_
_atom_site_type_symbol
_atom_site_label
_atom_site_fract_x
_atom_site_fract_y
_atom_site_fract_z
Si Si1 0.902533 0.289530 0.196228
Si Si2 0.417667 0.088214 0.197351
Si Si3 0.694446 0.741073 0.800444
Si Si4 0.444637 0.329209 0.701055
Si Si5 0.114568 0.060602 0.298603
Si Si6 0.790942 0.116967 0.299430
Si Si7 0.807583 0.563041 0.700484
Si Si8 0.000000 0.500000 0.792718
O O1 0.923969 0.344946 0.281219
O O2 0.844368 0.283302 0.221731
O O3 0.922685 0.229998 0.263130
O O4 0.913188 0.294127 0.000000
O O5 0.362343 0.076754 0.258501
O O6 0.457293 0.049256 0.285570
O O7 0.421247 0.073648 0.000000
O O8 0.750000 0.750000 0.750000
O O9 0.686702 0.676622 0.743599
O O10 0.689405 0.745398 0.000000
O O11 0.444072 0.325610 0.500000
O O12 0.500000 0.333999 0.759264
O O13 0.415903 0.385154 0.748401
O O14 0.114578 0.059549 0.500000
O O15 0.170501 0.070240 0.243745
O O16 0.096319 0.000000 0.237737
O O17 0.790213 0.118644 0.500000
O O18 0.736067 0.104781 0.245340
O O19 0.810514 0.562851 0.500000
O O20 0.794611 0.500000 0.759104
#
# Coordination Sequence:
#
# PCOD9523198 Si02
#       8
#    16  16  16  16  16  16  16   4
#     4  11  24  42  65  94 130 169 216 269 327 391
#     4  11  23  42  68  95 126 167 216 272 333 398
#     4  11  22  38  62  93 131 170 213 262 319 387
#     4  10  23  43  64  88 124 168 212 263 320 384
#     4  10  21  39  63  92 125 161 206 262 317 373
#     4  10  21  37  59  87 124 166 207 254 312 379
#     4  10  21  37  57  86 124 163 208 260 316 383
#     4  12  25  48  77 102 133 176 231 286 343 408
#
# _framework density 22.193932
#
# number of rings (size 3 to 8) (size 9 to 14) (size 15 to 20)
#    0.000    1.517    2.069    2.690    0.966    6.621 
#    0.000    2.069    0.000    0.000    0.000    0.000 
#    0.000    0.000    0.000    0.000    0.000    0.000 
#
# Total GULP energy -323614.487065 kJ/mol
# GULP energy per Si atom -5579.560122 kJ/mol
# Density = 2.214342 g / cm^3
# Si number density = 22.193932 Si / 1000 Ang^3
#
#
#
# Elastic Constant Matrix: (Units=GPa)
#
#
# Indices 1 2 3 4 5 6 
#
# 1 140.4336 66.5356 1.1491 0.0000 0.0000 0.0000
# 2 66.5356 167.6125 9.0089 0.0000 0.0000 0.0000
# 3 1.1491 9.0089 22.5911 0.0000 0.0000 0.0000
# 4 0.0000 0.0000 0.0000 -3.4962 0.0000 0.0000
# 5 0.0000 0.0000 0.0000 0.0000 -13.4059 0.0000
# 6 0.0000 0.0000 0.0000 0.0000 0.0000 37.6606
#
#
#
# Elastic Compliance Matrix: (Units=1/GPa)
#
#
# Indices 1 2 3 4 5 6 
#
# 1 0.008791 -0.003541 0.000965 0.000000 0.000000 0.000000
# 2 -0.003541 0.007524 -0.002820 0.000000 0.000000 0.000000
# 3 0.000965 -0.002820 0.045341 0.000000 0.000000 0.000000
# 4 0.000000 0.000000 0.000000 -0.286028 0.000000 0.000000
# 5 0.000000 0.000000 0.000000 0.000000 -0.074594 0.000000
# 6 0.000000 0.000000 0.000000 0.000000 0.000000 0.026553
#
#
# Mechanical properties :
#
#
# Convention : Reuss Voigt Hill
#
# Bulk Modulus (GPa) = 19.66095 53.78049 36.72072
# Shear Modulus (GPa) = -20.43592 21.08127 0.32268
#
# Velocity S-wave (km/s) = -3.03774 3.08533 0.38171
# Velocity P-wave (km/s) = 1.85092 6.08088 4.09580
#
# Compressibility (1/GPa) = 0.05086224
#
# Stress axis : x y z
#
# Youngs Moduli (GPa) = 113.75509 132.91599 22.05518
#
# Poissons Ratio (x) = 0.47072 -0.02129
# Poissons Ratio (y) = 0.40286 0.06220
# Poissons Ratio (z) = -0.10979 0.37484
#
# Static dielectric constant tensor:
#      x y z
#    x 1.808090 0.000000 0.000000 
#    y 0.000000 1.998970 0.000000 
#    z 0.000000 0.000000 1.819030 
# 
# From -- ./inp_files/15413.got.cif
#   From: 2010.05.17/outbox.cif.g08.bks.cpg/sg71_8_cif.got.tgz:15413.got - 2010.06.03 16:22:01.
