data_PCOD9523951
_publ_section_title
;
Structure prediction by ZEFSAII (Michael W. Deem and Ramdas Pophale) SiO2 
 PCOD9523951
Probable space group: I M M M
;
_chemical_formula_sum "Si O2"
_cell_formula_units_Z 58
_cell_length_a 28.634187
_cell_length_b 14.949138
_cell_length_c 7.473845
_cell_angle_alpha 90.000000
_cell_angle_beta 90.000000
_cell_angle_gamma 90.000000
_cell_volume 3199.227282
_symmetry_space_group_name_H-M "I M M M"
_symmetry_group_IT_number 71
_symmetry_cell_setting 'orthorhombic'
loop_
_space_group_symop_operation_xyz
x,y,z
-x,-y,z
x,-y,-z
-x,y,-z
-x,-y,-z
x,y,-z
-x,y,z
x,-y,z
1/2+x,1/2+y,1/2+z
1/2-x,1/2-y,1/2+z
1/2+x,1/2-y,1/2-z
1/2-x,1/2+y,1/2-z
1/2-x,1/2-y,1/2-z
1/2+x,1/2+y,1/2-z
1/2-x,1/2+y,1/2+z
1/2+x,1/2-y,1/2+z
loop_
_atom_site_type_symbol
_atom_site_label
_atom_site_fract_x
_atom_site_fract_y
_atom_site_fract_z
Si Si1 0.448573 0.685865 0.000000
Si Si2 0.788448 0.896702 0.782530
Si Si3 0.183719 0.603458 0.716541
Si Si4 0.626338 0.272693 0.705282
Si Si5 0.500000 0.500000 0.000000
O O1 0.418140 0.712366 0.828742
O O2 0.460057 0.580155 0.000000
O O3 0.500000 0.729772 0.000000
O O4 0.736264 0.869736 0.724353
O O5 0.830427 0.833355 0.725214
O O6 0.795944 0.000000 0.729839
O O7 0.787900 0.894500 0.000000
O O8 0.182683 0.607221 0.500000
O O9 0.176577 0.500000 0.767837
O O10 0.145683 0.671967 0.786776
O O11 0.616516 0.297670 0.500000
#
# Coordination Sequence:
#
# PCOD9523951 Si02
#       5
#     8  16  16  16   2
#     4  10  24  44  61  86 114 145 192 248 288 347
#     4   8  16  29  49  81 119 156 194 231 277 341
#     4   9  17  33  54  80 120 161 193 234 281 333
#     4  11  21  35  60  85 114 153 194 238 291 345
#     4   8  24  48  66  84 122 138 200 244 290 352
#
# _framework density 18.129377999999999
#
# number of rings (size 3 to 8) (size 9 to 14) (size 15 to 20)
#    0.414    2.207    1.379    2.483    1.931    1.103 
#    2.483    0.690    0.000    1.655    0.000    1.931 
#    0.000    0.000    0.000    0.000    0.000    0.000 
#
# Total GULP energy -161517.089075 kJ/mol
# GULP energy per Si atom -5569.554796 kJ/mol
# Density = 1.808811 g / cm^3
# Si number density = 18.129378 Si / 1000 Ang^3
#
#
#
# Elastic Constant Matrix: (Units=GPa)
#
#
# Indices 1 2 3 4 5 6 
#
# 1 144.3427 67.9736 50.8300 0.0000 0.0000 0.0000
# 2 67.9736 74.9012 21.1071 0.0000 0.0000 0.0000
# 3 50.8300 21.1071 84.1321 0.0000 0.0000 0.0000
# 4 0.0000 0.0000 0.0000 9.8431 0.0000 0.0000
# 5 0.0000 0.0000 0.0000 0.0000 23.4004 0.0000
# 6 0.0000 0.0000 0.0000 0.0000 0.0000 23.1181
#
#
#
# Elastic Compliance Matrix: (Units=1/GPa)
#
#
# Indices 1 2 3 4 5 6 
#
# 1 0.014322 -0.011362 -0.005802 0.000000 0.000000 0.000000
# 2 -0.011362 0.023381 0.000999 0.000000 0.000000 0.000000
# 3 -0.005802 0.000999 0.015141 0.000000 0.000000 0.000000
# 4 0.000000 0.000000 0.000000 0.101593 0.000000 0.000000
# 5 0.000000 0.000000 0.000000 0.000000 0.042734 0.000000
# 6 0.000000 0.000000 0.000000 0.000000 0.000000 0.043256
#
#
# Mechanical properties :
#
#
# Convention : Reuss Voigt Hill
#
# Bulk Modulus (GPa) = 48.75074 64.79972 56.77523
# Shear Modulus (GPa) = 17.88293 22.17001 20.02647
#
# Velocity S-wave (km/s) = 3.14412 3.50076 3.32722
# Velocity P-wave (km/s) = 6.33478 7.22225 6.79303
#
# Compressibility (1/GPa) = 0.02051251
#
# Stress axis : x y z
#
# Youngs Moduli (GPa) = 69.82325 42.77027 66.04571
#
# Poissons Ratio (x) = 0.48596 0.38322
# Poissons Ratio (y) = 0.79334 -0.06597
# Poissons Ratio (z) = 0.40513 -0.04272
#
# Static dielectric constant tensor:
#      x y z
#    x 1.592010 0.000000 0.000000 
#    y 0.000000 1.620520 0.000000 
#    z 0.000000 0.000000 1.684260 
# 
# From -- ./inp_files/5795.got.cif
#   From: 2010.05.17/outbox.cif.g08.bks.cpg/sg71_3_cif.got.tgz:5795.got - 2010.06.03 16:22:01.
