data_PCOD9523793
_publ_section_title
;
Structure prediction by ZEFSAII (Michael W. Deem and Ramdas Pophale) SiO2 
 PCOD9523793
Probable space group: I M M M
;
_chemical_formula_sum "Si O2"
_cell_formula_units_Z 104
_cell_length_a 9.366002
_cell_length_b 28.333468
_cell_length_c 20.329342
_cell_angle_alpha 90.000000
_cell_angle_beta 90.000000
_cell_angle_gamma 90.000000
_cell_volume 5394.824280
_symmetry_space_group_name_H-M "I M M M"
_symmetry_group_IT_number 71
_symmetry_cell_setting 'orthorhombic'
loop_
_space_group_symop_operation_xyz
x,y,z
-x,-y,z
x,-y,-z
-x,y,-z
-x,-y,-z
x,y,-z
-x,y,z
x,-y,z
1/2+x,1/2+y,1/2+z
1/2-x,1/2-y,1/2+z
1/2+x,1/2-y,1/2-z
1/2-x,1/2+y,1/2-z
1/2-x,1/2-y,1/2-z
1/2+x,1/2+y,1/2-z
1/2-x,1/2+y,1/2+z
1/2+x,1/2-y,1/2+z
loop_
_atom_site_type_symbol
_atom_site_label
_atom_site_fract_x
_atom_site_fract_y
_atom_site_fract_z
Si Si1 0.000000 0.053114 0.077037
Si Si2 0.749328 0.883398 0.871814
Si Si3 0.000000 0.443787 0.578241
Si Si4 0.828454 0.871525 0.720556
Si Si5 0.665633 0.557278 0.000000
Si Si6 0.332426 0.219081 0.922660
Si Si7 0.173434 0.276083 0.811714
Si Si8 0.668239 0.943182 0.366992
O O1 0.872558 0.086908 0.095504
O O2 0.000000 0.000000 0.107320
O O3 0.000000 0.046346 0.000000
O O4 0.626598 0.921297 0.880876
O O5 0.793719 0.870602 0.797961
O O6 0.703669 0.835561 0.908212
O O7 0.000000 0.500000 0.578715
O O8 0.000000 0.429490 0.500000
O O9 0.741287 0.828234 0.688670
O O10 0.760026 0.918498 0.689702
O O11 0.000000 0.868427 0.710512
O O12 0.754303 0.571066 0.064737
O O13 0.660400 0.500000 0.000000
O O14 0.500000 0.573829 0.000000
O O15 0.500000 0.227203 0.905214
O O16 0.228026 0.249495 0.876905
O O17 0.314767 0.228914 0.000000
O O18 0.250000 0.250000 0.750000
O O19 0.000000 0.275913 0.805668
O O20 0.500000 0.929887 0.365800
O O21 0.674746 0.000000 0.361953
#
# Coordination Sequence:
#
# PCOD9523793 Si02
#       8
#     8  16   8  16   8  16  16  16
#     4  11  24  42  62  91 134 179 225 280 334 381
#     4  12  24  41  65  96 131 175 226 273 327 393
#     4  11  24  42  64  93 132 179 229 278 330 387
#     4  12  26  45  66  95 132 175 222 272 335 397
#     4   9  17  35  63  95 129 169 213 261 319 383
#     4  11  24  44  72 103 134 170 218 273 330 400
#     4  12  26  45  71  98 131 171 214 270 332 400
#     4  10  22  40  66  98 133 173 219 270 324 392
#
# _framework density 19.277735
#
# number of rings (size 3 to 8) (size 9 to 14) (size 15 to 20)
#    0.000    0.846    3.077    4.385    3.231    4.615 
#    1.385    0.000    0.000    0.000    0.000    0.000 
#    0.000    0.000    0.000    0.000    0.000    0.000 
#
# Total GULP energy -290237.323459 kJ/mol
# GULP energy per Si atom -5581.486990 kJ/mol
# Density = 1.923386 g / cm^3
# Si number density = 19.277735 Si / 1000 Ang^3
#
#
#
# Elastic Constant Matrix: (Units=GPa)
#
#
# Indices 1 2 3 4 5 6 
#
# 1 206.0038 46.6136 48.3211 0.0000 0.0000 0.0000
# 2 46.6136 73.9458 27.9135 0.0000 0.0000 0.0000
# 3 48.3211 27.9135 80.3588 -0.0001 0.0000 0.0000
# 4 0.0000 0.0000 -0.0001 36.9311 0.0000 0.0000
# 5 0.0000 0.0000 0.0000 0.0000 26.3866 0.0000
# 6 0.0000 0.0000 0.0000 0.0000 0.0000 35.3550
#
#
#
# Elastic Compliance Matrix: (Units=1/GPa)
#
#
# Indices 1 2 3 4 5 6 
#
# 1 0.006131 -0.002846 -0.002698 0.000000 0.000000 0.000000
# 2 -0.002846 0.016886 -0.004154 0.000000 0.000000 0.000000
# 3 -0.002698 -0.004154 0.015509 0.000000 0.000000 0.000000
# 4 0.000000 0.000000 0.000000 0.027077 0.000000 0.000000
# 5 0.000000 0.000000 0.000000 0.000000 0.037898 0.000000
# 6 0.000000 0.000000 0.000000 0.000000 0.000000 0.028285
#
#
# Mechanical properties :
#
#
# Convention : Reuss Voigt Hill
#
# Bulk Modulus (GPa) = 52.27464 67.33386 59.80425
# Shear Modulus (GPa) = 31.73399 35.56522 33.64960
#
# Velocity S-wave (km/s) = 4.06168 4.29987 4.18247
# Velocity P-wave (km/s) = 7.01226 7.72373 7.37658
#
# Compressibility (1/GPa) = 0.01912974
#
# Stress axis : x y z
#
# Youngs Moduli (GPa) = 163.09915 59.22145 64.47683
#
# Poissons Ratio (x) = 0.16857 0.17396
# Poissons Ratio (y) = 0.46426 0.26782
# Poissons Ratio (z) = 0.44005 0.24599
#
# Static dielectric constant tensor:
#      x y z
#    x 1.686900 0.000000 0.000000 
#    y 0.000000 1.684570 0.000000 
#    z 0.000000 0.000000 1.670780 
# 
# From -- ./inp_files/50986.got.cif
#   From: 2010.05.17/outbox.cif.g08.bks.cpg/sg71_26_cif.got.tgz:50986.got - 2010.06.03 16:22:01.
