data_PCOD9523018
_publ_section_title
;
Structure prediction by ZEFSAII (Michael W. Deem and Ramdas Pophale) SiO2 
 PCOD9523018
Probable space group: I M M M
;
_chemical_formula_sum "Si O2"
_cell_formula_units_Z 72
_cell_length_a 21.594503
_cell_length_b 7.988506
_cell_length_c 20.133322
_cell_angle_alpha 90.000000
_cell_angle_beta 90.000000
_cell_angle_gamma 90.000000
_cell_volume 3473.155423
_symmetry_space_group_name_H-M "I M M M"
_symmetry_group_IT_number 71
_symmetry_cell_setting 'orthorhombic'
loop_
_space_group_symop_operation_xyz
x,y,z
-x,-y,z
x,-y,-z
-x,y,-z
-x,-y,-z
x,y,-z
-x,y,z
x,-y,z
1/2+x,1/2+y,1/2+z
1/2-x,1/2-y,1/2+z
1/2+x,1/2-y,1/2-z
1/2-x,1/2+y,1/2-z
1/2-x,1/2-y,1/2-z
1/2+x,1/2+y,1/2-z
1/2-x,1/2+y,1/2+z
1/2+x,1/2-y,1/2+z
loop_
_atom_site_type_symbol
_atom_site_label
_atom_site_fract_x
_atom_site_fract_y
_atom_site_fract_z
Si Si1 0.822356 0.201357 0.254442
Si Si2 0.568952 0.699685 0.147967
Si Si3 0.266409 0.692556 0.000000
Si Si4 0.431833 0.704039 0.500000
Si Si5 0.166330 0.202534 0.894132
Si Si6 0.598055 0.190063 0.000000
O O1 0.750000 0.250000 0.250000
O O2 0.870738 0.264625 0.310686
O O3 0.843958 0.253304 0.181167
O O4 0.822791 0.000000 0.259867
O O5 0.500000 0.764373 0.167555
O O6 0.567919 0.500000 0.159113
O O7 0.577184 0.728956 0.069286
O O8 0.225117 0.727124 0.934523
O O9 0.286293 0.500000 0.000000
O O10 0.327439 0.802402 0.000000
O O11 0.433886 0.500000 0.500000
O O12 0.500000 0.771062 0.500000
O O13 0.392716 0.753910 0.563486
O O14 0.172721 0.000000 0.896177
O O15 0.576201 0.000000 0.000000
#
# Coordination Sequence:
#
# PCOD9523018 Si02
#       6
#    16  16   8   8  16   8
#     4  10  21  36  56  82 111 145 183 225 274 327
#     4  10  22  40  60  84 115 149 186 230 281 335
#     4  11  21  34  55  82 110 144 186 229 280 333
#     4   8  14  26  48  76 103 134 172 213 259 313
#     4   9  18  33  52  78 111 142 178 226 275 325
#     4  12  24  38  58  82 109 143 186 232 278 333
#
# _framework density 20.730428
#
# number of rings (size 3 to 8) (size 9 to 14) (size 15 to 20)
#    0.000    2.111    0.000    4.333    0.000    8.000 
#    0.000    4.444    0.000    5.333    0.000    6.222 
#    0.000    0.000    0.000    0.000    0.000    0.000 
#
# Total GULP energy -200781.235171 kJ/mol
# GULP energy per Si atom -5577.256533 kJ/mol
# Density = 2.068324 g / cm^3
# Si number density = 20.730428 Si / 1000 Ang^3
#
#
#
# Elastic Constant Matrix: (Units=GPa)
#
#
# Indices 1 2 3 4 5 6 
#
# 1 170.9984 8.4248 76.8362 0.0000 0.0000 0.0000
# 2 8.4248 25.8614 9.0121 0.0000 0.0000 0.0000
# 3 76.8362 9.0121 147.6263 0.0000 0.0000 0.0000
# 4 0.0000 0.0000 0.0000 2.9318 0.0000 0.0000
# 5 0.0000 0.0000 0.0000 0.0000 -14.7070 0.0000
# 6 0.0000 0.0000 0.0000 0.0000 0.0000 18.5675
#
#
#
# Elastic Compliance Matrix: (Units=1/GPa)
#
#
# Indices 1 2 3 4 5 6 
#
# 1 0.007665 -0.001131 -0.003921 0.000000 0.000000 0.000000
# 2 -0.001131 0.039675 -0.001833 0.000000 0.000000 0.000000
# 3 -0.003921 -0.001833 0.008926 0.000000 0.000000 0.000000
# 4 0.000000 0.000000 0.000000 0.341087 0.000000 0.000000
# 5 0.000000 0.000000 0.000000 0.000000 -0.067995 0.000000
# 6 0.000000 0.000000 0.000000 0.000000 0.000000 0.053858
#
#
# Mechanical properties :
#
#
# Convention : Reuss Voigt Hill
#
# Bulk Modulus (GPa) = 23.53113 59.22581 41.37847
# Shear Modulus (GPa) = 12.16094 18.03933 15.10013
#
# Velocity S-wave (km/s) = 2.42466 2.95309 2.70182
# Velocity P-wave (km/s) = 4.38341 6.34501 5.45314
#
# Compressibility (1/GPa) = 0.04249689
#
# Stress axis : x y z
#
# Youngs Moduli (GPa) = 130.45590 25.20480 112.02734
#
# Poissons Ratio (x) = 0.02850 0.43922
# Poissons Ratio (y) = 0.14753 0.20539
# Poissons Ratio (z) = 0.51147 0.04621
#
# Static dielectric constant tensor:
#      x y z
#    x 1.772830 0.000000 0.000000 
#    y 0.000000 1.747870 0.000000 
#    z 0.000000 0.000000 1.352280 
# 
# From -- ./inp_files/54717.got.cif
#   From: 2010.05.17/outbox.cif.g08.bks.cpg/sg71_28_cif.got.tgz:54717.got - 2010.06.03 16:22:01.
