data_PCOD9523469
_publ_section_title
;
Structure prediction by ZEFSAII (Michael W. Deem and Ramdas Pophale) SiO2 
 PCOD9523469
Probable space group: I M M M
;
_chemical_formula_sum "Si O2"
_cell_formula_units_Z 72
_cell_length_a 11.242456
_cell_length_b 30.150052
_cell_length_c 12.315393
_cell_angle_alpha 90.000000
_cell_angle_beta 90.000000
_cell_angle_gamma 90.000000
_cell_volume 4174.433407
_symmetry_space_group_name_H-M "I M M M"
_symmetry_group_IT_number 71
_symmetry_cell_setting 'orthorhombic'
loop_
_space_group_symop_operation_xyz
x,y,z
-x,-y,z
x,-y,-z
-x,y,-z
-x,-y,-z
x,y,-z
-x,y,z
x,-y,z
1/2+x,1/2+y,1/2+z
1/2-x,1/2-y,1/2+z
1/2+x,1/2-y,1/2-z
1/2-x,1/2+y,1/2-z
1/2-x,1/2-y,1/2-z
1/2+x,1/2+y,1/2-z
1/2-x,1/2+y,1/2+z
1/2+x,1/2-y,1/2+z
loop_
_atom_site_type_symbol
_atom_site_label
_atom_site_fract_x
_atom_site_fract_y
_atom_site_fract_z
Si Si1 0.252917 0.550551 0.726968
Si Si2 0.644051 0.214663 0.231062
Si Si3 0.641562 0.829158 0.000000
Si Si4 0.141834 0.373297 0.874925
Si Si5 0.500000 0.446216 0.375328
Si Si6 0.858469 0.570910 0.500000
O O1 0.255272 0.500000 0.770040
O O2 0.198135 0.586121 0.808460
O O3 0.383838 0.565921 0.691477
O O4 0.184151 0.549833 0.611982
O O5 0.500000 0.227549 0.238140
O O6 0.750000 0.250000 0.250000
O O7 0.667432 0.196610 0.109837
O O8 0.661201 0.173339 0.313311
O O9 0.500000 0.835497 0.000000
O O10 0.691497 0.878778 0.000000
O O11 0.000000 0.380368 0.874570
O O12 0.182696 0.371535 0.000000
O O13 0.500000 0.500000 0.382540
O O14 0.500000 0.429890 0.500000
O O15 0.000000 0.570597 0.500000
#
# Coordination Sequence:
#
# PCOD9523469 Si02
#       6
#    16  16   8  16   8   8
#     4  11  21  35  57  83 114 153 196 236 282 341
#     4  10  21  39  62  86 116 152 191 237 291 347
#     4   9  18  35  58  82 115 151 179 228 296 344
#     4  10  22  40  59  82 118 157 191 236 291 342
#     4   9  18  34  53  77 111 151 188 233 291 339
#     4  11  19  31  53  86 118 145 185 237 289 339
#
# _framework density 17.247848999999999
#
# number of rings (size 3 to 8) (size 9 to 14) (size 15 to 20)
#    0.000    1.889    3.333    1.000    1.556    2.667 
#    2.000    1.667    2.444    2.000    0.000    0.000 
#    0.000    0.000    0.000    0.000    0.000    0.000 
#
# Total GULP energy -200573.606756 kJ/mol
# GULP energy per Si atom -5571.489077 kJ/mol
# Density = 1.720859 g / cm^3
# Si number density = 17.247849 Si / 1000 Ang^3
#
#
#
# Elastic Constant Matrix: (Units=GPa)
#
#
# Indices 1 2 3 4 5 6 
#
# 1 94.8230 61.5790 51.5527 0.0001 0.0000 -0.0001
# 2 61.5790 114.0868 68.0312 0.0001 0.0000 -0.0001
# 3 51.5527 68.0312 144.3277 0.0008 0.0003 -0.0010
# 4 0.0001 0.0001 0.0008 -2.7558 -0.0001 -0.0003
# 5 0.0000 0.0000 0.0003 -0.0001 21.5954 0.0000
# 6 -0.0001 -0.0001 -0.0010 -0.0003 0.0000 43.7263
#
#
#
# Elastic Compliance Matrix: (Units=1/GPa)
#
#
# Indices 1 2 3 4 5 6 
#
# 1 0.016817 -0.007643 -0.002404 0.000000 0.000000 0.000000
# 2 -0.007643 0.015666 -0.004654 -0.000001 0.000000 0.000000
# 3 -0.002404 -0.004654 0.009981 0.000003 0.000000 0.000000
# 4 0.000000 -0.000001 0.000003 -0.362877 -0.000002 -0.000002
# 5 0.000000 0.000000 0.000000 -0.000002 0.046306 0.000000
# 6 0.000000 0.000000 0.000000 -0.000002 0.000000 0.022870
#
#
# Mechanical properties :
#
#
# Convention : Reuss Voigt Hill
#
# Bulk Modulus (GPa) = 76.56529 79.50701 78.03615
# Shear Modulus (GPa) = -22.99064 23.98483 0.49709
#
# Velocity S-wave (km/s) = -3.65493 3.73312 0.53743
# Velocity P-wave (km/s) = 5.16490 8.04850 6.76220
#
# Compressibility (1/GPa) = 0.01306075
#
# Stress axis : x y z
#
# Youngs Moduli (GPa) = 59.46508 63.83144 100.18775
#
# Poissons Ratio (x) = 0.48789 0.24084
# Poissons Ratio (y) = 0.45451 0.46631
# Poissons Ratio (z) = 0.14295 0.29710
#
# Static dielectric constant tensor:
#      x y z
#    x 1.814610 0.000000 0.000010 
#    y 0.000000 1.606910 0.000000 
#    z 0.000010 0.000000 1.558570 
# 
# From -- ./inp_files/19889.got.cif
#   From: 2010.05.17/outbox.cif.g08.bks.cpg/sg71_10_cif.got.tgz:19889.got - 2010.06.03 16:22:01.
