data_PCOD9523743
_publ_section_title
;
Structure prediction by ZEFSAII (Michael W. Deem and Ramdas Pophale) SiO2 
 PCOD9523743
Probable space group: I M M M
;
_chemical_formula_sum "Si O2"
_cell_formula_units_Z 68
_cell_length_a 15.735123
_cell_length_b 16.507791
_cell_length_c 14.109215
_cell_angle_alpha 90.000000
_cell_angle_beta 90.000000
_cell_angle_gamma 90.000000
_cell_volume 3664.898534
_symmetry_space_group_name_H-M "I M M M"
_symmetry_group_IT_number 71
_symmetry_cell_setting 'orthorhombic'
loop_
_space_group_symop_operation_xyz
x,y,z
-x,-y,z
x,-y,-z
-x,y,-z
-x,-y,-z
x,y,-z
-x,y,z
x,-y,z
1/2+x,1/2+y,1/2+z
1/2-x,1/2-y,1/2+z
1/2+x,1/2-y,1/2-z
1/2-x,1/2+y,1/2-z
1/2-x,1/2-y,1/2-z
1/2+x,1/2+y,1/2-z
1/2-x,1/2+y,1/2+z
1/2+x,1/2-y,1/2+z
loop_
_atom_site_type_symbol
_atom_site_label
_atom_site_fract_x
_atom_site_fract_y
_atom_site_fract_z
Si Si1 0.741719 0.903184 0.727358
Si Si2 0.000000 0.000000 0.833691
Si Si3 0.406186 0.597891 0.887825
Si Si4 0.643843 0.371418 0.610648
Si Si5 0.400657 0.817588 0.390903
O O1 0.824163 0.872605 0.667671
O O2 0.767519 0.882557 0.834603
O O3 0.659379 0.862077 0.683549
O O4 0.735368 0.000000 0.716637
O O5 0.074606 0.929954 0.841823
O O6 0.500000 0.628456 0.859006
O O7 0.409674 0.500000 0.874113
O O8 0.396542 0.611976 0.000000
O O9 0.648296 0.393689 0.500000
O O10 0.614458 0.278632 0.616527
O O11 0.378606 0.841277 0.500000
O O12 0.500000 0.834942 0.376338
#
# Coordination Sequence:
#
# PCOD9523743 Si02
#       5
#    16   4  16  16  16
#     4  11  22  33  55  84 114 151 192 234 279 346
#     4  12  21  36  64  92 113 144 189 240 300 354
#     4   8  15  27  43  68 104 141 178 223 274 329
#     4  11  22  37  59  88 119 147 185 242 299 347
#     4  10  22  40  59  81 115 156 195 240 288 332
#
# _framework density 18.554402
#
# number of rings (size 3 to 8) (size 9 to 14) (size 15 to 20)
#    0.000    1.882    2.353    3.176    1.647    1.882 
#    0.000    1.176    0.000    0.706    0.000    1.647 
#    0.000    0.000    0.000    0.000    0.000    0.000 
#
# Total GULP energy -189349.331891 kJ/mol
# GULP energy per Si atom -5569.097997 kJ/mol
# Density = 1.851217 g / cm^3
# Si number density = 18.554402 Si / 1000 Ang^3
#
#
#
# Elastic Constant Matrix: (Units=GPa)
#
#
# Indices 1 2 3 4 5 6 
#
# 1 95.8590 27.3886 46.1558 0.0000 0.0000 0.0000
# 2 27.3886 26.2676 21.8470 0.0000 0.0000 0.0000
# 3 46.1558 21.8470 68.0829 0.0000 0.0000 0.0000
# 4 0.0000 0.0000 0.0000 13.6024 0.0000 0.0000
# 5 0.0000 0.0000 0.0000 0.0000 8.3946 0.0000
# 6 0.0000 0.0000 0.0000 0.0000 0.0000 34.3824
#
#
#
# Elastic Compliance Matrix: (Units=1/GPa)
#
#
# Indices 1 2 3 4 5 6 
#
# 1 0.017745 -0.011590 -0.008311 0.000000 0.000000 0.000000
# 2 -0.011590 0.059499 -0.011235 0.000000 0.000000 0.000000
# 3 -0.008311 -0.011235 0.023927 0.000000 0.000000 0.000000
# 4 0.000000 0.000000 0.000000 0.073516 0.000000 0.000000
# 5 0.000000 0.000000 0.000000 0.000000 0.119124 0.000000
# 6 0.000000 0.000000 0.000000 0.000000 0.000000 0.029085
#
#
# Mechanical properties :
#
#
# Convention : Reuss Voigt Hill
#
# Bulk Modulus (GPa) = 25.70751 42.33246 34.01998
# Shear Modulus (GPa) = 12.55854 17.59708 15.07781
#
# Velocity S-wave (km/s) = 2.60446 3.08296 2.85375
# Velocity P-wave (km/s) = 4.78848 5.96135 5.40681
#
# Compressibility (1/GPa) = 0.03889914
#
# Stress axis : x y z
#
# Youngs Moduli (GPa) = 56.35320 16.80702 41.79297
#
# Poissons Ratio (x) = 0.19480 0.34734
# Poissons Ratio (y) = 0.65315 0.46955
# Poissons Ratio (z) = 0.46835 0.18883
#
# Static dielectric constant tensor:
#      x y z
#    x 1.641200 0.000000 0.000000 
#    y 0.000000 1.619410 0.000000 
#    z 0.000000 0.000000 1.713360 
# 
# From -- ./inp_files/23478.got.cif
#   From: 2010.05.17/outbox.cif.g08.bks.cpg/sg71_12_cif.got.tgz:23478.got - 2010.06.03 16:22:01.
