data_PCOD9523851
_publ_section_title
;
Structure prediction by ZEFSAII (Michael W. Deem and Ramdas Pophale) SiO2 
 PCOD9523851
Probable space group: I M M M
;
_chemical_formula_sum "Si O2"
_cell_formula_units_Z 64
_cell_length_a 8.938108
_cell_length_b 13.778945
_cell_length_c 26.895965
_cell_angle_alpha 90.000000
_cell_angle_beta 90.000000
_cell_angle_gamma 90.000000
_cell_volume 3312.445149
_symmetry_space_group_name_H-M "I M M M"
_symmetry_group_IT_number 71
_symmetry_cell_setting 'orthorhombic'
loop_
_space_group_symop_operation_xyz
x,y,z
-x,-y,z
x,-y,-z
-x,y,-z
-x,-y,-z
x,y,-z
-x,y,z
x,-y,z
1/2+x,1/2+y,1/2+z
1/2-x,1/2-y,1/2+z
1/2+x,1/2-y,1/2-z
1/2-x,1/2+y,1/2-z
1/2-x,1/2-y,1/2-z
1/2+x,1/2+y,1/2-z
1/2-x,1/2+y,1/2+z
1/2+x,1/2-y,1/2+z
loop_
_atom_site_type_symbol
_atom_site_label
_atom_site_fract_x
_atom_site_fract_y
_atom_site_fract_z
Si Si1 0.181076 0.110642 0.380096
Si Si2 0.326294 0.000000 0.921583
Si Si3 0.172465 0.500000 0.696846
Si Si4 0.176488 0.210332 0.941917
Si Si5 0.678132 0.349062 0.234409
O O1 0.250406 0.202732 0.409346
O O2 0.221672 0.119369 0.321493
O O3 0.000000 0.117559 0.383909
O O4 0.223092 0.000000 0.396645
O O5 0.324285 0.000000 0.861942
O O6 0.248909 0.897665 0.936415
O O7 0.500000 0.000000 0.938276
O O8 0.260119 0.413624 0.721570
O O9 0.000000 0.500000 0.712973
O O10 0.000000 0.203066 0.929681
O O11 0.191646 0.237196 0.000000
O O12 0.500000 0.347113 0.234760
O O13 0.750000 0.250000 0.250000
#
# Coordination Sequence:
#
# PCOD9523851 Si02
#       5
#    16   8   8  16  16
#     4  10  22  42  64  89 125 167 212 259 307 369
#     4  11  24  42  65  94 126 163 211 260 309 378
#     4  11  23  38  58  89 123 159 200 244 299 363
#     4  11  25  43  64  93 126 161 206 264 325 378
#     4  11  22  38  59  88 124 162 204 252 300 360
#
# _framework density 19.321075
#
# number of rings (size 3 to 8) (size 9 to 14) (size 15 to 20)
#    0.000    1.250    1.250    4.125    0.000   14.500 
#    0.000    2.500    0.000    0.000    0.000    0.000 
#    0.000    0.000    0.000    0.000    0.000    0.000 
#
# Total GULP energy -178487.129954 kJ/mol
# GULP energy per Si atom -5577.722811 kJ/mol
# Density = 1.927710 g / cm^3
# Si number density = 19.321075 Si / 1000 Ang^3
#
#
#
# Elastic Constant Matrix: (Units=GPa)
#
#
# Indices 1 2 3 4 5 6 
#
# 1 88.3737 51.5893 44.9595 0.0000 0.0000 0.0000
# 2 51.5893 150.6167 38.3409 0.0000 0.0000 0.0000
# 3 44.9595 38.3409 83.4216 0.0000 0.0000 0.0000
# 4 0.0000 0.0000 0.0000 38.6212 0.0000 0.0000
# 5 0.0000 0.0000 0.0000 0.0000 33.6106 0.0000
# 6 0.0000 0.0000 0.0000 0.0000 0.0000 35.9596
#
#
#
# Elastic Compliance Matrix: (Units=1/GPa)
#
#
# Indices 1 2 3 4 5 6 
#
# 1 0.017559 -0.004083 -0.007587 0.000000 0.000000 0.000000
# 2 -0.004083 0.008469 -0.001692 0.000000 0.000000 0.000000
# 3 -0.007587 -0.001692 0.016854 0.000000 0.000000 0.000000
# 4 0.000000 0.000000 0.000000 0.025893 0.000000 0.000000
# 5 0.000000 0.000000 0.000000 0.000000 0.029753 0.000000
# 6 0.000000 0.000000 0.000000 0.000000 0.000000 0.027809
#
#
# Mechanical properties :
#
#
# Convention : Reuss Voigt Hill
#
# Bulk Modulus (GPa) = 61.88776 65.79904 63.84340
# Shear Modulus (GPa) = 31.55704 34.13977 32.84841
#
# Velocity S-wave (km/s) = 4.04579 4.20810 4.12774
# Velocity P-wave (km/s) = 7.34339 7.59870 7.47213
#
# Compressibility (1/GPa) = 0.01615828
#
# Stress axis : x y z
#
# Youngs Moduli (GPa) = 56.95188 118.08464 59.33471
#
# Poissons Ratio (x) = 0.48214 0.45015
# Poissons Ratio (y) = 0.23253 0.10037
# Poissons Ratio (z) = 0.43207 0.19976
#
# Static dielectric constant tensor:
#      x y z
#    x 1.658630 0.000000 0.000000 
#    y 0.000000 1.637900 0.000000 
#    z 0.000000 0.000000 1.650480 
# 
# From -- ./inp_files/31196.got.cif
#   From: 2010.05.17/outbox.cif.g08.bks.cpg/sg71_16_cif.got.tgz:31196.got - 2010.06.03 16:22:01.
