data_PCOD9523079
_publ_section_title
;
Structure prediction by ZEFSAII (Michael W. Deem and Ramdas Pophale) SiO2 
 PCOD9523079
Probable space group: I M M M
;
_chemical_formula_sum "Si O2"
_cell_formula_units_Z 96
_cell_length_a 30.112491
_cell_length_b 8.808613
_cell_length_c 19.588490
_cell_angle_alpha 90.000000
_cell_angle_beta 90.000000
_cell_angle_gamma 90.000000
_cell_volume 5195.832863
_symmetry_space_group_name_H-M "I M M M"
_symmetry_group_IT_number 71
_symmetry_cell_setting 'orthorhombic'
loop_
_space_group_symop_operation_xyz
x,y,z
-x,-y,z
x,-y,-z
-x,y,-z
-x,-y,-z
x,y,-z
-x,y,z
x,-y,z
1/2+x,1/2+y,1/2+z
1/2-x,1/2-y,1/2+z
1/2+x,1/2-y,1/2-z
1/2-x,1/2+y,1/2-z
1/2-x,1/2-y,1/2-z
1/2+x,1/2+y,1/2-z
1/2-x,1/2+y,1/2+z
1/2+x,1/2-y,1/2+z
loop_
_atom_site_type_symbol
_atom_site_label
_atom_site_fract_x
_atom_site_fract_y
_atom_site_fract_z
Si Si1 0.120733 0.323919 0.667000
Si Si2 0.550446 0.315161 0.421163
Si Si3 0.770499 0.182225 0.820170
Si Si4 0.126058 0.816832 0.814926
Si Si5 0.799842 0.181946 0.420432
Si Si6 0.053062 0.828065 0.421161
O O1 0.132213 0.500000 0.672006
O O2 0.116064 0.252644 0.741375
O O3 0.158382 0.239234 0.623240
O O4 0.075687 0.294476 0.625996
O O5 0.557844 0.268793 0.500000
O O6 0.500000 0.268819 0.401236
O O7 0.550736 0.500000 0.420513
O O8 0.589808 0.265327 0.370825
O O9 0.750000 0.250000 0.750000
O O10 0.822418 0.221898 0.829076
O O11 0.742602 0.246128 0.883353
O O12 0.766682 0.000000 0.816589
O O13 0.123486 0.000000 0.811049
O O14 0.803505 0.225691 0.500000
O O15 0.797592 0.000000 0.416560
O O16 0.066703 0.808583 0.500000
O O17 0.000000 0.820958 0.418480
O O18 0.066453 0.000000 0.400294
#
# Coordination Sequence:
#
# PCOD9523079 Si02
#       6
#    16  16  16  16  16  16
#     4  12  24  36  55  83 116 152 189 237 291 347
#     4   8  15  31  57  88 118 147 186 238 290 341
#     4  11  22  37  59  84 116 155 196 245 297 352
#     4  10  21  36  58  86 116 152 192 234 286 351
#     4  11  24  41  61  84 113 151 196 244 294 353
#     4   9  19  37  59  80 106 145 190 235 285 341
#
# _framework density 18.476344000000001
#
# number of rings (size 3 to 8) (size 9 to 14) (size 15 to 20)
#    0.000    1.833    1.667    4.000    0.000    6.000 
#    0.000    4.167    0.000    0.500    0.000    1.167 
#    0.000    0.000    0.000    0.000    0.000    0.000 
#
# Total GULP energy -267985.457877 kJ/mol
# GULP energy per Si atom -5583.030372 kJ/mol
# Density = 1.843429 g / cm^3
# Si number density = 18.476344 Si / 1000 Ang^3
#
#
#
# Elastic Constant Matrix: (Units=GPa)
#
#
# Indices 1 2 3 4 5 6 
#
# 1 120.9960 34.9078 86.3390 0.0000 0.0000 0.0000
# 2 34.9078 26.0143 35.0595 0.0000 0.0000 0.0000
# 3 86.3390 35.0595 137.8731 0.0000 0.0000 0.0000
# 4 0.0000 0.0000 0.0000 20.9513 0.0000 0.0000
# 5 0.0000 0.0000 0.0000 0.0000 39.7248 0.0000
# 6 0.0000 0.0000 0.0000 0.0000 0.0000 25.4187
#
#
#
# Elastic Compliance Matrix: (Units=1/GPa)
#
#
# Indices 1 2 3 4 5 6 
#
# 1 0.017508 -0.013263 -0.007591 0.000000 0.000000 0.000000
# 2 -0.013263 0.068529 -0.009121 0.000000 0.000000 0.000000
# 3 -0.007591 -0.009121 0.014326 0.000000 0.000000 0.000000
# 4 0.000000 0.000000 0.000000 0.047730 0.000000 0.000000
# 5 0.000000 0.000000 0.000000 0.000000 0.025173 0.000000
# 6 0.000000 0.000000 0.000000 0.000000 0.000000 0.039341
#
#
# Mechanical properties :
#
#
# Convention : Reuss Voigt Hill
#
# Bulk Modulus (GPa) = 24.74395 66.38844 45.56620
# Shear Modulus (GPa) = 17.48077 25.79076 21.63577
#
# Velocity S-wave (km/s) = 3.07924 3.74020 3.42570
# Velocity P-wave (km/s) = 5.10525 7.39336 6.35316
#
# Compressibility (1/GPa) = 0.04041391
#
# Stress axis : x y z
#
# Youngs Moduli (GPa) = 57.11675 14.59228 69.80214
#
# Poissons Ratio (x) = 0.19353 0.52989
# Poissons Ratio (y) = 0.75752 0.63665
# Poissons Ratio (z) = 0.43359 0.13309
#
# Static dielectric constant tensor:
#      x y z
#    x 1.656320 0.000000 0.000000 
#    y 0.000000 1.631350 0.000000 
#    z 0.000000 0.000000 1.610710 
# 
# From -- ./inp_files/56139.got.cif
#   From: 2010.05.17/outbox.cif.g08.bks.cpg/sg71_29_cif.got.tgz:56139.got - 2010.06.03 16:22:01.
