data_PCOD9523062
_publ_section_title
;
Structure prediction by ZEFSAII (Michael W. Deem and Ramdas Pophale) SiO2 
 PCOD9523062
Probable space group: I M M M
;
_chemical_formula_sum "Si O2"
_cell_formula_units_Z 88
_cell_length_a 21.056801
_cell_length_b 9.029058
_cell_length_c 25.662659
_cell_angle_alpha 90.000000
_cell_angle_beta 90.000000
_cell_angle_gamma 90.000000
_cell_volume 4879.063707
_symmetry_space_group_name_H-M "I M M M"
_symmetry_group_IT_number 71
_symmetry_cell_setting 'orthorhombic'
loop_
_space_group_symop_operation_xyz
x,y,z
-x,-y,z
x,-y,-z
-x,y,-z
-x,-y,-z
x,y,-z
-x,y,z
x,-y,z
1/2+x,1/2+y,1/2+z
1/2-x,1/2-y,1/2+z
1/2+x,1/2-y,1/2-z
1/2-x,1/2+y,1/2-z
1/2-x,1/2-y,1/2-z
1/2+x,1/2+y,1/2-z
1/2-x,1/2+y,1/2+z
1/2+x,1/2-y,1/2+z
loop_
_atom_site_type_symbol
_atom_site_label
_atom_site_fract_x
_atom_site_fract_y
_atom_site_fract_z
Si Si1 0.635398 0.178132 0.500000
Si Si2 0.674257 0.675266 0.690282
Si Si3 0.500000 0.665669 0.061903
Si Si4 0.370598 0.823552 0.908217
Si Si5 0.188751 0.173988 0.311773
Si Si6 0.274137 0.821543 0.000000
Si Si7 0.425427 0.821303 0.388378
O O1 0.705190 0.248852 0.500000
O O2 0.598553 0.218594 0.446735
O O3 0.641385 0.000000 0.500000
O O4 0.682524 0.500000 0.678948
O O5 0.740099 0.762451 0.681962
O O6 0.664310 0.690594 0.752515
O O7 0.619067 0.742237 0.654293
O O8 0.500000 0.500000 0.084758
O O9 0.562981 0.752342 0.076809
O O10 0.500000 0.653769 0.000000
O O11 0.352849 0.766035 0.851583
O O12 0.315706 0.778897 0.949411
O O13 0.374940 0.000000 0.910088
O O14 0.188492 0.000000 0.324462
O O15 0.267131 0.000000 0.000000
O O16 0.500000 0.784393 0.382496
O O17 0.419096 0.000000 0.382973
#
# Coordination Sequence:
#
# PCOD9523062 Si02
#       7
#     8  16   8  16  16   8  16
#     4  10  21  36  57  85 114 147 187 233 280 331
#     4  10  21  38  60  86 116 150 188 237 291 340
#     4  11  23  39  59  83 115 155 197 236 285 348
#     4  11  22  38  59  84 116 153 193 238 289 343
#     4  10  21  38  60  86 115 149 191 240 288 341
#     4  10  22  36  54  83 117 147 182 233 286 336
#     4  10  21  38  59  83 114 152 192 233 281 341
#
# _framework density 18.036246999999999
#
# number of rings (size 3 to 8) (size 9 to 14) (size 15 to 20)
#    0.000    1.727    0.909    3.273    0.000    9.091 
#    1.636    0.000    0.000    1.636    0.000    0.000 
#    0.000    0.000    0.000    0.000    0.000    0.000 
#
# Total GULP energy -245718.244091 kJ/mol
# GULP energy per Si atom -5584.505548 kJ/mol
# Density = 1.799520 g / cm^3
# Si number density = 18.036247 Si / 1000 Ang^3
#
#
#
# Elastic Constant Matrix: (Units=GPa)
#
#
# Indices 1 2 3 4 5 6 
#
# 1 124.0365 47.8914 57.3906 0.0000 0.0000 0.0000
# 2 47.8914 71.9546 42.7668 0.0000 0.0000 0.0000
# 3 57.3906 42.7668 61.6113 0.0000 0.0000 0.0000
# 4 0.0000 0.0000 0.0000 28.1070 0.0000 0.0000
# 5 0.0000 0.0000 0.0000 0.0000 -16.9607 0.0000
# 6 0.0000 0.0000 0.0000 0.0000 0.0000 37.1976
#
#
#
# Elastic Compliance Matrix: (Units=1/GPa)
#
#
# Indices 1 2 3 4 5 6 
#
# 1 0.014484 -0.002760 -0.011576 0.000000 0.000000 0.000000
# 2 -0.002760 0.024184 -0.014216 0.000000 0.000000 0.000000
# 3 -0.011576 -0.014216 0.036882 0.000000 0.000000 0.000000
# 4 0.000000 0.000000 0.000000 0.035578 0.000000 0.000000
# 5 0.000000 0.000000 0.000000 0.000000 -0.058960 0.000000
# 6 0.000000 0.000000 0.000000 0.000000 0.000000 0.026883
#
#
# Mechanical properties :
#
#
# Convention : Reuss Voigt Hill
#
# Bulk Modulus (GPa) = 54.21361 61.52224 57.86792
# Shear Modulus (GPa) = 35.13600 16.97236 26.05418
#
# Velocity S-wave (km/s) = 4.41849 3.07092 3.80484
# Velocity P-wave (km/s) = 7.49361 6.83802 7.17331
#
# Compressibility (1/GPa) = 0.01844555
#
# Stress axis : x y z
#
# Youngs Moduli (GPa) = 69.04274 41.34936 27.11373
#
# Poissons Ratio (x) = 0.11412 0.31386
# Poissons Ratio (y) = 0.19055 0.38546
# Poissons Ratio (z) = 0.79922 0.58784
#
# Static dielectric constant tensor:
#      x y z
#    x 1.582790 0.000000 0.000000 
#    y 0.000000 1.609490 0.000000 
#    z 0.000000 0.000000 1.620310 
# 
# From -- ./inp_files/61166.got.cif
#   From: 2010.05.17/outbox.cif.g08.bks.cpg/sg71_31_cif.got.tgz:61166.got - 2010.06.03 16:22:01.
