data_PCOD9523903
_publ_section_title
;
Structure prediction by ZEFSAII (Michael W. Deem and Ramdas Pophale) SiO2 
 PCOD9523903
Probable space group: I M M M
;
_chemical_formula_sum "Si O2"
_cell_formula_units_Z 100
_cell_length_a 21.841227
_cell_length_b 27.136970
_cell_length_c 8.180416
_cell_angle_alpha 90.000000
_cell_angle_beta 90.000000
_cell_angle_gamma 90.000000
_cell_volume 4848.571190
_symmetry_space_group_name_H-M "I M M M"
_symmetry_group_IT_number 71
_symmetry_cell_setting 'orthorhombic'
loop_
_space_group_symop_operation_xyz
x,y,z
-x,-y,z
x,-y,-z
-x,y,-z
-x,-y,-z
x,y,-z
-x,y,z
x,-y,z
1/2+x,1/2+y,1/2+z
1/2-x,1/2-y,1/2+z
1/2+x,1/2-y,1/2-z
1/2-x,1/2+y,1/2-z
1/2-x,1/2-y,1/2-z
1/2+x,1/2+y,1/2-z
1/2-x,1/2+y,1/2+z
1/2+x,1/2-y,1/2+z
loop_
_atom_site_type_symbol
_atom_site_label
_atom_site_fract_x
_atom_site_fract_y
_atom_site_fract_z
Si Si1 0.073655 0.323061 0.188890
Si Si2 0.500000 0.000000 0.296739
Si Si3 0.429986 0.713118 0.696298
Si Si4 0.429504 0.441397 0.313556
Si Si5 0.742480 0.054323 0.698312
Si Si6 0.605135 0.072132 0.189541
Si Si7 0.338602 0.630199 0.816604
O O1 0.087358 0.268240 0.253474
O O2 0.098463 0.369491 0.285889
O O3 0.000000 0.326237 0.188295
O O4 0.094816 0.327098 0.000000
O O5 0.446282 0.957181 0.289721
O O6 0.434125 0.715796 0.500000
O O7 0.500000 0.700986 0.754344
O O8 0.377208 0.674344 0.738095
O O9 0.411062 0.427747 0.500000
O O10 0.500000 0.426429 0.294430
O O11 0.426593 0.500000 0.299933
O O12 0.387191 0.414415 0.186723
O O13 0.744538 0.055844 0.500000
O O14 0.672872 0.057372 0.756510
O O15 0.780080 0.102098 0.759730
O O16 0.767330 0.000000 0.748888
O O17 0.594106 0.059248 0.000000
O O18 0.322537 0.645489 0.000000
#
# Coordination Sequence:
#
# PCOD9523903 Si02
#       7
#    16   4  16  16  16  16  16
#     4   9  19  37  60  87 118 152 190 233 285 341
#     4  12  25  40  61  98 137 152 171 230 295 344
#     4   9  19  37  60  85 116 153 196 245 289 338
#     4   9  18  32  50  74 105 142 187 237 289 349
#     4  10  23  42  58  78 114 157 198 238 282 340
#     4  12  23  39  62  91 125 153 182 228 287 346
#     4  11  22  35  54  80 112 149 193 245 294 339
#
# _framework density 20.624632999999999
#
# number of rings (size 3 to 8) (size 9 to 14) (size 15 to 20)
#    0.000    1.920    1.600    4.080    0.000    5.440 
#    0.000    4.800    0.000    0.000    0.000    0.000 
#    0.000    0.000    0.000    0.000    0.000    0.000 
#
# Total GULP energy -278452.759363 kJ/mol
# GULP energy per Si atom -5569.055187 kJ/mol
# Density = 2.057769 g / cm^3
# Si number density = 20.624633 Si / 1000 Ang^3
#
#
#
# Elastic Constant Matrix: (Units=GPa)
#
#
# Indices 1 2 3 4 5 6 
#
# 1 93.8103 58.1671 8.9475 0.0000 0.0000 0.0000
# 2 58.1671 143.5731 12.8193 0.0000 0.0000 0.0000
# 3 8.9475 12.8193 21.2162 0.0000 0.0000 0.0000
# 4 0.0000 0.0000 0.0000 20.9282 0.0000 0.0000
# 5 0.0000 0.0000 0.0000 0.0000 0.3971 0.0000
# 6 0.0000 0.0000 0.0000 0.0000 0.0000 45.3570
#
#
#
# Elastic Compliance Matrix: (Units=1/GPa)
#
#
# Indices 1 2 3 4 5 6 
#
# 1 0.014380 -0.005586 -0.002689 0.000000 0.000000 0.000000
# 2 -0.005586 0.009532 -0.003404 0.000000 0.000000 0.000000
# 3 -0.002689 -0.003404 0.050325 0.000000 0.000000 0.000000
# 4 0.000000 0.000000 0.000000 0.047782 0.000000 0.000000
# 5 0.000000 0.000000 0.000000 0.000000 2.518485 0.000000
# 6 0.000000 0.000000 0.000000 0.000000 0.000000 0.022047
#
#
# Mechanical properties :
#
#
# Convention : Reuss Voigt Hill
#
# Bulk Modulus (GPa) = 19.65458 46.49635 33.07546
# Shear Modulus (GPa) = 1.84989 25.24752 13.54870
#
# Velocity S-wave (km/s) = 0.94809 3.50257 2.56582
# Velocity P-wave (km/s) = 3.27854 6.24102 4.98494
#
# Compressibility (1/GPa) = 0.05087873
#
# Stress axis : x y z
#
# Youngs Moduli (GPa) = 69.54251 104.91006 19.87097
#
# Poissons Ratio (x) = 0.58599 0.05344
# Poissons Ratio (y) = 0.38844 0.06764
# Poissons Ratio (z) = 0.18703 0.35709
#
# Static dielectric constant tensor:
#      x y z
#    x 1.718360 0.000000 0.000000 
#    y 0.000000 1.762600 0.000000 
#    z 0.000000 0.000000 1.789750 
# 
# From -- ./inp_files/11134.got.cif
#   From: 2010.05.17/outbox.cif.g08.bks.cpg/sg71_6_cif.got.tgz:11134.got - 2010.06.03 16:22:01.
