data_PCOD9523796
_publ_section_title
;
Structure prediction by ZEFSAII (Michael W. Deem and Ramdas Pophale) SiO2 
 PCOD9523796
Probable space group: I M M M
;
_chemical_formula_sum "Si O2"
_cell_formula_units_Z 96
_cell_length_a 19.964257
_cell_length_b 23.941694
_cell_length_c 11.875527
_cell_angle_alpha 90.000000
_cell_angle_beta 90.000000
_cell_angle_gamma 90.000000
_cell_volume 5676.242212
_symmetry_space_group_name_H-M "I M M M"
_symmetry_group_IT_number 71
_symmetry_cell_setting 'orthorhombic'
loop_
_space_group_symop_operation_xyz
x,y,z
-x,-y,z
x,-y,-z
-x,y,-z
-x,-y,-z
x,y,-z
-x,y,z
x,-y,z
1/2+x,1/2+y,1/2+z
1/2-x,1/2-y,1/2+z
1/2+x,1/2-y,1/2-z
1/2-x,1/2+y,1/2-z
1/2-x,1/2-y,1/2-z
1/2+x,1/2+y,1/2-z
1/2-x,1/2+y,1/2+z
1/2+x,1/2-y,1/2+z
loop_
_atom_site_type_symbol
_atom_site_label
_atom_site_fract_x
_atom_site_fract_y
_atom_site_fract_z
Si Si1 0.197932 0.566429 0.000000
Si Si2 0.782507 0.063220 0.729461
Si Si3 0.074320 0.077432 0.370096
Si Si4 0.252861 0.828577 0.870151
Si Si5 0.346428 0.770685 0.689097
Si Si6 0.418567 0.157225 0.500000
Si Si7 0.576336 0.711014 0.118998
O O1 0.242087 0.578276 0.113152
O O2 0.184669 0.500000 0.000000
O O3 0.129055 0.601897 0.000000
O O4 0.860879 0.060016 0.697898
O O5 0.774171 0.112189 0.821553
O O6 0.760866 0.000000 0.763123
O O7 0.080334 0.059270 0.500000
O O8 0.076306 0.144481 0.374260
O O9 0.000000 0.061728 0.328632
O O10 0.305715 0.810614 0.774114
O O11 0.201900 0.775347 0.868652
O O12 0.275459 0.835490 0.000000
O O13 0.392225 0.806402 0.605774
O O14 0.390608 0.734478 0.772226
O O15 0.500000 0.149183 0.500000
O O16 0.500000 0.730142 0.115397
O O17 0.610085 0.727046 0.000000
#
# Coordination Sequence:
#
# PCOD9523796 Si02
#       7
#     8  16  16  16  16   8  16
#     4  10  22  41  61  88 116 150 194 246 307 347
#     4  11  21  36  59  80 112 152 195 247 290 342
#     4   9  17  29  49  80 113 147 189 235 289 342
#     4  11  23  37  57  82 112 152 194 235 289 339
#     4  11  21  36  56  85 117 144 186 236 289 347
#     4  12  24  39  62  93 122 152 190 236 298 360
#     4   9  17  30  50  76 109 149 182 219 278 346
#
# _framework density 16.912597999999999
#
# number of rings (size 3 to 8) (size 9 to 14) (size 15 to 20)
#    0.000    1.667    5.000    2.000    0.000    0.833 
#    0.000    0.833    0.000    0.000    0.000    1.167 
#    0.000    2.667    0.000    0.000    0.000    0.000 
#
# Total GULP energy -267269.297011 kJ/mol
# GULP energy per Si atom -5568.110354 kJ/mol
# Density = 1.687410 g / cm^3
# Si number density = 16.912598 Si / 1000 Ang^3
#
#
#
# Elastic Constant Matrix: (Units=GPa)
#
#
# Indices 1 2 3 4 5 6 
#
# 1 91.6918 38.7577 39.0585 0.0000 0.0000 0.0000
# 2 38.7577 88.6007 47.3500 0.0000 0.0000 0.0000
# 3 39.0585 47.3500 102.5347 0.0000 0.0000 0.0000
# 4 0.0000 0.0000 0.0000 -36.8018 0.0000 0.0000
# 5 0.0000 0.0000 0.0000 0.0000 34.9420 0.0000
# 6 0.0000 0.0000 0.0000 0.0000 0.0000 52.4224
#
#
#
# Elastic Compliance Matrix: (Units=1/GPa)
#
#
# Indices 1 2 3 4 5 6 
#
# 1 0.014209 -0.004412 -0.003375 0.000000 0.000000 0.000000
# 2 -0.004412 0.016354 -0.005872 0.000000 0.000000 0.000000
# 3 -0.003375 -0.005872 0.013750 0.000000 0.000000 0.000000
# 4 0.000000 0.000000 0.000000 -0.027173 0.000000 0.000000
# 5 0.000000 0.000000 0.000000 0.000000 0.028619 0.000000
# 6 0.000000 0.000000 0.000000 0.000000 0.000000 0.019076
#
#
# Mechanical properties :
#
#
# Convention : Reuss Voigt Hill
#
# Bulk Modulus (GPa) = 58.83830 59.23993 59.03912
# Shear Modulus (GPa) = 51.11528 20.62327 35.86927
#
# Velocity S-wave (km/s) = 5.50353 3.49578 4.61028
# Velocity P-wave (km/s) = 8.67469 7.16918 7.95762
#
# Compressibility (1/GPa) = 0.01699573
#
# Stress axis : x y z
#
# Youngs Moduli (GPa) = 70.37960 61.14526 72.72672
#
# Poissons Ratio (x) = 0.26975 0.24547
# Poissons Ratio (y) = 0.31049 0.42704
# Poissons Ratio (z) = 0.23755 0.35904
#
# Static dielectric constant tensor:
#      x y z
#    x 1.595260 0.000000 0.000000 
#    y 0.000000 1.602320 0.000000 
#    z 0.000000 0.000000 1.582170 
# 
# From -- ./inp_files/24272.got.cif
#   From: 2010.05.17/outbox.cif.g08.bks.cpg/sg71_13_cif.got.tgz:24272.got - 2010.06.03 16:22:01.
