data_PCOD9523907
_publ_section_title
;
Structure prediction by ZEFSAII (Michael W. Deem and Ramdas Pophale) SiO2 
 PCOD9523907
Probable space group: I M M M
;
_chemical_formula_sum "Si O2"
_cell_formula_units_Z 76
_cell_length_a 7.297224
_cell_length_b 27.817805
_cell_length_c 16.848439
_cell_angle_alpha 90.000000
_cell_angle_beta 90.000000
_cell_angle_gamma 90.000000
_cell_volume 3420.111038
_symmetry_space_group_name_H-M "I M M M"
_symmetry_group_IT_number 71
_symmetry_cell_setting 'orthorhombic'
loop_
_space_group_symop_operation_xyz
x,y,z
-x,-y,z
x,-y,-z
-x,y,-z
-x,-y,-z
x,y,-z
-x,y,z
x,-y,z
1/2+x,1/2+y,1/2+z
1/2-x,1/2-y,1/2+z
1/2+x,1/2-y,1/2-z
1/2-x,1/2+y,1/2-z
1/2-x,1/2-y,1/2-z
1/2+x,1/2+y,1/2-z
1/2-x,1/2+y,1/2+z
1/2+x,1/2-y,1/2+z
loop_
_atom_site_type_symbol
_atom_site_label
_atom_site_fract_x
_atom_site_fract_y
_atom_site_fract_z
Si Si1 0.276808 0.445024 0.500000
Si Si2 0.718353 0.316576 0.910016
Si Si3 0.282689 0.290023 0.408576
Si Si4 0.722768 0.583140 0.168476
Si Si5 0.000000 0.500000 0.877159
Si Si6 0.222621 0.110866 0.157250
O O1 0.218410 0.500000 0.500000
O O2 0.500000 0.444294 0.500000
O O3 0.218940 0.417782 0.579235
O O4 0.500000 0.319927 0.914575
O O5 0.755575 0.263625 0.876098
O O6 0.774669 0.364006 0.863835
O O7 0.791865 0.316985 0.000000
O O8 0.210854 0.292333 0.500000
O O9 0.500000 0.296959 0.415108
O O10 0.215329 0.334052 0.355001
O O11 0.500000 0.576748 0.160702
O O12 0.774190 0.584804 0.261666
O O13 0.839020 0.542118 0.126344
O O14 0.000000 0.111303 0.159170
#
# Coordination Sequence:
#
# PCOD9523907 Si02
#       6
#     8  16  16  16   4  16
#     4   9  16  26  50  82 110 152 208 248 281 344
#     4   9  19  37  59  85 119 155 194 238 303 369
#     4   9  16  29  54  86 119 154 194 246 293 352
#     4  10  23  42  63  87 118 159 197 248 305 358
#     4  12  26  44  65  89 122 152 206 254 304 357
#     4   9  17  32  54  84 119 154 204 245 292 352
#
# _framework density 22.221499999999999
#
# number of rings (size 3 to 8) (size 9 to 14) (size 15 to 20)
#    0.000    2.632    1.053    0.316    2.947    0.842 
#    1.895    1.053    0.000    3.789    0.000    0.000 
#    0.000    0.000    0.000    0.000    0.000    0.000 
#
# Total GULP energy -211602.636471 kJ/mol
# GULP energy per Si atom -5568.490433 kJ/mol
# Density = 2.217092 g / cm^3
# Si number density = 22.221500 Si / 1000 Ang^3
#
#
#
# Elastic Constant Matrix: (Units=GPa)
#
#
# Indices 1 2 3 4 5 6 
#
# 1 109.4563 11.2249 -2.0953 0.0000 0.0000 0.0000
# 2 11.2249 127.5336 -2.6992 0.0002 0.0000 0.0000
# 3 -2.0953 -2.6992 14.9354 0.0006 0.0000 0.0000
# 4 0.0000 0.0002 0.0006 -87.5944 -0.0003 0.0000
# 5 0.0000 0.0000 0.0000 -0.0003 -33.9802 0.0000
# 6 0.0000 0.0000 0.0000 0.0000 0.0000 48.1300
#
#
#
# Elastic Compliance Matrix: (Units=1/GPa)
#
#
# Indices 1 2 3 4 5 6 
#
# 1 0.009239 -0.000789 0.001154 0.000000 0.000000 0.000000
# 2 -0.000789 0.007939 0.001324 0.000000 0.000000 0.000000
# 3 0.001154 0.001324 0.067356 0.000000 0.000000 0.000000
# 4 0.000000 0.000000 0.000000 -0.011416 0.000000 0.000000
# 5 0.000000 0.000000 0.000000 0.000000 -0.029429 0.000000
# 6 0.000000 0.000000 0.000000 0.000000 0.000000 0.020777
#
#
# Mechanical properties :
#
#
# Convention : Reuss Voigt Hill
#
# Bulk Modulus (GPa) = 11.37510 29.42069 20.39789
# Shear Modulus (GPa) = 55.31494 1.67740 28.49617
#
# Velocity S-wave (km/s) = 4.99465 0.86977 3.58490
# Velocity P-wave (km/s) = 6.19614 3.77851 5.13173
#
# Compressibility (1/GPa) = 0.08791131
#
# Stress axis : x y z
#
# Youngs Moduli (GPa) = 108.23638 125.96815 14.84649
#
# Poissons Ratio (x) = 0.09936 -0.01713
# Poissons Ratio (y) = 0.08537 -0.01966
# Poissons Ratio (z) = -0.12486 -0.16679
#
# Static dielectric constant tensor:
#      x y z
#    x 1.881720 0.000000 0.000000 
#    y 0.000000 1.791460 0.000000 
#    z 0.000000 0.000000 1.819860 
# 
# From -- ./inp_files/42294.got.cif
#   From: 2010.05.17/outbox.cif.g08.bks.cpg/sg71_22_cif.got.tgz:42294.got - 2010.06.03 16:22:01.
