data_PCOD9523240
_publ_section_title
;
Structure prediction by ZEFSAII (Michael W. Deem and Ramdas Pophale) SiO2 
 PCOD9523240
Probable space group: I M M M
;
_chemical_formula_sum "Si O2"
_cell_formula_units_Z 108
_cell_length_a 15.143925
_cell_length_b 21.587298
_cell_length_c 16.826535
_cell_angle_alpha 90.000000
_cell_angle_beta 90.000000
_cell_angle_gamma 90.000000
_cell_volume 5500.870615
_symmetry_space_group_name_H-M "I M M M"
_symmetry_group_IT_number 71
_symmetry_cell_setting 'orthorhombic'
loop_
_space_group_symop_operation_xyz
x,y,z
-x,-y,z
x,-y,-z
-x,y,-z
-x,-y,-z
x,y,-z
-x,y,z
x,-y,z
1/2+x,1/2+y,1/2+z
1/2-x,1/2-y,1/2+z
1/2+x,1/2-y,1/2-z
1/2-x,1/2+y,1/2-z
1/2-x,1/2-y,1/2-z
1/2+x,1/2+y,1/2-z
1/2-x,1/2+y,1/2+z
1/2+x,1/2-y,1/2+z
loop_
_atom_site_type_symbol
_atom_site_label
_atom_site_fract_x
_atom_site_fract_y
_atom_site_fract_z
Si Si1 0.713840 0.120805 0.357961
Si Si2 0.500000 0.251883 0.500000
Si Si3 0.670011 0.160873 0.089181
Si Si4 0.596556 0.073501 0.500000
Si Si5 0.604756 0.073575 0.790250
Si Si6 0.597380 0.386419 0.904723
Si Si7 0.097292 0.765097 0.704228
Si Si8 0.833342 0.761786 0.123075
O O1 0.648604 0.093644 0.423239
O O2 0.666541 0.107265 0.274796
O O3 0.809286 0.088642 0.371457
O O4 0.716148 0.194741 0.375882
O O5 0.420991 0.254222 0.570000
O O6 0.644307 0.094709 0.125196
O O7 0.626668 0.208057 0.151181
O O8 0.771544 0.183285 0.090427
O O9 0.636079 0.168287 0.000000
O O10 0.500000 0.104374 0.500000
O O11 0.588366 0.000000 0.500000
O O12 0.500000 0.089689 0.783253
O O13 0.611323 0.000000 0.778236
O O14 0.500000 0.417113 0.893485
O O15 0.592821 0.323029 0.854988
O O16 0.607604 0.377445 0.000000
O O17 0.151926 0.776646 0.783826
O O18 0.000000 0.751457 0.735279
#
# Coordination Sequence:
#
# PCOD9523240 Si02
#       8
#    16   4  16   8  16  16  16  16
#     4  12  22  39  64  90 132 172 217 270 327 389
#     4  12  26  38  60  94 146 174 206 264 334 408
#     4  12  24  40  63  93 131 169 218 269 324 401
#     4  11  25  39  59  90 123 169 219 260 309 381
#     4  11  26  46  68  95 128 173 226 279 332 394
#     4  10  21  37  58  91 129 168 212 262 325 389
#     4  11  21  35  56  85 125 168 205 251 313 387
#     4  12  24  40  60  99 134 173 214 262 338 406
#
# _framework density 19.633255999999999
#
# number of rings (size 3 to 8) (size 9 to 14) (size 15 to 20)
#    0.000    0.667    5.185    3.556    3.111    3.259 
#    0.000    0.741    0.000    2.222    0.000    0.519 
#    0.000    0.000    0.000    0.000    0.000    0.000 
#
# Total GULP energy -300770.669049 kJ/mol
# GULP energy per Si atom -5569.827205 kJ/mol
# Density = 1.958857 g / cm^3
# Si number density = 19.633256 Si / 1000 Ang^3
#
#
#
# Elastic Constant Matrix: (Units=GPa)
#
#
# Indices 1 2 3 4 5 6 
#
# 1 152.9420 20.9317 32.2270 0.0000 0.0000 0.0000
# 2 20.9317 34.6270 15.3834 0.0000 0.0000 0.0000
# 3 32.2270 15.3834 126.9702 -0.0001 0.0000 0.0000
# 4 0.0000 0.0000 -0.0001 25.2362 0.0000 0.0000
# 5 0.0000 0.0000 0.0000 0.0000 38.2286 0.0000
# 6 0.0000 0.0000 0.0000 0.0000 0.0000 19.1403
#
#
#
# Elastic Compliance Matrix: (Units=1/GPa)
#
#
# Indices 1 2 3 4 5 6 
#
# 1 0.007358 -0.003824 -0.001404 0.000000 0.000000 0.000000
# 2 -0.003824 0.032509 -0.002968 0.000000 0.000000 0.000000
# 3 -0.001404 -0.002968 0.008592 0.000000 0.000000 0.000000
# 4 0.000000 0.000000 0.000000 0.039626 0.000000 0.000000
# 5 0.000000 0.000000 0.000000 0.000000 0.026158 0.000000
# 6 0.000000 0.000000 0.000000 0.000000 0.000000 0.052246
#
#
# Mechanical properties :
#
#
# Convention : Reuss Voigt Hill
#
# Bulk Modulus (GPa) = 31.18526 50.18038 40.68282
# Shear Modulus (GPa) = 25.83047 32.92083 29.37565
#
# Velocity S-wave (km/s) = 3.63112 4.09930 3.87230
# Velocity P-wave (km/s) = 5.78778 6.92965 6.38430
#
# Compressibility (1/GPa) = 0.03206643
#
# Stress axis : x y z
#
# Youngs Moduli (GPa) = 135.91319 30.76042 116.38877
#
# Poissons Ratio (x) = 0.11762 0.16343
# Poissons Ratio (y) = 0.51970 0.34547
# Poissons Ratio (z) = 0.19085 0.09130
#
# Static dielectric constant tensor:
#      x y z
#    x 1.792270 0.000000 0.000000 
#    y 0.000000 1.717140 0.000000 
#    z 0.000000 0.000000 1.661620 
# 
# From -- ./inp_files/34943.got.cif
#   From: 2010.05.17/outbox.cif.g08.bks.cpg/sg71_18_cif.got.tgz:34943.got - 2010.06.03 16:22:01.
