data_PCOD9523680
_publ_section_title
;
Structure prediction by ZEFSAII (Michael W. Deem and Ramdas Pophale) SiO2 
 PCOD9523680
Probable space group: I M M M
;
_chemical_formula_sum "Si O2"
_cell_formula_units_Z 90
_cell_length_a 24.111375
_cell_length_b 23.062527
_cell_length_c 8.821376
_cell_angle_alpha 90.000000
_cell_angle_beta 90.000000
_cell_angle_gamma 90.000000
_cell_volume 4905.295821
_symmetry_space_group_name_H-M "I M M M"
_symmetry_group_IT_number 71
_symmetry_cell_setting 'orthorhombic'
loop_
_space_group_symop_operation_xyz
x,y,z
-x,-y,z
x,-y,-z
-x,y,-z
-x,-y,-z
x,y,-z
-x,y,z
x,-y,z
1/2+x,1/2+y,1/2+z
1/2-x,1/2-y,1/2+z
1/2+x,1/2-y,1/2-z
1/2-x,1/2+y,1/2-z
1/2-x,1/2-y,1/2-z
1/2+x,1/2+y,1/2-z
1/2-x,1/2+y,1/2+z
1/2+x,1/2-y,1/2+z
loop_
_atom_site_type_symbol
_atom_site_label
_atom_site_fract_x
_atom_site_fract_y
_atom_site_fract_z
Si Si1 0.615236 0.500000 0.832687
Si Si2 0.566286 0.932576 0.675385
Si Si3 0.935205 0.227606 0.817778
Si Si4 0.133685 0.666303 0.322438
Si Si5 0.249752 0.685487 0.819351
Si Si6 0.000000 0.000000 0.500000
Si Si7 0.356127 0.378317 0.318703
O O1 0.631733 0.441740 0.745868
O O2 0.642903 0.500000 0.000000
O O3 0.549712 0.500000 0.870360
O O4 0.580055 0.917559 0.500000
O O5 0.500000 0.926713 0.690413
O O6 0.596771 0.889704 0.787507
O O7 0.580293 0.000000 0.699533
O O8 0.900075 0.277990 0.738257
O O9 0.906521 0.166066 0.782648
O O10 0.000000 0.229184 0.774477
O O11 0.931896 0.236236 0.000000
O O12 0.145010 0.673246 0.500000
O O13 0.190963 0.659932 0.232209
O O14 0.250000 0.750000 0.750000
O O15 0.300927 0.649297 0.752983
O O16 0.253802 0.688610 0.000000
O O17 0.350185 0.380225 0.500000
#
# Coordination Sequence:
#
# PCOD9523680 Si02
#       7
#     8  16  16  16  16   2  16
#     4  10  23  43  65  95 129 174 213 268 320 382
#     4   9  19  38  63  88 119 162 206 251 306 367
#     4  10  22  38  60  90 125 164 204 255 314 375
#     4  12  24  38  59  90 125 163 206 256 311 372
#     4  12  24  42  66  92 122 164 208 256 316 380
#     4   8  24  44  70  96 136 180 222 268 328 396
#     4  11  23  42  67  95 127 167 216 270 323 383
#
# _framework density 18.347518000000001
#
# number of rings (size 3 to 8) (size 9 to 14) (size 15 to 20)
#    0.267    1.067    1.778    5.067    1.244    3.911 
#    1.600    1.333    0.000    0.000    0.000    0.000 
#    0.000    0.000    0.000    0.000    0.000    0.000 
#
# Total GULP energy -251179.340769 kJ/mol
# GULP energy per Si atom -5581.763128 kJ/mol
# Density = 1.830576 g / cm^3
# Si number density = 18.347518 Si / 1000 Ang^3
#
#
#
# Elastic Constant Matrix: (Units=GPa)
#
#
# Indices 1 2 3 4 5 6 
#
# 1 116.9186 59.5328 56.4074 0.0000 0.0000 0.0000
# 2 59.5328 93.7320 52.5318 0.0000 0.0000 0.0000
# 3 56.4074 52.5318 103.4487 0.0000 0.0000 0.0000
# 4 0.0000 0.0000 0.0000 29.9219 0.0000 0.0000
# 5 0.0000 0.0000 0.0000 0.0000 30.6900 0.0000
# 6 0.0000 0.0000 0.0000 0.0000 0.0000 17.9147
#
#
#
# Elastic Compliance Matrix: (Units=1/GPa)
#
#
# Indices 1 2 3 4 5 6 
#
# 1 0.013902 -0.006404 -0.004328 0.000000 0.000000 0.000000
# 2 -0.006404 0.017863 -0.005579 0.000000 0.000000 0.000000
# 3 -0.004328 -0.005579 0.014860 0.000000 0.000000 0.000000
# 4 0.000000 0.000000 0.000000 0.033420 0.000000 0.000000
# 5 0.000000 0.000000 0.000000 0.000000 0.032584 0.000000
# 6 0.000000 0.000000 0.000000 0.000000 0.000000 0.055820
#
#
# Mechanical properties :
#
#
# Convention : Reuss Voigt Hill
#
# Bulk Modulus (GPa) = 71.41803 72.33815 71.87809
# Shear Modulus (GPa) = 24.30268 25.41379 24.85824
#
# Velocity S-wave (km/s) = 3.64342 3.72578 3.68483
# Velocity P-wave (km/s) = 7.53054 7.61714 7.57396
#
# Compressibility (1/GPa) = 0.01400207
#
# Stress axis : x y z
#
# Youngs Moduli (GPa) = 71.93270 55.98246 67.29563
#
# Poissons Ratio (x) = 0.35850 0.29128
# Poissons Ratio (y) = 0.46064 0.37544
# Poissons Ratio (z) = 0.31135 0.31233
#
# Static dielectric constant tensor:
#      x y z
#    x 1.625560 0.000000 0.000000 
#    y 0.000000 1.617100 0.000000 
#    z 0.000000 0.000000 1.625240 
# 
# From -- ./inp_files/12626.got.cif
#   From: 2010.05.17/outbox.cif.g08.bks.cpg/sg71_7_cif.got.tgz:12626.got - 2010.06.03 16:22:01.
