data_PCOD9523494
_publ_section_title
;
Structure prediction by ZEFSAII (Michael W. Deem and Ramdas Pophale) SiO2 
 PCOD9523494
Probable space group: I M M M
;
_chemical_formula_sum "Si O2"
_cell_formula_units_Z 88
_cell_length_a 8.222921
_cell_length_b 19.478109
_cell_length_c 26.337198
_cell_angle_alpha 90.000000
_cell_angle_beta 90.000000
_cell_angle_gamma 90.000000
_cell_volume 4218.348716
_symmetry_space_group_name_H-M "I M M M"
_symmetry_group_IT_number 71
_symmetry_cell_setting 'orthorhombic'
loop_
_space_group_symop_operation_xyz
x,y,z
-x,-y,z
x,-y,-z
-x,y,-z
-x,-y,-z
x,y,-z
-x,y,z
x,-y,z
1/2+x,1/2+y,1/2+z
1/2-x,1/2-y,1/2+z
1/2+x,1/2-y,1/2-z
1/2-x,1/2+y,1/2-z
1/2-x,1/2-y,1/2-z
1/2+x,1/2+y,1/2-z
1/2-x,1/2+y,1/2+z
1/2+x,1/2-y,1/2+z
loop_
_atom_site_type_symbol
_atom_site_label
_atom_site_fract_x
_atom_site_fract_y
_atom_site_fract_z
Si Si1 0.500000 0.420506 0.062120
Si Si2 0.324207 0.154265 0.440840
Si Si3 0.310551 0.783536 0.698006
Si Si4 0.815161 0.715410 0.402121
Si Si5 0.804034 0.922331 0.142411
Si Si6 0.695731 0.578933 0.761507
O O1 0.500000 0.500000 0.076777
O O2 0.664147 0.383151 0.080325
O O3 0.500000 0.416935 0.000000
O O4 0.330760 0.135139 0.500000
O O5 0.500000 0.137027 0.417513
O O6 0.295382 0.235809 0.436592
O O7 0.500000 0.767009 0.689672
O O8 0.250000 0.750000 0.750000
O O9 0.207695 0.751470 0.652646
O O10 0.282874 0.864438 0.704782
O O11 0.765110 0.637044 0.393068
O O12 0.000000 0.719945 0.419834
O O13 0.760585 0.910180 0.201818
O O14 0.000000 0.919766 0.140251
O O15 0.752468 0.000000 0.129417
O O16 0.500000 0.587856 0.765532
O O17 0.733690 0.500000 0.774135
#
# Coordination Sequence:
#
# PCOD9523494 Si02
#       6
#     8  16  16  16  16  16
#     4   9  18  36  62  92 123 153 189 235 288 348
#     4  10  21  39  63  91 121 154 193 239 292 347
#     4  12  23  35  52  78 110 145 190 236 283 339
#     4  12  23  36  58  85 114 151 193 239 288 341
#     4   9  18  33  54  80 111 147 188 235 285 339
#     4   9  18  34  54  75 104 142 181 227 282 334
#
# _framework density 20.861243000000002
#
# number of rings (size 3 to 8) (size 9 to 14) (size 15 to 20)
#    0.000    1.727    2.727    4.364    0.000    1.091 
#    0.000    4.545    0.000    2.727    0.000    3.818 
#    0.000    0.000    0.000    0.000    0.000    0.000 
#
# Total GULP energy -245819.837748 kJ/mol
# GULP energy per Si atom -5586.814494 kJ/mol
# Density = 2.081376 g / cm^3
# Si number density = 20.861243 Si / 1000 Ang^3
#
#
#
# Elastic Constant Matrix: (Units=GPa)
#
#
# Indices 1 2 3 4 5 6 
#
# 1 111.6524 46.4110 5.5952 0.0000 0.0000 0.0000
# 2 46.4110 124.8416 -1.8998 0.0000 0.0000 0.0000
# 3 5.5952 -1.8998 19.5794 0.0000 0.0000 0.0000
# 4 0.0000 0.0000 0.0000 26.9218 0.0000 0.0000
# 5 0.0000 0.0000 0.0000 0.0000 12.9836 0.0000
# 6 0.0000 0.0000 0.0000 0.0000 0.0000 32.4829
#
#
#
# Elastic Compliance Matrix: (Units=1/GPa)
#
#
# Indices 1 2 3 4 5 6 
#
# 1 0.010826 -0.004078 -0.003490 0.000000 0.000000 0.000000
# 2 -0.004078 0.009558 0.002093 0.000000 0.000000 0.000000
# 3 -0.003490 0.002093 0.052274 0.000000 0.000000 0.000000
# 4 0.000000 0.000000 0.000000 0.037145 0.000000 0.000000
# 5 0.000000 0.000000 0.000000 0.000000 0.077020 0.000000
# 6 0.000000 0.000000 0.000000 0.000000 0.000000 0.030785
#
#
# Mechanical properties :
#
#
# Convention : Reuss Voigt Hill
#
# Bulk Modulus (GPa) = 16.20504 39.58739 27.89621
# Shear Modulus (GPa) = 20.07000 28.20878 24.13939
#
# Velocity S-wave (km/s) = 3.10509 3.68123 3.40537
# Velocity P-wave (km/s) = 4.54316 6.08985 5.37246
#
# Compressibility (1/GPa) = 0.06170920
#
# Stress axis : x y z
#
# Youngs Moduli (GPa) = 92.36760 104.62451 19.12989
#
# Poissons Ratio (x) = 0.42665 0.06675
# Poissons Ratio (y) = 0.37666 -0.04003
# Poissons Ratio (z) = 0.32232 -0.21895
#
# Static dielectric constant tensor:
#      x y z
#    x 1.759770 0.000000 0.000000 
#    y 0.000000 1.757000 0.000000 
#    z 0.000000 0.000000 1.761780 
# 
# From -- ./inp_files/67992.got.cif
#   From: 2010.05.17/outbox.cif.g08.bks.cpg/sg71_34_cif.got.tgz:67992.got - 2010.06.03 16:22:01.
