data_PCOD9523486
_publ_section_title
;
Structure prediction by ZEFSAII (Michael W. Deem and Ramdas Pophale) SiO2 
 PCOD9523486
Probable space group: I M M M
;
_chemical_formula_sum "Si O2"
_cell_formula_units_Z 64
_cell_length_a 7.730290
_cell_length_b 33.051034
_cell_length_c 11.108319
_cell_angle_alpha 90.000000
_cell_angle_beta 90.000000
_cell_angle_gamma 90.000000
_cell_volume 2838.109717
_symmetry_space_group_name_H-M "I M M M"
_symmetry_group_IT_number 71
_symmetry_cell_setting 'orthorhombic'
loop_
_space_group_symop_operation_xyz
x,y,z
-x,-y,z
x,-y,-z
-x,y,-z
-x,-y,-z
x,y,-z
-x,y,z
x,-y,z
1/2+x,1/2+y,1/2+z
1/2-x,1/2-y,1/2+z
1/2+x,1/2-y,1/2-z
1/2-x,1/2+y,1/2-z
1/2-x,1/2-y,1/2-z
1/2+x,1/2+y,1/2-z
1/2-x,1/2+y,1/2+z
1/2+x,1/2-y,1/2+z
loop_
_atom_site_type_symbol
_atom_site_label
_atom_site_fract_x
_atom_site_fract_y
_atom_site_fract_z
Si Si1 0.199696 0.669540 0.734371
Si Si2 0.700712 0.583088 0.752063
Si Si3 0.787863 0.047132 0.500000
Si Si4 0.296998 0.188313 0.500000
Si Si5 0.694595 0.000000 0.858084
Si Si6 0.711798 0.217548 0.000000
O O1 0.206884 0.622256 0.700401
O O2 0.272336 0.695375 0.622944
O O3 0.000000 0.682622 0.745803
O O4 0.276233 0.673750 0.869992
O O5 0.500000 0.594106 0.761493
O O6 0.715555 0.541217 0.681215
O O7 0.770290 0.571093 0.883129
O O8 0.000000 0.046400 0.500000
O O9 0.734487 0.000000 0.500000
O O10 0.500000 0.176502 0.500000
O O11 0.274869 0.236570 0.500000
O O12 0.500000 0.000000 0.806674
O O13 0.684686 0.000000 0.000000
O O14 0.500000 0.216782 0.000000
#
# Coordination Sequence:
#
# PCOD9523486 Si02
#       6
#    16  16   8   8   8   8
#     4  10  22  39  58  86 122 158 192 240 301 356
#     4  11  22  38  62  89 117 153 199 246 289 346
#     4   9  17  34  56  81 115 147 180 237 300 339
#     4  10  21  39  63  88 118 153 198 246 288 351
#     4  11  25  42  59  80 116 163 200 241 298 351
#     4  10  22  39  61  85 117 156 192 237 304 364
#
# _framework density 22.550222000000002
#
# number of rings (size 3 to 8) (size 9 to 14) (size 15 to 20)
#    0.000    1.750    1.250    2.625    1.750    3.000 
#    0.000    2.500    0.000    0.000    0.000    0.000 
#    0.000    0.000    0.000    0.000    0.000    0.000 
#
# Total GULP energy -178714.623282 kJ/mol
# GULP energy per Si atom -5584.831978 kJ/mol
# Density = 2.249890 g / cm^3
# Si number density = 22.550222 Si / 1000 Ang^3
#
#
#
# Elastic Constant Matrix: (Units=GPa)
#
#
# Indices 1 2 3 4 5 6 
#
# 1 43.8497 -11.8246 8.8110 -0.0006 0.0000 0.0000
# 2 -11.8246 115.2068 29.4042 -0.0007 0.0000 -0.0001
# 3 8.8110 29.4042 113.0591 -0.0014 0.0000 -0.0001
# 4 -0.0006 -0.0007 -0.0014 140.1530 -0.0004 -0.0006
# 5 0.0000 0.0000 0.0000 -0.0004 3.0849 0.0000
# 6 0.0000 -0.0001 -0.0001 -0.0006 0.0000 2.0947
#
#
#
# Elastic Compliance Matrix: (Units=1/GPa)
#
#
# Indices 1 2 3 4 5 6 
#
# 1 0.024207 0.003177 -0.002713 0.000000 0.000000 0.000001
# 2 0.003177 0.009714 -0.002774 0.000000 0.000000 0.000000
# 3 -0.002713 -0.002774 0.009778 0.000000 0.000000 0.000000
# 4 0.000000 0.000000 0.000000 0.007135 0.000001 0.000002
# 5 0.000000 0.000000 0.000000 0.000001 0.324158 0.000001
# 6 0.000001 0.000000 0.000000 0.000002 0.000001 0.477404
#
#
# Mechanical properties :
#
#
# Convention : Reuss Voigt Hill
#
# Bulk Modulus (GPa) = 25.58905 36.09965 30.84435
# Shear Modulus (GPa) = 5.74685 45.44817 25.59751
#
# Velocity S-wave (km/s) = 1.59812 4.49421 3.37283
# Velocity P-wave (km/s) = 3.84416 6.55545 5.37361
#
# Compressibility (1/GPa) = 0.03907921
#
# Stress axis : x y z
#
# Youngs Moduli (GPa) = 41.31040 102.94284 102.27243
#
# Poissons Ratio (x) = -0.32704 0.27744
# Poissons Ratio (y) = -0.13124 0.28371
# Poissons Ratio (z) = 0.11207 0.28557
#
# Static dielectric constant tensor:
#      x y z
#    x 1.860630 0.000000 0.000000 
#    y 0.000000 1.842420 0.000000 
#    z 0.000000 0.000000 1.842720 
# 
# From -- ./inp_files/16219.got.cif
#   From: 2010.05.17/outbox.cif.g08.bks.cpg/sg71_9_cif.got.tgz:16219.got - 2010.06.03 16:22:01.
