data_PCOD9523345
_publ_section_title
;
Structure prediction by ZEFSAII (Michael W. Deem and Ramdas Pophale) SiO2 
 PCOD9523345
Probable space group: I M M M
;
_chemical_formula_sum "Si O2"
_cell_formula_units_Z 64
_cell_length_a 8.942501
_cell_length_b 21.499271
_cell_length_c 17.764073
_cell_angle_alpha 90.000000
_cell_angle_beta 90.000000
_cell_angle_gamma 90.000000
_cell_volume 3415.271867
_symmetry_space_group_name_H-M "I M M M"
_symmetry_group_IT_number 71
_symmetry_cell_setting 'orthorhombic'
loop_
_space_group_symop_operation_xyz
x,y,z
-x,-y,z
x,-y,-z
-x,y,-z
-x,-y,-z
x,y,-z
-x,y,z
x,-y,z
1/2+x,1/2+y,1/2+z
1/2-x,1/2-y,1/2+z
1/2+x,1/2-y,1/2-z
1/2-x,1/2+y,1/2-z
1/2-x,1/2-y,1/2-z
1/2+x,1/2+y,1/2-z
1/2-x,1/2+y,1/2+z
1/2+x,1/2-y,1/2+z
loop_
_atom_site_type_symbol
_atom_site_label
_atom_site_fract_x
_atom_site_fract_y
_atom_site_fract_z
Si Si1 0.330981 0.000000 0.409011
Si Si2 0.682836 0.072037 0.832667
Si Si3 0.675847 0.628628 0.089195
Si Si4 0.821796 0.685928 0.224182
Si Si5 0.170121 0.424805 0.500000
O O1 0.240134 0.061121 0.389260
O O2 0.500000 0.000000 0.377554
O O3 0.342707 0.000000 0.500000
O O4 0.500000 0.071052 0.834733
O O5 0.727300 0.125628 0.773895
O O6 0.727982 0.000000 0.815629
O O7 0.735657 0.089945 0.917655
O O8 0.500000 0.632721 0.105163
O O9 0.768941 0.675545 0.139096
O O10 0.697134 0.636984 0.000000
O O11 0.750000 0.750000 0.250000
O O12 0.000000 0.689068 0.229456
O O13 0.161215 0.500000 0.500000
O O14 0.000000 0.399742 0.500000
#
# Coordination Sequence:
#
# PCOD9523345 Si02
#       5
#     8  16  16  16   8
#     4   9  17  31  55  87 117 146 183 230 287 347
#     4   8  15  29  52  81 108 139 182 232 281 332
#     4  10  21  38  59  83 113 150 195 244 292 345
#     4  11  23  38  56  81 118 154 193 240 289 350
#     4   7  10  22  46  76 107 131 164 221 281 331
#
# _framework density 18.739357999999999
#
# number of rings (size 3 to 8) (size 9 to 14) (size 15 to 20)
#    0.000    2.750    0.000    3.375    1.750    3.000 
#    2.250    0.000    0.000    0.000    0.000    0.000 
#    0.000   12.000    0.000    0.000    0.000    0.000 
#
# Total GULP energy -178308.475985 kJ/mol
# GULP energy per Si atom -5572.139875 kJ/mol
# Density = 1.869671 g / cm^3
# Si number density = 18.739358 Si / 1000 Ang^3
#
#
#
# Elastic Constant Matrix: (Units=GPa)
#
#
# Indices 1 2 3 4 5 6 
#
# 1 50.5618 39.7713 40.0216 0.0000 0.0000 0.0000
# 2 39.7713 104.9463 47.7466 0.0000 0.0000 0.0000
# 3 40.0216 47.7466 68.7547 0.0000 0.0000 0.0000
# 4 0.0000 0.0000 0.0000 -16.3853 0.0000 0.0000
# 5 0.0000 0.0000 0.0000 0.0000 17.3231 0.0000
# 6 0.0000 0.0000 0.0000 0.0000 0.0000 27.8127
#
#
#
# Elastic Compliance Matrix: (Units=1/GPa)
#
#
# Indices 1 2 3 4 5 6 
#
# 1 0.039578 -0.006604 -0.018452 0.000000 0.000000 0.000000
# 2 -0.006604 0.015032 -0.006595 0.000000 0.000000 0.000000
# 3 -0.018452 -0.006595 0.029865 0.000000 0.000000 0.000000
# 4 0.000000 0.000000 0.000000 -0.061030 0.000000 0.000000
# 5 0.000000 0.000000 0.000000 0.000000 0.057726 0.000000
# 6 0.000000 0.000000 0.000000 0.000000 0.000000 0.035955
#
#
# Mechanical properties :
#
#
# Convention : Reuss Voigt Hill
#
# Bulk Modulus (GPa) = 47.22901 53.26021 50.24461
# Shear Modulus (GPa) = 26.66903 12.19832 19.43368
#
# Velocity S-wave (km/s) = 3.77657 2.55413 3.22382
# Velocity P-wave (km/s) = 6.65390 6.09766 6.38184
#
# Compressibility (1/GPa) = 0.02117342
#
# Stress axis : x y z
#
# Youngs Moduli (GPa) = 25.26686 66.52639 33.48421
#
# Poissons Ratio (x) = 0.43932 0.61785
# Poissons Ratio (y) = 0.16686 0.22082
# Poissons Ratio (z) = 0.46622 0.43872
#
# Static dielectric constant tensor:
#      x y z
#    x 1.630380 0.000000 0.000000 
#    y 0.000000 1.595730 0.000000 
#    z 0.000000 0.000000 1.725060 
# 
# From -- ./inp_files/41866.got.cif
#   From: 2010.05.17/outbox.cif.g08.bks.cpg/sg71_21_cif.got.tgz:41866.got - 2010.06.03 16:22:01.
