data_PCOD9523533
_publ_section_title
;
Structure prediction by ZEFSAII (Michael W. Deem and Ramdas Pophale) SiO2 
 PCOD9523533
Probable space group: I M M M
;
_chemical_formula_sum "Si O2"
_cell_formula_units_Z 72
_cell_length_a 27.103234
_cell_length_b 8.721207
_cell_length_c 15.678265
_cell_angle_alpha 90.000000
_cell_angle_beta 90.000000
_cell_angle_gamma 90.000000
_cell_volume 3705.917186
_symmetry_space_group_name_H-M "I M M M"
_symmetry_group_IT_number 71
_symmetry_cell_setting 'orthorhombic'
loop_
_space_group_symop_operation_xyz
x,y,z
-x,-y,z
x,-y,-z
-x,y,-z
-x,-y,-z
x,y,-z
-x,y,z
x,-y,z
1/2+x,1/2+y,1/2+z
1/2-x,1/2-y,1/2+z
1/2+x,1/2-y,1/2-z
1/2-x,1/2+y,1/2-z
1/2-x,1/2-y,1/2-z
1/2+x,1/2+y,1/2-z
1/2-x,1/2+y,1/2+z
1/2+x,1/2-y,1/2+z
loop_
_atom_site_type_symbol
_atom_site_label
_atom_site_fract_x
_atom_site_fract_y
_atom_site_fract_z
Si Si1 0.398188 0.315465 0.325134
Si Si2 0.442871 0.183720 0.153582
Si Si3 0.941227 0.317446 0.000000
Si Si4 0.283739 0.315341 0.675405
Si Si5 0.878552 0.817104 0.500000
Si Si6 0.731577 0.185525 0.000000
O O1 0.401355 0.500000 0.322516
O O2 0.428378 0.245025 0.246690
O O3 0.418296 0.256020 0.415214
O O4 0.340769 0.269509 0.315877
O O5 0.500000 0.221242 0.134898
O O6 0.437566 0.000000 0.151465
O O7 0.407392 0.256739 0.083035
O O8 0.932442 0.500000 0.000000
O O9 0.000000 0.291628 0.000000
O O10 0.282244 0.500000 0.679000
O O11 0.250000 0.250000 0.750000
O O12 0.261351 0.267812 0.584407
O O13 0.822970 0.754257 0.500000
O O14 0.877894 0.000000 0.500000
O O15 0.727760 0.000000 0.000000
#
# Coordination Sequence:
#
# PCOD9523533 Si02
#       6
#    16  16   8  16   8   8
#     4  11  23  40  63  92 123 155 198 250 300 349
#     4  11  24  42  63  88 120 159 201 243 294 359
#     4  11  24  41  61  88 122 161 204 245 292 356
#     4  10  22  39  60  87 118 154 196 242 292 351
#     4  12  25  40  61  91 122 153 198 251 300 351
#     4  10  21  40  62  83 116 160 198 236 292 355
#
# _framework density 19.428388000000002
#
# number of rings (size 3 to 8) (size 9 to 14) (size 15 to 20)
#    0.000    1.222    0.000    5.667    0.000   14.667 
#    0.000    1.111    0.000    0.000    0.000    0.000 
#    0.000    0.000    0.000    0.000    0.000    0.000 
#
# Total GULP energy -201450.287092 kJ/mol
# GULP energy per Si atom -5595.841308 kJ/mol
# Density = 1.938417 g / cm^3
# Si number density = 19.428388 Si / 1000 Ang^3
#
#
#
# Elastic Constant Matrix: (Units=GPa)
#
#
# Indices 1 2 3 4 5 6 
#
# 1 60.6300 19.1523 -26.1404 0.0000 0.0000 0.0000
# 2 19.1523 36.9536 -1.0374 0.0000 0.0000 0.0000
# 3 -26.1404 -1.0374 62.5018 0.0000 0.0000 0.0000
# 4 0.0000 0.0000 0.0000 27.5125 0.0000 0.0000
# 5 0.0000 0.0000 0.0000 0.0000 44.3286 0.0000
# 6 0.0000 0.0000 0.0000 0.0000 0.0000 31.1571
#
#
#
# Elastic Compliance Matrix: (Units=1/GPa)
#
#
# Indices 1 2 3 4 5 6 
#
# 1 0.024869 -0.012603 0.010192 0.000000 0.000000 0.000000
# 2 -0.012603 0.033460 -0.004716 0.000000 0.000000 0.000000
# 3 0.010192 -0.004716 0.020184 0.000000 0.000000 0.000000
# 4 0.000000 0.000000 0.000000 0.036347 0.000000 0.000000
# 5 0.000000 0.000000 0.000000 0.000000 0.022559 0.000000
# 6 0.000000 0.000000 0.000000 0.000000 0.000000 0.032095
#
#
# Mechanical properties :
#
#
# Convention : Reuss Voigt Hill
#
# Bulk Modulus (GPa) = 15.56187 16.00383 15.78285
# Shear Modulus (GPa) = 24.36798 31.80703 28.08751
#
# Velocity S-wave (km/s) = 3.54538 4.05055 3.80635
# Velocity P-wave (km/s) = 4.97864 5.48919 5.24013
#
# Compressibility (1/GPa) = 0.06425963
#
# Stress axis : x y z
#
# Youngs Moduli (GPa) = 40.21116 29.88614 49.54460
#
# Poissons Ratio (x) = 0.37665 -0.50495
# Poissons Ratio (y) = 0.50677 0.23363
# Poissons Ratio (z) = -0.40982 0.14093
#
# Static dielectric constant tensor:
#      x y z
#    x 1.651320 0.000000 0.000000 
#    y 0.000000 1.654000 0.000000 
#    z 0.000000 0.000000 1.632550 
# 
# From -- ./inp_files/14358.got.cif
#   From: 2010.05.17/outbox.cif.g08.bks.cpg/sg71_8_cif.got.tgz:14358.got - 2010.06.03 16:22:01.
