data_PCOD9523953
_publ_section_title
;
Structure prediction by ZEFSAII (Michael W. Deem and Ramdas Pophale) SiO2 
 PCOD9523953
Probable space group: I M M M
;
_chemical_formula_sum "Si O2"
_cell_formula_units_Z 66
_cell_length_a 31.201178
_cell_length_b 9.187077
_cell_length_c 12.034491
_cell_angle_alpha 90.000000
_cell_angle_beta 90.000000
_cell_angle_gamma 90.000000
_cell_volume 3449.658261
_symmetry_space_group_name_H-M "I M M M"
_symmetry_group_IT_number 71
_symmetry_cell_setting 'orthorhombic'
loop_
_space_group_symop_operation_xyz
x,y,z
-x,-y,z
x,-y,-z
-x,y,-z
-x,-y,-z
x,y,-z
-x,y,z
x,-y,z
1/2+x,1/2+y,1/2+z
1/2-x,1/2-y,1/2+z
1/2+x,1/2-y,1/2-z
1/2-x,1/2+y,1/2-z
1/2-x,1/2-y,1/2-z
1/2+x,1/2+y,1/2-z
1/2-x,1/2+y,1/2+z
1/2+x,1/2-y,1/2+z
loop_
_atom_site_type_symbol
_atom_site_label
_atom_site_fract_x
_atom_site_fract_y
_atom_site_fract_z
Si Si1 0.000000 0.500000 0.000000
Si Si2 0.064836 0.770997 0.000000
Si Si3 0.547495 0.335331 0.750677
Si Si4 0.624385 0.173782 0.127799
Si Si5 0.794617 0.324168 0.782714
Si Si6 0.165085 0.177592 0.000000
O O1 0.962304 0.624437 0.000000
O O2 0.052788 0.841719 0.882393
O O3 0.116263 0.765128 0.000000
O O4 0.500000 0.273823 0.774548
O O5 0.549473 0.500000 0.793794
O O6 0.585730 0.244780 0.803805
O O7 0.669517 0.202367 0.188046
O O8 0.618263 0.000000 0.128788
O O9 0.624540 0.223806 0.000000
O O10 0.790615 0.500000 0.797683
O O11 0.750000 0.250000 0.750000
O O12 0.811834 0.244274 0.892604
O O13 0.165115 0.000000 0.000000
#
# Coordination Sequence:
#
# PCOD9523953 Si02
#       6
#     2   8  16  16  16   8
#     4  12  28  36  66 104 142 184 218 284 336 414
#     4  12  24  39  63  99 136 174 219 268 341 391
#     4  11  23  40  63  93 130 169 215 269 326 391
#     4  10  24  44  65  90 125 171 218 269 325 389
#     4  11  25  44  69 100 134 173 223 277 338 404
#     4  12  25  43  71 102 139 179 225 283 344 408
#
# _framework density 19.132328999999999
#
# number of rings (size 3 to 8) (size 9 to 14) (size 15 to 20)
#    0.000    0.970    3.636    2.182    5.091    3.394 
#    0.000    2.424    0.000    0.000    0.000    0.000 
#    0.000    0.000    0.000    0.000    0.000    0.000 
#
# Total GULP energy -184038.247366 kJ/mol
# GULP energy per Si atom -5576.916587 kJ/mol
# Density = 1.908878 g / cm^3
# Si number density = 19.132329 Si / 1000 Ang^3
#
#
#
# Elastic Constant Matrix: (Units=GPa)
#
#
# Indices 1 2 3 4 5 6 
#
# 1 213.7651 87.0283 74.0762 0.0000 0.0000 0.0000
# 2 87.0283 106.1244 57.7834 0.0000 0.0000 0.0000
# 3 74.0762 57.7834 124.9545 0.0000 0.0000 0.0000
# 4 0.0000 0.0000 0.0000 66.4108 0.0000 0.0000
# 5 0.0000 0.0000 0.0000 0.0000 59.6434 0.0000
# 6 0.0000 0.0000 0.0000 0.0000 0.0000 45.3789
#
#
#
# Elastic Compliance Matrix: (Units=1/GPa)
#
#
# Indices 1 2 3 4 5 6 
#
# 1 0.007420 -0.004931 -0.002118 0.000000 0.000000 0.000000
# 2 -0.004931 0.015871 -0.004416 0.000000 0.000000 0.000000
# 3 -0.002118 -0.004416 0.011301 0.000000 0.000000 0.000000
# 4 0.000000 0.000000 0.000000 0.015058 0.000000 0.000000
# 5 0.000000 0.000000 0.000000 0.000000 0.016766 0.000000
# 6 0.000000 0.000000 0.000000 0.000000 0.000000 0.022037
#
#
# Mechanical properties :
#
#
# Convention : Reuss Voigt Hill
#
# Bulk Modulus (GPa) = 85.75793 98.06886 91.91339
# Shear Modulus (GPa) = 43.37623 49.35034 46.36328
#
# Velocity S-wave (km/s) = 4.76665 5.08431 4.92804
# Velocity P-wave (km/s) = 8.67268 9.26479 8.97362
#
# Compressibility (1/GPa) = 0.01166073
#
# Stress axis : x y z
#
# Youngs Moduli (GPa) = 134.77707 63.00672 88.48940
#
# Poissons Ratio (x) = 0.31070 0.18744
# Poissons Ratio (y) = 0.66462 0.39078
# Poissons Ratio (z) = 0.28548 0.27824
#
# Static dielectric constant tensor:
#      x y z
#    x 1.648310 0.000000 0.000000 
#    y 0.000000 1.652730 0.000000 
#    z 0.000000 0.000000 1.666780 
# 
# From -- ./inp_files/29498.got.cif
#   From: 2010.05.17/outbox.cif.g08.bks.cpg/sg71_15_cif.got.tgz:29498.got - 2010.06.03 16:22:01.
