data_PCOD9523651
_publ_section_title
;
Structure prediction by ZEFSAII (Michael W. Deem and Ramdas Pophale) SiO2 
 PCOD9523651
Probable space group: I M M M
;
_chemical_formula_sum "Si O2"
_cell_formula_units_Z 104
_cell_length_a 24.866259
_cell_length_b 8.172912
_cell_length_c 26.566965
_cell_angle_alpha 90.000000
_cell_angle_beta 90.000000
_cell_angle_gamma 90.000000
_cell_volume 5399.197564
_symmetry_space_group_name_H-M "I M M M"
_symmetry_group_IT_number 71
_symmetry_cell_setting 'orthorhombic'
loop_
_space_group_symop_operation_xyz
x,y,z
-x,-y,z
x,-y,-z
-x,y,-z
-x,-y,-z
x,y,-z
-x,y,z
x,-y,z
1/2+x,1/2+y,1/2+z
1/2-x,1/2-y,1/2+z
1/2+x,1/2-y,1/2-z
1/2-x,1/2+y,1/2-z
1/2-x,1/2-y,1/2-z
1/2+x,1/2+y,1/2-z
1/2-x,1/2+y,1/2+z
1/2+x,1/2-y,1/2+z
loop_
_atom_site_type_symbol
_atom_site_label
_atom_site_fract_x
_atom_site_fract_y
_atom_site_fract_z
Si Si1 0.500000 0.815972 0.061081
Si Si2 0.062942 0.699169 0.057091
Si Si3 0.237787 0.194733 0.806470
Si Si4 0.347918 0.310334 0.154119
Si Si5 0.618483 0.803327 0.338444
Si Si6 0.612579 0.194596 0.944947
Si Si7 0.437929 0.302083 0.764338
O O1 0.555506 0.730761 0.072631
O O2 0.500000 0.000000 0.083156
O O3 0.500000 0.830057 0.000000
O O4 0.064885 0.500000 0.057025
O O5 0.096295 0.753139 0.106610
O O6 0.000000 0.745134 0.063197
O O7 0.079934 0.751151 0.000000
O O8 0.250000 0.250000 0.750000
O O9 0.286144 0.289366 0.832338
O O10 0.178231 0.239356 0.825409
O O11 0.244773 0.000000 0.811039
O O12 0.360922 0.500000 0.147692
O O13 0.349845 0.222939 0.100834
O O14 0.391769 0.246087 0.195391
O O15 0.580355 0.751875 0.291634
O O16 0.620149 0.000000 0.339440
O O17 0.603838 0.000000 0.949827
O O18 0.627946 0.257078 0.000000
O O19 0.500000 0.249653 0.775285
O O20 0.437244 0.500000 0.765032
#
# Coordination Sequence:
#
# PCOD9523651 Si02
#       7
#     8  16  16  16  16  16  16
#     4   7  12  26  49  75 103 139 181 221 266 321
#     4   8  15  30  54  87 126 161 193 234 282 335
#     4  12  24  41  62  83 110 148 193 242 292 346
#     4  11  23  38  58  83 113 150 191 234 286 346
#     4  11  21  35  60  90 117 151 196 241 289 350
#     4   9  18  34  55  79 109 145 185 231 281 331
#     4  10  22  38  55  80 118 157 189 233 293 347
#
# _framework density 19.262122000000002
#
# number of rings (size 3 to 8) (size 9 to 14) (size 15 to 20)
#    0.000    2.077    1.538    4.154    1.077    1.846 
#    0.000    0.769    0.000    6.000    0.000    5.385 
#    0.000    0.000    0.000    0.000    0.000    0.000 
#
# Total GULP energy -289540.033912 kJ/mol
# GULP energy per Si atom -5568.077575 kJ/mol
# Density = 1.921828 g / cm^3
# Si number density = 19.262122 Si / 1000 Ang^3
#
#
#
# Elastic Constant Matrix: (Units=GPa)
#
#
# Indices 1 2 3 4 5 6 
#
# 1 88.5401 -4.9007 49.1733 0.0000 0.0000 0.0000
# 2 -4.9007 28.7827 7.0522 0.0000 0.0000 0.0000
# 3 49.1733 7.0522 128.4909 0.0000 0.0000 0.0000
# 4 0.0000 0.0000 0.0000 29.7972 0.0000 0.0000
# 5 0.0000 0.0000 0.0000 0.0000 29.0056 0.0000
# 6 0.0000 0.0000 0.0000 0.0000 0.0000 -0.6742
#
#
#
# Elastic Compliance Matrix: (Units=1/GPa)
#
#
# Indices 1 2 3 4 5 6 
#
# 1 0.014774 0.003954 -0.005871 0.000000 0.000000 0.000000
# 2 0.003954 0.036275 -0.003504 0.000000 0.000000 0.000000
# 3 -0.005871 -0.003504 0.010222 0.000000 0.000000 0.000000
# 4 0.000000 0.000000 0.000000 0.033560 0.000000 0.000000
# 5 0.000000 0.000000 0.000000 0.000000 0.034476 0.000000
# 6 0.000000 0.000000 0.000000 0.000000 0.000000 -1.483206
#
#
# Mechanical properties :
#
#
# Convention : Reuss Voigt Hill
#
# Bulk Modulus (GPa) = 19.83016 38.71813 29.27414
# Shear Modulus (GPa) = -3.77003 24.59165 10.41081
#
# Velocity S-wave (km/s) = -1.40053 3.57695 2.32735
# Velocity P-wave (km/s) = 2.77524 6.09948 4.73844
#
# Compressibility (1/GPa) = 0.05042825
#
# Stress axis : x y z
#
# Youngs Moduli (GPa) = 67.68771 27.56727 97.83053
#
# Poissons Ratio (x) = -0.10900 0.57435
# Poissons Ratio (y) = -0.26763 0.34281
# Poissons Ratio (z) = 0.39739 0.09660
#
# Static dielectric constant tensor:
#      x y z
#    x 1.685120 0.000000 0.000000 
#    y 0.000000 1.732360 0.000000 
#    z 0.000000 0.000000 1.765540 
# 
# From -- ./inp_files/66450.got.cif
#   From: 2010.05.17/outbox.cif.g08.bks.cpg/sg71_34_cif.got.tgz:66450.got - 2010.06.03 16:22:01.
