data_PCOD9523540
_publ_section_title
;
Structure prediction by ZEFSAII (Michael W. Deem and Ramdas Pophale) SiO2 
 PCOD9523540
Probable space group: I M M M
;
_chemical_formula_sum "Si O2"
_cell_formula_units_Z 64
_cell_length_a 8.046527
_cell_length_b 27.234371
_cell_length_c 13.911788
_cell_angle_alpha 90.000000
_cell_angle_beta 90.000000
_cell_angle_gamma 90.000000
_cell_volume 3048.658459
_symmetry_space_group_name_H-M "I M M M"
_symmetry_group_IT_number 71
_symmetry_cell_setting 'orthorhombic'
loop_
_space_group_symop_operation_xyz
x,y,z
-x,-y,z
x,-y,-z
-x,y,-z
-x,-y,-z
x,y,-z
-x,y,z
x,-y,z
1/2+x,1/2+y,1/2+z
1/2-x,1/2-y,1/2+z
1/2+x,1/2-y,1/2-z
1/2-x,1/2+y,1/2-z
1/2-x,1/2-y,1/2-z
1/2+x,1/2+y,1/2-z
1/2-x,1/2+y,1/2+z
1/2+x,1/2-y,1/2+z
loop_
_atom_site_type_symbol
_atom_site_label
_atom_site_fract_x
_atom_site_fract_y
_atom_site_fract_z
Si Si1 0.814887 0.816859 0.500000
Si Si2 0.310655 0.079088 0.500000
Si Si3 0.200295 0.555415 0.785094
Si Si4 0.801159 0.236855 0.143963
Si Si5 0.700217 0.624477 0.606990
O O1 0.691411 0.862091 0.500000
O O2 0.785306 0.780058 0.413693
O O3 0.000000 0.837795 0.500000
O O4 0.500000 0.059851 0.500000
O O5 0.237411 0.064801 0.604894
O O6 0.249770 0.500000 0.757768
O O7 0.249688 0.593045 0.700582
O O8 0.000000 0.557914 0.790631
O O9 0.750000 0.250000 0.250000
O O10 0.747332 0.181508 0.118170
O O11 0.000000 0.239367 0.128428
O O12 0.756661 0.607027 0.500000
O O13 0.500000 0.624266 0.605898
#
# Coordination Sequence:
#
# PCOD9523540 Si02
#       5
#     8   8  16  16  16
#     4  12  24  37  57  89 123 159 200 242 297 363
#     4  10  21  40  64  88 122 163 201 250 313 374
#     4  10  22  40  63  91 120 155 202 256 312 368
#     4  11  22  39  60  86 121 160 202 250 300 359
#     4  10  22  41  61  84 120 163 203 247 301 363
#
# _framework density 20.992840000000001
#
# number of rings (size 3 to 8) (size 9 to 14) (size 15 to 20)
#    0.000    1.500    1.250    3.750    0.000   10.000 
#    0.000    2.500    0.000    2.250    0.000    0.000 
#    0.000    0.000    0.000    0.000    0.000    0.000 
#
# Total GULP energy -178540.650078 kJ/mol
# GULP energy per Si atom -5579.395315 kJ/mol
# Density = 2.094506 g / cm^3
# Si number density = 20.992840 Si / 1000 Ang^3
#
#
#
# Elastic Constant Matrix: (Units=GPa)
#
#
# Indices 1 2 3 4 5 6 
#
# 1 36.3365 7.4343 5.7705 0.0000 0.0000 0.0000
# 2 7.4343 111.3036 39.7192 0.0000 0.0000 0.0000
# 3 5.7705 39.7192 155.5926 -0.0002 0.0000 0.0000
# 4 0.0000 0.0000 -0.0002 32.9882 0.0000 0.0000
# 5 0.0000 0.0000 0.0000 0.0000 18.7205 0.0000
# 6 0.0000 0.0000 0.0000 0.0000 0.0000 21.3517
#
#
#
# Elastic Compliance Matrix: (Units=1/GPa)
#
#
# Indices 1 2 3 4 5 6 
#
# 1 0.027955 -0.001647 -0.000616 0.000000 0.000000 0.000000
# 2 -0.001647 0.009982 -0.002487 0.000000 0.000000 0.000000
# 3 -0.000616 -0.002487 0.007085 0.000000 0.000000 0.000000
# 4 0.000000 0.000000 0.000000 0.030314 0.000000 0.000000
# 5 0.000000 0.000000 0.000000 0.000000 0.053417 0.000000
# 6 0.000000 0.000000 0.000000 0.000000 0.000000 0.046835
#
#
# Mechanical properties :
#
#
# Convention : Reuss Voigt Hill
#
# Bulk Modulus (GPa) = 28.15245 45.45343 36.80294
# Shear Modulus (GPa) = 25.38976 31.29933 28.34454
#
# Velocity S-wave (km/s) = 3.48149 3.86547 3.67849
# Velocity P-wave (km/s) = 5.44064 6.45147 5.96750
#
# Compressibility (1/GPa) = 0.03552089
#
# Stress axis : x y z
#
# Youngs Moduli (GPa) = 35.77122 100.18036 141.14744
#
# Poissons Ratio (x) = 0.16503 0.08698
# Poissons Ratio (y) = 0.05893 0.35105
# Poissons Ratio (z) = 0.02204 0.24916
#
# Static dielectric constant tensor:
#      x y z
#    x 1.769350 0.000000 0.000000 
#    y 0.000000 1.714160 0.000000 
#    z 0.000000 0.000000 1.735300 
# 
# From -- ./inp_files/11979.got.cif
#   From: 2010.05.17/outbox.cif.g08.bks.cpg/sg71_6_cif.got.tgz:11979.got - 2010.06.03 16:22:01.
