data_PCOD9523874
_publ_section_title
;
Structure prediction by ZEFSAII (Michael W. Deem and Ramdas Pophale) SiO2 
 PCOD9523874
Probable space group: I M M M
;
_chemical_formula_sum "Si O2"
_cell_formula_units_Z 58
_cell_length_a 27.971251
_cell_length_b 7.237473
_cell_length_c 12.655225
_cell_angle_alpha 90.000000
_cell_angle_beta 90.000000
_cell_angle_gamma 90.000000
_cell_volume 2561.938605
_symmetry_space_group_name_H-M "I M M M"
_symmetry_group_IT_number 71
_symmetry_cell_setting 'orthorhombic'
loop_
_space_group_symop_operation_xyz
x,y,z
-x,-y,z
x,-y,-z
-x,y,-z
-x,-y,-z
x,y,-z
-x,y,z
x,-y,z
1/2+x,1/2+y,1/2+z
1/2-x,1/2-y,1/2+z
1/2+x,1/2-y,1/2-z
1/2-x,1/2+y,1/2-z
1/2-x,1/2-y,1/2-z
1/2+x,1/2+y,1/2-z
1/2-x,1/2+y,1/2+z
1/2+x,1/2-y,1/2+z
loop_
_atom_site_type_symbol
_atom_site_label
_atom_site_fract_x
_atom_site_fract_y
_atom_site_fract_z
Si Si1 0.000000 0.274949 0.204074
Si Si2 0.286772 0.723342 0.614599
Si Si3 0.000000 0.000000 0.000000
Si Si4 0.575287 0.775225 0.883704
Si Si5 0.180384 0.289856 0.340062
O O1 0.000000 0.161692 0.095319
O O2 0.955306 0.225078 0.281134
O O3 0.000000 0.500000 0.187835
O O4 0.305418 0.775910 0.500000
O O5 0.285889 0.500000 0.621395
O O6 0.231710 0.789245 0.625882
O O7 0.316805 0.790379 0.713256
O O8 0.630120 0.709859 0.874613
O O9 0.575582 0.000000 0.882735
O O10 0.556736 0.720908 0.000000
O O11 0.180858 0.500000 0.379182
#
# Coordination Sequence:
#
# PCOD9523874 Si02
#       5
#     8  16   2  16  16
#     4  10  22  43  69  95 123 160 205 244 308 370
#     4   9  17  30  46  69 104 148 190 235 286 348
#     4  12  26  48  66  90 128 172 194 254 296 362
#     4   9  17  34  62  91 115 147 194 254 309 364
#     4   9  17  30  50  76 106 141 189 238 294 350
#
# _framework density 22.639106999999999
#
# number of rings (size 3 to 8) (size 9 to 14) (size 15 to 20)
#    0.000    2.759    0.000    1.448    0.000    5.517 
#    4.966    1.379    0.000    1.655    0.000    0.000 
#    0.000    0.000    0.000    0.000    0.000    0.000 
#
# Total GULP energy -161580.770870 kJ/mol
# GULP energy per Si atom -5571.750720 kJ/mol
# Density = 2.258758 g / cm^3
# Si number density = 22.639107 Si / 1000 Ang^3
#
#
#
# Elastic Constant Matrix: (Units=GPa)
#
#
# Indices 1 2 3 4 5 6 
#
# 1 89.7773 12.2056 49.8701 0.0000 0.0000 0.0000
# 2 12.2056 128.6381 31.3710 0.0000 0.0000 0.0000
# 3 49.8701 31.3710 242.2407 0.0000 0.0000 0.0000
# 4 0.0000 0.0000 0.0000 -91.8621 0.0000 0.0000
# 5 0.0000 0.0000 0.0000 0.0000 -20.9312 0.0000
# 6 0.0000 0.0000 0.0000 0.0000 0.0000 -8.6786
#
#
#
# Elastic Compliance Matrix: (Units=1/GPa)
#
#
# Indices 1 2 3 4 5 6 
#
# 1 0.012619 -0.000582 -0.002522 0.000000 0.000000 0.000000
# 2 -0.000582 0.008054 -0.000923 0.000000 0.000000 0.000000
# 3 -0.002522 -0.000923 0.004767 0.000000 0.000000 0.000000
# 4 0.000000 0.000000 0.000000 -0.010886 0.000000 0.000000
# 5 0.000000 0.000000 0.000000 0.000000 -0.047776 0.000000
# 6 0.000000 0.000000 0.000000 0.000000 0.000000 -0.115227
#
#
# Mechanical properties :
#
#
# Convention : Reuss Voigt Hill
#
# Bulk Modulus (GPa) = 57.52268 71.94994 64.73631
# Shear Modulus (GPa) = -37.14784 0.18627 -18.48078
#
# Velocity S-wave (km/s) = -4.05516 0.28715 -2.86023
# Velocity P-wave (km/s) = 1.88094 5.65334 4.21296
#
# Compressibility (1/GPa) = 0.01738445
#
# Stress axis : x y z
#
# Youngs Moduli (GPa) = 79.24544 124.16006 209.77624
#
# Poissons Ratio (x) = 0.07228 0.52916
# Poissons Ratio (y) = 0.04613 0.19366
# Poissons Ratio (z) = 0.19990 0.11462
#
# Static dielectric constant tensor:
#      x y z
#    x 1.828610 0.000000 0.000000 
#    y 0.000000 1.982960 0.000000 
#    z 0.000000 0.000000 1.815270 
# 
# From -- ./inp_files/28225.got.cif
#   From: 2010.05.17/outbox.cif.g08.bks.cpg/sg71_15_cif.got.tgz:28225.got - 2010.06.03 16:22:01.
