data_PCOD9523148
_publ_section_title
;
Structure prediction by ZEFSAII (Michael W. Deem and Ramdas Pophale) SiO2 
 PCOD9523148
Probable space group: I M M M
;
_chemical_formula_sum "Si O2"
_cell_formula_units_Z 88
_cell_length_a 20.577934
_cell_length_b 8.738269
_cell_length_c 24.171977
_cell_angle_alpha 90.000000
_cell_angle_beta 90.000000
_cell_angle_gamma 90.000000
_cell_volume 4346.496680
_symmetry_space_group_name_H-M "I M M M"
_symmetry_group_IT_number 71
_symmetry_cell_setting 'orthorhombic'
loop_
_space_group_symop_operation_xyz
x,y,z
-x,-y,z
x,-y,-z
-x,y,-z
-x,-y,-z
x,y,-z
-x,y,z
x,-y,z
1/2+x,1/2+y,1/2+z
1/2-x,1/2-y,1/2+z
1/2+x,1/2-y,1/2-z
1/2-x,1/2+y,1/2-z
1/2-x,1/2-y,1/2-z
1/2+x,1/2+y,1/2-z
1/2-x,1/2+y,1/2+z
1/2+x,1/2-y,1/2+z
loop_
_atom_site_type_symbol
_atom_site_label
_atom_site_fract_x
_atom_site_fract_y
_atom_site_fract_z
Si Si1 0.077888 0.684750 0.500000
Si Si2 0.795657 0.669582 0.063330
Si Si3 0.160809 0.813759 0.604232
Si Si4 0.072940 0.175293 0.214814
Si Si5 0.684353 0.821104 0.222809
Si Si6 0.569265 0.323900 0.582116
O O1 0.084559 0.500000 0.500000
O O2 0.113129 0.750068 0.555915
O O3 0.000000 0.720754 0.500000
O O4 0.803877 0.500000 0.087484
O O5 0.734448 0.744697 0.092399
O O6 0.864859 0.747262 0.064037
O O7 0.774461 0.657376 0.000000
O O8 0.154682 0.759116 0.667545
O O9 0.159125 0.000000 0.601007
O O10 0.127024 0.292667 0.233536
O O11 0.070169 0.176601 0.148568
O O12 0.000000 0.208930 0.235588
O O13 0.089796 0.000000 0.231553
O O14 0.750000 0.750000 0.250000
O O15 0.695771 0.000000 0.212074
O O16 0.500000 0.254426 0.564492
O O17 0.570102 0.500000 0.564349
#
# Coordination Sequence:
#
# PCOD9523148 Si02
#       6
#     8  16  16  16  16  16
#     4  11  25  45  69  99 132 167 214 271 329 394
#     4  10  21  37  56  81 112 148 193 243 292 346
#     4  11  23  43  67  91 123 164 210 262 319 383
#     4   9  19  38  61  84 115 155 198 244 299 364
#     4  12  25  40  61  93 129 165 209 263 320 385
#     4   9  19  35  55  82 115 152 195 240 286 344
#
# _framework density 20.246191
#
# number of rings (size 3 to 8) (size 9 to 14) (size 15 to 20)
#    0.000    1.727    0.909    4.636    0.000    8.000 
#    0.000    3.636    0.000    0.000    0.000    0.000 
#    0.000    0.000    0.000    0.000    0.000    0.000 
#
# Total GULP energy -245279.433838 kJ/mol
# GULP energy per Si atom -5574.532587 kJ/mol
# Density = 2.020011 g / cm^3
# Si number density = 20.246191 Si / 1000 Ang^3
#
#
#
# Elastic Constant Matrix: (Units=GPa)
#
#
# Indices 1 2 3 4 5 6 
#
# 1 110.4047 38.3225 32.4033 0.0000 0.0000 0.0000
# 2 38.3225 72.9027 29.3245 0.0000 0.0000 0.0000
# 3 32.4033 29.3245 94.6084 0.0000 0.0000 0.0000
# 4 0.0000 0.0000 0.0000 25.7974 0.0000 0.0000
# 5 0.0000 0.0000 0.0000 0.0000 40.2805 0.0000
# 6 0.0000 0.0000 0.0000 0.0000 0.0000 33.2397
#
#
#
# Elastic Compliance Matrix: (Units=1/GPa)
#
#
# Indices 1 2 3 4 5 6 
#
# 1 0.011524 -0.005107 -0.002364 0.000000 0.000000 0.000000
# 2 -0.005107 0.017934 -0.003810 0.000000 0.000000 0.000000
# 3 -0.002364 -0.003810 0.012560 0.000000 0.000000 0.000000
# 4 0.000000 0.000000 0.000000 0.038764 0.000000 0.000000
# 5 0.000000 0.000000 0.000000 0.000000 0.024826 0.000000
# 6 0.000000 0.000000 0.000000 0.000000 0.000000 0.030084
#
#
# Mechanical properties :
#
#
# Convention : Reuss Voigt Hill
#
# Bulk Modulus (GPa) = 51.39496 53.11292 52.25394
# Shear Modulus (GPa) = 30.35102 31.72122 31.03612
#
# Velocity S-wave (km/s) = 3.87602 3.96254 3.91952
# Velocity P-wave (km/s) = 6.74325 6.87213 6.80800
#
# Compressibility (1/GPa) = 0.01945716
#
# Stress axis : x y z
#
# Youngs Moduli (GPa) = 86.77485 55.76061 79.61535
#
# Poissons Ratio (x) = 0.28476 0.18822
# Poissons Ratio (y) = 0.44315 0.30330
# Poissons Ratio (z) = 0.20514 0.21243
#
# Static dielectric constant tensor:
#      x y z
#    x 1.729630 0.000000 0.000000 
#    y 0.000000 1.732880 0.000000 
#    z 0.000000 0.000000 1.813610 
# 
# From -- ./inp_files/61116.got.cif
#   From: 2010.05.17/outbox.cif.g08.bks.cpg/sg71_31_cif.got.tgz:61116.got - 2010.06.03 16:22:01.
