data_PCOD9523891
_publ_section_title
;
Structure prediction by ZEFSAII (Michael W. Deem and Ramdas Pophale) SiO2 
 PCOD9523891
Probable space group: I M M M
;
_chemical_formula_sum "Si O2"
_cell_formula_units_Z 116
_cell_length_a 25.743023
_cell_length_b 29.662066
_cell_length_c 7.490814
_cell_angle_alpha 90.000000
_cell_angle_beta 90.000000
_cell_angle_gamma 90.000000
_cell_volume 5719.920005
_symmetry_space_group_name_H-M "I M M M"
_symmetry_group_IT_number 71
_symmetry_cell_setting 'orthorhombic'
loop_
_space_group_symop_operation_xyz
x,y,z
-x,-y,z
x,-y,-z
-x,y,-z
-x,-y,-z
x,y,-z
-x,y,z
x,-y,z
1/2+x,1/2+y,1/2+z
1/2-x,1/2-y,1/2+z
1/2+x,1/2-y,1/2-z
1/2-x,1/2+y,1/2-z
1/2-x,1/2-y,1/2-z
1/2+x,1/2+y,1/2-z
1/2-x,1/2+y,1/2+z
1/2+x,1/2-y,1/2+z
loop_
_atom_site_type_symbol
_atom_site_label
_atom_site_fract_x
_atom_site_fract_y
_atom_site_fract_z
Si Si1 0.057045 0.617824 0.281692
Si Si2 0.713919 0.791868 0.798027
Si Si3 0.000000 0.844428 0.000000
Si Si4 0.352366 0.948608 0.217431
Si Si5 0.414629 0.684020 0.782298
Si Si6 0.598313 0.787372 0.217413
Si Si7 0.197156 0.854827 0.294905
Si Si8 0.766385 0.050841 0.215616
O O1 0.058189 0.616946 0.500000
O O2 0.104799 0.586818 0.221352
O O3 0.065750 0.669388 0.224007
O O4 0.000000 0.601704 0.226826
O O5 0.750000 0.750000 0.750000
O O6 0.657361 0.793862 0.711428
O O7 0.750250 0.835545 0.789827
O O8 0.699830 0.783467 0.000000
O O9 0.954893 0.841942 0.841358
O O10 0.293052 0.939818 0.275024
O O11 0.365498 0.000000 0.267779
O O12 0.351542 0.947046 0.000000
O O13 0.420290 0.737222 0.737707
O O14 0.356041 0.668228 0.733929
O O15 0.420989 0.678390 0.000000
O O16 0.596221 0.788996 0.000000
O O17 0.202342 0.841603 0.500000
O O18 0.197303 0.908587 0.276826
O O19 0.780208 0.000000 0.273006
O O20 0.766572 0.051077 0.000000
#
# Coordination Sequence:
#
# PCOD9523891 Si02
#       8
#    16  16   4  16  16  16  16  16
#     4   9  16  24  40  65  93 139 192 235 287 338
#     4  11  20  32  53  78 111 151 193 237 287 354
#     4  12  26  40  64  86 109 162 203 240 294 332
#     4   8  14  26  43  68 102 137 180 234 290 344
#     4  10  23  41  59  85 117 152 198 245 291 346
#     4   9  18  33  50  71 106 149 192 240 295 345
#     4  11  22  36  55  84 120 154 186 234 294 352
#     4   9  18  33  56  83 112 147 185 230 287 354
#
# _framework density 20.280002
#
# number of rings (size 3 to 8) (size 9 to 14) (size 15 to 20)
#    0.000    2.345    1.379    2.690    2.897    2.759 
#    1.241    1.379    0.000    0.000    0.000    0.966 
#    0.000    2.207    0.000    7.793    0.000    8.138 
#
# Total GULP energy -323054.365383 kJ/mol
# GULP energy per Si atom -5569.902851 kJ/mol
# Density = 2.023384 g / cm^3
# Si number density = 20.280002 Si / 1000 Ang^3
#
#
#
# Elastic Constant Matrix: (Units=GPa)
#
#
# Indices 1 2 3 4 5 6 
#
# 1 31.2134 2.5888 4.3686 0.0000 0.0000 0.0000
# 2 2.5888 85.7950 -7.2456 0.0000 0.0000 0.0000
# 3 4.3686 -7.2456 60.6835 0.0000 0.0000 0.0000
# 4 0.0000 0.0000 0.0000 9.2802 0.0000 0.0000
# 5 0.0000 0.0000 0.0000 0.0000 27.6722 0.0000
# 6 0.0000 0.0000 0.0000 0.0000 0.0000 14.5438
#
#
#
# Elastic Compliance Matrix: (Units=1/GPa)
#
#
# Indices 1 2 3 4 5 6 
#
# 1 0.032483 -0.001190 -0.002481 0.000000 0.000000 0.000000
# 2 -0.001190 0.011818 0.001497 0.000000 0.000000 0.000000
# 3 -0.002481 0.001497 0.016836 0.000000 0.000000 0.000000
# 4 0.000000 0.000000 0.000000 0.107756 0.000000 0.000000
# 5 0.000000 0.000000 0.000000 0.000000 0.036137 0.000000
# 6 0.000000 0.000000 0.000000 0.000000 0.000000 0.068758
#
#
# Mechanical properties :
#
#
# Convention : Reuss Voigt Hill
#
# Bulk Modulus (GPa) = 17.60852 19.67948 18.64400
# Shear Modulus (GPa) = 16.83128 22.16458 19.49793
#
# Velocity S-wave (km/s) = 2.88400 3.30953 3.10407
# Velocity P-wave (km/s) = 4.44876 4.93244 4.69683
#
# Compressibility (1/GPa) = 0.05679069
#
# Stress axis : x y z
#
# Youngs Moduli (GPa) = 30.78502 84.61676 59.39569
#
# Poissons Ratio (x) = 0.10066 0.14733
# Poissons Ratio (y) = 0.03662 -0.08890
# Poissons Ratio (z) = 0.07636 -0.12665
#
# Static dielectric constant tensor:
#      x y z
#    x 1.686820 0.000000 0.000000 
#    y 0.000000 1.718560 0.000000 
#    z 0.000000 0.000000 1.784620 
# 
# From -- ./inp_files/13745.got.cif
#   From: 2010.05.17/outbox.cif.g08.bks.cpg/sg71_7_cif.got.tgz:13745.got - 2010.06.03 16:22:01.
