data_PCOD9523034
_publ_section_title
;
Structure prediction by ZEFSAII (Michael W. Deem and Ramdas Pophale) SiO2 
 PCOD9523034
Probable space group: I M M M
;
_chemical_formula_sum "Si O2"
_cell_formula_units_Z 112
_cell_length_a 24.063249
_cell_length_b 13.929704
_cell_length_c 16.365495
_cell_angle_alpha 90.000000
_cell_angle_beta 90.000000
_cell_angle_gamma 90.000000
_cell_volume 5485.614681
_symmetry_space_group_name_H-M "I M M M"
_symmetry_group_IT_number 71
_symmetry_cell_setting 'orthorhombic'
loop_
_space_group_symop_operation_xyz
x,y,z
-x,-y,z
x,-y,-z
-x,y,-z
-x,-y,-z
x,y,-z
-x,y,z
x,-y,z
1/2+x,1/2+y,1/2+z
1/2-x,1/2-y,1/2+z
1/2+x,1/2-y,1/2-z
1/2-x,1/2+y,1/2-z
1/2-x,1/2-y,1/2-z
1/2+x,1/2+y,1/2-z
1/2-x,1/2+y,1/2+z
1/2+x,1/2-y,1/2+z
loop_
_atom_site_type_symbol
_atom_site_label
_atom_site_fract_x
_atom_site_fract_y
_atom_site_fract_z
Si Si1 0.625538 0.615374 0.090889
Si Si2 0.341062 0.890640 0.626038
Si Si3 0.060338 0.384101 0.596698
Si Si4 0.933251 0.888862 0.241013
Si Si5 0.825710 0.389968 0.680164
Si Si6 0.066091 0.248185 0.091908
Si Si7 0.235966 0.237557 0.409501
O O1 0.629376 0.500000 0.090925
O O2 0.589719 0.641366 0.170396
O O3 0.686387 0.660630 0.099664
O O4 0.603648 0.643472 0.000000
O O5 0.336298 0.890567 0.723901
O O6 0.399768 0.846104 0.600823
O O7 0.293281 0.818837 0.596414
O O8 0.333338 0.000000 0.597787
O O9 0.062855 0.365927 0.500000
O O10 0.059429 0.500000 0.607591
O O11 0.117572 0.352656 0.637642
O O12 0.000000 0.347864 0.627744
O O13 0.915438 0.822102 0.165368
O O14 0.000000 0.886386 0.243915
O O15 0.916414 0.000000 0.226842
O O16 0.815682 0.500000 0.653452
O O17 0.775618 0.320580 0.655539
O O18 0.000000 0.263260 0.100002
O O19 0.076134 0.209077 0.000000
O O20 0.230551 0.281144 0.500000
#
# Coordination Sequence:
#
# PCOD9523034 Si02
#       7
#    16  16  16  16  16  16  16
#     4   9  18  33  55  84 116 152 194 236 279 331
#     4  11  24  41  61  83 109 145 189 238 292 349
#     4   8  14  27  49  77 111 150 186 219 262 324
#     4   9  18  34  58  87 119 155 191 231 283 341
#     4  10  21  36  56  84 117 152 189 233 287 345
#     4  10  22  40  61  85 113 146 189 244 299 348
#     4  11  22  37  58  81 110 148 187 230 280 338
#
# _framework density 20.417038000000002
#
# number of rings (size 3 to 8) (size 9 to 14) (size 15 to 20)
#    0.000    2.286    0.000    3.000    0.000    4.000 
#    0.000    7.857    0.000    2.571    0.000    0.000 
#    0.000    0.000    0.000    0.000    0.000    0.143 
#
# Total GULP energy -312651.936762 kJ/mol
# GULP energy per Si atom -5583.070299 kJ/mol
# Density = 2.037057 g / cm^3
# Si number density = 20.417038 Si / 1000 Ang^3
#
#
#
# Elastic Constant Matrix: (Units=GPa)
#
#
# Indices 1 2 3 4 5 6 
#
# 1 47.9196 32.8686 27.6213 0.0000 0.0000 0.0000
# 2 32.8686 95.6307 34.4192 0.0000 0.0000 0.0000
# 3 27.6213 34.4192 107.8118 0.0000 0.0000 0.0000
# 4 0.0000 0.0000 0.0000 68.4938 0.0000 0.0000
# 5 0.0000 0.0000 0.0000 0.0000 13.7811 0.0000
# 6 0.0000 0.0000 0.0000 0.0000 0.0000 30.3351
#
#
#
# Elastic Compliance Matrix: (Units=1/GPa)
#
#
# Indices 1 2 3 4 5 6 
#
# 1 0.029404 -0.008355 -0.004866 0.000000 0.000000 0.000000
# 2 -0.008355 0.014188 -0.002389 0.000000 0.000000 0.000000
# 3 -0.004866 -0.002389 0.011285 0.000000 0.000000 0.000000
# 4 0.000000 0.000000 0.000000 0.014600 0.000000 0.000000
# 5 0.000000 0.000000 0.000000 0.000000 0.072563 0.000000
# 6 0.000000 0.000000 0.000000 0.000000 0.000000 0.032965
#
#
# Mechanical properties :
#
#
# Convention : Reuss Voigt Hill
#
# Bulk Modulus (GPa) = 42.27064 49.02004 45.64534
# Shear Modulus (GPa) = 23.35242 32.95221 28.15232
#
# Velocity S-wave (km/s) = 3.38564 4.02177 3.71733
# Velocity P-wave (km/s) = 6.00266 6.75482 6.38982
#
# Compressibility (1/GPa) = 0.02365708
#
# Stress axis : x y z
#
# Youngs Moduli (GPa) = 34.00929 70.48020 88.61468
#
# Poissons Ratio (x) = 0.58885 0.43119
# Poissons Ratio (y) = 0.28414 0.21172
# Poissons Ratio (z) = 0.16549 0.16839
#
# Static dielectric constant tensor:
#      x y z
#    x 1.718780 0.000000 0.000000 
#    y 0.000000 1.739260 0.000000 
#    z 0.000000 0.000000 1.690750 
# 
# From -- ./inp_files/39265.got.cif
#   From: 2010.05.17/outbox.cif.g08.bks.cpg/sg71_20_cif.got.tgz:39265.got - 2010.06.03 16:22:01.
