data_PCOD9523477
_publ_section_title
;
Structure prediction by ZEFSAII (Michael W. Deem and Ramdas Pophale) SiO2 
 PCOD9523477
Probable space group: I M M M
;
_chemical_formula_sum "Si O2"
_cell_formula_units_Z 64
_cell_length_a 8.279784
_cell_length_b 26.418732
_cell_length_c 14.143150
_cell_angle_alpha 90.000000
_cell_angle_beta 90.000000
_cell_angle_gamma 90.000000
_cell_volume 3093.692354
_symmetry_space_group_name_H-M "I M M M"
_symmetry_group_IT_number 71
_symmetry_cell_setting 'orthorhombic'
loop_
_space_group_symop_operation_xyz
x,y,z
-x,-y,z
x,-y,-z
-x,y,-z
-x,-y,-z
x,y,-z
-x,y,z
x,-y,z
1/2+x,1/2+y,1/2+z
1/2-x,1/2-y,1/2+z
1/2+x,1/2-y,1/2-z
1/2-x,1/2+y,1/2-z
1/2-x,1/2-y,1/2-z
1/2+x,1/2+y,1/2-z
1/2-x,1/2+y,1/2+z
1/2+x,1/2-y,1/2+z
loop_
_atom_site_type_symbol
_atom_site_label
_atom_site_fract_x
_atom_site_fract_y
_atom_site_fract_z
Si Si1 0.691203 0.307049 0.762004
Si Si2 0.676261 0.113090 0.386838
Si Si3 0.000000 0.942901 0.615191
Si Si4 0.308572 0.500000 0.613159
Si Si5 0.306756 0.111106 0.889381
O O1 0.500000 0.308023 0.780904
O O2 0.750000 0.250000 0.750000
O O3 0.791197 0.331189 0.848360
O O4 0.729565 0.344654 0.674140
O O5 0.675265 0.111575 0.500000
O O6 0.500000 0.094672 0.353760
O O7 0.834029 0.082800 0.354285
O O8 0.000000 0.941990 0.500000
O O9 0.000000 0.000000 0.647394
O O10 0.500000 0.500000 0.628992
O O11 0.278128 0.500000 0.500000
O O12 0.237775 0.554174 0.644957
O O13 0.500000 0.116610 0.885158
O O14 0.256438 0.115480 0.000000
#
# Coordination Sequence:
#
# PCOD9523477 Si02
#       5
#    16  16   8   8  16
#     4  12  25  42  63  88 121 158 206 260 307 367
#     4  10  21  40  64  90 124 163 205 252 305 364
#     4   9  18  36  62  92 125 161 203 250 303 364
#     4   9  17  33  59  89 122 159 198 245 301 361
#     4  10  21  39  62  90 124 161 202 249 304 365
#
# _framework density 20.687252999999998
#
# number of rings (size 3 to 8) (size 9 to 14) (size 15 to 20)
#    0.000    1.750    1.250    3.375    0.000    4.500 
#    2.250    2.500    0.000    0.000    0.000    0.000 
#    0.000    0.000    0.000    0.000    0.000    0.000 
#
# Total GULP energy -178713.328400 kJ/mol
# GULP energy per Si atom -5584.791513 kJ/mol
# Density = 2.064017 g / cm^3
# Si number density = 20.687253 Si / 1000 Ang^3
#
#
#
# Elastic Constant Matrix: (Units=GPa)
#
#
# Indices 1 2 3 4 5 6 
#
# 1 149.7950 74.2371 20.2987 0.0000 0.0000 0.0000
# 2 74.2371 138.1492 18.6189 0.0000 0.0000 0.0000
# 3 20.2987 18.6189 64.1926 0.0002 0.0000 0.0000
# 4 0.0000 0.0000 0.0002 32.0027 0.0000 0.0000
# 5 0.0000 0.0000 0.0000 0.0000 21.1732 0.0000
# 6 0.0000 0.0000 0.0000 0.0000 0.0000 33.2319
#
#
#
# Elastic Compliance Matrix: (Units=1/GPa)
#
#
# Indices 1 2 3 4 5 6 
#
# 1 0.009243 -0.004759 -0.001543 0.000000 0.000000 0.000000
# 2 -0.004759 0.009983 -0.001391 0.000000 0.000000 0.000000
# 3 -0.001543 -0.001391 0.016469 0.000000 0.000000 0.000000
# 4 0.000000 0.000000 0.000000 0.031247 0.000000 0.000000
# 5 0.000000 0.000000 0.000000 0.000000 0.047230 0.000000
# 6 0.000000 0.000000 0.000000 0.000000 0.000000 0.030092
#
#
# Mechanical properties :
#
#
# Convention : Reuss Voigt Hill
#
# Bulk Modulus (GPa) = 49.23396 64.27180 56.75288
# Shear Modulus (GPa) = 30.04446 33.21371 31.62908
#
# Velocity S-wave (km/s) = 3.81506 4.01124 3.91438
# Velocity P-wave (km/s) = 6.57701 7.25183 6.92265
#
# Compressibility (1/GPa) = 0.02031118
#
# Stress axis : x y z
#
# Youngs Moduli (GPa) = 108.18457 100.16565 60.71920
#
# Poissons Ratio (x) = 0.47671 0.09366
# Poissons Ratio (y) = 0.51488 0.08444
# Poissons Ratio (z) = 0.16688 0.13930
#
# Static dielectric constant tensor:
#      x y z
#    x 1.737930 0.000000 0.000000 
#    y 0.000000 1.658750 0.000000 
#    z 0.000000 0.000000 1.771950 
# 
# From -- ./inp_files/31201.got.cif
#   From: 2010.05.17/outbox.cif.g08.bks.cpg/sg71_16_cif.got.tgz:31201.got - 2010.06.03 16:22:01.
