data_PCOD9523918
_publ_section_title
;
Structure prediction by ZEFSAII (Michael W. Deem and Ramdas Pophale) SiO2 
 PCOD9523918
Probable space group: I M M M
;
_chemical_formula_sum "Si O2"
_cell_formula_units_Z 96
_cell_length_a 26.113387
_cell_length_b 13.763784
_cell_length_c 14.557182
_cell_angle_alpha 90.000000
_cell_angle_beta 90.000000
_cell_angle_gamma 90.000000
_cell_volume 5232.128062
_symmetry_space_group_name_H-M "I M M M"
_symmetry_group_IT_number 71
_symmetry_cell_setting 'orthorhombic'
loop_
_space_group_symop_operation_xyz
x,y,z
-x,-y,z
x,-y,-z
-x,y,-z
-x,-y,-z
x,y,-z
-x,y,z
x,-y,z
1/2+x,1/2+y,1/2+z
1/2-x,1/2-y,1/2+z
1/2+x,1/2-y,1/2-z
1/2-x,1/2+y,1/2-z
1/2-x,1/2-y,1/2-z
1/2+x,1/2+y,1/2-z
1/2-x,1/2+y,1/2+z
1/2+x,1/2-y,1/2+z
loop_
_atom_site_type_symbol
_atom_site_label
_atom_site_fract_x
_atom_site_fract_y
_atom_site_fract_z
Si Si1 0.194254 0.117323 0.750000
Si Si2 0.000000 0.116805 0.391904
Si Si3 0.865351 0.384865 0.250000
Si Si4 0.500000 0.616805 0.391904
Si Si5 0.079876 0.198173 0.250000
Si Si6 0.221904 0.382143 0.395952
Si Si7 0.778096 0.617857 0.104048
O O1 0.137417 0.157555 0.750000
O O2 0.227964 0.147962 0.838349
O O3 0.227964 0.147962 0.661651
O O4 0.191793 0.000000 0.750000
O O5 0.048819 0.159917 0.338177
O O6 0.000000 0.139160 0.500000
O O7 0.000000 0.000000 0.381089
O O8 0.876457 0.500000 0.250000
O O9 0.913651 0.314321 0.250000
O O10 0.828965 0.361568 0.337234
O O11 0.828965 0.361568 0.162766
O O12 0.500000 0.500000 0.381089
O O13 0.500000 0.639161 0.500000
O O14 0.451181 0.659917 0.338177
O O15 0.219991 0.346821 0.500000
O O16 0.224505 0.500000 0.398428
O O17 0.775495 0.500000 0.101572
O O18 0.780009 0.653179 0.000000
#
# Coordination Sequence:
#
# PCOD9523918 Si02
#       7
#    16   8  16   8  16  16  16
#     4   9  17  29  48  76 104 134 175 218 263 312
#     4  10  23  43  62  80 104 130 160 211 279 336
#     4   9  19  34  52  76 108 147 183 213 250 298
#     4  10  23  43  62  80 104 130 160 211 279 336
#     4  11  21  36  58  80 104 136 178 221 263 314
#     4   8  15  29  47  71 109 148 177 212 256 299
#     4   8  15  29  47  71 109 148 177 212 256 299
#
# _framework density 18.348175999999999
#
# number of rings (size 3 to 8) (size 9 to 14) (size 15 to 20)
#    0.000    2.833    0.000    4.000    0.000    5.333 
#    0.000    6.667    0.000    1.000    0.000    0.000 
#    0.000    0.000    0.000    0.000    0.000    0.000 
#
# Total GULP energy -267907.351264 kJ/mol
# GULP energy per Si atom -5581.403151 kJ/mol
# Density = 1.830641 g / cm^3
# Si number density = 18.348176 Si / 1000 Ang^3
#
#
#
# Elastic Constant Matrix: (Units=GPa)
#
#
# Indices 1 2 3 4 5 6 
#
# 1 97.1140 51.4722 68.0739 0.0000 0.0000 0.0000
# 2 51.4722 109.5329 45.5988 0.0000 0.0000 0.0000
# 3 68.0739 45.5988 185.4747 0.0000 0.0000 0.0000
# 4 0.0000 0.0000 0.0000 6.0869 0.0000 0.0000
# 5 0.0000 0.0000 0.0000 0.0000 3.4649 0.0000
# 6 0.0000 0.0000 0.0000 0.0000 0.0000 39.6143
#
#
#
# Elastic Compliance Matrix: (Units=1/GPa)
#
#
# Indices 1 2 3 4 5 6 
#
# 1 0.016706 -0.005902 -0.004681 0.000000 0.000000 0.000000
# 2 -0.005902 0.012256 -0.000847 0.000000 0.000000 0.000000
# 3 -0.004681 -0.000847 0.007318 0.000000 0.000000 0.000000
# 4 0.000000 0.000000 0.000000 0.164287 0.000000 0.000000
# 5 0.000000 0.000000 0.000000 0.000000 0.288605 0.000000
# 6 0.000000 0.000000 0.000000 0.000000 0.000000 0.025243
#
#
# Mechanical properties :
#
#
# Convention : Reuss Voigt Hill
#
# Bulk Modulus (GPa) = 74.51235 80.26792 77.39013
# Shear Modulus (GPa) = 9.22937 24.96501 17.09719
#
# Velocity S-wave (km/s) = 2.24523 3.69267 3.05588
# Velocity P-wave (km/s) = 6.88620 7.87548 7.39740
#
# Compressibility (1/GPa) = 0.01342059
#
# Stress axis : x y z
#
# Youngs Moduli (GPa) = 59.85725 81.59405 136.65555
#
# Poissons Ratio (x) = 0.48158 0.63963
# Poissons Ratio (y) = 0.35329 0.11572
# Poissons Ratio (z) = 0.28017 0.06910
#
# Static dielectric constant tensor:
#      x y z
#    x 1.585500 0.000000 0.000000 
#    y 0.000000 1.692170 0.000000 
#    z 0.000000 0.000000 1.634110 
# 
# From -- ./inp_files/39199.got.cif
#   From: 2010.05.17/outbox.cif.g08.bks.cpg/sg71_20_cif.got.tgz:39199.got - 2010.06.03 16:22:01.
