data_PCOD9523405
_publ_section_title
;
Structure prediction by ZEFSAII (Michael W. Deem and Ramdas Pophale) SiO2 
 PCOD9523405
Probable space group: I M M M
;
_chemical_formula_sum "Si O2"
_cell_formula_units_Z 74
_cell_length_a 15.609200
_cell_length_b 8.203761
_cell_length_c 28.393187
_cell_angle_alpha 90.000000
_cell_angle_beta 90.000000
_cell_angle_gamma 90.000000
_cell_volume 3635.865319
_symmetry_space_group_name_H-M "I M M M"
_symmetry_group_IT_number 71
_symmetry_cell_setting 'orthorhombic'
loop_
_space_group_symop_operation_xyz
x,y,z
-x,-y,z
x,-y,-z
-x,y,-z
-x,-y,-z
x,y,-z
-x,y,z
x,-y,z
1/2+x,1/2+y,1/2+z
1/2-x,1/2-y,1/2+z
1/2+x,1/2-y,1/2-z
1/2-x,1/2+y,1/2-z
1/2-x,1/2-y,1/2-z
1/2+x,1/2+y,1/2-z
1/2-x,1/2+y,1/2+z
1/2+x,1/2-y,1/2+z
loop_
_atom_site_type_symbol
_atom_site_label
_atom_site_fract_x
_atom_site_fract_y
_atom_site_fract_z
Si Si1 0.686768 0.689786 0.113718
Si Si2 0.500000 0.696090 0.727381
Si Si3 0.000000 0.500000 0.500000
Si Si4 0.000000 0.812476 0.569923
Si Si5 0.156603 0.806797 0.946087
Si Si6 0.670548 0.697391 0.219114
Si Si7 0.000000 0.691656 0.119048
O O1 0.714078 0.500000 0.114982
O O2 0.588216 0.694839 0.098488
O O3 0.750777 0.773067 0.076940
O O4 0.688095 0.758970 0.166363
O O5 0.500000 0.500000 0.730413
O O6 0.415908 0.755527 0.755215
O O7 0.500000 0.736177 0.671851
O O8 0.000000 0.351607 0.539385
O O9 0.000000 0.000000 0.549640
O O10 0.083323 0.739871 0.911527
O O11 0.143885 0.000000 0.948471
O O12 0.151488 0.742290 0.000000
O O13 0.665136 0.500000 0.216136
O O14 0.750000 0.750000 0.250000
O O15 0.000000 0.500000 0.125138
#
# Coordination Sequence:
#
# PCOD9523405 Si02
#       7
#    16   8   2   8  16  16   8
#     4  10  22  41  64  92 129 168 209 257 317 377
#     4  10  21  39  65  89 120 162 203 247 309 370
#     4  12  26  40  68  94 132 166 234 260 324 394
#     4  10  24  43  66  94 132 174 214 272 324 376
#     4  11  25  42  64  90 123 162 209 259 311 370
#     4  10  21  38  61  90 122 161 204 253 309 374
#     4  12  25  42  63  91 124 158 205 259 315 380
#
# _framework density 20.352788
#
# number of rings (size 3 to 8) (size 9 to 14) (size 15 to 20)
#    0.000    1.514    0.000    4.054    3.027   10.811 
#    0.000    0.000    2.378    0.000    0.000    0.000 
#    0.000    0.000    0.000    0.000    0.000    0.000 
#
# Total GULP energy -206309.140115 kJ/mol
# GULP energy per Si atom -5575.922706 kJ/mol
# Density = 2.030646 g / cm^3
# Si number density = 20.352788 Si / 1000 Ang^3
#
#
#
# Elastic Constant Matrix: (Units=GPa)
#
#
# Indices 1 2 3 4 5 6 
#
# 1 71.2283 -10.1510 -8.3720 0.0000 0.0000 0.0000
# 2 -10.1510 58.8659 8.2119 0.0000 0.0000 0.0000
# 3 -8.3720 8.2119 95.5156 0.0000 0.0000 0.0000
# 4 0.0000 0.0000 0.0000 26.5919 0.0000 0.0000
# 5 0.0000 0.0000 0.0000 0.0000 61.4838 0.0000
# 6 0.0000 0.0000 0.0000 0.0000 0.0000 27.8665
#
#
#
# Elastic Compliance Matrix: (Units=1/GPa)
#
#
# Indices 1 2 3 4 5 6 
#
# 1 0.014500 0.002351 0.001069 0.000000 0.000000 0.000000
# 2 0.002351 0.017575 -0.001305 0.000000 0.000000 0.000000
# 3 0.001069 -0.001305 0.010675 0.000000 0.000000 0.000000
# 4 0.000000 0.000000 0.000000 0.037605 0.000000 0.000000
# 5 0.000000 0.000000 0.000000 0.000000 0.016264 0.000000
# 6 0.000000 0.000000 0.000000 0.000000 0.000000 0.035885
#
#
# Mechanical properties :
#
#
# Convention : Reuss Voigt Hill
#
# Bulk Modulus (GPa) = 21.28517 22.77642 22.03079
# Shear Modulus (GPa) = 34.73765 38.91649 36.82707
#
# Velocity S-wave (km/s) = 4.13580 4.37750 4.25836
# Velocity P-wave (km/s) = 5.76951 6.06342 5.91829
#
# Compressibility (1/GPa) = 0.04698106
#
# Stress axis : x y z
#
# Youngs Moduli (GPa) = 68.96510 56.89817 93.67358
#
# Poissons Ratio (x) = -0.13379 -0.10012
# Poissons Ratio (y) = -0.16216 0.12224
# Poissons Ratio (z) = -0.07371 0.07425
#
# Static dielectric constant tensor:
#      x y z
#    x 1.689440 0.000000 0.000000 
#    y 0.000000 1.724890 0.000000 
#    z 0.000000 0.000000 1.704390 
# 
# From -- ./inp_files/65211.got.cif
#   From: 2010.05.17/outbox.cif.g08.bks.cpg/sg71_33_cif.got.tgz:65211.got - 2010.06.03 16:22:01.
