data_PCOD9523859
_publ_section_title
;
Structure prediction by ZEFSAII (Michael W. Deem and Ramdas Pophale) SiO2 
 PCOD9523859
Probable space group: I M M M
;
_chemical_formula_sum "Si O2"
_cell_formula_units_Z 42
_cell_length_a 8.002233
_cell_length_b 25.684039
_cell_length_c 9.793222
_cell_angle_alpha 90.000000
_cell_angle_beta 90.000000
_cell_angle_gamma 90.000000
_cell_volume 2012.797632
_symmetry_space_group_name_H-M "I M M M"
_symmetry_group_IT_number 71
_symmetry_cell_setting 'orthorhombic'
loop_
_space_group_symop_operation_xyz
x,y,z
-x,-y,z
x,-y,-z
-x,y,-z
-x,-y,-z
x,y,-z
-x,y,z
x,-y,z
1/2+x,1/2+y,1/2+z
1/2-x,1/2-y,1/2+z
1/2+x,1/2-y,1/2-z
1/2-x,1/2+y,1/2-z
1/2-x,1/2-y,1/2-z
1/2+x,1/2+y,1/2-z
1/2-x,1/2+y,1/2+z
1/2+x,1/2-y,1/2+z
loop_
_atom_site_type_symbol
_atom_site_label
_atom_site_fract_x
_atom_site_fract_y
_atom_site_fract_z
Si Si1 0.698002 0.612988 0.849258
Si Si2 0.000000 0.500000 0.500000
Si Si3 0.801390 0.000000 0.773265
Si Si4 0.196995 0.297074 0.652856
O O1 0.500000 0.623525 0.853176
O O2 0.718954 0.552458 0.814549
O O3 0.767225 0.648999 0.729637
O O4 0.767331 0.625490 0.000000
O O5 0.848241 0.500000 0.382869
O O6 0.000000 0.000000 0.821870
O O7 0.272063 0.295131 0.500000
O O8 0.250000 0.250000 0.750000
O O9 0.000000 0.292521 0.638741
#
# Coordination Sequence:
#
# PCOD9523859 Si02
#       4
#    16   2   8  16
#     4  10  22  42  67  94 129 170 215 266 327 392
#     4  12  26  40  66  98 144 168 236 264 328 396
#     4  10  24  43  67  97 136 179 218 274 332 388
#     4  11  25  42  63  92 127 165 213 268 325 389
#
# _framework density 20.866478000000001
#
# number of rings (size 3 to 8) (size 9 to 14) (size 15 to 20)
#    0.000    1.524    0.000    3.143    5.333   10.667 
#    0.000    0.952    0.000    0.000    0.000    0.000 
#    0.000    0.000    0.000    0.000    0.000    0.000 
#
# Total GULP energy -116990.423080 kJ/mol
# GULP energy per Si atom -5570.972528 kJ/mol
# Density = 2.081899 g / cm^3
# Si number density = 20.866478 Si / 1000 Ang^3
#
#
#
# Elastic Constant Matrix: (Units=GPa)
#
#
# Indices 1 2 3 4 5 6 
#
# 1 79.9656 14.8429 48.4189 -0.0001 0.0000 0.0000
# 2 14.8429 129.1257 68.4949 -0.0003 0.0000 0.0000
# 3 48.4189 68.4949 197.5969 0.0012 0.0003 0.0002
# 4 -0.0001 -0.0003 0.0012 -71.3414 0.0002 0.0000
# 5 0.0000 0.0000 0.0003 0.0002 29.4330 0.0001
# 6 0.0000 0.0000 0.0002 0.0000 0.0001 27.5135
#
#
#
# Elastic Compliance Matrix: (Units=1/GPa)
#
#
# Indices 1 2 3 4 5 6 
#
# 1 0.014692 0.000271 -0.003694 0.000000 0.000000 0.000000
# 2 0.000271 0.009494 -0.003357 0.000000 0.000000 0.000000
# 3 -0.003694 -0.003357 0.007130 0.000000 0.000000 0.000000
# 4 0.000000 0.000000 0.000000 -0.014017 0.000000 0.000000
# 5 0.000000 0.000000 0.000000 0.000000 0.033975 0.000000
# 6 0.000000 0.000000 0.000000 0.000000 0.000000 0.036346
#
#
# Mechanical properties :
#
#
# Convention : Reuss Voigt Hill
#
# Bulk Modulus (GPa) = 56.32390 74.46687 65.39538
# Shear Modulus (GPa) = 46.68568 15.44980 31.06774
#
# Velocity S-wave (km/s) = 4.73520 2.72400 3.86279
# Velocity P-wave (km/s) = 7.54634 6.75710 7.16260
#
# Compressibility (1/GPa) = 0.01775445
#
# Stress axis : x y z
#
# Youngs Moduli (GPa) = 68.06536 105.32733 140.25743
#
# Poissons Ratio (x) = -0.02850 0.51809
# Poissons Ratio (y) = -0.01842 0.47090
# Poissons Ratio (z) = 0.25142 0.35362
#
# Static dielectric constant tensor:
#      x y z
#    x 1.752660 0.000000 0.000000 
#    y 0.000000 1.719990 0.000000 
#    z 0.000000 0.000000 1.806240 
# 
# From -- ./inp_files/1971.got.cif
#   From: 2010.05.17/outbox.cif.g08.bks.cpg/sg71_1_cif.got.tgz:1971.got - 2010.06.03 16:22:01.
