data_PCOD9523847
_publ_section_title
;
Structure prediction by ZEFSAII (Michael W. Deem and Ramdas Pophale) SiO2 
 PCOD9523847
Probable space group: I M M M
;
_chemical_formula_sum "Si O2"
_cell_formula_units_Z 58
_cell_length_a 31.467485
_cell_length_b 14.314176
_cell_length_c 7.454569
_cell_angle_alpha 90.000000
_cell_angle_beta 90.000000
_cell_angle_gamma 90.000000
_cell_volume 3357.769853
_symmetry_space_group_name_H-M "I M M M"
_symmetry_group_IT_number 71
_symmetry_cell_setting 'orthorhombic'
loop_
_space_group_symop_operation_xyz
x,y,z
-x,-y,z
x,-y,-z
-x,y,-z
-x,-y,-z
x,y,-z
-x,y,z
x,-y,z
1/2+x,1/2+y,1/2+z
1/2-x,1/2-y,1/2+z
1/2+x,1/2-y,1/2-z
1/2-x,1/2+y,1/2-z
1/2-x,1/2-y,1/2-z
1/2+x,1/2+y,1/2-z
1/2-x,1/2+y,1/2+z
1/2+x,1/2-y,1/2+z
loop_
_atom_site_type_symbol
_atom_site_label
_atom_site_fract_x
_atom_site_fract_y
_atom_site_fract_z
Si Si1 0.912149 0.896123 0.000000
Si Si2 0.226165 0.891261 0.717262
Si Si3 0.359915 0.294508 0.793343
Si Si4 0.178863 0.392436 0.217042
Si Si5 0.000000 0.000000 0.000000
O O1 0.896144 0.838866 0.828400
O O2 0.961878 0.919970 0.000000
O O3 0.891137 0.000000 0.000000
O O4 0.227009 0.885103 0.500000
O O5 0.185557 0.833284 0.777570
O O6 0.273416 0.864144 0.779580
O O7 0.220236 0.000000 0.763570
O O8 0.354854 0.183071 0.781823
O O9 0.365038 0.323192 0.000000
O O10 0.171691 0.500000 0.271330
O O11 0.178871 0.390788 0.000000
#
# Coordination Sequence:
#
# PCOD9523847 Si02
#       5
#     8  16  16  16   2
#     4  10  22  42  61  83 109 137 172 230 295 354
#     4   8  15  27  44  70 108 152 196 236 269 312
#     4  11  20  32  55  82 109 146 192 233 278 338
#     4   9  17  31  48  71 113 162 199 234 268 305
#     4   8  24  48  66  84 118 134 168 252 298 372
#
# _framework density 17.27337
#
# number of rings (size 3 to 8) (size 9 to 14) (size 15 to 20)
#    0.414    2.207    1.379    3.310    0.000    2.207 
#    2.483    1.379    0.000    0.000    0.000    1.931 
#    0.000    2.207    0.000    0.000    0.000    0.000 
#
# Total GULP energy -161452.441937 kJ/mol
# GULP energy per Si atom -5567.325584 kJ/mol
# Density = 1.723406 g / cm^3
# Si number density = 17.273370 Si / 1000 Ang^3
#
#
#
# Elastic Constant Matrix: (Units=GPa)
#
#
# Indices 1 2 3 4 5 6 
#
# 1 99.7043 66.6336 36.6510 0.0000 0.0000 0.0000
# 2 66.6336 82.0860 23.6337 0.0000 0.0000 0.0000
# 3 36.6510 23.6337 84.2555 0.0000 0.0000 0.0000
# 4 0.0000 0.0000 0.0000 10.3890 0.0000 0.0000
# 5 0.0000 0.0000 0.0000 0.0000 4.1271 0.0000
# 6 0.0000 0.0000 0.0000 0.0000 0.0000 28.7484
#
#
#
# Elastic Compliance Matrix: (Units=1/GPa)
#
#
# Indices 1 2 3 4 5 6 
#
# 1 0.023995 -0.017920 -0.005411 0.000000 0.000000 0.000000
# 2 -0.017920 0.026636 0.000324 0.000000 0.000000 0.000000
# 3 -0.005411 0.000324 0.014132 0.000000 0.000000 0.000000
# 4 0.000000 0.000000 0.000000 0.096256 0.000000 0.000000
# 5 0.000000 0.000000 0.000000 0.000000 0.242303 0.000000
# 6 0.000000 0.000000 0.000000 0.000000 0.000000 0.034785
#
#
# Mechanical properties :
#
#
# Convention : Reuss Voigt Hill
#
# Bulk Modulus (GPa) = 53.34007 57.76472 55.55239
# Shear Modulus (GPa) = 10.19639 17.92806 14.06222
#
# Velocity S-wave (km/s) = 2.43224 3.22514 2.85634
# Velocity P-wave (km/s) = 6.23175 6.88352 6.56572
#
# Compressibility (1/GPa) = 0.01874763
#
# Stress axis : x y z
#
# Youngs Moduli (GPa) = 41.67539 37.54350 70.76300
#
# Poissons Ratio (x) = 0.67278 0.38291
# Poissons Ratio (y) = 0.74683 -0.02292
# Poissons Ratio (z) = 0.22551 -0.01216
#
# Static dielectric constant tensor:
#      x y z
#    x 1.545150 0.000000 0.000000 
#    y 0.000000 1.631680 0.000000 
#    z 0.000000 0.000000 1.648440 
# 
# From -- ./inp_files/11906.got.cif
#   From: 2010.05.17/outbox.cif.g08.bks.cpg/sg71_6_cif.got.tgz:11906.got - 2010.06.03 16:22:01.
