data_PCOD9523838
_publ_section_title
;
Structure prediction by ZEFSAII (Michael W. Deem and Ramdas Pophale) SiO2 
 PCOD9523838
Probable space group: I M M M
;
_chemical_formula_sum "Si O2"
_cell_formula_units_Z 104
_cell_length_a 9.456880
_cell_length_b 21.413753
_cell_length_c 27.662842
_cell_angle_alpha 90.000000
_cell_angle_beta 90.000000
_cell_angle_gamma 90.000000
_cell_volume 5601.927235
_symmetry_space_group_name_H-M "I M M M"
_symmetry_group_IT_number 71
_symmetry_cell_setting 'orthorhombic'
loop_
_space_group_symop_operation_xyz
x,y,z
-x,-y,z
x,-y,-z
-x,y,-z
-x,-y,-z
x,y,-z
-x,y,z
x,-y,z
1/2+x,1/2+y,1/2+z
1/2-x,1/2-y,1/2+z
1/2+x,1/2-y,1/2-z
1/2-x,1/2+y,1/2-z
1/2-x,1/2-y,1/2-z
1/2+x,1/2+y,1/2-z
1/2-x,1/2+y,1/2+z
1/2+x,1/2-y,1/2+z
loop_
_atom_site_type_symbol
_atom_site_label
_atom_site_fract_x
_atom_site_fract_y
_atom_site_fract_z
Si Si1 0.832545 0.733909 0.298313
Si Si2 0.163503 0.268784 0.112959
Si Si3 0.841689 0.425568 0.500000
Si Si4 0.666357 0.391510 0.305948
Si Si5 0.327922 0.500000 0.118145
Si Si6 0.830116 0.000000 0.731131
Si Si7 0.158841 0.122904 0.913665
Si Si8 0.667873 0.895155 0.556916
O O1 0.750000 0.750000 0.250000
O O2 0.770630 0.774512 0.342440
O O3 0.779384 0.663642 0.306526
O O4 0.000000 0.739893 0.294293
O O5 0.177663 0.197776 0.093877
O O6 0.186761 0.323414 0.074197
O O7 0.000000 0.274280 0.130125
O O8 0.840416 0.500000 0.500000
O O9 0.766142 0.401741 0.547717
O O10 0.000000 0.401660 0.500000
O O11 0.500000 0.371522 0.297817
O O12 0.705858 0.440291 0.264344
O O13 0.668770 0.412079 0.361964
O O14 0.500000 0.500000 0.115616
O O15 0.283289 0.500000 0.175174
O O16 0.261641 0.440423 0.090262
O O17 0.000000 0.000000 0.728766
O O18 0.000000 0.113758 0.932003
O O19 0.701419 0.902405 0.500000
O O20 0.500000 0.910009 0.562934
#
# Coordination Sequence:
#
# PCOD9523838 Si02
#       8
#    16  16   8  16   8   8  16  16
#     4  11  22  36  57  85 121 157 191 233 285 344
#     4   9  20  39  63  91 117 148 195 249 300 354
#     4  11  25  39  53  79 121 164 197 238 293 347
#     4   9  19  38  61  85 112 149 194 241 293 348
#     4  11  24  40  59  90 127 159 196 246 299 364
#     4   9  20  38  62  88 117 152 193 244 301 352
#     4   9  19  36  62  88 113 146 198 253 294 349
#     4  10  22  41  66  90 118 157 201 249 305 362
#
# _framework density 18.56504
#
# number of rings (size 3 to 8) (size 9 to 14) (size 15 to 20)
#    0.000    2.231    0.000    3.000    4.308    4.923 
#    0.000    1.154    0.000    0.000    0.000    0.000 
#    0.000    0.000    0.000    0.000    0.000    0.000 
#
# Total GULP energy -289863.490224 kJ/mol
# GULP energy per Si atom -5574.297889 kJ/mol
# Density = 1.852279 g / cm^3
# Si number density = 18.565040 Si / 1000 Ang^3
#
#
#
# Elastic Constant Matrix: (Units=GPa)
#
#
# Indices 1 2 3 4 5 6 
#
# 1 116.8275 33.6415 78.9493 0.0000 0.0000 0.0000
# 2 33.6415 55.4128 50.5062 0.0000 0.0000 0.0000
# 3 78.9493 50.5062 146.1153 0.0000 0.0000 0.0000
# 4 0.0000 0.0000 0.0000 25.1796 0.0000 0.0000
# 5 0.0000 0.0000 0.0000 0.0000 28.8256 0.0000
# 6 0.0000 0.0000 0.0000 0.0000 0.0000 27.0622
#
#
#
# Elastic Compliance Matrix: (Units=1/GPa)
#
#
# Indices 1 2 3 4 5 6 
#
# 1 0.013679 -0.002289 -0.006600 0.000000 0.000000 0.000000
# 2 -0.002289 0.026730 -0.008003 0.000000 0.000000 0.000000
# 3 -0.006600 -0.008003 0.013176 0.000000 0.000000 0.000000
# 4 0.000000 0.000000 0.000000 0.039715 0.000000 0.000000
# 5 0.000000 0.000000 0.000000 0.000000 0.034691 0.000000
# 6 0.000000 0.000000 0.000000 0.000000 0.000000 0.036952
#
#
# Mechanical properties :
#
#
# Convention : Reuss Voigt Hill
#
# Bulk Modulus (GPa) = 50.49997 71.61662 61.05829
# Shear Modulus (GPa) = 24.35145 26.56404 25.45775
#
# Velocity S-wave (km/s) = 3.62565 3.78678 3.70709
# Velocity P-wave (km/s) = 6.69237 7.60128 7.16126
#
# Compressibility (1/GPa) = 0.01980199
#
# Stress axis : x y z
#
# Youngs Moduli (GPa) = 73.10644 37.41083 75.89548
#
# Poissons Ratio (x) = 0.08564 0.50088
# Poissons Ratio (y) = 0.16736 0.60737
# Poissons Ratio (z) = 0.48247 0.29939
#
# Static dielectric constant tensor:
#      x y z
#    x 1.603820 0.000000 0.000000 
#    y 0.000000 1.813010 0.000000 
#    z 0.000000 0.000000 1.404300 
# 
# From -- ./inp_files/63586.got.cif
#   From: 2010.05.17/outbox.cif.g08.bks.cpg/sg71_32_cif.got.tgz:63586.got - 2010.06.03 16:22:01.
