data_PCOD9523802
_publ_section_title
;
Structure prediction by ZEFSAII (Michael W. Deem and Ramdas Pophale) SiO2 
 PCOD9523802
Probable space group: I M M M
;
_chemical_formula_sum "Si O2"
_cell_formula_units_Z 88
_cell_length_a 19.652335
_cell_length_b 24.419946
_cell_length_c 7.615109
_cell_angle_alpha 90.000000
_cell_angle_beta 90.000000
_cell_angle_gamma 90.000000
_cell_volume 3654.559036
_symmetry_space_group_name_H-M "I M M M"
_symmetry_group_IT_number 71
_symmetry_cell_setting 'orthorhombic'
loop_
_space_group_symop_operation_xyz
x,y,z
-x,-y,z
x,-y,-z
-x,y,-z
-x,-y,-z
x,y,-z
-x,y,z
x,-y,z
1/2+x,1/2+y,1/2+z
1/2-x,1/2-y,1/2+z
1/2+x,1/2-y,1/2-z
1/2-x,1/2+y,1/2-z
1/2-x,1/2-y,1/2-z
1/2+x,1/2+y,1/2-z
1/2-x,1/2+y,1/2+z
1/2+x,1/2-y,1/2+z
loop_
_atom_site_type_symbol
_atom_site_label
_atom_site_fract_x
_atom_site_fract_y
_atom_site_fract_z
Si Si1 0.861653 0.176487 0.293547
Si Si2 0.073437 0.282540 0.203833
Si Si3 0.713078 0.829239 0.294072
Si Si4 0.851066 0.437221 0.286725
Si Si5 0.579105 0.439593 0.288040
Si Si6 0.500000 0.933344 0.204097
O O1 0.861804 0.188349 0.500000
O O2 0.916089 0.217131 0.209859
O O3 0.785908 0.187914 0.219629
O O4 0.879681 0.113071 0.271420
O O5 0.143276 0.305547 0.285212
O O6 0.000000 0.297680 0.282044
O O7 0.072085 0.299407 0.000000
O O8 0.713999 0.814942 0.500000
O O9 0.704390 0.894524 0.276335
O O10 0.852744 0.436696 0.500000
O O11 0.840019 0.500000 0.232608
O O12 0.926332 0.418165 0.221332
O O13 0.580373 0.439508 0.500000
O O14 0.500000 0.433929 0.233696
O O15 0.603293 0.500000 0.229971
O O16 0.500000 0.000000 0.206881
O O17 0.500000 0.917056 0.000000
#
# Coordination Sequence:
#
# PCOD9523802 Si02
#       6
#    16  16  16  16  16   8
#     4  11  23  38  57  84 118 151 183 227 284 339
#     4  10  22  41  63  83 106 142 189 237 282 334
#     4  10  23  39  55  81 116 150 186 231 281 335
#     4   9  18  33  54  80 110 146 187 229 274 325
#     4   9  19  37  61  88 117 151 192 233 273 327
#     4   7  12  26  47  71 101 135 173 221 270 311
#
# _framework density 24.079511
#
# number of rings (size 3 to 8) (size 9 to 14) (size 15 to 20)
#    0.000    2.455    0.000    3.273    1.273    6.545 
#    0.000    4.545    0.000    1.636    0.000    0.000 
#    0.000    0.000    0.000    0.000    0.000    0.000 
#
# Total GULP energy -245873.744378 kJ/mol
# GULP energy per Si atom -5588.039645 kJ/mol
# Density = 2.402471 g / cm^3
# Si number density = 24.079511 Si / 1000 Ang^3
#
#
#
# Elastic Constant Matrix: (Units=GPa)
#
#
# Indices 1 2 3 4 5 6 
#
# 1 118.8639 31.9934 12.7329 0.0000 0.0000 0.0000
# 2 31.9934 99.0795 7.2640 0.0000 0.0000 0.0000
# 3 12.7329 7.2640 65.2122 0.0000 0.0000 0.0000
# 4 0.0000 0.0000 0.0000 21.6288 0.0000 0.0000
# 5 0.0000 0.0000 0.0000 0.0000 9.0490 0.0000
# 6 0.0000 0.0000 0.0000 0.0000 0.0000 40.0587
#
#
#
# Elastic Compliance Matrix: (Units=1/GPa)
#
#
# Indices 1 2 3 4 5 6 
#
# 1 0.009358 -0.002911 -0.001503 0.000000 0.000000 0.000000
# 2 -0.002911 0.011082 -0.000666 0.000000 0.000000 0.000000
# 3 -0.001503 -0.000666 0.015702 0.000000 0.000000 0.000000
# 4 0.000000 0.000000 0.000000 0.046235 0.000000 0.000000
# 5 0.000000 0.000000 0.000000 0.000000 0.110509 0.000000
# 6 0.000000 0.000000 0.000000 0.000000 0.000000 0.024963
#
#
# Mechanical properties :
#
#
# Convention : Reuss Voigt Hill
#
# Bulk Modulus (GPa) = 38.48930 43.01514 40.75222
# Shear Modulus (GPa) = 21.12648 29.55832 25.34240
#
# Velocity S-wave (km/s) = 2.96525 3.50741 3.24766
# Velocity P-wave (km/s) = 5.26712 5.85706 5.56991
#
# Compressibility (1/GPa) = 0.02598124
#
# Stress axis : x y z
#
# Youngs Moduli (GPa) = 106.86485 90.23754 63.68551
#
# Poissons Ratio (x) = 0.26272 0.09571
# Poissons Ratio (y) = 0.31113 0.04241
# Poissons Ratio (z) = 0.16060 0.06009
#
# Static dielectric constant tensor:
#      x y z
#    x 1.941610 0.000000 0.000000 
#    y 0.000000 1.941810 0.000000 
#    z 0.000000 0.000000 1.898740 
# 
# From -- ./inp_files/10472.got.cif
#   From: 2010.05.17/outbox.cif.g08.bks.cpg/sg71_6_cif.got.tgz:10472.got - 2010.06.03 16:22:01.
