data_PCOD9523947
_publ_section_title
;
Structure prediction by ZEFSAII (Michael W. Deem and Ramdas Pophale) SiO2 
 PCOD9523947
Probable space group: I M M M
;
_chemical_formula_sum "Si O2"
_cell_formula_units_Z 56
_cell_length_a 10.428079
_cell_length_b 19.943619
_cell_length_c 14.782699
_cell_angle_alpha 90.000000
_cell_angle_beta 90.000000
_cell_angle_gamma 90.000000
_cell_volume 3074.411638
_symmetry_space_group_name_H-M "I M M M"
_symmetry_group_IT_number 71
_symmetry_cell_setting 'orthorhombic'
loop_
_space_group_symop_operation_xyz
x,y,z
-x,-y,z
x,-y,-z
-x,y,-z
-x,-y,-z
x,y,-z
-x,y,z
x,-y,z
1/2+x,1/2+y,1/2+z
1/2-x,1/2-y,1/2+z
1/2+x,1/2-y,1/2-z
1/2-x,1/2+y,1/2-z
1/2-x,1/2-y,1/2-z
1/2+x,1/2+y,1/2-z
1/2-x,1/2+y,1/2+z
1/2+x,1/2-y,1/2+z
loop_
_atom_site_type_symbol
_atom_site_label
_atom_site_fract_x
_atom_site_fract_y
_atom_site_fract_z
Si Si1 0.140075 0.637336 0.500000
Si Si2 0.727447 0.078777 0.816728
Si Si3 0.500000 0.580771 0.393149
Si Si4 0.849251 0.745077 0.000000
Si Si5 0.148828 0.298967 0.799241
O O1 0.154825 0.592445 0.410889
O O2 0.251575 0.692723 0.500000
O O3 0.000000 0.670038 0.500000
O O4 0.671220 0.127129 0.740889
O O5 0.872430 0.102029 0.841311
O O6 0.725512 0.000000 0.794727
O O7 0.500000 0.500000 0.391012
O O8 0.500000 0.596757 0.500000
O O9 0.828721 0.705530 0.093351
O O10 0.000000 0.764258 0.000000
O O11 0.250000 0.250000 0.750000
O O12 0.000000 0.279503 0.781672
#
# Coordination Sequence:
#
# PCOD9523947 Si02
#       5
#     8  16   8   8  16
#     4  12  23  34  57  94 127 154 189 251 316 355
#     4  11  23  38  61  91 126 160 200 249 304 364
#     4   9  18  34  56  87 123 161 196 234 293 364
#     4  10  24  43  62  85 120 163 208 246 287 361
#     4  11  24  41  63  88 120 161 204 248 298 356
#
# _framework density 18.214867000000002
#
# number of rings (size 3 to 8) (size 9 to 14) (size 15 to 20)
#    0.000    1.286    4.286    1.286    4.000    2.857 
#    0.000    0.714    0.000    2.571    0.000    3.000 
#    0.000    0.000    0.000    0.000    0.000    0.000 
#
# Total GULP energy -156387.587796 kJ/mol
# GULP energy per Si atom -5585.270993 kJ/mol
# Density = 1.817341 g / cm^3
# Si number density = 18.214867 Si / 1000 Ang^3
#
#
#
# Elastic Constant Matrix: (Units=GPa)
#
#
# Indices 1 2 3 4 5 6 
#
# 1 126.1337 38.9346 54.5633 0.0000 0.0000 0.0000
# 2 38.9346 101.7163 62.4530 0.0001 0.0000 0.0000
# 3 54.5633 62.4530 129.4717 0.0001 0.0000 0.0000
# 4 0.0000 0.0001 0.0001 17.3660 0.0000 0.0000
# 5 0.0000 0.0000 0.0000 0.0000 26.8143 0.0000
# 6 0.0000 0.0000 0.0000 0.0000 0.0000 28.0663
#
#
#
# Elastic Compliance Matrix: (Units=1/GPa)
#
#
# Indices 1 2 3 4 5 6 
#
# 1 0.009909 -0.001746 -0.003334 0.000000 0.000000 0.000000
# 2 -0.001746 0.014276 -0.006150 0.000000 0.000000 0.000000
# 3 -0.003334 -0.006150 0.012095 0.000000 0.000000 0.000000
# 4 0.000000 0.000000 0.000000 0.057584 0.000000 0.000000
# 5 0.000000 0.000000 0.000000 0.000000 0.037293 0.000000
# 6 0.000000 0.000000 0.000000 0.000000 0.000000 0.035630
#
#
# Mechanical properties :
#
#
# Convention : Reuss Voigt Hill
#
# Bulk Modulus (GPa) = 72.35890 74.35817 73.35853
# Shear Modulus (GPa) = 25.79248 27.87404 26.83326
#
# Velocity S-wave (km/s) = 3.76708 3.91614 3.84233
# Velocity P-wave (km/s) = 7.66372 7.83324 7.74894
#
# Compressibility (1/GPa) = 0.01382000
#
# Stress axis : x y z
#
# Youngs Moduli (GPa) = 100.91615 70.04806 82.67601
#
# Poissons Ratio (x) = 0.12231 0.27562
# Poissons Ratio (y) = 0.17621 0.50849
# Poissons Ratio (z) = 0.33643 0.43082
#
# Static dielectric constant tensor:
#      x y z
#    x 1.685190 0.000000 0.000000 
#    y 0.000000 1.616940 0.000000 
#    z 0.000000 0.000000 1.600340 
# 
# From -- ./inp_files/30997.got.cif
#   From: 2010.05.17/outbox.cif.g08.bks.cpg/sg71_16_cif.got.tgz:30997.got - 2010.06.03 16:22:01.
