data_PCOD9523189
_publ_section_title
;
Structure prediction by ZEFSAII (Michael W. Deem and Ramdas Pophale) SiO2 
 PCOD9523189
Probable space group: I M M M
;
_chemical_formula_sum "Si O2"
_cell_formula_units_Z 72
_cell_length_a 29.156885
_cell_length_b 14.341229
_cell_length_c 8.996140
_cell_angle_alpha 90.000000
_cell_angle_beta 90.000000
_cell_angle_gamma 90.000000
_cell_volume 3761.696041
_symmetry_space_group_name_H-M "I M M M"
_symmetry_group_IT_number 71
_symmetry_cell_setting 'orthorhombic'
loop_
_space_group_symop_operation_xyz
x,y,z
-x,-y,z
x,-y,-z
-x,y,-z
-x,-y,-z
x,y,-z
-x,y,z
x,-y,z
1/2+x,1/2+y,1/2+z
1/2-x,1/2-y,1/2+z
1/2+x,1/2-y,1/2-z
1/2-x,1/2+y,1/2-z
1/2-x,1/2-y,1/2-z
1/2+x,1/2+y,1/2-z
1/2-x,1/2+y,1/2+z
1/2+x,1/2-y,1/2+z
loop_
_atom_site_type_symbol
_atom_site_label
_atom_site_fract_x
_atom_site_fract_y
_atom_site_fract_z
Si Si1 0.051421 0.113644 0.829122
Si Si2 0.446161 0.000000 0.678368
Si Si3 0.299579 0.250403 0.674897
Si Si4 0.641474 0.611642 0.167615
Si Si5 0.631348 0.105271 0.173047
O O1 0.091080 0.144570 0.718704
O O2 0.000000 0.144578 0.790816
O O3 0.051051 0.000000 0.827186
O O4 0.061420 0.141113 0.000000
O O5 0.417650 0.087871 0.745810
O O6 0.500000 0.000000 0.717262
O O7 0.442044 0.000000 0.500000
O O8 0.295869 0.235343 0.500000
O O9 0.250000 0.250000 0.750000
O O10 0.322787 0.348597 0.715643
O O11 0.334499 0.175482 0.746572
O O12 0.641498 0.500000 0.168972
O O13 0.652230 0.642823 0.000000
O O14 0.651899 0.000000 0.178419
O O15 0.624872 0.129683 0.000000
#
# Coordination Sequence:
#
# PCOD9523189 Si02
#       5
#    16   8  16  16  16
#     4   8  14  27  49  76 107 144 183 222 269 325
#     4   9  17  33  61  95 129 163 199 243 302 367
#     4  12  25  41  62  84 114 152 197 250 302 359
#     4  10  21  37  57  83 117 153 193 240 289 345
#     4   9  20  38  62  89 121 156 195 244 300 363
#
# _framework density 19.140301999999998
#
# number of rings (size 3 to 8) (size 9 to 14) (size 15 to 20)
#    0.667    1.667    0.000    4.000    0.000    3.556 
#    0.000    3.333    0.000    6.667    0.000    0.000 
#    0.000    0.000    0.000    0.000    0.000    0.000 
#
# Total GULP energy -200662.373415 kJ/mol
# GULP energy per Si atom -5573.954817 kJ/mol
# Density = 1.909674 g / cm^3
# Si number density = 19.140302 Si / 1000 Ang^3
#
#
#
# Elastic Constant Matrix: (Units=GPa)
#
#
# Indices 1 2 3 4 5 6 
#
# 1 142.0912 32.4927 78.8455 0.0000 0.0000 0.0000
# 2 32.4927 39.2993 30.2323 0.0000 0.0000 0.0000
# 3 78.8455 30.2323 145.3010 0.0000 0.0000 0.0000
# 4 0.0000 0.0000 0.0000 26.6852 0.0000 0.0000
# 5 0.0000 0.0000 0.0000 0.0000 36.9260 0.0000
# 6 0.0000 0.0000 0.0000 0.0000 0.0000 25.4614
#
#
#
# Elastic Compliance Matrix: (Units=1/GPa)
#
#
# Indices 1 2 3 4 5 6 
#
# 1 0.010933 -0.005328 -0.004824 0.000000 0.000000 0.000000
# 2 -0.005328 0.032892 -0.003952 0.000000 0.000000 0.000000
# 3 -0.004824 -0.003952 0.010322 0.000000 0.000000 0.000000
# 4 0.000000 0.000000 0.000000 0.037474 0.000000 0.000000
# 5 0.000000 0.000000 0.000000 0.000000 0.027081 0.000000
# 6 0.000000 0.000000 0.000000 0.000000 0.000000 0.039275
#
#
# Mechanical properties :
#
#
# Convention : Reuss Voigt Hill
#
# Bulk Modulus (GPa) = 38.55404 67.75918 53.15661
# Shear Modulus (GPa) = 25.66309 30.15594 27.90952
#
# Velocity S-wave (km/s) = 3.66565 3.97359 3.82272
# Velocity P-wave (km/s) = 6.17273 7.51869 6.87871
#
# Compressibility (1/GPa) = 0.02593762
#
# Stress axis : x y z
#
# Youngs Moduli (GPa) = 91.46625 30.40280 96.87800
#
# Poissons Ratio (x) = 0.16200 0.46734
# Poissons Ratio (y) = 0.48737 0.38289
# Poissons Ratio (z) = 0.44123 0.12016
#
# Static dielectric constant tensor:
#      x y z
#    x 1.554890 0.000000 0.000000 
#    y 0.000000 1.718000 0.000000 
#    z 0.000000 0.000000 1.654170 
# 
# From -- ./inp_files/16371.got.cif
#   From: 2010.05.17/outbox.cif.g08.bks.cpg/sg71_9_cif.got.tgz:16371.got - 2010.06.03 16:22:01.
