data_PCOD9523457
_publ_section_title
;
Structure prediction by ZEFSAII (Michael W. Deem and Ramdas Pophale) SiO2 
 PCOD9523457
Probable space group: I M M M
;
_chemical_formula_sum "Si O2"
_cell_formula_units_Z 72
_cell_length_a 7.397716
_cell_length_b 19.580202
_cell_length_c 23.089132
_cell_angle_alpha 90.000000
_cell_angle_beta 90.000000
_cell_angle_gamma 90.000000
_cell_volume 3344.432454
_symmetry_space_group_name_H-M "I M M M"
_symmetry_group_IT_number 71
_symmetry_cell_setting 'orthorhombic'
loop_
_space_group_symop_operation_xyz
x,y,z
-x,-y,z
x,-y,-z
-x,y,-z
-x,-y,-z
x,y,-z
-x,y,z
x,-y,z
1/2+x,1/2+y,1/2+z
1/2-x,1/2-y,1/2+z
1/2+x,1/2-y,1/2-z
1/2-x,1/2+y,1/2-z
1/2-x,1/2-y,1/2-z
1/2+x,1/2+y,1/2-z
1/2-x,1/2+y,1/2+z
1/2+x,1/2-y,1/2+z
loop_
_atom_site_type_symbol
_atom_site_label
_atom_site_fract_x
_atom_site_fract_y
_atom_site_fract_z
Si Si1 0.780689 0.577384 0.250874
Si Si2 0.281516 0.840196 0.358876
Si Si3 0.500000 0.581068 0.933559
Si Si4 0.287796 0.718796 0.563634
Si Si5 0.717668 0.924227 0.116755
O O1 0.725854 0.500000 0.232950
O O2 0.725706 0.635255 0.205309
O O3 0.720420 0.587949 0.316948
O O4 0.000000 0.577240 0.251911
O O5 0.500000 0.846479 0.361602
O O6 0.223851 0.765771 0.382908
O O7 0.177821 0.890785 0.401893
O O8 0.500000 0.500000 0.931107
O O9 0.500000 0.603406 0.000000
O O10 0.209442 0.734611 0.500000
O O11 0.500000 0.733565 0.560087
O O12 0.268510 0.639209 0.577480
O O13 0.500000 0.925957 0.117825
O O14 0.779278 0.000000 0.098630
#
# Coordination Sequence:
#
# PCOD9523457 Si02
#       5
#    16  16   8  16  16
#     4   8  15  32  58  84 113 148 186 233 290 349
#     4  10  21  39  61  85 117 159 194 238 293 350
#     4  11  24  38  56  88 121 153 202 248 281 336
#     4  10  22  38  55  79 113 154 198 239 287 347
#     4   9  19  36  58  85 113 144 189 243 296 353
#
# _framework density 21.528317000000001
#
# number of rings (size 3 to 8) (size 9 to 14) (size 15 to 20)
#    0.000    2.556    0.000    2.667    1.556    4.889 
#    2.000    3.333    0.000    0.000    0.000    0.000 
#    0.000    0.000    0.000    0.000    0.000    0.000 
#
# Total GULP energy -200821.934251 kJ/mol
# GULP energy per Si atom -5578.387063 kJ/mol
# Density = 2.147932 g / cm^3
# Si number density = 21.528317 Si / 1000 Ang^3
#
#
#
# Elastic Constant Matrix: (Units=GPa)
#
#
# Indices 1 2 3 4 5 6 
#
# 1 69.0144 -6.1784 -5.9912 0.0000 0.0000 0.0000
# 2 -6.1784 104.6507 30.4208 0.0000 0.0000 0.0000
# 3 -5.9912 30.4208 39.6847 0.0000 0.0000 0.0000
# 4 0.0000 0.0000 0.0000 59.5947 0.0000 0.0000
# 5 0.0000 0.0000 0.0000 0.0000 8.2230 0.0000
# 6 0.0000 0.0000 0.0000 0.0000 0.0000 20.6088
#
#
#
# Elastic Compliance Matrix: (Units=1/GPa)
#
#
# Indices 1 2 3 4 5 6 
#
# 1 0.014689 0.000286 0.001998 0.000000 0.000000 0.000000
# 2 0.000286 0.012301 -0.009386 0.000000 0.000000 0.000000
# 3 0.001998 -0.009386 0.032695 0.000000 0.000000 0.000000
# 4 0.000000 0.000000 0.000000 0.016780 0.000000 0.000000
# 5 0.000000 0.000000 0.000000 0.000000 0.121610 0.000000
# 6 0.000000 0.000000 0.000000 0.000000 0.000000 0.048523
#
#
# Mechanical properties :
#
#
# Convention : Reuss Voigt Hill
#
# Bulk Modulus (GPa) = 21.98689 27.76133 24.87411
# Shear Modulus (GPa) = 18.11845 30.69188 24.40516
#
# Velocity S-wave (km/s) = 2.90420 3.77988 3.37060
# Velocity P-wave (km/s) = 4.63476 5.65449 5.16983
#
# Compressibility (1/GPa) = 0.04548165
#
# Stress axis : x y z
#
# Youngs Moduli (GPa) = 68.07900 81.29440 30.58534
#
# Poissons Ratio (x) = -0.02328 -0.06111
# Poissons Ratio (y) = -0.01950 0.28708
# Poissons Ratio (z) = -0.13602 0.76305
#
# Static dielectric constant tensor:
#      x y z
#    x 1.863730 0.000000 0.000000 
#    y 0.000000 1.776410 0.000000 
#    z 0.000000 0.000000 1.779520 
# 
# From -- ./inp_files/57293.got.cif
#   From: 2010.05.17/outbox.cif.g08.bks.cpg/sg71_29_cif.got.tgz:57293.got - 2010.06.03 16:22:01.
