data_PCOD9523669
_publ_section_title
;
Structure prediction by ZEFSAII (Michael W. Deem and Ramdas Pophale) SiO2 
 PCOD9523669
Probable space group: I M M M
;
_chemical_formula_sum "Si O2"
_cell_formula_units_Z 100
_cell_length_a 7.669312
_cell_length_b 19.817509
_cell_length_c 35.116123
_cell_angle_alpha 90.000000
_cell_angle_beta 90.000000
_cell_angle_gamma 90.000000
_cell_volume 5337.182232
_symmetry_space_group_name_H-M "I M M M"
_symmetry_group_IT_number 71
_symmetry_cell_setting 'orthorhombic'
loop_
_space_group_symop_operation_xyz
x,y,z
-x,-y,z
x,-y,-z
-x,y,-z
-x,-y,-z
x,y,-z
-x,y,z
x,-y,z
1/2+x,1/2+y,1/2+z
1/2-x,1/2-y,1/2+z
1/2+x,1/2-y,1/2-z
1/2-x,1/2+y,1/2-z
1/2-x,1/2-y,1/2-z
1/2+x,1/2+y,1/2-z
1/2-x,1/2+y,1/2+z
1/2+x,1/2-y,1/2+z
loop_
_atom_site_type_symbol
_atom_site_label
_atom_site_fract_x
_atom_site_fract_y
_atom_site_fract_z
Si Si1 0.295828 0.328101 0.246415
Si Si2 0.789309 0.884866 0.665896
Si Si3 0.000000 0.723457 0.043256
Si Si4 0.709249 0.926612 0.814177
Si Si5 0.000000 0.500000 0.849911
Si Si6 0.801830 0.777259 0.399859
Si Si7 0.000000 0.112249 0.956464
Si Si8 0.795006 0.615601 0.602395
O O1 0.500000 0.330698 0.241129
O O2 0.250000 0.250000 0.250000
O O3 0.227001 0.364088 0.208379
O O4 0.252932 0.368677 0.284524
O O5 0.773946 0.819668 0.638439
O O6 0.000000 0.903047 0.666080
O O7 0.656335 0.941505 0.651552
O O8 0.167599 0.702257 0.067475
O O9 0.000000 0.805516 0.042051
O O10 0.000000 0.699025 0.000000
O O11 0.500000 0.928081 0.816236
O O12 0.767677 0.913940 0.857347
O O13 0.771938 0.000000 0.800606
O O14 0.781990 0.696976 0.393385
O O15 0.000000 0.788901 0.412511
O O16 0.171011 0.093442 0.932084
O O17 0.000000 0.087974 0.000000
O O18 0.000000 0.599098 0.596292
#
# Coordination Sequence:
#
# PCOD9523669 Si02
#       8
#    16  16   8  16   4  16   8  16
#     4  11  24  39  58  82 113 147 191 243 289 345
#     4  10  23  39  56  83 113 147 194 237 283 345
#     4   9  17  29  48  84 120 143 183 233 287 355
#     4  10  22  38  58  82 112 150 194 239 291 349
#     4  12  24  36  62  78 111 158 184 236 295 334
#     4   9  17  33  55  77 111 151 186 232 286 341
#     4   9  18  31  52  82 113 147 191 241 291 351
#     4   9  18  34  55  80 112 150 189 236 291 346
#
# _framework density 18.736478000000002
#
# number of rings (size 3 to 8) (size 9 to 14) (size 15 to 20)
#    0.000    2.240    0.000    2.160    4.480    3.520 
#    2.880    3.200    0.000    0.960    0.000    6.720 
#    0.000   10.240    0.000    0.000    0.000    0.000 
#
# Total GULP energy -278375.325332 kJ/mol
# GULP energy per Si atom -5567.506507 kJ/mol
# Density = 1.869383 g / cm^3
# Si number density = 18.736478 Si / 1000 Ang^3
#
#
#
# Elastic Constant Matrix: (Units=GPa)
#
#
# Indices 1 2 3 4 5 6 
#
# 1 77.3882 25.7247 28.7422 0.0000 0.0000 0.0000
# 2 25.7247 64.4244 26.3216 0.0000 0.0000 0.0000
# 3 28.7422 26.3216 94.1617 0.0000 0.0000 0.0000
# 4 0.0000 0.0000 0.0000 -1.3727 0.0000 0.0000
# 5 0.0000 0.0000 0.0000 0.0000 25.6932 0.0000
# 6 0.0000 0.0000 0.0000 0.0000 0.0000 14.8843
#
#
#
# Elastic Compliance Matrix: (Units=1/GPa)
#
#
# Indices 1 2 3 4 5 6 
#
# 1 0.015840 -0.004910 -0.003462 0.000000 0.000000 0.000000
# 2 -0.004910 0.019046 -0.003825 0.000000 0.000000 0.000000
# 3 -0.003462 -0.003825 0.012746 0.000000 0.000000 0.000000
# 4 0.000000 0.000000 0.000000 -0.728502 0.000000 0.000000
# 5 0.000000 0.000000 0.000000 0.000000 0.038921 0.000000
# 6 0.000000 0.000000 0.000000 0.000000 0.000000 0.067185
#
#
# Mechanical properties :
#
#
# Convention : Reuss Voigt Hill
#
# Bulk Modulus (GPa) = 43.03648 44.17235 43.60442
# Shear Modulus (GPa) = -9.21450 18.18669 4.48610
#
# Velocity S-wave (km/s) = -2.22005 3.11892 1.54904
# Velocity P-wave (km/s) = 4.05558 6.04954 5.14998
#
# Compressibility (1/GPa) = 0.02323610
#
# Stress axis : x y z
#
# Youngs Moduli (GPa) = 63.13102 52.50569 78.45500
#
# Poissons Ratio (x) = 0.25782 0.27165
# Poissons Ratio (y) = 0.30999 0.30010
# Poissons Ratio (z) = 0.21859 0.20084
#
# Static dielectric constant tensor:
#      x y z
#    x 1.676770 0.000000 0.000000 
#    y 0.000000 1.710560 0.000000 
#    z 0.000000 0.000000 1.648780 
# 
# From -- ./inp_files/63378.got.cif
#   From: 2010.05.17/outbox.cif.g08.bks.cpg/sg71_32_cif.got.tgz:63378.got - 2010.06.03 16:22:01.
