data_PCOD9523055
_publ_section_title
;
Structure prediction by ZEFSAII (Michael W. Deem and Ramdas Pophale) SiO2 
 PCOD9523055
Probable space group: I M M M
;
_chemical_formula_sum "Si O2"
_cell_formula_units_Z 96
_cell_length_a 16.746327
_cell_length_b 18.055293
_cell_length_c 18.034282
_cell_angle_alpha 90.000000
_cell_angle_beta 90.000000
_cell_angle_gamma 90.000000
_cell_volume 5452.842632
_symmetry_space_group_name_H-M "I M M M"
_symmetry_group_IT_number 71
_symmetry_cell_setting 'orthorhombic'
loop_
_space_group_symop_operation_xyz
x,y,z
-x,-y,z
x,-y,-z
-x,y,-z
-x,-y,-z
x,y,-z
-x,y,z
x,-y,z
1/2+x,1/2+y,1/2+z
1/2-x,1/2-y,1/2+z
1/2+x,1/2-y,1/2-z
1/2-x,1/2+y,1/2-z
1/2-x,1/2-y,1/2-z
1/2+x,1/2+y,1/2-z
1/2-x,1/2+y,1/2+z
1/2+x,1/2-y,1/2+z
loop_
_atom_site_type_symbol
_atom_site_label
_atom_site_fract_x
_atom_site_fract_y
_atom_site_fract_z
Si Si1 0.408342 0.263397 0.766271
Si Si2 0.590625 0.825642 0.500000
Si Si3 0.305052 0.179042 0.360455
Si Si4 0.408494 0.646872 0.500000
Si Si5 0.336327 0.214759 0.916999
Si Si6 0.819422 0.915819 0.723722
Si Si7 0.276928 0.415803 0.605203
O O1 0.500000 0.256326 0.742433
O O2 0.350543 0.224012 0.705478
O O3 0.394079 0.226941 0.847198
O O4 0.384436 0.349754 0.776893
O O5 0.500000 0.851758 0.500000
O O6 0.635450 0.846789 0.424583
O O7 0.590601 0.735589 0.500000
O O8 0.240364 0.233578 0.398400
O O9 0.253057 0.112386 0.327252
O O10 0.500000 0.620478 0.500000
O O11 0.356942 0.618500 0.430646
O O12 0.298623 0.133199 0.916300
O O13 0.366707 0.231756 0.000000
O O14 0.786681 0.914970 0.807047
O O15 0.845726 0.000000 0.706090
O O16 0.269405 0.500000 0.581071
#
# Coordination Sequence:
#
# PCOD9523055 Si02
#       7
#    16   8  16   8  16  16  16
#     4  11  22  36  58  84 114 147 181 230 280 325
#     4  11  20  31  57  87 115 140 173 230 286 333
#     4  11  18  37  58  83 109 144 189 227 270 329
#     4  11  21  32  47  83 126 151 171 210 275 339
#     4  11  19  35  56  80 107 145 194 232 260 320
#     4  10  21  36  57  81 109 147 188 228 269 326
#     4  11  19  31  51  78 112 151 184 215 261 322
#
# _framework density 17.605495999999999
#
# number of rings (size 3 to 8) (size 9 to 14) (size 15 to 20)
#    0.000    1.167    6.667    1.750    0.000    3.333 
#    0.000    2.083    0.000    4.000    0.000    3.500 
#    0.000    0.000    0.000    0.000    0.000    0.000 
#
# Total GULP energy -267757.105109 kJ/mol
# GULP energy per Si atom -5578.273023 kJ/mol
# Density = 1.756542 g / cm^3
# Si number density = 17.605496 Si / 1000 Ang^3
#
#
#
# Elastic Constant Matrix: (Units=GPa)
#
#
# Indices 1 2 3 4 5 6 
#
# 1 35.0722 -0.0968 3.9381 0.0000 0.0000 0.0000
# 2 -0.0968 52.0658 10.3740 0.0000 0.0000 0.0000
# 3 3.9381 10.3740 97.9221 0.0000 0.0000 0.0000
# 4 0.0000 0.0000 0.0000 -8.9758 0.0000 0.0000
# 5 0.0000 0.0000 0.0000 0.0000 18.3128 0.0000
# 6 0.0000 0.0000 0.0000 0.0000 0.0000 12.7586
#
#
#
# Elastic Compliance Matrix: (Units=1/GPa)
#
#
# Indices 1 2 3 4 5 6 
#
# 1 0.028646 0.000289 -0.001183 0.000000 0.000000 0.000000
# 2 0.000289 0.019624 -0.002091 0.000000 0.000000 0.000000
# 3 -0.001183 -0.002091 0.010481 0.000000 0.000000 0.000000
# 4 0.000000 0.000000 0.000000 -0.111411 0.000000 0.000000
# 5 0.000000 0.000000 0.000000 0.000000 0.054607 0.000000
# 6 0.000000 0.000000 0.000000 0.000000 0.000000 0.078378
#
#
# Mechanical properties :
#
#
# Convention : Reuss Voigt Hill
#
# Bulk Modulus (GPa) = 18.94574 23.72121 21.33347
# Shear Modulus (GPa) = 48.12865 15.80877 31.96871
#
# Velocity S-wave (km/s) = 5.23418 2.99982 4.26589
# Velocity P-wave (km/s) = 6.87848 5.04991 6.03387
#
# Compressibility (1/GPa) = 0.05278230
#
# Stress axis : x y z
#
# Youngs Moduli (GPa) = 34.90865 50.95923 95.40855
#
# Poissons Ratio (x) = -0.01472 0.11284
# Poissons Ratio (y) = -0.01009 0.19946
# Poissons Ratio (z) = 0.04129 0.10653
#
# Static dielectric constant tensor:
#      x y z
#    x 1.588400 0.000000 0.000000 
#    y 0.000000 1.609840 0.000000 
#    z 0.000000 0.000000 1.591410 
# 
# From -- ./inp_files/46087.got.cif
#   From: 2010.05.17/outbox.cif.g08.bks.cpg/sg71_24_cif.got.tgz:46087.got - 2010.06.03 16:22:01.
