data_PCOD9523538
_publ_section_title
;
Structure prediction by ZEFSAII (Michael W. Deem and Ramdas Pophale) SiO2 
 PCOD9523538
Probable space group: I M M M
;
_chemical_formula_sum "Si O2"
_cell_formula_units_Z 88
_cell_length_a 8.481322
_cell_length_b 23.699465
_cell_length_c 22.441377
_cell_angle_alpha 90.000000
_cell_angle_beta 90.000000
_cell_angle_gamma 90.000000
_cell_volume 4510.779476
_symmetry_space_group_name_H-M "I M M M"
_symmetry_group_IT_number 71
_symmetry_cell_setting 'orthorhombic'
loop_
_space_group_symop_operation_xyz
x,y,z
-x,-y,z
x,-y,-z
-x,y,-z
-x,-y,-z
x,y,-z
-x,y,z
x,-y,z
1/2+x,1/2+y,1/2+z
1/2-x,1/2-y,1/2+z
1/2+x,1/2-y,1/2-z
1/2-x,1/2+y,1/2-z
1/2-x,1/2-y,1/2-z
1/2+x,1/2+y,1/2-z
1/2-x,1/2+y,1/2+z
1/2+x,1/2-y,1/2+z
loop_
_atom_site_type_symbol
_atom_site_label
_atom_site_fract_x
_atom_site_fract_y
_atom_site_fract_z
Si Si1 0.811326 0.934216 0.000000
Si Si2 0.814769 0.735697 0.315974
Si Si3 0.309508 0.880177 0.122223
Si Si4 0.183612 0.063813 0.428849
Si Si5 0.191599 0.437663 0.256804
Si Si6 0.683486 0.149916 0.342406
O O1 0.755652 0.901383 0.940647
O O2 0.000000 0.935558 0.000000
O O3 0.754518 0.000000 0.000000
O O4 0.750000 0.750000 0.250000
O O5 0.754314 0.680648 0.351536
O O6 0.777496 0.792717 0.351321
O O7 0.000000 0.726465 0.308759
O O8 0.500000 0.878070 0.117148
O O9 0.268635 0.923816 0.175105
O O10 0.192775 0.067209 0.500000
O O11 0.293420 0.108589 0.397556
O O12 0.000000 0.073385 0.412110
O O13 0.226407 0.000000 0.411204
O O14 0.248434 0.500000 0.239514
O O15 0.244007 0.386948 0.213928
O O16 0.000000 0.437878 0.252329
O O17 0.500000 0.163562 0.332592
#
# Coordination Sequence:
#
# PCOD9523538 Si02
#       6
#     8  16  16  16  16  16
#     4  11  25  43  63  93 129 159 196 253 316 367
#     4  11  22  39  62  88 118 154 196 244 296 356
#     4  10  21  40  64  87 115 159 208 244 291 361
#     4   9  19  37  58  81 114 155 196 239 291 351
#     4   9  17  31  54  85 117 147 186 237 287 343
#     4  11  21  35  56  86 120 154 195 242 295 357
#
# _framework density 19.508823
#
# number of rings (size 3 to 8) (size 9 to 14) (size 15 to 20)
#    0.000    1.909    1.818    3.000    0.000    4.364 
#    1.636    0.909    0.000    3.273    0.000    0.000 
#    0.000    0.000    0.000    0.000    0.000    0.000 
#
# Total GULP energy -245547.108792 kJ/mol
# GULP energy per Si atom -5580.616109 kJ/mol
# Density = 1.946442 g / cm^3
# Si number density = 19.508823 Si / 1000 Ang^3
#
#
#
# Elastic Constant Matrix: (Units=GPa)
#
#
# Indices 1 2 3 4 5 6 
#
# 1 23.0212 21.4787 19.8531 0.0000 0.0000 0.0000
# 2 21.4787 130.4188 52.5841 0.0000 0.0000 0.0000
# 3 19.8531 52.5841 92.2661 0.0000 0.0000 0.0000
# 4 0.0000 0.0000 0.0000 27.1703 0.0000 0.0000
# 5 0.0000 0.0000 0.0000 0.0000 25.9109 0.0000
# 6 0.0000 0.0000 0.0000 0.0000 0.0000 24.3856
#
#
#
# Elastic Compliance Matrix: (Units=1/GPa)
#
#
# Indices 1 2 3 4 5 6 
#
# 1 0.056431 -0.005710 -0.008888 0.000000 0.000000 0.000000
# 2 -0.005710 0.010533 -0.004774 0.000000 0.000000 0.000000
# 3 -0.008888 -0.004774 0.015472 0.000000 0.000000 0.000000
# 4 0.000000 0.000000 0.000000 0.036805 0.000000 0.000000
# 5 0.000000 0.000000 0.000000 0.000000 0.038594 0.000000
# 6 0.000000 0.000000 0.000000 0.000000 0.000000 0.041008
#
#
# Mechanical properties :
#
#
# Convention : Reuss Voigt Hill
#
# Bulk Modulus (GPa) = 22.88829 48.17088 35.52958
# Shear Modulus (GPa) = 19.82949 25.61270 22.72109
#
# Velocity S-wave (km/s) = 3.19162 3.62730 3.41641
# Velocity P-wave (km/s) = 5.03385 6.50296 5.81499
#
# Compressibility (1/GPa) = 0.04369046
#
# Stress axis : x y z
#
# Youngs Moduli (GPa) = 17.72091 94.94021 64.63439
#
# Poissons Ratio (x) = 0.54210 0.57448
# Poissons Ratio (y) = 0.10119 0.30858
# Poissons Ratio (z) = 0.15751 0.45327
#
# Static dielectric constant tensor:
#      x y z
#    x 1.697460 0.000000 0.000000 
#    y 0.000000 1.702950 0.000000 
#    z 0.000000 0.000000 1.685000 
# 
# From -- ./inp_files/50490.got.cif
#   From: 2010.05.17/outbox.cif.g08.bks.cpg/sg71_26_cif.got.tgz:50490.got - 2010.06.03 16:22:01.
