data_PCOD9523630
_publ_section_title
;
Structure prediction by ZEFSAII (Michael W. Deem and Ramdas Pophale) SiO2 
 PCOD9523630
Probable space group: I M M M
;
_chemical_formula_sum "Si O2"
_cell_formula_units_Z 66
_cell_length_a 13.409423
_cell_length_b 9.441059
_cell_length_c 26.496783
_cell_angle_alpha 90.000000
_cell_angle_beta 90.000000
_cell_angle_gamma 90.000000
_cell_volume 3354.470304
_symmetry_space_group_name_H-M "I M M M"
_symmetry_group_IT_number 71
_symmetry_cell_setting 'orthorhombic'
loop_
_space_group_symop_operation_xyz
x,y,z
-x,-y,z
x,-y,-z
-x,y,-z
-x,-y,-z
x,y,-z
-x,y,z
x,-y,z
1/2+x,1/2+y,1/2+z
1/2-x,1/2-y,1/2+z
1/2+x,1/2-y,1/2-z
1/2-x,1/2+y,1/2-z
1/2-x,1/2-y,1/2-z
1/2+x,1/2+y,1/2-z
1/2-x,1/2+y,1/2+z
1/2+x,1/2-y,1/2+z
loop_
_atom_site_type_symbol
_atom_site_label
_atom_site_fract_x
_atom_site_fract_y
_atom_site_fract_z
Si Si1 0.730189 0.838578 0.058775
Si Si2 0.500000 0.232592 0.076753
Si Si3 0.659064 0.664198 0.728228
Si Si4 0.113691 0.669240 0.873373
Si Si5 0.000000 0.155223 0.315964
Si Si6 0.000000 0.000000 0.500000
O O1 0.609736 0.831020 0.064804
O O2 0.796736 0.733225 0.092696
O O3 0.760847 0.000000 0.070464
O O4 0.751014 0.808153 0.000000
O O5 0.500000 0.241417 0.137423
O O6 0.500000 0.376213 0.044161
O O7 0.678747 0.500000 0.714505
O O8 0.750000 0.750000 0.750000
O O9 0.618375 0.748045 0.679848
O O10 0.589284 0.664715 0.777039
O O11 0.128156 0.500000 0.866496
O O12 0.000000 0.689602 0.893946
O O13 0.000000 0.000000 0.340082
#
# Coordination Sequence:
#
# PCOD9523630 Si02
#       6
#    16   8  16  16   8   2
#     4  11  25  44  68  97 134 178 228 284 344 413
#     4  12  23  41  66 104 139 180 221 279 340 409
#     4  11  22  40  63  93 127 173 218 272 325 394
#     4  11  25  44  67  96 134 177 227 285 343 408
#     4  10  22  37  60  89 128 165 213 256 316 388
#     4  12  24  36  70 104 146 184 218 284 346 398
#
# _framework density 19.675238
#
# number of rings (size 3 to 8) (size 9 to 14) (size 15 to 20)
#    0.000    0.970    3.030    3.273    1.697    5.333 
#    0.000    6.061    0.000    0.000    0.000    0.000 
#    0.000    0.000    0.000    0.000    0.000    0.000 
#
# Total GULP energy -183703.784320 kJ/mol
# GULP energy per Si atom -5566.781343 kJ/mol
# Density = 1.963046 g / cm^3
# Si number density = 19.675238 Si / 1000 Ang^3
#
#
#
# Elastic Constant Matrix: (Units=GPa)
#
#
# Indices 1 2 3 4 5 6 
#
# 1 111.4054 54.6498 29.5684 0.0000 0.0000 0.0000
# 2 54.6498 131.4451 58.1690 0.0000 0.0000 0.0000
# 3 29.5684 58.1690 105.6882 0.0000 0.0000 0.0000
# 4 0.0000 0.0000 0.0000 35.3879 0.0000 0.0000
# 5 0.0000 0.0000 0.0000 0.0000 -13.3431 0.0000
# 6 0.0000 0.0000 0.0000 0.0000 0.0000 7.5038
#
#
#
# Elastic Compliance Matrix: (Units=1/GPa)
#
#
# Indices 1 2 3 4 5 6 
#
# 1 0.011322 -0.004370 -0.000762 0.000000 0.000000 0.000000
# 2 -0.004370 0.011744 -0.005241 0.000000 0.000000 0.000000
# 3 -0.000762 -0.005241 0.012560 0.000000 0.000000 0.000000
# 4 0.000000 0.000000 0.000000 0.028258 0.000000 0.000000
# 5 0.000000 0.000000 0.000000 0.000000 -0.074945 0.000000
# 6 0.000000 0.000000 0.000000 0.000000 0.000000 0.133265
#
#
# Mechanical properties :
#
#
# Convention : Reuss Voigt Hill
#
# Bulk Modulus (GPa) = 67.20925 70.36812 68.78869
# Shear Modulus (GPa) = 33.80407 19.65316 26.72862
#
# Velocity S-wave (km/s) = 4.14950 3.16393 3.68977
# Velocity P-wave (km/s) = 7.56249 7.01354 7.29318
#
# Compressibility (1/GPa) = 0.01487890
#
# Stress axis : x y z
#
# Youngs Moduli (GPa) = 88.32158 85.15018 79.61953
#
# Poissons Ratio (x) = 0.37210 0.06071
# Poissons Ratio (y) = 0.38596 0.41729
# Poissons Ratio (z) = 0.06734 0.44628
#
# Static dielectric constant tensor:
#      x y z
#    x 1.714540 0.000000 0.000000 
#    y 0.000000 1.696460 0.000000 
#    z 0.000000 0.000000 1.662260 
# 
# From -- ./inp_files/14225.got.cif
#   From: 2010.05.17/outbox.cif.g08.bks.cpg/sg71_8_cif.got.tgz:14225.got - 2010.06.03 16:22:01.
