data_PCOD9523675
_publ_section_title
;
Structure prediction by ZEFSAII (Michael W. Deem and Ramdas Pophale) SiO2 
 PCOD9523675
Probable space group: I M M M
;
_chemical_formula_sum "Si O2"
_cell_formula_units_Z 68
_cell_length_a 10.109307
_cell_length_b 20.336089
_cell_length_c 15.087100
_cell_angle_alpha 90.000000
_cell_angle_beta 90.000000
_cell_angle_gamma 90.000000
_cell_volume 3101.662849
_symmetry_space_group_name_H-M "I M M M"
_symmetry_group_IT_number 71
_symmetry_cell_setting 'orthorhombic'
loop_
_space_group_symop_operation_xyz
x,y,z
-x,-y,z
x,-y,-z
-x,y,-z
-x,-y,-z
x,y,-z
-x,y,z
x,-y,z
1/2+x,1/2+y,1/2+z
1/2-x,1/2-y,1/2+z
1/2+x,1/2-y,1/2-z
1/2-x,1/2+y,1/2-z
1/2-x,1/2-y,1/2-z
1/2+x,1/2+y,1/2-z
1/2-x,1/2+y,1/2+z
1/2+x,1/2-y,1/2+z
loop_
_atom_site_type_symbol
_atom_site_label
_atom_site_fract_x
_atom_site_fract_y
_atom_site_fract_z
Si Si1 0.223598 0.425763 0.348651
Si Si2 0.000000 0.592399 0.500000
Si Si3 0.854772 0.204014 0.107654
Si Si4 0.851257 0.188988 0.604809
Si Si5 0.148507 0.575695 0.854749
O O1 0.274339 0.500000 0.362453
O O2 0.331558 0.368855 0.356194
O O3 0.158289 0.423478 0.251846
O O4 0.114743 0.411019 0.423023
O O5 0.736987 0.250956 0.140392
O O6 0.000000 0.229429 0.132331
O O7 0.849555 0.201625 0.000000
O O8 0.864645 0.201906 0.500000
O O9 0.763674 0.123734 0.613791
O O10 0.000000 0.184431 0.641906
O O11 0.168157 0.500000 0.883382
O O12 0.000000 0.596208 0.882333
#
# Coordination Sequence:
#
# PCOD9523675 Si02
#       5
#    16   4  16  16  16
#     4  11  22  36  61  91 124 164 206 247 296 356
#     4  12  21  36  62  94 126 166 207 246 289 354
#     4  10  22  38  59  88 123 160 201 252 305 359
#     4  10  23  42  65  89 116 157 207 255 306 366
#     4  10  22  40  62  91 124 157 198 249 304 362
#
# _framework density 21.923725000000001
#
# number of rings (size 3 to 8) (size 9 to 14) (size 15 to 20)
#    0.000    1.647    2.353    1.765    1.647    4.706 
#    0.000    5.882    0.000    0.000    0.000    0.000 
#    0.000    0.000    0.000    0.000    0.000    0.000 
#
# Total GULP energy -189487.034346 kJ/mol
# GULP energy per Si atom -5573.148069 kJ/mol
# Density = 2.187383 g / cm^3
# Si number density = 21.923725 Si / 1000 Ang^3
#
#
#
# Elastic Constant Matrix: (Units=GPa)
#
#
# Indices 1 2 3 4 5 6 
#
# 1 191.5684 96.6072 8.7072 0.0000 0.0000 0.0000
# 2 96.6072 100.9758 -9.1829 0.0000 0.0000 0.0000
# 3 8.7072 -9.1829 51.7414 0.0000 0.0000 0.0000
# 4 0.0000 0.0000 0.0000 21.3127 0.0000 0.0000
# 5 0.0000 0.0000 0.0000 0.0000 15.3081 0.0000
# 6 0.0000 0.0000 0.0000 0.0000 0.0000 45.3384
#
#
#
# Elastic Compliance Matrix: (Units=1/GPa)
#
#
# Indices 1 2 3 4 5 6 
#
# 1 0.010738 -0.010609 -0.003690 0.000000 0.000000 0.000000
# 2 -0.010609 0.020547 0.005432 0.000000 0.000000 0.000000
# 3 -0.003690 0.005432 0.020912 0.000000 0.000000 0.000000
# 4 0.000000 0.000000 0.000000 0.046920 0.000000 0.000000
# 5 0.000000 0.000000 0.000000 0.000000 0.065325 0.000000
# 6 0.000000 0.000000 0.000000 0.000000 0.000000 0.022056
#
#
# Mechanical properties :
#
#
# Convention : Reuss Voigt Hill
#
# Bulk Modulus (GPa) = 29.01628 59.61654 44.31641
# Shear Modulus (GPa) = 23.17826 32.93543 28.05685
#
# Velocity S-wave (km/s) = 3.25502 3.88012 3.58124
# Velocity P-wave (km/s) = 5.23362 6.87936 6.11213
#
# Compressibility (1/GPa) = 0.03446341
#
# Stress axis : x y z
#
# Youngs Moduli (GPa) = 93.12985 48.66877 47.81984
#
# Poissons Ratio (x) = 0.51631 0.17644
# Poissons Ratio (y) = 0.98799 -0.25975
# Poissons Ratio (z) = 0.34363 -0.26436
#
# Static dielectric constant tensor:
#      x y z
#    x 1.791620 0.000000 0.000000 
#    y 0.000000 1.809290 0.000000 
#    z 0.000000 0.000000 1.805530 
# 
# From -- ./inp_files/41927.got.cif
#   From: 2010.05.17/outbox.cif.g08.bks.cpg/sg71_21_cif.got.tgz:41927.got - 2010.06.03 16:22:01.
