data_PCOD9523266
_publ_section_title
;
Structure prediction by ZEFSAII (Michael W. Deem and Ramdas Pophale) SiO2 
 PCOD9523266
Probable space group: I M M M
;
_chemical_formula_sum "Si O2"
_cell_formula_units_Z 88
_cell_length_a 24.725608
_cell_length_b 20.429048
_cell_length_c 8.417424
_cell_angle_alpha 90.000000
_cell_angle_beta 90.000000
_cell_angle_gamma 90.000000
_cell_volume 4251.814536
_symmetry_space_group_name_H-M "I M M M"
_symmetry_group_IT_number 71
_symmetry_cell_setting 'orthorhombic'
loop_
_space_group_symop_operation_xyz
x,y,z
-x,-y,z
x,-y,-z
-x,y,-z
-x,-y,-z
x,y,-z
-x,y,z
x,-y,z
1/2+x,1/2+y,1/2+z
1/2-x,1/2-y,1/2+z
1/2+x,1/2-y,1/2-z
1/2-x,1/2+y,1/2-z
1/2-x,1/2-y,1/2-z
1/2+x,1/2+y,1/2-z
1/2-x,1/2+y,1/2+z
1/2+x,1/2-y,1/2+z
loop_
_atom_site_type_symbol
_atom_site_label
_atom_site_fract_x
_atom_site_fract_y
_atom_site_fract_z
Si Si1 0.369440 0.372195 0.306277
Si Si2 0.560657 0.103311 0.813791
Si Si3 0.825969 0.429420 0.187216
Si Si4 0.253990 0.324119 0.311371
Si Si5 0.936692 0.000000 0.805556
Si Si6 0.062258 0.253295 0.815018
O O1 0.369457 0.374974 0.500000
O O2 0.307687 0.362550 0.252236
O O3 0.403155 0.435680 0.253622
O O4 0.400176 0.305589 0.261492
O O5 0.500000 0.085160 0.759783
O O6 0.610270 0.072962 0.720751
O O7 0.566027 0.181353 0.787181
O O8 0.565211 0.087650 0.000000
O O9 0.805005 0.500000 0.246962
O O10 0.797297 0.367862 0.266546
O O11 0.816403 0.425518 0.000000
O O12 0.258284 0.319924 0.500000
O O13 0.250000 0.250000 0.250000
O O14 0.000000 0.000000 0.756009
O O15 0.937403 0.000000 0.000000
O O16 0.000000 0.230658 0.812280
O O17 0.075360 0.269837 0.000000
#
# Coordination Sequence:
#
# PCOD9523266 Si02
#       6
#    16  16  16  16   8  16
#     4   9  18  30  49  79 113 150 192 239 291 351
#     4  10  21  37  59  88 118 149 189 238 297 364
#     4  11  25  43  62  85 117 156 201 250 302 362
#     4  11  23  39  62  89 121 159 204 255 307 366
#     4   9  16  28  48  78 117 153 188 235 292 353
#     4   9  16  29  52  82 116 152 191 237 289 346
#
# _framework density 20.697044999999999
#
# number of rings (size 3 to 8) (size 9 to 14) (size 15 to 20)
#    0.000    2.091    0.000    3.273    1.273    6.545 
#    0.000    2.727    0.000    0.000    0.000    0.000 
#    0.000    6.545    0.000    0.000    0.000    0.000 
#
# Total GULP energy -245713.745875 kJ/mol
# GULP energy per Si atom -5584.403315 kJ/mol
# Density = 2.064994 g / cm^3
# Si number density = 20.697045 Si / 1000 Ang^3
#
#
#
# Elastic Constant Matrix: (Units=GPa)
#
#
# Indices 1 2 3 4 5 6 
#
# 1 112.4590 60.7777 11.7067 0.0000 0.0000 0.0000
# 2 60.7777 119.7686 14.9050 0.0000 0.0000 0.0000
# 3 11.7067 14.9050 23.1555 0.0000 0.0000 0.0000
# 4 0.0000 0.0000 0.0000 10.0920 0.0000 0.0000
# 5 0.0000 0.0000 0.0000 0.0000 17.0093 0.0000
# 6 0.0000 0.0000 0.0000 0.0000 0.0000 29.9479
#
#
#
# Elastic Compliance Matrix: (Units=1/GPa)
#
#
# Indices 1 2 3 4 5 6 
#
# 1 0.012375 -0.005980 -0.002407 0.000000 0.000000 0.000000
# 2 -0.005980 0.011966 -0.004679 0.000000 0.000000 0.000000
# 3 -0.002407 -0.004679 0.047415 0.000000 0.000000 0.000000
# 4 0.000000 0.000000 0.000000 0.099089 0.000000 0.000000
# 5 0.000000 0.000000 0.000000 0.000000 0.058791 0.000000
# 6 0.000000 0.000000 0.000000 0.000000 0.000000 0.033391
#
#
# Mechanical properties :
#
#
# Convention : Reuss Voigt Hill
#
# Bulk Modulus (GPa) = 21.91850 47.79578 34.85714
# Shear Modulus (GPa) = 16.42747 22.60939 19.51843
#
# Velocity S-wave (km/s) = 2.82034 3.30873 3.07425
# Velocity P-wave (km/s) = 4.60640 6.14330 5.42950
#
# Compressibility (1/GPa) = 0.04562356
#
# Stress axis : x y z
#
# Youngs Moduli (GPa) = 80.81093 83.56723 21.09029
#
# Poissons Ratio (x) = 0.49974 0.05076
# Poissons Ratio (y) = 0.48325 0.09869
# Poissons Ratio (z) = 0.19450 0.39104
#
# Static dielectric constant tensor:
#      x y z
#    x 1.747240 0.000000 0.000000 
#    y 0.000000 1.742060 0.000000 
#    z 0.000000 0.000000 1.710800 
# 
# From -- ./inp_files/12529.got.cif
#   From: 2010.05.17/outbox.cif.g08.bks.cpg/sg71_7_cif.got.tgz:12529.got - 2010.06.03 16:22:01.
