data_PCOD9523735
_publ_section_title
;
Structure prediction by ZEFSAII (Michael W. Deem and Ramdas Pophale) SiO2 
 PCOD9523735
Probable space group: I M M M
;
_chemical_formula_sum "Si O2"
_cell_formula_units_Z 64
_cell_length_a 23.299263
_cell_length_b 10.701434
_cell_length_c 12.894271
_cell_angle_alpha 90.000000
_cell_angle_beta 90.000000
_cell_angle_gamma 90.000000
_cell_volume 3214.999832
_symmetry_space_group_name_H-M "I M M M"
_symmetry_group_IT_number 71
_symmetry_cell_setting 'orthorhombic'
loop_
_space_group_symop_operation_xyz
x,y,z
-x,-y,z
x,-y,-z
-x,y,-z
-x,-y,-z
x,y,-z
-x,y,z
x,-y,z
1/2+x,1/2+y,1/2+z
1/2-x,1/2-y,1/2+z
1/2+x,1/2-y,1/2-z
1/2-x,1/2+y,1/2-z
1/2-x,1/2-y,1/2-z
1/2+x,1/2+y,1/2-z
1/2-x,1/2+y,1/2+z
1/2+x,1/2-y,1/2+z
loop_
_atom_site_type_symbol
_atom_site_label
_atom_site_fract_x
_atom_site_fract_y
_atom_site_fract_z
Si Si1 0.858489 0.740072 0.820729
Si Si2 0.565849 0.221667 0.116091
Si Si3 0.285459 0.000000 0.618510
Si Si4 0.317461 0.500000 0.722052
Si Si5 0.931944 0.854283 0.000000
Si Si6 0.560318 0.500000 0.826535
O O1 0.888443 0.705730 0.709624
O O2 0.823827 0.620841 0.858323
O O3 0.815489 0.860638 0.825268
O O4 0.908180 0.781872 0.899838
O O5 0.500000 0.178111 0.139877
O O6 0.561864 0.372413 0.111151
O O7 0.581530 0.175453 0.000000
O O8 0.267282 0.000000 0.500000
O O9 0.229184 0.000000 0.688471
O O10 0.383591 0.500000 0.758131
O O11 0.000000 0.854869 0.000000
O O12 0.911758 0.000000 0.000000
O O13 0.500000 0.500000 0.764755
#
# Coordination Sequence:
#
# PCOD9523735 Si02
#       6
#    16  16   8   8   8   8
#     4  11  22  42  64  94 130 167 219 270 323 397
#     4   9  17  31  56  89 124 158 198 257 323 388
#     4  12  26  44  64  87 130 178 221 275 317 390
#     4  10  22  39  65  91 122 163 219 258 330 376
#     4  11  22  39  69 103 135 177 221 276 338 394
#     4   8  15  29  54  90 123 146 186 253 320 383
#
# _framework density 19.906689
#
# number of rings (size 3 to 8) (size 9 to 14) (size 15 to 20)
#    0.000    1.875    2.500    1.875    0.000    6.500 
#    0.000    3.750    2.750    1.500    0.000    0.000 
#    0.000    0.000    0.000    0.000    0.000    0.000 
#
# Total GULP energy -178223.448598 kJ/mol
# GULP energy per Si atom -5569.482769 kJ/mol
# Density = 1.986138 g / cm^3
# Si number density = 19.906689 Si / 1000 Ang^3
#
#
#
# Elastic Constant Matrix: (Units=GPa)
#
#
# Indices 1 2 3 4 5 6 
#
# 1 62.9324 34.5793 21.6123 0.0000 0.0000 0.0000
# 2 34.5793 108.2685 17.2605 0.0000 0.0000 0.0000
# 3 21.6123 17.2605 79.9668 0.0000 0.0000 0.0000
# 4 0.0000 0.0000 0.0000 6.5208 0.0000 0.0000
# 5 0.0000 0.0000 0.0000 0.0000 34.7344 0.0000
# 6 0.0000 0.0000 0.0000 0.0000 0.0000 15.3984
#
#
#
# Elastic Compliance Matrix: (Units=1/GPa)
#
#
# Indices 1 2 3 4 5 6 
#
# 1 0.020605 -0.005896 -0.004296 0.000000 0.000000 0.000000
# 2 -0.005896 0.011253 -0.000835 0.000000 0.000000 0.000000
# 3 -0.004296 -0.000835 0.013847 0.000000 0.000000 0.000000
# 4 0.000000 0.000000 0.000000 0.153357 0.000000 0.000000
# 5 0.000000 0.000000 0.000000 0.000000 0.028790 0.000000
# 6 0.000000 0.000000 0.000000 0.000000 0.000000 0.064942
#
#
# Mechanical properties :
#
#
# Convention : Reuss Voigt Hill
#
# Bulk Modulus (GPa) = 42.28482 44.23019 43.25750
# Shear Modulus (GPa) = 15.49277 23.17841 19.33559
#
# Velocity S-wave (km/s) = 2.79278 3.41596 3.11997
# Velocity P-wave (km/s) = 5.62913 6.15024 5.89544
#
# Compressibility (1/GPa) = 0.02364915
#
# Stress axis : x y z
#
# Youngs Moduli (GPa) = 48.53152 88.86851 72.21984
#
# Poissons Ratio (x) = 0.52397 0.31027
# Poissons Ratio (y) = 0.28614 0.06033
# Poissons Ratio (z) = 0.20850 0.07423
#
# Static dielectric constant tensor:
#      x y z
#    x 1.681930 0.000000 0.000000 
#    y 0.000000 1.765090 0.000000 
#    z 0.000000 0.000000 1.739090 
# 
# From -- ./inp_files/26898.got.cif
#   From: 2010.05.17/outbox.cif.g08.bks.cpg/sg71_14_cif.got.tgz:26898.got - 2010.06.03 16:22:01.
