data_PCOD9523520
_publ_section_title
;
Structure prediction by ZEFSAII (Michael W. Deem and Ramdas Pophale) SiO2 
 PCOD9523520
Probable space group: I M M M
;
_chemical_formula_sum "Si O2"
_cell_formula_units_Z 64
_cell_length_a 8.720205
_cell_length_b 13.929018
_cell_length_c 26.881857
_cell_angle_alpha 90.000000
_cell_angle_beta 90.000000
_cell_angle_gamma 90.000000
_cell_volume 3265.174986
_symmetry_space_group_name_H-M "I M M M"
_symmetry_group_IT_number 71
_symmetry_cell_setting 'orthorhombic'
loop_
_space_group_symop_operation_xyz
x,y,z
-x,-y,z
x,-y,-z
-x,y,-z
-x,-y,-z
x,y,-z
-x,y,z
x,-y,z
1/2+x,1/2+y,1/2+z
1/2-x,1/2-y,1/2+z
1/2+x,1/2-y,1/2-z
1/2-x,1/2+y,1/2-z
1/2-x,1/2-y,1/2-z
1/2+x,1/2+y,1/2-z
1/2-x,1/2+y,1/2+z
1/2+x,1/2-y,1/2+z
loop_
_atom_site_type_symbol
_atom_site_label
_atom_site_fract_x
_atom_site_fract_y
_atom_site_fract_z
Si Si1 0.815982 0.108634 0.376677
Si Si2 0.822432 0.000000 0.920170
Si Si3 0.322201 0.500000 0.698297
Si Si4 0.182448 0.216092 0.941962
Si Si5 0.681648 0.151461 0.268190
O O1 0.754435 0.199291 0.408508
O O2 0.755357 0.119063 0.320266
O O3 0.000000 0.112996 0.376570
O O4 0.771436 0.000000 0.394385
O O5 0.758633 0.894594 0.935213
O O6 0.821138 0.000000 0.860652
O O7 0.000000 0.000000 0.938454
O O8 0.500000 0.500000 0.714764
O O9 0.231931 0.586229 0.722536
O O10 0.000000 0.213082 0.930062
O O11 0.201401 0.240614 0.000000
O O12 0.500000 0.153805 0.274619
O O13 0.750000 0.250000 0.250000
#
# Coordination Sequence:
#
# PCOD9523520 Si02
#       5
#    16   8   8  16  16
#     4  11  24  42  63  88 125 168 214 266 320 381
#     4   9  19  37  62  92 126 163 204 256 315 380
#     4  11  21  36  59  90 125 163 207 251 305 372
#     4  10  21  39  65  94 124 163 213 266 324 387
#     4  12  24  39  61  89 124 165 208 257 310 374
#
# _framework density 19.600787
#
# number of rings (size 3 to 8) (size 9 to 14) (size 15 to 20)
#    0.000    1.250    1.250    5.250    0.000    6.000 
#    0.000    4.375    0.000    1.500    0.000    0.000 
#    0.000    0.000    0.000    0.000    0.000    0.000 
#
# Total GULP energy -178526.133046 kJ/mol
# GULP energy per Si atom -5578.941658 kJ/mol
# Density = 1.955617 g / cm^3
# Si number density = 19.600787 Si / 1000 Ang^3
#
#
#
# Elastic Constant Matrix: (Units=GPa)
#
#
# Indices 1 2 3 4 5 6 
#
# 1 69.1265 38.9612 30.6012 0.0000 0.0000 0.0000
# 2 38.9612 156.4814 42.7959 0.0000 0.0000 0.0000
# 3 30.6012 42.7959 82.3573 0.0000 0.0000 0.0000
# 4 0.0000 0.0000 0.0000 41.0772 0.0000 0.0000
# 5 0.0000 0.0000 0.0000 0.0000 24.3447 0.0000
# 6 0.0000 0.0000 0.0000 0.0000 0.0000 25.1583
#
#
#
# Elastic Compliance Matrix: (Units=1/GPa)
#
#
# Indices 1 2 3 4 5 6 
#
# 1 0.018589 -0.003193 -0.005248 0.000000 0.000000 0.000000
# 2 -0.003193 0.007998 -0.002969 0.000000 0.000000 0.000000
# 3 -0.005248 -0.002969 0.015635 0.000000 0.000000 0.000000
# 4 0.000000 0.000000 0.000000 0.024344 0.000000 0.000000
# 5 0.000000 0.000000 0.000000 0.000000 0.041077 0.000000
# 6 0.000000 0.000000 0.000000 0.000000 0.000000 0.039748
#
#
# Mechanical properties :
#
#
# Convention : Reuss Voigt Hill
#
# Bulk Modulus (GPa) = 51.54330 59.18686 55.36508
# Shear Modulus (GPa) = 28.29990 31.15650 29.72820
#
# Velocity S-wave (km/s) = 3.80388 3.99125 3.89869
# Velocity P-wave (km/s) = 6.75620 7.17647 6.96951
#
# Compressibility (1/GPa) = 0.01940117
#
# Stress axis : x y z
#
# Youngs Moduli (GPa) = 53.79503 125.03623 63.95851
#
# Poissons Ratio (x) = 0.39926 0.33564
# Poissons Ratio (y) = 0.17178 0.18992
# Poissons Ratio (z) = 0.28230 0.37129
#
# Static dielectric constant tensor:
#      x y z
#    x 1.670220 0.000000 0.000000 
#    y 0.000000 1.691030 0.000000 
#    z 0.000000 0.000000 1.642460 
# 
# From -- ./inp_files/67708.got.cif
#   From: 2010.05.17/outbox.cif.g08.bks.cpg/sg71_34_cif.got.tgz:67708.got - 2010.06.03 16:22:01.
