data_PCOD9523908
_publ_section_title
;
Structure prediction by ZEFSAII (Michael W. Deem and Ramdas Pophale) SiO2 
 PCOD9523908
Probable space group: I M M M
;
_chemical_formula_sum "Si O2"
_cell_formula_units_Z 104
_cell_length_a 22.188396
_cell_length_b 28.339681
_cell_length_c 8.687401
_cell_angle_alpha 90.000000
_cell_angle_beta 90.000000
_cell_angle_gamma 90.000000
_cell_volume 5462.742558
_symmetry_space_group_name_H-M "I M M M"
_symmetry_group_IT_number 71
_symmetry_cell_setting 'orthorhombic'
loop_
_space_group_symop_operation_xyz
x,y,z
-x,-y,z
x,-y,-z
-x,y,-z
-x,-y,-z
x,y,-z
-x,y,z
x,-y,z
1/2+x,1/2+y,1/2+z
1/2-x,1/2-y,1/2+z
1/2+x,1/2-y,1/2-z
1/2-x,1/2+y,1/2-z
1/2-x,1/2-y,1/2-z
1/2+x,1/2+y,1/2-z
1/2-x,1/2+y,1/2+z
1/2+x,1/2-y,1/2+z
loop_
_atom_site_type_symbol
_atom_site_label
_atom_site_fract_x
_atom_site_fract_y
_atom_site_fract_z
Si Si1 0.877858 0.445452 0.315712
Si Si2 0.827471 0.829759 0.815841
Si Si3 0.500000 0.098679 0.683855
Si Si4 0.073139 0.000000 0.322511
Si Si5 0.070629 0.103803 0.687021
Si Si6 0.373682 0.228678 0.685336
Si Si7 0.500000 0.795321 0.183004
Si Si8 0.201874 0.636096 0.815642
O O1 0.882558 0.441992 0.500000
O O2 0.867306 0.500000 0.274313
O O3 0.825672 0.410964 0.256789
O O4 0.940426 0.427545 0.243138
O O5 0.886473 0.857561 0.760032
O O6 0.835532 0.774844 0.771953
O O7 0.768932 0.852466 0.739164
O O8 0.822148 0.832548 0.000000
O O9 0.500000 0.100319 0.500000
O O10 0.500000 0.151981 0.747040
O O11 0.089861 0.948919 0.257141
O O12 0.093855 0.000000 0.500000
O O13 0.000000 0.000000 0.325871
O O14 0.075280 0.104618 0.500000
O O15 0.000000 0.110836 0.724300
O O16 0.380230 0.228255 0.500000
O O17 0.439538 0.229874 0.759291
O O18 0.340168 0.180503 0.731185
O O19 0.500000 0.798313 0.000000
O O20 0.199996 0.632488 0.000000
#
# Coordination Sequence:
#
# PCOD9523908 Si02
#       8
#    16  16   8   8  16  16   8  16
#     4  11  24  42  65  95 130 166 210 265 318 367
#     4  11  24  40  60  88 124 162 199 248 311 367
#     4  12  23  39  64  95 132 170 213 257 309 374
#     4   7  12  28  55  81 107 143 183 232 287 336
#     4   9  18  35  59  86 115 148 195 249 298 354
#     4  10  23  42  63  88 122 162 202 252 308 369
#     4  12  24  37  63  96 126 164 207 260 317 368
#     4  11  23  42  66  88 117 162 212 255 303 369
#
# _framework density 19.038056000000001
#
# number of rings (size 3 to 8) (size 9 to 14) (size 15 to 20)
#    0.000    1.615    1.538    4.385    1.077    4.308 
#    1.385    0.385    0.000    1.385    0.000    0.000 
#    0.000    0.000    0.000    0.000    0.000    0.000 
#
# Total GULP energy -290563.134062 kJ/mol
# GULP energy per Si atom -5587.752578 kJ/mol
# Density = 1.899472 g / cm^3
# Si number density = 19.038056 Si / 1000 Ang^3
#
#
#
# Elastic Constant Matrix: (Units=GPa)
#
#
# Indices 1 2 3 4 5 6 
#
# 1 99.6724 43.0186 26.5138 0.0000 0.0000 0.0000
# 2 43.0186 104.5786 28.6172 0.0000 0.0000 0.0000
# 3 26.5138 28.6172 35.9659 0.0000 0.0000 0.0000
# 4 0.0000 0.0000 0.0000 26.9997 0.0000 0.0000
# 5 0.0000 0.0000 0.0000 0.0000 2.2389 0.0000
# 6 0.0000 0.0000 0.0000 0.0000 0.0000 -30.7099
#
#
#
# Elastic Compliance Matrix: (Units=1/GPa)
#
#
# Indices 1 2 3 4 5 6 
#
# 1 0.013468 -0.003609 -0.007057 0.000000 0.000000 0.000000
# 2 -0.003609 0.013191 -0.007835 0.000000 0.000000 0.000000
# 3 -0.007057 -0.007835 0.039240 0.000000 0.000000 0.000000
# 4 0.000000 0.000000 0.000000 0.037037 0.000000 0.000000
# 5 0.000000 0.000000 0.000000 0.000000 0.446651 0.000000
# 6 0.000000 0.000000 0.000000 0.000000 0.000000 -0.032563
#
#
# Mechanical properties :
#
#
# Convention : Reuss Voigt Hill
#
# Bulk Modulus (GPa) = 34.60518 48.50180 41.55349
# Shear Modulus (GPa) = 8.87063 9.17688 9.02375
#
# Velocity S-wave (km/s) = 2.16091 2.19790 2.17948
# Velocity P-wave (km/s) = 4.94392 5.65443 5.31107
#
# Compressibility (1/GPa) = 0.02889741
#
# Stress axis : x y z
#
# Youngs Moduli (GPa) = 74.25213 75.81071 25.48388
#
# Poissons Ratio (x) = 0.27359 0.17983
# Poissons Ratio (y) = 0.26797 0.19967
# Poissons Ratio (z) = 0.52398 0.59398
#
# Static dielectric constant tensor:
#      x y z
#    x 1.627350 0.000000 0.000000 
#    y 0.000000 1.671460 0.000000 
#    z 0.000000 0.000000 1.639250 
# 
# From -- ./inp_files/11201.got.cif
#   From: 2010.05.17/outbox.cif.g08.bks.cpg/sg71_6_cif.got.tgz:11201.got - 2010.06.03 16:22:01.
