data_PCOD9523866
_publ_section_title
;
Structure prediction by ZEFSAII (Michael W. Deem and Ramdas Pophale) SiO2 
 PCOD9523866
Probable space group: I M M M
;
_chemical_formula_sum "Si O2"
_cell_formula_units_Z 104
_cell_length_a 22.656664
_cell_length_b 8.905810
_cell_length_c 27.733244
_cell_angle_alpha 90.000000
_cell_angle_beta 90.000000
_cell_angle_gamma 90.000000
_cell_volume 5595.901511
_symmetry_space_group_name_H-M "I M M M"
_symmetry_group_IT_number 71
_symmetry_cell_setting 'orthorhombic'
loop_
_space_group_symop_operation_xyz
x,y,z
-x,-y,z
x,-y,-z
-x,y,-z
-x,-y,-z
x,y,-z
-x,y,z
x,-y,z
1/2+x,1/2+y,1/2+z
1/2-x,1/2-y,1/2+z
1/2+x,1/2-y,1/2-z
1/2-x,1/2+y,1/2-z
1/2-x,1/2-y,1/2-z
1/2+x,1/2+y,1/2-z
1/2-x,1/2+y,1/2+z
1/2+x,1/2-y,1/2+z
loop_
_atom_site_type_symbol
_atom_site_label
_atom_site_fract_x
_atom_site_fract_y
_atom_site_fract_z
Si Si1 0.500000 0.682511 0.328863
Si Si2 0.500000 0.679329 0.783609
Si Si3 0.807584 0.670568 0.770175
Si Si4 0.292972 0.819564 0.445179
Si Si5 0.842685 0.180478 0.579098
Si Si6 0.429748 0.181060 0.000000
Si Si7 0.114331 0.328606 0.325482
Si Si8 0.370704 0.319783 0.639170
O O1 0.500000 0.500000 0.328203
O O2 0.500000 0.731444 0.272560
O O3 0.439187 0.729473 0.354651
O O4 0.500000 0.500000 0.782780
O O5 0.555609 0.740984 0.812173
O O6 0.795090 0.500000 0.786310
O O7 0.750000 0.750000 0.750000
O O8 0.850432 0.665642 0.724420
O O9 0.836688 0.761441 0.813570
O O10 0.309091 0.780021 0.500000
O O11 0.223885 0.779392 0.437324
O O12 0.336204 0.744077 0.406790
O O13 0.296698 0.000000 0.439754
O O14 0.893340 0.253246 0.545567
O O15 0.851206 0.241659 0.632913
O O16 0.848138 0.000000 0.576793
O O17 0.500000 0.221034 0.000000
O O18 0.426136 0.000000 0.000000
O O19 0.102651 0.500000 0.341243
O O20 0.369387 0.500000 0.638038
#
# Coordination Sequence:
#
# PCOD9523866 Si02
#       8
#     8   8  16  16  16   8  16  16
#     4   9  20  39  62  90 126 165 208 253 310 377
#     4  11  21  39  63  85 117 165 208 247 299 366
#     4  11  23  38  58  87 122 160 200 247 302 362
#     4  10  22  43  66  92 124 160 207 263 318 372
#     4  11  23  42  66  90 120 164 211 255 309 373
#     4  11  25  43  63  89 123 160 203 262 318 364
#     4  11  24  39  57  88 124 156 197 249 298 353
#     4  11  22  39  64  93 124 163 208 258 316 380
#
# _framework density 18.58503
#
# number of rings (size 3 to 8) (size 9 to 14) (size 15 to 20)
#    0.000    1.308    2.308    3.231    1.077    6.462 
#    0.000    1.923    0.000    2.308    0.000    0.000 
#    0.000    0.000    0.000    0.000    0.000    0.000 
#
# Total GULP energy -290512.125294 kJ/mol
# GULP energy per Si atom -5586.771640 kJ/mol
# Density = 1.854273 g / cm^3
# Si number density = 18.585030 Si / 1000 Ang^3
#
#
#
# Elastic Constant Matrix: (Units=GPa)
#
#
# Indices 1 2 3 4 5 6 
#
# 1 130.9320 48.2028 63.0321 0.0000 0.0000 0.0000
# 2 48.2028 68.4207 39.7343 0.0000 0.0000 0.0000
# 3 63.0321 39.7343 135.0362 0.0000 0.0000 0.0000
# 4 0.0000 0.0000 0.0000 28.1288 0.0000 0.0000
# 5 0.0000 0.0000 0.0000 0.0000 35.7717 0.0000
# 6 0.0000 0.0000 0.0000 0.0000 0.0000 25.8603
#
#
#
# Elastic Compliance Matrix: (Units=1/GPa)
#
#
# Indices 1 2 3 4 5 6 
#
# 1 0.011627 -0.006078 -0.003639 0.000000 0.000000 0.000000
# 2 -0.006078 0.020805 -0.003285 0.000000 0.000000 0.000000
# 3 -0.003639 -0.003285 0.010070 0.000000 0.000000 0.000000
# 4 0.000000 0.000000 0.000000 0.035551 0.000000 0.000000
# 5 0.000000 0.000000 0.000000 0.000000 0.027955 0.000000
# 6 0.000000 0.000000 0.000000 0.000000 0.000000 0.038669
#
#
# Mechanical properties :
#
#
# Convention : Reuss Voigt Hill
#
# Bulk Modulus (GPa) = 60.60864 70.70302 65.65583
# Shear Modulus (GPa) = 28.37999 30.18015 29.28007
#
# Velocity S-wave (km/s) = 3.91197 4.03413 3.97352
# Velocity P-wave (km/s) = 7.28608 7.73463 7.51371
#
# Compressibility (1/GPa) = 0.01649930
#
# Stress axis : x y z
#
# Youngs Moduli (GPa) = 86.00712 48.06518 99.30046
#
# Poissons Ratio (x) = 0.29215 0.36133
# Poissons Ratio (y) = 0.52276 0.32618
# Poissons Ratio (z) = 0.31296 0.15788
#
# Static dielectric constant tensor:
#      x y z
#    x 1.600400 0.000000 0.000000 
#    y 0.000000 1.641550 0.000000 
#    z 0.000000 0.000000 1.585490 
# 
# From -- ./inp_files/66490.got.cif
#   From: 2010.05.17/outbox.cif.g08.bks.cpg/sg71_34_cif.got.tgz:66490.got - 2010.06.03 16:22:01.
