data_PCOD9523023
_publ_section_title
;
Structure prediction by ZEFSAII (Michael W. Deem and Ramdas Pophale) SiO2 
 PCOD9523023
Probable space group: I M M M
;
_chemical_formula_sum "Si O2"
_cell_formula_units_Z 112
_cell_length_a 14.781501
_cell_length_b 25.461512
_cell_length_c 15.214692
_cell_angle_alpha 90.000000
_cell_angle_beta 90.000000
_cell_angle_gamma 90.000000
_cell_volume 5726.191821
_symmetry_space_group_name_H-M "I M M M"
_symmetry_group_IT_number 71
_symmetry_cell_setting 'orthorhombic'
loop_
_space_group_symop_operation_xyz
x,y,z
-x,-y,z
x,-y,-z
-x,y,-z
-x,-y,-z
x,y,-z
-x,y,z
x,-y,z
1/2+x,1/2+y,1/2+z
1/2-x,1/2-y,1/2+z
1/2+x,1/2-y,1/2-z
1/2-x,1/2+y,1/2-z
1/2-x,1/2-y,1/2-z
1/2+x,1/2+y,1/2-z
1/2-x,1/2+y,1/2+z
1/2+x,1/2-y,1/2+z
loop_
_atom_site_type_symbol
_atom_site_label
_atom_site_fract_x
_atom_site_fract_y
_atom_site_fract_z
Si Si1 0.195094 0.165304 0.398414
Si Si2 0.398156 0.058903 0.235971
Si Si3 0.099620 0.663205 0.843916
Si Si4 0.395173 0.655837 0.600861
Si Si5 0.734181 0.559295 0.604175
Si Si6 0.644004 0.738981 0.247862
Si Si7 0.105258 0.941458 0.393088
O O1 0.170177 0.169623 0.500000
O O2 0.304021 0.173851 0.390997
O O3 0.135899 0.205679 0.340892
O O4 0.168590 0.106677 0.365652
O O5 0.500000 0.061435 0.198719
O O6 0.392666 0.104298 0.307863
O O7 0.323564 0.066835 0.161607
O O8 0.385776 0.000000 0.272960
O O9 0.099041 0.704821 0.763286
O O10 0.000000 0.669004 0.888151
O O11 0.372711 0.671851 0.500000
O O12 0.500000 0.640798 0.602384
O O13 0.335422 0.605548 0.625092
O O14 0.381037 0.702524 0.669525
O O15 0.753814 0.562472 0.500000
O O16 0.699207 0.500000 0.621157
O O17 0.750000 0.750000 0.250000
O O18 0.107525 0.942760 0.500000
O O19 0.000000 0.932338 0.368196
O O20 0.132064 0.000000 0.362229
#
# Coordination Sequence:
#
# PCOD9523023 Si02
#       7
#    16  16  16  16  16  16  16
#     4  10  21  36  56  83 113 146 182 224 277 332
#     4   9  18  34  55  77 104 141 185 232 281 331
#     4  10  21  37  56  77 105 143 184 228 276 323
#     4  10  21  37  58  83 112 149 188 224 268 324
#     4   9  17  30  51  80 112 144 180 226 278 330
#     4  10  21  37  55  77 108 143 180 225 270 318
#     4   8  15  30  52  77 106 141 180 221 266 317
#
# _framework density 19.559248
#
# number of rings (size 3 to 8) (size 9 to 14) (size 15 to 20)
#    0.000    2.571    0.000    2.571    0.000    4.857 
#    0.000    4.286    0.000    0.857    0.000    4.000 
#    0.000    0.000    0.000    0.000    0.000    0.000 
#
# Total GULP energy -312043.088878 kJ/mol
# GULP energy per Si atom -5572.198016 kJ/mol
# Density = 1.951473 g / cm^3
# Si number density = 19.559248 Si / 1000 Ang^3
#
#
#
# Elastic Constant Matrix: (Units=GPa)
#
#
# Indices 1 2 3 4 5 6 
#
# 1 58.2627 14.2219 15.8079 0.0000 0.0000 0.0000
# 2 14.2219 80.9867 36.0248 0.0000 0.0000 0.0001
# 3 15.8079 36.0248 56.7794 0.0000 0.0000 0.0002
# 4 0.0000 0.0000 0.0000 19.8025 0.0000 0.0001
# 5 0.0000 0.0000 0.0000 0.0000 19.2384 0.0000
# 6 0.0000 0.0001 0.0002 0.0001 0.0000 136.7451
#
#
#
# Elastic Compliance Matrix: (Units=1/GPa)
#
#
# Indices 1 2 3 4 5 6 
#
# 1 0.018671 -0.001347 -0.004344 0.000000 0.000000 0.000000
# 2 -0.001347 0.017300 -0.010601 0.000000 0.000000 0.000000
# 3 -0.004344 -0.010601 0.025548 0.000000 0.000000 0.000000
# 4 0.000000 0.000000 0.000000 0.050499 0.000000 0.000000
# 5 0.000000 0.000000 0.000000 0.000000 0.051979 0.000000
# 6 0.000000 0.000000 0.000000 0.000000 0.000000 0.007313
#
#
# Mechanical properties :
#
#
# Convention : Reuss Voigt Hill
#
# Bulk Modulus (GPa) = 34.56023 36.45977 35.51000
# Shear Modulus (GPa) = 23.41505 43.82214 33.61859
#
# Velocity S-wave (km/s) = 3.46372 4.73851 4.15035
# Velocity P-wave (km/s) = 5.80554 6.97274 6.41574
#
# Compressibility (1/GPa) = 0.02893499
#
# Stress axis : x y z
#
# Youngs Moduli (GPa) = 53.55933 57.80372 39.14256
#
# Poissons Ratio (x) = 0.07783 0.17003
# Poissons Ratio (y) = 0.07212 0.41497
# Poissons Ratio (z) = 0.23265 0.61280
#
# Static dielectric constant tensor:
#      x y z
#    x 1.691820 0.000000 0.000000 
#    y 0.000000 1.700710 0.000000 
#    z 0.000000 0.000000 1.685440 
# 
# From -- ./inp_files/35125.got.cif
#   From: 2010.05.17/outbox.cif.g08.bks.cpg/sg71_18_cif.got.tgz:35125.got - 2010.06.03 16:22:01.
