data_PCOD9523361
_publ_section_title
;
Structure prediction by ZEFSAII (Michael W. Deem and Ramdas Pophale) SiO2 
 PCOD9523361
Probable space group: I M M M
;
_chemical_formula_sum "Si O2"
_cell_formula_units_Z 88
_cell_length_a 7.851575
_cell_length_b 17.151065
_cell_length_c 29.041588
_cell_angle_alpha 90.000000
_cell_angle_beta 90.000000
_cell_angle_gamma 90.000000
_cell_volume 3910.823682
_symmetry_space_group_name_H-M "I M M M"
_symmetry_group_IT_number 71
_symmetry_cell_setting 'orthorhombic'
loop_
_space_group_symop_operation_xyz
x,y,z
-x,-y,z
x,-y,-z
-x,y,-z
-x,-y,-z
x,y,-z
-x,y,z
x,-y,z
1/2+x,1/2+y,1/2+z
1/2-x,1/2-y,1/2+z
1/2+x,1/2-y,1/2-z
1/2-x,1/2+y,1/2-z
1/2-x,1/2-y,1/2-z
1/2+x,1/2+y,1/2-z
1/2-x,1/2+y,1/2+z
1/2+x,1/2-y,1/2+z
loop_
_atom_site_type_symbol
_atom_site_label
_atom_site_fract_x
_atom_site_fract_y
_atom_site_fract_z
Si Si1 0.297817 0.913000 0.602382
Si Si2 0.300630 0.756381 0.634183
Si Si3 0.190139 0.093951 0.500000
Si Si4 0.701353 0.155455 0.052384
Si Si5 0.295276 0.500000 0.606714
Si Si6 0.792034 0.000000 0.785001
Si Si7 0.705198 0.671631 0.722197
O O1 0.500000 0.917495 0.610719
O O2 0.224524 0.843244 0.633293
O O3 0.275696 0.889179 0.548771
O O4 0.225401 0.000000 0.609107
O O5 0.500000 0.764475 0.645454
O O6 0.285208 0.720965 0.583711
O O7 0.231847 0.694654 0.670889
O O8 0.000000 0.127812 0.500000
O O9 0.179375 0.000000 0.500000
O O10 0.500000 0.170373 0.051391
O O11 0.733340 0.074890 0.078812
O O12 0.764602 0.152708 0.000000
O O13 0.500000 0.500000 0.606652
O O14 0.245445 0.500000 0.660532
O O15 0.732685 0.084172 0.765070
O O16 0.000000 0.000000 0.782430
O O17 0.500000 0.665519 0.722645
O O18 0.750000 0.750000 0.750000
#
# Coordination Sequence:
#
# PCOD9523361 Si02
#       7
#    16  16   8  16   8   8  16
#     4   9  18  33  52  75 105 144 191 242 288 332
#     4  10  21  38  60  84 113 154 202 246 292 358
#     4   9  17  29  47  71 101 142 189 234 283 345
#     4  11  24  38  54  85 127 163 197 247 302 349
#     4  11  20  38  65  88 116 162 208 243 281 347
#     4   9  18  38  66  89 120 160 197 243 300 357
#     4  10  21  41  65  92 120 151 194 245 300 360
#
# _framework density 22.501653000000001
#
# number of rings (size 3 to 8) (size 9 to 14) (size 15 to 20)
#    0.000    2.091    1.818    1.364    1.273    5.091 
#    1.636    0.455    0.000    0.000    0.000    0.000 
#    0.000    0.000    0.000    0.000    0.000    0.000 
#
# Total GULP energy -245428.008104 kJ/mol
# GULP energy per Si atom -5577.909275 kJ/mol
# Density = 2.245044 g / cm^3
# Si number density = 22.501653 Si / 1000 Ang^3
#
#
#
# Elastic Constant Matrix: (Units=GPa)
#
#
# Indices 1 2 3 4 5 6 
#
# 1 27.8421 2.5838 -3.6838 0.0000 0.0000 0.0000
# 2 2.5838 208.7297 38.4856 0.0000 0.0000 0.0000
# 3 -3.6838 38.4856 35.3832 0.0000 0.0000 0.0000
# 4 0.0000 0.0000 0.0000 23.5192 0.0000 0.0000
# 5 0.0000 0.0000 0.0000 0.0000 -1.6691 0.0000
# 6 0.0000 0.0000 0.0000 0.0000 0.0000 12.9511
#
#
#
# Elastic Compliance Matrix: (Units=1/GPa)
#
#
# Indices 1 2 3 4 5 6 
#
# 1 0.036767 -0.001452 0.005407 0.000000 0.000000 0.000000
# 2 -0.001452 0.006050 -0.006732 0.000000 0.000000 0.000000
# 3 0.005407 -0.006732 0.036147 0.000000 0.000000 0.000000
# 4 0.000000 0.000000 0.000000 0.042518 0.000000 0.000000
# 5 0.000000 0.000000 0.000000 0.000000 -0.599123 0.000000
# 6 0.000000 0.000000 0.000000 0.000000 0.000000 0.077214
#
#
# Mechanical properties :
#
#
# Convention : Reuss Voigt Hill
#
# Bulk Modulus (GPa) = 13.62193 38.52512 26.07352
# Shear Modulus (GPa) = -13.49881 22.59820 4.54969
#
# Velocity S-wave (km/s) = -2.45195 3.17249 1.42349
# Velocity P-wave (km/s) = 1.39613 5.52972 3.78343
#
# Compressibility (1/GPa) = 0.07341105
#
# Stress axis : x y z
#
# Youngs Moduli (GPa) = 27.19831 165.28780 27.66485
#
# Poissons Ratio (x) = 0.24002 -0.14959
# Poissons Ratio (y) = 0.03950 0.18623
# Poissons Ratio (z) = -0.14707 1.11267
#
# Static dielectric constant tensor:
#      x y z
#    x 1.821520 0.000000 0.000000 
#    y 0.000000 1.894230 0.000000 
#    z 0.000000 0.000000 1.843860 
# 
# From -- ./inp_files/68077.got.cif
#   From: 2010.05.17/outbox.cif.g08.bks.cpg/sg71_35_cif.got.tgz:68077.got - 2010.06.03 16:22:01.
