data_PCOD9523090
_publ_section_title
;
Structure prediction by ZEFSAII (Michael W. Deem and Ramdas Pophale) SiO2 
 PCOD9523090
Probable space group: I M M M
;
_chemical_formula_sum "Si O2"
_cell_formula_units_Z 116
_cell_length_a 17.830270
_cell_length_b 23.786894
_cell_length_c 14.498633
_cell_angle_alpha 90.000000
_cell_angle_beta 90.000000
_cell_angle_gamma 90.000000
_cell_volume 6149.257985
_symmetry_space_group_name_H-M "I M M M"
_symmetry_group_IT_number 71
_symmetry_cell_setting 'orthorhombic'
loop_
_space_group_symop_operation_xyz
x,y,z
-x,-y,z
x,-y,-z
-x,y,-z
-x,-y,-z
x,y,-z
-x,y,z
x,-y,z
1/2+x,1/2+y,1/2+z
1/2-x,1/2-y,1/2+z
1/2+x,1/2-y,1/2-z
1/2-x,1/2+y,1/2-z
1/2-x,1/2-y,1/2-z
1/2+x,1/2+y,1/2-z
1/2-x,1/2+y,1/2+z
1/2+x,1/2-y,1/2+z
loop_
_atom_site_type_symbol
_atom_site_label
_atom_site_fract_x
_atom_site_fract_y
_atom_site_fract_z
Si Si1 0.000000 0.000000 0.815833
Si Si2 0.820926 0.860831 0.394062
Si Si3 0.371258 0.404478 0.706287
Si Si4 0.914413 0.367822 0.709197
Si Si5 0.646343 0.167944 0.606096
Si Si6 0.585770 0.248297 0.893052
Si Si7 0.413384 0.289568 0.392145
Si Si8 0.284402 0.067014 0.105845
O O1 0.934158 0.049474 0.815032
O O2 0.836562 0.878392 0.500000
O O3 0.853706 0.900924 0.315424
O O4 0.732016 0.851977 0.383608
O O5 0.859107 0.800066 0.379924
O O6 0.396199 0.342852 0.670925
O O7 0.293971 0.417738 0.653781
O O8 0.902165 0.364373 0.818529
O O9 0.900188 0.304941 0.670689
O O10 0.853362 0.406861 0.661498
O O11 0.000000 0.382942 0.686137
O O12 0.622791 0.159039 0.500000
O O13 0.637758 0.234922 0.623577
O O14 0.500000 0.267647 0.877463
O O15 0.591530 0.230053 0.000000
O O16 0.405335 0.306203 0.500000
O O17 0.500000 0.271816 0.377878
O O18 0.291251 0.000000 0.105057
O O19 0.284728 0.087604 0.000000
#
# Coordination Sequence:
#
# PCOD9523090 Si02
#       8
#     4  16  16  16  16  16  16  16
#     4  12  28  44  70  96 122 168 230 280 308 370
#     4  10  22  38  61  89 124 164 206 257 318 380
#     4  12  23  44  63  88 124 166 217 265 317 368
#     4  11  22  38  63  92 122 165 205 249 305 369
#     4  10  21  37  59  94 130 163 203 251 310 381
#     4   9  19  34  53  86 126 162 200 246 305 377
#     4  10  21  36  58  91 129 168 205 251 312 380
#     4  11  25  44  65  90 121 159 203 257 312 368
#
# _framework density 18.864065
#
# number of rings (size 3 to 8) (size 9 to 14) (size 15 to 20)
#    0.000    1.517    2.759    2.069    2.897    4.138 
#    0.000    2.759    0.000    1.241    0.000    0.966 
#    0.000    0.000    0.000    0.000    0.000    0.000 
#
# Total GULP energy -323484.193699 kJ/mol
# GULP energy per Si atom -5577.313684 kJ/mol
# Density = 1.882113 g / cm^3
# Si number density = 18.864065 Si / 1000 Ang^3
#
#
#
# Elastic Constant Matrix: (Units=GPa)
#
#
# Indices 1 2 3 4 5 6 
#
# 1 84.2967 20.6501 38.7970 0.0000 0.0000 0.0000
# 2 20.6501 13.4675 18.4182 0.0000 0.0000 0.0000
# 3 38.7970 18.4182 85.5458 0.0000 0.0000 0.0000
# 4 0.0000 0.0000 0.0000 6.4458 0.0000 0.0000
# 5 0.0000 0.0000 0.0000 0.0000 9.1385 0.0000
# 6 0.0000 0.0000 0.0000 0.0000 0.0000 48.9969
#
#
#
# Elastic Compliance Matrix: (Units=1/GPa)
#
#
# Indices 1 2 3 4 5 6 
#
# 1 0.019690 -0.025482 -0.003444 0.000000 0.000000 0.000000
# 2 -0.025482 0.138218 -0.018202 0.000000 0.000000 0.000000
# 3 -0.003444 -0.018202 0.017170 0.000000 0.000000 0.000000
# 4 0.000000 0.000000 0.000000 0.155140 0.000000 0.000000
# 5 0.000000 0.000000 0.000000 0.000000 0.109427 0.000000
# 6 0.000000 0.000000 0.000000 0.000000 0.000000 0.020409
#
#
# Mechanical properties :
#
#
# Convention : Reuss Voigt Hill
#
# Bulk Modulus (GPa) = 12.37264 37.67118 25.02191
# Shear Modulus (GPa) = 8.60213 19.94588 14.27401
#
# Velocity S-wave (km/s) = 2.13775 3.25522 2.75376
# Velocity P-wave (km/s) = 3.55898 5.84309 4.83777
#
# Compressibility (1/GPa) = 0.08082346
#
# Stress axis : x y z
#
# Youngs Moduli (GPa) = 50.78707 7.23495 58.24011
#
# Poissons Ratio (x) = 0.18436 0.20056
# Poissons Ratio (y) = 1.29415 1.06008
# Poissons Ratio (z) = 0.17489 0.13169
#
# Static dielectric constant tensor:
#      x y z
#    x 1.645950 0.000000 0.000000 
#    y 0.000000 1.613320 0.000000 
#    z 0.000000 0.000000 1.694450 
# 
# From -- ./inp_files/37004.got.cif
#   From: 2010.05.17/outbox.cif.g08.bks.cpg/sg71_19_cif.got.tgz:37004.got - 2010.06.03 16:22:01.
