data_PCOD9523241
_publ_section_title
;
Structure prediction by ZEFSAII (Michael W. Deem and Ramdas Pophale) SiO2 
 PCOD9523241
Probable space group: I M M M
;
_chemical_formula_sum "Si O2"
_cell_formula_units_Z 72
_cell_length_a 12.933844
_cell_length_b 16.255478
_cell_length_c 18.460617
_cell_angle_alpha 90.000000
_cell_angle_beta 90.000000
_cell_angle_gamma 90.000000
_cell_volume 3881.267496
_symmetry_space_group_name_H-M "I M M M"
_symmetry_group_IT_number 71
_symmetry_cell_setting 'orthorhombic'
loop_
_space_group_symop_operation_xyz
x,y,z
-x,-y,z
x,-y,-z
-x,y,-z
-x,-y,-z
x,y,-z
-x,y,z
x,-y,z
1/2+x,1/2+y,1/2+z
1/2-x,1/2-y,1/2+z
1/2+x,1/2-y,1/2-z
1/2-x,1/2+y,1/2-z
1/2-x,1/2-y,1/2-z
1/2+x,1/2+y,1/2-z
1/2-x,1/2+y,1/2+z
1/2+x,1/2-y,1/2+z
loop_
_atom_site_type_symbol
_atom_site_label
_atom_site_fract_x
_atom_site_fract_y
_atom_site_fract_z
Si Si1 0.624791 0.000000 0.587165
Si Si2 0.883667 0.734139 0.586566
Si Si3 0.230351 0.905237 0.913887
Si Si4 0.382381 0.677643 0.292938
Si Si5 0.775028 0.345889 0.171457
O O1 0.670368 0.920378 0.629606
O O2 0.500000 0.000000 0.591967
O O3 0.650736 0.000000 0.500000
O O4 0.886609 0.740874 0.500000
O O5 0.833400 0.646155 0.604843
O O6 0.804750 0.800613 0.617389
O O7 0.000000 0.742703 0.614574
O O8 0.137935 0.862577 0.870879
O O9 0.240079 0.000000 0.894402
O O10 0.215083 0.898676 0.000000
O O11 0.500000 0.666884 0.269891
O O12 0.299365 0.634772 0.239588
O O13 0.352827 0.774315 0.300443
#
# Coordination Sequence:
#
# PCOD9523241 Si02
#       5
#     8  16  16  16  16
#     4  11  24  42  65  91 120 155 195 243 297 351
#     4   9  17  32  55  80 110 149 188 230 283 340
#     4   9  19  34  52  79 114 148 191 241 284 336
#     4  10  21  37  59  82 113 156 194 236 293 348
#     4  10  21  38  59  84 118 146 194 242 288 345
#
# _framework density 18.550640999999999
#
# number of rings (size 3 to 8) (size 9 to 14) (size 15 to 20)
#    0.000    2.333    0.000    2.000    1.556    2.222 
#    0.000    6.111    0.000    4.000    0.000    0.000 
#    0.000    0.000    0.000    0.000    0.000    0.000 
#
# Total GULP energy -200712.412692 kJ/mol
# GULP energy per Si atom -5575.344797 kJ/mol
# Density = 1.850842 g / cm^3
# Si number density = 18.550641 Si / 1000 Ang^3
#
#
#
# Elastic Constant Matrix: (Units=GPa)
#
#
# Indices 1 2 3 4 5 6 
#
# 1 108.7426 40.7562 42.7974 0.0000 0.0000 0.0000
# 2 40.7562 91.9409 41.9229 0.0000 0.0000 0.0000
# 3 42.7974 41.9229 53.8221 0.0000 0.0000 0.0000
# 4 0.0000 0.0000 0.0000 30.3205 0.0000 0.0000
# 5 0.0000 0.0000 0.0000 0.0000 20.8905 0.0000
# 6 0.0000 0.0000 0.0000 0.0000 0.0000 13.2146
#
#
#
# Elastic Compliance Matrix: (Units=1/GPa)
#
#
# Indices 1 2 3 4 5 6 
#
# 1 0.013553 -0.001696 -0.009456 0.000000 0.000000 0.000000
# 2 -0.001696 0.017080 -0.011955 0.000000 0.000000 0.000000
# 3 -0.009456 -0.011955 0.035410 0.000000 0.000000 0.000000
# 4 0.000000 0.000000 0.000000 0.032981 0.000000 0.000000
# 5 0.000000 0.000000 0.000000 0.000000 0.047869 0.000000
# 6 0.000000 0.000000 0.000000 0.000000 0.000000 0.075674
#
#
# Mechanical properties :
#
#
# Convention : Reuss Voigt Hill
#
# Bulk Modulus (GPa) = 50.42974 56.16207 53.29591
# Shear Modulus (GPa) = 18.15606 21.48706 19.82156
#
# Velocity S-wave (km/s) = 3.13186 3.40706 3.27235
# Velocity P-wave (km/s) = 6.34996 6.76891 6.56278
#
# Compressibility (1/GPa) = 0.01982957
#
# Stress axis : x y z
#
# Youngs Moduli (GPa) = 73.78280 58.54951 28.24040
#
# Poissons Ratio (x) = 0.09932 0.26703
# Poissons Ratio (y) = 0.12517 0.33760
# Poissons Ratio (z) = 0.69767 0.69994
#
# Static dielectric constant tensor:
#      x y z
#    x 1.625910 0.000000 0.000000 
#    y 0.000000 1.622020 0.000000 
#    z 0.000000 0.000000 1.697510 
# 
# From -- ./inp_files/43090.got.cif
#   From: 2010.05.17/outbox.cif.g08.bks.cpg/sg71_22_cif.got.tgz:43090.got - 2010.06.03 16:22:01.
