data_PCOD9523151
_publ_section_title
;
Structure prediction by ZEFSAII (Michael W. Deem and Ramdas Pophale) SiO2 
 PCOD9523151
Probable space group: I M M M
;
_chemical_formula_sum "Si O2"
_cell_formula_units_Z 72
_cell_length_a 22.386697
_cell_length_b 14.126632
_cell_length_c 11.204472
_cell_angle_alpha 90.000000
_cell_angle_beta 90.000000
_cell_angle_gamma 90.000000
_cell_volume 3543.398922
_symmetry_space_group_name_H-M "I M M M"
_symmetry_group_IT_number 71
_symmetry_cell_setting 'orthorhombic'
loop_
_space_group_symop_operation_xyz
x,y,z
-x,-y,z
x,-y,-z
-x,y,-z
-x,-y,-z
x,y,-z
-x,y,z
x,-y,z
1/2+x,1/2+y,1/2+z
1/2-x,1/2-y,1/2+z
1/2+x,1/2-y,1/2-z
1/2-x,1/2+y,1/2-z
1/2-x,1/2-y,1/2-z
1/2+x,1/2+y,1/2-z
1/2-x,1/2+y,1/2+z
1/2+x,1/2-y,1/2+z
loop_
_atom_site_type_symbol
_atom_site_label
_atom_site_fract_x
_atom_site_fract_y
_atom_site_fract_z
Si Si1 0.500000 0.113638 0.367976
Si Si2 0.383532 0.109107 0.786883
Si Si3 0.637291 0.693197 0.132550
Si Si4 0.262288 0.106677 0.637446
Si Si5 0.570312 0.614239 0.365974
O O1 0.500000 0.155369 0.500000
O O2 0.560376 0.133929 0.297298
O O3 0.500000 0.000000 0.379019
O O4 0.378790 0.196436 0.875109
O O5 0.321383 0.113997 0.715141
O O6 0.390929 0.000000 0.829664
O O7 0.707685 0.677309 0.157139
O O8 0.603692 0.652312 0.248682
O O9 0.625075 0.649973 0.000000
O O10 0.281183 0.115403 0.500000
O O11 0.237511 0.000000 0.655143
O O12 0.591539 0.644908 0.500000
O O13 0.500000 0.638620 0.357169
O O14 0.574889 0.500000 0.364263
#
# Coordination Sequence:
#
# PCOD9523151 Si02
#       5
#     8  16  16  16  16
#     4   9  18  34  57  83 108 143 198 255 301 348
#     4  10  21  37  56  82 119 162 206 252 300 351
#     4  11  23  37  58  89 123 160 203 244 297 365
#     4   9  18  35  59  86 117 153 197 254 312 363
#     4   9  20  40  63  88 119 154 195 247 306 362
#
# _framework density 20.319474
#
# number of rings (size 3 to 8) (size 9 to 14) (size 15 to 20)
#    0.000    2.333    0.000    2.667    1.556    6.667 
#    0.000    2.222    0.000    3.333    0.000    0.000 
#    0.000    0.000    0.000    0.000    0.000    0.000 
#
# Total GULP energy -200670.481422 kJ/mol
# GULP energy per Si atom -5574.180039 kJ/mol
# Density = 2.027323 g / cm^3
# Si number density = 20.319474 Si / 1000 Ang^3
#
#
#
# Elastic Constant Matrix: (Units=GPa)
#
#
# Indices 1 2 3 4 5 6 
#
# 1 77.0693 29.0302 66.2980 0.0000 0.0000 0.0000
# 2 29.0302 68.0566 43.7098 0.0000 0.0000 0.0000
# 3 66.2980 43.7098 145.8756 0.0000 0.0000 0.0000
# 4 0.0000 0.0000 0.0000 22.4781 0.0000 0.0000
# 5 0.0000 0.0000 0.0000 0.0000 37.9728 0.0000
# 6 0.0000 0.0000 0.0000 0.0000 0.0000 20.6295
#
#
#
# Elastic Compliance Matrix: (Units=1/GPa)
#
#
# Indices 1 2 3 4 5 6 
#
# 1 0.022022 -0.003672 -0.008908 0.000000 0.000000 0.000000
# 2 -0.003672 0.018808 -0.003966 0.000000 0.000000 0.000000
# 3 -0.008908 -0.003966 0.012092 0.000000 0.000000 0.000000
# 4 0.000000 0.000000 0.000000 0.044488 0.000000 0.000000
# 5 0.000000 0.000000 0.000000 0.000000 0.026335 0.000000
# 6 0.000000 0.000000 0.000000 0.000000 0.000000 0.048474
#
#
# Mechanical properties :
#
#
# Convention : Reuss Voigt Hill
#
# Bulk Modulus (GPa) = 50.43423 63.23082 56.83252
# Shear Modulus (GPa) = 23.59366 26.34698 24.97032
#
# Velocity S-wave (km/s) = 3.41124 3.60479 3.50935
# Velocity P-wave (km/s) = 6.35531 6.96505 6.66715
#
# Compressibility (1/GPa) = 0.01982781
#
# Stress axis : x y z
#
# Youngs Moduli (GPa) = 45.40969 53.17002 82.69749
#
# Poissons Ratio (x) = 0.19525 0.73668
# Poissons Ratio (y) = 0.16676 0.32802
# Poissons Ratio (z) = 0.40452 0.21090
#
# Static dielectric constant tensor:
#      x y z
#    x 1.685400 0.000000 0.000000 
#    y 0.000000 1.789820 0.000000 
#    z 0.000000 0.000000 1.745030 
# 
# From -- ./inp_files/27012.got.cif
#   From: 2010.05.17/outbox.cif.g08.bks.cpg/sg71_14_cif.got.tgz:27012.got - 2010.06.03 16:22:01.
