data_PCOD9523788
_publ_section_title
;
Structure prediction by ZEFSAII (Michael W. Deem and Ramdas Pophale) SiO2 
 PCOD9523788
Probable space group: I M M M
;
_chemical_formula_sum "Si O2"
_cell_formula_units_Z 72
_cell_length_a 19.090985
_cell_length_b 8.105690
_cell_length_c 23.880774
_cell_angle_alpha 90.000000
_cell_angle_beta 90.000000
_cell_angle_gamma 90.000000
_cell_volume 3695.444849
_symmetry_space_group_name_H-M "I M M M"
_symmetry_group_IT_number 71
_symmetry_cell_setting 'orthorhombic'
loop_
_space_group_symop_operation_xyz
x,y,z
-x,-y,z
x,-y,-z
-x,y,-z
-x,-y,-z
x,y,-z
-x,y,z
x,-y,z
1/2+x,1/2+y,1/2+z
1/2-x,1/2-y,1/2+z
1/2+x,1/2-y,1/2-z
1/2-x,1/2+y,1/2-z
1/2-x,1/2-y,1/2-z
1/2+x,1/2+y,1/2-z
1/2-x,1/2+y,1/2+z
1/2+x,1/2-y,1/2+z
loop_
_atom_site_type_symbol
_atom_site_label
_atom_site_fract_x
_atom_site_fract_y
_atom_site_fract_z
Si Si1 0.583008 0.500000 0.064526
Si Si2 0.919188 0.304040 0.158932
Si Si3 0.313713 0.302215 0.435330
Si Si4 0.171541 0.193608 0.263942
Si Si5 0.659873 0.188311 0.114874
O O1 0.500000 0.500000 0.070085
O O2 0.612617 0.332047 0.090148
O O3 0.603576 0.500000 0.000000
O O4 0.918781 0.500000 0.168646
O O5 0.875984 0.269098 0.102306
O O6 0.878218 0.222377 0.210779
O O7 0.000000 0.248260 0.155262
O O8 0.312187 0.243879 0.500000
O O9 0.322214 0.500000 0.436337
O O10 0.239646 0.271565 0.404268
O O11 0.250000 0.250000 0.250000
O O12 0.151288 0.297287 0.318475
O O13 0.171450 0.000000 0.278483
O O14 0.644943 0.000000 0.096439
#
# Coordination Sequence:
#
# PCOD9523788 Si02
#       5
#     8  16  16  16  16
#     4  11  26  46  68 100 135 173 222 272 335 404
#     4  11  25  42  61  92 131 171 216 268 331 392
#     4  10  22  40  64  94 126 168 221 268 321 389
#     4  12  23  40  66  96 129 167 217 270 329 396
#     4  11  23  43  69  99 133 173 222 276 331 393
#
# _framework density 19.483447000000002
#
# number of rings (size 3 to 8) (size 9 to 14) (size 15 to 20)
#    0.000    1.000    3.333    3.333    1.556    5.333 
#    0.000    3.333    0.000    0.000    0.000    0.000 
#    0.000    0.000    0.000    0.000    0.000    0.000 
#
# Total GULP energy -201206.122230 kJ/mol
# GULP energy per Si atom -5589.058951 kJ/mol
# Density = 1.943910 g / cm^3
# Si number density = 19.483447 Si / 1000 Ang^3
#
#
#
# Elastic Constant Matrix: (Units=GPa)
#
#
# Indices 1 2 3 4 5 6 
#
# 1 229.4717 94.1565 46.5989 0.0000 0.0000 0.0000
# 2 94.1565 112.7421 26.3648 0.0000 0.0000 0.0000
# 3 46.5989 26.3648 121.8499 0.0000 0.0000 0.0000
# 4 0.0000 0.0000 0.0000 29.8455 0.0000 0.0000
# 5 0.0000 0.0000 0.0000 0.0000 29.5512 0.0000
# 6 0.0000 0.0000 0.0000 0.0000 0.0000 28.0809
#
#
#
# Elastic Compliance Matrix: (Units=1/GPa)
#
#
# Indices 1 2 3 4 5 6 
#
# 1 0.006867 -0.005394 -0.001459 0.000000 0.000000 0.000000
# 2 -0.005394 0.013579 -0.000875 0.000000 0.000000 0.000000
# 3 -0.001459 -0.000875 0.008954 0.000000 0.000000 0.000000
# 4 0.000000 0.000000 0.000000 0.033506 0.000000 0.000000
# 5 0.000000 0.000000 0.000000 0.000000 0.033840 0.000000
# 6 0.000000 0.000000 0.000000 0.000000 0.000000 0.035611
#
#
# Mechanical properties :
#
#
# Convention : Reuss Voigt Hill
#
# Bulk Modulus (GPa) = 71.71619 88.70044 80.20831
# Shear Modulus (GPa) = 32.79478 37.29173 35.04326
#
# Velocity S-wave (km/s) = 4.10715 4.37970 4.24561
# Velocity P-wave (km/s) = 7.70586 8.43804 8.08025
#
# Compressibility (1/GPa) = 0.01394385
#
# Stress axis : x y z
#
# Youngs Moduli (GPa) = 145.61419 73.64097 111.67886
#
# Poissons Ratio (x) = 0.39723 0.16296
# Poissons Ratio (y) = 0.78546 0.09775
# Poissons Ratio (z) = 0.21248 0.06446
#
# Static dielectric constant tensor:
#      x y z
#    x 1.652500 0.000000 0.000000 
#    y 0.000000 1.671090 0.000000 
#    z 0.000000 0.000000 1.711590 
# 
# From -- ./inp_files/42075.got.cif
#   From: 2010.05.17/outbox.cif.g08.bks.cpg/sg71_22_cif.got.tgz:42075.got - 2010.06.03 16:22:01.
