data_PCOD9523343
_publ_section_title
;
Structure prediction by ZEFSAII (Michael W. Deem and Ramdas Pophale) SiO2 
 PCOD9523343
Probable space group: I M M M
;
_chemical_formula_sum "Si O2"
_cell_formula_units_Z 104
_cell_length_a 25.502441
_cell_length_b 8.674539
_cell_length_c 24.661480
_cell_angle_alpha 90.000000
_cell_angle_beta 90.000000
_cell_angle_gamma 90.000000
_cell_volume 5455.659932
_symmetry_space_group_name_H-M "I M M M"
_symmetry_group_IT_number 71
_symmetry_cell_setting 'orthorhombic'
loop_
_space_group_symop_operation_xyz
x,y,z
-x,-y,z
x,-y,-z
-x,y,-z
-x,-y,-z
x,y,-z
-x,y,z
x,-y,z
1/2+x,1/2+y,1/2+z
1/2-x,1/2-y,1/2+z
1/2+x,1/2-y,1/2-z
1/2-x,1/2+y,1/2-z
1/2-x,1/2-y,1/2-z
1/2+x,1/2+y,1/2-z
1/2-x,1/2+y,1/2+z
1/2+x,1/2-y,1/2+z
loop_
_atom_site_type_symbol
_atom_site_label
_atom_site_fract_x
_atom_site_fract_y
_atom_site_fract_z
Si Si1 0.305595 0.181576 0.732550
Si Si2 0.063357 0.176528 0.500000
Si Si3 0.654133 0.322575 0.160724
Si Si4 0.941236 0.685676 0.936183
Si Si5 0.835962 0.184168 0.116293
Si Si6 0.225166 0.313455 0.562949
Si Si7 0.937607 0.676100 0.387186
O O1 0.250000 0.250000 0.750000
O O2 0.338796 0.223374 0.785333
O O3 0.325025 0.256961 0.676989
O O4 0.302219 0.000000 0.724496
O O5 0.077163 0.276433 0.448092
O O6 0.000000 0.163690 0.500000
O O7 0.083934 0.000000 0.500000
O O8 0.668485 0.500000 0.170054
O O9 0.688058 0.259204 0.109577
O O10 0.593325 0.300661 0.147019
O O11 0.939566 0.500000 0.931888
O O12 0.891131 0.752733 0.905556
O O13 0.000000 0.735053 0.917776
O O14 0.937000 0.725130 0.000000
O O15 0.785321 0.227830 0.079363
O O16 0.838026 0.000000 0.116494
O O17 0.214257 0.268130 0.500000
O O18 0.220253 0.500000 0.566101
O O19 0.921156 0.500000 0.375809
O O20 0.000000 0.684881 0.381317
#
# Coordination Sequence:
#
# PCOD9523343 Si02
#       7
#    16   8  16  16  16  16  16
#     4  12  24  42  65  89 118 157 204 251 301 362
#     4   9  17  31  53  81 111 145 189 237 282 337
#     4  12  25  40  61  88 119 157 200 248 302 357
#     4   9  19  37  61  91 130 174 215 256 307 369
#     4  11  22  38  63  93 124 161 205 255 308 362
#     4  10  22  39  59  86 123 162 198 244 302 362
#     4  10  21  38  59  82 112 152 194 238 293 353
#
# _framework density 19.062771999999999
#
# number of rings (size 3 to 8) (size 9 to 14) (size 15 to 20)
#    0.000    1.462    1.538    4.846    1.077    4.000 
#    0.000    1.538    0.000    4.615    0.000    0.000 
#    0.000    0.000    0.000    0.000    0.000    0.000 
#
# Total GULP energy -290287.200203 kJ/mol
# GULP energy per Si atom -5582.446158 kJ/mol
# Density = 1.901938 g / cm^3
# Si number density = 19.062772 Si / 1000 Ang^3
#
#
#
# Elastic Constant Matrix: (Units=GPa)
#
#
# Indices 1 2 3 4 5 6 
#
# 1 87.5838 30.9448 35.2574 0.0000 0.0000 0.0000
# 2 30.9448 56.1160 14.3025 0.0000 0.0000 0.0000
# 3 35.2574 14.3025 87.7911 0.0000 0.0000 0.0000
# 4 0.0000 0.0000 0.0000 27.7430 0.0000 0.0000
# 5 0.0000 0.0000 0.0000 0.0000 20.9638 0.0000
# 6 0.0000 0.0000 0.0000 0.0000 0.0000 32.4225
#
#
#
# Elastic Compliance Matrix: (Units=1/GPa)
#
#
# Indices 1 2 3 4 5 6 
#
# 1 0.016229 -0.007604 -0.005279 0.000000 0.000000 0.000000
# 2 -0.007604 0.022155 -0.000556 0.000000 0.000000 0.000000
# 3 -0.005279 -0.000556 0.013601 0.000000 0.000000 0.000000
# 4 0.000000 0.000000 0.000000 0.036045 0.000000 0.000000
# 5 0.000000 0.000000 0.000000 0.000000 0.047701 0.000000
# 6 0.000000 0.000000 0.000000 0.000000 0.000000 0.030843
#
#
# Mechanical properties :
#
#
# Convention : Reuss Voigt Hill
#
# Bulk Modulus (GPa) = 39.82727 43.61114 41.71920
# Shear Modulus (GPa) = 24.77435 26.29161 25.53298
#
# Velocity S-wave (km/s) = 3.60893 3.71780 3.66377
# Velocity P-wave (km/s) = 6.18902 6.43092 6.31113
#
# Compressibility (1/GPa) = 0.02510842
#
# Stress axis : x y z
#
# Youngs Moduli (GPa) = 61.61659 45.13639 73.52256
#
# Poissons Ratio (x) = 0.34322 0.38813
# Poissons Ratio (y) = 0.46854 0.04085
# Poissons Ratio (z) = 0.32527 0.02508
#
# Static dielectric constant tensor:
#      x y z
#    x 1.715690 0.000000 0.000000 
#    y 0.000000 1.657310 0.000000 
#    z 0.000000 0.000000 1.929230 
# 
# From -- ./inp_files/61944.got.cif
#   From: 2010.05.17/outbox.cif.g08.bks.cpg/sg71_31_cif.got.tgz:61944.got - 2010.06.03 16:22:01.
