data_PCOD9523591
_publ_section_title
;
Structure prediction by ZEFSAII (Michael W. Deem and Ramdas Pophale) SiO2 
 PCOD9523591
Probable space group: I M M M
;
_chemical_formula_sum "Si O2"
_cell_formula_units_Z 116
_cell_length_a 23.144121
_cell_length_b 29.132785
_cell_length_c 9.411744
_cell_angle_alpha 90.000000
_cell_angle_beta 90.000000
_cell_angle_gamma 90.000000
_cell_volume 6345.893814
_symmetry_space_group_name_H-M "I M M M"
_symmetry_group_IT_number 71
_symmetry_cell_setting 'orthorhombic'
loop_
_space_group_symop_operation_xyz
x,y,z
-x,-y,z
x,-y,-z
-x,y,-z
-x,-y,-z
x,y,-z
-x,y,z
x,-y,z
1/2+x,1/2+y,1/2+z
1/2-x,1/2-y,1/2+z
1/2+x,1/2-y,1/2-z
1/2-x,1/2+y,1/2-z
1/2-x,1/2-y,1/2-z
1/2+x,1/2+y,1/2-z
1/2-x,1/2+y,1/2+z
1/2+x,1/2-y,1/2+z
loop_
_atom_site_type_symbol
_atom_site_label
_atom_site_fract_x
_atom_site_fract_y
_atom_site_fract_z
Si Si1 0.333397 0.635910 0.665231
Si Si2 0.436609 0.113009 0.829433
Si Si3 0.064221 0.795227 0.790845
Si Si4 0.326161 0.054429 0.833395
Si Si5 0.890615 0.306328 0.840757
Si Si6 0.244578 0.298459 0.169234
Si Si7 0.000000 0.205511 0.500000
Si Si8 0.707590 0.554351 0.831849
O O1 0.316376 0.631047 0.500000
O O2 0.393377 0.663500 0.671464
O O3 0.286914 0.666220 0.752513
O O4 0.335098 0.587101 0.744567
O O5 0.500000 0.096333 0.783599
O O6 0.382656 0.081863 0.784674
O O7 0.426056 0.163819 0.770451
O O8 0.436015 0.113777 0.000000
O O9 0.094179 0.747254 0.830272
O O10 0.000000 0.798491 0.854629
O O11 0.049908 0.794706 0.624322
O O12 0.270660 0.063732 0.736313
O O13 0.337674 0.000000 0.827560
O O14 0.314107 0.065819 0.000000
O O15 0.822355 0.312995 0.817598
O O16 0.905108 0.322125 0.000000
O O17 0.250000 0.250000 0.250000
O O18 0.257371 0.294404 0.000000
O O19 0.695923 0.500000 0.813677
O O20 0.707170 0.564617 0.000000
#
# Coordination Sequence:
#
# PCOD9523591 Si02
#       8
#    16  16  16  16  16  16   4  16
#     4  12  24  39  61  90 122 157 195 239 292 349
#     4  10  22  35  52  78 108 148 196 241 287 342
#     4  10  23  39  60  83 114 150 197 236 280 337
#     4   9  18  36  59  82 110 144 186 240 298 353
#     4  11  23  38  54  78 114 152 193 238 288 337
#     4  11  23  37  57  85 119 156 196 243 295 348
#     4   8  24  40  58  92 105 154 203 236 286 332
#     4  10  22  39  62  90 118 150 189 237 294 354
#
# _framework density 18.279536
#
# number of rings (size 3 to 8) (size 9 to 14) (size 15 to 20)
#    0.414    1.241    1.379    2.897    2.897    6.897 
#    0.000    1.379    0.000    0.414    0.000    5.310 
#    0.000    0.000    0.000    0.000    0.000    0.000 
#
# Total GULP energy -323161.988809 kJ/mol
# GULP energy per Si atom -5571.758428 kJ/mol
# Density = 1.823793 g / cm^3
# Si number density = 18.279536 Si / 1000 Ang^3
#
#
#
# Elastic Constant Matrix: (Units=GPa)
#
#
# Indices 1 2 3 4 5 6 
#
# 1 85.5800 31.7617 22.5110 0.0000 0.0000 0.0000
# 2 31.7617 59.6819 19.2493 0.0000 0.0000 0.0000
# 3 22.5110 19.2493 103.2280 0.0000 0.0000 0.0000
# 4 0.0000 0.0000 0.0000 27.7634 0.0000 0.0000
# 5 0.0000 0.0000 0.0000 0.0000 25.8415 0.0000
# 6 0.0000 0.0000 0.0000 0.0000 0.0000 13.8177
#
#
#
# Elastic Compliance Matrix: (Units=1/GPa)
#
#
# Indices 1 2 3 4 5 6 
#
# 1 0.014897 -0.007321 -0.001884 0.000000 0.000000 0.000000
# 2 -0.007321 0.021425 -0.002399 0.000000 0.000000 0.000000
# 3 -0.001884 -0.002399 0.010545 0.000000 0.000000 0.000000
# 4 0.000000 0.000000 0.000000 0.036019 0.000000 0.000000
# 5 0.000000 0.000000 0.000000 0.000000 0.038698 0.000000
# 6 0.000000 0.000000 0.000000 0.000000 0.000000 0.072371
#
#
# Mechanical properties :
#
#
# Convention : Reuss Voigt Hill
#
# Bulk Modulus (GPa) = 42.26215 43.94821 43.10518
# Shear Modulus (GPa) = 22.21748 25.14905 23.68327
#
# Velocity S-wave (km/s) = 3.49008 3.71321 3.60337
# Velocity P-wave (km/s) = 6.27782 6.51754 6.39880
#
# Compressibility (1/GPa) = 0.02366183
#
# Stress axis : x y z
#
# Youngs Moduli (GPa) = 67.12607 46.67424 94.82845
#
# Poissons Ratio (x) = 0.34168 0.17862
# Poissons Ratio (y) = 0.49140 0.22748
# Poissons Ratio (z) = 0.12644 0.11196
#
# Static dielectric constant tensor:
#      x y z
#    x 1.631370 0.000000 0.000000 
#    y 0.000000 1.630540 0.000000 
#    z 0.000000 0.000000 1.629760 
# 
# From -- ./inp_files/13435.got.cif
#   From: 2010.05.17/outbox.cif.g08.bks.cpg/sg71_7_cif.got.tgz:13435.got - 2010.06.03 16:22:01.
