data_PCOD9523527
_publ_section_title
;
Structure prediction by ZEFSAII (Michael W. Deem and Ramdas Pophale) SiO2 
 PCOD9523527
Probable space group: I M M M
;
_chemical_formula_sum "Si O2"
_cell_formula_units_Z 58
_cell_length_a 10.762776
_cell_length_b 17.946450
_cell_length_c 14.282162
_cell_angle_alpha 90.000000
_cell_angle_beta 90.000000
_cell_angle_gamma 90.000000
_cell_volume 2758.651311
_symmetry_space_group_name_H-M "I M M M"
_symmetry_group_IT_number 71
_symmetry_cell_setting 'orthorhombic'
loop_
_space_group_symop_operation_xyz
x,y,z
-x,-y,z
x,-y,-z
-x,y,-z
-x,-y,-z
x,y,-z
-x,y,z
x,-y,z
1/2+x,1/2+y,1/2+z
1/2-x,1/2-y,1/2+z
1/2+x,1/2-y,1/2-z
1/2-x,1/2+y,1/2-z
1/2-x,1/2-y,1/2-z
1/2+x,1/2+y,1/2-z
1/2-x,1/2+y,1/2+z
1/2+x,1/2-y,1/2+z
loop_
_atom_site_type_symbol
_atom_site_label
_atom_site_fract_x
_atom_site_fract_y
_atom_site_fract_z
Si Si1 0.224414 0.159051 0.310867
Si Si2 0.500000 0.000000 0.500000
Si Si3 0.648925 0.500000 0.106697
Si Si4 0.500000 0.123664 0.337018
Si Si5 0.000000 0.415824 0.373719
Si Si6 0.726219 0.193409 0.103568
O O1 0.371347 0.168558 0.334633
O O2 0.202069 0.171630 0.200089
O O3 0.166058 0.226031 0.370914
O O4 0.189933 0.075949 0.342636
O O5 0.500000 0.934885 0.419393
O O6 0.500000 0.500000 0.101799
O O7 0.702020 0.500000 0.000000
O O8 0.500000 0.082373 0.238232
O O9 0.879750 0.369057 0.401231
O O10 0.000000 0.500000 0.405974
O O11 0.786427 0.197316 0.000000
#
# Coordination Sequence:
#
# PCOD9523527 Si02
#       6
#    16   2   8   8   8  16
#     4  10  23  42  62  94 128 159 209 262 307 373
#     4  12  20  28  60  96 116 164 182 256 308 370
#     4  11  25  42  66  91 121 165 210 255 310 371
#     4  10  22  35  62  94 126 157 199 257 313 368
#     4  10  21  40  60  91 126 160 213 263 303 359
#     4  10  22  39  63  90 124 165 204 256 317 366
#
# _framework density 21.024766
#
# number of rings (size 3 to 8) (size 9 to 14) (size 15 to 20)
#    0.000    1.793    0.690    2.069   13.517    1.103 
#    2.483    0.000    0.000    0.828    0.000    0.000 
#    0.000    0.000    0.000    0.000    0.000    0.000 
#
# Total GULP energy -161484.845083 kJ/mol
# GULP energy per Si atom -5568.442934 kJ/mol
# Density = 2.097691 g / cm^3
# Si number density = 21.024766 Si / 1000 Ang^3
#
#
#
# Elastic Constant Matrix: (Units=GPa)
#
#
# Indices 1 2 3 4 5 6 
#
# 1 45.6176 24.6174 3.3804 0.0000 0.0000 0.0000
# 2 24.6174 198.5423 67.4054 0.0000 0.0000 0.0000
# 3 3.3804 67.4054 227.5806 -0.0001 0.0000 0.0000
# 4 0.0000 0.0000 -0.0001 -0.9966 0.0000 0.0000
# 5 0.0000 0.0000 0.0000 0.0000 8.1850 0.0000
# 6 0.0000 0.0000 0.0000 0.0000 0.0000 8.3342
#
#
#
# Elastic Compliance Matrix: (Units=1/GPa)
#
#
# Indices 1 2 3 4 5 6 
#
# 1 0.023560 -0.003116 0.000573 0.000000 0.000000 0.000000
# 2 -0.003116 0.006012 -0.001734 0.000000 0.000000 0.000000
# 3 0.000573 -0.001734 0.004899 0.000000 0.000000 0.000000
# 4 0.000000 0.000000 0.000000 -1.003419 0.000004 -0.000001
# 5 0.000000 0.000000 0.000000 0.000004 0.122175 0.000000
# 6 0.000000 0.000000 0.000000 -0.000001 0.000000 0.119988
#
#
# Mechanical properties :
#
#
# Convention : Reuss Voigt Hill
#
# Bulk Modulus (GPa) = 38.58475 73.61631 56.10053
# Shear Modulus (GPa) = -7.04630 28.19367 10.57369
#
# Velocity S-wave (km/s) = -1.83268 3.66590 2.24501
# Velocity P-wave (km/s) = 3.73010 7.28070 5.78456
#
# Compressibility (1/GPa) = 0.02591698
#
# Stress axis : x y z
#
# Youngs Moduli (GPa) = 42.44425 166.33856 204.11436
#
# Poissons Ratio (x) = 0.51827 -0.11693
# Poissons Ratio (y) = 0.13225 0.35400
# Poissons Ratio (z) = -0.02432 0.28848
#
# Static dielectric constant tensor:
#      x y z
#    x 1.814620 0.000000 0.000000 
#    y 0.000000 1.752560 0.000000 
#    z 0.000000 0.000000 1.777320 
# 
# From -- ./inp_files/32256.got.cif
#   From: 2010.05.17/outbox.cif.g08.bks.cpg/sg71_17_cif.got.tgz:32256.got - 2010.06.03 16:22:01.
