data_PCOD9523218
_publ_section_title
;
Structure prediction by ZEFSAII (Michael W. Deem and Ramdas Pophale) SiO2 
 PCOD9523218
Probable space group: I M M M
;
_chemical_formula_sum "Si O2"
_cell_formula_units_Z 88
_cell_length_a 25.295675
_cell_length_b 19.906631
_cell_length_c 9.379120
_cell_angle_alpha 90.000000
_cell_angle_beta 90.000000
_cell_angle_gamma 90.000000
_cell_volume 4722.871522
_symmetry_space_group_name_H-M "I M M M"
_symmetry_group_IT_number 71
_symmetry_cell_setting 'orthorhombic'
loop_
_space_group_symop_operation_xyz
x,y,z
-x,-y,z
x,-y,-z
-x,y,-z
-x,-y,-z
x,y,-z
-x,y,z
x,-y,z
1/2+x,1/2+y,1/2+z
1/2-x,1/2-y,1/2+z
1/2+x,1/2-y,1/2-z
1/2-x,1/2+y,1/2-z
1/2-x,1/2-y,1/2-z
1/2+x,1/2+y,1/2-z
1/2-x,1/2+y,1/2+z
1/2+x,1/2-y,1/2+z
loop_
_atom_site_type_symbol
_atom_site_label
_atom_site_fract_x
_atom_site_fract_y
_atom_site_fract_z
Si Si1 0.296852 0.921656 0.665672
Si Si2 0.000000 0.629630 0.837306
Si Si3 0.284718 0.694847 0.168077
Si Si4 0.399343 0.918844 0.837594
Si Si5 0.599021 0.352359 0.172902
Si Si6 0.438201 0.500000 0.827617
Si Si7 0.000000 0.790191 0.835569
O O1 0.313968 0.916558 0.500000
O O2 0.246067 0.875587 0.683891
O O3 0.344408 0.897771 0.765704
O O4 0.285729 0.000000 0.694590
O O5 0.948399 0.604895 0.754920
O O6 0.000000 0.709897 0.838236
O O7 0.000000 0.604727 0.000000
O O8 0.250000 0.750000 0.250000
O O9 0.345074 0.681263 0.213786
O O10 0.285366 0.712186 0.000000
O O11 0.399576 0.000000 0.838631
O O12 0.403527 0.894761 0.000000
O O13 0.592017 0.431351 0.211702
O O14 0.551215 0.315458 0.251049
O O15 0.594163 0.347664 0.000000
O O16 0.500000 0.500000 0.777864
O O17 0.440792 0.500000 0.000000
O O18 0.000000 0.814274 0.000000
#
# Coordination Sequence:
#
# PCOD9523218 Si02
#       7
#    16   8  16  16  16   8   8
#     4   9  19  37  59  84 116 154 194 236 285 342
#     4  11  24  38  56  81 112 152 193 236 287 342
#     4  10  23  39  60  88 119 156 198 245 292 346
#     4  10  21  37  58  85 114 145 187 239 290 342
#     4  10  21  39  63  90 117 153 197 240 292 351
#     4   9  16  32  62  94 120 148 190 247 294 345
#     4  11  25  41  57  83 119 156 191 236 289 347
#
# _framework density 18.632733000000002
#
# number of rings (size 3 to 8) (size 9 to 14) (size 15 to 20)
#    0.000    2.091    0.909    1.364    3.818    5.091 
#    0.000    0.909    0.000    0.000    0.000    0.000 
#    0.000    0.000    0.000    0.000    0.000    0.000 
#
# Total GULP energy -245588.127552 kJ/mol
# GULP energy per Si atom -5581.548353 kJ/mol
# Density = 1.859032 g / cm^3
# Si number density = 18.632733 Si / 1000 Ang^3
#
#
#
# Elastic Constant Matrix: (Units=GPa)
#
#
# Indices 1 2 3 4 5 6 
#
# 1 168.0077 47.9772 74.8664 0.0000 0.0000 0.0000
# 2 47.9772 43.4999 31.1795 0.0000 0.0000 0.0000
# 3 74.8664 31.1795 84.0975 0.0000 0.0000 0.0000
# 4 0.0000 0.0000 0.0000 28.4048 0.0000 0.0000
# 5 0.0000 0.0000 0.0000 0.0000 126.0873 0.0000
# 6 0.0000 0.0000 0.0000 0.0000 0.0000 27.2950
#
#
#
# Elastic Compliance Matrix: (Units=1/GPa)
#
#
# Indices 1 2 3 4 5 6 
#
# 1 0.011292 -0.007149 -0.007402 0.000000 0.000000 0.000000
# 2 -0.007149 0.035834 -0.006922 0.000000 0.000000 0.000000
# 3 -0.007402 -0.006922 0.021047 0.000000 0.000000 0.000000
# 4 0.000000 0.000000 0.000000 0.035205 0.000000 0.000000
# 5 0.000000 0.000000 0.000000 0.000000 0.007931 0.000000
# 6 0.000000 0.000000 0.000000 0.000000 0.000000 0.036637
#
#
# Mechanical properties :
#
#
# Convention : Reuss Voigt Hill
#
# Bulk Modulus (GPa) = 39.63833 67.07236 53.35534
# Shear Modulus (GPa) = 25.08772 45.79621 35.44197
#
# Velocity S-wave (km/s) = 3.67336 4.96304 4.36608
# Velocity P-wave (km/s) = 6.26986 8.30166 7.35624
#
# Compressibility (1/GPa) = 0.02522811
#
# Stress axis : x y z
#
# Youngs Moduli (GPa) = 88.55835 27.90622 47.51297
#
# Poissons Ratio (x) = 0.19949 0.35170
# Poissons Ratio (y) = 0.63307 0.32888
# Poissons Ratio (z) = 0.65552 0.19316
#
# Static dielectric constant tensor:
#      x y z
#    x 1.613140 0.000000 0.000000 
#    y 0.000000 1.646890 0.000000 
#    z 0.000000 0.000000 1.637660 
# 
# From -- ./inp_files/12617.got.cif
#   From: 2010.05.17/outbox.cif.g08.bks.cpg/sg71_7_cif.got.tgz:12617.got - 2010.06.03 16:22:01.
