data_PCOD9523803
_publ_section_title
;
Structure prediction by ZEFSAII (Michael W. Deem and Ramdas Pophale) SiO2 
 PCOD9523803
Probable space group: I M M M
;
_chemical_formula_sum "Si O2"
_cell_formula_units_Z 72
_cell_length_a 28.014301
_cell_length_b 14.885389
_cell_length_c 9.880678
_cell_angle_alpha 90.000000
_cell_angle_beta 90.000000
_cell_angle_gamma 90.000000
_cell_volume 4120.279956
_symmetry_space_group_name_H-M "I M M M"
_symmetry_group_IT_number 71
_symmetry_cell_setting 'orthorhombic'
loop_
_space_group_symop_operation_xyz
x,y,z
-x,-y,z
x,-y,-z
-x,y,-z
-x,-y,-z
x,y,-z
-x,y,z
x,-y,z
1/2+x,1/2+y,1/2+z
1/2-x,1/2-y,1/2+z
1/2+x,1/2-y,1/2-z
1/2-x,1/2+y,1/2-z
1/2-x,1/2-y,1/2-z
1/2+x,1/2+y,1/2-z
1/2-x,1/2+y,1/2+z
1/2+x,1/2-y,1/2+z
loop_
_atom_site_type_symbol
_atom_site_label
_atom_site_fract_x
_atom_site_fract_y
_atom_site_fract_z
Si Si1 0.943491 0.107583 0.000000
Si Si2 0.552588 0.394378 0.000000
Si Si3 0.123276 0.364195 0.334746
Si Si4 0.793744 0.500000 0.661688
Si Si5 0.116503 0.838941 0.250751
Si Si6 0.184873 0.000000 0.165363
Si Si7 0.557870 0.000000 0.665237
O O1 0.918996 0.154266 0.874451
O O2 0.000000 0.116976 0.000000
O O3 0.932971 0.000000 0.000000
O O4 0.584021 0.370614 0.873099
O O5 0.546363 0.500000 0.000000
O O6 0.500000 0.351084 0.000000
O O7 0.114231 0.369339 0.500000
O O8 0.172770 0.415713 0.304891
O O9 0.130048 0.262419 0.286618
O O10 0.082526 0.415651 0.245939
O O11 0.788860 0.500000 0.500000
O O12 0.739857 0.500000 0.713133
O O13 0.158227 0.910717 0.219692
O O14 0.182408 0.000000 0.000000
O O15 0.500000 0.000000 0.680138
O O16 0.567694 0.000000 0.500000
#
# Coordination Sequence:
#
# PCOD9523803 Si02
#       7
#     8   8  16   8  16   8   8
#     4  11  22  38  56  82 120 164 204 237 288 349
#     4  11  22  36  54  82 122 164 196 235 288 349
#     4  10  22  41  63  87 120 157 196 242 297 354
#     4   8  19  41  64  83 110 155 196 246 302 352
#     4  12  21  37  60  87 120 155 198 246 292 350
#     4  11  21  38  63  88 116 152 203 246 298 355
#     4  10  23  41  63  89 119 156 199 250 295 341
#
# _framework density 17.474540999999999
#
# number of rings (size 3 to 8) (size 9 to 14) (size 15 to 20)
#    0.000    1.444    4.444    1.667    1.556    5.333 
#    0.000    0.000    9.778    0.000    0.000    0.000 
#    0.000    0.000    0.000    0.000    0.000    0.000 
#
# Total GULP energy -200571.315649 kJ/mol
# GULP energy per Si atom -5571.425435 kJ/mol
# Density = 1.743477 g / cm^3
# Si number density = 17.474541 Si / 1000 Ang^3
#
#
#
# Elastic Constant Matrix: (Units=GPa)
#
#
# Indices 1 2 3 4 5 6 
#
# 1 168.8966 81.1488 66.4629 0.0000 0.0000 0.0000
# 2 81.1488 163.7061 54.0217 0.0000 0.0000 0.0000
# 3 66.4629 54.0217 139.6747 0.0000 0.0000 0.0000
# 4 0.0000 0.0000 0.0000 41.0650 0.0000 0.0000
# 5 0.0000 0.0000 0.0000 0.0000 34.5344 0.0000
# 6 0.0000 0.0000 0.0000 0.0000 0.0000 6.5402
#
#
#
# Elastic Compliance Matrix: (Units=1/GPa)
#
#
# Indices 1 2 3 4 5 6 
#
# 1 0.008640 -0.003354 -0.002814 0.000000 0.000000 0.000000
# 2 -0.003354 0.008304 -0.001616 0.000000 0.000000 0.000000
# 3 -0.002814 -0.001616 0.009123 0.000000 0.000000 0.000000
# 4 0.000000 0.000000 0.000000 0.024352 0.000000 0.000000
# 5 0.000000 0.000000 0.000000 0.000000 0.028957 0.000000
# 6 0.000000 0.000000 0.000000 0.000000 0.000000 0.152902
#
#
# Mechanical properties :
#
#
# Convention : Reuss Voigt Hill
#
# Bulk Modulus (GPa) = 95.23977 97.28267 96.26122
# Shear Modulus (GPa) = 19.89301 34.47086 27.18193
#
# Velocity S-wave (km/s) = 3.37768 4.44625 3.94828
# Velocity P-wave (km/s) = 8.35655 9.06371 8.71730
#
# Compressibility (1/GPa) = 0.01049982
#
# Stress axis : x y z
#
# Youngs Moduli (GPa) = 115.74656 120.41907 109.60859
#
# Poissons Ratio (x) = 0.40390 0.30842
# Poissons Ratio (y) = 0.38822 0.17711
# Poissons Ratio (z) = 0.32569 0.19458
#
# Static dielectric constant tensor:
#      x y z
#    x 1.603110 0.000000 0.000000 
#    y 0.000000 1.781110 0.000000 
#    z 0.000000 0.000000 1.590490 
# 
# From -- ./inp_files/14412.got.cif
#   From: 2010.05.17/outbox.cif.g08.bks.cpg/sg71_8_cif.got.tgz:14412.got - 2010.06.03 16:22:01.
