data_PCOD9523202
_publ_section_title
;
Structure prediction by ZEFSAII (Michael W. Deem and Ramdas Pophale) SiO2 
 PCOD9523202
Probable space group: I M M M
;
_chemical_formula_sum "Si O2"
_cell_formula_units_Z 64
_cell_length_a 19.179962
_cell_length_b 8.219867
_cell_length_c 18.344158
_cell_angle_alpha 90.000000
_cell_angle_beta 90.000000
_cell_angle_gamma 90.000000
_cell_volume 2892.080088
_symmetry_space_group_name_H-M "I M M M"
_symmetry_group_IT_number 71
_symmetry_cell_setting 'orthorhombic'
loop_
_space_group_symop_operation_xyz
x,y,z
-x,-y,z
x,-y,-z
-x,y,-z
-x,-y,-z
x,y,-z
-x,y,z
x,-y,z
1/2+x,1/2+y,1/2+z
1/2-x,1/2-y,1/2+z
1/2+x,1/2-y,1/2-z
1/2-x,1/2+y,1/2-z
1/2-x,1/2-y,1/2-z
1/2+x,1/2+y,1/2-z
1/2-x,1/2+y,1/2+z
1/2+x,1/2-y,1/2+z
loop_
_atom_site_type_symbol
_atom_site_label
_atom_site_fract_x
_atom_site_fract_y
_atom_site_fract_z
Si Si1 0.816048 0.180661 0.818270
Si Si2 0.191983 0.194839 0.417445
Si Si3 0.921433 0.682139 0.913193
Si Si4 0.080203 0.801053 0.692539
O O1 0.749536 0.261236 0.856276
O O2 0.871491 0.182317 0.883473
O O3 0.864580 0.255686 0.754487
O O4 0.795388 0.000000 0.794610
O O5 0.205228 0.258008 0.500000
O O6 0.117035 0.242810 0.383878
O O7 0.192897 0.000000 0.422369
O O8 0.896346 0.500000 0.892322
O O9 0.000000 0.702499 0.885913
O O10 0.923135 0.685083 0.000000
O O11 0.000000 0.745679 0.700229
O O12 0.078704 0.000000 0.698041
#
# Coordination Sequence:
#
# PCOD9523202 Si02
#       4
#    16  16  16  16
#     4  11  21  33  53  80 111 144 175 215 270 326
#     4  10  21  37  58  82 108 142 183 226 271 319
#     4   9  18  32  49  71 103 143 184 225 267 313
#     4   9  19  36  57  82 110 139 178 229 277 320
#
# _framework density 22.1294
#
# number of rings (size 3 to 8) (size 9 to 14) (size 15 to 20)
#    0.000    2.250    0.000    3.750    0.000    6.000 
#    0.000    5.000    0.000    3.750    0.000    1.750 
#    0.000    0.000    0.000    0.000    0.000    0.000 
#
# Total GULP energy -178299.258257 kJ/mol
# GULP energy per Si atom -5571.851821 kJ/mol
# Density = 2.207903 g / cm^3
# Si number density = 22.129400 Si / 1000 Ang^3
#
#
#
# Elastic Constant Matrix: (Units=GPa)
#
#
# Indices 1 2 3 4 5 6 
#
# 1 139.9152 21.4768 91.6489 0.0000 0.0000 0.0000
# 2 21.4768 18.9323 18.7434 0.0000 0.0000 0.0000
# 3 91.6489 18.7434 86.5562 0.0000 0.0000 0.0000
# 4 0.0000 0.0000 0.0000 14.1059 0.0000 0.0000
# 5 0.0000 0.0000 0.0000 0.0000 32.7376 0.0000
# 6 0.0000 0.0000 0.0000 0.0000 0.0000 5.2307
#
#
#
# Elastic Compliance Matrix: (Units=1/GPa)
#
#
# Indices 1 2 3 4 5 6 
#
# 1 0.023422 -0.002568 -0.024244 0.000000 0.000000 0.000000
# 2 -0.002568 0.067515 -0.011901 0.000000 0.000000 0.000000
# 3 -0.024244 -0.011901 0.039801 0.000000 0.000000 0.000000
# 4 0.000000 0.000000 0.000000 0.070892 0.000000 0.000000
# 5 0.000000 0.000000 0.000000 0.000000 0.030546 0.000000
# 6 0.000000 0.000000 0.000000 0.000000 0.000000 0.191178
#
#
# Mechanical properties :
#
#
# Convention : Reuss Voigt Hill
#
# Bulk Modulus (GPa) = 18.75752 56.57133 37.66443
# Shear Modulus (GPa) = 9.64226 17.98382 13.81304
#
# Velocity S-wave (km/s) = 2.08966 2.85382 2.50110
# Velocity P-wave (km/s) = 3.78377 6.03974 5.03961
#
# Compressibility (1/GPa) = 0.05331194
#
# Stress axis : x y z
#
# Youngs Moduli (GPa) = 42.69516 14.81144 25.12516
#
# Poissons Ratio (x) = 0.03803 0.60913
# Poissons Ratio (y) = 0.10963 0.29902
# Poissons Ratio (z) = 1.03510 0.17628
#
# Static dielectric constant tensor:
#      x y z
#    x 1.809940 0.000000 0.000000 
#    y 0.000000 1.909590 0.000000 
#    z 0.000000 0.000000 1.866750 
# 
# From -- ./inp_files/7470.got.cif
#   From: 2010.05.17/outbox.cif.g08.bks.cpg/sg71_4_cif.got.tgz:7470.got - 2010.06.03 16:22:01.
