data_PCOD9523054
_publ_section_title
;
Structure prediction by ZEFSAII (Michael W. Deem and Ramdas Pophale) SiO2 
 PCOD9523054
Probable space group: I M M M
;
_chemical_formula_sum "Si O2"
_cell_formula_units_Z 88
_cell_length_a 20.261230
_cell_length_b 7.589481
_cell_length_c 25.504802
_cell_angle_alpha 90.000000
_cell_angle_beta 90.000000
_cell_angle_gamma 90.000000
_cell_volume 3921.930027
_symmetry_space_group_name_H-M "I M M M"
_symmetry_group_IT_number 71
_symmetry_cell_setting 'orthorhombic'
loop_
_space_group_symop_operation_xyz
x,y,z
-x,-y,z
x,-y,-z
-x,y,-z
-x,-y,-z
x,y,-z
-x,y,z
x,-y,z
1/2+x,1/2+y,1/2+z
1/2-x,1/2-y,1/2+z
1/2+x,1/2-y,1/2-z
1/2-x,1/2+y,1/2-z
1/2-x,1/2-y,1/2-z
1/2+x,1/2+y,1/2-z
1/2-x,1/2+y,1/2+z
1/2+x,1/2-y,1/2+z
loop_
_atom_site_type_symbol
_atom_site_label
_atom_site_fract_x
_atom_site_fract_y
_atom_site_fract_z
Si Si1 0.752986 0.711855 0.441433
Si Si2 0.398925 0.204193 0.442974
Si Si3 0.571501 0.215246 0.670412
Si Si4 0.129379 0.711791 0.369435
Si Si5 0.672449 0.211775 0.755750
Si Si6 0.500000 0.708261 0.939294
O O1 0.778442 0.748089 0.500000
O O2 0.745733 0.500000 0.436336
O O3 0.680351 0.790319 0.437222
O O4 0.805927 0.776915 0.400134
O O5 0.415104 0.283262 0.500000
O O6 0.425314 0.281691 0.389157
O O7 0.419857 0.000000 0.444806
O O8 0.500000 0.258187 0.693695
O O9 0.631384 0.278649 0.705939
O O10 0.575760 0.000000 0.667778
O O11 0.133648 0.500000 0.367280
O O12 0.137869 0.775598 0.309625
O O13 0.064390 0.747560 0.404055
O O14 0.750000 0.250000 0.750000
O O15 0.666513 0.000000 0.755987
O O16 0.500000 0.500000 0.944988
O O17 0.500000 0.781295 0.000000
#
# Coordination Sequence:
#
# PCOD9523054 Si02
#       6
#    16  16  16  16  16   8
#     4   9  17  30  49  73 101 133 170 215 265 315
#     4   9  17  29  48  75 103 134 174 218 266 317
#     4   9  18  32  51  75 105 139 175 218 267 319
#     4  10  21  36  57  81 107 146 192 232 277 342
#     4  10  21  36  58  84 110 145 188 235 285 338
#     4  11  25  41  57  83 117 151 188 237 300 358
#
# _framework density 22.437933999999998
#
# number of rings (size 3 to 8) (size 9 to 14) (size 15 to 20)
#    0.000    2.455    0.000    1.909    1.273    3.273 
#    0.000    3.636    0.000    1.636    0.000    2.545 
#    0.000    0.000    0.000    0.000    0.000    0.000 
#
# Total GULP energy -245584.234640 kJ/mol
# GULP energy per Si atom -5581.459878 kJ/mol
# Density = 2.238686 g / cm^3
# Si number density = 22.437934 Si / 1000 Ang^3
#
#
#
# Elastic Constant Matrix: (Units=GPa)
#
#
# Indices 1 2 3 4 5 6 
#
# 1 142.1797 -3.1216 93.8927 0.0000 0.0000 0.0000
# 2 -3.1216 50.5377 14.4989 0.0000 0.0000 0.0000
# 3 93.8927 14.4989 181.1040 0.0000 0.0000 0.0000
# 4 0.0000 0.0000 0.0000 6.2221 0.0000 0.0000
# 5 0.0000 0.0000 0.0000 0.0000 -11.2100 0.0000
# 6 0.0000 0.0000 0.0000 0.0000 0.0000 13.3165
#
#
#
# Elastic Compliance Matrix: (Units=1/GPa)
#
#
# Indices 1 2 3 4 5 6 
#
# 1 0.010964 0.002362 -0.005873 0.000000 0.000000 0.000000
# 2 0.002362 0.020761 -0.002887 0.000000 0.000000 0.000000
# 3 -0.005873 -0.002887 0.008798 0.000000 0.000000 0.000000
# 4 0.000000 0.000000 0.000000 0.160718 0.000000 0.000000
# 5 0.000000 0.000000 0.000000 0.000000 -0.089206 0.000000
# 6 0.000000 0.000000 0.000000 0.000000 0.000000 0.075095
#
#
# Mechanical properties :
#
#
# Convention : Reuss Voigt Hill
#
# Bulk Modulus (GPa) = 36.06564 64.92903 50.49734
# Shear Modulus (GPa) = 23.90430 19.56914 21.73672
#
# Velocity S-wave (km/s) = 3.26751 2.95641 3.11585
# Velocity P-wave (km/s) = 5.50853 6.37604 5.95809
#
# Compressibility (1/GPa) = 0.02772722
#
# Stress axis : x y z
#
# Youngs Moduli (GPa) = 91.20925 48.16646 113.66518
#
# Poissons Ratio (x) = -0.11378 0.66758
# Poissons Ratio (y) = -0.21546 0.32813
# Poissons Ratio (z) = 0.53570 0.13905
#
# Static dielectric constant tensor:
#      x y z
#    x 1.791090 0.000000 0.000000 
#    y 0.000000 1.839040 0.000000 
#    z 0.000000 0.000000 1.867120 
# 
# From -- ./inp_files/10491.got.cif
#   From: 2010.05.17/outbox.cif.g08.bks.cpg/sg71_6_cif.got.tgz:10491.got - 2010.06.03 16:22:01.
