data_PCOD9523636
_publ_section_title
;
Structure prediction by ZEFSAII (Michael W. Deem and Ramdas Pophale) SiO2 
 PCOD9523636
Probable space group: I M M M
;
_chemical_formula_sum "Si O2"
_cell_formula_units_Z 72
_cell_length_a 8.945119
_cell_length_b 14.745435
_cell_length_c 36.579410
_cell_angle_alpha 90.000000
_cell_angle_beta 90.000000
_cell_angle_gamma 90.000000
_cell_volume 4824.812136
_symmetry_space_group_name_H-M "I M M M"
_symmetry_group_IT_number 71
_symmetry_cell_setting 'orthorhombic'
loop_
_space_group_symop_operation_xyz
x,y,z
-x,-y,z
x,-y,-z
-x,y,-z
-x,-y,-z
x,y,-z
-x,y,z
x,-y,z
1/2+x,1/2+y,1/2+z
1/2-x,1/2-y,1/2+z
1/2+x,1/2-y,1/2-z
1/2-x,1/2+y,1/2-z
1/2-x,1/2-y,1/2-z
1/2+x,1/2+y,1/2-z
1/2-x,1/2+y,1/2+z
1/2+x,1/2-y,1/2+z
loop_
_atom_site_type_symbol
_atom_site_label
_atom_site_fract_x
_atom_site_fract_y
_atom_site_fract_z
Si Si1 0.327531 0.000000 0.262582
Si Si2 0.323862 0.796553 0.714022
Si Si3 0.179548 0.393933 0.575905
Si Si4 0.679506 0.178758 0.846882
Si Si5 0.675789 0.500000 0.312801
Si Si6 0.828273 0.110066 0.000000
O O1 0.309809 0.905299 0.283535
O O2 0.209056 0.000000 0.230102
O O3 0.500000 0.000000 0.247834
O O4 0.500000 0.773433 0.714178
O O5 0.250000 0.750000 0.750000
O O6 0.248244 0.758570 0.677382
O O7 0.224534 0.500000 0.582807
O O8 0.220635 0.331465 0.610385
O O9 0.248591 0.362887 0.537596
O O10 0.000000 0.394250 0.572883
O O11 0.500000 0.180171 0.844098
O O12 0.744025 0.087826 0.828865
O O13 0.500000 0.500000 0.320697
O O14 0.000000 0.138781 0.000000
O O15 0.823465 0.000000 0.000000
#
# Coordination Sequence:
#
# PCOD9523636 Si02
#       6
#     8  16  16  16   8   8
#     4  10  22  38  52  64  93 128 159 200 246 290
#     4  11  22  35  51  71  93 125 162 201 244 287
#     4   9  17  30  46  63  89 128 161 186 228 285
#     4  11  21  34  49  69  97 127 162 204 242 281
#     4  12  22  30  48  71  93 124 163 203 241 286
#     4   9  17  27  41  65  93 120 153 196 233 265
#
# _framework density 14.92286
#
# number of rings (size 3 to 8) (size 9 to 14) (size 15 to 20)
#    0.000    1.667    3.333    2.667    0.000    4.000 
#    0.000    0.000    0.000    0.000    0.000    0.000 
#    0.000    0.889    0.000   10.000    0.000    4.444 
#
# Total GULP energy -200777.401402 kJ/mol
# GULP energy per Si atom -5577.150039 kJ/mol
# Density = 1.488889 g / cm^3
# Si number density = 14.922860 Si / 1000 Ang^3
#
#
#
# Elastic Constant Matrix: (Units=GPa)
#
#
# Indices 1 2 3 4 5 6 
#
# 1 68.4925 33.3209 58.1924 0.0000 0.0000 0.0000
# 2 33.3209 65.5186 41.3814 0.0000 0.0000 0.0000
# 3 58.1924 41.3814 137.1865 0.0000 0.0000 0.0000
# 4 0.0000 0.0000 0.0000 593.5466 0.0000 0.0000
# 5 0.0000 0.0000 0.0000 0.0000 24.1152 0.0000
# 6 0.0000 0.0000 0.0000 0.0000 0.0000 15.9928
#
#
#
# Elastic Compliance Matrix: (Units=1/GPa)
#
#
# Indices 1 2 3 4 5 6 
#
# 1 0.025562 -0.007600 -0.008551 0.000000 0.000000 0.000000
# 2 -0.007600 0.021114 -0.003145 0.000000 0.000000 0.000000
# 3 -0.008551 -0.003145 0.011865 0.000000 0.000000 0.000000
# 4 0.000000 0.000000 0.000000 0.001685 0.000000 0.000000
# 5 0.000000 0.000000 0.000000 0.000000 0.041468 0.000000
# 6 0.000000 0.000000 0.000000 0.000000 0.000000 0.062528
#
#
# Mechanical properties :
#
#
# Convention : Reuss Voigt Hill
#
# Bulk Modulus (GPa) = 50.12435 59.66522 54.89478
# Shear Modulus (GPa) = 23.87048 135.95108 79.91078
#
# Velocity S-wave (km/s) = 4.00383 9.55512 7.32567
# Velocity P-wave (km/s) = 7.41863 12.72018 10.41247
#
# Compressibility (1/GPa) = 0.01995039
#
# Stress axis : x y z
#
# Youngs Moduli (GPa) = 39.12050 47.36106 84.28004
#
# Poissons Ratio (x) = 0.35992 0.72065
# Poissons Ratio (y) = 0.29730 0.26510
# Poissons Ratio (z) = 0.33451 0.14897
#
# Static dielectric constant tensor:
#      x y z
#    x 1.502680 0.000000 0.000000 
#    y 0.000000 1.509610 0.000000 
#    z 0.000000 0.000000 1.503180 
# 
# From -- ./inp_files/6524.got.cif
#   From: 2010.05.17/outbox.cif.g08.bks.cpg/sg71_4_cif.got.tgz:6524.got - 2010.06.03 16:22:01.
