data_PCOD9523331
_publ_section_title
;
Structure prediction by ZEFSAII (Michael W. Deem and Ramdas Pophale) SiO2 
 PCOD9523331
Probable space group: I M M M
;
_chemical_formula_sum "Si O2"
_cell_formula_units_Z 116
_cell_length_a 29.850600
_cell_length_b 7.691086
_cell_length_c 24.710735
_cell_angle_alpha 90.000000
_cell_angle_beta 90.000000
_cell_angle_gamma 90.000000
_cell_volume 5673.177813
_symmetry_space_group_name_H-M "I M M M"
_symmetry_group_IT_number 71
_symmetry_cell_setting 'orthorhombic'
loop_
_space_group_symop_operation_xyz
x,y,z
-x,-y,z
x,-y,-z
-x,y,-z
-x,-y,-z
x,y,-z
-x,y,z
x,-y,z
1/2+x,1/2+y,1/2+z
1/2-x,1/2-y,1/2+z
1/2+x,1/2-y,1/2-z
1/2-x,1/2+y,1/2-z
1/2-x,1/2-y,1/2-z
1/2+x,1/2+y,1/2-z
1/2-x,1/2+y,1/2+z
1/2+x,1/2-y,1/2+z
loop_
_atom_site_type_symbol
_atom_site_label
_atom_site_fract_x
_atom_site_fract_y
_atom_site_fract_z
Si Si1 0.687449 0.711807 0.417897
Si Si2 0.710816 0.801143 0.088802
Si Si3 0.856709 0.211126 0.195990
Si Si4 0.550355 0.202154 0.843154
Si Si5 0.792451 0.791995 0.287386
Si Si6 0.113058 0.799586 0.440966
Si Si7 0.343845 0.000000 0.500000
Si Si8 0.450571 0.701412 0.277909
O O1 0.682250 0.500000 0.426986
O O2 0.739718 0.758222 0.428476
O O3 0.674207 0.747132 0.355552
O O4 0.659043 0.843675 0.453663
O O5 0.710464 0.791371 0.153957
O O6 0.666532 0.708013 0.067830
O O7 0.706396 0.000000 0.071284
O O8 0.834333 0.270545 0.251794
O O9 0.907408 0.277989 0.192340
O O10 0.858441 0.000000 0.199321
O O11 0.500000 0.253925 0.861765
O O12 0.586713 0.223630 0.890010
O O13 0.559414 0.296673 0.786508
O O14 0.549089 0.000000 0.828718
O O15 0.750000 0.750000 0.250000
O O16 0.795185 0.000000 0.295283
O O17 0.102655 0.720778 0.500000
O O18 0.099537 0.000000 0.442202
O O19 0.500000 0.780235 0.285709
O O20 0.453507 0.500000 0.294672
#
# Coordination Sequence:
#
# PCOD9523331 Si02
#       8
#    16  16  16  16  16  16   4  16
#     4  10  23  41  60  85 118 156 200 251 296 347
#     4  11  23  38  55  80 114 152 194 240 298 350
#     4   9  18  35  55  82 120 154 188 238 294 350
#     4  10  21  38  58  82 114 150 189 236 295 357
#     4  11  20  32  53  79 114 153 192 234 285 352
#     4  11  25  40  57  79 105 144 198 255 300 343
#     4  12  26  40  64  86 113 158 211 246 296 346
#     4   9  17  32  59  90 119 153 190 230 286 353
#
# _framework density 20.447092999999999
#
# number of rings (size 3 to 8) (size 9 to 14) (size 15 to 20)
#    0.000    1.793    1.379    2.690    2.897    3.310 
#    2.483    1.379    0.000    0.000    0.000    0.966 
#    0.000    3.310    0.000    0.000    0.000    0.000 
#
# Total GULP energy -323189.302712 kJ/mol
# GULP energy per Si atom -5572.229357 kJ/mol
# Density = 2.040055 g / cm^3
# Si number density = 20.447093 Si / 1000 Ang^3
#
#
#
# Elastic Constant Matrix: (Units=GPa)
#
#
# Indices 1 2 3 4 5 6 
#
# 1 89.5042 -2.1142 -1.2623 0.0000 0.0000 0.0000
# 2 -2.1142 57.4074 -2.0162 0.0000 0.0000 0.0000
# 3 -1.2623 -2.0162 43.4982 0.0000 0.0000 0.0000
# 4 0.0000 0.0000 0.0000 23.6077 0.0000 0.0000
# 5 0.0000 0.0000 0.0000 0.0000 -43.1814 0.0000
# 6 0.0000 0.0000 0.0000 0.0000 0.0000 11.5820
#
#
#
# Elastic Compliance Matrix: (Units=1/GPa)
#
#
# Indices 1 2 3 4 5 6 
#
# 1 0.011188 0.000424 0.000344 0.000000 0.000000 0.000000
# 2 0.000424 0.017464 0.000822 0.000000 0.000000 0.000000
# 3 0.000344 0.000822 0.023038 0.000000 0.000000 0.000000
# 4 0.000000 0.000000 0.000000 0.042359 0.000000 0.000000
# 5 0.000000 0.000000 0.000000 0.000000 -0.023158 0.000000
# 6 0.000000 0.000000 0.000000 0.000000 0.000000 0.086341
#
#
# Mechanical properties :
#
#
# Convention : Reuss Voigt Hill
#
# Bulk Modulus (GPa) = 18.22513 19.95826 19.09169
# Shear Modulus (GPa) = 29.01234 11.45514 20.23374
#
# Velocity S-wave (km/s) = 3.77091 2.36949 3.14915
# Velocity P-wave (km/s) = 5.28132 4.15549 4.75187
#
# Compressibility (1/GPa) = 0.05486930
#
# Stress axis : x y z
#
# Youngs Moduli (GPa) = 89.38515 57.26120 43.40742
#
# Poissons Ratio (x) = -0.02429 -0.01495
# Poissons Ratio (y) = -0.03791 -0.03567
# Poissons Ratio (z) = -0.03078 -0.04706
#
# Static dielectric constant tensor:
#      x y z
#    x 1.773490 0.000000 0.000000 
#    y 0.000000 1.767670 0.000000 
#    z 0.000000 0.000000 1.726640 
# 
# From -- ./inp_files/62387.got.cif
#   From: 2010.05.17/outbox.cif.g08.bks.cpg/sg71_32_cif.got.tgz:62387.got - 2010.06.03 16:22:01.
