data_PCOD9523512
_publ_section_title
;
Structure prediction by ZEFSAII (Michael W. Deem and Ramdas Pophale) SiO2 
 PCOD9523512
Probable space group: I M M M
;
_chemical_formula_sum "Si O2"
_cell_formula_units_Z 72
_cell_length_a 30.210143
_cell_length_b 8.218248
_cell_length_c 15.143787
_cell_angle_alpha 90.000000
_cell_angle_beta 90.000000
_cell_angle_gamma 90.000000
_cell_volume 3759.815347
_symmetry_space_group_name_H-M "I M M M"
_symmetry_group_IT_number 71
_symmetry_cell_setting 'orthorhombic'
loop_
_space_group_symop_operation_xyz
x,y,z
-x,-y,z
x,-y,-z
-x,y,-z
-x,-y,-z
x,y,-z
-x,y,z
x,-y,z
1/2+x,1/2+y,1/2+z
1/2-x,1/2-y,1/2+z
1/2+x,1/2-y,1/2-z
1/2-x,1/2+y,1/2-z
1/2-x,1/2-y,1/2-z
1/2+x,1/2+y,1/2-z
1/2-x,1/2+y,1/2+z
1/2+x,1/2-y,1/2+z
loop_
_atom_site_type_symbol
_atom_site_label
_atom_site_fract_x
_atom_site_fract_y
_atom_site_fract_z
Si Si1 0.947514 0.682917 0.211583
Si Si2 0.627270 0.692961 0.182574
Si Si3 0.332931 0.809695 0.000000
Si Si4 0.707913 0.695149 0.308961
Si Si5 0.766448 0.691451 0.000000
Si Si6 0.553698 0.500000 0.400891
O O1 0.940112 0.500000 0.176054
O O2 0.917598 0.710984 0.297303
O O3 0.934044 0.832648 0.148025
O O4 0.000000 0.698560 0.228758
O O5 0.619441 0.500000 0.190414
O O6 0.663885 0.742733 0.255440
O O7 0.647244 0.730026 0.087460
O O8 0.280240 0.784630 0.000000
O O9 0.342969 0.000000 0.000000
O O10 0.709075 0.500000 0.314512
O O11 0.750000 0.750000 0.250000
O O12 0.709788 0.764632 0.407988
O O13 0.756879 0.500000 0.000000
O O14 0.500000 0.500000 0.404088
O O15 0.571239 0.500000 0.500000
#
# Coordination Sequence:
#
# PCOD9523512 Si02
#       6
#    16  16   8  16   8   8
#     4  10  21  39  64  92 125 166 211 259 316 377
#     4  11  23  41  64  91 123 162 207 256 317 377
#     4  12  24  38  63  91 122 159 209 260 308 376
#     4  11  23  39  62  88 119 158 201 250 305 364
#     4  12  24  40  60  87 124 165 208 254 308 370
#     4   9  18  36  62  89 121 161 205 256 312 367
#
# _framework density 19.149875999999999
#
# number of rings (size 3 to 8) (size 9 to 14) (size 15 to 20)
#    0.000    1.222    3.333    3.333    0.000    3.111 
#    2.000    2.778    0.000    3.333    0.000    0.000 
#    0.000    0.000    0.000    0.000    0.000    0.000 
#
# Total GULP energy -201102.576383 kJ/mol
# GULP energy per Si atom -5586.182677 kJ/mol
# Density = 1.910629 g / cm^3
# Si number density = 19.149876 Si / 1000 Ang^3
#
#
#
# Elastic Constant Matrix: (Units=GPa)
#
#
# Indices 1 2 3 4 5 6 
#
# 1 57.6522 35.6975 41.6318 0.0000 0.0000 0.0000
# 2 35.6975 93.8314 33.0484 0.0000 0.0000 0.0000
# 3 41.6318 33.0484 143.0050 0.0000 0.0000 0.0000
# 4 0.0000 0.0000 0.0000 23.1827 0.0000 0.0000
# 5 0.0000 0.0000 0.0000 0.0000 6.2719 0.0000
# 6 0.0000 0.0000 0.0000 0.0000 0.0000 27.0729
#
#
#
# Elastic Compliance Matrix: (Units=1/GPa)
#
#
# Indices 1 2 3 4 5 6 
#
# 1 0.026565 -0.008037 -0.005876 0.000000 0.000000 0.000000
# 2 -0.008037 0.014033 -0.000903 0.000000 0.000000 0.000000
# 3 -0.005876 -0.000903 0.008912 0.000000 0.000000 0.000000
# 4 0.000000 0.000000 0.000000 0.043136 0.000000 0.000000
# 5 0.000000 0.000000 0.000000 0.000000 0.159443 0.000000
# 6 0.000000 0.000000 0.000000 0.000000 0.000000 0.036937
#
#
# Mechanical properties :
#
#
# Convention : Reuss Voigt Hill
#
# Bulk Modulus (GPa) = 50.30827 57.24933 53.77880
# Shear Modulus (GPa) = 15.37114 23.57955 19.47534
#
# Velocity S-wave (km/s) = 2.83623 3.51282 3.19250
# Velocity P-wave (km/s) = 6.08715 6.81275 6.46014
#
# Compressibility (1/GPa) = 0.01987745
#
# Stress axis : x y z
#
# Youngs Moduli (GPa) = 37.64328 71.25985 112.20491
#
# Poissons Ratio (x) = 0.57270 0.65936
# Poissons Ratio (y) = 0.30253 0.10136
# Poissons Ratio (z) = 0.22121 0.06437
#
# Static dielectric constant tensor:
#      x y z
#    x 1.656500 0.000000 0.000000 
#    y 0.000000 1.668090 0.000000 
#    z 0.000000 0.000000 1.682040 
# 
# From -- ./inp_files/40732.got.cif
#   From: 2010.05.17/outbox.cif.g08.bks.cpg/sg71_21_cif.got.tgz:40732.got - 2010.06.03 16:22:01.
