data_PCOD9523754
_publ_section_title
;
Structure prediction by ZEFSAII (Michael W. Deem and Ramdas Pophale) SiO2 
 PCOD9523754
Probable space group: I M M M
;
_chemical_formula_sum "Si O2"
_cell_formula_units_Z 116
_cell_length_a 24.490012
_cell_length_b 7.527749
_cell_length_c 27.972845
_cell_angle_alpha 90.000000
_cell_angle_beta 90.000000
_cell_angle_gamma 90.000000
_cell_volume 5156.924423
_symmetry_space_group_name_H-M "I M M M"
_symmetry_group_IT_number 71
_symmetry_cell_setting 'orthorhombic'
loop_
_space_group_symop_operation_xyz
x,y,z
-x,-y,z
x,-y,-z
-x,y,-z
-x,-y,-z
x,y,-z
-x,y,z
x,-y,z
1/2+x,1/2+y,1/2+z
1/2-x,1/2-y,1/2+z
1/2+x,1/2-y,1/2-z
1/2-x,1/2+y,1/2-z
1/2-x,1/2-y,1/2-z
1/2+x,1/2+y,1/2-z
1/2-x,1/2+y,1/2+z
1/2+x,1/2-y,1/2+z
loop_
_atom_site_type_symbol
_atom_site_label
_atom_site_fract_x
_atom_site_fract_y
_atom_site_fract_z
Si Si1 0.782349 0.789505 0.448924
Si Si2 0.718865 0.795146 0.158237
Si Si3 0.657976 0.707848 0.658150
Si Si4 0.940596 0.789150 0.219813
Si Si5 0.605971 0.000000 0.000000
Si Si6 0.897018 0.713821 0.677910
Si Si7 0.650834 0.790765 0.448559
Si Si8 0.564317 0.296844 0.927632
O O1 0.800555 0.708858 0.500000
O O2 0.797357 0.710358 0.398053
O O3 0.716580 0.772534 0.449936
O O4 0.794872 0.000000 0.448275
O O5 0.780042 0.715993 0.162216
O O6 0.665650 0.717831 0.183835
O O7 0.722884 0.000000 0.173083
O O8 0.663801 0.500000 0.669674
O O9 0.611879 0.786888 0.692243
O O10 0.636808 0.717199 0.603368
O O11 0.931371 0.765572 0.276053
O O12 0.000000 0.716448 0.205959
O O13 0.941530 0.000000 0.209542
O O14 0.597380 0.155473 0.958117
O O15 0.895320 0.500000 0.674983
O O16 0.921997 0.781401 0.628454
O O17 0.630416 0.719002 0.500000
O O18 0.638371 0.000000 0.447660
O O19 0.500000 0.260485 0.935124
O O20 0.575370 0.500000 0.942297
#
# Coordination Sequence:
#
# PCOD9523754 Si02
#       8
#    16  16  16  16   4  16  16  16
#     4   8  14  26  44  68 101 141 183 222 261 315
#     4   9  19  34  51  76 111 147 184 229 289 355
#     4   9  18  34  56  82 113 148 188 237 291 353
#     4  10  22  40  61  84 109 141 188 247 306 362
#     4  12  23  42  68  94 126 164 214 274 327 372
#     4  11  23  39  57  81 116 155 198 250 306 366
#     4   8  14  26  47  76 110 146 180 217 265 324
#     4  11  23  40  64  91 121 163 213 265 322 379
#
# _framework density 22.494029000000001
#
# number of rings (size 3 to 8) (size 9 to 14) (size 15 to 20)
#    0.000    2.483    0.690    2.483    0.000    5.241 
#    1.241    2.759    0.000    0.414    0.000    2.897 
#    0.000    0.000    0.000    0.000    0.000    0.000 
#
# Total GULP energy -323256.068135 kJ/mol
# GULP energy per Si atom -5573.380485 kJ/mol
# Density = 2.244283 g / cm^3
# Si number density = 22.494029 Si / 1000 Ang^3
#
#
#
# Elastic Constant Matrix: (Units=GPa)
#
#
# Indices 1 2 3 4 5 6 
#
# 1 110.2722 9.5862 50.9807 0.0000 0.0000 0.0000
# 2 9.5862 64.7912 -13.1792 0.0000 0.0000 0.0000
# 3 50.9807 -13.1792 52.8051 0.0000 0.0000 0.0000
# 4 0.0000 0.0000 0.0000 24.9117 0.0000 0.0000
# 5 0.0000 0.0000 0.0000 0.0000 -0.9342 0.0000
# 6 0.0000 0.0000 0.0000 0.0000 0.0000 11.8670
#
#
#
# Elastic Compliance Matrix: (Units=1/GPa)
#
#
# Indices 1 2 3 4 5 6 
#
# 1 0.018882 -0.006850 -0.019939 0.000000 0.000000 0.000000
# 2 -0.006850 0.018744 0.011291 0.000000 0.000000 0.000000
# 3 -0.019939 0.011291 0.041006 0.000000 0.000000 0.000000
# 4 0.000000 0.000000 0.000000 0.040142 0.000000 0.000000
# 5 0.000000 0.000000 0.000000 0.000000 -1.070487 0.000000
# 6 0.000000 0.000000 0.000000 0.000000 0.000000 0.084268
#
#
# Mechanical properties :
#
#
# Convention : Reuss Voigt Hill
#
# Bulk Modulus (GPa) = 20.99203 35.84932 28.42067
# Shear Modulus (GPa) = -6.09332 19.20095 6.55381
#
# Velocity S-wave (km/s) = -1.64765 2.92482 1.70877
# Velocity P-wave (km/s) = 2.39434 5.23239 4.06883
#
# Compressibility (1/GPa) = 0.04763713
#
# Stress axis : x y z
#
# Youngs Moduli (GPa) = 52.95983 53.34938 24.38660
#
# Poissons Ratio (x) = 0.36542 0.48625
# Poissons Ratio (y) = 0.36275 -0.27535
# Poissons Ratio (z) = 1.05599 -0.60238
#
# Static dielectric constant tensor:
#      x y z
#    x 1.889270 0.000000 0.000000 
#    y 0.000000 1.843410 0.000000 
#    z 0.000000 0.000000 1.819810 
# 
# From -- ./inp_files/66946.got.cif
#   From: 2010.05.17/outbox.cif.g08.bks.cpg/sg71_34_cif.got.tgz:66946.got - 2010.06.03 16:22:01.
