data_PCOD9523905
_publ_section_title
;
Structure prediction by ZEFSAII (Michael W. Deem and Ramdas Pophale) SiO2 
 PCOD9523905
Probable space group: I M M M
;
_chemical_formula_sum "Si O2"
_cell_formula_units_Z 82
_cell_length_a 20.989360
_cell_length_b 8.104079
_cell_length_c 24.441184
_cell_angle_alpha 90.000000
_cell_angle_beta 90.000000
_cell_angle_gamma 90.000000
_cell_volume 4157.431506
_symmetry_space_group_name_H-M "I M M M"
_symmetry_group_IT_number 71
_symmetry_cell_setting 'orthorhombic'
loop_
_space_group_symop_operation_xyz
x,y,z
-x,-y,z
x,-y,-z
-x,y,-z
-x,-y,-z
x,y,-z
-x,y,z
x,-y,z
1/2+x,1/2+y,1/2+z
1/2-x,1/2-y,1/2+z
1/2+x,1/2-y,1/2-z
1/2-x,1/2+y,1/2-z
1/2-x,1/2-y,1/2-z
1/2+x,1/2+y,1/2-z
1/2-x,1/2+y,1/2+z
1/2+x,1/2-y,1/2+z
loop_
_atom_site_type_symbol
_atom_site_label
_atom_site_fract_x
_atom_site_fract_y
_atom_site_fract_z
Si Si1 0.367550 0.798168 0.882006
Si Si2 0.633409 0.306593 0.349055
Si Si3 0.000000 0.701929 0.436320
Si Si4 0.236192 0.798622 0.061775
Si Si5 0.678938 0.193258 0.764583
Si Si6 0.000000 0.500000 0.000000
Si Si7 0.500000 0.817422 0.612063
O O1 0.435393 0.743407 0.905858
O O2 0.307458 0.752231 0.919981
O O3 0.350864 0.737551 0.820693
O O4 0.369686 0.000000 0.881610
O O5 0.646631 0.500000 0.342130
O O6 0.685603 0.241031 0.392629
O O7 0.638844 0.227415 0.289572
O O8 0.563638 0.276636 0.372221
O O9 0.000000 0.500000 0.435802
O O10 0.000000 0.751872 0.500000
O O11 0.233573 0.000000 0.061449
O O12 0.221624 0.742599 0.000000
O O13 0.750000 0.250000 0.750000
O O14 0.683515 0.000000 0.774177
O O15 0.000000 0.359320 0.048232
O O16 0.500000 0.000000 0.639766
#
# Coordination Sequence:
#
# PCOD9523905 Si02
#       7
#    16  16   8  16  16   2   8
#     4   9  17  30  48  77 113 151 194 236 289 351
#     4  11  22  38  59  87 118 156 203 251 299 363
#     4   9  16  27  48  78 114 149 177 224 290 350
#     4   9  17  29  49  77 110 146 190 244 297 348
#     4  11  21  36  57  83 118 159 200 252 307 358
#     4   8  24  44  66  80 128 160 190 242 314 380
#     4  10  23  42  60  85 116 157 192 240 304 360
#
# _framework density 19.723714999999999
#
# number of rings (size 3 to 8) (size 9 to 14) (size 15 to 20)
#    0.293    1.854    1.951    2.049    1.366    3.122 
#    0.000    2.439    0.000    0.000    0.000    0.000 
#    0.000    3.122    0.000    0.000    0.000    0.000 
#
# Total GULP energy -228460.683779 kJ/mol
# GULP energy per Si atom -5572.211799 kJ/mol
# Density = 1.967882 g / cm^3
# Si number density = 19.723715 Si / 1000 Ang^3
#
#
#
# Elastic Constant Matrix: (Units=GPa)
#
#
# Indices 1 2 3 4 5 6 
#
# 1 138.0817 -4.3755 61.3176 0.0000 0.0000 0.0000
# 2 -4.3755 11.7871 -0.5027 0.0000 0.0000 0.0000
# 3 61.3176 -0.5027 151.8285 0.0000 0.0000 0.0000
# 4 0.0000 0.0000 0.0000 19.2753 0.0000 0.0000
# 5 0.0000 0.0000 0.0000 0.0000 18.5435 0.0000
# 6 0.0000 0.0000 0.0000 0.0000 0.0000 13.9781
#
#
#
# Elastic Compliance Matrix: (Units=1/GPa)
#
#
# Indices 1 2 3 4 5 6 
#
# 1 0.008941 0.003166 -0.003601 0.000000 0.000000 0.000000
# 2 0.003166 0.085971 -0.000994 0.000000 0.000000 0.000000
# 3 -0.003601 -0.000994 0.008037 0.000000 0.000000 0.000000
# 4 0.000000 0.000000 0.000000 0.051880 0.000000 0.000000
# 5 0.000000 0.000000 0.000000 0.000000 0.053927 0.000000
# 6 0.000000 0.000000 0.000000 0.000000 0.000000 0.071540
#
#
# Mechanical properties :
#
#
# Convention : Reuss Voigt Hill
#
# Bulk Modulus (GPa) = 9.99079 46.06402 28.02741
# Shear Modulus (GPa) = 15.79683 26.70989 21.25336
#
# Velocity S-wave (km/s) = 2.83310 3.68394 3.28617
# Velocity P-wave (km/s) = 3.97219 6.44209 5.35158
#
# Compressibility (1/GPa) = 0.10009214
#
# Stress axis : x y z
#
# Youngs Moduli (GPa) = 111.84068 11.63179 124.42123
#
# Poissons Ratio (x) = -0.03682 0.44799
# Poissons Ratio (y) = -0.35404 0.12365
# Poissons Ratio (z) = 0.40269 0.01156
#
# Static dielectric constant tensor:
#      x y z
#    x 1.681370 0.000000 0.000000 
#    y 0.000000 1.735610 0.000000 
#    z 0.000000 0.000000 1.708270 
# 
# From -- ./inp_files/61075.got.cif
#   From: 2010.05.17/outbox.cif.g08.bks.cpg/sg71_31_cif.got.tgz:61075.got - 2010.06.03 16:22:01.
