data_PCOD9523038
_publ_section_title
;
Structure prediction by ZEFSAII (Michael W. Deem and Ramdas Pophale) SiO2 
 PCOD9523038
Probable space group: I M M M
;
_chemical_formula_sum "Si O2"
_cell_formula_units_Z 96
_cell_length_a 13.809106
_cell_length_b 15.102606
_cell_length_c 22.252599
_cell_angle_alpha 90.000000
_cell_angle_beta 90.000000
_cell_angle_gamma 90.000000
_cell_volume 4640.857119
_symmetry_space_group_name_H-M "I M M M"
_symmetry_group_IT_number 71
_symmetry_cell_setting 'orthorhombic'
loop_
_space_group_symop_operation_xyz
x,y,z
-x,-y,z
x,-y,-z
-x,y,-z
-x,-y,-z
x,y,-z
-x,y,z
x,-y,z
1/2+x,1/2+y,1/2+z
1/2-x,1/2-y,1/2+z
1/2+x,1/2-y,1/2-z
1/2-x,1/2+y,1/2-z
1/2-x,1/2-y,1/2-z
1/2+x,1/2+y,1/2-z
1/2-x,1/2+y,1/2+z
1/2+x,1/2-y,1/2+z
loop_
_atom_site_type_symbol
_atom_site_label
_atom_site_fract_x
_atom_site_fract_y
_atom_site_fract_z
Si Si1 0.887238 0.308443 0.704387
Si Si2 0.758345 0.500000 0.565725
Si Si3 0.608436 0.190772 0.336594
Si Si4 0.393751 0.343216 0.565965
Si Si5 0.699376 0.000000 0.801160
Si Si6 0.810929 0.850425 0.632378
Si Si7 0.885823 0.106675 0.500000
Si Si8 0.889033 0.000000 0.280292
O O1 0.877227 0.266922 0.770734
O O2 0.849311 0.407463 0.716334
O O3 0.831197 0.249042 0.656308
O O4 0.000000 0.310421 0.687429
O O5 0.806981 0.500000 0.500000
O O6 0.689179 0.584962 0.569617
O O7 0.815808 0.500000 0.626865
O O8 0.500000 0.150670 0.336865
O O9 0.611457 0.269501 0.384123
O O10 0.698178 0.129399 0.354578
O O11 0.387050 0.300416 0.500000
O O12 0.500000 0.386515 0.570054
O O13 0.808262 0.000000 0.772899
O O14 0.838789 0.860332 0.562577
O O15 0.871610 0.916038 0.675422
O O16 0.000000 0.130338 0.500000
O O17 0.878638 0.000000 0.500000
O O18 0.000000 0.000000 0.258150
#
# Coordination Sequence:
#
# PCOD9523038 Si02
#       8
#    16   8  16  16   8  16   8   8
#     4  11  24  44  69  95 131 174 221 274 331 398
#     4  10  21  36  56  84 124 168 213 263 324 380
#     4  10  22  39  63  96 131 171 215 264 332 398
#     4   9  18  33  54  84 125 166 209 256 311 386
#     4  12  25  44  65  94 133 171 226 267 330 394
#     4  12  24  45  68 100 136 171 221 277 329 394
#     4  11  24  44  71  98 132 178 222 272 336 393
#     4  12  26  42  69 103 134 166 215 281 335 390
#
# _framework density 20.685834
#
# number of rings (size 3 to 8) (size 9 to 14) (size 15 to 20)
#    0.000    1.250    2.500    3.500    3.500    1.667 
#    1.500    0.417    0.000    1.000    0.000    0.000 
#    0.000    0.000    0.000    0.000    0.000    0.000 
#
# Total GULP energy -267980.162161 kJ/mol
# GULP energy per Si atom -5582.920045 kJ/mol
# Density = 2.063875 g / cm^3
# Si number density = 20.685834 Si / 1000 Ang^3
#
#
#
# Elastic Constant Matrix: (Units=GPa)
#
#
# Indices 1 2 3 4 5 6 
#
# 1 120.3306 12.2739 33.9359 0.0000 0.0000 0.0000
# 2 12.2739 62.3997 22.8731 0.0000 0.0000 0.0000
# 3 33.9359 22.8731 133.1751 0.0000 0.0000 0.0000
# 4 0.0000 0.0000 0.0000 24.1933 0.0000 0.0000
# 5 0.0000 0.0000 0.0000 0.0000 26.6023 0.0000
# 6 0.0000 0.0000 0.0000 0.0000 0.0000 26.9098
#
#
#
# Elastic Compliance Matrix: (Units=1/GPa)
#
#
# Indices 1 2 3 4 5 6 
#
# 1 0.009011 -0.000993 -0.002126 0.000000 0.000000 0.000000
# 2 -0.000993 0.017212 -0.002703 0.000000 0.000000 0.000000
# 3 -0.002126 -0.002703 0.008515 0.000000 0.000000 0.000000
# 4 0.000000 0.000000 0.000000 0.041334 0.000000 0.000000
# 5 0.000000 0.000000 0.000000 0.000000 0.037591 0.000000
# 6 0.000000 0.000000 0.000000 0.000000 0.000000 0.037161
#
#
# Mechanical properties :
#
#
# Convention : Reuss Voigt Hill
#
# Bulk Modulus (GPa) = 43.30140 50.45234 46.87687
# Shear Modulus (GPa) = 29.38312 31.99591 30.68951
#
# Velocity S-wave (km/s) = 3.77297 3.93715 3.85593
# Velocity P-wave (km/s) = 6.32129 6.71647 6.52187
#
# Compressibility (1/GPa) = 0.02309394
#
# Stress axis : x y z
#
# Youngs Moduli (GPa) = 110.97250 58.09919 117.44217
#
# Poissons Ratio (x) = 0.05771 0.24964
# Poissons Ratio (y) = 0.11023 0.31745
# Poissons Ratio (z) = 0.23589 0.15705
#
# Static dielectric constant tensor:
#      x y z
#    x 1.777270 0.000000 0.000000 
#    y 0.000000 1.752060 0.000000 
#    z 0.000000 0.000000 1.745960 
# 
# From -- ./inp_files/53057.got.cif
#   From: 2010.05.17/outbox.cif.g08.bks.cpg/sg71_27_cif.got.tgz:53057.got - 2010.06.03 16:22:01.
