data_PCOD9523734
_publ_section_title
;
Structure prediction by ZEFSAII (Michael W. Deem and Ramdas Pophale) SiO2 
 PCOD9523734
Probable space group: I M M M
;
_chemical_formula_sum "Si O2"
_cell_formula_units_Z 64
_cell_length_a 14.840707
_cell_length_b 18.599110
_cell_length_c 11.913460
_cell_angle_alpha 90.000000
_cell_angle_beta 90.000000
_cell_angle_gamma 90.000000
_cell_volume 3288.400192
_symmetry_space_group_name_H-M "I M M M"
_symmetry_group_IT_number 71
_symmetry_cell_setting 'orthorhombic'
loop_
_space_group_symop_operation_xyz
x,y,z
-x,-y,z
x,-y,-z
-x,y,-z
-x,-y,-z
x,y,-z
-x,y,z
x,-y,z
1/2+x,1/2+y,1/2+z
1/2-x,1/2-y,1/2+z
1/2+x,1/2-y,1/2-z
1/2-x,1/2+y,1/2-z
1/2-x,1/2-y,1/2-z
1/2+x,1/2+y,1/2-z
1/2-x,1/2+y,1/2+z
1/2+x,1/2-y,1/2+z
loop_
_atom_site_type_symbol
_atom_site_label
_atom_site_fract_x
_atom_site_fract_y
_atom_site_fract_z
Si Si1 0.743276 0.084507 0.865971
Si Si2 0.899165 0.139342 0.285895
Si Si3 0.206512 0.082626 0.500000
Si Si4 0.153822 0.289733 0.239984
Si Si5 0.895744 0.350825 0.000000
O O1 0.840548 0.111066 0.819663
O O2 0.668992 0.135904 0.806756
O O3 0.731671 0.000000 0.837516
O O4 0.738752 0.092760 0.000000
O O5 0.838150 0.117727 0.391414
O O6 0.906463 0.225688 0.286693
O O7 0.000000 0.108627 0.289696
O O8 0.314321 0.091937 0.500000
O O9 0.182689 0.000000 0.500000
O O10 0.250000 0.250000 0.250000
O O11 0.123191 0.306074 0.113460
O O12 0.000000 0.375346 0.000000
#
# Coordination Sequence:
#
# PCOD9523734 Si02
#       5
#    16  16   8  16   8
#     4  10  22  39  64  94 128 173 215 258 323 389
#     4  11  24  39  64  96 130 173 216 266 323 386
#     4  12  25  43  64  95 133 170 215 270 329 386
#     4  10  22  39  66  92 129 169 211 264 323 378
#     4  12  24  42  69  98 124 163 218 271 315 374
#
# _framework density 19.462353
#
# number of rings (size 3 to 8) (size 9 to 14) (size 15 to 20)
#    0.000    1.250    5.000    1.875    8.750    3.250 
#    0.000    1.250    0.000    2.250    0.000    7.000 
#    0.000    0.000    0.000    0.000    0.000    0.000 
#
# Total GULP energy -178395.481471 kJ/mol
# GULP energy per Si atom -5574.858796 kJ/mol
# Density = 1.941806 g / cm^3
# Si number density = 19.462353 Si / 1000 Ang^3
#
#
#
# Elastic Constant Matrix: (Units=GPa)
#
#
# Indices 1 2 3 4 5 6 
#
# 1 105.6794 43.0933 52.1363 0.0000 0.0000 0.0000
# 2 43.0933 148.9711 63.3441 0.0000 0.0000 0.0000
# 3 52.1363 63.3441 115.1832 0.0000 0.0000 0.0000
# 4 0.0000 0.0000 0.0000 25.0051 0.0000 0.0000
# 5 0.0000 0.0000 0.0000 0.0000 42.2204 0.0000
# 6 0.0000 0.0000 0.0000 0.0000 0.0000 9.2504
#
#
#
# Elastic Compliance Matrix: (Units=1/GPa)
#
#
# Indices 1 2 3 4 5 6 
#
# 1 0.012460 -0.001574 -0.004774 0.000000 0.000000 0.000000
# 2 -0.001574 0.008960 -0.004215 0.000000 0.000000 0.000000
# 3 -0.004774 -0.004215 0.013161 0.000000 0.000000 0.000000
# 4 0.000000 0.000000 0.000000 0.039992 0.000000 0.000000
# 5 0.000000 0.000000 0.000000 0.000000 0.023685 0.000000
# 6 0.000000 0.000000 0.000000 0.000000 0.000000 0.108103
#
#
# Mechanical properties :
#
#
# Convention : Reuss Voigt Hill
#
# Bulk Modulus (GPa) = 74.32660 76.33122 75.32891
# Shear Modulus (GPa) = 21.55424 29.37920 25.46672
#
# Velocity S-wave (km/s) = 3.33150 3.88949 3.62126
# Velocity P-wave (km/s) = 7.28501 7.71207 7.50158
#
# Compressibility (1/GPa) = 0.01345413
#
# Stress axis : x y z
#
# Youngs Moduli (GPa) = 80.25841 111.60173 75.98344
#
# Poissons Ratio (x) = 0.17570 0.36274
# Poissons Ratio (y) = 0.12635 0.32028
# Poissons Ratio (z) = 0.38315 0.47041
#
# Static dielectric constant tensor:
#      x y z
#    x 1.698640 0.000000 0.000000 
#    y 0.000000 1.707740 0.000000 
#    z 0.000000 0.000000 1.667800 
# 
# From -- ./inp_files/21259.got.cif
#   From: 2010.05.17/outbox.cif.g08.bks.cpg/sg71_11_cif.got.tgz:21259.got - 2010.06.03 16:22:01.
