data_PCOD9523468
_publ_section_title
;
Structure prediction by ZEFSAII (Michael W. Deem and Ramdas Pophale) SiO2 
 PCOD9523468
Probable space group: I M M M
;
_chemical_formula_sum "Si O2"
_cell_formula_units_Z 96
_cell_length_a 23.571139
_cell_length_b 13.760213
_cell_length_c 14.410478
_cell_angle_alpha 90.000000
_cell_angle_beta 90.000000
_cell_angle_gamma 90.000000
_cell_volume 4673.950539
_symmetry_space_group_name_H-M "I M M M"
_symmetry_group_IT_number 71
_symmetry_cell_setting 'orthorhombic'
loop_
_space_group_symop_operation_xyz
x,y,z
-x,-y,z
x,-y,-z
-x,y,-z
-x,-y,-z
x,y,-z
-x,y,z
x,-y,z
1/2+x,1/2+y,1/2+z
1/2-x,1/2-y,1/2+z
1/2+x,1/2-y,1/2-z
1/2-x,1/2+y,1/2-z
1/2-x,1/2-y,1/2-z
1/2+x,1/2+y,1/2-z
1/2-x,1/2+y,1/2+z
1/2+x,1/2-y,1/2+z
loop_
_atom_site_type_symbol
_atom_site_label
_atom_site_fract_x
_atom_site_fract_y
_atom_site_fract_z
Si Si1 0.064674 0.384099 0.761044
Si Si2 0.763367 0.810950 0.108525
Si Si3 0.150983 0.887484 0.254965
Si Si4 0.173122 0.389546 0.110290
Si Si5 0.134605 0.278982 0.392340
Si Si6 0.934258 0.117922 0.899975
O O1 0.063645 0.500000 0.745468
O O2 0.113702 0.368627 0.838200
O O3 0.087542 0.331989 0.668829
O O4 0.000000 0.354730 0.785733
O O5 0.795862 0.871156 0.186758
O O6 0.782738 0.698558 0.127580
O O7 0.696422 0.828766 0.117216
O O8 0.778312 0.831950 0.000000
O O9 0.147457 0.825425 0.347281
O O10 0.100006 0.850603 0.188773
O O11 0.144594 0.000000 0.275555
O O12 0.192075 0.500000 0.136965
O O13 0.163717 0.390586 0.000000
O O14 0.119810 0.273668 0.500000
O O15 0.000000 0.142556 0.893727
O O16 0.930206 0.000000 0.901569
O O17 0.912269 0.153508 0.000000
#
# Coordination Sequence:
#
# PCOD9523468 Si02
#       6
#    16  16  16  16  16  16
#     4  10  22  41  66  93 120 156 207 260 309 362
#     4  10  21  39  61  90 123 154 194 241 302 376
#     4  11  22  36  58  87 119 155 197 244 294 355
#     4   9  18  35  63  97 131 160 187 237 312 388
#     4  11  25  43  60  82 119 162 206 257 304 350
#     4   8  15  30  52  78 109 143 179 224 281 344
#
# _framework density 20.539370000000002
#
# number of rings (size 3 to 8) (size 9 to 14) (size 15 to 20)
#    0.000    2.167    1.667    1.500    0.000    4.333 
#    0.000    5.833    0.000    0.000    0.000    3.500 
#    0.000    0.000    0.000    0.000    0.000    0.000 
#
# Total GULP energy -267991.768132 kJ/mol
# GULP energy per Si atom -5583.161836 kJ/mol
# Density = 2.049262 g / cm^3
# Si number density = 20.539370 Si / 1000 Ang^3
#
#
#
# Elastic Constant Matrix: (Units=GPa)
#
#
# Indices 1 2 3 4 5 6 
#
# 1 57.3773 -2.6102 5.2852 0.0000 0.0000 0.0000
# 2 -2.6102 45.6234 -10.6255 0.0000 0.0000 0.0000
# 3 5.2852 -10.6255 37.3934 0.0000 0.0000 0.0000
# 4 0.0000 0.0000 0.0000 13.7443 0.0000 0.0000
# 5 0.0000 0.0000 0.0000 0.0000 22.8195 0.0000
# 6 0.0000 0.0000 0.0000 0.0000 0.0000 17.5914
#
#
#
# Elastic Compliance Matrix: (Units=1/GPa)
#
#
# Indices 1 2 3 4 5 6 
#
# 1 0.017667 0.000460 -0.002367 0.000000 0.000000 0.000000
# 2 0.000460 0.023484 0.006608 0.000000 0.000000 0.000000
# 3 -0.002367 0.006608 0.028955 0.000000 0.000000 0.000000
# 4 0.000000 0.000000 0.000000 0.072757 0.000000 0.000000
# 5 0.000000 0.000000 0.000000 0.000000 0.043822 0.000000
# 6 0.000000 0.000000 0.000000 0.000000 0.000000 0.056846
#
#
# Mechanical properties :
#
#
# Convention : Reuss Voigt Hill
#
# Bulk Modulus (GPa) = 12.57727 13.83258 13.20493
# Shear Modulus (GPa) = 19.18413 20.72069 19.95241
#
# Velocity S-wave (km/s) = 3.05949 3.17965 3.12015
# Velocity P-wave (km/s) = 4.31479 4.49772 4.40721
#
# Compressibility (1/GPa) = 0.07950849
#
# Stress axis : x y z
#
# Youngs Moduli (GPa) = 56.60147 42.58242 34.53650
#
# Poissons Ratio (x) = -0.01957 0.08173
# Poissons Ratio (y) = -0.02601 -0.22822
# Poissons Ratio (z) = 0.13395 -0.28139
#
# Static dielectric constant tensor:
#      x y z
#    x 1.738600 0.000000 0.000000 
#    y 0.000000 1.750060 0.000000 
#    z 0.000000 0.000000 1.716520 
# 
# From -- ./inp_files/37815.got.cif
#   From: 2010.05.17/outbox.cif.g08.bks.cpg/sg71_19_cif.got.tgz:37815.got - 2010.06.03 16:22:01.
