data_PCOD9523660
_publ_section_title
;
Structure prediction by ZEFSAII (Michael W. Deem and Ramdas Pophale) SiO2 
 PCOD9523660
Probable space group: I M M M
;
_chemical_formula_sum "Si O2"
_cell_formula_units_Z 104
_cell_length_a 9.053028
_cell_length_b 25.556776
_cell_length_c 24.427958
_cell_angle_alpha 90.000000
_cell_angle_beta 90.000000
_cell_angle_gamma 90.000000
_cell_volume 5651.804029
_symmetry_space_group_name_H-M "I M M M"
_symmetry_group_IT_number 71
_symmetry_cell_setting 'orthorhombic'
loop_
_space_group_symop_operation_xyz
x,y,z
-x,-y,z
x,-y,-z
-x,y,-z
-x,-y,-z
x,y,-z
-x,y,z
x,-y,z
1/2+x,1/2+y,1/2+z
1/2-x,1/2-y,1/2+z
1/2+x,1/2-y,1/2-z
1/2-x,1/2+y,1/2-z
1/2-x,1/2-y,1/2-z
1/2+x,1/2+y,1/2-z
1/2-x,1/2+y,1/2+z
1/2+x,1/2-y,1/2+z
loop_
_atom_site_type_symbol
_atom_site_label
_atom_site_fract_x
_atom_site_fract_y
_atom_site_fract_z
Si Si1 0.672417 0.061057 0.500000
Si Si2 0.677177 0.773416 0.564244
Si Si3 0.834335 0.941205 0.398068
Si Si4 0.670367 0.339008 0.837219
Si Si5 0.176474 0.559755 0.565487
Si Si6 0.676312 0.338431 0.381356
Si Si7 0.324509 0.195584 0.232475
O O1 0.500000 0.062503 0.500000
O O2 0.733644 0.083444 0.555253
O O3 0.722382 0.000000 0.500000
O O4 0.716596 0.783533 0.500000
O O5 0.500000 0.783402 0.569874
O O6 0.764822 0.806354 0.610834
O O7 0.702038 0.711935 0.579043
O O8 0.836766 0.900213 0.350473
O O9 0.000000 0.944309 0.421045
O O10 0.786768 0.000000 0.383393
O O11 0.500000 0.321146 0.826769
O O12 0.776935 0.336834 0.785417
O O13 0.200293 0.563627 0.500000
O O14 0.219483 0.500000 0.581915
O O15 0.259766 0.607511 0.594570
O O16 0.000000 0.564749 0.575071
O O17 0.500000 0.342702 0.373777
O O18 0.753359 0.324887 0.323618
O O19 0.500000 0.199527 0.226923
O O20 0.250000 0.250000 0.250000
#
# Coordination Sequence:
#
# PCOD9523660 Si02
#       7
#     8  16  16  16  16  16  16
#     4   9  17  29  49  77 105 139 183 225 270 325
#     4  10  22  38  56  83 120 157 190 237 297 352
#     4   9  19  36  55  76 107 145 184 229 280 335
#     4  11  23  38  59  85 112 150 197 241 291 352
#     4   9  19  37  61  91 129 170 208 249 301 360
#     4  11  22  38  62  90 120 158 202 248 298 355
#     4  12  24  41  63  86 114 153 197 245 297 354
#
# _framework density 18.401204
#
# number of rings (size 3 to 8) (size 9 to 14) (size 15 to 20)
#    0.000    1.769    1.538    3.462    1.077    4.308 
#    0.000    1.538    0.000    2.769    0.000    0.000 
#    0.000    0.000    0.000    0.000    0.000    0.000 
#
# Total GULP energy -289864.609180 kJ/mol
# GULP energy per Si atom -5574.319407 kJ/mol
# Density = 1.835932 g / cm^3
# Si number density = 18.401204 Si / 1000 Ang^3
#
#
#
# Elastic Constant Matrix: (Units=GPa)
#
#
# Indices 1 2 3 4 5 6 
#
# 1 84.1394 44.0613 45.7727 0.0000 0.0000 0.0000
# 2 44.0613 101.1319 37.5080 0.0000 0.0000 0.0000
# 3 45.7727 37.5080 92.4691 0.0000 0.0000 0.0000
# 4 0.0000 0.0000 0.0000 28.2670 0.0000 0.0000
# 5 0.0000 0.0000 0.0000 0.0000 31.8120 0.0000
# 6 0.0000 0.0000 0.0000 0.0000 0.0000 27.7246
#
#
#
# Elastic Compliance Matrix: (Units=1/GPa)
#
#
# Indices 1 2 3 4 5 6 
#
# 1 0.018547 -0.005504 -0.006949 0.000000 0.000000 0.000000
# 2 -0.005504 0.013272 -0.002659 0.000000 0.000000 0.000000
# 3 -0.006949 -0.002659 0.015333 0.000000 0.000000 0.000000
# 4 0.000000 0.000000 0.000000 0.035377 0.000000 0.000000
# 5 0.000000 0.000000 0.000000 0.000000 0.031435 0.000000
# 6 0.000000 0.000000 0.000000 0.000000 0.000000 0.036069
#
#
# Mechanical properties :
#
#
# Convention : Reuss Voigt Hill
#
# Bulk Modulus (GPa) = 59.06941 59.15827 59.11384
# Shear Modulus (GPa) = 26.89640 27.58728 27.24184
#
# Velocity S-wave (km/s) = 3.82732 3.87616 3.85182
# Velocity P-wave (km/s) = 7.19039 7.22854 7.20949
#
# Compressibility (1/GPa) = 0.01692924
#
# Stress axis : x y z
#
# Youngs Moduli (GPa) = 53.91658 75.34582 65.22025
#
# Poissons Ratio (x) = 0.41467 0.45319
# Poissons Ratio (y) = 0.29673 0.17344
# Poissons Ratio (z) = 0.37464 0.20036
#
# Static dielectric constant tensor:
#      x y z
#    x 1.650430 0.000000 0.000000 
#    y 0.000000 1.708300 0.000000 
#    z 0.000000 0.000000 1.629040 
# 
# From -- ./inp_files/50884.got.cif
#   From: 2010.05.17/outbox.cif.g08.bks.cpg/sg71_26_cif.got.tgz:50884.got - 2010.06.03 16:22:01.
