data_PCOD9523514
_publ_section_title
;
Structure prediction by ZEFSAII (Michael W. Deem and Ramdas Pophale) SiO2 
 PCOD9523514
Probable space group: I M M M
;
_chemical_formula_sum "Si O2"
_cell_formula_units_Z 88
_cell_length_a 20.645699
_cell_length_b 17.424539
_cell_length_c 12.444181
_cell_angle_alpha 90.000000
_cell_angle_beta 90.000000
_cell_angle_gamma 90.000000
_cell_volume 4476.691916
_symmetry_space_group_name_H-M "I M M M"
_symmetry_group_IT_number 71
_symmetry_cell_setting 'orthorhombic'
loop_
_space_group_symop_operation_xyz
x,y,z
-x,-y,z
x,-y,-z
-x,y,-z
-x,-y,-z
x,y,-z
-x,y,z
x,-y,z
1/2+x,1/2+y,1/2+z
1/2-x,1/2-y,1/2+z
1/2+x,1/2-y,1/2-z
1/2-x,1/2+y,1/2-z
1/2-x,1/2-y,1/2-z
1/2+x,1/2+y,1/2-z
1/2-x,1/2+y,1/2+z
1/2+x,1/2-y,1/2+z
loop_
_atom_site_type_symbol
_atom_site_label
_atom_site_fract_x
_atom_site_fract_y
_atom_site_fract_z
Si Si1 0.750710 0.591192 0.874644
Si Si2 0.500000 0.591281 0.125781
Si Si3 0.079253 0.000000 0.875818
Si Si4 0.427113 0.778335 0.374950
Si Si5 0.075672 0.593093 0.500000
Si Si6 0.875141 0.144906 0.257644
Si Si7 0.619260 0.909297 0.762843
O O1 0.735046 0.500000 0.874235
O O2 0.689342 0.635217 0.826573
O O3 0.810663 0.601665 0.793077
O O4 0.764856 0.611342 0.000000
O O5 0.500000 0.500000 0.157237
O O6 0.562901 0.635577 0.165940
O O7 0.500000 0.590470 0.000000
O O8 0.111906 0.926208 0.822140
O O9 0.000000 0.000000 0.869605
O O10 0.094853 0.000000 0.000000
O O11 0.410243 0.786977 0.500000
O O12 0.500000 0.744821 0.370265
O O13 0.379790 0.721827 0.311399
O O14 0.426091 0.858535 0.312826
O O15 0.075406 0.500000 0.500000
O O16 0.110262 0.615542 0.612406
O O17 0.000000 0.618141 0.500000
O O18 0.604215 0.000000 0.757761
#
# Coordination Sequence:
#
# PCOD9523514 Si02
#       7
#    16   8   8  16   8  16  16
#     4  10  21  39  64  92 127 168 214 263 312 375
#     4  11  20  34  58  86 119 160 219 276 316 374
#     4  11  20  34  56  82 116 166 218 264 315 376
#     4  11  24  41  62  91 126 161 208 271 322 372
#     4   9  18  38  68  96 124 156 196 256 312 367
#     4  12  20  38  56  86 123 168 210 260 321 378
#     4  10  22  43  66  94 125 163 206 254 316 385
#
# _framework density 19.657374000000001
#
# number of rings (size 3 to 8) (size 9 to 14) (size 15 to 20)
#    0.000    1.364    3.636    2.182    0.000    5.818 
#    6.545    0.909    0.000    0.000    0.000    0.000 
#    0.000    0.000    0.000    0.000    0.000    0.000 
#
# Total GULP energy -245521.397169 kJ/mol
# GULP energy per Si atom -5580.031754 kJ/mol
# Density = 1.961263 g / cm^3
# Si number density = 19.657374 Si / 1000 Ang^3
#
#
#
# Elastic Constant Matrix: (Units=GPa)
#
#
# Indices 1 2 3 4 5 6 
#
# 1 90.3853 27.9862 66.4315 0.0000 0.0000 0.0000
# 2 27.9862 56.6546 43.7951 0.0000 0.0000 0.0000
# 3 66.4315 43.7951 197.5348 0.0000 0.0000 0.0000
# 4 0.0000 0.0000 0.0000 22.0369 0.0000 0.0000
# 5 0.0000 0.0000 0.0000 0.0000 27.0509 0.0000
# 6 0.0000 0.0000 0.0000 0.0000 0.0000 8.3344
#
#
#
# Elastic Compliance Matrix: (Units=1/GPa)
#
#
# Indices 1 2 3 4 5 6 
#
# 1 0.015552 -0.004392 -0.004256 0.000000 0.000000 0.000000
# 2 -0.004392 0.022542 -0.003521 0.000000 0.000000 0.000000
# 3 -0.004256 -0.003521 0.007274 0.000000 0.000000 0.000000
# 4 0.000000 0.000000 0.000000 0.045378 0.000000 0.000000
# 5 0.000000 0.000000 0.000000 0.000000 0.036967 0.000000
# 6 0.000000 0.000000 0.000000 0.000000 0.000000 0.119985
#
#
# Mechanical properties :
#
#
# Convention : Reuss Voigt Hill
#
# Bulk Modulus (GPa) = 47.55102 69.00004 58.27553
# Shear Modulus (GPa) = 17.91808 25.24191 21.57999
#
# Velocity S-wave (km/s) = 3.02241 3.58731 3.31691
# Velocity P-wave (km/s) = 6.03510 7.23436 6.66177
#
# Compressibility (1/GPa) = 0.02103004
#
# Stress axis : x y z
#
# Youngs Moduli (GPa) = 64.30009 44.36176 137.46813
#
# Poissons Ratio (x) = 0.19484 0.58513
# Poissons Ratio (y) = 0.28241 0.48398
# Poissons Ratio (z) = 0.27369 0.15618
#
# Static dielectric constant tensor:
#      x y z
#    x 1.698290 0.000000 0.000000 
#    y 0.000000 1.696530 0.000000 
#    z 0.000000 0.000000 1.676470 
# 
# From -- ./inp_files/25687.got.cif
#   From: 2010.05.17/outbox.cif.g08.bks.cpg/sg71_13_cif.got.tgz:25687.got - 2010.06.03 16:22:01.
