data_PCOD9523549
_publ_section_title
;
Structure prediction by ZEFSAII (Michael W. Deem and Ramdas Pophale) SiO2 
 PCOD9523549
Probable space group: I M M M
;
_chemical_formula_sum "Si O2"
_cell_formula_units_Z 104
_cell_length_a 28.557063
_cell_length_b 13.385515
_cell_length_c 13.808619
_cell_angle_alpha 90.000000
_cell_angle_beta 90.000000
_cell_angle_gamma 90.000000
_cell_volume 5278.358354
_symmetry_space_group_name_H-M "I M M M"
_symmetry_group_IT_number 71
_symmetry_cell_setting 'orthorhombic'
loop_
_space_group_symop_operation_xyz
x,y,z
-x,-y,z
x,-y,-z
-x,y,-z
-x,-y,-z
x,y,-z
-x,y,z
x,-y,z
1/2+x,1/2+y,1/2+z
1/2-x,1/2-y,1/2+z
1/2+x,1/2-y,1/2-z
1/2-x,1/2+y,1/2-z
1/2-x,1/2-y,1/2-z
1/2+x,1/2+y,1/2-z
1/2-x,1/2+y,1/2+z
1/2+x,1/2-y,1/2+z
loop_
_atom_site_type_symbol
_atom_site_label
_atom_site_fract_x
_atom_site_fract_y
_atom_site_fract_z
Si Si1 0.398101 0.795361 0.385600
Si Si2 0.388766 0.693852 0.884633
Si Si3 0.052916 0.385754 0.617618
Si Si4 0.945812 0.500000 0.118157
Si Si5 0.289964 0.245863 0.612530
Si Si6 0.708660 0.380606 0.205011
Si Si7 0.944461 0.110722 0.223634
O O1 0.408356 0.787379 0.500000
O O2 0.342264 0.796780 0.374400
O O3 0.419186 0.698017 0.335069
O O4 0.421328 0.897843 0.349620
O O5 0.407427 0.805107 0.858789
O O6 0.338867 0.666144 0.839114
O O7 0.426714 0.622999 0.833462
O O8 0.387185 0.683594 0.000000
O O9 0.051254 0.386741 0.500000
O O10 0.061735 0.500000 0.648115
O O11 0.000000 0.356261 0.650087
O O12 0.000000 0.500000 0.145647
O O13 0.943395 0.500000 0.000000
O O14 0.283770 0.272916 0.500000
O O15 0.285589 0.338785 0.685952
O O16 0.251817 0.164216 0.644245
O O17 0.706513 0.500000 0.201523
O O18 0.000000 0.121796 0.217080
O O19 0.931338 0.000000 0.188212
#
# Coordination Sequence:
#
# PCOD9523549 Si02
#       7
#    16  16  16   8  16  16  16
#     4  10  21  40  66  93 126 165 208 260 321 385
#     4  11  22  38  60  88 126 171 218 265 317 376
#     4   8  15  31  56  83 113 155 207 261 316 374
#     4   9  18  34  60  94 129 165 207 259 317 379
#     4  10  23  43  68  98 126 162 209 260 319 385
#     4  11  24  43  67  96 129 165 209 263 321 383
#     4  11  24  40  58  87 127 167 214 265 311 373
#
# _framework density 19.703095999999999
#
# number of rings (size 3 to 8) (size 9 to 14) (size 15 to 20)
#    0.000    1.923    1.538    2.308    1.077    4.615 
#    1.385    6.154    0.000    3.692    0.000    0.000 
#    0.000    0.000    0.000    0.000    0.000    0.000 
#
# Total GULP energy -290541.793544 kJ/mol
# GULP energy per Si atom -5587.342184 kJ/mol
# Density = 1.965825 g / cm^3
# Si number density = 19.703096 Si / 1000 Ang^3
#
#
#
# Elastic Constant Matrix: (Units=GPa)
#
#
# Indices 1 2 3 4 5 6 
#
# 1 126.4600 97.9658 55.6010 0.0000 0.0000 0.0000
# 2 97.9658 183.0634 57.8387 0.0000 0.0000 0.0000
# 3 55.6010 57.8387 91.3654 0.0000 0.0000 0.0000
# 4 0.0000 0.0000 0.0000 22.9270 0.0000 0.0000
# 5 0.0000 0.0000 0.0000 0.0000 24.2388 0.0000
# 6 0.0000 0.0000 0.0000 0.0000 0.0000 -16.0660
#
#
#
# Elastic Compliance Matrix: (Units=1/GPa)
#
#
# Indices 1 2 3 4 5 6 
#
# 1 0.015216 -0.006521 -0.005131 0.000000 0.000000 0.000000
# 2 -0.006521 0.009623 -0.002123 0.000000 0.000000 0.000000
# 3 -0.005131 -0.002123 0.015412 0.000000 0.000000 0.000000
# 4 0.000000 0.000000 0.000000 0.043617 0.000000 0.000000
# 5 0.000000 0.000000 0.000000 0.000000 0.041256 0.000000
# 6 0.000000 0.000000 0.000000 0.000000 0.000000 -0.062243
#
#
# Mechanical properties :
#
#
# Convention : Reuss Voigt Hill
#
# Bulk Modulus (GPa) = 78.74713 91.52221 85.13467
# Shear Modulus (GPa) = 52.81727 18.85216 35.83471
#
# Velocity S-wave (km/s) = 5.18312 3.09659 4.26929
# Velocity P-wave (km/s) = 8.71053 7.70303 8.22223
#
# Compressibility (1/GPa) = 0.01269888
#
# Stress axis : x y z
#
# Youngs Moduli (GPa) = 65.72144 103.91331 64.88470
#
# Poissons Ratio (x) = 0.67766 0.33294
# Poissons Ratio (y) = 0.42860 0.13778
# Poissons Ratio (z) = 0.33723 0.22065
#
# Static dielectric constant tensor:
#      x y z
#    x 1.662540 0.000000 0.000000 
#    y 0.000000 1.677830 0.000000 
#    z 0.000000 0.000000 1.737610 
# 
# From -- ./inp_files/40951.got.cif
#   From: 2010.05.17/outbox.cif.g08.bks.cpg/sg71_21_cif.got.tgz:40951.got - 2010.06.03 16:22:01.
