data_PCOD9523257
_publ_section_title
;
Structure prediction by ZEFSAII (Michael W. Deem and Ramdas Pophale) SiO2 
 PCOD9523257
Probable space group: I M M M
;
_chemical_formula_sum "Si O2"
_cell_formula_units_Z 116
_cell_length_a 9.242353
_cell_length_b 22.921855
_cell_length_c 29.123940
_cell_angle_alpha 90.000000
_cell_angle_beta 90.000000
_cell_angle_gamma 90.000000
_cell_volume 6169.961306
_symmetry_space_group_name_H-M "I M M M"
_symmetry_group_IT_number 71
_symmetry_cell_setting 'orthorhombic'
loop_
_space_group_symop_operation_xyz
x,y,z
-x,-y,z
x,-y,-z
-x,y,-z
-x,-y,-z
x,y,-z
-x,y,z
x,-y,z
1/2+x,1/2+y,1/2+z
1/2-x,1/2-y,1/2+z
1/2+x,1/2-y,1/2-z
1/2-x,1/2+y,1/2-z
1/2-x,1/2-y,1/2-z
1/2+x,1/2+y,1/2-z
1/2-x,1/2+y,1/2+z
1/2+x,1/2-y,1/2+z
loop_
_atom_site_type_symbol
_atom_site_label
_atom_site_fract_x
_atom_site_fract_y
_atom_site_fract_z
Si Si1 0.328997 0.430826 0.198954
Si Si2 0.173181 0.660559 0.138241
Si Si3 0.174134 0.259055 0.700448
Si Si4 0.839908 0.178554 0.054103
Si Si5 0.169973 0.792888 0.554599
Si Si6 0.663472 0.374088 0.701865
Si Si7 0.000000 0.500000 0.609432
Si Si8 0.705392 0.437543 0.388888
O O1 0.500000 0.421591 0.188369
O O2 0.303504 0.500000 0.201497
O O3 0.229177 0.398432 0.162251
O O4 0.302678 0.401083 0.248555
O O5 0.253733 0.712264 0.166486
O O6 0.232970 0.666249 0.086607
O O7 0.000000 0.666224 0.140906
O O8 0.250000 0.250000 0.750000
O O9 0.223719 0.324358 0.687586
O O10 0.000000 0.252802 0.702233
O O11 0.720745 0.226744 0.065632
O O12 0.831755 0.118683 0.081571
O O13 0.000000 0.204799 0.062644
O O14 0.827877 0.165806 0.000000
O O15 0.193511 0.801441 0.500000
O O16 0.000000 0.800335 0.564406
O O17 0.500000 0.348898 0.703655
O O18 0.664236 0.423700 0.663354
O O19 0.125416 0.449890 0.609409
O O20 0.644853 0.500000 0.404797
#
# Coordination Sequence:
#
# PCOD9523257 Si02
#       8
#    16  16  16  16  16  16   4  16
#     4  10  22  40  61  87 119 158 200 245 293 349
#     4  12  24  40  62  90 125 164 200 242 296 352
#     4  12  24  38  59  87 122 160 201 248 299 353
#     4  10  21  37  59  87 117 150 191 245 305 363
#     4  10  22  40  66  95 121 153 193 241 300 359
#     4  11  22  37  61  86 117 156 200 246 300 357
#     4   8  24  40  51  78 112 148 214 246 307 348
#     4  10  22  38  55  76 112 154 202 250 297 352
#
# _framework density 18.800764999999998
#
# number of rings (size 3 to 8) (size 9 to 14) (size 15 to 20)
#    0.414    0.966    1.379    4.552    1.931    3.034 
#    0.000    1.034    0.000    0.414    0.000    2.897 
#    0.000    0.000    0.000    0.000    0.000    0.000 
#
# Total GULP energy -323240.013427 kJ/mol
# GULP energy per Si atom -5573.103680 kJ/mol
# Density = 1.875797 g / cm^3
# Si number density = 18.800765 Si / 1000 Ang^3
#
#
#
# Elastic Constant Matrix: (Units=GPa)
#
#
# Indices 1 2 3 4 5 6 
#
# 1 161.2663 42.1950 37.5322 0.0000 0.0000 0.0000
# 2 42.1950 71.2900 21.9889 0.0000 0.0000 0.0000
# 3 37.5322 21.9889 57.7770 0.0000 0.0000 0.0000
# 4 0.0000 0.0000 0.0000 18.3096 0.0000 0.0000
# 5 0.0000 0.0000 0.0000 0.0000 42.8207 0.0000
# 6 0.0000 0.0000 0.0000 0.0000 0.0000 29.3956
#
#
#
# Elastic Compliance Matrix: (Units=1/GPa)
#
#
# Indices 1 2 3 4 5 6 
#
# 1 0.008032 -0.003563 -0.003862 0.000000 0.000000 0.000000
# 2 -0.003563 0.017473 -0.004336 0.000000 0.000000 0.000000
# 3 -0.003862 -0.004336 0.021466 0.000000 0.000000 0.000000
# 4 0.000000 0.000000 0.000000 0.054616 0.000000 0.000000
# 5 0.000000 0.000000 0.000000 0.000000 0.023353 0.000000
# 6 0.000000 0.000000 0.000000 0.000000 0.000000 0.034019
#
#
# Mechanical properties :
#
#
# Convention : Reuss Voigt Hill
#
# Bulk Modulus (GPa) = 42.64100 54.86283 48.75191
# Shear Modulus (GPa) = 26.27475 30.67965 28.47720
#
# Velocity S-wave (km/s) = 3.74242 4.04397 3.89612
# Velocity P-wave (km/s) = 6.43459 7.14489 6.79902
#
# Compressibility (1/GPa) = 0.02345161
#
# Stress axis : x y z
#
# Youngs Moduli (GPa) = 124.50447 57.23034 46.58422
#
# Poissons Ratio (x) = 0.20390 0.17989
# Poissons Ratio (y) = 0.44358 0.20197
# Poissons Ratio (z) = 0.48078 0.24813
#
# Static dielectric constant tensor:
#      x y z
#    x 1.654840 0.000000 0.000000 
#    y 0.000000 1.663760 0.000000 
#    z 0.000000 0.000000 1.669160 
# 
# From -- ./inp_files/63644.got.cif
#   From: 2010.05.17/outbox.cif.g08.bks.cpg/sg71_32_cif.got.tgz:63644.got - 2010.06.03 16:22:01.
