data_PCOD9523066
_publ_section_title
;
Structure prediction by ZEFSAII (Michael W. Deem and Ramdas Pophale) SiO2 
 PCOD9523066
Probable space group: I M M M
;
_chemical_formula_sum "Si O2"
_cell_formula_units_Z 116
_cell_length_a 9.306248
_cell_length_b 25.526676
_cell_length_c 26.610783
_cell_angle_alpha 90.000000
_cell_angle_beta 90.000000
_cell_angle_gamma 90.000000
_cell_volume 6321.593144
_symmetry_space_group_name_H-M "I M M M"
_symmetry_group_IT_number 71
_symmetry_cell_setting 'orthorhombic'
loop_
_space_group_symop_operation_xyz
x,y,z
-x,-y,z
x,-y,-z
-x,y,-z
-x,-y,-z
x,y,-z
-x,y,z
x,-y,z
1/2+x,1/2+y,1/2+z
1/2-x,1/2-y,1/2+z
1/2+x,1/2-y,1/2-z
1/2-x,1/2+y,1/2-z
1/2-x,1/2-y,1/2-z
1/2+x,1/2+y,1/2-z
1/2-x,1/2+y,1/2+z
1/2+x,1/2-y,1/2+z
loop_
_atom_site_type_symbol
_atom_site_label
_atom_site_fract_x
_atom_site_fract_y
_atom_site_fract_z
Si Si1 0.174481 0.167623 0.376249
Si Si2 0.161597 0.062008 0.124660
Si Si3 0.170342 0.299328 0.226132
Si Si4 0.834733 0.750581 0.060313
Si Si5 0.830843 0.643631 0.439900
Si Si6 0.000000 0.500000 0.726565
Si Si7 0.832628 0.942614 0.656068
Si Si8 0.746259 0.088911 0.767060
O O1 0.247393 0.190029 0.325960
O O2 0.240228 0.202366 0.420252
O O3 0.221590 0.106492 0.376186
O O4 0.000000 0.170599 0.374338
O O5 0.272258 0.094440 0.091090
O O6 0.165903 0.083112 0.181678
O O7 0.000000 0.068944 0.104442
O O8 0.194527 0.000000 0.125158
O O9 0.250000 0.250000 0.250000
O O10 0.191018 0.351931 0.259300
O O11 0.000000 0.290364 0.219098
O O12 0.758958 0.804971 0.075756
O O13 0.000000 0.747819 0.078351
O O14 0.836805 0.750250 0.000000
O O15 0.811463 0.635833 0.500000
O O16 0.000000 0.651867 0.430679
O O17 0.122581 0.453912 0.727452
O O18 0.822762 0.926440 0.714663
O O19 0.000000 0.946954 0.643679
O O20 0.763688 0.000000 0.649318
#
# Coordination Sequence:
#
# PCOD9523066 Si02
#       8
#    16  16  16  16  16   4  16  16
#     4  10  21  36  57  86 116 150 190 234 285 342
#     4  11  24  39  59  84 113 150 194 239 287 341
#     4  11  24  39  55  80 118 159 196 236 291 350
#     4  10  21  40  64  87 112 145 188 237 287 346
#     4  10  23  41  62  85 110 142 182 233 293 352
#     4  12  20  36  58  84 113 150 207 250 292 330
#     4   9  17  33  56  81 114 151 190 232 274 329
#     4  11  22  36  57  82 113 152 199 243 287 335
#
# _framework density 18.349803999999999
#
# number of rings (size 3 to 8) (size 9 to 14) (size 15 to 20)
#    0.000    1.655    2.069    2.069    2.897    4.966 
#    0.000    1.379    0.000    0.414    0.000    2.897 
#    0.000    0.000    0.000    0.000    0.000    0.000 
#
# Total GULP energy -323004.050246 kJ/mol
# GULP energy per Si atom -5569.035349 kJ/mol
# Density = 1.830804 g / cm^3
# Si number density = 18.349804 Si / 1000 Ang^3
#
#
#
# Elastic Constant Matrix: (Units=GPa)
#
#
# Indices 1 2 3 4 5 6 
#
# 1 108.8948 57.0808 27.6697 0.0000 0.0000 0.0000
# 2 57.0808 128.7398 31.1981 0.0000 0.0000 0.0000
# 3 27.6697 31.1981 27.7287 0.0000 0.0000 0.0000
# 4 0.0000 0.0000 0.0000 23.2132 0.0000 0.0000
# 5 0.0000 0.0000 0.0000 0.0000 68.1675 0.0000
# 6 0.0000 0.0000 0.0000 0.0000 0.0000 28.3684
#
#
#
# Elastic Compliance Matrix: (Units=1/GPa)
#
#
# Indices 1 2 3 4 5 6 
#
# 1 0.013497 -0.003740 -0.009260 0.000000 0.000000 0.000000
# 2 -0.003740 0.011716 -0.009450 0.000000 0.000000 0.000000
# 3 -0.009260 -0.009450 0.055936 0.000000 0.000000 0.000000
# 4 0.000000 0.000000 0.000000 0.043079 0.000000 0.000000
# 5 0.000000 0.000000 0.000000 0.000000 0.014670 0.000000
# 6 0.000000 0.000000 0.000000 0.000000 0.000000 0.035250
#
#
# Mechanical properties :
#
#
# Convention : Reuss Voigt Hill
#
# Bulk Modulus (GPa) = 27.58681 55.25116 41.41899
# Shear Modulus (GPa) = 21.63294 33.91083 27.77189
#
# Velocity S-wave (km/s) = 3.43726 4.30353 3.89456
# Velocity P-wave (km/s) = 5.55153 7.40737 6.54556
#
# Compressibility (1/GPa) = 0.03624920
#
# Stress axis : x y z
#
# Youngs Moduli (GPa) = 74.09305 85.35422 17.87769
#
# Poissons Ratio (x) = 0.31924 0.16554
# Poissons Ratio (y) = 0.27712 0.16894
# Poissons Ratio (z) = 0.68608 0.80656
#
# Static dielectric constant tensor:
#      x y z
#    x 1.622480 0.000000 0.000000 
#    y 0.000000 1.650380 0.000000 
#    z 0.000000 0.000000 1.636420 
# 
# From -- ./inp_files/63633.got.cif
#   From: 2010.05.17/outbox.cif.g08.bks.cpg/sg71_32_cif.got.tgz:63633.got - 2010.06.03 16:22:01.
