data_PCOD9523990
_publ_section_title
;
Structure prediction by ZEFSAII (Michael W. Deem and Ramdas Pophale) SiO2 
 PCOD9523990
Probable space group: I M M M
;
_chemical_formula_sum "Si O2"
_cell_formula_units_Z 80
_cell_length_a 23.281875
_cell_length_b 11.125183
_cell_length_c 19.227621
_cell_angle_alpha 90.000000
_cell_angle_beta 90.000000
_cell_angle_gamma 90.000000
_cell_volume 4980.244560
_symmetry_space_group_name_H-M "I M M M"
_symmetry_group_IT_number 71
_symmetry_cell_setting 'orthorhombic'
loop_
_space_group_symop_operation_xyz
x,y,z
-x,-y,z
x,-y,-z
-x,y,-z
-x,-y,-z
x,y,-z
-x,y,z
x,-y,z
1/2+x,1/2+y,1/2+z
1/2-x,1/2-y,1/2+z
1/2+x,1/2-y,1/2-z
1/2-x,1/2+y,1/2-z
1/2-x,1/2-y,1/2-z
1/2+x,1/2+y,1/2-z
1/2-x,1/2+y,1/2+z
1/2+x,1/2-y,1/2+z
loop_
_atom_site_type_symbol
_atom_site_label
_atom_site_fract_x
_atom_site_fract_y
_atom_site_fract_z
Si Si1 0.916927 0.000000 0.418534
Si Si2 0.129827 0.642774 0.500000
Si Si3 0.720435 0.500000 0.080072
Si Si4 0.666081 0.855856 0.229845
Si Si5 0.231150 0.744664 0.857938
Si Si6 0.763019 0.143552 0.000000
Si Si7 0.065568 0.262130 0.636236
O O1 0.935091 0.119568 0.378250
O O2 0.935799 0.000000 0.500000
O O3 0.848064 0.000000 0.420704
O O4 0.132786 0.500000 0.500000
O O5 0.195824 0.687456 0.500000
O O6 0.095581 0.685425 0.432799
O O7 0.741646 0.617879 0.119451
O O8 0.741007 0.500000 0.000000
O O9 0.718483 0.825112 0.176692
O O10 0.683838 0.787116 0.300316
O O11 0.607496 0.803403 0.197894
O O12 0.662499 0.000000 0.238632
O O13 0.210546 0.807428 0.928658
O O14 0.763313 0.000000 0.000000
O O15 0.000000 0.304325 0.644163
#
# Coordination Sequence:
#
# PCOD9523990 Si02
#       7
#     8   8   8  16  16   8  16
#     4  11  21  36  53  76 108 141 186 231 263 308
#     4  11  21  35  51  76 110 146 187 223 257 307
#     4  11  18  33  58  79 105 138 175 225 272 323
#     4  11  23  37  52  77 110 143 179 223 269 318
#     4  11  21  35  55  80 107 140 178 218 274 327
#     4  11  20  36  57  81 113 142 173 221 267 319
#     4  12  24  37  53  74 106 149 191 226 263 310
#
# _framework density 16.063469000000001
#
# number of rings (size 3 to 8) (size 9 to 14) (size 15 to 20)
#    0.000    0.800    7.000    1.800    0.000    2.400 
#    1.800    0.000    0.000    0.000    0.000    0.700 
#    0.000    3.200    0.000    0.000    0.000    0.000 
#
# Total GULP energy -223440.676220 kJ/mol
# GULP energy per Si atom -5586.016905 kJ/mol
# Density = 1.602691 g / cm^3
# Si number density = 16.063469 Si / 1000 Ang^3
#
#
#
# Elastic Constant Matrix: (Units=GPa)
#
#
# Indices 1 2 3 4 5 6 
#
# 1 79.7495 22.0565 52.6463 0.0000 0.0000 0.0000
# 2 22.0565 84.1456 31.7523 0.0000 0.0000 0.0000
# 3 52.6463 31.7523 121.7758 0.0000 0.0000 0.0000
# 4 0.0000 0.0000 0.0000 22.9523 0.0000 0.0000
# 5 0.0000 0.0000 0.0000 0.0000 24.6982 0.0000
# 6 0.0000 0.0000 0.0000 0.0000 0.0000 97.0363
#
#
#
# Elastic Compliance Matrix: (Units=1/GPa)
#
#
# Indices 1 2 3 4 5 6 
#
# 1 0.017833 -0.001958 -0.007199 0.000000 0.000000 0.000000
# 2 -0.001958 0.013396 -0.002646 0.000000 0.000000 0.000000
# 3 -0.007199 -0.002646 0.012014 0.000000 0.000000 0.000000
# 4 0.000000 0.000000 0.000000 0.043569 0.000000 0.000000
# 5 0.000000 0.000000 0.000000 0.000000 0.040489 0.000000
# 6 0.000000 0.000000 0.000000 0.000000 0.000000 0.010305
#
#
# Mechanical properties :
#
#
# Convention : Reuss Voigt Hill
#
# Bulk Modulus (GPa) = 50.92595 55.39791 53.16193
# Shear Modulus (GPa) = 29.80465 40.88507 35.34486
#
# Velocity S-wave (km/s) = 4.31214 5.05049 4.69585
# Velocity P-wave (km/s) = 7.52094 8.28080 7.91000
#
# Compressibility (1/GPa) = 0.01963635
#
# Stress axis : x y z
#
# Youngs Moduli (GPa) = 56.07491 74.64906 83.23452
#
# Poissons Ratio (x) = 0.14616 0.59922
# Poissons Ratio (y) = 0.10979 0.22028
# Poissons Ratio (z) = 0.40370 0.19756
#
# Static dielectric constant tensor:
#      x y z
#    x 1.519360 0.000000 0.000000 
#    y 0.000000 1.562250 0.000000 
#    z 0.000000 0.000000 1.551980 
# 
# From -- ./inp_files/27385.got.cif
#   From: 2010.05.17/outbox.cif.g08.bks.cpg/sg71_14_cif.got.tgz:27385.got - 2010.06.03 16:22:01.
