data_PCOD9523264
_publ_section_title
;
Structure prediction by ZEFSAII (Michael W. Deem and Ramdas Pophale) SiO2 
 PCOD9523264
Probable space group: I M M M
;
_chemical_formula_sum "Si O2"
_cell_formula_units_Z 116
_cell_length_a 29.412153
_cell_length_b 8.800111
_cell_length_c 26.051728
_cell_angle_alpha 90.000000
_cell_angle_beta 90.000000
_cell_angle_gamma 90.000000
_cell_volume 6742.974259
_symmetry_space_group_name_H-M "I M M M"
_symmetry_group_IT_number 71
_symmetry_cell_setting 'orthorhombic'
loop_
_space_group_symop_operation_xyz
x,y,z
-x,-y,z
x,-y,-z
-x,y,-z
-x,-y,-z
x,y,-z
-x,y,z
x,-y,z
1/2+x,1/2+y,1/2+z
1/2-x,1/2-y,1/2+z
1/2+x,1/2-y,1/2-z
1/2-x,1/2+y,1/2-z
1/2-x,1/2-y,1/2-z
1/2+x,1/2+y,1/2-z
1/2-x,1/2+y,1/2+z
1/2+x,1/2-y,1/2+z
loop_
_atom_site_type_symbol
_atom_site_label
_atom_site_fract_x
_atom_site_fract_y
_atom_site_fract_z
Si Si1 0.878585 0.817936 0.440983
Si Si2 0.802880 0.331674 0.899896
Si Si3 0.795341 0.818101 0.724161
Si Si4 0.446442 0.818598 0.857044
Si Si5 0.135269 0.318165 0.195543
Si Si6 0.171100 0.500000 0.000000
Si Si7 0.207931 0.680389 0.611140
Si Si8 0.446586 0.680467 0.254607
O O1 0.889983 0.780023 0.500000
O O2 0.914805 0.750320 0.401062
O O3 0.829164 0.752162 0.426740
O O4 0.877528 0.000000 0.435881
O O5 0.785262 0.500000 0.881589
O O6 0.839303 0.280438 0.857680
O O7 0.825203 0.369856 0.954316
O O8 0.759297 0.225104 0.903807
O O9 0.750000 0.750000 0.750000
O O10 0.836371 0.761312 0.759406
O O11 0.800130 0.751534 0.667312
O O12 0.793219 0.000000 0.723174
O O13 0.500000 0.786525 0.866817
O O14 0.435007 0.748677 0.801440
O O15 0.440360 0.000000 0.854962
O O16 0.136109 0.500000 0.201549
O O17 0.084472 0.257735 0.202487
O O18 0.202404 0.500000 0.613124
O O19 0.500000 0.709123 0.263071
O O20 0.438936 0.500000 0.253661
#
# Coordination Sequence:
#
# PCOD9523264 Si02
#       8
#    16  16  16  16  16   4  16  16
#     4  11  25  41  58  78 106 149 199 250 296 342
#     4   9  20  37  59  80 108 150 189 232 280 337
#     4  12  23  36  54  80 117 155 192 235 283 350
#     4  10  21  39  61  84 112 145 185 237 295 351
#     4  11  21  35  57  86 116 153 189 234 284 343
#     4   8  20  40  62  80 109 154 195 238 282 338
#     4  12  24  37  55  81 114 151 193 242 294 345
#     4  10  21  37  59  87 121 156 188 228 283 349
#
# _framework density 17.203091000000001
#
# number of rings (size 3 to 8) (size 9 to 14) (size 15 to 20)
#    0.414    0.966    1.379    4.966    0.966    3.586 
#    0.000    1.379    0.000    0.000    0.000    0.966 
#    0.000    1.103    0.000    0.000    0.000    0.000 
#
# Total GULP energy -323379.910037 kJ/mol
# GULP energy per Si atom -5575.515690 kJ/mol
# Density = 1.716394 g / cm^3
# Si number density = 17.203091 Si / 1000 Ang^3
#
#
#
# Elastic Constant Matrix: (Units=GPa)
#
#
# Indices 1 2 3 4 5 6 
#
# 1 75.4697 35.8283 28.6061 0.0000 0.0000 0.0000
# 2 35.8283 71.1879 10.2085 0.0000 0.0000 0.0000
# 3 28.6061 10.2085 45.4128 0.0000 0.0000 0.0000
# 4 0.0000 0.0000 0.0000 25.9134 0.0000 0.0000
# 5 0.0000 0.0000 0.0000 0.0000 20.6690 0.0000
# 6 0.0000 0.0000 0.0000 0.0000 0.0000 30.2533
#
#
#
# Elastic Compliance Matrix: (Units=1/GPa)
#
#
# Indices 1 2 3 4 5 6 
#
# 1 0.022269 -0.009502 -0.011891 0.000000 0.000000 0.000000
# 2 -0.009502 0.018570 0.001811 0.000000 0.000000 0.000000
# 3 -0.011891 0.001811 0.029104 0.000000 0.000000 0.000000
# 4 0.000000 0.000000 0.000000 0.038590 0.000000 0.000000
# 5 0.000000 0.000000 0.000000 0.000000 0.048382 0.000000
# 6 0.000000 0.000000 0.000000 0.000000 0.000000 0.033054
#
#
# Mechanical properties :
#
#
# Convention : Reuss Voigt Hill
#
# Bulk Modulus (GPa) = 32.49130 37.92847 35.20989
# Shear Modulus (GPa) = 20.88620 23.19564 22.04092
#
# Velocity S-wave (km/s) = 3.48817 3.67596 3.58329
# Velocity P-wave (km/s) = 5.92883 6.33342 6.13446
#
# Compressibility (1/GPa) = 0.03077747
#
# Stress axis : x y z
#
# Youngs Moduli (GPa) = 44.90587 53.85004 34.36009
#
# Poissons Ratio (x) = 0.51171 0.40859
# Poissons Ratio (y) = 0.42672 -0.06224
# Poissons Ratio (z) = 0.53399 -0.09754
#
# Static dielectric constant tensor:
#      x y z
#    x 1.603830 0.000000 0.000000 
#    y 0.000000 1.583100 0.000000 
#    z 0.000000 0.000000 1.532680 
# 
# From -- ./inp_files/67131.got.cif
#   From: 2010.05.17/outbox.cif.g08.bks.cpg/sg71_34_cif.got.tgz:67131.got - 2010.06.03 16:22:01.
