data_PCOD9523534
_publ_section_title
;
Structure prediction by ZEFSAII (Michael W. Deem and Ramdas Pophale) SiO2 
 PCOD9523534
Probable space group: I M M M
;
_chemical_formula_sum "Si O2"
_cell_formula_units_Z 80
_cell_length_a 14.931288
_cell_length_b 13.722656
_cell_length_c 19.781832
_cell_angle_alpha 90.000000
_cell_angle_beta 90.000000
_cell_angle_gamma 90.000000
_cell_volume 4053.236624
_symmetry_space_group_name_H-M "I M M M"
_symmetry_group_IT_number 71
_symmetry_cell_setting 'orthorhombic'
loop_
_space_group_symop_operation_xyz
x,y,z
-x,-y,z
x,-y,-z
-x,y,-z
-x,-y,-z
x,y,-z
-x,y,z
x,-y,z
1/2+x,1/2+y,1/2+z
1/2-x,1/2-y,1/2+z
1/2+x,1/2-y,1/2-z
1/2-x,1/2+y,1/2-z
1/2-x,1/2-y,1/2-z
1/2+x,1/2+y,1/2-z
1/2-x,1/2+y,1/2+z
1/2+x,1/2-y,1/2+z
loop_
_atom_site_type_symbol
_atom_site_label
_atom_site_fract_x
_atom_site_fract_y
_atom_site_fract_z
Si Si1 0.268450 0.233010 0.924109
Si Si2 0.785613 0.383364 0.816567
Si Si3 0.094941 0.116537 0.255516
Si Si4 0.607490 0.115436 0.181029
Si Si5 0.096247 0.884614 0.095573
O O1 0.219613 0.323514 0.885998
O O2 0.341855 0.181059 0.875180
O O3 0.186953 0.158158 0.931097
O O4 0.302445 0.256739 0.000000
O O5 0.790703 0.500000 0.827890
O O6 0.689092 0.355220 0.785615
O O7 0.857591 0.359921 0.757390
O O8 0.098332 0.133257 0.175956
O O9 0.000000 0.156760 0.282526
O O10 0.091547 0.000000 0.265263
O O11 0.500000 0.123113 0.176821
O O12 0.631584 0.000000 0.170780
O O13 0.000000 0.845183 0.072107
O O14 0.095519 0.000000 0.084632
#
# Coordination Sequence:
#
# PCOD9523534 Si02
#       5
#    16  16  16  16  16
#     4  12  25  38  56  88 126 161 196 238 298 369
#     4  10  21  40  62  85 115 154 205 255 295 340
#     4   8  14  28  55  86 109 133 175 235 294 337
#     4  10  22  41  64  89 118 157 206 254 297 348
#     4   9  18  34  57  86 117 145 179 232 298 358
#
# _framework density 19.737314000000001
#
# number of rings (size 3 to 8) (size 9 to 14) (size 15 to 20)
#    0.000    2.200    2.000    2.400    0.000    4.400 
#    0.000    2.000    0.000    0.000    0.000    8.400 
#    0.000    0.000    0.000    0.000    0.000    0.000 
#
# Total GULP energy -222912.612557 kJ/mol
# GULP energy per Si atom -5572.815314 kJ/mol
# Density = 1.969239 g / cm^3
# Si number density = 19.737314 Si / 1000 Ang^3
#
#
#
# Elastic Constant Matrix: (Units=GPa)
#
#
# Indices 1 2 3 4 5 6 
#
# 1 105.7913 15.2471 38.2127 0.0000 0.0000 0.0000
# 2 15.2471 88.8835 52.5114 0.0000 0.0000 0.0000
# 3 38.2127 52.5114 119.8517 0.0000 0.0000 0.0000
# 4 0.0000 0.0000 0.0000 -7.7771 0.0000 0.0000
# 5 0.0000 0.0000 0.0000 0.0000 -24.2360 0.0000
# 6 0.0000 0.0000 0.0000 0.0000 0.0000 4.9575
#
#
#
# Elastic Compliance Matrix: (Units=1/GPa)
#
#
# Indices 1 2 3 4 5 6 
#
# 1 0.010687 0.000243 -0.003514 0.000000 0.000000 0.000000
# 2 0.000243 0.015185 -0.006731 0.000000 0.000000 0.000000
# 3 -0.003514 -0.006731 0.012413 0.000000 0.000000 0.000000
# 4 0.000000 0.000000 0.000000 -0.128583 0.000000 0.000000
# 5 0.000000 0.000000 0.000000 0.000000 -0.041261 0.000000
# 6 0.000000 0.000000 0.000000 0.000000 0.000000 0.201713
#
#
# Mechanical properties :
#
#
# Convention : Reuss Voigt Hill
#
# Bulk Modulus (GPa) = 54.69936 58.49655 56.59795
# Shear Modulus (GPa) = 51.94761 8.49259 30.22010
#
# Velocity S-wave (km/s) = 5.13582 2.07657 3.91719
# Velocity P-wave (km/s) = 7.93364 5.95411 7.01406
#
# Compressibility (1/GPa) = 0.01828175
#
# Stress axis : x y z
#
# Youngs Moduli (GPa) = 93.57393 65.85238 80.56177
#
# Poissons Ratio (x) = -0.01597 0.28306
# Poissons Ratio (y) = -0.02270 0.54223
# Poissons Ratio (z) = 0.32878 0.44323
#
# Static dielectric constant tensor:
#      x y z
#    x 1.688320 0.000000 0.000000 
#    y 0.000000 1.750140 0.000000 
#    z 0.000000 0.000000 1.756120 
# 
# From -- ./inp_files/52831.got.cif
#   From: 2010.05.17/outbox.cif.g08.bks.cpg/sg71_27_cif.got.tgz:52831.got - 2010.06.03 16:22:01.
