data_PCOD9523022
_publ_section_title
;
Structure prediction by ZEFSAII (Michael W. Deem and Ramdas Pophale) SiO2 
 PCOD9523022
Probable space group: I M M M
;
_chemical_formula_sum "Si O2"
_cell_formula_units_Z 100
_cell_length_a 19.615912
_cell_length_b 14.128122
_cell_length_c 20.238598
_cell_angle_alpha 90.000000
_cell_angle_beta 90.000000
_cell_angle_gamma 90.000000
_cell_volume 5608.844052
_symmetry_space_group_name_H-M "I M M M"
_symmetry_group_IT_number 71
_symmetry_cell_setting 'orthorhombic'
loop_
_space_group_symop_operation_xyz
x,y,z
-x,-y,z
x,-y,-z
-x,y,-z
-x,-y,-z
x,y,-z
-x,y,z
x,-y,z
1/2+x,1/2+y,1/2+z
1/2-x,1/2-y,1/2+z
1/2+x,1/2-y,1/2-z
1/2-x,1/2+y,1/2-z
1/2-x,1/2-y,1/2-z
1/2+x,1/2+y,1/2-z
1/2-x,1/2+y,1/2+z
1/2+x,1/2-y,1/2+z
loop_
_atom_site_type_symbol
_atom_site_label
_atom_site_fract_x
_atom_site_fract_y
_atom_site_fract_z
Si Si1 0.922251 0.388223 0.239903
Si Si2 0.851233 0.109988 0.573982
Si Si3 0.818766 0.765490 0.206989
Si Si4 0.744262 0.209884 0.924650
Si Si5 0.576525 0.387383 0.209245
Si Si6 0.000000 0.315354 0.500000
Si Si7 0.894983 0.611089 0.395063
O O1 0.914091 0.500000 0.229148
O O2 0.863824 0.329424 0.204092
O O3 0.911822 0.371298 0.318464
O O4 0.000000 0.362643 0.222016
O O5 0.881060 0.120175 0.500000
O O6 0.790771 0.185809 0.580260
O O7 0.903927 0.128385 0.632668
O O8 0.828650 0.000000 0.580412
O O9 0.750000 0.750000 0.250000
O O10 0.798133 0.798020 0.133997
O O11 0.867095 0.838065 0.245938
O O12 0.683004 0.137046 0.909568
O O13 0.768307 0.197239 0.000000
O O14 0.500000 0.352817 0.222438
O O15 0.578064 0.500000 0.220001
O O16 0.058959 0.326817 0.442644
O O17 0.909076 0.500000 0.409089
#
# Coordination Sequence:
#
# PCOD9523022 Si02
#       7
#    16  16  16  16  16   4  16
#     4  10  21  36  56  83 113 145 184 229 278 328
#     4   9  18  34  54  78 111 146 180 217 259 320
#     4  12  22  36  57  83 110 146 188 232 274 326
#     4  11  23  37  51  79 112 145 184 222 273 328
#     4  10  21  37  57  81 111 148 187 227 274 325
#     4  12  21  32  52  80 121 162 181 202 252 332
#     4  11  20  32  52  80 114 150 181 210 255 325
#
# _framework density 17.828986
#
# number of rings (size 3 to 8) (size 9 to 14) (size 15 to 20)
#    0.000    1.440    4.800    1.200    0.000    2.240 
#    1.440    1.600    0.000    1.920    0.000    2.240 
#    0.000    0.000    0.000    0.000    0.000    0.000 
#
# Total GULP energy -278796.615049 kJ/mol
# GULP energy per Si atom -5575.932301 kJ/mol
# Density = 1.778841 g / cm^3
# Si number density = 17.828986 Si / 1000 Ang^3
#
#
#
# Elastic Constant Matrix: (Units=GPa)
#
#
# Indices 1 2 3 4 5 6 
#
# 1 113.9947 25.2367 65.8812 0.0000 0.0000 0.0000
# 2 25.2367 52.0421 13.0438 0.0000 0.0000 0.0000
# 3 65.8812 13.0438 94.9292 0.0000 0.0000 0.0000
# 4 0.0000 0.0000 0.0000 20.0436 0.0000 0.0000
# 5 0.0000 0.0000 0.0000 0.0000 5.3494 0.0000
# 6 0.0000 0.0000 0.0000 0.0000 0.0000 21.1155
#
#
#
# Elastic Compliance Matrix: (Units=1/GPa)
#
#
# Indices 1 2 3 4 5 6 
#
# 1 0.015858 -0.005107 -0.010304 0.000000 0.000000 0.000000
# 2 -0.005107 0.021546 0.000584 0.000000 0.000000 0.000000
# 3 -0.010304 0.000584 0.017605 0.000000 0.000000 0.000000
# 4 0.000000 0.000000 0.000000 0.049891 0.000000 0.000000
# 5 0.000000 0.000000 0.000000 0.000000 0.186936 0.000000
# 6 0.000000 0.000000 0.000000 0.000000 0.000000 0.047359
#
#
# Mechanical properties :
#
#
# Convention : Reuss Voigt Hill
#
# Bulk Modulus (GPa) = 39.44124 52.14326 45.79225
# Shear Modulus (GPa) = 13.25208 19.75534 16.50371
#
# Velocity S-wave (km/s) = 2.72929 3.33234 3.04578
# Velocity P-wave (km/s) = 5.66587 6.64198 6.17324
#
# Compressibility (1/GPa) = 0.02535417
#
# Stress axis : x y z
#
# Youngs Moduli (GPa) = 63.06044 46.41324 56.80329
#
# Poissons Ratio (x) = 0.23705 0.58528
# Poissons Ratio (y) = 0.32208 -0.03318
# Poissons Ratio (z) = 0.64975 -0.02711
#
# Static dielectric constant tensor:
#      x y z
#    x 1.598000 0.000000 0.000000 
#    y 0.000000 1.669490 0.000000 
#    z 0.000000 0.000000 1.597180 
# 
# From -- ./inp_files/53178.got.cif
#   From: 2010.05.17/outbox.cif.g08.bks.cpg/sg71_27_cif.got.tgz:53178.got - 2010.06.03 16:22:01.
