data_PCOD9523098
_publ_section_title
;
Structure prediction by ZEFSAII (Michael W. Deem and Ramdas Pophale) SiO2 
 PCOD9523098
Probable space group: I M M M
;
_chemical_formula_sum "Si O2"
_cell_formula_units_Z 72
_cell_length_a 21.319733
_cell_length_b 14.413042
_cell_length_c 10.920753
_cell_angle_alpha 90.000000
_cell_angle_beta 90.000000
_cell_angle_gamma 90.000000
_cell_volume 3355.753086
_symmetry_space_group_name_H-M "I M M M"
_symmetry_group_IT_number 71
_symmetry_cell_setting 'orthorhombic'
loop_
_space_group_symop_operation_xyz
x,y,z
-x,-y,z
x,-y,-z
-x,y,-z
-x,-y,-z
x,y,-z
-x,y,z
x,-y,z
1/2+x,1/2+y,1/2+z
1/2-x,1/2-y,1/2+z
1/2+x,1/2-y,1/2-z
1/2-x,1/2+y,1/2-z
1/2-x,1/2-y,1/2-z
1/2+x,1/2+y,1/2-z
1/2-x,1/2+y,1/2+z
1/2+x,1/2-y,1/2+z
loop_
_atom_site_type_symbol
_atom_site_label
_atom_site_fract_x
_atom_site_fract_y
_atom_site_fract_z
Si Si1 0.681359 0.107262 0.500000
Si Si2 0.373914 0.104221 0.859078
Si Si3 0.069792 0.241711 0.000000
Si Si4 0.241856 0.106053 0.751267
Si Si5 0.575005 0.604363 0.000000
Si Si6 0.614007 0.704520 0.250095
O O1 0.625015 0.180945 0.500000
O O2 0.724669 0.118546 0.380220
O O3 0.658676 0.000000 0.500000
O O4 0.298443 0.112491 0.848036
O O5 0.399029 0.187266 0.777528
O O6 0.390285 0.000000 0.817834
O O7 0.393136 0.115325 0.000000
O O8 0.079106 0.182673 0.123986
O O9 0.000000 0.282126 0.000000
O O10 0.186810 0.178922 0.769991
O O11 0.216826 0.000000 0.756126
O O12 0.595915 0.653226 0.875002
O O13 0.600524 0.500000 0.000000
O O14 0.500000 0.602503 0.000000
#
# Coordination Sequence:
#
# PCOD9523098 Si02
#       6
#     8  16   8  16   8  16
#     4  10  21  39  63  95 133 167 217 278 328 389
#     4  10  21  36  59  95 134 166 206 260 324 395
#     4  12  28  42  60  94 136 184 231 260 311 394
#     4  10  21  36  61  98 131 163 211 272 340 400
#     4  11  25  47  71  91 116 162 223 277 323 380
#     4  12  23  41  69  94 133 171 217 270 334 387
#
# _framework density 21.455690000000001
#
# number of rings (size 3 to 8) (size 9 to 14) (size 15 to 20)
#    0.000    1.222    3.333    2.667    1.556    1.111 
#    0.000    1.667    0.000    6.667    0.000    0.000 
#    0.000    0.000    0.000    0.000    0.000    0.000 
#
# Total GULP energy -201184.983879 kJ/mol
# GULP energy per Si atom -5588.471774 kJ/mol
# Density = 2.140686 g / cm^3
# Si number density = 21.455690 Si / 1000 Ang^3
#
#
#
# Elastic Constant Matrix: (Units=GPa)
#
#
# Indices 1 2 3 4 5 6 
#
# 1 34.7994 -4.2125 8.1693 0.0000 0.0000 0.0000
# 2 -4.2125 89.5993 37.7715 0.0000 0.0000 0.0000
# 3 8.1693 37.7715 138.3647 0.0000 0.0000 0.0000
# 4 0.0000 0.0000 0.0000 15.4504 0.0000 0.0000
# 5 0.0000 0.0000 0.0000 0.0000 -23.6012 0.0000
# 6 0.0000 0.0000 0.0000 0.0000 0.0000 11.8235
#
#
#
# Elastic Compliance Matrix: (Units=1/GPa)
#
#
# Indices 1 2 3 4 5 6 
#
# 1 0.029591 0.002404 -0.002404 0.000000 0.000000 0.000000
# 2 0.002404 0.012808 -0.003638 0.000000 0.000000 0.000000
# 3 -0.002404 -0.003638 0.008362 0.000000 0.000000 0.000000
# 4 0.000000 0.000000 0.000000 0.064723 0.000000 0.000000
# 5 0.000000 0.000000 0.000000 0.000000 -0.042371 0.000000
# 6 0.000000 0.000000 0.000000 0.000000 0.000000 0.084577
#
#
# Mechanical properties :
#
#
# Convention : Reuss Voigt Hill
#
# Bulk Modulus (GPa) = 22.99550 38.46889 30.73219
# Shear Modulus (GPa) = 27.86114 15.47021 21.66567
#
# Velocity S-wave (km/s) = 3.60744 2.68811 3.18116
# Velocity P-wave (km/s) = 5.30023 5.25385 5.27709
#
# Compressibility (1/GPa) = 0.04348677
#
# Stress axis : x y z
#
# Youngs Moduli (GPa) = 33.79358 78.07873 119.58327
#
# Poissons Ratio (x) = -0.18774 0.28742
# Poissons Ratio (y) = -0.08126 0.43507
# Poissons Ratio (z) = 0.08122 0.28407
#
# Static dielectric constant tensor:
#      x y z
#    x 1.747440 0.000000 0.000000 
#    y 0.000000 1.808940 0.000000 
#    z 0.000000 0.000000 1.843420 
# 
# From -- ./inp_files/27028.got.cif
#   From: 2010.05.17/outbox.cif.g08.bks.cpg/sg71_14_cif.got.tgz:27028.got - 2010.06.03 16:22:01.
