data_PCOD9523300
_publ_section_title
;
Structure prediction by ZEFSAII (Michael W. Deem and Ramdas Pophale) SiO2 
 PCOD9523300
Probable space group: I M M M
;
_chemical_formula_sum "Si O2"
_cell_formula_units_Z 80
_cell_length_a 8.491383
_cell_length_b 15.808070
_cell_length_c 30.105687
_cell_angle_alpha 90.000000
_cell_angle_beta 90.000000
_cell_angle_gamma 90.000000
_cell_volume 4041.157923
_symmetry_space_group_name_H-M "I M M M"
_symmetry_group_IT_number 71
_symmetry_cell_setting 'orthorhombic'
loop_
_space_group_symop_operation_xyz
x,y,z
-x,-y,z
x,-y,-z
-x,y,-z
-x,-y,-z
x,y,-z
-x,y,z
x,-y,z
1/2+x,1/2+y,1/2+z
1/2-x,1/2-y,1/2+z
1/2+x,1/2-y,1/2-z
1/2-x,1/2+y,1/2-z
1/2-x,1/2-y,1/2-z
1/2+x,1/2+y,1/2-z
1/2-x,1/2+y,1/2+z
1/2+x,1/2-y,1/2+z
loop_
_atom_site_type_symbol
_atom_site_label
_atom_site_fract_x
_atom_site_fract_y
_atom_site_fract_z
Si Si1 0.310665 0.665261 0.592510
Si Si2 0.821604 0.500000 0.259622
Si Si3 0.190155 0.649013 0.879926
Si Si4 0.674886 0.000000 0.135630
Si Si5 0.186495 0.830359 0.720875
Si Si6 0.192499 0.902986 0.000000
Si Si7 0.689506 0.500000 0.053800
O O1 0.500000 0.667848 0.592880
O O2 0.255614 0.757435 0.605827
O O3 0.260162 0.585796 0.621640
O O4 0.253801 0.643811 0.543524
O O5 0.836738 0.500000 0.312043
O O6 0.729830 0.415708 0.246676
O O7 0.000000 0.500000 0.240090
O O8 0.243613 0.649213 0.828277
O O9 0.253496 0.580079 0.915676
O O10 0.000000 0.642402 0.880801
O O11 0.500000 0.000000 0.115569
O O12 0.250000 0.750000 0.750000
O O13 0.000000 0.818427 0.716434
O O14 0.000000 0.903688 0.000000
O O15 0.242869 0.000000 0.000000
O O16 0.500000 0.500000 0.053232
O O17 0.738773 0.500000 0.000000
#
# Coordination Sequence:
#
# PCOD9523300 Si02
#       7
#    16   8  16   8  16   8   8
#     4  10  21  37  61  88 120 160 203 249 300 360
#     4  11  24  42  64  90 123 164 210 260 317 378
#     4  11  24  42  68  97 126 165 218 275 328 388
#     4  11  23  37  57  89 128 163 197 245 301 366
#     4  12  25  43  67  96 132 171 215 268 328 397
#     4   9  16  32  58  85 116 153 195 242 288 344
#     4  11  26  47  68  93 132 178 223 278 344 405
#
# _framework density 19.796306000000001
#
# number of rings (size 3 to 8) (size 9 to 14) (size 15 to 20)
#    0.000    1.200    1.000    5.100    1.400    7.200 
#    0.000    1.000    0.000    0.000    0.000    0.000 
#    0.000    0.000    0.000    0.000    0.000    0.000 
#
# Total GULP energy -223092.584887 kJ/mol
# GULP energy per Si atom -5577.314622 kJ/mol
# Density = 1.975125 g / cm^3
# Si number density = 19.796306 Si / 1000 Ang^3
#
#
#
# Elastic Constant Matrix: (Units=GPa)
#
#
# Indices 1 2 3 4 5 6 
#
# 1 64.7831 30.0019 35.2323 0.0000 0.0000 0.0000
# 2 30.0019 178.2549 82.4810 0.0000 0.0000 0.0000
# 3 35.2323 82.4810 163.2133 0.0000 0.0000 0.0000
# 4 0.0000 0.0000 0.0000 32.0077 0.0000 0.0000
# 5 0.0000 0.0000 0.0000 0.0000 29.9344 0.0000
# 6 0.0000 0.0000 0.0000 0.0000 0.0000 27.9597
#
#
#
# Elastic Compliance Matrix: (Units=1/GPa)
#
#
# Indices 1 2 3 4 5 6 
#
# 1 0.017829 -0.001592 -0.003044 0.000000 0.000000 0.000000
# 2 -0.001592 0.007464 -0.003428 0.000000 0.000000 0.000000
# 3 -0.003044 -0.003428 0.008517 0.000000 0.000000 0.000000
# 4 0.000000 0.000000 0.000000 0.031243 0.000000 0.000000
# 5 0.000000 0.000000 0.000000 0.000000 0.033406 0.000000
# 6 0.000000 0.000000 0.000000 0.000000 0.000000 0.035766
#
#
# Mechanical properties :
#
#
# Convention : Reuss Voigt Hill
#
# Bulk Modulus (GPa) = 56.55944 77.96464 67.26204
# Shear Modulus (GPa) = 32.00050 35.21610 33.60830
#
# Velocity S-wave (km/s) = 4.02492 4.22230 4.12479
# Velocity P-wave (km/s) = 7.08750 7.95232 7.53233
#
# Compressibility (1/GPa) = 0.01768052
#
# Stress axis : x y z
#
# Youngs Moduli (GPa) = 56.08837 133.97068 117.41722
#
# Poissons Ratio (x) = 0.21332 0.35742
# Poissons Ratio (y) = 0.08931 0.40256
# Poissons Ratio (z) = 0.17073 0.45931
#
# Static dielectric constant tensor:
#      x y z
#    x 1.709920 0.000000 0.000000 
#    y 0.000000 1.630360 0.000000 
#    z 0.000000 0.000000 0.305830 
# 
# From -- ./inp_files/63111.got.cif
#   From: 2010.05.17/outbox.cif.g08.bks.cpg/sg71_32_cif.got.tgz:63111.got - 2010.06.03 16:22:01.
