data_PCOD9523442
_publ_section_title
;
Structure prediction by ZEFSAII (Michael W. Deem and Ramdas Pophale) SiO2 
 PCOD9523442
Probable space group: I M M M
;
_chemical_formula_sum "Si O2"
_cell_formula_units_Z 62
_cell_length_a 14.840679
_cell_length_b 12.292875
_cell_length_c 15.106489
_cell_angle_alpha 90.000000
_cell_angle_beta 90.000000
_cell_angle_gamma 90.000000
_cell_volume 2755.946457
_symmetry_space_group_name_H-M "I M M M"
_symmetry_group_IT_number 71
_symmetry_cell_setting 'orthorhombic'
loop_
_space_group_symop_operation_xyz
x,y,z
-x,-y,z
x,-y,-z
-x,y,-z
-x,-y,-z
x,y,-z
-x,y,z
x,-y,z
1/2+x,1/2+y,1/2+z
1/2-x,1/2-y,1/2+z
1/2+x,1/2-y,1/2-z
1/2-x,1/2+y,1/2-z
1/2-x,1/2-y,1/2-z
1/2+x,1/2+y,1/2-z
1/2-x,1/2+y,1/2+z
1/2+x,1/2-y,1/2+z
loop_
_atom_site_type_symbol
_atom_site_label
_atom_site_fract_x
_atom_site_fract_y
_atom_site_fract_z
Si Si1 0.500000 0.000000 0.000000
Si Si2 0.891633 0.785808 0.688564
Si Si3 0.390483 0.876270 0.335428
Si Si4 0.110871 0.000000 0.201570
Si Si5 0.633171 0.500000 0.500000
Si Si6 0.647288 0.198544 0.000000
Si Si7 0.847314 0.775291 0.000000
O O1 0.421331 0.097296 0.000000
O O2 0.861534 0.680558 0.744450
O O3 0.864561 0.771451 0.587486
O O4 0.000000 0.785506 0.689484
O O5 0.864394 0.893828 0.740955
O O6 0.500000 0.877831 0.337432
O O7 0.359461 0.800490 0.415338
O O8 0.359106 0.000000 0.343754
O O9 0.158902 0.000000 0.106499
O O10 0.000000 0.000000 0.189306
O O11 0.589561 0.620635 0.500000
O O12 0.750999 0.164490 0.000000
#
# Coordination Sequence:
#
# PCOD9523442 Si02
#       7
#     2  16  16   8   4   8   8
#     4  12  26  52  80  96 126 194 232 310 334 420
#     4  10  21  42  67  98 128 180 236 289 346 422
#     4  10  22  41  70 101 140 186 234 280 351 432
#     4  10  21  38  69  95 131 176 226 278 351 416
#     4  12  22  42  60  98 138 176 214 279 352 421
#     4  12  27  44  70  98 134 176 241 293 354 409
#     4  12  25  43  62 103 141 181 227 293 354 424
#
# _framework density 22.496808000000001
#
# number of rings (size 3 to 8) (size 9 to 14) (size 15 to 20)
#    0.000    1.290    3.871    1.355    1.806    3.613 
#    4.645    1.935    0.000    0.000    0.000    0.000 
#    0.000    0.000    0.000    0.000    0.000    0.000 
#
# Total GULP energy -172834.727335 kJ/mol
# GULP energy per Si atom -5575.313785 kJ/mol
# Density = 2.244560 g / cm^3
# Si number density = 22.496808 Si / 1000 Ang^3
#
#
#
# Elastic Constant Matrix: (Units=GPa)
#
#
# Indices 1 2 3 4 5 6 
#
# 1 84.6294 39.5096 16.6680 0.0000 0.0000 0.0000
# 2 39.5096 183.7885 94.9453 0.0000 0.0000 0.0000
# 3 16.6680 94.9453 220.4223 0.0000 0.0000 0.0000
# 4 0.0000 0.0000 0.0000 30.5690 0.0000 0.0000
# 5 0.0000 0.0000 0.0000 0.0000 -7.8728 0.0000
# 6 0.0000 0.0000 0.0000 0.0000 0.0000 6.4339
#
#
#
# Elastic Compliance Matrix: (Units=1/GPa)
#
#
# Indices 1 2 3 4 5 6 
#
# 1 0.013149 -0.002975 0.000287 0.000000 0.000000 0.000000
# 2 -0.002975 0.007671 -0.003079 0.000000 0.000000 0.000000
# 3 0.000287 -0.003079 0.005841 0.000000 0.000000 0.000000
# 4 0.000000 0.000000 0.000000 0.032713 0.000000 0.000000
# 5 0.000000 0.000000 0.000000 0.000000 -0.127019 0.000000
# 6 0.000000 0.000000 0.000000 0.000000 0.000000 0.155426
#
#
# Mechanical properties :
#
#
# Convention : Reuss Voigt Hill
#
# Bulk Modulus (GPa) = 66.10701 87.89843 77.00272
# Shear Modulus (GPa) = 47.91229 28.34051 38.12640
#
# Velocity S-wave (km/s) = 4.61991 3.55316 4.12120
# Velocity P-wave (km/s) = 7.60966 7.48262 7.54641
#
# Compressibility (1/GPa) = 0.01512699
#
# Stress axis : x y z
#
# Youngs Moduli (GPa) = 76.05414 130.35405 171.18943
#
# Poissons Ratio (x) = 0.38779 -0.04916
# Poissons Ratio (y) = 0.22626 0.52717
# Poissons Ratio (z) = -0.02184 0.40142
#
# Static dielectric constant tensor:
#      x y z
#    x 1.985840 0.000000 0.000000 
#    y 0.000000 1.801460 0.000000 
#    z 0.000000 0.000000 1.813420 
# 
# From -- ./inp_files/35864.got.cif
#   From: 2010.05.17/outbox.cif.g08.bks.cpg/sg71_18_cif.got.tgz:35864.got - 2010.06.03 16:22:01.
