data_PCOD9523824
_publ_section_title
;
Structure prediction by ZEFSAII (Michael W. Deem and Ramdas Pophale) SiO2 
 PCOD9523824
Probable space group: I M M M
;
_chemical_formula_sum "Si O2"
_cell_formula_units_Z 72
_cell_length_a 22.790562
_cell_length_b 10.017518
_cell_length_c 15.062470
_cell_angle_alpha 90.000000
_cell_angle_beta 90.000000
_cell_angle_gamma 90.000000
_cell_volume 3438.835181
_symmetry_space_group_name_H-M "I M M M"
_symmetry_group_IT_number 71
_symmetry_cell_setting 'orthorhombic'
loop_
_space_group_symop_operation_xyz
x,y,z
-x,-y,z
x,-y,-z
-x,y,-z
-x,-y,-z
x,y,-z
-x,y,z
x,-y,z
1/2+x,1/2+y,1/2+z
1/2-x,1/2-y,1/2+z
1/2+x,1/2-y,1/2-z
1/2-x,1/2+y,1/2-z
1/2-x,1/2-y,1/2-z
1/2+x,1/2+y,1/2-z
1/2-x,1/2+y,1/2+z
1/2+x,1/2-y,1/2+z
loop_
_atom_site_type_symbol
_atom_site_label
_atom_site_fract_x
_atom_site_fract_y
_atom_site_fract_z
Si Si1 0.337213 0.643621 0.903967
Si Si2 0.246375 0.842677 0.837518
Si Si3 0.388188 0.656890 0.398281
Si Si4 0.429692 0.000000 0.101089
Si Si5 0.932044 0.760310 0.282672
O O1 0.304942 0.500000 0.899405
O O2 0.293902 0.768030 0.897650
O O3 0.384213 0.643164 0.825666
O O4 0.367874 0.649780 0.000000
O O5 0.250000 0.750000 0.750000
O O6 0.181495 0.834448 0.878938
O O7 0.259251 0.000000 0.822334
O O8 0.400208 0.695656 0.500000
O O9 0.404803 0.500000 0.387922
O O10 0.420439 0.741363 0.322313
O O11 0.416907 0.873019 0.162308
O O12 0.500000 0.000000 0.091134
O O13 0.405190 0.000000 0.000000
O O14 0.000000 0.794377 0.298849
#
# Coordination Sequence:
#
# PCOD9523824 Si02
#       5
#    16  16  16   8  16
#     4  11  24  40  60  92 130 163 205 262 321 387
#     4  11  22  40  67  93 125 165 211 266 326 389
#     4  10  22  41  64  91 123 163 215 267 314 374
#     4   9  20  40  63  89 123 163 212 264 314 383
#     4  11  23  40  63  90 125 167 212 262 320 381
#
# _framework density 20.937321000000001
#
# number of rings (size 3 to 8) (size 9 to 14) (size 15 to 20)
#    0.000    1.444    2.222    2.667    1.556    4.889 
#    2.000    2.778    0.000    2.000    0.000    0.000 
#    0.000    0.000    0.000    0.000    0.000    0.000 
#
# Total GULP energy -200857.269371 kJ/mol
# GULP energy per Si atom -5579.368594 kJ/mol
# Density = 2.088967 g / cm^3
# Si number density = 20.937321 Si / 1000 Ang^3
#
#
#
# Elastic Constant Matrix: (Units=GPa)
#
#
# Indices 1 2 3 4 5 6 
#
# 1 54.6843 22.3880 10.8459 0.0000 0.0000 0.0000
# 2 22.3880 133.2846 47.8574 0.0000 0.0000 0.0000
# 3 10.8459 47.8574 179.3302 0.0000 0.0000 0.0000
# 4 0.0000 0.0000 0.0000 396.0749 0.0000 0.0000
# 5 0.0000 0.0000 0.0000 0.0000 25.6681 0.0000
# 6 0.0000 0.0000 0.0000 0.0000 0.0000 21.6629
#
#
#
# Elastic Compliance Matrix: (Units=1/GPa)
#
#
# Indices 1 2 3 4 5 6 
#
# 1 0.019656 -0.003179 -0.000340 0.000000 0.000000 0.000000
# 2 -0.003179 0.008812 -0.002159 0.000000 0.000000 0.000000
# 3 -0.000340 -0.002159 0.006173 0.000000 0.000000 0.000000
# 4 0.000000 0.000000 0.000000 0.002525 0.000000 0.000000
# 5 0.000000 0.000000 0.000000 0.000000 0.038959 0.000000
# 6 0.000000 0.000000 0.000000 0.000000 0.000000 0.046162
#
#
# Mechanical properties :
#
#
# Convention : Reuss Voigt Hill
#
# Bulk Modulus (GPa) = 42.94978 58.83130 50.89054
# Shear Modulus (GPa) = 35.35915 107.76169 71.56042
#
# Velocity S-wave (km/s) = 4.11397 7.18195 5.85257
# Velocity P-wave (km/s) = 6.56692 9.84549 8.36834
#
# Compressibility (1/GPa) = 0.02328301
#
# Stress axis : x y z
#
# Youngs Moduli (GPa) = 50.87515 113.47969 161.99169
#
# Poissons Ratio (x) = 0.36080 0.05513
# Poissons Ratio (y) = 0.16175 0.34980
# Poissons Ratio (z) = 0.01731 0.24505
#
# Static dielectric constant tensor:
#      x y z
#    x 1.751540 0.000000 0.000000 
#    y 0.000000 1.812420 0.000000 
#    z 0.000000 0.000000 1.828820 
# 
# From -- ./inp_files/39954.got.cif
#   From: 2010.05.17/outbox.cif.g08.bks.cpg/sg71_20_cif.got.tgz:39954.got - 2010.06.03 16:22:01.
