data_PCOD9523843
_publ_section_title
;
Structure prediction by ZEFSAII (Michael W. Deem and Ramdas Pophale) SiO2 
 PCOD9523843
Probable space group: I M M M
;
_chemical_formula_sum "Si O2"
_cell_formula_units_Z 56
_cell_length_a 24.740037
_cell_length_b 13.334895
_cell_length_c 8.186705
_cell_angle_alpha 90.000000
_cell_angle_beta 90.000000
_cell_angle_gamma 90.000000
_cell_volume 2700.841427
_symmetry_space_group_name_H-M "I M M M"
_symmetry_group_IT_number 71
_symmetry_cell_setting 'orthorhombic'
loop_
_space_group_symop_operation_xyz
x,y,z
-x,-y,z
x,-y,-z
-x,y,-z
-x,-y,-z
x,y,-z
-x,y,z
x,-y,z
1/2+x,1/2+y,1/2+z
1/2-x,1/2-y,1/2+z
1/2+x,1/2-y,1/2-z
1/2-x,1/2+y,1/2-z
1/2-x,1/2-y,1/2-z
1/2+x,1/2+y,1/2-z
1/2-x,1/2+y,1/2+z
1/2+x,1/2-y,1/2+z
loop_
_atom_site_type_symbol
_atom_site_label
_atom_site_fract_x
_atom_site_fract_y
_atom_site_fract_z
Si Si1 0.586514 0.781771 0.812639
Si Si2 0.304130 0.699514 0.309269
Si Si3 0.623590 0.000000 0.800871
Si Si4 0.000000 0.881633 0.806571
Si Si5 0.251526 0.500000 0.196864
O O1 0.646788 0.740088 0.795761
O O2 0.549921 0.692504 0.738600
O O3 0.592780 0.897053 0.747076
O O4 0.569179 0.791796 0.000000
O O5 0.315619 0.717865 0.500000
O O6 0.250000 0.750000 0.250000
O O7 0.286829 0.588419 0.271402
O O8 0.687266 0.000000 0.746015
O O9 0.624793 0.000000 0.000000
O O10 0.000000 0.000000 0.742022
O O11 0.000000 0.892601 0.000000
O O12 0.252617 0.500000 0.000000
#
# Coordination Sequence:
#
# PCOD9523843 Si02
#       5
#    16  16   8   8   8
#     4  11  24  44  70  99 132 173 224 275 334 398
#     4  12  24  40  63  96 137 177 221 272 331 395
#     4  10  22  41  67  98 136 173 214 274 333 391
#     4  11  27  50  71  94 130 173 222 277 335 395
#     4  12  24  38  61  94 133 180 225 270 331 397
#
# _framework density 20.734279999999998
#
# number of rings (size 3 to 8) (size 9 to 14) (size 15 to 20)
#    0.000    0.714    2.857    5.143    2.000    2.857 
#    0.000    2.857    0.000    0.000    0.000    0.000 
#    0.000    0.000    0.000    0.000    0.000    0.000 
#
# Total GULP energy -155964.853817 kJ/mol
# GULP energy per Si atom -5570.173351 kJ/mol
# Density = 2.068709 g / cm^3
# Si number density = 20.734280 Si / 1000 Ang^3
#
#
#
# Elastic Constant Matrix: (Units=GPa)
#
#
# Indices 1 2 3 4 5 6 
#
# 1 105.5892 52.5300 -6.3192 0.0000 0.0000 0.0000
# 2 52.5300 210.9566 -3.6569 0.0000 0.0000 0.0000
# 3 -6.3192 -3.6569 56.9458 0.0000 0.0000 0.0000
# 4 0.0000 0.0000 0.0000 27.9418 0.0000 0.0000
# 5 0.0000 0.0000 0.0000 0.0000 32.9453 0.0000
# 6 0.0000 0.0000 0.0000 0.0000 0.0000 20.7949
#
#
#
# Elastic Compliance Matrix: (Units=1/GPa)
#
#
# Indices 1 2 3 4 5 6 
#
# 1 0.010870 -0.002689 0.001034 0.000000 0.000000 0.000000
# 2 -0.002689 0.005411 0.000049 0.000000 0.000000 0.000000
# 3 0.001034 0.000049 0.017678 0.000000 0.000000 0.000000
# 4 0.000000 0.000000 0.000000 0.035789 0.000000 0.000000
# 5 0.000000 0.000000 0.000000 0.000000 0.030353 0.000000
# 6 0.000000 0.000000 0.000000 0.000000 0.000000 0.048089
#
#
# Mechanical properties :
#
#
# Convention : Reuss Voigt Hill
#
# Bulk Modulus (GPa) = 32.52357 50.95549 41.73953
# Shear Modulus (GPa) = 30.93076 38.39892 34.66484
#
# Velocity S-wave (km/s) = 3.86653 4.30810 4.09328
# Velocity P-wave (km/s) = 5.97105 7.02675 6.52030
#
# Compressibility (1/GPa) = 0.03074693
#
# Stress axis : x y z
#
# Youngs Moduli (GPa) = 91.99453 184.81864 56.56623
#
# Poissons Ratio (x) = 0.49695 -0.05847
# Poissons Ratio (y) = 0.24736 -0.00278
# Poissons Ratio (z) = -0.09508 -0.00907
#
# Static dielectric constant tensor:
#      x y z
#    x 1.703700 0.000000 0.000000 
#    y 0.000000 1.683040 0.000000 
#    z 0.000000 0.000000 1.732740 
# 
# From -- ./inp_files/14026.got.cif
#   From: 2010.05.17/outbox.cif.g08.bks.cpg/sg71_8_cif.got.tgz:14026.got - 2010.06.03 16:22:01.
