data_PCOD9523758
_publ_section_title
;
Structure prediction by ZEFSAII (Michael W. Deem and Ramdas Pophale) SiO2 
 PCOD9523758
Probable space group: I M M M
;
_chemical_formula_sum "Si O2"
_cell_formula_units_Z 104
_cell_length_a 8.154368
_cell_length_b 28.397329
_cell_length_c 22.584306
_cell_angle_alpha 90.000000
_cell_angle_beta 90.000000
_cell_angle_gamma 90.000000
_cell_volume 5229.673184
_symmetry_space_group_name_H-M "I M M M"
_symmetry_group_IT_number 71
_symmetry_cell_setting 'orthorhombic'
loop_
_space_group_symop_operation_xyz
x,y,z
-x,-y,z
x,-y,-z
-x,y,-z
-x,-y,-z
x,y,-z
-x,y,z
x,-y,z
1/2+x,1/2+y,1/2+z
1/2-x,1/2-y,1/2+z
1/2+x,1/2-y,1/2-z
1/2-x,1/2+y,1/2-z
1/2-x,1/2-y,1/2-z
1/2+x,1/2+y,1/2-z
1/2-x,1/2+y,1/2+z
1/2+x,1/2-y,1/2+z
loop_
_atom_site_type_symbol
_atom_site_label
_atom_site_fract_x
_atom_site_fract_y
_atom_site_fract_z
Si Si1 0.192523 0.944850 0.000000
Si Si2 0.809595 0.201616 0.776400
Si Si3 0.303787 0.870803 0.320130
Si Si4 0.696399 0.946314 0.229589
Si Si5 0.806954 0.893973 0.111285
Si Si6 0.801795 0.811821 0.431769
Si Si7 0.313405 0.795022 0.902927
O O1 0.267116 0.927305 0.938946
O O2 0.000000 0.929011 0.000000
O O3 0.191999 0.000000 0.000000
O O4 0.750000 0.250000 0.750000
O O5 0.785084 0.164091 0.725336
O O6 0.693726 0.196402 0.832585
O O7 0.000000 0.202337 0.795581
O O8 0.500000 0.865989 0.313896
O O9 0.257473 0.921878 0.292732
O O10 0.259912 0.850913 0.385205
O O11 0.500000 0.949455 0.229702
O O12 0.739569 0.910995 0.175210
O O13 0.761496 0.000000 0.222154
O O14 0.782216 0.842326 0.081300
O O15 0.000000 0.900520 0.119180
O O16 0.755713 0.821385 0.500000
O O17 0.748471 0.757689 0.416151
O O18 0.000000 0.811320 0.427542
O O19 0.500000 0.796918 0.925102
#
# Coordination Sequence:
#
# PCOD9523758 Si02
#       7
#     8  16  16  16  16  16  16
#     4   9  20  38  55  75 109 153 201 253 300 343
#     4  12  22  34  55  84 116 150 187 229 278 336
#     4  11  22  37  60  87 117 153 192 240 296 355
#     4  10  22  40  61  86 117 149 188 244 304 356
#     4  11  22  36  57  84 115 155 200 245 293 347
#     4  10  23  41  60  83 116 159 200 243 294 349
#     4  11  22  36  55  81 116 154 191 234 285 342
#
# _framework density 19.886520999999998
#
# number of rings (size 3 to 8) (size 9 to 14) (size 15 to 20)
#    0.000    1.308    3.077    3.231    1.077    2.462 
#    0.000    1.154    0.000    3.231    0.000    3.231 
#    0.000    0.000    0.000    0.000    0.000    0.000 
#
# Total GULP energy -289647.194145 kJ/mol
# GULP energy per Si atom -5570.138349 kJ/mol
# Density = 1.984126 g / cm^3
# Si number density = 19.886521 Si / 1000 Ang^3
#
#
#
# Elastic Constant Matrix: (Units=GPa)
#
#
# Indices 1 2 3 4 5 6 
#
# 1 42.0854 14.8881 13.5683 0.0000 0.0000 0.0000
# 2 14.8881 98.2304 49.2611 0.0000 0.0000 0.0000
# 3 13.5683 49.2611 123.0733 0.0000 0.0000 0.0000
# 4 0.0000 0.0000 0.0000 30.2450 0.0000 0.0000
# 5 0.0000 0.0000 0.0000 0.0000 16.4312 0.0000
# 6 0.0000 0.0000 0.0000 0.0000 0.0000 19.5024
#
#
#
# Elastic Compliance Matrix: (Units=1/GPa)
#
#
# Indices 1 2 3 4 5 6 
#
# 1 0.025348 -0.003053 -0.001572 0.000000 0.000000 0.000000
# 2 -0.003053 0.013104 -0.004909 0.000000 0.000000 0.000000
# 3 -0.001572 -0.004909 0.010263 0.000000 0.000000 0.000000
# 4 0.000000 0.000000 0.000000 0.033063 0.000000 0.000000
# 5 0.000000 0.000000 0.000000 0.000000 0.060860 0.000000
# 6 0.000000 0.000000 0.000000 0.000000 0.000000 0.051276
#
#
# Mechanical properties :
#
#
# Convention : Reuss Voigt Hill
#
# Bulk Modulus (GPa) = 33.72970 46.53599 40.13285
# Shear Modulus (GPa) = 22.43501 25.61383 24.02442
#
# Velocity S-wave (km/s) = 3.36244 3.59276 3.47951
# Velocity P-wave (km/s) = 5.66327 6.37669 6.03054
#
# Compressibility (1/GPa) = 0.02964746
#
# Stress axis : x y z
#
# Youngs Moduli (GPa) = 39.45040 76.30972 97.43465
#
# Poissons Ratio (x) = 0.23300 0.15321
# Poissons Ratio (y) = 0.12045 0.47826
# Poissons Ratio (z) = 0.06203 0.37457
#
# Static dielectric constant tensor:
#      x y z
#    x 1.721920 0.000000 0.000000 
#    y 0.000000 1.636530 0.000000 
#    z 0.000000 0.000000 1.701490 
# 
# From -- ./inp_files/57980.got.cif
#   From: 2010.05.17/outbox.cif.g08.bks.cpg/sg71_29_cif.got.tgz:57980.got - 2010.06.03 16:22:01.
