data_PCOD9523279
_publ_section_title
;
Structure prediction by ZEFSAII (Michael W. Deem and Ramdas Pophale) SiO2 
 PCOD9523279
Probable space group: I M M M
;
_chemical_formula_sum "Si O2"
_cell_formula_units_Z 112
_cell_length_a 13.330337
_cell_length_b 15.577484
_cell_length_c 24.947235
_cell_angle_alpha 90.000000
_cell_angle_beta 90.000000
_cell_angle_gamma 90.000000
_cell_volume 5180.370967
_symmetry_space_group_name_H-M "I M M M"
_symmetry_group_IT_number 71
_symmetry_cell_setting 'orthorhombic'
loop_
_space_group_symop_operation_xyz
x,y,z
-x,-y,z
x,-y,-z
-x,y,-z
-x,-y,-z
x,y,-z
-x,y,z
x,-y,z
1/2+x,1/2+y,1/2+z
1/2-x,1/2-y,1/2+z
1/2+x,1/2-y,1/2-z
1/2-x,1/2+y,1/2-z
1/2-x,1/2-y,1/2-z
1/2+x,1/2+y,1/2-z
1/2-x,1/2+y,1/2+z
1/2+x,1/2-y,1/2+z
loop_
_atom_site_type_symbol
_atom_site_label
_atom_site_fract_x
_atom_site_fract_y
_atom_site_fract_z
Si Si1 0.383443 0.631988 0.057016
Si Si2 0.785289 0.306075 0.560127
Si Si3 0.885910 0.397355 0.657505
Si Si4 0.621470 0.598075 0.286540
Si Si5 0.112302 0.100872 0.327574
Si Si6 0.622343 0.900551 0.722237
Si Si7 0.381316 0.756018 0.365400
O O1 0.500000 0.605042 0.057602
O O2 0.371598 0.734092 0.056592
O O3 0.338810 0.607173 0.114281
O O4 0.339873 0.601387 0.000000
O O5 0.769701 0.341303 0.500000
O O6 0.821147 0.369323 0.606720
O O7 0.687390 0.255859 0.582314
O O8 0.889918 0.500000 0.659347
O O9 0.849074 0.371452 0.717115
O O10 0.000000 0.364843 0.650852
O O11 0.500000 0.593113 0.280575
O O12 0.655819 0.500000 0.298842
O O13 0.658672 0.630877 0.228209
O O14 0.636655 0.668945 0.331392
O O15 0.000000 0.140145 0.332492
O O16 0.101543 0.000000 0.317809
O O17 0.500000 0.903024 0.724508
O O18 0.645476 0.835133 0.674065
O O19 0.655719 0.000000 0.712956
O O20 0.500000 0.762095 0.377739
#
# Coordination Sequence:
#
# PCOD9523279 Si02
#       7
#    16  16  16  16  16  16  16
#     4   9  18  32  49  70 100 139 178 219 268 321
#     4  11  24  38  53  78 112 148 194 241 276 334
#     4   9  19  37  61  88 119 153 188 235 297 358
#     4   8  15  29  49  76 108 138 174 220 270 332
#     4   8  14  26  46  72 102 136 171 209 256 317
#     4   8  16  34  60  90 119 146 187 245 303 361
#     4  10  21  37  60  83 109 153 194 237 302 352
#
# _framework density 21.620073999999999
#
# number of rings (size 3 to 8) (size 9 to 14) (size 15 to 20)
#    0.000    3.000    0.000    2.143    2.000    2.857 
#    0.000    2.857    0.000    1.286    0.000    5.000 
#    0.000    0.000    0.000    0.000    0.000    0.000 
#
# Total GULP energy -312197.305291 kJ/mol
# GULP energy per Si atom -5574.951880 kJ/mol
# Density = 2.157087 g / cm^3
# Si number density = 21.620074 Si / 1000 Ang^3
#
#
#
# Elastic Constant Matrix: (Units=GPa)
#
#
# Indices 1 2 3 4 5 6 
#
# 1 93.7586 12.2872 54.3060 0.0000 0.0000 0.0000
# 2 12.2872 56.6771 26.6788 0.0000 0.0000 0.0000
# 3 54.3060 26.6788 157.3894 0.0000 0.0000 0.0000
# 4 0.0000 0.0000 0.0000 42.0199 0.0000 0.0000
# 5 0.0000 0.0000 0.0000 0.0000 21.8889 0.0000
# 6 0.0000 0.0000 0.0000 0.0000 0.0000 8.3502
#
#
#
# Elastic Compliance Matrix: (Units=1/GPa)
#
#
# Indices 1 2 3 4 5 6 
#
# 1 0.013362 -0.000790 -0.004477 0.000000 0.000000 0.000000
# 2 -0.000790 0.019220 -0.002986 0.000000 0.000000 0.000000
# 3 -0.004477 -0.002986 0.008404 0.000000 0.000000 0.000000
# 4 0.000000 0.000000 0.000000 0.023798 0.000000 0.000000
# 5 0.000000 0.000000 0.000000 0.000000 0.045685 0.000000
# 6 0.000000 0.000000 0.000000 0.000000 0.000000 0.119757
#
#
# Mechanical properties :
#
#
# Convention : Reuss Voigt Hill
#
# Bulk Modulus (GPa) = 40.84429 54.92989 47.88709
# Shear Modulus (GPa) = 19.61615 28.75536 24.18576
#
# Velocity S-wave (km/s) = 3.01543 3.65092 3.34828
# Velocity P-wave (km/s) = 5.57285 6.57528 6.09471
#
# Compressibility (1/GPa) = 0.02448323
#
# Stress axis : x y z
#
# Youngs Moduli (GPa) = 74.83867 52.02824 118.98567
#
# Poissons Ratio (x) = 0.04108 0.53266
# Poissons Ratio (y) = 0.05909 0.35524
# Poissons Ratio (z) = 0.33503 0.15533
#
# Static dielectric constant tensor:
#      x y z
#    x 1.881560 0.000000 0.000000 
#    y 0.000000 1.780210 0.000000 
#    z 0.000000 0.000000 1.814710 
# 
# From -- ./inp_files/59949.got.cif
#   From: 2010.05.17/outbox.cif.g08.bks.cpg/sg71_30_cif.got.tgz:59949.got - 2010.06.03 16:22:01.
