data_PCOD9523519
_publ_section_title
;
Structure prediction by ZEFSAII (Michael W. Deem and Ramdas Pophale) SiO2 
 PCOD9523519
Probable space group: I M M M
;
_chemical_formula_sum "Si O2"
_cell_formula_units_Z 60
_cell_length_a 10.490355
_cell_length_b 14.102434
_cell_length_c 20.087554
_cell_angle_alpha 90.000000
_cell_angle_beta 90.000000
_cell_angle_gamma 90.000000
_cell_volume 2971.743479
_symmetry_space_group_name_H-M "I M M M"
_symmetry_group_IT_number 71
_symmetry_cell_setting 'orthorhombic'
loop_
_space_group_symop_operation_xyz
x,y,z
-x,-y,z
x,-y,-z
-x,y,-z
-x,-y,-z
x,y,-z
-x,y,z
x,-y,z
1/2+x,1/2+y,1/2+z
1/2-x,1/2-y,1/2+z
1/2+x,1/2-y,1/2-z
1/2-x,1/2+y,1/2-z
1/2-x,1/2-y,1/2-z
1/2+x,1/2+y,1/2-z
1/2-x,1/2+y,1/2+z
1/2+x,1/2-y,1/2+z
loop_
_atom_site_type_symbol
_atom_site_label
_atom_site_fract_x
_atom_site_fract_y
_atom_site_fract_z
Si Si1 0.000000 0.000000 0.180414
Si Si2 0.651122 0.000000 0.615153
Si Si3 0.640919 0.791873 0.797376
Si Si4 0.245524 0.202864 0.574819
Si Si5 0.717893 0.000000 0.229016
Si Si6 0.500000 0.329263 0.424240
O O1 0.871071 0.000000 0.223264
O O2 0.000000 0.909231 0.131761
O O3 0.715182 0.905693 0.586527
O O4 0.500000 0.000000 0.600862
O O5 0.672558 0.000000 0.694674
O O6 0.500000 0.777064 0.768277
O O7 0.750000 0.750000 0.750000
O O8 0.653552 0.739685 0.867655
O O9 0.666261 0.903945 0.803963
O O10 0.196528 0.215783 0.500000
O O11 0.375050 0.264273 0.582207
O O12 0.500000 0.368903 0.500000
#
# Coordination Sequence:
#
# PCOD9523519 Si02
#       6
#     4   8  16  16   8   8
#     4  12  23  40  68 102 135 172 228 284 340 400
#     4  12  23  40  65  98 138 177 226 281 339 411
#     4  12  27  46  71  99 139 183 231 282 339 405
#     4  11  24  42  68 100 136 181 226 280 345 407
#     4  12  26  40  70 101 141 174 226 278 343 408
#     4  10  21  39  64  97 135 177 223 275 338 407
#
# _framework density 20.190166999999999
#
# number of rings (size 3 to 8) (size 9 to 14) (size 15 to 20)
#    0.000    0.533    6.667    1.800    3.733    1.067 
#    0.000    0.667    0.000    3.200    0.000    0.000 
#    0.000    0.000    0.000    0.000    0.000    0.000 
#
# Total GULP energy -167917.992530 kJ/mol
# GULP energy per Si atom -5597.266418 kJ/mol
# Density = 2.014421 g / cm^3
# Si number density = 20.190167 Si / 1000 Ang^3
#
#
#
# Elastic Constant Matrix: (Units=GPa)
#
#
# Indices 1 2 3 4 5 6 
#
# 1 123.4703 28.3300 23.3403 0.0000 0.0000 0.0000
# 2 28.3300 137.6885 40.8820 0.0000 0.0000 0.0000
# 3 23.3403 40.8820 92.0283 0.0000 0.0000 0.0000
# 4 0.0000 0.0000 0.0000 12.0542 0.0000 0.0000
# 5 0.0000 0.0000 0.0000 0.0000 27.7499 0.0000
# 6 0.0000 0.0000 0.0000 0.0000 0.0000 12.7275
#
#
#
# Elastic Compliance Matrix: (Units=1/GPa)
#
#
# Indices 1 2 3 4 5 6 
#
# 1 0.008707 -0.001308 -0.001627 0.000000 0.000000 0.000000
# 2 -0.001308 0.008563 -0.003472 0.000000 0.000000 0.000000
# 3 -0.001627 -0.003472 0.012821 0.000000 0.000000 0.000000
# 4 0.000000 0.000000 0.000000 0.082959 0.000000 0.000000
# 5 0.000000 0.000000 0.000000 0.000000 0.036036 0.000000
# 6 0.000000 0.000000 0.000000 0.000000 0.000000 0.078570
#
#
# Mechanical properties :
#
#
# Convention : Reuss Voigt Hill
#
# Bulk Modulus (GPa) = 57.88350 59.81017 58.84684
# Shear Modulus (GPa) = 20.30623 27.88196 24.09409
#
# Velocity S-wave (km/s) = 3.17479 3.72017 3.45825
# Velocity P-wave (km/s) = 6.49388 6.93834 6.71979
#
# Compressibility (1/GPa) = 0.01727608
#
# Stress axis : x y z
#
# Youngs Moduli (GPa) = 114.85167 116.78287 77.99530
#
# Poissons Ratio (x) = 0.15280 0.12690
# Poissons Ratio (y) = 0.15027 0.27081
# Poissons Ratio (z) = 0.18687 0.40548
#
# Static dielectric constant tensor:
#      x y z
#    x 1.706440 0.000000 0.000000 
#    y 0.000000 1.694650 0.000000 
#    z 0.000000 0.000000 1.707680 
# 
# From -- ./inp_files/19402.got.cif
#   From: 2010.05.17/outbox.cif.g08.bks.cpg/sg71_10_cif.got.tgz:19402.got - 2010.06.03 16:22:01.
