data_PCOD9523406
_publ_section_title
;
Structure prediction by ZEFSAII (Michael W. Deem and Ramdas Pophale) SiO2 
 PCOD9523406
Probable space group: I M M M
;
_chemical_formula_sum "Si O2"
_cell_formula_units_Z 72
_cell_length_a 14.548439
_cell_length_b 29.155180
_cell_length_c 8.943374
_cell_angle_alpha 90.000000
_cell_angle_beta 90.000000
_cell_angle_gamma 90.000000
_cell_volume 3793.442602
_symmetry_space_group_name_H-M "I M M M"
_symmetry_group_IT_number 71
_symmetry_cell_setting 'orthorhombic'
loop_
_space_group_symop_operation_xyz
x,y,z
-x,-y,z
x,-y,-z
-x,y,-z
-x,-y,-z
x,y,-z
-x,y,z
x,-y,z
1/2+x,1/2+y,1/2+z
1/2-x,1/2-y,1/2+z
1/2+x,1/2-y,1/2-z
1/2-x,1/2+y,1/2-z
1/2-x,1/2-y,1/2-z
1/2+x,1/2+y,1/2-z
1/2-x,1/2+y,1/2+z
1/2+x,1/2-y,1/2+z
loop_
_atom_site_type_symbol
_atom_site_label
_atom_site_fract_x
_atom_site_fract_y
_atom_site_fract_z
Si Si1 0.500000 0.055904 0.671603
Si Si2 0.688779 0.210341 0.324984
Si Si3 0.000000 0.731570 0.678855
Si Si4 0.809339 0.444869 0.674471
Si Si5 0.177503 0.876419 0.325690
Si Si6 0.000000 0.833180 0.177919
O O1 0.500000 0.071747 0.500000
O O2 0.406819 0.069979 0.754515
O O3 0.500000 0.000000 0.670624
O O4 0.673818 0.221119 0.500000
O O5 0.750000 0.250000 0.250000
O O6 0.591804 0.208203 0.241575
O O7 0.746538 0.163793 0.314671
O O8 0.000000 0.732431 0.500000
O O9 0.000000 0.783737 0.741033
O O10 0.806583 0.432270 0.500000
O O11 0.804425 0.500000 0.685775
O O12 0.726248 0.421369 0.761606
O O13 0.152424 0.881451 0.500000
O O14 0.089832 0.860493 0.231650
O O15 0.000000 0.826771 0.000000
#
# Coordination Sequence:
#
# PCOD9523406 Si02
#       6
#     8  16   8  16  16   8
#     4   9  17  32  57  86 117 156 197 239 296 359
#     4  11  23  39  61  88 120 157 199 248 302 358
#     4  12  24  39  61  89 124 162 205 250 300 362
#     4  10  21  38  61  90 124 161 203 251 304 361
#     4  11  24  41  63  90 122 158 203 251 304 364
#     4  12  24  40  64  88 118 159 204 249 303 364
#
# _framework density 18.980119999999999
#
# number of rings (size 3 to 8) (size 9 to 14) (size 15 to 20)
#    0.000    1.222    2.222    4.333    0.000    6.222 
#    0.000    1.667    0.000    3.333    0.000    0.000 
#    0.000    0.000    0.000    0.000    0.000    0.000 
#
# Total GULP energy -201347.595836 kJ/mol
# GULP energy per Si atom -5592.988773 kJ/mol
# Density = 1.893692 g / cm^3
# Si number density = 18.980120 Si / 1000 Ang^3
#
#
#
# Elastic Constant Matrix: (Units=GPa)
#
#
# Indices 1 2 3 4 5 6 
#
# 1 126.8307 13.6071 68.1336 -0.0003 0.0000 0.0001
# 2 13.6071 21.3909 30.4017 -0.0012 -0.0004 0.0003
# 3 68.1336 30.4017 173.2298 -0.0033 0.0009 -0.0002
# 4 -0.0003 -0.0012 -0.0033 28.5026 0.0001 0.0002
# 5 0.0000 -0.0004 0.0009 0.0001 40.6235 0.0001
# 6 0.0001 0.0003 -0.0002 0.0002 0.0001 15.8983
#
#
#
# Elastic Compliance Matrix: (Units=1/GPa)
#
#
# Indices 1 2 3 4 5 6 
#
# 1 0.010014 -0.001029 -0.003758 0.000000 0.000000 0.000000
# 2 -0.001029 0.062390 -0.010545 0.000001 0.000001 -0.000001
# 3 -0.003758 -0.010545 0.009101 0.000001 0.000000 0.000000
# 4 0.000000 0.000001 0.000001 0.035084 0.000000 0.000000
# 5 0.000000 0.000001 0.000000 0.000000 0.024616 0.000000
# 6 0.000000 -0.000001 0.000000 0.000000 0.000000 0.062900
#
#
# Mechanical properties :
#
#
# Convention : Reuss Voigt Hill
#
# Bulk Modulus (GPa) = 19.66880 60.63736 40.15308
# Shear Modulus (GPa) = 19.86365 30.95882 25.41124
#
# Velocity S-wave (km/s) = 3.23855 4.04309 3.66298
# Velocity P-wave (km/s) = 4.93656 7.33571 6.25229
#
# Compressibility (1/GPa) = 0.05084194
#
# Stress axis : x y z
#
# Youngs Moduli (GPa) = 99.86333 16.02818 109.87417
#
# Poissons Ratio (x) = 0.01649 0.41290
# Poissons Ratio (y) = 0.10275 1.15859
# Poissons Ratio (z) = 0.37528 0.16901
#
# Static dielectric constant tensor:
#      x y z
#    x 1.631250 0.000000 0.000000 
#    y 0.000000 1.655540 0.000000 
#    z 0.000000 0.000000 1.641730 
# 
# From -- ./inp_files/6233.got.cif
#   From: 2010.05.17/outbox.cif.g08.bks.cpg/sg71_4_cif.got.tgz:6233.got - 2010.06.03 16:22:01.
