data_PCOD9523407
_publ_section_title
;
Structure prediction by ZEFSAII (Michael W. Deem and Ramdas Pophale) SiO2 
 PCOD9523407
Probable space group: I M M M
;
_chemical_formula_sum "Si O2"
_cell_formula_units_Z 120
_cell_length_a 18.377698
_cell_length_b 20.301268
_cell_length_c 16.996718
_cell_angle_alpha 90.000000
_cell_angle_beta 90.000000
_cell_angle_gamma 90.000000
_cell_volume 6341.315246
_symmetry_space_group_name_H-M "I M M M"
_symmetry_group_IT_number 71
_symmetry_cell_setting 'orthorhombic'
loop_
_space_group_symop_operation_xyz
x,y,z
-x,-y,z
x,-y,-z
-x,y,-z
-x,-y,-z
x,y,-z
-x,y,z
x,-y,z
1/2+x,1/2+y,1/2+z
1/2-x,1/2-y,1/2+z
1/2+x,1/2-y,1/2-z
1/2-x,1/2+y,1/2-z
1/2-x,1/2-y,1/2-z
1/2+x,1/2+y,1/2-z
1/2-x,1/2+y,1/2+z
1/2+x,1/2-y,1/2+z
loop_
_atom_site_type_symbol
_atom_site_label
_atom_site_fract_x
_atom_site_fract_y
_atom_site_fract_z
Si Si1 0.412844 0.296517 0.404958
Si Si2 0.417338 0.577915 0.000000
Si Si3 0.297102 0.204187 0.311505
Si Si4 0.652860 0.423562 0.322845
Si Si5 0.913879 0.747079 0.414005
Si Si6 0.412902 0.097727 0.914121
Si Si7 0.654954 0.360996 0.151138
Si Si8 0.813536 0.571495 0.719274
O O1 0.402363 0.291109 0.500000
O O2 0.500000 0.286070 0.389281
O O3 0.358205 0.246363 0.357678
O O4 0.389239 0.369618 0.374648
O O5 0.375999 0.598739 0.921393
O O6 0.423031 0.500000 0.000000
O O7 0.500000 0.606008 0.000000
O O8 0.250000 0.250000 0.250000
O O9 0.234565 0.169471 0.364520
O O10 0.326035 0.138258 0.268153
O O11 0.630511 0.500000 0.334009
O O12 0.647809 0.401753 0.231035
O O13 0.740337 0.419181 0.332980
O O14 0.889141 0.772870 0.500000
O O15 0.886607 0.673379 0.407523
O O16 0.892825 0.794848 0.344449
O O17 0.000000 0.742596 0.416483
O O18 0.500000 0.095621 0.912634
O O19 0.379713 0.064963 0.839394
O O20 0.389855 0.073482 0.000000
O O21 0.803351 0.500000 0.761721
#
# Coordination Sequence:
#
# PCOD9523407 Si02
#       8
#    16   8  16  16  16  16  16  16
#     4  11  26  46  69  96 128 168 219 279 341 396
#     4  11  24  38  54  92 145 185 214 247 309 397
#     4  11  22  44  66  96 121 161 214 271 323 382
#     4  10  23  43  64  89 124 167 219 269 320 388
#     4   9  17  29  47  78 120 161 200 239 292 359
#     4   9  19  33  51  83 126 165 200 242 297 367
#     4  11  20  35  61  88 125 173 213 262 316 377
#     4  10  21  38  61  90 125 164 206 256 313 380
#
# _framework density 18.923518999999999
#
# number of rings (size 3 to 8) (size 9 to 14) (size 15 to 20)
#    0.000    1.800    3.333    2.400    0.933    3.733 
#    0.000    2.667    0.000    0.000    0.000    0.933 
#    0.000    0.000    0.000    0.000    0.000    0.000 
#
# Total GULP energy -334088.324750 kJ/mol
# GULP energy per Si atom -5568.138746 kJ/mol
# Density = 1.888045 g / cm^3
# Si number density = 18.923519 Si / 1000 Ang^3
#
#
#
# Elastic Constant Matrix: (Units=GPa)
#
#
# Indices 1 2 3 4 5 6 
#
# 1 84.0582 50.8527 59.0727 0.0000 0.0000 0.0000
# 2 50.8527 160.0077 50.9384 0.0000 0.0000 0.0000
# 3 59.0727 50.9384 73.7550 0.0000 0.0000 0.0000
# 4 0.0000 0.0000 0.0000 17.1517 0.0000 0.0000
# 5 0.0000 0.0000 0.0000 0.0000 8.7181 0.0000
# 6 0.0000 0.0000 0.0000 0.0000 0.0000 19.1738
#
#
#
# Elastic Compliance Matrix: (Units=1/GPa)
#
#
# Indices 1 2 3 4 5 6 
#
# 1 0.027828 -0.002241 -0.020740 0.000000 0.000000 0.000000
# 2 -0.002241 0.008192 -0.003862 0.000000 0.000000 0.000000
# 3 -0.020740 -0.003862 0.032837 0.000000 0.000000 0.000000
# 4 0.000000 0.000000 0.000000 0.058303 0.000000 0.000000
# 5 0.000000 0.000000 0.000000 0.000000 0.114704 0.000000
# 6 0.000000 0.000000 0.000000 0.000000 0.000000 0.052154
#
#
# Mechanical properties :
#
#
# Convention : Reuss Voigt Hill
#
# Bulk Modulus (GPa) = 65.92367 71.06092 68.49229
# Shear Modulus (GPa) = 14.17383 19.47252 16.82317
#
# Velocity S-wave (km/s) = 2.73977 3.21130 2.98486
# Velocity P-wave (km/s) = 6.70231 7.16820 6.93917
#
# Compressibility (1/GPa) = 0.01516906
#
# Stress axis : x y z
#
# Youngs Moduli (GPa) = 35.93517 122.07621 30.45321
#
# Poissons Ratio (x) = 0.27363 0.63160
# Poissons Ratio (y) = 0.08055 0.11762
# Poissons Ratio (z) = 0.74530 0.47148
#
# Static dielectric constant tensor:
#      x y z
#    x 1.693150 0.000000 0.000000 
#    y 0.000000 1.764290 0.000000 
#    z 0.000000 0.000000 1.719680 
# 
# From -- ./inp_files/46475.got.cif
#   From: 2010.05.17/outbox.cif.g08.bks.cpg/sg71_24_cif.got.tgz:46475.got - 2010.06.03 16:22:01.
