data_PCOD9523834
_publ_section_title
;
Structure prediction by ZEFSAII (Michael W. Deem and Ramdas Pophale) SiO2 
 PCOD9523834
Probable space group: I M M M
;
_chemical_formula_sum "Si O2"
_cell_formula_units_Z 104
_cell_length_a 22.082299
_cell_length_b 27.983431
_cell_length_c 8.586489
_cell_angle_alpha 90.000000
_cell_angle_beta 90.000000
_cell_angle_gamma 90.000000
_cell_volume 5305.922050
_symmetry_space_group_name_H-M "I M M M"
_symmetry_group_IT_number 71
_symmetry_cell_setting 'orthorhombic'
loop_
_space_group_symop_operation_xyz
x,y,z
-x,-y,z
x,-y,-z
-x,y,-z
-x,-y,-z
x,y,-z
-x,y,z
x,-y,z
1/2+x,1/2+y,1/2+z
1/2-x,1/2-y,1/2+z
1/2+x,1/2-y,1/2-z
1/2-x,1/2+y,1/2-z
1/2-x,1/2-y,1/2-z
1/2+x,1/2+y,1/2-z
1/2-x,1/2+y,1/2+z
1/2+x,1/2-y,1/2+z
loop_
_atom_site_type_symbol
_atom_site_label
_atom_site_fract_x
_atom_site_fract_y
_atom_site_fract_z
Si Si1 0.000000 0.107107 0.183030
Si Si2 0.069445 0.398183 0.687411
Si Si3 0.617482 0.444570 0.812933
Si Si4 0.170887 0.676772 0.314692
Si Si5 0.629663 0.274043 0.316178
Si Si6 0.794490 0.139188 0.315275
Si Si7 0.500000 0.713112 0.184179
Si Si8 0.073478 0.500000 0.820854
O O1 0.940873 0.076962 0.227866
O O2 0.000000 0.156521 0.278286
O O3 0.000000 0.118738 0.000000
O O4 0.068232 0.398249 0.500000
O O5 0.114936 0.356606 0.737003
O O6 0.091781 0.450320 0.741892
O O7 0.000000 0.391018 0.742602
O O8 0.626254 0.500000 0.774264
O O9 0.674802 0.411327 0.775731
O O10 0.607223 0.440853 0.000000
O O11 0.166251 0.685120 0.500000
O O12 0.167630 0.727235 0.227898
O O13 0.233202 0.650371 0.275512
O O14 0.630973 0.282815 0.500000
O O15 0.657401 0.319692 0.228826
O O16 0.561098 0.266400 0.258632
O O17 0.782804 0.140779 0.500000
O O18 0.500000 0.721431 0.000000
O O19 0.000000 0.500000 0.813745
O O20 0.092392 0.500000 0.000000
#
# Coordination Sequence:
#
# PCOD9523834 Si02
#       8
#     8  16  16  16  16  16   8   8
#     4  12  23  37  62  97 132 166 209 263 321 372
#     4   9  19  37  60  85 115 155 199 245 298 362
#     4  10  22  41  65  91 124 170 218 263 315 376
#     4  11  24  41  63  91 124 163 207 255 310 371
#     4  12  25  42  65  94 126 160 206 258 310 369
#     4  11  23  42  65  88 123 168 211 256 308 369
#     4  12  24  41  65  94 128 168 209 256 317 380
#     4   9  17  31  55  85 115 149 187 238 297 352
#
# _framework density 19.600739999999998
#
# number of rings (size 3 to 8) (size 9 to 14) (size 15 to 20)
#    0.000    1.308    1.538    4.615    1.077    4.000 
#    1.385    0.000    0.000    0.000    0.000    0.000 
#    0.000    0.000    0.000    0.000    0.000    0.000 
#
# Total GULP energy -290770.881747 kJ/mol
# GULP energy per Si atom -5591.747726 kJ/mol
# Density = 1.955613 g / cm^3
# Si number density = 19.600740 Si / 1000 Ang^3
#
#
#
# Elastic Constant Matrix: (Units=GPa)
#
#
# Indices 1 2 3 4 5 6 
#
# 1 66.1477 4.6848 -4.0276 0.0000 0.0000 0.0000
# 2 4.6848 57.3480 2.1258 0.0000 0.0000 0.0000
# 3 -4.0276 2.1258 24.9622 0.0000 0.0000 0.0000
# 4 0.0000 0.0000 0.0000 16.1619 0.0000 0.0000
# 5 0.0000 0.0000 0.0000 0.0000 27.4003 0.0000
# 6 0.0000 0.0000 0.0000 0.0000 0.0000 -42.6678
#
#
#
# Elastic Compliance Matrix: (Units=1/GPa)
#
#
# Indices 1 2 3 4 5 6 
#
# 1 0.015371 -0.001352 0.002595 0.000000 0.000000 0.000000
# 2 -0.001352 0.017612 -0.001718 0.000000 0.000000 0.000000
# 3 0.002595 -0.001718 0.040626 0.000000 0.000000 0.000000
# 4 0.000000 0.000000 0.000000 0.061874 0.000000 0.000000
# 5 0.000000 0.000000 0.000000 0.000000 0.036496 0.000000
# 6 0.000000 0.000000 0.000000 0.000000 0.000000 -0.023437
#
#
# Mechanical properties :
#
#
# Convention : Reuss Voigt Hill
#
# Bulk Modulus (GPa) = 13.76283 17.11376 15.43830
# Shear Modulus (GPa) = 28.78351 9.89054 19.33703
#
# Velocity S-wave (km/s) = 3.83625 2.24877 3.14434
# Velocity P-wave (km/s) = 5.16326 3.93608 4.59086
#
# Compressibility (1/GPa) = 0.07265946
#
# Stress axis : x y z
#
# Youngs Moduli (GPa) = 65.05566 56.78099 24.61501
#
# Poissons Ratio (x) = 0.07676 -0.06388
# Poissons Ratio (y) = 0.08795 0.04229
# Poissons Ratio (z) = -0.16884 0.09755
#
# Static dielectric constant tensor:
#      x y z
#    x 1.679850 0.000000 0.000000 
#    y 0.000000 1.670000 0.000000 
#    z 0.000000 0.000000 1.661100 
# 
# From -- ./inp_files/11178.got.cif
#   From: 2010.05.17/outbox.cif.g08.bks.cpg/sg71_6_cif.got.tgz:11178.got - 2010.06.03 16:22:01.
