data_PCOD9523778
_publ_section_title
;
Structure prediction by ZEFSAII (Michael W. Deem and Ramdas Pophale) SiO2 
 PCOD9523778
Probable space group: I M M M
;
_chemical_formula_sum "Si O2"
_cell_formula_units_Z 74
_cell_length_a 24.313455
_cell_length_b 9.815050
_cell_length_c 16.267914
_cell_angle_alpha 90.000000
_cell_angle_beta 90.000000
_cell_angle_gamma 90.000000
_cell_volume 3882.138825
_symmetry_space_group_name_H-M "I M M M"
_symmetry_group_IT_number 71
_symmetry_cell_setting 'orthorhombic'
loop_
_space_group_symop_operation_xyz
x,y,z
-x,-y,z
x,-y,-z
-x,y,-z
-x,-y,-z
x,y,-z
-x,y,z
x,-y,z
1/2+x,1/2+y,1/2+z
1/2-x,1/2-y,1/2+z
1/2+x,1/2-y,1/2-z
1/2-x,1/2+y,1/2-z
1/2-x,1/2-y,1/2-z
1/2+x,1/2+y,1/2-z
1/2-x,1/2+y,1/2+z
1/2+x,1/2-y,1/2+z
loop_
_atom_site_type_symbol
_atom_site_label
_atom_site_fract_x
_atom_site_fract_y
_atom_site_fract_z
Si Si1 0.062508 0.337852 0.160754
Si Si2 0.584419 0.338735 0.500000
Si Si3 0.884288 0.500000 0.409208
Si Si4 0.500000 0.000000 0.000000
Si Si5 0.252821 0.855078 0.645452
Si Si6 0.783166 0.157375 0.000000
Si Si7 0.342553 0.781743 0.780626
O O1 0.077391 0.500000 0.149063
O O2 0.065225 0.248926 0.078206
O O3 0.104758 0.267326 0.222921
O O4 0.000000 0.336366 0.191731
O O5 0.568003 0.500000 0.500000
O O6 0.650654 0.335923 0.500000
O O7 0.858664 0.500000 0.500000
O O8 0.949855 0.500000 0.429043
O O9 0.863723 0.373513 0.355554
O O10 0.262713 0.734204 0.581492
O O11 0.296259 0.846449 0.720297
O O12 0.191570 0.842390 0.681762
O O13 0.261076 0.000000 0.603446
O O14 0.767469 0.000000 0.000000
#
# Coordination Sequence:
#
# PCOD9523778 Si02
#       7
#    16   8   8   2  16   8  16
#     4  11  23  39  65  92 125 169 222 273 322 384
#     4  11  24  42  58  91 130 170 212 262 328 400
#     4  10  22  40  62  97 126 166 208 281 327 385
#     4   8  24  36  72  96 126 158 224 280 344 376
#     4  11  24  41  63  94 132 175 217 264 324 397
#     4  11  25  39  65  94 129 172 218 263 320 389
#     4  11  23  38  64  93 130 165 213 272 326 382
#
# _framework density 19.061658000000001
#
# number of rings (size 3 to 8) (size 9 to 14) (size 15 to 20)
#    0.324    0.865    4.324    0.973    4.541    4.324 
#    0.000    0.000    0.000    0.000    0.000    0.757 
#    0.000    0.000    0.000    0.000    0.000    0.000 
#
# Total GULP energy -206032.943746 kJ/mol
# GULP energy per Si atom -5568.457939 kJ/mol
# Density = 1.901827 g / cm^3
# Si number density = 19.061658 Si / 1000 Ang^3
#
#
#
# Elastic Constant Matrix: (Units=GPa)
#
#
# Indices 1 2 3 4 5 6 
#
# 1 141.5367 34.4651 46.2173 0.0000 0.0000 0.0000
# 2 34.4651 100.9562 37.6114 0.0000 0.0000 0.0000
# 3 46.2173 37.6114 127.5541 0.0000 0.0000 0.0000
# 4 0.0000 0.0000 0.0000 66.9125 0.0000 0.0000
# 5 0.0000 0.0000 0.0000 0.0000 32.3238 0.0000
# 6 0.0000 0.0000 0.0000 0.0000 0.0000 7.6747
#
#
#
# Elastic Compliance Matrix: (Units=1/GPa)
#
#
# Indices 1 2 3 4 5 6 
#
# 1 0.008336 -0.001933 -0.002451 0.000000 0.000000 0.000000
# 2 -0.001933 0.011576 -0.002713 0.000000 0.000000 0.000000
# 3 -0.002451 -0.002713 0.009528 0.000000 0.000000 0.000000
# 4 0.000000 0.000000 0.000000 0.014945 0.000000 0.000000
# 5 0.000000 0.000000 0.000000 0.000000 0.030937 0.000000
# 6 0.000000 0.000000 0.000000 0.000000 0.000000 0.130299
#
#
# Mechanical properties :
#
#
# Convention : Reuss Voigt Hill
#
# Bulk Modulus (GPa) = 65.58710 67.40385 66.49547
# Shear Modulus (GPa) = 22.23257 38.16576 30.19917
#
# Velocity S-wave (km/s) = 3.41889 4.47948 3.98463
# Velocity P-wave (km/s) = 7.07585 7.88619 7.49199
#
# Compressibility (1/GPa) = 0.01524690
#
# Stress axis : x y z
#
# Youngs Moduli (GPa) = 119.95908 86.38657 104.95721
#
# Poissons Ratio (x) = 0.16698 0.25720
# Poissons Ratio (y) = 0.23187 0.28475
# Poissons Ratio (z) = 0.29396 0.23436
#
# Static dielectric constant tensor:
#      x y z
#    x 1.679140 0.000000 0.000000 
#    y 0.000000 1.683800 0.000000 
#    z 0.000000 0.000000 1.660650 
# 
# From -- ./inp_files/40001.got.cif
#   From: 2010.05.17/outbox.cif.g08.bks.cpg/sg71_21_cif.got.tgz:40001.got - 2010.06.03 16:22:01.
