data_PCOD9523458
_publ_section_title
;
Structure prediction by ZEFSAII (Michael W. Deem and Ramdas Pophale) SiO2 
 PCOD9523458
Probable space group: I M M M
;
_chemical_formula_sum "Si O2"
_cell_formula_units_Z 64
_cell_length_a 7.389698
_cell_length_b 14.282037
_cell_length_c 29.800705
_cell_angle_alpha 90.000000
_cell_angle_beta 90.000000
_cell_angle_gamma 90.000000
_cell_volume 3145.164625
_symmetry_space_group_name_H-M "I M M M"
_symmetry_group_IT_number 71
_symmetry_cell_setting 'orthorhombic'
loop_
_space_group_symop_operation_xyz
x,y,z
-x,-y,z
x,-y,-z
-x,y,-z
-x,-y,-z
x,y,-z
-x,y,z
x,-y,z
1/2+x,1/2+y,1/2+z
1/2-x,1/2-y,1/2+z
1/2+x,1/2-y,1/2-z
1/2-x,1/2+y,1/2-z
1/2-x,1/2-y,1/2-z
1/2+x,1/2+y,1/2-z
1/2-x,1/2+y,1/2+z
1/2+x,1/2-y,1/2+z
loop_
_atom_site_type_symbol
_atom_site_label
_atom_site_fract_x
_atom_site_fract_y
_atom_site_fract_z
Si Si1 0.719501 0.606629 0.500000
Si Si2 0.781813 0.791279 0.816555
Si Si3 0.218164 0.760506 0.082268
Si Si4 0.211021 0.602437 0.770447
Si Si5 0.500000 0.609147 0.054244
O O1 0.784513 0.500000 0.500000
O O2 0.500000 0.603312 0.500000
O O3 0.770825 0.665440 0.456078
O O4 0.733267 0.798471 0.868460
O O5 0.713142 0.691634 0.797092
O O6 0.720845 0.870671 0.782041
O O7 0.000000 0.791278 0.813998
O O8 0.325781 0.665188 0.072499
O O9 0.000000 0.746280 0.080554
O O10 0.290250 0.500000 0.778875
O O11 0.000000 0.598224 0.782941
O O12 0.500000 0.500000 0.066891
O O13 0.500000 0.615039 0.000000
#
# Coordination Sequence:
#
# PCOD9523458 Si02
#       5
#     8  16  16  16   8
#     4   9  18  35  59  86 115 149 190 234 286 346
#     4   9  19  34  55  79 107 147 187 230 280 338
#     4  10  21  39  61  85 118 156 191 238 295 341
#     4   9  18  33  52  77 110 145 184 232 281 333
#     4  11  24  40  60  88 118 150 194 244 286 347
#
# _framework density 20.348697999999999
#
# number of rings (size 3 to 8) (size 9 to 14) (size 15 to 20)
#    0.000    2.500    1.250    0.000    1.750    3.000 
#    0.000    7.500    0.000    0.000    0.000    0.000 
#    0.000    0.000    0.000    0.000    0.000    0.000 
#
# Total GULP energy -178591.418258 kJ/mol
# GULP energy per Si atom -5580.981821 kJ/mol
# Density = 2.030238 g / cm^3
# Si number density = 20.348698 Si / 1000 Ang^3
#
#
#
# Elastic Constant Matrix: (Units=GPa)
#
#
# Indices 1 2 3 4 5 6 
#
# 1 77.9458 10.2689 -0.1824 0.0000 0.0000 0.0000
# 2 10.2689 100.7503 14.2641 0.0000 0.0000 0.0000
# 3 -0.1824 14.2641 103.7856 0.0000 0.0000 0.0000
# 4 0.0000 0.0000 0.0000 6.4384 0.0000 0.0000
# 5 0.0000 0.0000 0.0000 0.0000 -5.7995 0.0000
# 6 0.0000 0.0000 0.0000 0.0000 0.0000 19.5510
#
#
#
# Elastic Compliance Matrix: (Units=1/GPa)
#
#
# Indices 1 2 3 4 5 6 
#
# 1 0.013008 -0.001355 0.000209 0.000000 0.000000 0.000000
# 2 -0.001355 0.010264 -0.001413 0.000000 0.000000 0.000000
# 3 0.000209 -0.001413 0.009830 0.000000 0.000000 0.000000
# 4 0.000000 0.000000 0.000000 0.155319 0.000000 0.000000
# 5 0.000000 0.000000 0.000000 0.000000 -0.172428 0.000000
# 6 0.000000 0.000000 0.000000 0.000000 0.000000 0.051148
#
#
# Mechanical properties :
#
#
# Convention : Reuss Voigt Hill
#
# Bulk Modulus (GPa) = 35.73553 36.79810 36.26682
# Shear Modulus (GPa) = 61.28377 21.24672 41.26524
#
# Velocity S-wave (km/s) = 5.49383 3.23481 4.50811
# Velocity P-wave (km/s) = 7.60543 5.66348 6.70513
#
# Compressibility (1/GPa) = 0.02798336
#
# Stress axis : x y z
#
# Youngs Moduli (GPa) = 76.87286 97.43040 101.73133
#
# Poissons Ratio (x) = 0.13207 -0.02128
# Poissons Ratio (y) = 0.10420 0.14375
# Poissons Ratio (z) = -0.01608 0.13767
#
# Static dielectric constant tensor:
#      x y z
#    x 1.784980 0.000000 0.000000 
#    y 0.000000 1.701510 0.000000 
#    z 0.000000 0.000000 1.705510 
# 
# From -- ./inp_files/67800.got.cif
#   From: 2010.05.17/outbox.cif.g08.bks.cpg/sg71_34_cif.got.tgz:67800.got - 2010.06.03 16:22:01.
