data_PCOD9523184
_publ_section_title
;
Structure prediction by ZEFSAII (Michael W. Deem and Ramdas Pophale) SiO2 
 PCOD9523184
Probable space group: I M M M
;
_chemical_formula_sum "Si O2"
_cell_formula_units_Z 88
_cell_length_a 19.739299
_cell_length_b 26.865064
_cell_length_c 7.691212
_cell_angle_alpha 90.000000
_cell_angle_beta 90.000000
_cell_angle_gamma 90.000000
_cell_volume 4078.630734
_symmetry_space_group_name_H-M "I M M M"
_symmetry_group_IT_number 71
_symmetry_cell_setting 'orthorhombic'
loop_
_space_group_symop_operation_xyz
x,y,z
-x,-y,z
x,-y,-z
-x,y,-z
-x,-y,-z
x,y,-z
-x,y,z
x,-y,z
1/2+x,1/2+y,1/2+z
1/2-x,1/2-y,1/2+z
1/2+x,1/2-y,1/2-z
1/2-x,1/2+y,1/2-z
1/2-x,1/2-y,1/2-z
1/2+x,1/2+y,1/2-z
1/2-x,1/2+y,1/2+z
1/2+x,1/2-y,1/2+z
loop_
_atom_site_type_symbol
_atom_site_label
_atom_site_fract_x
_atom_site_fract_y
_atom_site_fract_z
Si Si1 0.577067 0.246393 0.702471
Si Si2 0.789463 0.700275 0.691937
Si Si3 0.922271 0.140355 0.710475
Si Si4 0.680427 0.093024 0.698899
Si Si5 0.323322 0.445913 0.211961
Si Si6 0.080898 0.439553 0.500000
O O1 0.581964 0.231976 0.500000
O O2 0.500000 0.239249 0.761883
O O3 0.632243 0.216361 0.806653
O O4 0.592711 0.304930 0.718405
O O5 0.765106 0.687554 0.500000
O O6 0.750000 0.750000 0.750000
O O7 0.789736 0.649474 0.799383
O O8 0.918313 0.143643 0.500000
O O9 0.870226 0.098976 0.773159
O O10 0.000000 0.127921 0.755653
O O11 0.661676 0.080590 0.500000
O O12 0.744975 0.060899 0.758671
O O13 0.619288 0.083812 0.832262
O O14 0.348358 0.500000 0.267677
O O15 0.325087 0.444369 0.000000
O O16 0.089265 0.500000 0.500000
O O17 0.000000 0.429336 0.500000
#
# Coordination Sequence:
#
# PCOD9523184 Si02
#       6
#    16  16  16  16  16   8
#     4  10  21  37  57  82 116 160 205 249 305 372
#     4  12  24  40  63  94 131 170 215 266 322 393
#     4   9  17  31  53  82 118 160 205 253 303 358
#     4  11  23  43  68  97 132 172 218 276 340 404
#     4   9  18  33  56  85 117 157 204 255 311 371
#     4  11  26  48  72 100 133 173 227 287 355 428
#
# _framework density 21.575868
#
# number of rings (size 3 to 8) (size 9 to 14) (size 15 to 20)
#    0.000    1.727    0.909    3.818    0.000    5.091 
#    1.636    2.727    0.000    0.000    0.000    2.545 
#    0.000    0.000    0.000    0.000    0.000    0.000 
#
# Total GULP energy -245867.016086 kJ/mol
# GULP energy per Si atom -5587.886729 kJ/mol
# Density = 2.152676 g / cm^3
# Si number density = 21.575868 Si / 1000 Ang^3
#
#
#
# Elastic Constant Matrix: (Units=GPa)
#
#
# Indices 1 2 3 4 5 6 
#
# 1 50.7987 22.4550 18.2459 0.0000 0.0000 0.0000
# 2 22.4550 57.1872 2.1216 0.0000 0.0000 0.0000
# 3 18.2459 2.1216 80.2149 0.0000 0.0000 0.0000
# 4 0.0000 0.0000 0.0000 18.8489 0.0000 0.0000
# 5 0.0000 0.0000 0.0000 0.0000 19.1848 0.0000
# 6 0.0000 0.0000 0.0000 0.0000 0.0000 36.2176
#
#
#
# Elastic Compliance Matrix: (Units=1/GPa)
#
#
# Indices 1 2 3 4 5 6 
#
# 1 0.026179 -0.010068 -0.005689 0.000000 0.000000 0.000000
# 2 -0.010068 0.021376 0.001725 0.000000 0.000000 0.000000
# 3 -0.005689 0.001725 0.013715 0.000000 0.000000 0.000000
# 4 0.000000 0.000000 0.000000 0.053053 0.000000 0.000000
# 5 0.000000 0.000000 0.000000 0.000000 0.052124 0.000000
# 6 0.000000 0.000000 0.000000 0.000000 0.000000 0.027611
#
#
# Mechanical properties :
#
#
# Convention : Reuss Voigt Hill
#
# Bulk Modulus (GPa) = 30.11526 30.42730 30.27128
# Shear Modulus (GPa) = 21.44157 24.54217 22.99187
#
# Velocity S-wave (km/s) = 3.15584 3.37632 3.26794
# Velocity P-wave (km/s) = 5.22181 5.41594 5.31976
#
# Compressibility (1/GPa) = 0.03320575
#
# Stress axis : x y z
#
# Youngs Moduli (GPa) = 38.19798 46.78162 72.91385
#
# Poissons Ratio (x) = 0.47102 0.41477
# Poissons Ratio (y) = 0.38460 -0.12576
# Poissons Ratio (z) = 0.21729 -0.08069
#
# Static dielectric constant tensor:
#      x y z
#    x 1.762400 0.000000 0.000000 
#    y 0.000000 1.788130 0.000000 
#    z 0.000000 0.000000 1.803530 
# 
# From -- ./inp_files/10499.got.cif
#   From: 2010.05.17/outbox.cif.g08.bks.cpg/sg71_6_cif.got.tgz:10499.got - 2010.06.03 16:22:01.
