data_PCOD9523307
_publ_section_title
;
Structure prediction by ZEFSAII (Michael W. Deem and Ramdas Pophale) SiO2 
 PCOD9523307
Probable space group: I M M M
;
_chemical_formula_sum "Si O2"
_cell_formula_units_Z 104
_cell_length_a 7.330226
_cell_length_b 21.770625
_cell_length_c 28.004944
_cell_angle_alpha 90.000000
_cell_angle_beta 90.000000
_cell_angle_gamma 90.000000
_cell_volume 4469.129821
_symmetry_space_group_name_H-M "I M M M"
_symmetry_group_IT_number 71
_symmetry_cell_setting 'orthorhombic'
loop_
_space_group_symop_operation_xyz
x,y,z
-x,-y,z
x,-y,-z
-x,y,-z
-x,-y,-z
x,y,-z
-x,y,z
x,-y,z
1/2+x,1/2+y,1/2+z
1/2-x,1/2-y,1/2+z
1/2+x,1/2-y,1/2-z
1/2-x,1/2+y,1/2-z
1/2-x,1/2-y,1/2-z
1/2+x,1/2+y,1/2-z
1/2-x,1/2+y,1/2+z
1/2+x,1/2-y,1/2+z
loop_
_atom_site_type_symbol
_atom_site_label
_atom_site_fract_x
_atom_site_fract_y
_atom_site_fract_z
Si Si1 0.216433 0.171584 0.051562
Si Si2 0.719949 0.655832 0.723796
Si Si3 0.000000 0.568638 0.323580
Si Si4 0.211114 0.627302 0.099250
Si Si5 0.776306 0.428466 0.000000
Si Si6 0.221095 0.248672 0.145747
Si Si7 0.500000 0.930976 0.936100
Si Si8 0.719063 0.568057 0.806324
O O1 0.269619 0.205465 0.100548
O O2 0.324399 0.108386 0.050090
O O3 0.000000 0.162901 0.053996
O O4 0.254747 0.204010 0.000000
O O5 0.500000 0.654110 0.722050
O O6 0.778828 0.719354 0.696972
O O7 0.778486 0.628323 0.775554
O O8 0.819085 0.604864 0.691719
O O9 0.000000 0.500000 0.304446
O O10 0.000000 0.566320 0.379624
O O11 0.285257 0.605401 0.048474
O O12 0.291073 0.685759 0.127461
O O13 0.220247 0.574899 0.139169
O O14 0.000000 0.643340 0.089708
O O15 0.721935 0.500000 0.000000
O O16 0.000000 0.428416 0.000000
O O17 0.000000 0.251212 0.148799
O O18 0.500000 0.000000 0.952960
O O19 0.500000 0.568784 0.804991
O O20 0.775704 0.500000 0.788552
#
# Coordination Sequence:
#
# PCOD9523307 Si02
#       8
#    16  16   8  16   8  16   8  16
#     4  10  21  38  60  83 114 161 206 255 314 368
#     4  10  21  40  62  87 124 163 200 255 311 362
#     4  11  22  35  58  91 116 155 210 251 305 371
#     4  10  21  37  61  91 121 160 206 254 306 367
#     4   9  18  34  59  93 129 161 199 252 314 365
#     4   9  19  37  59  86 120 155 203 254 306 370
#     4  11  23  38  57  86 122 156 201 260 312 369
#     4  10  22  40  60  86 121 160 202 250 310 371
#
# _framework density 23.270748000000001
#
# number of rings (size 3 to 8) (size 9 to 14) (size 15 to 20)
#    0.000    2.077    1.538    1.154    2.154    3.385 
#    2.769    2.692    0.000    1.385    0.000    0.000 
#    0.000    0.000    0.000    0.000    0.000    0.000 
#
# Total GULP energy -289993.573952 kJ/mol
# GULP energy per Si atom -5576.799499 kJ/mol
# Density = 2.321778 g / cm^3
# Si number density = 23.270748 Si / 1000 Ang^3
#
#
#
# Elastic Constant Matrix: (Units=GPa)
#
#
# Indices 1 2 3 4 5 6 
#
# 1 71.4105 4.1170 5.3805 0.0000 0.0000 0.0000
# 2 4.1170 134.4661 58.9295 0.0000 0.0000 0.0000
# 3 5.3805 58.9295 203.9364 0.0000 0.0000 0.0000
# 4 0.0000 0.0000 0.0000 11.3822 0.0000 0.0000
# 5 0.0000 0.0000 0.0000 0.0000 41.5178 0.0000
# 6 0.0000 0.0000 0.0000 0.0000 0.0000 -24.1959
#
#
#
# Elastic Compliance Matrix: (Units=1/GPa)
#
#
# Indices 1 2 3 4 5 6 
#
# 1 0.014042 -0.000306 -0.000282 0.000000 0.000000 0.000000
# 2 -0.000306 0.008522 -0.002454 0.000000 0.000000 0.000000
# 3 -0.000282 -0.002454 0.005620 0.000000 0.000000 0.000000
# 4 0.000000 0.000000 0.000000 0.087856 0.000000 0.000000
# 5 0.000000 0.000000 0.000000 0.000000 0.024086 0.000000
# 6 0.000000 0.000000 0.000000 0.000000 0.000000 -0.041329
#
#
# Mechanical properties :
#
#
# Convention : Reuss Voigt Hill
#
# Bulk Modulus (GPa) = 45.25094 60.74077 52.99586
# Shear Modulus (GPa) = 44.54369 28.49988 36.52178
#
# Velocity S-wave (km/s) = 4.37985 3.50338 3.96590
# Velocity P-wave (km/s) = 6.71305 6.52099 6.61772
#
# Compressibility (1/GPa) = 0.02209899
#
# Stress axis : x y z
#
# Youngs Moduli (GPa) = 71.21264 117.34567 177.93123
#
# Poissons Ratio (x) = 0.03595 0.05017
# Poissons Ratio (y) = 0.02182 0.43671
# Poissons Ratio (z) = 0.02008 0.28801
#
# Static dielectric constant tensor:
#      x y z
#    x 1.801940 0.000000 0.000000 
#    y 0.000000 1.891480 0.000000 
#    z 0.000000 0.000000 1.905130 
# 
# From -- ./inp_files/63348.got.cif
#   From: 2010.05.17/outbox.cif.g08.bks.cpg/sg71_32_cif.got.tgz:63348.got - 2010.06.03 16:22:01.
