data_PCOD9523200
_publ_section_title
;
Structure prediction by ZEFSAII (Michael W. Deem and Ramdas Pophale) SiO2 
 PCOD9523200
Probable space group: I M M M
;
_chemical_formula_sum "Si O2"
_cell_formula_units_Z 84
_cell_length_a 11.270227
_cell_length_b 22.562250
_cell_length_c 15.922976
_cell_angle_alpha 90.000000
_cell_angle_beta 90.000000
_cell_angle_gamma 90.000000
_cell_volume 4048.921074
_symmetry_space_group_name_H-M "I M M M"
_symmetry_group_IT_number 71
_symmetry_cell_setting 'orthorhombic'
loop_
_space_group_symop_operation_xyz
x,y,z
-x,-y,z
x,-y,-z
-x,y,-z
-x,-y,-z
x,y,-z
-x,y,z
x,-y,z
1/2+x,1/2+y,1/2+z
1/2-x,1/2-y,1/2+z
1/2+x,1/2-y,1/2-z
1/2-x,1/2+y,1/2-z
1/2-x,1/2-y,1/2-z
1/2+x,1/2+y,1/2-z
1/2-x,1/2+y,1/2+z
1/2+x,1/2-y,1/2+z
loop_
_atom_site_type_symbol
_atom_site_label
_atom_site_fract_x
_atom_site_fract_y
_atom_site_fract_z
Si Si1 0.363041 0.000000 0.689445
Si Si2 0.692901 0.871394 0.731052
Si Si3 0.767269 0.333022 0.597125
Si Si4 0.000000 0.185854 0.099217
Si Si5 0.693119 0.000000 0.500000
Si Si6 0.370278 0.391336 0.000000
Si Si7 0.363595 0.706724 0.856060
Si Si8 0.000000 0.677062 0.896731
O O1 0.292908 0.941233 0.717301
O O2 0.372201 0.000000 0.588510
O O3 0.500000 0.000000 0.721676
O O4 0.656600 0.862606 0.828243
O O5 0.798200 0.823343 0.721679
O O6 0.608804 0.852490 0.653263
O O7 0.793676 0.349131 0.500000
O O8 0.626845 0.344880 0.614087
O O9 0.794195 0.262769 0.606996
O O10 0.000000 0.253852 0.129780
O O11 0.000000 0.194982 0.000000
O O12 0.772435 0.058972 0.500000
O O13 0.363115 0.346991 0.922014
O O14 0.500000 0.420177 0.000000
O O15 0.500000 0.723474 0.838982
O O16 0.000000 0.669863 0.000000
#
# Coordination Sequence:
#
# PCOD9523200 Si02
#       8
#     8  16  16   8   4   8  16   8
#     4  12  27  43  62  90 119 157 221 269 307 379
#     4  12  26  42  65  92 129 168 216 263 320 383
#     4  11  24  42  66  96 130 168 212 266 325 377
#     4   9  20  38  65  98 130 164 209 261 314 384
#     4  12  22  40  64  84 128 174 204 248 324 364
#     4  10  21  37  57  90 133 170 206 247 301 385
#     4  11  23  38  62  97 134 167 210 258 313 386
#     4  11  24  39  65  96 133 170 207 253 318 380
#
# _framework density 20.746268000000001
#
# number of rings (size 3 to 8) (size 9 to 14) (size 15 to 20)
#    0.000    0.952    5.714    0.857    5.333    0.000 
#    0.000    0.952    0.000    0.571    0.000    2.000 
#    0.000    0.000    0.000    0.000    0.000    0.000 
#
# Total GULP energy -234177.088754 kJ/mol
# GULP energy per Si atom -5575.644970 kJ/mol
# Density = 2.069905 g / cm^3
# Si number density = 20.746268 Si / 1000 Ang^3
#
#
#
# Elastic Constant Matrix: (Units=GPa)
#
#
# Indices 1 2 3 4 5 6 
#
# 1 78.0826 -5.7743 11.7625 0.0000 0.0000 0.0000
# 2 -5.7743 58.2204 24.7764 0.0000 0.0000 0.0000
# 3 11.7625 24.7764 156.7104 0.0000 0.0000 0.0000
# 4 0.0000 0.0000 0.0000 1.7021 0.0000 0.0000
# 5 0.0000 0.0000 0.0000 0.0000 12.8114 0.0000
# 6 0.0000 0.0000 0.0000 0.0000 0.0000 -4.8427
#
#
#
# Elastic Compliance Matrix: (Units=1/GPa)
#
#
# Indices 1 2 3 4 5 6 
#
# 1 0.013136 0.001847 -0.001278 0.000000 0.000000 0.000000
# 2 0.001847 0.018675 -0.003091 0.000000 0.000000 0.000000
# 3 -0.001278 -0.003091 0.006966 0.000000 0.000000 0.000000
# 4 0.000000 0.000000 0.000000 0.587503 0.000000 0.000001
# 5 0.000000 0.000000 0.000000 0.000000 0.078056 0.000000
# 6 0.000000 0.000000 0.000000 0.000001 0.000000 -0.206495
#
#
# Mechanical properties :
#
#
# Convention : Reuss Voigt Hill
#
# Bulk Modulus (GPa) = 29.64563 39.39363 34.51963
# Shear Modulus (GPa) = 9.72519 19.41741 14.57130
#
# Velocity S-wave (km/s) = 2.16745 3.06264 2.65308
# Velocity P-wave (km/s) = 4.53701 5.61568 5.10492
#
# Compressibility (1/GPa) = 0.03373178
#
# Stress axis : x y z
#
# Youngs Moduli (GPa) = 76.12656 53.54828 143.55778
#
# Poissons Ratio (x) = -0.09889 0.18346
# Poissons Ratio (y) = -0.14058 0.44376
# Poissons Ratio (z) = 0.09729 0.16553
#
# Static dielectric constant tensor:
#      x y z
#    x 1.972950 0.000000 0.000000 
#    y 0.000000 1.700550 0.000000 
#    z 0.000000 0.000000 1.865570 
# 
# From -- ./inp_files/22081.got.cif
#   From: 2010.05.17/outbox.cif.g08.bks.cpg/sg71_12_cif.got.tgz:22081.got - 2010.06.03 16:22:01.
