data_PCOD9523352
_publ_section_title
;
Structure prediction by ZEFSAII (Michael W. Deem and Ramdas Pophale) SiO2 
 PCOD9523352
Probable space group: I M M M
;
_chemical_formula_sum "Si O2"
_cell_formula_units_Z 72
_cell_length_a 16.666770
_cell_length_b 27.495924
_cell_length_c 7.625063
_cell_angle_alpha 90.000000
_cell_angle_beta 90.000000
_cell_angle_gamma 90.000000
_cell_volume 3494.324210
_symmetry_space_group_name_H-M "I M M M"
_symmetry_group_IT_number 71
_symmetry_cell_setting 'orthorhombic'
loop_
_space_group_symop_operation_xyz
x,y,z
-x,-y,z
x,-y,-z
-x,y,-z
-x,-y,-z
x,y,-z
-x,y,z
x,-y,z
1/2+x,1/2+y,1/2+z
1/2-x,1/2-y,1/2+z
1/2+x,1/2-y,1/2-z
1/2-x,1/2+y,1/2-z
1/2-x,1/2-y,1/2-z
1/2+x,1/2+y,1/2-z
1/2-x,1/2+y,1/2+z
1/2+x,1/2-y,1/2+z
loop_
_atom_site_type_symbol
_atom_site_label
_atom_site_fract_x
_atom_site_fract_y
_atom_site_fract_z
Si Si1 0.164755 0.554941 0.208267
Si Si2 0.500000 0.891974 0.791592
Si Si3 0.336365 0.726328 0.209679
Si Si4 0.500000 0.219831 0.784506
Si Si5 0.905441 0.054024 0.000000
Si Si6 0.319781 0.385765 0.787674
O O1 0.171423 0.500000 0.281433
O O2 0.078417 0.578196 0.239230
O O3 0.232919 0.592797 0.265796
O O4 0.175653 0.550802 0.000000
O O5 0.500000 0.836394 0.724886
O O6 0.500000 0.888326 0.000000
O O7 0.250000 0.750000 0.250000
O O8 0.417052 0.753833 0.273806
O O9 0.331801 0.670163 0.265145
O O10 0.343415 0.726301 0.000000
O O11 0.500000 0.220433 0.000000
O O12 0.879688 0.081836 0.824595
O O13 0.000000 0.050552 0.000000
O O14 0.869149 0.000000 0.000000
O O15 0.329183 0.389544 0.000000
#
# Coordination Sequence:
#
# PCOD9523352 Si02
#       6
#    16   8  16   8   8  16
#     4  10  21  38  59  84 119 162 206 254 307 368
#     4  11  22  34  55  88 124 162 205 256 304 364
#     4  10  21  38  62  91 123 165 212 260 315 379
#     4   9  20  38  58  83 122 161 196 244 309 367
#     4  11  26  44  66  97 129 161 211 274 328 385
#     4  10  23  42  67  93 127 169 212 259 323 388
#
# _framework density 20.604842000000001
#
# number of rings (size 3 to 8) (size 9 to 14) (size 15 to 20)
#    0.000    1.889    0.000    2.667    4.667    3.556 
#    0.000    2.778    0.000    0.000    0.000    0.000 
#    0.000    0.000    0.000    0.000    0.000    0.000 
#
# Total GULP energy -200997.418927 kJ/mol
# GULP energy per Si atom -5583.261637 kJ/mol
# Density = 2.055794 g / cm^3
# Si number density = 20.604842 Si / 1000 Ang^3
#
#
#
# Elastic Constant Matrix: (Units=GPa)
#
#
# Indices 1 2 3 4 5 6 
#
# 1 121.1184 42.9620 -1.5379 0.0000 0.0001 -0.0001
# 2 42.9620 152.3531 14.1554 0.0001 0.0000 0.0000
# 3 -1.5379 14.1554 37.5413 0.0016 0.0021 0.0005
# 4 0.0000 0.0001 0.0016 17.4629 -0.0004 0.0002
# 5 0.0001 0.0000 0.0021 -0.0004 1.7554 -0.0006
# 6 -0.0001 0.0000 0.0005 0.0002 -0.0006 51.1744
#
#
#
# Elastic Compliance Matrix: (Units=1/GPa)
#
#
# Indices 1 2 3 4 5 6 
#
# 1 0.009246 -0.002738 0.001411 0.000000 -0.000002 0.000000
# 2 -0.002738 0.007613 -0.002983 0.000000 0.000003 0.000000
# 3 0.001411 -0.002983 0.027820 -0.000003 -0.000033 0.000000
# 4 0.000000 0.000000 -0.000003 0.057264 0.000013 0.000000
# 5 -0.000002 0.000003 -0.000033 0.000013 0.569674 0.000007
# 6 0.000000 0.000000 0.000000 0.000000 0.000007 0.019541
#
#
# Mechanical properties :
#
#
# Convention : Reuss Voigt Hill
#
# Bulk Modulus (GPa) = 27.73246 46.90799 37.32023
# Shear Modulus (GPa) = 7.02448 31.10744 19.06596
#
# Velocity S-wave (km/s) = 1.84839 3.88972 3.04520
# Velocity P-wave (km/s) = 4.24780 6.55654 5.52413
#
# Compressibility (1/GPa) = 0.03605882
#
# Stress axis : x y z
#
# Youngs Moduli (GPa) = 108.15952 131.35430 35.94564
#
# Poissons Ratio (x) = 0.35969 -0.05073
# Poissons Ratio (y) = 0.29617 0.10722
# Poissons Ratio (z) = -0.15264 0.39180
#
# Static dielectric constant tensor:
#      x y z
#    x 1.723350 0.000000 0.000000 
#    y 0.000000 1.743940 0.000000 
#    z 0.000000 0.000000 1.741040 
# 
# From -- ./inp_files/6165.got.cif
#   From: 2010.05.17/outbox.cif.g08.bks.cpg/sg71_4_cif.got.tgz:6165.got - 2010.06.03 16:22:01.
