data_PCOD9523049
_publ_section_title
;
Structure prediction by ZEFSAII (Michael W. Deem and Ramdas Pophale) SiO2 
 PCOD9523049
Probable space group: I M M M
;
_chemical_formula_sum "Si O2"
_cell_formula_units_Z 58
_cell_length_a 15.777349
_cell_length_b 9.326375
_cell_length_c 22.186695
_cell_angle_alpha 90.000000
_cell_angle_beta 90.000000
_cell_angle_gamma 90.000000
_cell_volume 3264.671736
_symmetry_space_group_name_H-M "I M M M"
_symmetry_group_IT_number 71
_symmetry_cell_setting 'orthorhombic'
loop_
_space_group_symop_operation_xyz
x,y,z
-x,-y,z
x,-y,-z
-x,y,-z
-x,-y,-z
x,y,-z
-x,y,z
x,-y,z
1/2+x,1/2+y,1/2+z
1/2-x,1/2-y,1/2+z
1/2+x,1/2-y,1/2-z
1/2-x,1/2+y,1/2-z
1/2-x,1/2-y,1/2-z
1/2+x,1/2+y,1/2-z
1/2-x,1/2+y,1/2+z
1/2+x,1/2-y,1/2+z
loop_
_atom_site_type_symbol
_atom_site_label
_atom_site_fract_x
_atom_site_fract_y
_atom_site_fract_z
Si Si1 0.365278 0.332505 0.801079
Si Si2 0.102074 0.835710 0.931676
Si Si3 0.162712 0.666286 0.817871
Si Si4 0.000000 0.340734 0.625669
Si Si5 0.500000 0.000000 0.000000
O O1 0.388864 0.500000 0.799759
O O2 0.264737 0.322578 0.813404
O O3 0.377716 0.259318 0.735897
O O4 0.419024 0.246789 0.850524
O O5 0.135608 0.729183 0.881748
O O6 0.000000 0.833432 0.930807
O O7 0.128841 0.000000 0.918479
O O8 0.129292 0.800990 0.000000
O O9 0.139318 0.500000 0.811210
O O10 0.000000 0.376687 0.554582
O O11 0.000000 0.500000 0.654899
#
# Coordination Sequence:
#
# PCOD9523049 Si02
#       5
#    16  16  16   8   2
#     4  10  21  38  60  85 116 149 194 240 293 348
#     4   9  19  36  55  78 112 154 195 231 278 342
#     4  10  21  36  56  87 118 150 190 244 292 345
#     4  10  21  41  63  85 112 151 191 243 292 347
#     4   8  24  44  62  88 120 144 206 248 292 356
#
# _framework density 17.765951999999999
#
# number of rings (size 3 to 8) (size 9 to 14) (size 15 to 20)
#    0.414    1.931    0.000    2.897    1.931    4.414 
#    2.483    2.759    0.000    0.000    0.000    0.000 
#    0.000    0.000    0.000    0.000    0.000    0.000 
#
# Total GULP energy -161465.182839 kJ/mol
# GULP energy per Si atom -5567.764925 kJ/mol
# Density = 1.772552 g / cm^3
# Si number density = 17.765952 Si / 1000 Ang^3
#
#
#
# Elastic Constant Matrix: (Units=GPa)
#
#
# Indices 1 2 3 4 5 6 
#
# 1 24.1273 40.8100 33.8720 0.0000 0.0000 0.0000
# 2 40.8100 153.0530 93.0100 0.0000 0.0000 0.0000
# 3 33.8720 93.0100 134.9894 0.0000 0.0000 0.0000
# 4 0.0000 0.0000 0.0000 40.9121 0.0000 0.0000
# 5 0.0000 0.0000 0.0000 0.0000 22.1446 0.0000
# 6 0.0000 0.0000 0.0000 0.0000 0.0000 26.5274
#
#
#
# Elastic Compliance Matrix: (Units=1/GPa)
#
#
# Indices 1 2 3 4 5 6 
#
# 1 0.081988 -0.016101 -0.009479 0.000000 0.000000 0.000000
# 2 -0.016101 0.014402 -0.005883 0.000000 0.000000 0.000000
# 3 -0.009479 -0.005883 0.013840 0.000000 0.000000 0.000000
# 4 0.000000 0.000000 0.000000 0.024443 0.000000 0.000000
# 5 0.000000 0.000000 0.000000 0.000000 0.045158 0.000000
# 6 0.000000 0.000000 0.000000 0.000000 0.000000 0.037697
#
#
# Mechanical properties :
#
#
# Convention : Reuss Voigt Hill
#
# Bulk Modulus (GPa) = 21.13985 71.95042 46.54514
# Shear Modulus (GPa) = 16.87930 27.54866 22.21398
#
# Velocity S-wave (km/s) = 3.08570 3.94209 3.53989
# Velocity P-wave (km/s) = 4.96189 7.82989 6.55467
#
# Compressibility (1/GPa) = 0.04730402
#
# Stress axis : x y z
#
# Youngs Moduli (GPa) = 12.19695 69.43475 72.25433
#
# Poissons Ratio (x) = 1.11797 0.68488
# Poissons Ratio (y) = 0.19638 0.42508
# Poissons Ratio (z) = 0.11561 0.40849
#
# Static dielectric constant tensor:
#      x y z
#    x 1.617970 0.000000 0.000000 
#    y 0.000000 1.599080 0.000000 
#    z 0.000000 0.000000 1.578590 
# 
# From -- ./inp_files/7260.got.cif
#   From: 2010.05.17/outbox.cif.g08.bks.cpg/sg71_4_cif.got.tgz:7260.got - 2010.06.03 16:22:01.
