data_PCOD9523042
_publ_section_title
;
Structure prediction by ZEFSAII (Michael W. Deem and Ramdas Pophale) SiO2 
 PCOD9523042
Probable space group: I M M M
;
_chemical_formula_sum "Si O2"
_cell_formula_units_Z 66
_cell_length_a 30.175899
_cell_length_b 8.826609
_cell_length_c 14.268545
_cell_angle_alpha 90.000000
_cell_angle_beta 90.000000
_cell_angle_gamma 90.000000
_cell_volume 3800.439256
_symmetry_space_group_name_H-M "I M M M"
_symmetry_group_IT_number 71
_symmetry_cell_setting 'orthorhombic'
loop_
_space_group_symop_operation_xyz
x,y,z
-x,-y,z
x,-y,-z
-x,y,-z
-x,-y,-z
x,y,-z
-x,y,z
x,-y,z
1/2+x,1/2+y,1/2+z
1/2-x,1/2-y,1/2+z
1/2+x,1/2-y,1/2-z
1/2-x,1/2+y,1/2-z
1/2-x,1/2-y,1/2-z
1/2+x,1/2+y,1/2-z
1/2-x,1/2+y,1/2+z
1/2+x,1/2-y,1/2+z
loop_
_atom_site_type_symbol
_atom_site_label
_atom_site_fract_x
_atom_site_fract_y
_atom_site_fract_z
Si Si1 0.000000 0.500000 0.500000
Si Si2 0.948644 0.815787 0.000000
Si Si3 0.500000 0.167605 0.195638
Si Si4 0.822590 0.680853 0.748168
Si Si5 0.254717 0.318131 0.891682
Si Si6 0.082990 0.818058 0.204874
O O1 0.000000 0.369931 0.584841
O O2 0.925761 0.768447 0.903032
O O3 0.000000 0.767261 0.000000
O O4 0.948688 0.000000 0.000000
O O5 0.456598 0.254472 0.231142
O O6 0.500000 0.000000 0.241583
O O7 0.827622 0.500000 0.745730
O O8 0.789567 0.721763 0.833938
O O9 0.796228 0.737848 0.657058
O O10 0.869905 0.757294 0.760815
O O11 0.260395 0.500000 0.883856
O O12 0.250534 0.277682 0.000000
O O13 0.082263 0.000000 0.207440
#
# Coordination Sequence:
#
# PCOD9523042 Si02
#       6
#     2   8   8  16  16  16
#     4   8  24  44  66  78 112 156 190 252 296 334
#     4   9  18  34  56  86 121 152 184 226 282 346
#     4  10  21  42  62  84 114 152 189 242 290 328
#     4  10  21  36  56  85 117 150 189 238 291 341
#     4   9  19  38  59  80 111 150 194 243 288 341
#     4  11  21  37  61  88 119 155 190 233 284 350
#
# _framework density 17.366413999999999
#
# number of rings (size 3 to 8) (size 9 to 14) (size 15 to 20)
#    0.364    1.818    1.212    1.818    1.697    1.455 
#    2.182    3.636    0.000    0.000    0.000    0.000 
#    0.000    0.000    0.000    0.000    0.000    0.000 
#
# Total GULP energy -183790.862577 kJ/mol
# GULP energy per Si atom -5569.420078 kJ/mol
# Density = 1.732689 g / cm^3
# Si number density = 17.366414 Si / 1000 Ang^3
#
#
#
# Elastic Constant Matrix: (Units=GPa)
#
#
# Indices 1 2 3 4 5 6 
#
# 1 150.9356 51.8654 57.3943 0.0000 0.0000 0.0000
# 2 51.8654 52.4658 37.9506 0.0000 0.0000 0.0000
# 3 57.3943 37.9506 128.8044 0.0000 0.0000 0.0000
# 4 0.0000 0.0000 0.0000 25.3338 0.0000 0.0000
# 5 0.0000 0.0000 0.0000 0.0000 10.3183 0.0000
# 6 0.0000 0.0000 0.0000 0.0000 0.0000 18.0837
#
#
#
# Elastic Compliance Matrix: (Units=1/GPa)
#
#
# Indices 1 2 3 4 5 6 
#
# 1 0.010442 -0.008841 -0.002048 0.000000 0.000000 0.000000
# 2 -0.008841 0.031708 -0.005403 0.000000 0.000000 0.000000
# 3 -0.002048 -0.005403 0.010268 0.000000 0.000000 0.000000
# 4 0.000000 0.000000 0.000000 0.039473 0.000000 0.000000
# 5 0.000000 0.000000 0.000000 0.000000 0.096915 0.000000
# 6 0.000000 0.000000 0.000000 0.000000 0.000000 0.055298
#
#
# Mechanical properties :
#
#
# Convention : Reuss Voigt Hill
#
# Bulk Modulus (GPa) = 50.41752 69.62515 60.02134
# Shear Modulus (GPa) = 17.64906 23.08018 20.36462
#
# Velocity S-wave (km/s) = 3.19137 3.64952 3.42810
# Velocity P-wave (km/s) = 6.53257 7.61167 7.09267
#
# Compressibility (1/GPa) = 0.01983437
#
# Stress axis : x y z
#
# Youngs Moduli (GPa) = 95.76511 31.53748 97.38845
#
# Poissons Ratio (x) = 0.27883 0.19945
# Poissons Ratio (y) = 0.84669 0.52617
# Poissons Ratio (z) = 0.19613 0.17039
#
# Static dielectric constant tensor:
#      x y z
#    x 1.556010 0.000000 0.000000 
#    y 0.000000 1.582620 0.000000 
#    z 0.000000 0.000000 1.582610 
# 
# From -- ./inp_files/39905.got.cif
#   From: 2010.05.17/outbox.cif.g08.bks.cpg/sg71_20_cif.got.tgz:39905.got - 2010.06.03 16:22:01.
