data_PCOD9523928
_publ_section_title
;
Structure prediction by ZEFSAII (Michael W. Deem and Ramdas Pophale) SiO2 
 PCOD9523928
Probable space group: I M M M
;
_chemical_formula_sum "Si O2"
_cell_formula_units_Z 58
_cell_length_a 25.982598
_cell_length_b 14.260074
_cell_length_c 7.956650
_cell_angle_alpha 90.000000
_cell_angle_beta 90.000000
_cell_angle_gamma 90.000000
_cell_volume 2948.048390
_symmetry_space_group_name_H-M "I M M M"
_symmetry_group_IT_number 71
_symmetry_cell_setting 'orthorhombic'
loop_
_space_group_symop_operation_xyz
x,y,z
-x,-y,z
x,-y,-z
-x,y,-z
-x,-y,-z
x,y,-z
-x,y,z
x,-y,z
1/2+x,1/2+y,1/2+z
1/2-x,1/2-y,1/2+z
1/2+x,1/2-y,1/2-z
1/2-x,1/2+y,1/2-z
1/2-x,1/2-y,1/2-z
1/2+x,1/2+y,1/2-z
1/2-x,1/2+y,1/2+z
1/2+x,1/2-y,1/2+z
loop_
_atom_site_type_symbol
_atom_site_label
_atom_site_fract_x
_atom_site_fract_y
_atom_site_fract_z
Si Si1 0.000000 0.500000 0.000000
Si Si2 0.298417 0.187990 0.201089
Si Si3 0.252580 0.500000 0.807630
Si Si4 0.870018 0.000000 0.193601
Si Si5 0.100635 0.207722 0.299782
Si Si6 0.500000 0.830313 0.210462
O O1 0.000000 0.416881 0.844856
O O2 0.250000 0.250000 0.250000
O O3 0.283437 0.087632 0.270407
O O4 0.349754 0.236593 0.269597
O O5 0.302093 0.181431 0.000000
O O6 0.307553 0.500000 0.713487
O O7 0.269012 0.500000 0.000000
O O8 0.893202 0.097402 0.262208
O O9 0.882338 0.000000 0.000000
O O10 0.103515 0.214198 0.500000
O O11 0.049453 0.264313 0.253446
O O12 0.500000 0.852336 0.000000
#
# Coordination Sequence:
#
# PCOD9523928 Si02
#       6
#     2  16   8   8  16   8
#     4  12  26  48  80 104 140 164 238 288 328 418
#     4  11  22  38  62  92 128 171 220 273 328 398
#     4  12  24  39  58  89 131 179 224 268 334 401
#     4  12  24  37  66  99 137 174 220 277 332 403
#     4  10  23  44  69  95 134 177 222 272 338 406
#     4  10  25  50  76 103 136 181 223 283 344 392
#
# _framework density 19.674032
#
# number of rings (size 3 to 8) (size 9 to 14) (size 15 to 20)
#    0.000    1.103    2.759    3.517    1.931    2.759 
#    2.483    6.897    0.000    0.000    0.000    0.000 
#    0.000    0.000    0.000    0.000    0.000    0.000 
#
# Total GULP energy -161461.085735 kJ/mol
# GULP energy per Si atom -5567.623646 kJ/mol
# Density = 1.962925 g / cm^3
# Si number density = 19.674032 Si / 1000 Ang^3
#
#
#
# Elastic Constant Matrix: (Units=GPa)
#
#
# Indices 1 2 3 4 5 6 
#
# 1 157.4930 97.4952 22.1607 0.0000 0.0000 0.0000
# 2 97.4952 224.2078 28.9438 0.0000 0.0000 0.0000
# 3 22.1607 28.9438 44.9877 0.0000 0.0000 0.0000
# 4 0.0000 0.0000 0.0000 42.4764 0.0000 0.0000
# 5 0.0000 0.0000 0.0000 0.0000 21.9797 0.0000
# 6 0.0000 0.0000 0.0000 0.0000 0.0000 16.7618
#
#
#
# Elastic Compliance Matrix: (Units=1/GPa)
#
#
# Indices 1 2 3 4 5 6 
#
# 1 0.008859 -0.003587 -0.002056 0.000000 0.000000 0.000000
# 2 -0.003587 0.006316 -0.002297 0.000000 0.000000 0.000000
# 3 -0.002056 -0.002297 0.024719 0.000000 0.000000 0.000000
# 4 0.000000 0.000000 0.000000 0.023542 0.000000 0.000000
# 5 0.000000 0.000000 0.000000 0.000000 0.045496 0.000000
# 6 0.000000 0.000000 0.000000 0.000000 0.000000 0.059659
#
#
# Mechanical properties :
#
#
# Convention : Reuss Voigt Hill
#
# Bulk Modulus (GPa) = 41.64165 80.43200 61.03683
# Shear Modulus (GPa) = 25.97696 34.78284 30.37990
#
# Velocity S-wave (km/s) = 3.63763 4.20927 3.93385
# Velocity P-wave (km/s) = 6.23337 8.03710 7.19200
#
# Compressibility (1/GPa) = 0.02401442
#
# Stress axis : x y z
#
# Youngs Moduli (GPa) = 112.87546 158.31738 40.45471
#
# Poissons Ratio (x) = 0.56788 0.08319
# Poissons Ratio (y) = 0.40488 0.09292
# Poissons Ratio (z) = 0.23211 0.36364
#
# Static dielectric constant tensor:
#      x y z
#    x 1.715130 0.000000 0.000000 
#    y 0.000000 1.918630 0.000000 
#    z 0.000000 0.000000 0.849080 
# 
# From -- ./inp_files/14040.got.cif
#   From: 2010.05.17/outbox.cif.g08.bks.cpg/sg71_8_cif.got.tgz:14040.got - 2010.06.03 16:22:01.
