data_PCOD9523616
_publ_section_title
;
Structure prediction by ZEFSAII (Michael W. Deem and Ramdas Pophale) SiO2 
 PCOD9523616
Probable space group: I M M M
;
_chemical_formula_sum "Si O2"
_cell_formula_units_Z 96
_cell_length_a 22.345079
_cell_length_b 15.513772
_cell_length_c 16.352009
_cell_angle_alpha 90.000000
_cell_angle_beta 90.000000
_cell_angle_gamma 90.000000
_cell_volume 5668.529569
_symmetry_space_group_name_H-M "I M M M"
_symmetry_group_IT_number 71
_symmetry_cell_setting 'orthorhombic'
loop_
_space_group_symop_operation_xyz
x,y,z
-x,-y,z
x,-y,-z
-x,y,-z
-x,-y,-z
x,y,-z
-x,y,z
x,-y,z
1/2+x,1/2+y,1/2+z
1/2-x,1/2-y,1/2+z
1/2+x,1/2-y,1/2-z
1/2-x,1/2+y,1/2-z
1/2-x,1/2-y,1/2-z
1/2+x,1/2+y,1/2-z
1/2-x,1/2+y,1/2+z
1/2+x,1/2-y,1/2+z
loop_
_atom_site_type_symbol
_atom_site_label
_atom_site_fract_x
_atom_site_fract_y
_atom_site_fract_z
Si Si1 0.434336 0.811677 0.500000
Si Si2 0.566994 0.251494 0.685289
Si Si3 0.162255 0.903705 0.799208
Si Si4 0.140544 0.397347 0.267040
Si Si5 0.745174 0.648217 0.842077
Si Si6 0.690823 0.907900 0.500000
Si Si7 0.724403 0.156705 0.901509
O O1 0.500000 0.860471 0.500000
O O2 0.435030 0.764919 0.587650
O O3 0.366704 0.847730 0.500000
O O4 0.500000 0.274365 0.712278
O O5 0.613835 0.328446 0.696504
O O6 0.588194 0.165307 0.734346
O O7 0.193015 0.893977 0.710403
O O8 0.216037 0.888774 0.864810
O O9 0.138150 0.000000 0.810263
O O10 0.131245 0.500000 0.252082
O O11 0.196743 0.361076 0.215151
O O12 0.165035 0.383602 0.359439
O O13 0.766465 0.602355 0.923320
O O14 0.729852 0.745476 0.867794
O O15 0.661109 0.000000 0.500000
O O16 0.723573 0.154677 0.000000
#
# Coordination Sequence:
#
# PCOD9523616 Si02
#       7
#     8  16  16  16  16   8  16
#     4  10  22  37  53  76 114 158 188 219 263 317
#     4  11  23  40  57  78 111 150 193 230 266 320
#     4  11  22  37  57  82 114 147 185 229 277 327
#     4  11  21  36  57  81 112 145 182 229 277 328
#     4  11  19  34  54  83 113 147 180 225 284 333
#     4  12  20  29  52  85 118 144 181 227 274 334
#     4  11  20  35  58  84 115 148 177 220 282 338
#
# _framework density 16.93561
#
# number of rings (size 3 to 8) (size 9 to 14) (size 15 to 20)
#    0.000    1.000    5.833    4.000    1.167    2.167 
#    0.000    1.667    0.000    2.000    0.000    1.167 
#    0.000    3.333    0.000    0.000    0.000    0.000 
#
# Total GULP energy -267353.856211 kJ/mol
# GULP energy per Si atom -5569.872004 kJ/mol
# Density = 1.689706 g / cm^3
# Si number density = 16.935610 Si / 1000 Ang^3
#
#
#
# Elastic Constant Matrix: (Units=GPa)
#
#
# Indices 1 2 3 4 5 6 
#
# 1 75.3151 40.9880 31.3620 0.0000 0.0000 0.0000
# 2 40.9880 85.7213 37.5159 0.0000 0.0000 0.0000
# 3 31.3620 37.5159 113.5661 0.0000 0.0000 0.0000
# 4 0.0000 0.0000 0.0000 26.7258 0.0000 0.0000
# 5 0.0000 0.0000 0.0000 0.0000 -130.2159 0.0000
# 6 0.0000 0.0000 0.0000 0.0000 0.0000 -28.1457
#
#
#
# Elastic Compliance Matrix: (Units=1/GPa)
#
#
# Indices 1 2 3 4 5 6 
#
# 1 0.018566 -0.007755 -0.002565 0.000000 0.000000 0.000000
# 2 -0.007755 0.016876 -0.003433 0.000000 0.000000 0.000000
# 3 -0.002565 -0.003433 0.010648 0.000000 0.000000 0.000000
# 4 0.000000 0.000000 0.000000 0.037417 0.000000 0.000000
# 5 0.000000 0.000000 0.000000 0.000000 -0.007680 0.000000
# 6 0.000000 0.000000 0.000000 0.000000 0.000000 -0.035529
#
#
# Mechanical properties :
#
#
# Convention : Reuss Voigt Hill
#
# Bulk Modulus (GPa) = 53.81164 54.92599 54.36882
# Shear Modulus (GPa) = 67.56737 -15.34472 26.11132
#
# Velocity S-wave (km/s) = 6.32323 -3.01335 3.93084
# Velocity P-wave (km/s) = 9.22790 4.51615 7.26463
#
# Compressibility (1/GPa) = 0.01858334
#
# Stress axis : x y z
#
# Youngs Moduli (GPa) = 53.86169 59.25464 93.91314
#
# Poissons Ratio (x) = 0.45950 0.24093
# Poissons Ratio (y) = 0.41768 0.32245
# Poissons Ratio (z) = 0.13818 0.20345
#
# Static dielectric constant tensor:
#      x y z
#    x 1.569010 0.000000 0.000000 
#    y 0.000000 1.601530 0.000000 
#    z 0.000000 0.000000 1.686690 
# 
# From -- ./inp_files/34757.got.cif
#   From: 2010.05.17/outbox.cif.g08.bks.cpg/sg71_18_cif.got.tgz:34757.got - 2010.06.03 16:22:01.
