data_PCOD9523499
_publ_section_title
;
Structure prediction by ZEFSAII (Michael W. Deem and Ramdas Pophale) SiO2 
 PCOD9523499
Probable space group: I M M M
;
_chemical_formula_sum "Si O2"
_cell_formula_units_Z 72
_cell_length_a 8.770114
_cell_length_b 14.669963
_cell_length_c 29.726029
_cell_angle_alpha 90.000000
_cell_angle_beta 90.000000
_cell_angle_gamma 90.000000
_cell_volume 3824.469082
_symmetry_space_group_name_H-M "I M M M"
_symmetry_group_IT_number 71
_symmetry_cell_setting 'orthorhombic'
loop_
_space_group_symop_operation_xyz
x,y,z
-x,-y,z
x,-y,-z
-x,y,-z
-x,-y,-z
x,y,-z
-x,y,z
x,-y,z
1/2+x,1/2+y,1/2+z
1/2-x,1/2-y,1/2+z
1/2+x,1/2-y,1/2-z
1/2-x,1/2+y,1/2-z
1/2-x,1/2-y,1/2-z
1/2+x,1/2+y,1/2-z
1/2-x,1/2+y,1/2+z
1/2+x,1/2-y,1/2+z
loop_
_atom_site_type_symbol
_atom_site_label
_atom_site_fract_x
_atom_site_fract_y
_atom_site_fract_z
Si Si1 0.182285 0.500000 0.340843
Si Si2 0.179275 0.192182 0.553837
Si Si3 0.324541 0.000000 0.554763
Si Si4 0.682690 0.692760 0.791711
Si Si5 0.817573 0.500000 0.233251
Si Si6 0.318696 0.690324 0.372321
O O1 0.212428 0.500000 0.287096
O O2 0.253539 0.590370 0.362302
O O3 0.000000 0.500000 0.346824
O O4 0.198362 0.198402 0.500000
O O5 0.241062 0.092821 0.568590
O O6 0.270459 0.270440 0.579429
O O7 0.000000 0.199041 0.564114
O O8 0.500000 0.000000 0.569904
O O9 0.324215 0.000000 0.500000
O O10 0.500000 0.694553 0.790117
O O11 0.750000 0.750000 0.750000
O O12 0.744699 0.590526 0.787407
O O13 0.742590 0.741637 0.836347
O O14 0.000000 0.500000 0.226886
O O15 0.500000 0.690535 0.366912
#
# Coordination Sequence:
#
# PCOD9523499 Si02
#       6
#     8  16   8  16   8  16
#     4  11  23  41  65  89 120 161 206 253 305 368
#     4  10  21  39  63  91 125 164 206 253 307 366
#     4   9  17  32  57  88 121 157 197 243 299 361
#     4  12  24  40  62  90 123 160 202 250 302 361
#     4  11  23  40  64  92 124 163 205 254 307 364
#     4  12  25  41  64  92 124 161 206 255 306 366
#
# _framework density 18.826142000000001
#
# number of rings (size 3 to 8) (size 9 to 14) (size 15 to 20)
#    0.000    1.000    2.222    5.667    0.000    4.444 
#    0.000    5.000    0.000    3.333    0.000    0.000 
#    0.000    0.000    0.000    0.000    0.000    0.000 
#
# Total GULP energy -201406.391906 kJ/mol
# GULP energy per Si atom -5594.621997 kJ/mol
# Density = 1.878329 g / cm^3
# Si number density = 18.826142 Si / 1000 Ang^3
#
#
#
# Elastic Constant Matrix: (Units=GPa)
#
#
# Indices 1 2 3 4 5 6 
#
# 1 163.0627 85.5550 45.1899 0.0000 0.0000 0.0000
# 2 85.5550 185.4124 45.2173 0.0000 0.0000 0.0000
# 3 45.1899 45.2173 39.6675 0.0000 0.0000 0.0000
# 4 0.0000 0.0000 0.0000 16.2380 0.0000 0.0000
# 5 0.0000 0.0000 0.0000 0.0000 28.1464 0.0000
# 6 0.0000 0.0000 0.0000 0.0000 0.0000 37.9500
#
#
#
# Elastic Compliance Matrix: (Units=1/GPa)
#
#
# Indices 1 2 3 4 5 6 
#
# 1 0.009716 -0.002471 -0.008252 0.000000 0.000000 0.000000
# 2 -0.002471 0.008098 -0.006417 0.000000 0.000000 0.000000
# 3 -0.008252 -0.006417 0.041925 0.000000 0.000000 0.000000
# 4 0.000000 0.000000 0.000000 0.061584 0.000000 0.000000
# 5 0.000000 0.000000 0.000000 0.000000 0.035528 0.000000
# 6 0.000000 0.000000 0.000000 0.000000 0.000000 0.026350
#
#
# Mechanical properties :
#
#
# Convention : Reuss Voigt Hill
#
# Bulk Modulus (GPa) = 39.27704 82.22965 60.75335
# Shear Modulus (GPa) = 22.12707 30.61225 26.36966
#
# Velocity S-wave (km/s) = 3.43204 4.03681 3.74664
# Velocity P-wave (km/s) = 6.05091 8.09327 7.14544
#
# Compressibility (1/GPa) = 0.02546017
#
# Stress axis : x y z
#
# Youngs Moduli (GPa) = 102.92457 123.48262 23.85217
#
# Poissons Ratio (x) = 0.30509 0.19683
# Poissons Ratio (y) = 0.25430 0.15305
# Poissons Ratio (z) = 0.84934 0.79234
#
# Static dielectric constant tensor:
#      x y z
#    x 1.625900 0.000000 0.000000 
#    y 0.000000 1.628250 0.000000 
#    z 0.000000 0.000000 1.667670 
# 
# From -- ./inp_files/62901.got.cif
#   From: 2010.05.17/outbox.cif.g08.bks.cpg/sg71_32_cif.got.tgz:62901.got - 2010.06.03 16:22:01.
