data_PCOD9523489
_publ_section_title
;
Structure prediction by ZEFSAII (Michael W. Deem and Ramdas Pophale) SiO2 
 PCOD9523489
Probable space group: I M M M
;
_chemical_formula_sum "Si O2"
_cell_formula_units_Z 64
_cell_length_a 17.635748
_cell_length_b 8.774843
_cell_length_c 21.294463
_cell_angle_alpha 90.000000
_cell_angle_beta 90.000000
_cell_angle_gamma 90.000000
_cell_volume 3295.337738
_symmetry_space_group_name_H-M "I M M M"
_symmetry_group_IT_number 71
_symmetry_cell_setting 'orthorhombic'
loop_
_space_group_symop_operation_xyz
x,y,z
-x,-y,z
x,-y,-z
-x,y,-z
-x,-y,-z
x,y,-z
-x,y,z
x,-y,z
1/2+x,1/2+y,1/2+z
1/2-x,1/2-y,1/2+z
1/2+x,1/2-y,1/2-z
1/2-x,1/2+y,1/2-z
1/2-x,1/2-y,1/2-z
1/2+x,1/2+y,1/2-z
1/2-x,1/2+y,1/2+z
1/2+x,1/2-y,1/2+z
loop_
_atom_site_type_symbol
_atom_site_label
_atom_site_fract_x
_atom_site_fract_y
_atom_site_fract_z
Si Si1 0.668905 0.185333 0.426666
Si Si2 0.908390 0.673585 0.500000
Si Si3 0.909953 0.822496 0.631361
Si Si4 0.000000 0.326235 0.075932
Si Si5 0.771962 0.678792 0.683770
O O1 0.684621 0.228826 0.500000
O O2 0.582971 0.239629 0.408859
O O3 0.726888 0.247082 0.374932
O O4 0.669010 0.000000 0.425309
O O5 0.878320 0.500000 0.500000
O O6 0.888753 0.768274 0.561404
O O7 0.000000 0.661973 0.500000
O O8 0.860512 0.716713 0.675326
O O9 0.000000 0.804442 0.639214
O O10 0.890991 0.000000 0.640125
O O11 0.000000 0.500000 0.100310
O O12 0.000000 0.334156 0.000000
O O13 0.757920 0.500000 0.683303
O O14 0.750000 0.750000 0.750000
#
# Coordination Sequence:
#
# PCOD9523489 Si02
#       5
#    16   8  16   8  16
#     4   9  18  36  64  94 123 157 198 245 300 362
#     4   9  17  31  55  89 123 154 193 240 289 347
#     4  10  21  39  63  89 119 156 199 248 303 361
#     4   7  12  28  57  91 121 151 192 239 288 353
#     4  12  26  43  61  85 122 162 206 253 304 363
#
# _framework density 19.421379000000002
#
# number of rings (size 3 to 8) (size 9 to 14) (size 15 to 20)
#    0.000    2.250    0.000    4.875    1.750    3.500 
#    2.250    0.625    0.000    2.250    0.000    0.000 
#    0.000    0.000    0.000    0.000    0.000    0.000 
#
# Total GULP energy -178478.430130 kJ/mol
# GULP energy per Si atom -5577.450942 kJ/mol
# Density = 1.937718 g / cm^3
# Si number density = 19.421379 Si / 1000 Ang^3
#
#
#
# Elastic Constant Matrix: (Units=GPa)
#
#
# Indices 1 2 3 4 5 6 
#
# 1 71.9182 32.3065 42.7250 0.0000 0.0000 0.0000
# 2 32.3065 71.9609 39.0396 0.0000 0.0000 0.0000
# 3 42.7250 39.0396 98.8302 0.0000 0.0000 0.0000
# 4 0.0000 0.0000 0.0000 25.3835 0.0000 0.0000
# 5 0.0000 0.0000 0.0000 0.0000 0.2312 0.0000
# 6 0.0000 0.0000 0.0000 0.0000 0.0000 25.4010
#
#
#
# Elastic Compliance Matrix: (Units=1/GPa)
#
#
# Indices 1 2 3 4 5 6 
#
# 1 0.020310 -0.005542 -0.006591 0.000000 0.000000 0.000000
# 2 -0.005542 0.019199 -0.005188 0.000000 0.000000 0.000000
# 3 -0.006591 -0.005188 0.015017 0.000000 0.000000 0.000000
# 4 0.000000 0.000000 0.000000 0.039396 0.000000 0.000000
# 5 0.000000 0.000000 0.000000 0.000000 4.325356 0.000000
# 6 0.000000 0.000000 0.000000 0.000000 0.000000 0.039369
#
#
# Mechanical properties :
#
#
# Convention : Reuss Voigt Hill
#
# Bulk Modulus (GPa) = 50.29255 52.31684 51.30469
# Shear Modulus (GPa) = 1.11113 18.77902 9.94507
#
# Velocity S-wave (km/s) = 0.75721 3.11292 2.26535
# Velocity P-wave (km/s) = 5.16877 6.31796 5.77203
#
# Compressibility (1/GPa) = 0.01988366
#
# Stress axis : x y z
#
# Youngs Moduli (GPa) = 49.23728 52.08542 66.59160
#
# Poissons Ratio (x) = 0.28868 0.43889
# Poissons Ratio (y) = 0.27290 0.34547
# Poissons Ratio (z) = 0.32451 0.27022
#
# Static dielectric constant tensor:
#      x y z
#    x 1.752320 0.000000 0.000000 
#    y 0.000000 1.664020 0.000000 
#    z 0.000000 0.000000 1.548340 
# 
# From -- ./inp_files/53694.got.cif
#   From: 2010.05.17/outbox.cif.g08.bks.cpg/sg71_27_cif.got.tgz:53694.got - 2010.06.03 16:22:01.
