data_PCOD9523433
_publ_section_title
;
Structure prediction by ZEFSAII (Michael W. Deem and Ramdas Pophale) SiO2 
 PCOD9523433
Probable space group: I M M M
;
_chemical_formula_sum "Si O2"
_cell_formula_units_Z 108
_cell_length_a 15.414642
_cell_length_b 25.239750
_cell_length_c 13.878832
_cell_angle_alpha 90.000000
_cell_angle_beta 90.000000
_cell_angle_gamma 90.000000
_cell_volume 5399.722117
_symmetry_space_group_name_H-M "I M M M"
_symmetry_group_IT_number 71
_symmetry_cell_setting 'orthorhombic'
loop_
_space_group_symop_operation_xyz
x,y,z
-x,-y,z
x,-y,-z
-x,y,-z
-x,-y,-z
x,y,-z
-x,y,z
x,-y,z
1/2+x,1/2+y,1/2+z
1/2-x,1/2-y,1/2+z
1/2+x,1/2-y,1/2-z
1/2-x,1/2+y,1/2-z
1/2-x,1/2-y,1/2-z
1/2+x,1/2+y,1/2-z
1/2-x,1/2+y,1/2+z
1/2+x,1/2-y,1/2+z
loop_
_atom_site_type_symbol
_atom_site_label
_atom_site_fract_x
_atom_site_fract_y
_atom_site_fract_z
Si Si1 0.594210 0.328401 0.297943
Si Si2 0.600542 0.205384 0.255105
Si Si3 0.722440 0.154982 0.886118
Si Si4 0.902218 0.439977 0.382642
Si Si5 0.000000 0.000000 0.364797
Si Si6 0.830236 0.389143 0.112880
Si Si7 0.377552 0.396028 0.110860
Si Si8 0.397359 0.000000 0.389099
O O1 0.500000 0.342006 0.341633
O O2 0.602537 0.265036 0.293895
O O3 0.678787 0.348838 0.352525
O O4 0.595049 0.353557 0.191146
O O5 0.500000 0.194297 0.228362
O O6 0.668001 0.200631 0.167112
O O7 0.634331 0.162080 0.331663
O O8 0.670164 0.102185 0.856633
O O9 0.718586 0.161805 0.000000
O O10 0.904337 0.439969 0.500000
O O11 0.883665 0.500000 0.352725
O O12 0.000000 0.426011 0.350736
O O13 0.075519 0.952440 0.369290
O O14 0.726775 0.396421 0.118069
O O15 0.868930 0.443970 0.153091
O O16 0.855039 0.383993 0.000000
O O17 0.398654 0.381737 0.000000
O O18 0.500000 0.000000 0.392546
O O19 0.362280 0.000000 0.500000
#
# Coordination Sequence:
#
# PCOD9523433 Si02
#       8
#    16  16  16  16   4  16  16   8
#     4  11  25  45  63  91 129 172 219 269 331 392
#     4  11  24  42  64  93 133 168 218 275 327 401
#     4  11  23  41  64  90 124 166 218 270 320 379
#     4   8  15  32  59  88 117 149 191 251 319 377
#     4  12  23  40  70 108 137 170 225 286 348 412
#     4  10  21  38  63  95 131 173 212 261 331 402
#     4  11  22  39  66  96 130 166 212 273 337 398
#     4   9  17  32  55  87 129 165 198 241 305 394
#
# _framework density 20.001028999999999
#
# number of rings (size 3 to 8) (size 9 to 14) (size 15 to 20)
#    0.000    1.704    2.222    2.889    0.000    4.444 
#    2.667    2.963    0.000    0.000    0.000    2.593 
#    0.000    0.000    0.000    0.000    0.000    0.000 
#
# Total GULP energy -301013.887920 kJ/mol
# GULP energy per Si atom -5574.331258 kJ/mol
# Density = 1.995551 g / cm^3
# Si number density = 20.001029 Si / 1000 Ang^3
#
#
#
# Elastic Constant Matrix: (Units=GPa)
#
#
# Indices 1 2 3 4 5 6 
#
# 1 150.3613 30.6029 21.9545 0.0000 0.0000 0.0000
# 2 30.6029 100.2816 22.8654 -0.0001 0.0000 0.0000
# 3 21.9545 22.8654 73.7092 -0.0001 0.0000 0.0001
# 4 0.0000 -0.0001 -0.0001 11.2767 0.0000 0.0001
# 5 0.0000 0.0000 0.0000 0.0000 15.7681 0.0000
# 6 0.0000 0.0000 0.0001 0.0001 0.0000 -24.4521
#
#
#
# Elastic Compliance Matrix: (Units=1/GPa)
#
#
# Indices 1 2 3 4 5 6 
#
# 1 0.007260 -0.001853 -0.001587 0.000000 0.000000 0.000000
# 2 -0.001853 0.011204 -0.002924 0.000000 0.000000 0.000000
# 3 -0.001587 -0.002924 0.014947 0.000000 0.000000 0.000000
# 4 0.000000 0.000000 0.000000 0.088679 0.000000 0.000000
# 5 0.000000 0.000000 0.000000 0.000000 0.063419 0.000000
# 6 0.000000 0.000000 0.000000 0.000000 0.000000 -0.040896
#
#
# Mechanical properties :
#
#
# Convention : Reuss Voigt Hill
#
# Bulk Modulus (GPa) = 48.35234 52.79977 50.57606
# Shear Modulus (GPa) = 30.44425 17.11381 23.77903
#
# Velocity S-wave (km/s) = 3.90569 2.92832 3.45177
# Velocity P-wave (km/s) = 6.67582 6.15542 6.42090
#
# Compressibility (1/GPa) = 0.02068152
#
# Stress axis : x y z
#
# Youngs Moduli (GPa) = 137.74757 89.25253 66.90508
#
# Poissons Ratio (x) = 0.16543 0.10620
# Poissons Ratio (y) = 0.25531 0.19560
# Poissons Ratio (z) = 0.21865 0.26094
#
# Static dielectric constant tensor:
#      x y z
#    x 1.708590 0.000000 0.000000 
#    y 0.000000 1.689350 0.000000 
#    z 0.000000 0.000000 1.759900 
# 
# From -- ./inp_files/34949.got.cif
#   From: 2010.05.17/outbox.cif.g08.bks.cpg/sg71_18_cif.got.tgz:34949.got - 2010.06.03 16:22:01.
