data_PCOD9523583
_publ_section_title
;
Structure prediction by ZEFSAII (Michael W. Deem and Ramdas Pophale) SiO2 
 PCOD9523583
Probable space group: I M M M
;
_chemical_formula_sum "Si O2"
_cell_formula_units_Z 74
_cell_length_a 11.851047
_cell_length_b 14.556877
_cell_length_c 27.162260
_cell_angle_alpha 90.000000
_cell_angle_beta 90.000000
_cell_angle_gamma 90.000000
_cell_volume 4685.876464
_symmetry_space_group_name_H-M "I M M M"
_symmetry_group_IT_number 71
_symmetry_cell_setting 'orthorhombic'
loop_
_space_group_symop_operation_xyz
x,y,z
-x,-y,z
x,-y,-z
-x,y,-z
-x,-y,-z
x,y,-z
-x,y,z
x,-y,z
1/2+x,1/2+y,1/2+z
1/2-x,1/2-y,1/2+z
1/2+x,1/2-y,1/2-z
1/2-x,1/2+y,1/2-z
1/2-x,1/2-y,1/2-z
1/2+x,1/2+y,1/2-z
1/2-x,1/2+y,1/2+z
1/2+x,1/2-y,1/2+z
loop_
_atom_site_type_symbol
_atom_site_label
_atom_site_fract_x
_atom_site_fract_y
_atom_site_fract_z
Si Si1 0.134120 0.104795 0.668345
Si Si2 0.774438 0.708775 0.633595
Si Si3 0.635277 0.602858 0.557385
Si Si4 0.500000 0.000000 0.000000
Si Si5 0.500000 0.101725 0.103445
Si Si6 0.868956 0.108214 0.214168
O O1 0.200818 0.184144 0.640602
O O2 0.147392 0.118161 0.727271
O O3 0.000000 0.113587 0.658313
O O4 0.167600 0.000000 0.656642
O O5 0.690174 0.680498 0.590049
O O6 0.890414 0.656989 0.620541
O O7 0.717109 0.667750 0.682670
O O8 0.665907 0.611302 0.500000
O O9 0.500000 0.604673 0.561017
O O10 0.673465 0.500000 0.573535
O O11 0.500000 0.921124 0.044777
O O12 0.500000 0.000000 0.127095
O O13 0.000000 0.132021 0.202807
O O14 0.855168 0.000000 0.202238
#
# Coordination Sequence:
#
# PCOD9523583 Si02
#       6
#    16  16  16   2   8  16
#     4   9  19  36  51  69  99 135 177 216 251 293
#     4  12  19  30  52  78  98 132 174 209 246 307
#     4   9  19  33  51  77 105 131 160 200 251 309
#     4   8  24  40  40  68 120 152 152 188 280 330
#     4  10  22  32  47  73 109 137 164 196 258 321
#     4   9  18  32  52  75 102 134 166 209 258 302
#
# _framework density 15.792137
#
# number of rings (size 3 to 8) (size 9 to 14) (size 15 to 20)
#    0.324    1.946    1.081    5.189    1.514    1.730 
#    0.000    0.000    0.000    3.243    0.000    3.784 
#    0.000    0.000    0.000    0.000    0.000    0.000 
#
# Total GULP energy -206027.930037 kJ/mol
# GULP energy per Si atom -5568.322433 kJ/mol
# Density = 1.575619 g / cm^3
# Si number density = 15.792137 Si / 1000 Ang^3
#
#
#
# Elastic Constant Matrix: (Units=GPa)
#
#
# Indices 1 2 3 4 5 6 
#
# 1 48.9620 52.8136 34.3000 0.0000 0.0000 0.0000
# 2 52.8136 137.5672 65.5745 0.0000 0.0000 0.0000
# 3 34.3000 65.5745 60.0337 0.0000 0.0000 0.0000
# 4 0.0000 0.0000 0.0000 19.7636 0.0000 0.0000
# 5 0.0000 0.0000 0.0000 0.0000 -20.8297 0.0000
# 6 0.0000 0.0000 0.0000 0.0000 0.0000 23.5183
#
#
#
# Elastic Compliance Matrix: (Units=1/GPa)
#
#
# Indices 1 2 3 4 5 6 
#
# 1 0.038771 -0.009024 -0.012295 0.000000 0.000000 0.000000
# 2 -0.009024 0.017266 -0.013703 0.000000 0.000000 0.000000
# 3 -0.012295 -0.013703 0.038650 0.000000 0.000000 0.000000
# 4 0.000000 0.000000 0.000000 0.050598 0.000000 0.000000
# 5 0.000000 0.000000 0.000000 0.000000 -0.048008 0.000000
# 6 0.000000 0.000000 0.000000 0.000000 0.000000 0.042520
#
#
# Mechanical properties :
#
#
# Convention : Reuss Voigt Hill
#
# Bulk Modulus (GPa) = 40.58058 61.32657 50.95358
# Shear Modulus (GPa) = 22.93011 10.74875 16.83943
#
# Velocity S-wave (km/s) = 3.81464 2.61174 3.26899
# Velocity P-wave (km/s) = 6.71971 6.92913 6.82522
#
# Compressibility (1/GPa) = 0.02464233
#
# Stress axis : x y z
#
# Youngs Moduli (GPa) = 25.79254 57.91886 25.87343
#
# Poissons Ratio (x) = 0.52266 0.31810
# Poissons Ratio (y) = 0.23275 0.35455
# Poissons Ratio (z) = 0.31711 0.79367
#
# Static dielectric constant tensor:
#      x y z
#    x 1.546430 0.000000 0.000000 
#    y 0.000000 1.512490 0.000000 
#    z 0.000000 0.000000 1.530740 
# 
# From -- ./inp_files/69165.got.cif
#   From: 2010.05.17/outbox.cif.g08.bks.cpg/sg71_35_cif.got.tgz:69165.got - 2010.06.03 16:22:01.
