data_PCOD9523710
_publ_section_title
;
Structure prediction by ZEFSAII (Michael W. Deem and Ramdas Pophale) SiO2 
 PCOD9523710
Probable space group: I M M M
;
_chemical_formula_sum "Si O2"
_cell_formula_units_Z 58
_cell_length_a 14.888739
_cell_length_b 8.045487
_cell_length_c 26.241992
_cell_angle_alpha 90.000000
_cell_angle_beta 90.000000
_cell_angle_gamma 90.000000
_cell_volume 3143.453591
_symmetry_space_group_name_H-M "I M M M"
_symmetry_group_IT_number 71
_symmetry_cell_setting 'orthorhombic'
loop_
_space_group_symop_operation_xyz
x,y,z
-x,-y,z
x,-y,-z
-x,y,-z
-x,-y,-z
x,y,-z
-x,y,z
x,-y,z
1/2+x,1/2+y,1/2+z
1/2-x,1/2-y,1/2+z
1/2+x,1/2-y,1/2-z
1/2-x,1/2+y,1/2-z
1/2-x,1/2-y,1/2-z
1/2+x,1/2+y,1/2-z
1/2-x,1/2+y,1/2+z
1/2+x,1/2-y,1/2+z
loop_
_atom_site_type_symbol
_atom_site_label
_atom_site_fract_x
_atom_site_fract_y
_atom_site_fract_z
Si Si1 0.000000 0.500000 0.500000
Si Si2 0.856283 0.186764 0.500000
Si Si3 0.809236 0.307355 0.396481
Si Si4 0.500000 0.696704 0.852526
Si Si5 0.805611 0.301299 0.800136
Si Si6 0.500000 0.202094 0.734742
O O1 0.077153 0.652303 0.500000
O O2 0.799736 0.204470 0.448171
O O3 0.897217 0.000000 0.500000
O O4 0.799208 0.500000 0.408248
O O5 0.743022 0.262961 0.350521
O O6 0.910765 0.274323 0.376663
O O7 0.500000 0.500000 0.862072
O O8 0.500000 0.730701 0.792286
O O9 0.805233 0.500000 0.802319
O O10 0.750000 0.250000 0.750000
O O11 0.908332 0.244793 0.792703
O O12 0.500000 0.000000 0.738027
#
# Coordination Sequence:
#
# PCOD9523710 Si02
#       6
#     2   8  16   8  16   8
#     4  12  22  44  60  98 132 162 214 260 312 368
#     4  12  25  43  63  89 126 172 212 256 312 379
#     4  12  24  41  60  87 125 166 209 260 309 369
#     4  12  23  34  56  87 121 162 206 248 300 371
#     4  11  22  38  60  89 120 164 207 257 314 372
#     4  10  22  39  58  85 124 161 203 255 312 369
#
# _framework density 18.451044
#
# number of rings (size 3 to 8) (size 9 to 14) (size 15 to 20)
#    0.000    0.552    4.138    5.586    0.000    1.103 
#    0.000    0.000    0.000    0.828    0.000    5.793 
#    0.000    0.000    0.000    0.000    0.000    0.000 
#
# Total GULP energy -161862.492371 kJ/mol
# GULP energy per Si atom -5581.465254 kJ/mol
# Density = 1.840905 g / cm^3
# Si number density = 18.451044 Si / 1000 Ang^3
#
#
#
# Elastic Constant Matrix: (Units=GPa)
#
#
# Indices 1 2 3 4 5 6 
#
# 1 120.0475 19.5645 62.0180 0.0000 0.0000 0.0000
# 2 19.5645 105.5976 25.7457 0.0000 0.0000 0.0000
# 3 62.0180 25.7457 153.1081 0.0000 0.0000 0.0000
# 4 0.0000 0.0000 0.0000 30.5891 0.0000 0.0000
# 5 0.0000 0.0000 0.0000 0.0000 95.9671 0.0000
# 6 0.0000 0.0000 0.0000 0.0000 0.0000 15.6001
#
#
#
# Elastic Compliance Matrix: (Units=1/GPa)
#
#
# Indices 1 2 3 4 5 6 
#
# 1 0.010627 -0.000959 -0.004143 0.000000 0.000000 0.000000
# 2 -0.000959 0.009961 -0.001287 0.000000 0.000000 0.000000
# 3 -0.004143 -0.001287 0.008426 0.000000 0.000000 0.000000
# 4 0.000000 0.000000 0.000000 0.032691 0.000000 0.000000
# 5 0.000000 0.000000 0.000000 0.000000 0.010420 0.000000
# 6 0.000000 0.000000 0.000000 0.000000 0.000000 0.064102
#
#
# Mechanical properties :
#
#
# Convention : Reuss Voigt Hill
#
# Bulk Modulus (GPa) = 61.58904 65.93439 63.76171
# Shear Modulus (GPa) = 32.37980 46.52625 39.45303
#
# Velocity S-wave (km/s) = 4.19370 5.02701 4.62914
# Velocity P-wave (km/s) = 7.54332 8.33707 7.95011
#
# Compressibility (1/GPa) = 0.01623666
#
# Stress axis : x y z
#
# Youngs Moduli (GPa) = 94.10223 100.38907 118.68072
#
# Poissons Ratio (x) = 0.09624 0.49173
# Poissons Ratio (y) = 0.09021 0.15271
# Poissons Ratio (z) = 0.38989 0.12917
#
# Static dielectric constant tensor:
#      x y z
#    x 1.613810 0.000000 0.000000 
#    y 0.000000 1.654690 0.000000 
#    z 0.000000 0.000000 1.742050 
# 
# From -- ./inp_files/11940.got.cif
#   From: 2010.05.17/outbox.cif.g08.bks.cpg/sg71_6_cif.got.tgz:11940.got - 2010.06.03 16:22:01.
