data_PCOD9523146
_publ_section_title
;
Structure prediction by ZEFSAII (Michael W. Deem and Ramdas Pophale) SiO2 
 PCOD9523146
Probable space group: I M M M
;
_chemical_formula_sum "Si O2"
_cell_formula_units_Z 88
_cell_length_a 7.544226
_cell_length_b 19.602338
_cell_length_c 29.994456
_cell_angle_alpha 90.000000
_cell_angle_beta 90.000000
_cell_angle_gamma 90.000000
_cell_volume 4435.714169
_symmetry_space_group_name_H-M "I M M M"
_symmetry_group_IT_number 71
_symmetry_cell_setting 'orthorhombic'
loop_
_space_group_symop_operation_xyz
x,y,z
-x,-y,z
x,-y,-z
-x,y,-z
-x,-y,-z
x,y,-z
-x,y,z
x,-y,z
1/2+x,1/2+y,1/2+z
1/2-x,1/2-y,1/2+z
1/2+x,1/2-y,1/2-z
1/2-x,1/2+y,1/2-z
1/2-x,1/2-y,1/2-z
1/2+x,1/2+y,1/2-z
1/2-x,1/2+y,1/2+z
1/2+x,1/2-y,1/2+z
loop_
_atom_site_type_symbol
_atom_site_label
_atom_site_fract_x
_atom_site_fract_y
_atom_site_fract_z
Si Si1 0.709648 0.820601 0.275463
Si Si2 0.283757 0.921714 0.550766
Si Si3 0.000000 0.579076 0.553102
Si Si4 0.285925 0.344695 0.390746
Si Si5 0.710366 0.423353 0.301663
Si Si6 0.783896 0.312417 0.123659
O O1 0.500000 0.822755 0.279984
O O2 0.750000 0.750000 0.250000
O O3 0.761854 0.883145 0.244092
O O4 0.782078 0.823103 0.325745
O O5 0.229607 0.904324 0.500000
O O6 0.500000 0.920818 0.551075
O O7 0.222710 0.868487 0.588041
O O8 0.230383 0.000000 0.559940
O O9 0.826257 0.615898 0.572472
O O10 0.000000 0.500000 0.567358
O O11 0.000000 0.582036 0.500000
O O12 0.500000 0.351702 0.395864
O O13 0.229613 0.377416 0.343246
O O14 0.241549 0.264678 0.390559
O O15 0.500000 0.428892 0.307658
O O16 0.784817 0.500000 0.301793
O O17 0.000000 0.316164 0.124475
#
# Coordination Sequence:
#
# PCOD9523146 Si02
#       6
#    16  16   8  16  16  16
#     4  11  21  34  53  79 114 150 186 235 293 348
#     4   8  14  26  46  74 109 146 183 229 285 343
#     4  11  26  44  62  90 123 153 197 251 301 363
#     4  10  21  40  63  87 117 156 198 246 302 354
#     4  10  21  37  56  80 112 151 198 244 289 352
#     4   9  18  32  53  82 114 150 195 241 290 350
#
# _framework density 19.83897
#
# number of rings (size 3 to 8) (size 9 to 14) (size 15 to 20)
#    0.000    2.273    1.818    1.636    1.273    3.273 
#    1.636    4.545    0.000    0.000    0.000    0.000 
#    0.000    2.182    0.000    0.182    0.000    0.000 
#
# Total GULP energy -245629.196752 kJ/mol
# GULP energy per Si atom -5582.481744 kJ/mol
# Density = 1.979382 g / cm^3
# Si number density = 19.838970 Si / 1000 Ang^3
#
#
#
# Elastic Constant Matrix: (Units=GPa)
#
#
# Indices 1 2 3 4 5 6 
#
# 1 53.7630 21.0248 18.3903 0.0000 0.0000 0.0000
# 2 21.0248 182.8579 114.6296 0.0000 0.0000 0.0000
# 3 18.3903 114.6296 155.0945 0.0000 0.0000 0.0000
# 4 0.0000 0.0000 0.0000 41.8283 0.0000 0.0000
# 5 0.0000 0.0000 0.0000 0.0000 16.5600 0.0000
# 6 0.0000 0.0000 0.0000 0.0000 0.0000 -6.8964
#
#
#
# Elastic Compliance Matrix: (Units=1/GPa)
#
#
# Indices 1 2 3 4 5 6 
#
# 1 0.019600 -0.001485 -0.001227 0.000000 0.000000 0.000000
# 2 -0.001485 0.010302 -0.007438 0.000000 0.000000 0.000000
# 3 -0.001227 -0.007438 0.012091 0.000000 0.000000 0.000000
# 4 0.000000 0.000000 0.000000 0.023907 0.000000 0.000000
# 5 0.000000 0.000000 0.000000 0.000000 0.060387 0.000000
# 6 0.000000 0.000000 0.000000 0.000000 0.000000 -0.145004
#
#
# Mechanical properties :
#
#
# Convention : Reuss Voigt Hill
#
# Bulk Modulus (GPa) = 46.09583 77.75611 61.92597
# Shear Modulus (GPa) = 567.25367 26.14310 296.69838
#
# Velocity S-wave (km/s) = 16.92778 3.63404 12.24247
# Velocity P-wave (km/s) = 20.13335 7.54235 15.20261
#
# Compressibility (1/GPa) = 0.02169394
#
# Stress axis : x y z
#
# Youngs Moduli (GPa) = 51.01943 97.06473 82.70700
#
# Poissons Ratio (x) = 0.14409 0.10148
# Poissons Ratio (y) = 0.07574 0.61521
# Poissons Ratio (z) = 0.06260 0.72201
#
# Static dielectric constant tensor:
#      x y z
#    x 1.724500 0.000000 0.000000 
#    y 0.000000 1.668940 0.000000 
#    z 0.000000 0.000000 1.683730 
# 
# From -- ./inp_files/68028.got.cif
#   From: 2010.05.17/outbox.cif.g08.bks.cpg/sg71_35_cif.got.tgz:68028.got - 2010.06.03 16:22:01.
