data_PCOD9523902
_publ_section_title
;
Structure prediction by ZEFSAII (Michael W. Deem and Ramdas Pophale) SiO2 
 PCOD9523902
Probable space group: I M M M
;
_chemical_formula_sum "Si O2"
_cell_formula_units_Z 84
_cell_length_a 23.061992
_cell_length_b 11.734554
_cell_length_c 15.590830
_cell_angle_alpha 90.000000
_cell_angle_beta 90.000000
_cell_angle_gamma 90.000000
_cell_volume 4219.224566
_symmetry_space_group_name_H-M "I M M M"
_symmetry_group_IT_number 71
_symmetry_cell_setting 'orthorhombic'
loop_
_space_group_symop_operation_xyz
x,y,z
-x,-y,z
x,-y,-z
-x,y,-z
-x,-y,-z
x,y,-z
-x,y,z
x,-y,z
1/2+x,1/2+y,1/2+z
1/2-x,1/2-y,1/2+z
1/2+x,1/2-y,1/2-z
1/2-x,1/2+y,1/2-z
1/2-x,1/2-y,1/2-z
1/2+x,1/2+y,1/2-z
1/2-x,1/2+y,1/2+z
1/2+x,1/2-y,1/2+z
loop_
_atom_site_type_symbol
_atom_site_label
_atom_site_fract_x
_atom_site_fract_y
_atom_site_fract_z
Si Si1 0.931235 0.633038 0.500000
Si Si2 0.142025 0.273293 0.651463
Si Si3 0.383818 0.636611 0.320787
Si Si4 0.500000 0.239745 0.395500
Si Si5 0.380119 0.000000 0.757331
Si Si6 0.500000 0.000000 0.706638
Si Si7 0.680428 0.000000 0.597957
Si Si8 0.232978 0.738351 0.149545
O O1 0.910796 0.500000 0.500000
O O2 0.906298 0.698814 0.582116
O O3 0.000000 0.632966 0.500000
O O4 0.123514 0.177991 0.721221
O O5 0.148492 0.388325 0.706853
O O6 0.204488 0.258425 0.607187
O O7 0.387522 0.500000 0.326558
O O8 0.441266 0.695390 0.362011
O O9 0.323703 0.682690 0.364366
O O10 0.500000 0.234236 0.500000
O O11 0.500000 0.115053 0.350382
O O12 0.376649 0.000000 0.655084
O O13 0.447157 0.000000 0.773342
O O14 0.715053 0.888094 0.623799
O O15 0.665837 0.000000 0.500000
O O16 0.250000 0.750000 0.250000
#
# Coordination Sequence:
#
# PCOD9523902 Si02
#       8
#     8  16  16   8   8   4   8  16
#     4  11  26  42  69  99 135 176 221 298 343 398
#     4  11  24  42  68 100 135 170 232 274 346 402
#     4  11  25  43  69  96 133 182 223 268 332 411
#     4  12  26  46  67  99 136 175 226 276 329 399
#     4  12  22  41  70  96 130 177 216 286 333 410
#     4  12  23  40  70 105 122 168 216 271 346 384
#     4  12  24  42  66 104 141 173 222 289 343 396
#     4  10  23  41  68  97 131 176 223 274 339 402
#
# _framework density 19.908871999999999
#
# number of rings (size 3 to 8) (size 9 to 14) (size 15 to 20)
#    0.000    0.857    6.667    0.429   10.667    3.810 
#    0.000    0.476    0.000    0.571    0.000    0.000 
#    0.000    0.000    0.000    0.000    0.000    0.000 
#
# Total GULP energy -234301.232388 kJ/mol
# GULP energy per Si atom -5578.600771 kJ/mol
# Density = 1.986356 g / cm^3
# Si number density = 19.908872 Si / 1000 Ang^3
#
#
#
# Elastic Constant Matrix: (Units=GPa)
#
#
# Indices 1 2 3 4 5 6 
#
# 1 142.6601 43.2069 4.7352 0.0000 0.0000 0.0000
# 2 43.2069 156.5016 10.5412 0.0000 0.0000 0.0000
# 3 4.7352 10.5412 59.3532 0.0000 0.0000 0.0000
# 4 0.0000 0.0000 0.0000 -22.1535 0.0000 0.0000
# 5 0.0000 0.0000 0.0000 0.0000 23.0709 0.0000
# 6 0.0000 0.0000 0.0000 0.0000 0.0000 140.0103
#
#
#
# Elastic Compliance Matrix: (Units=1/GPa)
#
#
# Indices 1 2 3 4 5 6 
#
# 1 0.007653 -0.002097 -0.000238 0.000000 0.000000 0.000000
# 2 -0.002097 0.007042 -0.001083 0.000000 0.000000 0.000000
# 3 -0.000238 -0.001083 0.017060 0.000000 0.000000 0.000000
# 4 0.000000 0.000000 0.000000 -0.045140 0.000000 0.000000
# 5 0.000000 0.000000 0.000000 0.000000 0.043345 0.000000
# 6 0.000000 0.000000 0.000000 0.000000 0.000000 0.007142
#
#
# Mechanical properties :
#
#
# Convention : Reuss Voigt Hill
#
# Bulk Modulus (GPa) = 40.13239 52.83127 46.48183
# Shear Modulus (GPa) = 95.70607 48.18766 71.94687
#
# Velocity S-wave (km/s) = 6.94092 4.92510 6.01802
# Velocity P-wave (km/s) = 9.18896 7.67700 8.46680
#
# Compressibility (1/GPa) = 0.02491753
#
# Stress axis : x y z
#
# Youngs Moduli (GPa) = 130.67482 142.01462 58.61768
#
# Poissons Ratio (x) = 0.29776 0.01396
# Poissons Ratio (y) = 0.27398 0.06350
# Poissons Ratio (z) = 0.03112 0.15385
#
# Static dielectric constant tensor:
#      x y z
#    x 1.782140 0.000000 0.000000 
#    y 0.000000 1.675880 0.000000 
#    z 0.000000 0.000000 1.736470 
# 
# From -- ./inp_files/39062.got.cif
#   From: 2010.05.17/outbox.cif.g08.bks.cpg/sg71_20_cif.got.tgz:39062.got - 2010.06.03 16:22:01.
