data_PCOD9523321
_publ_section_title
;
Structure prediction by ZEFSAII (Michael W. Deem and Ramdas Pophale) SiO2 
 PCOD9523321
Probable space group: I M M M
;
_chemical_formula_sum "Si O2"
_cell_formula_units_Z 104
_cell_length_a 28.468501
_cell_length_b 8.581390
_cell_length_c 23.596983
_cell_angle_alpha 90.000000
_cell_angle_beta 90.000000
_cell_angle_gamma 90.000000
_cell_volume 5764.726660
_symmetry_space_group_name_H-M "I M M M"
_symmetry_group_IT_number 71
_symmetry_cell_setting 'orthorhombic'
loop_
_space_group_symop_operation_xyz
x,y,z
-x,-y,z
x,-y,-z
-x,y,-z
-x,-y,-z
x,y,-z
-x,y,z
x,-y,z
1/2+x,1/2+y,1/2+z
1/2-x,1/2-y,1/2+z
1/2+x,1/2-y,1/2-z
1/2-x,1/2+y,1/2-z
1/2-x,1/2-y,1/2-z
1/2+x,1/2+y,1/2-z
1/2-x,1/2+y,1/2+z
1/2+x,1/2-y,1/2+z
loop_
_atom_site_type_symbol
_atom_site_label
_atom_site_fract_x
_atom_site_fract_y
_atom_site_fract_z
Si Si1 0.160089 0.689994 0.000000
Si Si2 0.230403 0.186599 0.500000
Si Si3 0.209982 0.686372 0.380328
Si Si4 0.000000 0.824138 0.934609
Si Si5 0.636778 0.812691 0.217173
Si Si6 0.283042 0.186237 0.299568
Si Si7 0.094984 0.316413 0.894773
Si Si8 0.445434 0.314518 0.279030
O O1 0.214590 0.737455 0.000000
O O2 0.133552 0.739077 0.058538
O O3 0.157951 0.500000 0.000000
O O4 0.206022 0.248442 0.556788
O O5 0.230088 0.000000 0.500000
O O6 0.209619 0.500000 0.380377
O O7 0.168581 0.738709 0.336715
O O8 0.260385 0.742619 0.355576
O O9 0.954679 0.721376 0.922982
O O10 0.000000 0.000000 0.906291
O O11 0.000000 0.853321 0.000000
O O12 0.666662 0.771390 0.273899
O O13 0.584872 0.746732 0.225790
O O14 0.634520 0.000000 0.214856
O O15 0.250000 0.250000 0.250000
O O16 0.280718 0.000000 0.304092
O O17 0.103584 0.500000 0.885206
O O18 0.083857 0.237889 0.834396
O O19 0.500000 0.258442 0.281952
O O20 0.446495 0.500000 0.276958
#
# Coordination Sequence:
#
# PCOD9523321 Si02
#       8
#     8   8  16   8  16  16  16  16
#     4   9  22  38  52  75 104 141 191 236 272 319
#     4  11  23  39  58  82 114 149 182 228 278 328
#     4  10  21  38  57  83 113 144 184 230 276 330
#     4  11  21  33  49  71  99 133 181 240 287 326
#     4   9  20  37  58  80 107 145 186 224 271 335
#     4   9  17  31  52  79 109 142 182 227 271 324
#     4  11  21  36  55  72  98 143 191 231 277 329
#     4  11  24  38  53  81 115 142 179 235 286 330
#
# _framework density 18.040751
#
# number of rings (size 3 to 8) (size 9 to 14) (size 15 to 20)
#    0.000    1.923    1.538    3.231    2.154    4.923 
#    0.000    2.308    0.000    0.000    0.000    0.538 
#    0.000    4.308    0.000    0.000    0.000    0.000 
#
# Total GULP energy -289690.053603 kJ/mol
# GULP energy per Si atom -5570.962569 kJ/mol
# Density = 1.799969 g / cm^3
# Si number density = 18.040751 Si / 1000 Ang^3
#
#
#
# Elastic Constant Matrix: (Units=GPa)
#
#
# Indices 1 2 3 4 5 6 
#
# 1 112.1587 25.7293 61.5335 0.0000 0.0000 0.0000
# 2 25.7293 31.9336 27.9927 0.0000 0.0000 0.0000
# 3 61.5335 27.9927 120.1596 0.0000 0.0000 0.0000
# 4 0.0000 0.0000 0.0000 27.8994 0.0000 0.0000
# 5 0.0000 0.0000 0.0000 0.0000 -6.5590 0.0000
# 6 0.0000 0.0000 0.0000 0.0000 0.0000 16.6164
#
#
#
# Elastic Compliance Matrix: (Units=1/GPa)
#
#
# Indices 1 2 3 4 5 6 
#
# 1 0.013238 -0.005936 -0.005396 0.000000 0.000000 0.000000
# 2 -0.005936 0.042012 -0.006748 0.000000 0.000000 0.000000
# 3 -0.005396 -0.006748 0.012658 0.000000 0.000000 0.000000
# 4 0.000000 0.000000 0.000000 0.035843 0.000000 0.000000
# 5 0.000000 0.000000 0.000000 0.000000 -0.152463 0.000000
# 6 0.000000 0.000000 0.000000 0.000000 0.000000 0.060182
#
#
# Mechanical properties :
#
#
# Convention : Reuss Voigt Hill
#
# Bulk Modulus (GPa) = 31.49741 54.97366 43.23553
# Shear Modulus (GPa) = 85.89187 17.52446 51.70817
#
# Velocity S-wave (km/s) = 6.90748 3.12008 5.35949
# Velocity P-wave (km/s) = 9.00637 6.59681 7.89407
#
# Compressibility (1/GPa) = 0.03174865
#
# Stress axis : x y z
#
# Youngs Moduli (GPa) = 75.53854 23.80254 79.00306
#
# Poissons Ratio (x) = 0.14129 0.42634
# Poissons Ratio (y) = 0.44838 0.53308
# Poissons Ratio (z) = 0.40764 0.16061
#
# Static dielectric constant tensor:
#      x y z
#    x 1.651540 0.000000 0.000000 
#    y 0.000000 1.626220 0.000000 
#    z 0.000000 0.000000 1.646310 
# 
# From -- ./inp_files/62031.got.cif
#   From: 2010.05.17/outbox.cif.g08.bks.cpg/sg71_32_cif.got.tgz:62031.got - 2010.06.03 16:22:01.
