data_PCOD9523424
_publ_section_title
;
Structure prediction by ZEFSAII (Michael W. Deem and Ramdas Pophale) SiO2 
 PCOD9523424
Probable space group: I M M M
;
_chemical_formula_sum "Si O2"
_cell_formula_units_Z 84
_cell_length_a 11.508358
_cell_length_b 16.155214
_cell_length_c 23.222370
_cell_angle_alpha 90.000000
_cell_angle_beta 90.000000
_cell_angle_gamma 90.000000
_cell_volume 4317.502712
_symmetry_space_group_name_H-M "I M M M"
_symmetry_group_IT_number 71
_symmetry_cell_setting 'orthorhombic'
loop_
_space_group_symop_operation_xyz
x,y,z
-x,-y,z
x,-y,-z
-x,y,-z
-x,-y,-z
x,y,-z
-x,y,z
x,-y,z
1/2+x,1/2+y,1/2+z
1/2-x,1/2-y,1/2+z
1/2+x,1/2-y,1/2-z
1/2-x,1/2+y,1/2-z
1/2-x,1/2-y,1/2-z
1/2+x,1/2+y,1/2-z
1/2-x,1/2+y,1/2+z
1/2+x,1/2-y,1/2+z
loop_
_atom_site_type_symbol
_atom_site_label
_atom_site_fract_x
_atom_site_fract_y
_atom_site_fract_z
Si Si1 0.000000 0.404060 0.342400
Si Si2 0.769677 0.155031 0.587672
Si Si3 0.241032 0.902103 0.176380
Si Si4 0.363086 0.313830 0.434322
Si Si5 0.000000 0.738319 0.563832
Si Si6 0.366315 0.600249 0.795234
Si Si7 0.260732 0.500000 0.000000
O O1 0.877889 0.391779 0.310295
O O2 0.000000 0.336658 0.392207
O O3 0.000000 0.500000 0.362784
O O4 0.664775 0.216810 0.573642
O O5 0.783922 0.135031 0.655089
O O6 0.886641 0.204957 0.571236
O O7 0.763276 0.072670 0.550134
O O8 0.206465 0.859129 0.116612
O O9 0.168843 0.871690 0.231363
O O10 0.218211 0.000000 0.169710
O O11 0.328583 0.337134 0.500000
O O12 0.500000 0.330471 0.427992
O O13 0.000000 0.703192 0.500000
O O14 0.500000 0.623379 0.807874
O O15 0.359478 0.500000 0.796390
#
# Coordination Sequence:
#
# PCOD9523424 Si02
#       7
#     8  16  16  16   8  16   4
#     4  10  22  41  64  94 130 166 200 255 312 378
#     4  12  23  40  63  96 126 166 209 257 320 369
#     4  10  22  42  66  92 126 163 207 255 316 374
#     4  11  24  43  63  90 127 163 210 262 308 369
#     4  12  22  37  64  94 130 158 203 255 316 380
#     4  10  21  38  62  92 127 164 210 260 311 372
#     4  12  24  41  69  96 134 166 207 263 318 374
#
# _framework density 19.455691000000002
#
# number of rings (size 3 to 8) (size 9 to 14) (size 15 to 20)
#    0.000    1.143    5.714    0.571    0.000    3.238 
#    1.714    3.810    0.000    0.000    0.000    0.000 
#    0.000    0.000    0.000    0.000    0.000    0.000 
#
# Total GULP energy -233987.279369 kJ/mol
# GULP energy per Si atom -5571.125699 kJ/mol
# Density = 1.941141 g / cm^3
# Si number density = 19.455691 Si / 1000 Ang^3
#
#
#
# Elastic Constant Matrix: (Units=GPa)
#
#
# Indices 1 2 3 4 5 6 
#
# 1 49.8908 5.3637 17.7361 0.0000 0.0000 0.0000
# 2 5.3637 36.6037 16.4941 0.0000 0.0000 0.0000
# 3 17.7361 16.4941 130.9294 0.0000 0.0000 0.0000
# 4 0.0000 0.0000 0.0000 31.0471 0.0000 0.0000
# 5 0.0000 0.0000 0.0000 0.0000 10.2602 0.0000
# 6 0.0000 0.0000 0.0000 0.0000 0.0000 13.5075
#
#
#
# Elastic Compliance Matrix: (Units=1/GPa)
#
#
# Indices 1 2 3 4 5 6 
#
# 1 0.021184 -0.001920 -0.002628 0.000000 0.000000 0.000000
# 2 -0.001920 0.029138 -0.003411 0.000000 0.000000 0.000000
# 3 -0.002628 -0.003411 0.008423 0.000000 0.000000 0.000000
# 4 0.000000 0.000000 0.000000 0.032209 0.000000 0.000000
# 5 0.000000 0.000000 0.000000 0.000000 0.097464 0.000000
# 6 0.000000 0.000000 0.000000 0.000000 0.000000 0.074033
#
#
# Mechanical properties :
#
#
# Convention : Reuss Voigt Hill
#
# Bulk Modulus (GPa) = 23.34890 32.95684 28.15287
# Shear Modulus (GPa) = 17.08554 22.81828 19.95191
#
# Velocity S-wave (km/s) = 2.96662 3.42838 3.20582
# Velocity P-wave (km/s) = 4.87458 5.71384 5.31081
#
# Compressibility (1/GPa) = 0.04282856
#
# Stress axis : x y z
#
# Youngs Moduli (GPa) = 47.20454 34.31957 118.71790
#
# Poissons Ratio (x) = 0.06590 0.31197
# Poissons Ratio (y) = 0.09064 0.40490
# Poissons Ratio (z) = 0.12404 0.11705
#
# Static dielectric constant tensor:
#      x y z
#    x 1.692280 0.000000 0.000000 
#    y 0.000000 1.666810 0.000000 
#    z 0.000000 0.000000 1.672800 
# 
# From -- ./inp_files/58753.got.cif
#   From: 2010.05.17/outbox.cif.g08.bks.cpg/sg71_30_cif.got.tgz:58753.got - 2010.06.03 16:22:01.
