data_PCOD9523141
_publ_section_title
;
Structure prediction by ZEFSAII (Michael W. Deem and Ramdas Pophale) SiO2 
 PCOD9523141
Probable space group: I M M M
;
_chemical_formula_sum "Si O2"
_cell_formula_units_Z 68
_cell_length_a 23.995658
_cell_length_b 15.597046
_cell_length_c 7.205168
_cell_angle_alpha 90.000000
_cell_angle_beta 90.000000
_cell_angle_gamma 90.000000
_cell_volume 2696.616131
_symmetry_space_group_name_H-M "I M M M"
_symmetry_group_IT_number 71
_symmetry_cell_setting 'orthorhombic'
loop_
_space_group_symop_operation_xyz
x,y,z
-x,-y,z
x,-y,-z
-x,y,-z
-x,-y,-z
x,y,-z
-x,y,z
x,-y,z
1/2+x,1/2+y,1/2+z
1/2-x,1/2-y,1/2+z
1/2+x,1/2-y,1/2-z
1/2-x,1/2+y,1/2-z
1/2-x,1/2-y,1/2-z
1/2+x,1/2+y,1/2-z
1/2-x,1/2+y,1/2+z
1/2+x,1/2-y,1/2+z
loop_
_atom_site_type_symbol
_atom_site_label
_atom_site_fract_x
_atom_site_fract_y
_atom_site_fract_z
Si Si1 0.916477 0.403976 0.277684
Si Si2 0.320874 0.673684 0.725867
Si Si3 0.705004 0.871342 0.789320
Si Si4 0.561126 0.398434 0.724538
Si Si5 0.500000 0.173460 0.500000
O O1 0.918083 0.388050 0.500000
O O2 0.939332 0.500000 0.244035
O O3 0.852462 0.406168 0.212087
O O4 0.951494 0.336387 0.161579
O O5 0.320471 0.672814 0.500000
O O6 0.307429 0.769551 0.788208
O O7 0.267238 0.617865 0.787568
O O8 0.381751 0.644374 0.788590
O O9 0.707517 0.902673 0.000000
O O10 0.560532 0.389339 0.500000
O O11 0.500000 0.366589 0.786799
O O12 0.563808 0.500000 0.764950
#
# Coordination Sequence:
#
# PCOD9523141 Si02
#       5
#    16  16  16  16   4
#     4  10  21  37  56  80 111 146 187 231 275 328
#     4   9  17  31  52  75 103 141 179 218 268 322
#     4   9  19  34  50  73 105 140 178 223 271 317
#     4   8  14  26  46  75 106 130 162 213 265 315
#     4  12  23  38  60  82 110 148 181 228 289 330
#
# _framework density 25.216788999999999
#
# number of rings (size 3 to 8) (size 9 to 14) (size 15 to 20)
#    0.000    2.824    0.000    2.118    1.647    1.882 
#    2.118    4.706    0.000    0.706    0.000    1.647 
#    0.000    0.000    0.000    0.000    0.000    0.000 
#
# Total GULP energy -189409.681269 kJ/mol
# GULP energy per Si atom -5570.872979 kJ/mol
# Density = 2.515939 g / cm^3
# Si number density = 25.216789 Si / 1000 Ang^3
#
#
#
# Elastic Constant Matrix: (Units=GPa)
#
#
# Indices 1 2 3 4 5 6 
#
# 1 285.5027 59.8393 22.9805 0.0000 0.0000 0.0000
# 2 59.8393 44.4121 1.4731 0.0000 0.0000 0.0000
# 3 22.9805 1.4731 146.0809 0.0000 0.0000 0.0000
# 4 0.0000 0.0000 0.0000 -2.8142 0.0000 0.0000
# 5 0.0000 0.0000 0.0000 0.0000 262.8906 0.0000
# 6 0.0000 0.0000 0.0000 0.0000 0.0000 16.6964
#
#
#
# Elastic Compliance Matrix: (Units=1/GPa)
#
#
# Indices 1 2 3 4 5 6 
#
# 1 0.004954 -0.006651 -0.000712 0.000000 0.000000 0.000000
# 2 -0.006651 0.031454 0.000729 0.000000 0.000000 0.000000
# 3 -0.000712 0.000729 0.006950 0.000000 0.000000 0.000000
# 4 0.000000 0.000000 0.000000 -0.355344 0.000000 0.000000
# 5 0.000000 0.000000 0.000000 0.000000 0.003804 0.000000
# 6 0.000000 0.000000 0.000000 0.000000 0.000000 0.059893
#
#
# Mechanical properties :
#
#
# Convention : Reuss Voigt Hill
#
# Bulk Modulus (GPa) = 33.23433 71.62017 52.42725
# Shear Modulus (GPa) = -22.22316 81.46809 29.62247
#
# Velocity S-wave (km/s) = -2.97186 5.69010 3.43113
# Velocity P-wave (km/s) = 1.19670 8.46363 6.04422
#
# Compressibility (1/GPa) = 0.03008937
#
# Stress axis : x y z
#
# Youngs Moduli (GPa) = 201.85857 31.79266 143.88046
#
# Poissons Ratio (x) = 0.21146 0.10248
# Poissons Ratio (y) = 1.34260 -0.10491
# Poissons Ratio (z) = 0.14377 -0.02318
#
# Static dielectric constant tensor:
#      x y z
#    x 2.002840 0.000000 0.000000 
#    y 0.000000 2.019050 0.000000 
#    z 0.000000 0.000000 1.950030 
# 
# From -- ./inp_files/7944.got.cif
#   From: 2010.05.17/outbox.cif.g08.bks.cpg/sg71_4_cif.got.tgz:7944.got - 2010.06.03 16:22:01.
