data_PCOD9523490
_publ_section_title
;
Structure prediction by ZEFSAII (Michael W. Deem and Ramdas Pophale) SiO2 
 PCOD9523490
Probable space group: I M M M
;
_chemical_formula_sum "Si O2"
_cell_formula_units_Z 82
_cell_length_a 27.054930
_cell_length_b 19.903641
_cell_length_c 7.700375
_cell_angle_alpha 90.000000
_cell_angle_beta 90.000000
_cell_angle_gamma 90.000000
_cell_volume 4146.587362
_symmetry_space_group_name_H-M "I M M M"
_symmetry_group_IT_number 71
_symmetry_cell_setting 'orthorhombic'
loop_
_space_group_symop_operation_xyz
x,y,z
-x,-y,z
x,-y,-z
-x,y,-z
-x,-y,-z
x,y,-z
-x,y,z
x,-y,z
1/2+x,1/2+y,1/2+z
1/2-x,1/2-y,1/2+z
1/2+x,1/2-y,1/2-z
1/2-x,1/2+y,1/2-z
1/2-x,1/2-y,1/2-z
1/2+x,1/2+y,1/2-z
1/2-x,1/2+y,1/2+z
1/2+x,1/2-y,1/2+z
loop_
_atom_site_type_symbol
_atom_site_label
_atom_site_fract_x
_atom_site_fract_y
_atom_site_fract_z
Si Si1 0.845965 0.075197 0.789519
Si Si2 0.906194 0.400640 0.000000
Si Si3 0.828560 0.423972 0.703081
Si Si4 0.443132 0.645771 0.199614
Si Si5 0.000000 0.500000 0.000000
Si Si6 0.240486 0.172365 0.791822
Si Si7 0.941321 0.749343 0.000000
O O1 0.901477 0.089898 0.727042
O O2 0.808953 0.134268 0.727641
O O3 0.829943 0.000000 0.737313
O O4 0.846511 0.076794 0.000000
O O5 0.875062 0.419061 0.828892
O O6 0.914210 0.320936 0.000000
O O7 0.956677 0.441585 0.000000
O O8 0.840960 0.411030 0.500000
O O9 0.808442 0.500000 0.711675
O O10 0.787399 0.371667 0.764039
O O11 0.500000 0.624463 0.237797
O O12 0.430115 0.705592 0.331656
O O13 0.441716 0.668245 0.000000
O O14 0.250000 0.250000 0.750000
O O15 0.238420 0.167521 0.000000
O O16 0.000000 0.736620 0.000000
#
# Coordination Sequence:
#
# PCOD9523490 Si02
#       7
#    16   8  16  16   2  16   8
#     4  10  21  39  63  89 123 167 209 262 321 375
#     4  12  24  42  70  93 132 168 215 272 324 388
#     4  10  22  42  65  91 125 172 214 255 326 390
#     4  10  22  40  62  91 125 163 213 259 314 383
#     4  12  24  48  66 112 132 166 234 276 332 392
#     4  10  23  39  60  91 127 165 213 268 317 380
#     4  10  22  40  63  88 124 170 202 263 321 375
#
# _framework density 19.775296999999998
#
# number of rings (size 3 to 8) (size 9 to 14) (size 15 to 20)
#    0.000    1.756    2.439    0.585    4.098    4.683 
#    0.000    2.927    0.000    0.000    0.000    0.000 
#    0.000    0.000    0.000    0.000    0.000    0.000 
#
# Total GULP energy -228647.120702 kJ/mol
# GULP energy per Si atom -5576.759042 kJ/mol
# Density = 1.973029 g / cm^3
# Si number density = 19.775297 Si / 1000 Ang^3
#
#
#
# Elastic Constant Matrix: (Units=GPa)
#
#
# Indices 1 2 3 4 5 6 
#
# 1 135.4007 75.1548 36.2027 0.0000 0.0000 0.0000
# 2 75.1548 139.9979 31.9628 0.0000 0.0000 0.0000
# 3 36.2027 31.9628 71.8639 0.0000 0.0000 0.0000
# 4 0.0000 0.0000 0.0000 13.2362 0.0000 0.0000
# 5 0.0000 0.0000 0.0000 0.0000 6.5009 0.0000
# 6 0.0000 0.0000 0.0000 0.0000 0.0000 43.3423
#
#
#
# Elastic Compliance Matrix: (Units=1/GPa)
#
#
# Indices 1 2 3 4 5 6 
#
# 1 0.011181 -0.005249 -0.003298 0.000000 0.000000 0.000000
# 2 -0.005249 0.010415 -0.001988 0.000000 0.000000 0.000000
# 3 -0.003298 -0.001988 0.016461 0.000000 0.000000 0.000000
# 4 0.000000 0.000000 0.000000 0.075550 0.000000 0.000000
# 5 0.000000 0.000000 0.000000 0.000000 0.153825 0.000000
# 6 0.000000 0.000000 0.000000 0.000000 0.000000 0.023072
#
#
# Mechanical properties :
#
#
# Convention : Reuss Voigt Hill
#
# Bulk Modulus (GPa) = 58.87019 70.43366 64.65192
# Shear Modulus (GPa) = 15.76114 26.21203 20.98658
#
# Velocity S-wave (km/s) = 2.82620 3.64468 3.26122
# Velocity P-wave (km/s) = 6.36271 7.30794 6.85164
#
# Compressibility (1/GPa) = 0.01698653
#
# Stress axis : x y z
#
# Youngs Moduli (GPa) = 89.43831 96.01772 60.75105
#
# Poissons Ratio (x) = 0.50402 0.20035
# Poissons Ratio (y) = 0.46949 0.12076
# Poissons Ratio (z) = 0.29495 0.19086
#
# Static dielectric constant tensor:
#      x y z
#    x 1.689180 0.000000 0.000000 
#    y 0.000000 1.699150 0.000000 
#    z 0.000000 0.000000 1.703140 
# 
# From -- ./inp_files/12444.got.cif
#   From: 2010.05.17/outbox.cif.g08.bks.cpg/sg71_7_cif.got.tgz:12444.got - 2010.06.03 16:22:01.
