data_PCOD9523885
_publ_section_title
;
Structure prediction by ZEFSAII (Michael W. Deem and Ramdas Pophale) SiO2 
 PCOD9523885
Probable space group: I M M M
;
_chemical_formula_sum "Si O2"
_cell_formula_units_Z 88
_cell_length_a 14.351831
_cell_length_b 26.615409
_cell_length_c 11.877379
_cell_angle_alpha 90.000000
_cell_angle_beta 90.000000
_cell_angle_gamma 90.000000
_cell_volume 4536.919472
_symmetry_space_group_name_H-M "I M M M"
_symmetry_group_IT_number 71
_symmetry_cell_setting 'orthorhombic'
loop_
_space_group_symop_operation_xyz
x,y,z
-x,-y,z
x,-y,-z
-x,y,-z
-x,-y,-z
x,y,-z
-x,y,z
x,-y,z
1/2+x,1/2+y,1/2+z
1/2-x,1/2-y,1/2+z
1/2+x,1/2-y,1/2-z
1/2-x,1/2+y,1/2-z
1/2-x,1/2-y,1/2-z
1/2+x,1/2+y,1/2-z
1/2-x,1/2+y,1/2+z
1/2+x,1/2-y,1/2+z
loop_
_atom_site_type_symbol
_atom_site_label
_atom_site_fract_x
_atom_site_fract_y
_atom_site_fract_z
Si Si1 0.110348 0.942571 0.000000
Si Si2 0.388629 0.942014 0.500000
Si Si3 0.609435 0.892300 0.261244
Si Si4 0.390521 0.500000 0.134099
Si Si5 0.696459 0.589621 0.273040
Si Si6 0.888291 0.292995 0.373603
Si Si7 0.388057 0.321617 0.866354
O O1 0.142450 0.914761 0.111245
O O2 0.000000 0.945508 0.000000
O O3 0.147014 0.000000 0.000000
O O4 0.500000 0.948072 0.500000
O O5 0.369095 0.908988 0.610637
O O6 0.350300 0.000000 0.500000
O O7 0.500000 0.904319 0.238450
O O8 0.694660 0.919451 0.199335
O O9 0.625131 0.834823 0.221930
O O10 0.500000 0.500000 0.164776
O O11 0.341687 0.452206 0.188209
O O12 0.383684 0.500000 0.000000
O O13 0.671563 0.641525 0.210858
O O14 0.853649 0.307822 0.500000
O O15 0.858022 0.236278 0.347819
O O16 0.000000 0.289126 0.383691
O O17 0.500000 0.327057 0.843279
O O18 0.376124 0.332543 0.000000
#
# Coordination Sequence:
#
# PCOD9523885 Si02
#       7
#     8   8  16   8  16  16  16
#     4  11  24  44  62  82 122 167 198 238 305 380
#     4   9  20  38  59  81 117 164 200 245 305 350
#     4  10  23  39  60  89 123 162 207 251 295 357
#     4  11  24  41  64  94 121 149 199 263 311 364
#     4  12  24  37  63  88 120 163 204 245 305 367
#     4   8  16  35  61  84 116 158 197 251 313 359
#     4   9  18  35  61  91 118 149 197 259 318 365
#
# _framework density 19.396421
#
# number of rings (size 3 to 8) (size 9 to 14) (size 15 to 20)
#    0.000    2.091    0.909    3.273    5.091    2.182 
#    0.000    0.909    0.000    3.818    0.000    0.000 
#    0.000    0.000    0.000    0.000    0.000    0.000 
#
# Total GULP energy -245152.959901 kJ/mol
# GULP energy per Si atom -5571.658180 kJ/mol
# Density = 1.935227 g / cm^3
# Si number density = 19.396421 Si / 1000 Ang^3
#
#
#
# Elastic Constant Matrix: (Units=GPa)
#
#
# Indices 1 2 3 4 5 6 
#
# 1 107.2501 29.9756 29.7442 0.0000 0.0000 0.0000
# 2 29.9756 119.4356 74.6037 0.0001 0.0000 0.0000
# 3 29.7442 74.6037 96.4657 0.0005 -0.0001 0.0000
# 4 0.0000 0.0001 0.0005 -16.3375 0.0001 0.0000
# 5 0.0000 0.0000 -0.0001 0.0001 -4.2066 0.0000
# 6 0.0000 0.0000 0.0000 0.0000 0.0000 10.6814
#
#
#
# Elastic Compliance Matrix: (Units=1/GPa)
#
#
# Indices 1 2 3 4 5 6 
#
# 1 0.010278 -0.001161 -0.002272 0.000000 0.000000 0.000000
# 2 -0.001161 0.016328 -0.012270 0.000000 0.000000 0.000000
# 3 -0.002272 -0.012270 0.020556 0.000001 0.000000 0.000000
# 4 0.000000 0.000000 0.000001 -0.061209 -0.000001 0.000000
# 5 0.000000 0.000000 0.000000 -0.000001 -0.237723 0.000000
# 6 0.000000 0.000000 0.000000 0.000000 0.000000 0.093621
#
#
# Mechanical properties :
#
#
# Convention : Reuss Voigt Hill
#
# Bulk Modulus (GPa) = 63.45886 65.75537 64.60711
# Shear Modulus (GPa) = -41.15531 10.61598 -15.26966
#
# Velocity S-wave (km/s) = -4.61130 2.34202 -2.80883
# Velocity P-wave (km/s) = 2.10612 6.42556 4.78140
#
# Compressibility (1/GPa) = 0.01575824
#
# Stress axis : x y z
#
# Youngs Moduli (GPa) = 97.29134 61.24373 48.64784
#
# Poissons Ratio (x) = 0.07109 0.11051
# Poissons Ratio (y) = 0.11293 0.59690
# Poissons Ratio (z) = 0.22100 0.75145
#
# Static dielectric constant tensor:
#      x y z
#    x 1.709030 0.000000 0.000000 
#    y 0.000000 1.701740 0.000000 
#    z 0.000000 0.000000 1.660740 
# 
# From -- ./inp_files/22376.got.cif
#   From: 2010.05.17/outbox.cif.g08.bks.cpg/sg71_12_cif.got.tgz:22376.got - 2010.06.03 16:22:01.
