data_PCOD9523259
_publ_section_title
;
Structure prediction by ZEFSAII (Michael W. Deem and Ramdas Pophale) SiO2 
 PCOD9523259
Probable space group: I M M M
;
_chemical_formula_sum "Si O2"
_cell_formula_units_Z 104
_cell_length_a 22.362209
_cell_length_b 8.603635
_cell_length_c 28.110091
_cell_angle_alpha 90.000000
_cell_angle_beta 90.000000
_cell_angle_gamma 90.000000
_cell_volume 5408.277052
_symmetry_space_group_name_H-M "I M M M"
_symmetry_group_IT_number 71
_symmetry_cell_setting 'orthorhombic'
loop_
_space_group_symop_operation_xyz
x,y,z
-x,-y,z
x,-y,-z
-x,y,-z
-x,-y,-z
x,y,-z
-x,y,z
x,-y,z
1/2+x,1/2+y,1/2+z
1/2-x,1/2-y,1/2+z
1/2+x,1/2-y,1/2-z
1/2-x,1/2+y,1/2-z
1/2-x,1/2-y,1/2-z
1/2+x,1/2+y,1/2-z
1/2-x,1/2+y,1/2+z
1/2+x,1/2-y,1/2+z
loop_
_atom_site_type_symbol
_atom_site_label
_atom_site_fract_x
_atom_site_fract_y
_atom_site_fract_z
Si Si1 0.500000 0.173782 0.055616
Si Si2 0.067941 0.314435 0.812397
Si Si3 0.825778 0.179680 0.875796
Si Si4 0.774308 0.311365 0.444485
Si Si5 0.892424 0.814730 0.392892
Si Si6 0.903064 0.180221 0.708147
Si Si7 0.722161 0.180425 0.797031
O O1 0.559002 0.266732 0.068939
O O2 0.500000 0.000000 0.077373
O O3 0.500000 0.155296 0.000000
O O4 0.069081 0.500000 0.812550
O O5 0.117099 0.257572 0.850609
O O6 0.082727 0.260673 0.758222
O O7 0.000000 0.261433 0.823401
O O8 0.789785 0.241148 0.922116
O O9 0.773038 0.183500 0.836551
O O10 0.842046 0.000000 0.884706
O O11 0.781380 0.265480 0.500000
O O12 0.774494 0.500000 0.442410
O O13 0.829334 0.255469 0.411252
O O14 0.924623 0.760498 0.343144
O O15 0.885224 0.000000 0.388935
O O16 0.833358 0.206519 0.696027
O O17 0.918646 0.000000 0.714408
O O18 0.750000 0.250000 0.750000
O O19 0.702276 0.000000 0.791885
#
# Coordination Sequence:
#
# PCOD9523259 Si02
#       7
#     8  16  16  16  16  16  16
#     4  11  25  43  61  79 107 155 207 251 296 343
#     4  11  25  41  59  85 116 155 199 244 293 351
#     4  10  21  37  59  87 117 153 193 237 293 352
#     4  10  21  39  63  90 119 150 191 243 298 355
#     4  11  24  39  58  86 119 155 198 245 294 346
#     4  11  23  37  55  82 116 154 191 231 283 340
#     4  11  20  32  54  83 114 148 185 227 276 331
#
# _framework density 19.229783999999999
#
# number of rings (size 3 to 8) (size 9 to 14) (size 15 to 20)
#    0.000    1.308    3.077    2.538    1.077    7.077 
#    0.000    0.000    0.000    0.462    0.000    3.231 
#    0.000    0.000    0.000    0.000    0.000    0.000 
#
# Total GULP energy -289748.962363 kJ/mol
# GULP energy per Si atom -5572.095430 kJ/mol
# Density = 1.918602 g / cm^3
# Si number density = 19.229784 Si / 1000 Ang^3
#
#
#
# Elastic Constant Matrix: (Units=GPa)
#
#
# Indices 1 2 3 4 5 6 
#
# 1 123.2324 25.7676 46.1276 0.0000 0.0000 0.0000
# 2 25.7676 35.6457 24.6770 0.0000 0.0000 0.0000
# 3 46.1276 24.6770 90.9487 0.0000 0.0000 0.0000
# 4 0.0000 0.0000 0.0000 16.5703 0.0000 0.0000
# 5 0.0000 0.0000 0.0000 0.0000 15.9841 0.0000
# 6 0.0000 0.0000 0.0000 0.0000 0.0000 -10.6832
#
#
#
# Elastic Compliance Matrix: (Units=1/GPa)
#
#
# Indices 1 2 3 4 5 6 
#
# 1 0.010664 -0.004882 -0.004084 0.000000 0.000000 0.000000
# 2 -0.004882 0.036777 -0.007503 0.000000 0.000000 0.000000
# 3 -0.004084 -0.007503 0.015102 0.000000 0.000000 0.000000
# 4 0.000000 0.000000 0.000000 0.060349 0.000000 0.000000
# 5 0.000000 0.000000 0.000000 0.000000 0.062562 0.000000
# 6 0.000000 0.000000 0.000000 0.000000 0.000000 -0.093605
#
#
# Mechanical properties :
#
#
# Convention : Reuss Voigt Hill
#
# Bulk Modulus (GPa) = 33.77660 49.21904 41.49782
# Shear Modulus (GPa) = 37.13181 14.59121 25.86151
#
# Velocity S-wave (km/s) = 4.39903 2.75759 3.67122
# Velocity P-wave (km/s) = 6.58823 5.98246 6.29264
#
# Compressibility (1/GPa) = 0.02960630
#
# Stress axis : x y z
#
# Youngs Moduli (GPa) = 93.77126 27.19114 66.21482
#
# Poissons Ratio (x) = 0.13273 0.27044
# Poissons Ratio (y) = 0.45775 0.49679
# Poissons Ratio (z) = 0.38298 0.20401
#
# Static dielectric constant tensor:
#      x y z
#    x 2.047650 0.000000 0.000000 
#    y 0.000000 1.658900 0.000000 
#    z 0.000000 0.000000 1.916140 
# 
# From -- ./inp_files/66457.got.cif
#   From: 2010.05.17/outbox.cif.g08.bks.cpg/sg71_34_cif.got.tgz:66457.got - 2010.06.03 16:22:01.
