data_PCOD9523052
_publ_section_title
;
Structure prediction by ZEFSAII (Michael W. Deem and Ramdas Pophale) SiO2 
 PCOD9523052
Probable space group: I M M M
;
_chemical_formula_sum "Si O2"
_cell_formula_units_Z 92
_cell_length_a 15.259396
_cell_length_b 21.269673
_cell_length_c 14.489283
_cell_angle_alpha 90.000000
_cell_angle_beta 90.000000
_cell_angle_gamma 90.000000
_cell_volume 4702.675930
_symmetry_space_group_name_H-M "I M M M"
_symmetry_group_IT_number 71
_symmetry_cell_setting 'orthorhombic'
loop_
_space_group_symop_operation_xyz
x,y,z
-x,-y,z
x,-y,-z
-x,y,-z
-x,-y,-z
x,y,-z
-x,y,z
x,-y,z
1/2+x,1/2+y,1/2+z
1/2-x,1/2-y,1/2+z
1/2+x,1/2-y,1/2-z
1/2-x,1/2+y,1/2-z
1/2-x,1/2-y,1/2-z
1/2+x,1/2+y,1/2-z
1/2-x,1/2+y,1/2+z
1/2+x,1/2-y,1/2+z
loop_
_atom_site_type_symbol
_atom_site_label
_atom_site_fract_x
_atom_site_fract_y
_atom_site_fract_z
Si Si1 0.852445 0.888036 0.779504
Si Si2 0.000000 0.678348 0.189172
Si Si3 0.179102 0.808892 0.395537
Si Si4 0.000000 0.269398 0.397705
Si Si5 0.500000 0.924887 0.805618
Si Si6 0.683720 0.924556 0.897011
Si Si7 0.853663 0.236346 0.890846
Si Si8 0.000000 0.000000 0.782444
O O1 0.829706 0.865392 0.676402
O O2 0.762723 0.906128 0.831068
O O3 0.882187 0.824894 0.833638
O O4 0.922796 0.944023 0.783011
O O5 0.083623 0.706904 0.138972
O O6 0.000000 0.698798 0.297081
O O7 0.000000 0.603992 0.203346
O O8 0.199257 0.830148 0.500000
O O9 0.254950 0.759106 0.368940
O O10 0.086932 0.773104 0.396721
O O11 0.000000 0.301909 0.500000
O O12 0.589060 0.905947 0.858545
O O13 0.500000 0.000000 0.802697
O O14 0.683594 0.000000 0.903141
O O15 0.697512 0.898177 0.000000
O O16 0.860576 0.224055 0.000000
#
# Coordination Sequence:
#
# PCOD9523052 Si02
#       8
#    16   8  16   8   8  16  16   4
#     4  12  22  43  63  94 132 176 217 266 316 386
#     4  12  22  39  61  93 123 167 207 258 321 386
#     4  10  22  41  66  93 125 165 214 275 332 381
#     4  10  21  36  56  90 123 156 210 262 322 384
#     4  10  23  39  62  91 124 161 203 261 327 390
#     4  10  21  39  60  88 125 164 205 253 311 378
#     4  11  24  41  66  97 129 169 216 270 325 385
#     4  12  28  42  66  94 136 182 232 258 312 398
#
# _framework density 19.563329
#
# number of rings (size 3 to 8) (size 9 to 14) (size 15 to 20)
#    0.000    1.217    2.609    3.652    2.435    1.739 
#    0.000    3.913    0.000    1.043    0.000    0.000 
#    0.000    0.000    0.000    0.000    0.000    0.000 
#
# Total GULP energy -256391.955748 kJ/mol
# GULP energy per Si atom -5573.738168 kJ/mol
# Density = 1.951880 g / cm^3
# Si number density = 19.563329 Si / 1000 Ang^3
#
#
#
# Elastic Constant Matrix: (Units=GPa)
#
#
# Indices 1 2 3 4 5 6 
#
# 1 126.3690 48.2198 39.0579 0.0000 0.0000 0.0000
# 2 48.2198 73.0813 49.3329 -0.0001 0.0000 0.0000
# 3 39.0579 49.3329 94.6045 -0.0003 0.0000 0.0000
# 4 0.0000 -0.0001 -0.0003 25.5029 0.0000 0.0000
# 5 0.0000 0.0000 0.0000 0.0000 18.9091 0.0000
# 6 0.0000 0.0000 0.0000 0.0000 0.0000 31.6442
#
#
#
# Elastic Compliance Matrix: (Units=1/GPa)
#
#
# Indices 1 2 3 4 5 6 
#
# 1 0.010654 -0.006266 -0.001131 0.000000 0.000000 0.000000
# 2 -0.006266 0.024802 -0.010346 0.000000 0.000000 0.000000
# 3 -0.001131 -0.010346 0.016433 0.000000 0.000000 0.000000
# 4 0.000000 0.000000 0.000000 0.039211 0.000000 0.000000
# 5 0.000000 0.000000 0.000000 0.000000 0.052885 0.000000
# 6 0.000000 0.000000 0.000000 0.000000 0.000000 0.031601
#
#
# Mechanical properties :
#
#
# Convention : Reuss Voigt Hill
#
# Bulk Modulus (GPa) = 60.96983 63.03067 62.00025
# Shear Modulus (GPa) = 23.09043 25.70753 24.39898
#
# Velocity S-wave (km/s) = 3.43926 3.62894 3.53537
# Velocity P-wave (km/s) = 6.85598 7.06029 6.95888
#
# Compressibility (1/GPa) = 0.01640155
#
# Stress axis : x y z
#
# Youngs Moduli (GPa) = 93.86218 40.31912 60.85493
#
# Poissons Ratio (x) = 0.25265 0.06882
# Poissons Ratio (y) = 0.58815 0.62963
# Poissons Ratio (z) = 0.10615 0.41716
#
# Static dielectric constant tensor:
#      x y z
#    x 1.634450 0.000000 0.000000 
#    y 0.000000 1.748850 0.000000 
#    z 0.000000 0.000000 1.703210 
# 
# From -- ./inp_files/34570.got.cif
#   From: 2010.05.17/outbox.cif.g08.bks.cpg/sg71_18_cif.got.tgz:34570.got - 2010.06.03 16:22:01.
