data_PCOD9523100
_publ_section_title
;
Structure prediction by ZEFSAII (Michael W. Deem and Ramdas Pophale) SiO2 
 PCOD9523100
Probable space group: I M M M
;
_chemical_formula_sum "Si O2"
_cell_formula_units_Z 42
_cell_length_a 22.967077
_cell_length_b 7.434948
_cell_length_c 10.476928
_cell_angle_alpha 90.000000
_cell_angle_beta 90.000000
_cell_angle_gamma 90.000000
_cell_volume 1789.029991
_symmetry_space_group_name_H-M "I M M M"
_symmetry_group_IT_number 71
_symmetry_cell_setting 'orthorhombic'
loop_
_space_group_symop_operation_xyz
x,y,z
-x,-y,z
x,-y,-z
-x,y,-z
-x,-y,-z
x,y,-z
-x,y,z
x,-y,z
1/2+x,1/2+y,1/2+z
1/2-x,1/2-y,1/2+z
1/2+x,1/2-y,1/2-z
1/2-x,1/2+y,1/2-z
1/2-x,1/2-y,1/2-z
1/2+x,1/2+y,1/2-z
1/2-x,1/2+y,1/2+z
1/2+x,1/2-y,1/2+z
loop_
_atom_site_type_symbol
_atom_site_label
_atom_site_fract_x
_atom_site_fract_y
_atom_site_fract_z
Si Si1 0.844718 0.205223 0.500000
Si Si2 0.710281 0.719015 0.500000
Si Si3 0.000000 0.000000 0.500000
Si Si4 0.375640 0.282977 0.277570
Si Si5 0.500000 0.203002 0.229469
O O1 0.775010 0.205125 0.500000
O O2 0.864530 0.285678 0.366156
O O3 0.869328 0.000000 0.500000
O O4 0.714898 0.500000 0.500000
O O5 0.673394 0.776332 0.376417
O O6 0.000000 0.843752 0.386836
O O7 0.371439 0.500000 0.274544
O O8 0.441329 0.232730 0.310278
O O9 0.500000 0.000000 0.180699
#
# Coordination Sequence:
#
# PCOD9523100 Si02
#       5
#     8   8   2  16   8
#     4  10  21  36  61  87 122 172 216 273 333 374
#     4  10  22  38  61  90 126 176 221 261 332 393
#     4  12  22  44  64  92 144 160 210 274 316 380
#     4  10  21  40  62  89 131 174 213 273 331 388
#     4  12  25  40  68 101 128 174 218 268 331 385
#
# _framework density 23.476410999999999
#
# number of rings (size 3 to 8) (size 9 to 14) (size 15 to 20)
#    0.000    1.524    1.905    2.571    2.667    3.810 
#    0.000    3.810    0.000    0.000    0.000    0.000 
#    0.000    0.000    0.000    0.000    0.000    0.000 
#
# Total GULP energy -117259.890335 kJ/mol
# GULP energy per Si atom -5583.804302 kJ/mol
# Density = 2.342298 g / cm^3
# Si number density = 23.476411 Si / 1000 Ang^3
#
#
#
# Elastic Constant Matrix: (Units=GPa)
#
#
# Indices 1 2 3 4 5 6 
#
# 1 109.0948 -35.2686 15.9266 0.0000 0.0000 0.0000
# 2 -35.2686 117.2254 -3.2084 0.0000 0.0000 0.0000
# 3 15.9266 -3.2084 76.9225 0.0000 0.0000 0.0000
# 4 0.0000 0.0000 0.0000 -4.1529 0.0000 0.0000
# 5 0.0000 0.0000 0.0000 0.0000 12.7580 0.0000
# 6 0.0000 0.0000 0.0000 0.0000 0.0000 26.7998
#
#
#
# Elastic Compliance Matrix: (Units=1/GPa)
#
#
# Indices 1 2 3 4 5 6 
#
# 1 0.010463 0.003092 -0.002037 0.000000 0.000000 0.000000
# 2 0.003092 0.009454 -0.000246 0.000000 0.000000 0.000000
# 3 -0.002037 -0.000246 0.013412 0.000000 0.000000 0.000000
# 4 0.000000 0.000000 0.000000 -0.240794 0.000000 0.000000
# 5 0.000000 0.000000 0.000000 0.000000 0.078382 0.000000
# 6 0.000000 0.000000 0.000000 0.000000 0.000000 0.037314
#
#
# Mechanical properties :
#
#
# Convention : Reuss Voigt Hill
#
# Bulk Modulus (GPa) = 28.61462 28.68245 28.64853
# Shear Modulus (GPa) = -61.17130 28.80051 -16.18540
#
# Velocity S-wave (km/s) = -5.11009 3.50635 -2.62855
# Velocity P-wave (km/s) = 4.75419 5.35133 1.73701
#
# Compressibility (1/GPa) = 0.03494717
#
# Stress axis : x y z
#
# Youngs Moduli (GPa) = 95.57059 105.77313 74.56180
#
# Poissons Ratio (x) = -0.32708 0.15192
# Poissons Ratio (y) = -0.29553 0.01834
# Poissons Ratio (z) = 0.19472 0.02601
#
# Static dielectric constant tensor:
#      x y z
#    x 1.884230 0.000000 0.000000 
#    y 0.000000 1.870990 0.000000 
#    z 0.000000 0.000000 1.840860 
# 
# From -- ./inp_files/2896.got.cif
#   From: 2010.05.17/outbox.cif.g08.bks.cpg/sg71_2_cif.got.tgz:2896.got - 2010.06.03 16:22:01.
