data_PCOD9523318
_publ_section_title
;
Structure prediction by ZEFSAII (Michael W. Deem and Ramdas Pophale) SiO2 
 PCOD9523318
Probable space group: I M M M
;
_chemical_formula_sum "Si O2"
_cell_formula_units_Z 96
_cell_length_a 23.775796
_cell_length_b 8.921341
_cell_length_c 27.131386
_cell_angle_alpha 90.000000
_cell_angle_beta 90.000000
_cell_angle_gamma 90.000000
_cell_volume 5754.892104
_symmetry_space_group_name_H-M "I M M M"
_symmetry_group_IT_number 71
_symmetry_cell_setting 'orthorhombic'
loop_
_space_group_symop_operation_xyz
x,y,z
-x,-y,z
x,-y,-z
-x,y,-z
-x,-y,-z
x,y,-z
-x,y,z
x,-y,z
1/2+x,1/2+y,1/2+z
1/2-x,1/2-y,1/2+z
1/2+x,1/2-y,1/2-z
1/2-x,1/2+y,1/2-z
1/2-x,1/2-y,1/2-z
1/2+x,1/2+y,1/2-z
1/2-x,1/2+y,1/2+z
1/2+x,1/2-y,1/2+z
loop_
_atom_site_type_symbol
_atom_site_label
_atom_site_fract_x
_atom_site_fract_y
_atom_site_fract_z
Si Si1 0.233904 0.834803 0.442675
Si Si2 0.840921 0.672078 0.118355
Si Si3 0.744284 0.319470 0.803822
Si Si4 0.066543 0.179703 0.556053
Si Si5 0.844229 0.673628 0.374335
Si Si6 0.065278 0.819677 0.056066
O O1 0.225226 0.833647 0.500000
O O2 0.298590 0.826034 0.428147
O O3 0.201210 0.700799 0.417540
O O4 0.214054 0.000000 0.423352
O O5 0.856414 0.500000 0.129211
O O6 0.799083 0.723716 0.162571
O O7 0.895009 0.760126 0.099539
O O8 0.742849 0.500000 0.802274
O O9 0.750000 0.250000 0.750000
O O10 0.687226 0.258470 0.829610
O O11 0.084302 0.226197 0.500000
O O12 0.100619 0.255185 0.600461
O O13 0.000000 0.210216 0.559999
O O14 0.074341 0.000000 0.558371
O O15 0.852422 0.500000 0.362635
O O16 0.000000 0.775979 0.063284
O O17 0.067929 0.000000 0.056181
O O18 0.081539 0.770406 0.000000
#
# Coordination Sequence:
#
# PCOD9523318 Si02
#       6
#    16  16  16  16  16  16
#     4   9  17  29  44  64  95 131 163 199 243 290
#     4   9  18  31  48  71  96 123 158 200 244 289
#     4  10  21  38  57  76  98 124 159 206 258 308
#     4   9  18  33  52  73 101 140 179 210 245 291
#     4  11  21  31  47  73 102 131 164 202 247 299
#     4   9  18  31  46  68 101 138 171 201 233 274
#
# _framework density 16.681459
#
# number of rings (size 3 to 8) (size 9 to 14) (size 15 to 20)
#    0.000    2.500    0.000    5.000    0.000    7.667 
#    0.000    1.667    0.000    1.000    0.000    4.667 
#    0.000    0.000    0.000    0.000    0.000    0.000 
#
# Total GULP energy -267206.691141 kJ/mol
# GULP energy per Si atom -5566.806065 kJ/mol
# Density = 1.664349 g / cm^3
# Si number density = 16.681459 Si / 1000 Ang^3
#
#
#
# Elastic Constant Matrix: (Units=GPa)
#
#
# Indices 1 2 3 4 5 6 
#
# 1 94.2789 37.1847 56.4593 0.0000 0.0000 0.0000
# 2 37.1847 55.6973 43.0390 0.0000 0.0000 0.0000
# 3 56.4593 43.0390 101.7143 0.0000 0.0000 0.0000
# 4 0.0000 0.0000 0.0000 25.0457 0.0000 0.0000
# 5 0.0000 0.0000 0.0000 0.0000 22.0331 0.0000
# 6 0.0000 0.0000 0.0000 0.0000 0.0000 39.2595
#
#
#
# Elastic Compliance Matrix: (Units=1/GPa)
#
#
# Indices 1 2 3 4 5 6 
#
# 1 0.017175 -0.006091 -0.006956 0.000000 0.000000 0.000000
# 2 -0.006091 0.028837 -0.008821 0.000000 0.000000 0.000000
# 3 -0.006956 -0.008821 0.017425 0.000000 0.000000 0.000000
# 4 0.000000 0.000000 0.000000 0.039927 0.000000 0.000000
# 5 0.000000 0.000000 0.000000 0.000000 0.045386 0.000000
# 6 0.000000 0.000000 0.000000 0.000000 0.000000 0.025472
#
#
# Mechanical properties :
#
#
# Convention : Reuss Voigt Hill
#
# Bulk Modulus (GPa) = 50.75958 58.33962 54.54960
# Shear Modulus (GPa) = 22.26928 24.93484 23.60206
#
# Velocity S-wave (km/s) = 3.65769 3.87041 3.76555
# Velocity P-wave (km/s) = 6.95220 7.41769 7.18871
#
# Compressibility (1/GPa) = 0.01970072
#
# Stress axis : x y z
#
# Youngs Moduli (GPa) = 58.22457 34.67775 57.38887
#
# Poissons Ratio (x) = 0.21123 0.39920
# Poissons Ratio (y) = 0.35466 0.50622
# Poissons Ratio (z) = 0.40501 0.30589
#
# Static dielectric constant tensor:
#      x y z
#    x 1.580660 0.000000 0.000000 
#    y 0.000000 1.598330 0.000000 
#    z 0.000000 0.000000 1.568790 
# 
# From -- ./inp_files/66733.got.cif
#   From: 2010.05.17/outbox.cif.g08.bks.cpg/sg71_34_cif.got.tgz:66733.got - 2010.06.03 16:22:01.
