data_PCOD9523572
_publ_section_title
;
Structure prediction by ZEFSAII (Michael W. Deem and Ramdas Pophale) SiO2 
 PCOD9523572
Probable space group: I M M M
;
_chemical_formula_sum "Si O2"
_cell_formula_units_Z 66
_cell_length_a 30.329939
_cell_length_b 14.291307
_cell_length_c 8.827780
_cell_angle_alpha 90.000000
_cell_angle_beta 90.000000
_cell_angle_gamma 90.000000
_cell_volume 3826.440697
_symmetry_space_group_name_H-M "I M M M"
_symmetry_group_IT_number 71
_symmetry_cell_setting 'orthorhombic'
loop_
_space_group_symop_operation_xyz
x,y,z
-x,-y,z
x,-y,-z
-x,y,-z
-x,-y,-z
x,y,-z
-x,y,z
x,-y,z
1/2+x,1/2+y,1/2+z
1/2-x,1/2-y,1/2+z
1/2+x,1/2-y,1/2-z
1/2-x,1/2+y,1/2-z
1/2-x,1/2-y,1/2-z
1/2+x,1/2+y,1/2-z
1/2-x,1/2+y,1/2+z
1/2+x,1/2-y,1/2+z
loop_
_atom_site_type_symbol
_atom_site_label
_atom_site_fract_x
_atom_site_fract_y
_atom_site_fract_z
Si Si1 0.920070 0.302099 0.682005
Si Si2 0.000000 0.804482 0.832912
Si Si3 0.246215 0.106097 0.317353
Si Si4 0.000000 0.000000 0.000000
Si Si5 0.052949 0.500000 0.178035
Si Si6 0.180082 0.268242 0.682478
O O1 0.922778 0.303329 0.500000
O O2 0.929173 0.405956 0.744539
O O3 0.870788 0.271337 0.727986
O O4 0.956873 0.232173 0.747028
O O5 0.000000 0.914959 0.870192
O O6 0.000000 0.757046 0.000000
O O7 0.248802 0.108417 0.500000
O O8 0.206241 0.174371 0.271162
O O9 0.291219 0.147804 0.251004
O O10 0.239049 0.000000 0.268404
O O11 0.000000 0.500000 0.193398
O O12 0.064032 0.500000 0.000000
O O13 0.181714 0.274468 0.500000
#
# Coordination Sequence:
#
# PCOD9523572 Si02
#       6
#    16   8  16   2   8  16
#     4  11  22  37  60  89 119 153 190 242 291 347
#     4  10  21  42  62  82 115 153 190 237 286 333
#     4   9  18  35  56  78 107 146 189 232 278 338
#     4   8  24  44  66  78 112 160 190 248 288 330
#     4  11  23  37  57  87 119 160 192 228 291 357
#     4   9  20  36  54  80 114 145 183 233 289 335
#
# _framework density 17.248405000000002
#
# number of rings (size 3 to 8) (size 9 to 14) (size 15 to 20)
#    0.364    1.818    1.212    1.455    1.697    2.909 
#    2.182    1.212    0.000    0.000    0.000    0.000 
#    0.000    0.000    0.000    0.000    0.000    0.000 
#
# Total GULP energy -183778.312185 kJ/mol
# GULP energy per Si atom -5569.039763 kJ/mol
# Density = 1.720915 g / cm^3
# Si number density = 17.248405 Si / 1000 Ang^3
#
#
#
# Elastic Constant Matrix: (Units=GPa)
#
#
# Indices 1 2 3 4 5 6 
#
# 1 156.6338 73.5262 49.9877 0.0000 0.0000 0.0000
# 2 73.5262 147.7318 36.0788 0.0000 0.0000 0.0000
# 3 49.9877 36.0788 46.9607 0.0000 0.0000 0.0000
# 4 0.0000 0.0000 0.0000 19.4393 0.0000 0.0000
# 5 0.0000 0.0000 0.0000 0.0000 26.2941 0.0000
# 6 0.0000 0.0000 0.0000 0.0000 0.0000 8.5234
#
#
#
# Elastic Compliance Matrix: (Units=1/GPa)
#
#
# Indices 1 2 3 4 5 6 
#
# 1 0.010736 -0.003142 -0.009014 0.000000 0.000000 0.000000
# 2 -0.003142 0.009252 -0.003764 0.000000 0.000000 0.000000
# 3 -0.009014 -0.003764 0.033781 0.000000 0.000000 0.000000
# 4 0.000000 0.000000 0.000000 0.051442 0.000000 0.000000
# 5 0.000000 0.000000 0.000000 0.000000 0.038031 0.000000
# 6 0.000000 0.000000 0.000000 0.000000 0.000000 0.117324
#
#
# Mechanical properties :
#
#
# Convention : Reuss Voigt Hill
#
# Bulk Modulus (GPa) = 45.60037 74.50129 60.05083
# Shear Modulus (GPa) = 16.68249 23.63360 20.15804
#
# Velocity S-wave (km/s) = 3.11334 3.70562 3.42232
# Velocity P-wave (km/s) = 6.27843 7.84830 7.10684
#
# Compressibility (1/GPa) = 0.02192964
#
# Stress axis : x y z
#
# Youngs Moduli (GPa) = 93.14559 108.08632 29.60244
#
# Poissons Ratio (x) = 0.33959 0.26684
# Poissons Ratio (y) = 0.29265 0.11141
# Poissons Ratio (z) = 0.83962 0.40680
#
# Static dielectric constant tensor:
#      x y z
#    x 1.571890 0.000000 0.000000 
#    y 0.000000 1.568200 0.000000 
#    z 0.000000 0.000000 1.587740 
# 
# From -- ./inp_files/14263.got.cif
#   From: 2010.05.17/outbox.cif.g08.bks.cpg/sg71_8_cif.got.tgz:14263.got - 2010.06.03 16:22:01.
