data_PCOD9523858
_publ_section_title
;
Structure prediction by ZEFSAII (Michael W. Deem and Ramdas Pophale) SiO2 
 PCOD9523858
Probable space group: I M M M
;
_chemical_formula_sum "Si O2"
_cell_formula_units_Z 56
_cell_length_a 10.555784
_cell_length_b 13.677346
_cell_length_c 23.566986
_cell_angle_alpha 90.000000
_cell_angle_beta 90.000000
_cell_angle_gamma 90.000000
_cell_volume 3402.486198
_symmetry_space_group_name_H-M "I M M M"
_symmetry_group_IT_number 71
_symmetry_cell_setting 'orthorhombic'
loop_
_space_group_symop_operation_xyz
x,y,z
-x,-y,z
x,-y,-z
-x,y,-z
-x,-y,-z
x,y,-z
-x,y,z
x,-y,z
1/2+x,1/2+y,1/2+z
1/2-x,1/2-y,1/2+z
1/2+x,1/2-y,1/2-z
1/2-x,1/2+y,1/2-z
1/2-x,1/2-y,1/2-z
1/2+x,1/2+y,1/2-z
1/2-x,1/2+y,1/2+z
1/2+x,1/2-y,1/2+z
loop_
_atom_site_type_symbol
_atom_site_label
_atom_site_fract_x
_atom_site_fract_y
_atom_site_fract_z
Si Si1 0.000000 0.500000 0.683640
Si Si2 0.000000 0.222279 0.174721
Si Si3 0.000000 0.722909 0.688762
Si Si4 0.000000 0.000000 0.794565
Si Si5 0.748478 0.168984 0.354239
Si Si6 0.350240 0.500000 0.932296
Si Si7 0.233537 0.500000 0.766181
O O1 0.000000 0.612628 0.663150
O O2 0.869814 0.500000 0.718250
O O3 0.000000 0.259513 0.241804
O O4 0.874146 0.262033 0.143428
O O5 0.000000 0.104327 0.174185
O O6 0.873599 0.773716 0.665078
O O7 0.124820 0.000000 0.756354
O O8 0.784525 0.096912 0.406134
O O9 0.714651 0.094541 0.303993
O O10 0.500000 0.500000 0.915414
O O11 0.342761 0.500000 0.000000
#
# Coordination Sequence:
#
# PCOD9523858 Si02
#       7
#     4   8   8   4  16   8   8
#     4  12  22  28  46  72 110 150 192 222 252 322
#     4  12  22  34  50  81 120 158 195 227 277 337
#     4  12  20  34  48  77 110 164 191 221 271 337
#     4  12  22  30  50  72 112 164 190 214 252 344
#     4  11  21  35  55  80 113 150 187 237 288 333
#     4  10  22  42  67  89 107 141 195 249 300 351
#     4  11  18  30  47  73 104 151 190 217 267 322
#
# _framework density 16.458552999999998
#
# number of rings (size 3 to 8) (size 9 to 14) (size 15 to 20)
#    0.000    0.714    7.143    2.571    2.000    1.714 
#    0.000    1.429    0.000    0.000    0.000    6.000 
#    0.000    0.000    0.000    0.000    0.000    0.000 
#
# Total GULP energy -156028.663353 kJ/mol
# GULP energy per Si atom -5572.452263 kJ/mol
# Density = 1.642109 g / cm^3
# Si number density = 16.458553 Si / 1000 Ang^3
#
#
#
# Elastic Constant Matrix: (Units=GPa)
#
#
# Indices 1 2 3 4 5 6 
#
# 1 83.5075 21.8656 22.3228 0.0000 0.0000 0.0000
# 2 21.8656 132.3212 20.5712 0.0000 0.0000 0.0000
# 3 22.3228 20.5712 47.3300 0.0000 0.0000 0.0000
# 4 0.0000 0.0000 0.0000 -18.3425 0.0000 0.0000
# 5 0.0000 0.0000 0.0000 0.0000 8.5871 0.0000
# 6 0.0000 0.0000 0.0000 0.0000 0.0000 43.2733
#
#
#
# Elastic Compliance Matrix: (Units=1/GPa)
#
#
# Indices 1 2 3 4 5 6 
#
# 1 0.013931 -0.001373 -0.005974 0.000000 0.000000 0.000000
# 2 -0.001373 0.008240 -0.002934 0.000000 0.000000 0.000000
# 3 -0.005974 -0.002934 0.025221 0.000000 0.000000 0.000000
# 4 0.000000 0.000000 0.000000 -0.054518 0.000000 0.000000
# 5 0.000000 0.000000 0.000000 0.000000 0.116453 0.000000
# 6 0.000000 0.000000 0.000000 0.000000 0.000000 0.023109
#
#
# Mechanical properties :
#
#
# Convention : Reuss Voigt Hill
#
# Bulk Modulus (GPa) = 37.27058 43.63089 40.45074
# Shear Modulus (GPa) = 30.87519 19.93019 25.40269
#
# Velocity S-wave (km/s) = 4.33591 3.48362 3.93292
# Velocity P-wave (km/s) = 6.91094 6.53819 6.72715
#
# Compressibility (1/GPa) = 0.02683081
#
# Stress axis : x y z
#
# Youngs Moduli (GPa) = 71.77996 121.35301 39.64975
#
# Poissons Ratio (x) = 0.16667 0.23686
# Poissons Ratio (y) = 0.09858 0.11632
# Poissons Ratio (z) = 0.42879 0.35603
#
# Static dielectric constant tensor:
#      x y z
#    x 1.546870 0.000000 0.000000 
#    y 0.000000 1.566610 0.000000 
#    z 0.000000 0.000000 1.530460 
# 
# From -- ./inp_files/5425.got.cif
#   From: 2010.05.17/outbox.cif.g08.bks.cpg/sg71_3_cif.got.tgz:5425.got - 2010.06.03 16:22:01.
