data_PCOD9523856
_publ_section_title
;
Structure prediction by ZEFSAII (Michael W. Deem and Ramdas Pophale) SiO2 
 PCOD9523856
Probable space group: I M M M
;
_chemical_formula_sum "Si O2"
_cell_formula_units_Z 84
_cell_length_a 22.417178
_cell_length_b 11.438709
_cell_length_c 16.478657
_cell_angle_alpha 90.000000
_cell_angle_beta 90.000000
_cell_angle_gamma 90.000000
_cell_volume 4225.516151
_symmetry_space_group_name_H-M "I M M M"
_symmetry_group_IT_number 71
_symmetry_cell_setting 'orthorhombic'
loop_
_space_group_symop_operation_xyz
x,y,z
-x,-y,z
x,-y,-z
-x,y,-z
-x,-y,-z
x,y,-z
-x,y,z
x,-y,z
1/2+x,1/2+y,1/2+z
1/2-x,1/2-y,1/2+z
1/2+x,1/2-y,1/2-z
1/2-x,1/2+y,1/2-z
1/2-x,1/2-y,1/2-z
1/2+x,1/2+y,1/2-z
1/2-x,1/2+y,1/2+z
1/2+x,1/2-y,1/2+z
loop_
_atom_site_type_symbol
_atom_site_label
_atom_site_fract_x
_atom_site_fract_y
_atom_site_fract_z
Si Si1 0.928367 0.640229 0.500000
Si Si2 0.134155 0.281369 0.661740
Si Si3 0.380403 0.639247 0.317431
Si Si4 0.500000 0.270991 0.591835
Si Si5 0.386221 0.000000 0.728340
Si Si6 0.500000 0.000000 0.618163
Si Si7 0.708723 0.000000 0.588379
Si Si8 0.237704 0.763404 0.093665
O O1 0.911442 0.500000 0.500000
O O2 0.901808 0.706558 0.578228
O O3 0.000000 0.644205 0.500000
O O4 0.123998 0.171957 0.721753
O O5 0.113220 0.387909 0.716413
O O6 0.203550 0.302562 0.640763
O O7 0.378386 0.500000 0.328357
O O8 0.440838 0.689143 0.358938
O O9 0.322999 0.697942 0.361788
O O10 0.500000 0.321283 0.500000
O O11 0.500000 0.130299 0.581669
O O12 0.442425 0.000000 0.672416
O O13 0.331427 0.000000 0.667211
O O14 0.742813 0.122244 0.590815
O O15 0.675644 0.000000 0.500000
O O16 0.237042 0.805051 0.000000
#
# Coordination Sequence:
#
# PCOD9523856 Si02
#       8
#     8  16  16   8   8   4   8  16
#     4  11  26  44  73 103 139 176 225 296 349 396
#     4  12  25  44  69 103 137 177 231 281 343 405
#     4  12  28  45  70  98 139 186 228 275 335 415
#     4  12  26  48  73 103 138 179 226 280 341 407
#     4  12  24  39  72  96 136 175 224 282 339 404
#     4  12  23  44  70 109 130 172 220 283 342 400
#     4  10  22  42  66 100 139 173 218 283 347 404
#     4  11  24  43  68 101 137 178 226 285 342 403
#
# _framework density 19.879228000000001
#
# number of rings (size 3 to 8) (size 9 to 14) (size 15 to 20)
#    0.000    0.476    5.714    1.571    5.333    4.190 
#    0.000    0.476    0.000    0.571    0.000    0.000 
#    0.000    0.000    0.000    0.000    0.000    0.000 
#
# Total GULP energy -234523.782206 kJ/mol
# GULP energy per Si atom -5583.899576 kJ/mol
# Density = 1.983398 g / cm^3
# Si number density = 19.879228 Si / 1000 Ang^3
#
#
#
# Elastic Constant Matrix: (Units=GPa)
#
#
# Indices 1 2 3 4 5 6 
#
# 1 114.1751 12.4492 37.0599 0.0000 0.0000 0.0000
# 2 12.4492 100.4722 12.8053 0.0000 0.0000 0.0000
# 3 37.0599 12.8053 134.2350 0.0000 0.0000 0.0000
# 4 0.0000 0.0000 0.0000 -243.9259 0.0000 0.0000
# 5 0.0000 0.0000 0.0000 0.0000 25.4173 0.0000
# 6 0.0000 0.0000 0.0000 0.0000 0.0000 -36.7107
#
#
#
# Elastic Compliance Matrix: (Units=1/GPa)
#
#
# Indices 1 2 3 4 5 6 
#
# 1 0.009695 -0.000871 -0.002594 0.000000 0.000000 0.000000
# 2 -0.000871 0.010154 -0.000728 0.000000 0.000000 0.000000
# 3 -0.002594 -0.000728 0.008235 0.000000 0.000000 0.000000
# 4 0.000000 0.000000 0.000000 -0.004100 0.000000 0.000000
# 5 0.000000 0.000000 0.000000 0.000000 0.039343 0.000000
# 6 0.000000 0.000000 0.000000 0.000000 0.000000 -0.027240
#
#
# Mechanical properties :
#
#
# Convention : Reuss Voigt Hill
#
# Bulk Modulus (GPa) = 50.76411 52.61233 51.68822
# Shear Modulus (GPa) = 97.96363 -31.93934 33.01214
#
# Velocity S-wave (km/s) = 7.02754 -4.01268 4.07951
# Velocity P-wave (km/s) = 9.56244 2.24826 6.94604
#
# Compressibility (1/GPa) = 0.01969896
#
# Stress axis : x y z
#
# Youngs Moduli (GPa) = 103.14288 98.48618 121.43075
#
# Poissons Ratio (x) = 0.08576 0.31495
# Poissons Ratio (y) = 0.08981 0.08843
# Poissons Ratio (z) = 0.26751 0.07172
#
# Static dielectric constant tensor:
#      x y z
#    x 1.647250 0.000000 0.000000 
#    y 0.000000 1.732590 0.000000 
#    z 0.000000 0.000000 1.707920 
# 
# From -- ./inp_files/39063.got.cif
#   From: 2010.05.17/outbox.cif.g08.bks.cpg/sg71_20_cif.got.tgz:39063.got - 2010.06.03 16:22:01.
