data_PCOD9523487
_publ_section_title
;
Structure prediction by ZEFSAII (Michael W. Deem and Ramdas Pophale) SiO2 
 PCOD9523487
Probable space group: I M M M
;
_chemical_formula_sum "Si O2"
_cell_formula_units_Z 112
_cell_length_a 25.209762
_cell_length_b 13.899354
_cell_length_c 14.802788
_cell_angle_alpha 90.000000
_cell_angle_beta 90.000000
_cell_angle_gamma 90.000000
_cell_volume 5186.888127
_symmetry_space_group_name_H-M "I M M M"
_symmetry_group_IT_number 71
_symmetry_cell_setting 'orthorhombic'
loop_
_space_group_symop_operation_xyz
x,y,z
-x,-y,z
x,-y,-z
-x,y,-z
-x,-y,-z
x,y,-z
-x,y,z
x,-y,z
1/2+x,1/2+y,1/2+z
1/2-x,1/2-y,1/2+z
1/2+x,1/2-y,1/2-z
1/2-x,1/2+y,1/2-z
1/2-x,1/2-y,1/2-z
1/2+x,1/2+y,1/2-z
1/2-x,1/2+y,1/2+z
1/2+x,1/2-y,1/2+z
loop_
_atom_site_type_symbol
_atom_site_label
_atom_site_fract_x
_atom_site_fract_y
_atom_site_fract_z
Si Si1 0.442881 0.115271 0.783453
Si Si2 0.062027 0.883451 0.399670
Si Si3 0.259798 0.383425 0.720101
Si Si4 0.160055 0.617444 0.602982
Si Si5 0.882340 0.115167 0.211161
Si Si6 0.201963 0.385037 0.099167
Si Si7 0.913394 0.286976 0.101835
O O1 0.500000 0.140500 0.825687
O O2 0.391461 0.146822 0.839702
O O3 0.441072 0.156184 0.682609
O O4 0.439952 0.000000 0.778255
O O5 0.079358 0.849297 0.500000
O O6 0.094971 0.858233 0.310225
O O7 0.000000 0.858140 0.387821
O O8 0.064401 0.000000 0.402898
O O9 0.259829 0.500000 0.717745
O O10 0.214996 0.351947 0.649403
O O11 0.320437 0.356606 0.705061
O O12 0.239242 0.355345 0.818969
O O13 0.156802 0.649471 0.500000
O O14 0.160112 0.500000 0.603068
O O15 0.911629 0.176736 0.134787
O O16 0.887572 0.000000 0.199809
O O17 0.191144 0.500000 0.109075
O O18 0.146341 0.330139 0.102231
O O19 0.226206 0.370249 0.000000
O O20 0.933888 0.297819 0.000000
#
# Coordination Sequence:
#
# PCOD9523487 Si02
#       7
#    16  16  16  16  16  16  16
#     4  10  21  39  63  89 117 148 189 246 304 358
#     4   8  15  32  59  85 108 141 189 244 300 351
#     4   9  17  32  55  83 117 156 197 239 283 337
#     4   9  17  32  56  85 119 160 198 231 280 346
#     4  10  22  37  57  87 121 159 202 245 287 340
#     4   9  17  32  56  82 110 148 192 241 297 350
#     4  11  23  38  57  82 114 153 196 243 293 348
#
# _framework density 21.592908999999999
#
# number of rings (size 3 to 8) (size 9 to 14) (size 15 to 20)
#    0.000    2.571    1.429    0.857    0.000    4.000 
#    0.000    7.143    0.000    0.000    0.000    3.000 
#    0.000    0.000    0.000    0.000    0.000    0.000 
#
# Total GULP energy -312754.009027 kJ/mol
# GULP energy per Si atom -5584.893018 kJ/mol
# Density = 2.154376 g / cm^3
# Si number density = 21.592909 Si / 1000 Ang^3
#
#
#
# Elastic Constant Matrix: (Units=GPa)
#
#
# Indices 1 2 3 4 5 6 
#
# 1 90.2042 4.6873 55.4042 0.0000 0.0000 0.0000
# 2 4.6873 80.2003 20.3364 0.0000 0.0000 0.0000
# 3 55.4042 20.3364 145.6776 0.0000 0.0000 0.0000
# 4 0.0000 0.0000 0.0000 20.6347 0.0000 0.0000
# 5 0.0000 0.0000 0.0000 0.0000 135.2983 0.0000
# 6 0.0000 0.0000 0.0000 0.0000 0.0000 -11.7531
#
#
#
# Elastic Compliance Matrix: (Units=1/GPa)
#
#
# Indices 1 2 3 4 5 6 
#
# 1 0.014490 0.000571 -0.005591 0.000000 0.000000 0.000000
# 2 0.000571 0.012949 -0.002025 0.000000 0.000000 0.000000
# 3 -0.005591 -0.002025 0.009273 0.000000 0.000000 0.000000
# 4 0.000000 0.000000 0.000000 0.048462 0.000000 0.000000
# 5 0.000000 0.000000 0.000000 0.000000 0.007391 0.000000
# 6 0.000000 0.000000 0.000000 0.000000 0.000000 -0.085084
#
#
# Mechanical properties :
#
#
# Convention : Reuss Voigt Hill
#
# Bulk Modulus (GPa) = 44.20244 52.99308 48.59776
# Shear Modulus (GPa) = 171.75287 44.54626 108.14956
#
# Velocity S-wave (km/s) = 8.92827 4.54696 7.08480
# Velocity P-wave (km/s) = 11.26058 7.22230 9.45944
#
# Compressibility (1/GPa) = 0.02262318
#
# Stress axis : x y z
#
# Youngs Moduli (GPa) = 69.01289 77.22705 107.83636
#
# Poissons Ratio (x) = -0.04408 0.60286
# Poissons Ratio (y) = -0.03939 0.21834
# Poissons Ratio (z) = 0.38582 0.15636
#
# Static dielectric constant tensor:
#      x y z
#    x 1.772280 0.000000 0.000000 
#    y 0.000000 1.809580 0.000000 
#    z 0.000000 0.000000 1.760650 
# 
# From -- ./inp_files/39291.got.cif
#   From: 2010.05.17/outbox.cif.g08.bks.cpg/sg71_20_cif.got.tgz:39291.got - 2010.06.03 16:22:01.
