data_PCOD9523982
_publ_section_title
;
Structure prediction by ZEFSAII (Michael W. Deem and Ramdas Pophale) SiO2 
 PCOD9523982
Probable space group: I M M M
;
_chemical_formula_sum "Si O2"
_cell_formula_units_Z 112
_cell_length_a 14.398065
_cell_length_b 30.767959
_cell_length_c 19.050726
_cell_angle_alpha 90.000000
_cell_angle_beta 90.000000
_cell_angle_gamma 90.000000
_cell_volume 8439.453969
_symmetry_space_group_name_H-M "I M M M"
_symmetry_group_IT_number 71
_symmetry_cell_setting 'orthorhombic'
loop_
_space_group_symop_operation_xyz
x,y,z
-x,-y,z
x,-y,-z
-x,y,-z
-x,-y,-z
x,y,-z
-x,y,z
x,-y,z
1/2+x,1/2+y,1/2+z
1/2-x,1/2-y,1/2+z
1/2+x,1/2-y,1/2-z
1/2-x,1/2+y,1/2-z
1/2-x,1/2-y,1/2-z
1/2+x,1/2+y,1/2-z
1/2-x,1/2+y,1/2+z
1/2+x,1/2-y,1/2+z
loop_
_atom_site_type_symbol
_atom_site_label
_atom_site_fract_x
_atom_site_fract_y
_atom_site_fract_z
Si Si1 0.216659 0.318318 0.720396
Si Si2 0.108990 0.449586 0.915877
Si Si3 0.500000 0.819838 0.585113
Si Si4 0.104245 0.232576 0.720806
Si Si5 0.500000 0.280693 0.584667
Si Si6 0.205908 0.799725 0.081658
Si Si7 0.311170 0.291150 0.080693
Si Si8 0.685099 0.864943 0.357606
O O1 0.136014 0.282406 0.730280
O O2 0.313112 0.295215 0.744375
O O3 0.231917 0.325550 0.637711
O O4 0.197917 0.356697 0.774708
O O5 0.129703 0.500000 0.900323
O O6 0.174986 0.414971 0.878546
O O7 0.000000 0.441895 0.897714
O O8 0.116130 0.443555 0.000000
O O9 0.500000 0.822698 0.500000
O O10 0.500000 0.769501 0.606978
O O11 0.409611 0.842969 0.615187
O O12 0.112360 0.221134 0.638184
O O13 0.000000 0.224505 0.746183
O O14 0.500000 0.278688 0.500000
O O15 0.597662 0.302701 0.602203
O O16 0.236242 0.748637 0.087252
O O17 0.218152 0.811839 0.000000
O O18 0.263929 0.336440 0.103268
O O19 0.341251 0.292329 0.000000
#
# Coordination Sequence:
#
# PCOD9523982 Si02
#       8
#    16  16   8  16   8  16  16  16
#     4   9  20  28  36  58  74 102 140 166 203 240
#     4   9  17  27  39  58  83 108 131 157 199 249
#     4  11  18  22  35  60  78 103 139 171 200 225
#     4   9  18  28  37  50  76 106 133 171 208 234
#     4   9  16  22  36  57  74 102 140 168 200 236
#     4   9  16  27  38  52  76 102 133 173 203 231
#     4   9  16  26  37  52  74 101 140 174 193 228
#     4  11  18  25  38  56  80 106 134 169 202 232
#
# _framework density 13.271001
#
# number of rings (size 3 to 8) (size 9 to 14) (size 15 to 20)
#    0.000    2.571    2.143    2.571    2.000    0.286 
#    0.000    0.000    0.000    0.000    0.000    0.000 
#    0.000    9.714    0.000   33.000    0.000    4.000 
#
# Total GULP energy -311868.564168 kJ/mol
# GULP energy per Si atom -5569.081503 kJ/mol
# Density = 1.324080 g / cm^3
# Si number density = 13.271001 Si / 1000 Ang^3
#
#
#
# Elastic Constant Matrix: (Units=GPa)
#
#
# Indices 1 2 3 4 5 6 
#
# 1 44.1390 10.0967 10.4663 0.0000 0.0000 0.0000
# 2 10.0967 55.4688 30.0116 -0.0001 0.0000 0.0000
# 3 10.4663 30.0116 84.0322 -0.0002 0.0000 0.0000
# 4 0.0000 -0.0001 -0.0002 17.6027 0.0000 0.0000
# 5 0.0000 0.0000 0.0000 0.0000 16.3696 0.0000
# 6 0.0000 0.0000 0.0000 0.0000 0.0000 9.5288
#
#
#
# Elastic Compliance Matrix: (Units=1/GPa)
#
#
# Indices 1 2 3 4 5 6 
#
# 1 0.023848 -0.003389 -0.001760 0.000000 0.000000 0.000000
# 2 -0.003389 0.022828 -0.007731 0.000000 0.000000 0.000000
# 3 -0.001760 -0.007731 0.014880 0.000000 0.000000 0.000000
# 4 0.000000 0.000000 0.000000 0.056810 0.000000 0.000000
# 5 0.000000 0.000000 0.000000 0.000000 0.061089 0.000000
# 6 0.000000 0.000000 0.000000 0.000000 0.000000 0.104944
#
#
# Mechanical properties :
#
#
# Convention : Reuss Voigt Hill
#
# Bulk Modulus (GPa) = 27.93500 31.64323 29.78911
# Shear Modulus (GPa) = 15.52359 17.57125 16.54742
#
# Velocity S-wave (km/s) = 3.42385 3.64268 3.53496
# Velocity P-wave (km/s) = 6.06017 6.44886 6.25753
#
# Compressibility (1/GPa) = 0.03579739
#
# Stress axis : x y z
#
# Youngs Moduli (GPa) = 41.93190 43.80647 67.20251
#
# Poissons Ratio (x) = 0.14844 0.11828
# Poissons Ratio (y) = 0.14209 0.51952
# Poissons Ratio (z) = 0.07380 0.33865
#
# Static dielectric constant tensor:
#      x y z
#    x 1.449460 0.000000 0.000000 
#    y 0.000000 1.408010 0.000000 
#    z 0.000000 0.000000 1.485550 
# 
# From -- ./inp_files/53584.got.cif
#   From: 2010.05.17/outbox.cif.g08.bks.cpg/sg71_27_cif.got.tgz:53584.got - 2010.06.03 16:22:01.
