data_PCOD9523006
_publ_section_title
;
Structure prediction by ZEFSAII (Michael W. Deem and Ramdas Pophale) SiO2 
 PCOD9523006
Probable space group: I M M M
;
_chemical_formula_sum "Si O2"
_cell_formula_units_Z 96
_cell_length_a 11.536140
_cell_length_b 15.612956
_cell_length_c 28.279262
_cell_angle_alpha 90.000000
_cell_angle_beta 90.000000
_cell_angle_gamma 90.000000
_cell_volume 5093.469680
_symmetry_space_group_name_H-M "I M M M"
_symmetry_group_IT_number 71
_symmetry_cell_setting 'orthorhombic'
loop_
_space_group_symop_operation_xyz
x,y,z
-x,-y,z
x,-y,-z
-x,y,-z
-x,-y,-z
x,y,-z
-x,y,z
x,-y,z
1/2+x,1/2+y,1/2+z
1/2-x,1/2-y,1/2+z
1/2+x,1/2-y,1/2-z
1/2-x,1/2+y,1/2-z
1/2-x,1/2-y,1/2-z
1/2+x,1/2+y,1/2-z
1/2-x,1/2+y,1/2+z
1/2+x,1/2-y,1/2+z
loop_
_atom_site_type_symbol
_atom_site_label
_atom_site_fract_x
_atom_site_fract_y
_atom_site_fract_z
Si Si1 0.253550 0.830985 0.084871
Si Si2 0.230015 0.903967 0.648422
Si Si3 0.634878 0.772564 0.823293
Si Si4 0.000000 0.597201 0.555710
Si Si5 0.137004 0.000000 0.053482
Si Si6 0.862484 0.406036 0.244392
Si Si7 0.139629 0.657699 0.054277
O O1 0.273052 0.807029 0.138970
O O2 0.383717 0.851432 0.067715
O O3 0.181464 0.916191 0.078738
O O4 0.188199 0.754730 0.057968
O O5 0.144206 0.829177 0.666577
O O6 0.325263 0.899912 0.690039
O O7 0.289992 0.887319 0.597247
O O8 0.179939 0.000000 0.648037
O O9 0.500000 0.796798 0.832675
O O10 0.668260 0.821873 0.774947
O O11 0.000000 0.500000 0.577124
O O12 0.000000 0.586883 0.500000
O O13 0.000000 0.000000 0.050948
O O14 0.186041 0.000000 0.000000
O O15 0.818135 0.500000 0.262372
O O16 0.000000 0.409812 0.246466
O O17 0.000000 0.654375 0.062202
O O18 0.160407 0.626707 0.000000
#
# Coordination Sequence:
#
# PCOD9523006 Si02
#       7
#    16  16  16   8   8  16  16
#     4  11  21  34  52  79 112 149 192 235 282 338
#     4  10  21  37  58  83 111 148 191 239 293 344
#     4  10  21  36  55  83 113 151 192 234 282 338
#     4  11  20  30  48  74 107 147 193 237 277 329
#     4  11  22  35  53  77 111 156 197 235 286 345
#     4   9  18  33  57  86 115 143 183 234 287 343
#     4  10  21  37  57  81 111 145 186 238 294 348
#
# _framework density 18.847662
#
# number of rings (size 3 to 8) (size 9 to 14) (size 15 to 20)
#    0.000    1.833    1.667    3.000    1.167    3.000 
#    0.000    0.833    0.000    1.000    0.000    2.333 
#    0.000    0.000    0.000    0.000    0.000    0.000 
#
# Total GULP energy -267205.900262 kJ/mol
# GULP energy per Si atom -5566.789589 kJ/mol
# Density = 1.880476 g / cm^3
# Si number density = 18.847662 Si / 1000 Ang^3
#
#
#
# Elastic Constant Matrix: (Units=GPa)
#
#
# Indices 1 2 3 4 5 6 
#
# 1 45.5350 11.7264 11.3172 0.0000 0.0000 0.0000
# 2 11.7264 92.4513 40.0993 0.0000 0.0000 0.0000
# 3 11.3172 40.0993 98.7692 0.0000 0.0000 0.0000
# 4 0.0000 0.0000 0.0000 18.5592 0.0000 0.0000
# 5 0.0000 0.0000 0.0000 0.0000 22.3809 0.0000
# 6 0.0000 0.0000 0.0000 0.0000 0.0000 24.6967
#
#
#
# Elastic Compliance Matrix: (Units=1/GPa)
#
#
# Indices 1 2 3 4 5 6 
#
# 1 0.022951 -0.002149 -0.001757 0.000000 0.000000 0.000000
# 2 -0.002149 0.013329 -0.005165 0.000000 0.000000 0.000000
# 3 -0.001757 -0.005165 0.012423 0.000000 0.000000 0.000000
# 4 0.000000 0.000000 0.000000 0.053882 0.000000 0.000000
# 5 0.000000 0.000000 0.000000 0.000000 0.044681 0.000000
# 6 0.000000 0.000000 0.000000 0.000000 0.000000 0.040491
#
#
# Mechanical properties :
#
#
# Convention : Reuss Voigt Hill
#
# Bulk Modulus (GPa) = 32.72195 40.33792 36.52993
# Shear Modulus (GPa) = 23.13871 24.70151 23.92011
#
# Velocity S-wave (km/s) = 3.50761 3.62413 3.56635
# Velocity P-wave (km/s) = 5.81407 6.24187 6.03177
#
# Compressibility (1/GPa) = 0.03056053
#
# Stress axis : x y z
#
# Youngs Moduli (GPa) = 43.57051 75.02165 80.49533
#
# Poissons Ratio (x) = 0.16121 0.14146
# Poissons Ratio (y) = 0.09363 0.41579
# Poissons Ratio (z) = 0.07657 0.38752
#
# Static dielectric constant tensor:
#      x y z
#    x 1.626890 0.000000 0.000000 
#    y 0.000000 1.712760 0.000000 
#    z 0.000000 0.000000 1.668150 
# 
# From -- ./inp_files/69283.got.cif
#   From: 2010.05.17/outbox.cif.g08.bks.cpg/sg71_35_cif.got.tgz:69283.got - 2010.06.03 16:22:01.
