data_PCOD9523304
_publ_section_title
;
Structure prediction by ZEFSAII (Michael W. Deem and Ramdas Pophale) SiO2 
 PCOD9523304
Probable space group: I M M M
;
_chemical_formula_sum "Si O2"
_cell_formula_units_Z 72
_cell_length_a 18.138311
_cell_length_b 8.655024
_cell_length_c 24.266860
_cell_angle_alpha 90.000000
_cell_angle_beta 90.000000
_cell_angle_gamma 90.000000
_cell_volume 3809.594097
_symmetry_space_group_name_H-M "I M M M"
_symmetry_group_IT_number 71
_symmetry_cell_setting 'orthorhombic'
loop_
_space_group_symop_operation_xyz
x,y,z
-x,-y,z
x,-y,-z
-x,y,-z
-x,-y,-z
x,y,-z
-x,y,z
x,-y,z
1/2+x,1/2+y,1/2+z
1/2-x,1/2-y,1/2+z
1/2+x,1/2-y,1/2-z
1/2-x,1/2+y,1/2-z
1/2-x,1/2-y,1/2-z
1/2+x,1/2+y,1/2-z
1/2-x,1/2+y,1/2+z
1/2+x,1/2-y,1/2+z
loop_
_atom_site_type_symbol
_atom_site_label
_atom_site_fract_x
_atom_site_fract_y
_atom_site_fract_z
Si Si1 0.085489 0.314631 0.142843
Si Si2 0.000000 0.188535 0.437049
Si Si3 0.667262 0.684928 0.250284
Si Si4 0.146978 0.813816 0.624868
Si Si5 0.291056 0.685228 0.435941
O O1 0.089082 0.500000 0.141835
O O2 0.120320 0.256222 0.200253
O O3 0.136295 0.249571 0.093961
O O4 0.000000 0.266992 0.138213
O O5 0.925486 0.238896 0.407357
O O6 0.000000 0.238418 0.500000
O O7 0.000000 0.000000 0.435747
O O8 0.669116 0.500000 0.257161
O O9 0.750000 0.750000 0.250000
O O10 0.637533 0.721623 0.189354
O O11 0.220350 0.742654 0.598539
O O12 0.153723 0.000000 0.620100
O O13 0.285830 0.734576 0.500000
O O14 0.292876 0.500000 0.434306
#
# Coordination Sequence:
#
# PCOD9523304 Si02
#       5
#    16   8  16  16  16
#     4  11  25  43  63  90 123 162 208 256 310 367
#     4   9  18  34  57  87 121 157 200 247 292 347
#     4  11  22  37  62  91 122 158 201 249 301 362
#     4  10  21  37  61  90 120 160 204 248 300 360
#     4  11  24  41  63  90 120 158 203 253 313 376
#
# _framework density 18.899650999999999
#
# number of rings (size 3 to 8) (size 9 to 14) (size 15 to 20)
#    0.000    1.444    2.222    2.667    1.556    5.778 
#    0.000    2.778    0.000    2.000    0.000    0.000 
#    0.000    0.000    0.000    0.000    0.000    0.000 
#
# Total GULP energy -201209.037987 kJ/mol
# GULP energy per Si atom -5589.139944 kJ/mol
# Density = 1.885663 g / cm^3
# Si number density = 18.899651 Si / 1000 Ang^3
#
#
#
# Elastic Constant Matrix: (Units=GPa)
#
#
# Indices 1 2 3 4 5 6 
#
# 1 117.4551 20.1582 33.2071 0.0000 0.0000 0.0000
# 2 20.1582 30.5583 30.2238 0.0000 0.0000 0.0000
# 3 33.2071 30.2238 108.5315 0.0000 0.0000 0.0000
# 4 0.0000 0.0000 0.0000 28.9357 0.0000 0.0000
# 5 0.0000 0.0000 0.0000 0.0000 34.7962 0.0000
# 6 0.0000 0.0000 0.0000 0.0000 0.0000 18.6616
#
#
#
# Elastic Compliance Matrix: (Units=1/GPa)
#
#
# Indices 1 2 3 4 5 6 
#
# 1 0.009812 -0.004835 -0.001656 0.000000 0.000000 0.000000
# 2 -0.004835 0.047546 -0.011761 0.000000 0.000000 0.000000
# 3 -0.001656 -0.011761 0.012996 0.000000 0.000000 0.000000
# 4 0.000000 0.000000 0.000000 0.034559 0.000000 0.000000
# 5 0.000000 0.000000 0.000000 0.000000 0.028739 0.000000
# 6 0.000000 0.000000 0.000000 0.000000 0.000000 0.053586
#
#
# Mechanical properties :
#
#
# Convention : Reuss Voigt Hill
#
# Bulk Modulus (GPa) = 29.54210 47.08036 38.31123
# Shear Modulus (GPa) = 21.27431 28.00907 24.64169
#
# Velocity S-wave (km/s) = 3.35870 3.85384 3.61476
# Velocity P-wave (km/s) = 5.54131 6.69085 6.14303
#
# Compressibility (1/GPa) = 0.03385000
#
# Stress axis : x y z
#
# Youngs Moduli (GPa) = 101.91832 21.03213 76.94808
#
# Poissons Ratio (x) = 0.10169 0.12740
# Poissons Ratio (y) = 0.49277 0.90501
# Poissons Ratio (z) = 0.16874 0.24737
#
# Static dielectric constant tensor:
#      x y z
#    x 1.624310 0.000000 0.000000 
#    y 0.000000 1.642490 0.000000 
#    z 0.000000 0.000000 1.652300 
# 
# From -- ./inp_files/7978.got.cif
#   From: 2010.05.17/outbox.cif.g08.bks.cpg/sg71_4_cif.got.tgz:7978.got - 2010.06.03 16:22:01.
