data_PCOD9523895
_publ_section_title
;
Structure prediction by ZEFSAII (Michael W. Deem and Ramdas Pophale) SiO2 
 PCOD9523895
Probable space group: I M M M
;
_chemical_formula_sum "Si O2"
_cell_formula_units_Z 34
_cell_length_a 15.470244
_cell_length_b 16.364829
_cell_length_c 7.480703
_cell_angle_alpha 90.000000
_cell_angle_beta 90.000000
_cell_angle_gamma 90.000000
_cell_volume 1893.873851
_symmetry_space_group_name_H-M "I M M M"
_symmetry_group_IT_number 71
_symmetry_cell_setting 'orthorhombic'
loop_
_space_group_symop_operation_xyz
x,y,z
-x,-y,z
x,-y,-z
-x,y,-z
-x,-y,-z
x,y,-z
-x,y,z
x,-y,z
1/2+x,1/2+y,1/2+z
1/2-x,1/2-y,1/2+z
1/2+x,1/2-y,1/2-z
1/2-x,1/2+y,1/2-z
1/2-x,1/2-y,1/2-z
1/2+x,1/2+y,1/2-z
1/2-x,1/2+y,1/2+z
1/2+x,1/2-y,1/2+z
loop_
_atom_site_type_symbol
_atom_site_label
_atom_site_fract_x
_atom_site_fract_y
_atom_site_fract_z
Si Si1 0.652962 0.778229 0.291031
Si Si2 0.396519 0.092420 0.000000
Si Si3 0.000000 0.000000 0.500000
Si Si4 0.000000 0.850290 0.213965
O O1 0.644089 0.797141 0.500000
O O2 0.750000 0.750000 0.250000
O O3 0.633034 0.856508 0.171309
O O4 0.583955 0.706667 0.249780
O O5 0.500000 0.090240 0.000000
O O6 0.363038 0.000000 0.000000
O O7 0.000000 0.927929 0.342496
O O8 0.000000 0.870093 0.000000
#
# Coordination Sequence:
#
# PCOD9523895 Si02
#       4
#    16   8   2   8
#     4  11  22  41  67  90 124 168 211 250 308 372
#     4  11  23  41  64  95 128 160 206 263 313 363
#     4  12  22  40  68  86 130 162 206 256 324 354
#     4  10  23  41  61  94 124 162 214 255 304 373
#
# _framework density 17.952621000000001
#
# number of rings (size 3 to 8) (size 9 to 14) (size 15 to 20)
#    0.000    1.176    4.706    1.765    0.000    0.941 
#    4.235    2.353    0.000    0.000    0.000    0.000 
#    0.000    0.000    0.000    0.000    0.000    0.000 
#
# Total GULP energy -94710.812489 kJ/mol
# GULP energy per Si atom -5571.224264 kJ/mol
# Density = 1.791176 g / cm^3
# Si number density = 17.952621 Si / 1000 Ang^3
#
#
#
# Elastic Constant Matrix: (Units=GPa)
#
#
# Indices 1 2 3 4 5 6 
#
# 1 130.5774 74.4146 43.9962 0.0000 0.0000 0.0000
# 2 74.4146 210.3229 128.9113 0.0000 0.0000 0.0000
# 3 43.9962 128.9113 154.6708 0.0000 0.0000 0.0000
# 4 0.0000 0.0000 0.0000 22.4995 0.0000 0.0000
# 5 0.0000 0.0000 0.0000 0.0000 25.9310 0.0000
# 6 0.0000 0.0000 0.0000 0.0000 0.0000 14.1196
#
#
#
# Elastic Compliance Matrix: (Units=1/GPa)
#
#
# Indices 1 2 3 4 5 6 
#
# 1 0.009596 -0.003521 0.000205 0.000000 0.000000 0.000000
# 2 -0.003521 0.011012 -0.008176 0.000000 0.000000 0.000000
# 3 0.000205 -0.008176 0.013222 0.000000 0.000000 0.000000
# 4 0.000000 0.000000 0.000000 0.044445 0.000000 0.000000
# 5 0.000000 0.000000 0.000000 0.000000 0.038564 0.000000
# 6 0.000000 0.000000 0.000000 0.000000 0.000000 0.070823
#
#
# Mechanical properties :
#
#
# Convention : Reuss Voigt Hill
#
# Bulk Modulus (GPa) = 92.21046 110.02391 101.11719
# Shear Modulus (GPa) = 23.33606 29.05996 26.19801
#
# Velocity S-wave (km/s) = 3.60928 4.02768 3.82420
# Velocity P-wave (km/s) = 8.29723 9.11309 8.71471
#
# Compressibility (1/GPa) = 0.01084476
#
# Stress axis : x y z
#
# Youngs Moduli (GPa) = 104.21417 90.81333 75.63339
#
# Poissons Ratio (x) = 0.31971 -0.01548
# Poissons Ratio (y) = 0.36689 0.61840
# Poissons Ratio (z) = -0.02133 0.74251
#
# Static dielectric constant tensor:
#      x y z
#    x 1.624580 0.000000 0.000000 
#    y 0.000000 1.578530 0.000000 
#    z 0.000000 0.000000 1.624330 
# 
# From -- ./inp_files/2486.got.cif
#   From: 2010.05.17/outbox.cif.g08.bks.cpg/sg71_2_cif.got.tgz:2486.got - 2010.06.03 16:22:01.
