data_PCOD9523873
_publ_section_title
;
Structure prediction by ZEFSAII (Michael W. Deem and Ramdas Pophale) SiO2 
 PCOD9523873
Probable space group: I M M M
;
_chemical_formula_sum "Si O2"
_cell_formula_units_Z 88
_cell_length_a 12.307328
_cell_length_b 15.277782
_cell_length_c 23.522515
_cell_angle_alpha 90.000000
_cell_angle_beta 90.000000
_cell_angle_gamma 90.000000
_cell_volume 4422.907309
_symmetry_space_group_name_H-M "I M M M"
_symmetry_group_IT_number 71
_symmetry_cell_setting 'orthorhombic'
loop_
_space_group_symop_operation_xyz
x,y,z
-x,-y,z
x,-y,-z
-x,y,-z
-x,-y,-z
x,y,-z
-x,y,z
x,-y,z
1/2+x,1/2+y,1/2+z
1/2-x,1/2-y,1/2+z
1/2+x,1/2-y,1/2-z
1/2-x,1/2+y,1/2-z
1/2-x,1/2-y,1/2-z
1/2+x,1/2+y,1/2-z
1/2-x,1/2+y,1/2+z
1/2+x,1/2-y,1/2+z
loop_
_atom_site_type_symbol
_atom_site_label
_atom_site_fract_x
_atom_site_fract_y
_atom_site_fract_z
Si Si1 0.268750 0.846935 0.391141
Si Si2 0.879448 0.099320 0.711963
Si Si3 0.000000 0.097582 0.099174
Si Si4 0.227452 0.842646 0.065133
Si Si5 0.000000 0.781426 0.792552
Si Si6 0.500000 0.899653 0.647182
Si Si7 0.876370 0.103694 0.500000
Si Si8 0.123476 0.500000 0.569303
O O1 0.210843 0.878452 0.333725
O O2 0.275817 0.742490 0.396144
O O3 0.390884 0.884388 0.389754
O O4 0.193800 0.873566 0.444246
O O5 0.000000 0.097578 0.683262
O O6 0.897795 0.175906 0.758331
O O7 0.862929 0.000000 0.735138
O O8 0.109893 0.112235 0.064786
O O9 0.000000 0.170093 0.147620
O O10 0.000000 0.000000 0.123922
O O11 0.313151 0.913308 0.087016
O O12 0.255250 0.817643 0.000000
O O13 0.000000 0.677920 0.804944
O O14 0.500000 0.000000 0.668515
O O15 0.000000 0.142078 0.500000
O O16 0.887899 0.000000 0.500000
O O17 0.126214 0.500000 0.500000
O O18 0.000000 0.500000 0.588184
#
# Coordination Sequence:
#
# PCOD9523873 Si02
#       8
#    16  16   8  16   8   8   8   8
#     4  12  23  42  65  95 138 175 215 266 331 401
#     4   9  20  41  68  94 120 163 216 277 336 373
#     4  12  21  39  69  96 123 163 227 285 321 379
#     4  11  22  38  60  94 130 172 217 263 322 390
#     4  10  22  43  69  95 122 163 222 282 328 390
#     4  12  26  42  64  97 137 182 213 263 344 407
#     4  11  24  41  67 100 127 169 228 271 309 383
#     4   9  20  37  57  85 131 178 209 251 323 389
#
# _framework density 19.896415000000001
#
# number of rings (size 3 to 8) (size 9 to 14) (size 15 to 20)
#    0.545    0.727    3.636    3.000    0.000    4.364 
#    0.000    0.909    2.000    0.000    0.000    0.000 
#    0.000    0.000    0.000    0.000    0.000    0.000 
#
# Total GULP energy -245358.761343 kJ/mol
# GULP energy per Si atom -5576.335485 kJ/mol
# Density = 1.985113 g / cm^3
# Si number density = 19.896415 Si / 1000 Ang^3
#
#
#
# Elastic Constant Matrix: (Units=GPa)
#
#
# Indices 1 2 3 4 5 6 
#
# 1 149.0823 49.0435 35.3567 0.0000 0.0000 0.0000
# 2 49.0435 167.6602 29.5768 0.0000 0.0000 0.0000
# 3 35.3567 29.5768 67.0343 0.0000 0.0000 0.0000
# 4 0.0000 0.0000 0.0000 20.9200 0.0000 0.0000
# 5 0.0000 0.0000 0.0000 0.0000 17.1767 0.0000
# 6 0.0000 0.0000 0.0000 0.0000 0.0000 26.6004
#
#
#
# Elastic Compliance Matrix: (Units=1/GPa)
#
#
# Indices 1 2 3 4 5 6 
#
# 1 0.008117 -0.001756 -0.003507 0.000000 0.000000 0.000000
# 2 -0.001756 0.006848 -0.002095 0.000000 0.000000 0.000000
# 3 -0.003507 -0.002095 0.017692 0.000000 0.000000 0.000000
# 4 0.000000 0.000000 0.000000 0.047801 0.000000 0.000000
# 5 0.000000 0.000000 0.000000 0.000000 0.058218 0.000000
# 6 0.000000 0.000000 0.000000 0.000000 0.000000 0.037593
#
#
# Mechanical properties :
#
#
# Convention : Reuss Voigt Hill
#
# Bulk Modulus (GPa) = 55.73769 67.97008 61.85388
# Shear Modulus (GPa) = 25.38524 30.92606 28.15565
#
# Velocity S-wave (km/s) = 3.57581 3.94681 3.76588
# Velocity P-wave (km/s) = 6.71739 7.41659 7.07563
#
# Compressibility (1/GPa) = 0.01794118
#
# Stress axis : x y z
#
# Youngs Moduli (GPa) = 123.19960 146.03539 56.52374
#
# Poissons Ratio (x) = 0.25640 0.19820
# Poissons Ratio (y) = 0.21631 0.11843
# Poissons Ratio (z) = 0.43200 0.30598
#
# Static dielectric constant tensor:
#      x y z
#    x 1.716260 0.000000 0.000000 
#    y 0.000000 1.729010 0.000000 
#    z 0.000000 0.000000 1.692120 
# 
# From -- ./inp_files/64503.got.cif
#   From: 2010.05.17/outbox.cif.g08.bks.cpg/sg71_33_cif.got.tgz:64503.got - 2010.06.03 16:22:01.
