data_PCOD9523008
_publ_section_title
;
Structure prediction by ZEFSAII (Michael W. Deem and Ramdas Pophale) SiO2 
 PCOD9523008
Probable space group: I M M M
;
_chemical_formula_sum "Si O2"
_cell_formula_units_Z 88
_cell_length_a 11.341797
_cell_length_b 13.503200
_cell_length_c 29.100615
_cell_angle_alpha 90.000000
_cell_angle_beta 90.000000
_cell_angle_gamma 90.000000
_cell_volume 4456.775287
_symmetry_space_group_name_H-M "I M M M"
_symmetry_group_IT_number 71
_symmetry_cell_setting 'orthorhombic'
loop_
_space_group_symop_operation_xyz
x,y,z
-x,-y,z
x,-y,-z
-x,y,-z
-x,-y,-z
x,y,-z
-x,y,z
x,-y,z
1/2+x,1/2+y,1/2+z
1/2-x,1/2-y,1/2+z
1/2+x,1/2-y,1/2-z
1/2-x,1/2+y,1/2-z
1/2-x,1/2-y,1/2-z
1/2+x,1/2+y,1/2-z
1/2-x,1/2+y,1/2+z
1/2+x,1/2-y,1/2+z
loop_
_atom_site_type_symbol
_atom_site_label
_atom_site_fract_x
_atom_site_fract_y
_atom_site_fract_z
Si Si1 0.872186 0.330900 0.707141
Si Si2 0.766639 0.614133 0.110712
Si Si3 0.629343 0.618643 0.446451
Si Si4 0.133970 0.306752 0.399081
Si Si5 0.000000 0.620100 0.053730
Si Si6 0.705963 0.610033 0.212639
O O1 0.855695 0.346944 0.653034
O O2 0.778595 0.379914 0.740500
O O3 0.868466 0.211021 0.712317
O O4 0.000000 0.367833 0.720921
O O5 0.740491 0.500000 0.099028
O O6 0.659092 0.688656 0.101682
O O7 0.880926 0.646784 0.081506
O O8 0.785068 0.618195 0.166055
O O9 0.631610 0.645923 0.500000
O O10 0.500000 0.652744 0.427767
O O11 0.627262 0.500000 0.443297
O O12 0.752802 0.651735 0.425227
O O13 0.000000 0.327312 0.415297
O O14 0.000000 0.500000 0.053745
O O15 0.000000 0.650173 0.000000
O O16 0.650347 0.500000 0.210353
#
# Coordination Sequence:
#
# PCOD9523008 Si02
#       6
#    16  16  16  16   8  16
#     4   9  19  34  50  74 109 144 179 228 284 330
#     4   9  19  34  53  79 110 148 191 231 273 329
#     4   9  20  40  63  84 107 141 187 235 282 334
#     4  10  21  36  55  83 116 148 184 228 283 342
#     4   9  18  32  50  76 109 141 179 229 279 323
#     4   9  18  33  52  74 100 138 188 230 269 328
#
# _framework density 19.745218000000001
#
# number of rings (size 3 to 8) (size 9 to 14) (size 15 to 20)
#    0.000    2.818    0.000    0.545    2.545    3.273 
#    0.000    7.273    0.000    0.000    0.000    3.818 
#    0.000    0.000    0.000    0.000    0.000    0.000 
#
# Total GULP energy -244964.218572 kJ/mol
# GULP energy per Si atom -5567.368604 kJ/mol
# Density = 1.970028 g / cm^3
# Si number density = 19.745218 Si / 1000 Ang^3
#
#
#
# Elastic Constant Matrix: (Units=GPa)
#
#
# Indices 1 2 3 4 5 6 
#
# 1 144.4279 23.3484 59.8692 0.0000 0.0000 0.0000
# 2 23.3484 58.7304 18.9382 0.0000 0.0000 0.0000
# 3 59.8692 18.9382 56.7040 0.0000 0.0000 0.0000
# 4 0.0000 0.0000 0.0000 23.7525 0.0000 0.0000
# 5 0.0000 0.0000 0.0000 0.0000 15.9590 0.0000
# 6 0.0000 0.0000 0.0000 0.0000 0.0000 14.6249
#
#
#
# Elastic Compliance Matrix: (Units=1/GPa)
#
#
# Indices 1 2 3 4 5 6 
#
# 1 0.012345 -0.000790 -0.012771 0.000000 0.000000 0.000000
# 2 -0.000790 0.019133 -0.005556 0.000000 0.000000 0.000000
# 3 -0.012771 -0.005556 0.032974 0.000000 0.000000 0.000000
# 4 0.000000 0.000000 0.000000 0.042101 0.000000 0.000000
# 5 0.000000 0.000000 0.000000 0.000000 0.062660 0.000000
# 6 0.000000 0.000000 0.000000 0.000000 0.000000 0.068377
#
#
# Mechanical properties :
#
#
# Convention : Reuss Voigt Hill
#
# Bulk Modulus (GPa) = 38.13969 51.57490 44.85729
# Shear Modulus (GPa) = 17.57079 21.38104 19.47592
#
# Velocity S-wave (km/s) = 2.98631 3.29423 3.14405
# Velocity P-wave (km/s) = 5.59005 6.37544 5.99562
#
# Compressibility (1/GPa) = 0.02621941
#
# Stress axis : x y z
#
# Youngs Moduli (GPa) = 81.00234 52.26691 30.32647
#
# Poissons Ratio (x) = 0.04129 0.38729
# Poissons Ratio (y) = 0.06398 0.16849
# Poissons Ratio (z) = 1.03445 0.29039
#
# Static dielectric constant tensor:
#      x y z
#    x 1.629040 0.000000 0.000000 
#    y 0.000000 1.753160 0.000000 
#    z 0.000000 0.000000 1.680210 
# 
# From -- ./inp_files/69218.got.cif
#   From: 2010.05.17/outbox.cif.g08.bks.cpg/sg71_35_cif.got.tgz:69218.got - 2010.06.03 16:22:01.
