data_PCOD9523046
_publ_section_title
;
Structure prediction by ZEFSAII (Michael W. Deem and Ramdas Pophale) SiO2 
 PCOD9523046
Probable space group: I M M M
;
_chemical_formula_sum "Si O2"
_cell_formula_units_Z 72
_cell_length_a 8.815267
_cell_length_b 29.551821
_cell_length_c 14.047747
_cell_angle_alpha 90.000000
_cell_angle_beta 90.000000
_cell_angle_gamma 90.000000
_cell_volume 3659.539131
_symmetry_space_group_name_H-M "I M M M"
_symmetry_group_IT_number 71
_symmetry_cell_setting 'orthorhombic'
loop_
_space_group_symop_operation_xyz
x,y,z
-x,-y,z
x,-y,-z
-x,y,-z
-x,-y,-z
x,y,-z
-x,y,z
x,-y,z
1/2+x,1/2+y,1/2+z
1/2-x,1/2-y,1/2+z
1/2+x,1/2-y,1/2-z
1/2-x,1/2+y,1/2-z
1/2-x,1/2-y,1/2-z
1/2+x,1/2+y,1/2-z
1/2-x,1/2+y,1/2+z
1/2+x,1/2-y,1/2+z
loop_
_atom_site_type_symbol
_atom_site_label
_atom_site_fract_x
_atom_site_fract_y
_atom_site_fract_z
Si Si1 0.819404 0.817035 0.300286
Si Si2 0.815628 0.552586 0.604957
Si Si3 0.827280 0.000000 0.613220
Si Si4 0.317287 0.779053 0.108591
Si Si5 0.181673 0.410180 0.802871
O O1 0.755760 0.807477 0.194149
O O2 0.782073 0.773215 0.364566
O O3 0.749082 0.863280 0.339030
O O4 0.000000 0.820863 0.296429
O O5 0.763646 0.566726 0.500000
O O6 0.771437 0.500000 0.620555
O O7 0.768452 0.583089 0.692686
O O8 0.000000 0.552900 0.603997
O O9 0.741859 0.954898 0.646015
O O10 0.833068 0.000000 0.500000
O O11 0.000000 0.000000 0.650832
O O12 0.500000 0.784760 0.113681
O O13 0.270317 0.789464 0.000000
O O14 0.000000 0.408975 0.807254
#
# Coordination Sequence:
#
# PCOD9523046 Si02
#       5
#    16  16   8  16  16
#     4  10  21  36  56  86 119 150 186 234 291 348
#     4   8  14  27  49  76 104 137 178 221 267 321
#     4  11  25  43  60  79 110 154 199 245 296 338
#     4   9  19  38  61  82 109 149 194 237 285 345
#     4  11  21  36  59  86 115 150 193 239 283 337
#
# _framework density 19.674609
#
# number of rings (size 3 to 8) (size 9 to 14) (size 15 to 20)
#    0.000    2.333    1.111    2.333    0.000    4.000 
#    0.000    4.444    0.000    2.667    0.000    0.000 
#    0.000    0.000    0.000    0.000    0.000    0.000 
#
# Total GULP energy -200913.743799 kJ/mol
# GULP energy per Si atom -5580.937328 kJ/mol
# Density = 1.962983 g / cm^3
# Si number density = 19.674609 Si / 1000 Ang^3
#
#
#
# Elastic Constant Matrix: (Units=GPa)
#
#
# Indices 1 2 3 4 5 6 
#
# 1 34.0363 34.6313 13.3834 0.0000 0.0000 0.0000
# 2 34.6313 105.6138 1.9107 0.0000 0.0000 0.0000
# 3 13.3834 1.9107 44.1299 0.0000 0.0001 0.0001
# 4 0.0000 0.0000 0.0000 4.8548 0.0000 0.0000
# 5 0.0000 0.0000 0.0001 0.0000 24.2323 0.0000
# 6 0.0000 0.0000 0.0001 0.0000 0.0000 28.5131
#
#
#
# Elastic Compliance Matrix: (Units=1/GPa)
#
#
# Indices 1 2 3 4 5 6 
#
# 1 0.052659 -0.016992 -0.015234 0.000000 0.000000 0.000000
# 2 -0.016992 0.014959 0.004505 0.000000 0.000000 0.000000
# 3 -0.015234 0.004505 0.027085 0.000000 0.000000 0.000000
# 4 0.000000 0.000000 0.000000 0.205982 0.000000 0.000000
# 5 0.000000 0.000000 0.000000 0.000000 0.041267 0.000000
# 6 0.000000 0.000000 0.000000 0.000000 0.000000 0.035072
#
#
# Mechanical properties :
#
#
# Convention : Reuss Voigt Hill
#
# Bulk Modulus (GPa) = 25.46986 31.51454 28.49220
# Shear Modulus (GPa) = 11.22201 20.44369 15.83285
#
# Velocity S-wave (km/s) = 2.39085 3.22699 2.83986
# Velocity P-wave (km/s) = 4.53820 5.47149 5.02655
#
# Compressibility (1/GPa) = 0.03926210
#
# Stress axis : x y z
#
# Youngs Moduli (GPa) = 18.98996 66.85116 36.92014
#
# Poissons Ratio (x) = 1.13591 0.56246
# Poissons Ratio (y) = 0.32267 -0.16634
# Poissons Ratio (z) = 0.28930 -0.30120
#
# Static dielectric constant tensor:
#      x y z
#    x 1.665820 0.000000 0.000000 
#    y 0.000000 1.698950 0.000000 
#    z 0.000000 0.000000 1.699670 
# 
# From -- ./inp_files/14297.got.cif
#   From: 2010.05.17/outbox.cif.g08.bks.cpg/sg71_8_cif.got.tgz:14297.got - 2010.06.03 16:22:01.
