data_PCOD9523115
_publ_section_title
;
Structure prediction by ZEFSAII (Michael W. Deem and Ramdas Pophale) SiO2 
 PCOD9523115
Probable space group: I M M M
;
_chemical_formula_sum "Si O2"
_cell_formula_units_Z 56
_cell_length_a 29.169809
_cell_length_b 7.305816
_cell_length_c 11.720340
_cell_angle_alpha 90.000000
_cell_angle_beta 90.000000
_cell_angle_gamma 90.000000
_cell_volume 2497.712953
_symmetry_space_group_name_H-M "I M M M"
_symmetry_group_IT_number 71
_symmetry_cell_setting 'orthorhombic'
loop_
_space_group_symop_operation_xyz
x,y,z
-x,-y,z
x,-y,-z
-x,y,-z
-x,-y,-z
x,y,-z
-x,y,z
x,-y,z
1/2+x,1/2+y,1/2+z
1/2-x,1/2-y,1/2+z
1/2+x,1/2-y,1/2-z
1/2-x,1/2+y,1/2-z
1/2-x,1/2-y,1/2-z
1/2+x,1/2+y,1/2-z
1/2-x,1/2+y,1/2+z
1/2+x,1/2-y,1/2+z
loop_
_atom_site_type_symbol
_atom_site_label
_atom_site_fract_x
_atom_site_fract_y
_atom_site_fract_z
Si Si1 0.878858 0.722491 0.695371
Si Si2 0.722482 0.218832 0.869617
Si Si3 0.549893 0.777409 0.631585
Si Si4 0.051536 0.277589 0.500000
O O1 0.875497 0.500000 0.695632
O O2 0.829102 0.787009 0.657019
O O3 0.902453 0.781975 0.812550
O O4 0.918208 0.775401 0.607118
O O5 0.750000 0.250000 0.750000
O O6 0.721285 0.000000 0.879439
O O7 0.736663 0.282697 0.000000
O O8 0.549528 0.726164 0.500000
O O9 0.500000 0.720721 0.681949
O O10 0.549753 0.000000 0.638794
O O11 0.049495 0.500000 0.500000
O O12 0.000000 0.210499 0.500000
#
# Coordination Sequence:
#
# PCOD9523115 Si02
#       4
#    16  16  16   8
#     4   9  15  25  40  60  90 126 162 201 248 303
#     4  10  21  37  55  76 105 139 180 229 275 321
#     4   8  13  20  31  52  85 122 156 190 233 293
#     4   9  14  20  36  62  91 125 159 189 238 311
#
# _framework density 22.42051
#
# number of rings (size 3 to 8) (size 9 to 14) (size 15 to 20)
#    0.000    3.000    1.429    1.714    0.000    5.143 
#    0.000    2.857    0.000    0.000    0.000    0.000 
#    0.000    5.714    0.000   15.714    0.000   12.000 
#
# Total GULP energy -155889.936191 kJ/mol
# GULP energy per Si atom -5567.497721 kJ/mol
# Density = 2.236948 g / cm^3
# Si number density = 22.420510 Si / 1000 Ang^3
#
#
#
# Elastic Constant Matrix: (Units=GPa)
#
#
# Indices 1 2 3 4 5 6 
#
# 1 155.3574 3.9202 91.1208 0.0000 0.0000 0.0000
# 2 3.9202 92.3589 4.6724 0.0000 0.0000 0.0000
# 3 91.1208 4.6724 153.9247 0.0000 0.0000 0.0000
# 4 0.0000 0.0000 0.0000 -6.3657 0.0000 0.0000
# 5 0.0000 0.0000 0.0000 0.0000 9.8087 0.0000
# 6 0.0000 0.0000 0.0000 0.0000 0.0000 -12.5044
#
#
#
# Elastic Compliance Matrix: (Units=1/GPa)
#
#
# Indices 1 2 3 4 5 6 
#
# 1 0.009862 -0.000123 -0.005834 0.000000 0.000000 0.000000
# 2 -0.000123 0.010846 -0.000256 0.000000 0.000000 0.000000
# 3 -0.005834 -0.000256 0.009958 0.000000 0.000000 0.000000
# 4 0.000000 0.000000 0.000000 -0.157091 0.000000 0.000000
# 5 0.000000 0.000000 0.000000 0.000000 0.101950 0.000000
# 6 0.000000 0.000000 0.000000 0.000000 0.000000 -0.079972
#
#
# Mechanical properties :
#
#
# Convention : Reuss Voigt Hill
#
# Bulk Modulus (GPa) = 54.83096 66.78533 60.80814
# Shear Modulus (GPa) = -58.17978 18.31623 -19.93178
#
# Velocity S-wave (km/s) = -5.09958 2.86132 -2.98484
# Velocity P-wave (km/s) = 3.18833 6.38502 3.91171
#
# Compressibility (1/GPa) = 0.01823787
#
# Stress axis : x y z
#
# Youngs Moduli (GPa) = 101.40095 92.20393 100.41915
#
# Poissons Ratio (x) = 0.01138 0.58587
# Poissons Ratio (y) = 0.01252 0.02572
# Poissons Ratio (z) = 0.59160 0.02362
#
# Static dielectric constant tensor:
#      x y z
#    x 1.802440 0.000000 0.000000 
#    y 0.000000 1.937580 0.000000 
#    z 0.000000 0.000000 2.255160 
# 
# From -- ./inp_files/3296.got.cif
#   From: 2010.05.17/outbox.cif.g08.bks.cpg/sg71_2_cif.got.tgz:3296.got - 2010.06.03 16:22:01.
