data_PCOD9523518
_publ_section_title
;
Structure prediction by ZEFSAII (Michael W. Deem and Ramdas Pophale) SiO2 
 PCOD9523518
Probable space group: I M M M
;
_chemical_formula_sum "Si O2"
_cell_formula_units_Z 66
_cell_length_a 27.068926
_cell_length_b 16.742163
_cell_length_c 7.636137
_cell_angle_alpha 90.000000
_cell_angle_beta 90.000000
_cell_angle_gamma 90.000000
_cell_volume 3460.639035
_symmetry_space_group_name_H-M "I M M M"
_symmetry_group_IT_number 71
_symmetry_cell_setting 'orthorhombic'
loop_
_space_group_symop_operation_xyz
x,y,z
-x,-y,z
x,-y,-z
-x,y,-z
-x,-y,-z
x,y,-z
-x,y,z
x,-y,z
1/2+x,1/2+y,1/2+z
1/2-x,1/2-y,1/2+z
1/2+x,1/2-y,1/2-z
1/2-x,1/2+y,1/2-z
1/2-x,1/2-y,1/2-z
1/2+x,1/2+y,1/2-z
1/2-x,1/2+y,1/2+z
1/2+x,1/2-y,1/2+z
loop_
_atom_site_type_symbol
_atom_site_label
_atom_site_fract_x
_atom_site_fract_y
_atom_site_fract_z
Si Si1 0.681938 0.407810 0.500000
Si Si2 0.000000 0.000000 0.000000
Si Si3 0.141362 0.408422 0.287934
Si Si4 0.748938 0.843081 0.699308
Si Si5 0.444052 0.215533 0.793554
Si Si6 0.427060 0.345661 0.500000
O O1 0.668877 0.500000 0.500000
O O2 0.715259 0.387757 0.667620
O O3 0.631607 0.358751 0.500000
O O4 0.957062 0.071633 0.000000
O O5 0.144417 0.407836 0.500000
O O6 0.133536 0.500000 0.232243
O O7 0.193401 0.375840 0.218786
O O8 0.096674 0.349622 0.239579
O O9 0.765461 0.852497 0.500000
O O10 0.750000 0.750000 0.750000
O O11 0.500000 0.183770 0.776263
O O12 0.439753 0.292682 0.670643
O O13 0.436350 0.234876 0.000000
#
# Coordination Sequence:
#
# PCOD9523518 Si02
#       6
#     8   2  16  16  16   8
#     4  12  26  42  66  97 131 167 213 270 325 391
#     4  12  24  48  74 100 126 166 220 276 352 388
#     4  10  21  39  64  96 136 178 218 266 323 385
#     4  12  24  42  65  93 129 176 221 268 324 389
#     4  10  22  41  67  96 129 171 218 266 319 391
#     4  12  24  46  71  95 126 169 214 274 341 393
#
# _framework density 19.071622999999999
#
# number of rings (size 3 to 8) (size 9 to 14) (size 15 to 20)
#    0.000    0.970    4.242    2.182    1.697    5.333 
#    0.000    3.636    0.000    1.455    0.000    0.000 
#    0.000    0.000    0.000    0.000    0.000    0.000 
#
# Total GULP energy -184231.101486 kJ/mol
# GULP energy per Si atom -5582.760651 kJ/mol
# Density = 1.902822 g / cm^3
# Si number density = 19.071623 Si / 1000 Ang^3
#
#
#
# Elastic Constant Matrix: (Units=GPa)
#
#
# Indices 1 2 3 4 5 6 
#
# 1 151.6306 52.4029 51.8404 0.0000 0.0000 0.0000
# 2 52.4029 131.9893 39.9289 0.0000 0.0000 0.0000
# 3 51.8404 39.9289 109.5745 0.0000 0.0000 0.0000
# 4 0.0000 0.0000 0.0000 19.6989 0.0000 0.0000
# 5 0.0000 0.0000 0.0000 0.0000 -121.1443 0.0000
# 6 0.0000 0.0000 0.0000 0.0000 0.0000 43.4522
#
#
#
# Elastic Compliance Matrix: (Units=1/GPa)
#
#
# Indices 1 2 3 4 5 6 
#
# 1 0.008508 -0.002428 -0.003140 0.000000 0.000000 0.000000
# 2 -0.002428 0.009208 -0.002207 0.000000 0.000000 0.000000
# 3 -0.003140 -0.002207 0.011416 0.000000 0.000000 0.000000
# 4 0.000000 0.000000 0.000000 0.050764 0.000000 0.000000
# 5 0.000000 0.000000 0.000000 0.000000 -0.008255 0.000000
# 6 0.000000 0.000000 0.000000 0.000000 0.000000 0.023014
#
#
# Mechanical properties :
#
#
# Convention : Reuss Voigt Hill
#
# Bulk Modulus (GPa) = 73.62761 75.72652 74.67707
# Shear Modulus (GPa) = 43.57990 5.00286 24.29138
#
# Velocity S-wave (km/s) = 4.78542 1.62138 3.57275
# Velocity P-wave (km/s) = 8.32006 6.58010 7.50070
#
# Compressibility (1/GPa) = 0.01358186
#
# Stress axis : x y z
#
# Youngs Moduli (GPa) = 117.54155 108.60343 87.59579
#
# Poissons Ratio (x) = 0.26366 0.27508
# Poissons Ratio (y) = 0.28536 0.19330
# Poissons Ratio (z) = 0.36912 0.23966
#
# Static dielectric constant tensor:
#      x y z
#    x 1.664850 0.000000 0.000000 
#    y 0.000000 1.654620 0.000000 
#    z 0.000000 0.000000 1.680200 
# 
# From -- ./inp_files/14218.got.cif
#   From: 2010.05.17/outbox.cif.g08.bks.cpg/sg71_8_cif.got.tgz:14218.got - 2010.06.03 16:22:01.
