data_PCOD9523772
_publ_section_title
;
Structure prediction by ZEFSAII (Michael W. Deem and Ramdas Pophale) SiO2 
 PCOD9523772
Probable space group: I M M M
;
_chemical_formula_sum "Si O2"
_cell_formula_units_Z 80
_cell_length_a 16.093261
_cell_length_b 14.142310
_cell_length_c 15.212207
_cell_angle_alpha 90.000000
_cell_angle_beta 90.000000
_cell_angle_gamma 90.000000
_cell_volume 3462.235730
_symmetry_space_group_name_H-M "I M M M"
_symmetry_group_IT_number 71
_symmetry_cell_setting 'orthorhombic'
loop_
_space_group_symop_operation_xyz
x,y,z
-x,-y,z
x,-y,-z
-x,y,-z
-x,-y,-z
x,y,-z
-x,y,z
x,-y,z
1/2+x,1/2+y,1/2+z
1/2-x,1/2-y,1/2+z
1/2+x,1/2-y,1/2-z
1/2-x,1/2+y,1/2-z
1/2-x,1/2-y,1/2-z
1/2+x,1/2+y,1/2-z
1/2-x,1/2+y,1/2+z
1/2+x,1/2-y,1/2+z
loop_
_atom_site_type_symbol
_atom_site_label
_atom_site_fract_x
_atom_site_fract_y
_atom_site_fract_z
Si Si1 0.346166 0.610575 0.402369
Si Si2 0.400952 0.106195 0.216734
Si Si3 0.907653 0.888446 0.711555
Si Si4 0.597357 0.115086 0.594214
Si Si5 0.312549 0.753697 0.100356
O O1 0.384429 0.622505 0.500000
O O2 0.317369 0.500000 0.398675
O O3 0.402075 0.624174 0.316759
O O4 0.272413 0.686543 0.394220
O O5 0.500000 0.101444 0.225887
O O6 0.368644 0.145143 0.311034
O O7 0.378077 0.169619 0.135479
O O8 0.368667 0.000000 0.205439
O O9 0.833083 0.834052 0.663606
O O10 0.000000 0.855946 0.682572
O O11 0.900984 0.000000 0.693777
O O12 0.635479 0.143932 0.500000
O O13 0.500000 0.142130 0.591243
O O14 0.599429 0.000000 0.596477
O O15 0.326011 0.725516 0.000000
#
# Coordination Sequence:
#
# PCOD9523772 Si02
#       5
#    16  16  16  16  16
#     4   9  19  38  65  94 121 151 190 242 308 374
#     4   9  17  28  44  71 108 149 192 236 285 347
#     4  10  22  40  62  88 118 156 204 254 300 348
#     4   7  10  19  36  57  85 126 174 220 266 319
#     4  11  22  36  56  83 118 157 196 241 294 353
#
# _framework density 23.106456999999999
#
# number of rings (size 3 to 8) (size 9 to 14) (size 15 to 20)
#    0.000    2.800    0.000    3.600    0.000    3.600 
#    0.000    5.000    0.000    3.600    0.000    2.800 
#    0.000    0.000    0.000    6.400    0.000    0.200 
#
# Total GULP energy -223252.371325 kJ/mol
# GULP energy per Si atom -5581.309283 kJ/mol
# Density = 2.305387 g / cm^3
# Si number density = 23.106457 Si / 1000 Ang^3
#
#
#
# Elastic Constant Matrix: (Units=GPa)
#
#
# Indices 1 2 3 4 5 6 
#
# 1 53.1738 30.0591 36.7261 0.0000 0.0000 0.0000
# 2 30.0591 102.4845 29.1159 0.0000 0.0000 0.0000
# 3 36.7261 29.1159 105.6280 0.0000 0.0000 0.0000
# 4 0.0000 0.0000 0.0000 27.6382 0.0000 0.0000
# 5 0.0000 0.0000 0.0000 0.0000 16.7861 0.0000
# 6 0.0000 0.0000 0.0000 0.0000 0.0000 26.2576
#
#
#
# Elastic Compliance Matrix: (Units=1/GPa)
#
#
# Indices 1 2 3 4 5 6 
#
# 1 0.027627 -0.005831 -0.007998 0.000000 0.000000 0.000000
# 2 -0.005831 0.011817 -0.001230 0.000000 0.000000 0.000000
# 3 -0.007998 -0.001230 0.012587 0.000000 0.000000 0.000000
# 4 0.000000 0.000000 0.000000 0.036182 0.000000 0.000000
# 5 0.000000 0.000000 0.000000 0.000000 0.059573 0.000000
# 6 0.000000 0.000000 0.000000 0.000000 0.000000 0.038084
#
#
# Mechanical properties :
#
#
# Convention : Reuss Voigt Hill
#
# Bulk Modulus (GPa) = 45.63536 50.34316 47.98926
# Shear Modulus (GPa) = 22.39212 25.16205 23.77709
#
# Velocity S-wave (km/s) = 3.11639 3.30352 3.21132
# Velocity P-wave (km/s) = 5.72207 6.03206 5.87911
#
# Compressibility (1/GPa) = 0.02191283
#
# Stress axis : x y z
#
# Youngs Moduli (GPa) = 36.19692 84.62248 79.44557
#
# Poissons Ratio (x) = 0.49340 0.63544
# Poissons Ratio (y) = 0.21105 0.09772
# Poissons Ratio (z) = 0.28952 0.10409
#
# Static dielectric constant tensor:
#      x y z
#    x 1.884630 0.000000 0.000000 
#    y 0.000000 1.906810 0.000000 
#    z 0.000000 0.000000 1.876350 
# 
# From -- ./inp_files/36257.got.cif
#   From: 2010.05.17/outbox.cif.g08.bks.cpg/sg71_19_cif.got.tgz:36257.got - 2010.06.03 16:22:01.
