data_PCOD9523334
_publ_section_title
;
Structure prediction by ZEFSAII (Michael W. Deem and Ramdas Pophale) SiO2 
 PCOD9523334
Probable space group: I M M M
;
_chemical_formula_sum "Si O2"
_cell_formula_units_Z 80
_cell_length_a 22.384281
_cell_length_b 12.759897
_cell_length_c 11.552507
_cell_angle_alpha 90.000000
_cell_angle_beta 90.000000
_cell_angle_gamma 90.000000
_cell_volume 3299.639988
_symmetry_space_group_name_H-M "I M M M"
_symmetry_group_IT_number 71
_symmetry_cell_setting 'orthorhombic'
loop_
_space_group_symop_operation_xyz
x,y,z
-x,-y,z
x,-y,-z
-x,y,-z
-x,-y,-z
x,y,-z
-x,y,z
x,-y,z
1/2+x,1/2+y,1/2+z
1/2-x,1/2-y,1/2+z
1/2+x,1/2-y,1/2-z
1/2-x,1/2+y,1/2-z
1/2-x,1/2-y,1/2-z
1/2+x,1/2+y,1/2-z
1/2-x,1/2+y,1/2+z
1/2+x,1/2-y,1/2+z
loop_
_atom_site_type_symbol
_atom_site_label
_atom_site_fract_x
_atom_site_fract_y
_atom_site_fract_z
Si Si1 0.927859 0.124597 0.000000
Si Si2 0.929839 0.118231 0.361154
Si Si3 0.252387 0.390651 0.626029
Si Si4 0.428832 0.000000 0.633833
Si Si5 0.261618 0.665622 0.126922
Si Si6 0.623873 0.778946 0.304773
O O1 0.903073 0.192959 0.106304
O O2 0.000000 0.129123 0.000000
O O3 0.912170 0.000000 0.000000
O O4 0.925092 0.118452 0.500000
O O5 0.893084 0.214696 0.310719
O O6 0.000000 0.129818 0.330474
O O7 0.911739 0.000000 0.321941
O O8 0.284875 0.390667 0.500000
O O9 0.217912 0.500000 0.628320
O O10 0.282623 0.386482 0.753233
O O11 0.215614 0.284919 0.622749
O O12 0.407877 0.108153 0.691481
O O13 0.500000 0.000000 0.630207
O O14 0.406163 0.000000 0.500000
O O15 0.190510 0.689106 0.147741
O O16 0.271007 0.617777 0.000000
#
# Coordination Sequence:
#
# PCOD9523334 Si02
#       6
#     8  16  16   8  16  16
#     4  11  22  35  55  85 119 154 191 241 301 355
#     4   9  19  37  59  82 113 155 199 247 300 351
#     4   9  20  39  62  83 113 152 190 244 306 366
#     4  11  22  36  53  77 121 169 200 235 291 345
#     4  10  21  38  58  88 118 151 194 243 301 363
#     4  12  22  36  57  86 117 156 198 248 291 361
#
# _framework density 24.245068
#
# number of rings (size 3 to 8) (size 9 to 14) (size 15 to 20)
#    0.000    1.800    2.000    3.000    1.400    4.400 
#    0.000    0.500    0.000    1.800    0.000    0.000 
#    0.000    0.000    0.000    0.000    0.000    0.000 
#
# Total GULP energy -222831.476582 kJ/mol
# GULP energy per Si atom -5570.786915 kJ/mol
# Density = 2.418989 g / cm^3
# Si number density = 24.245068 Si / 1000 Ang^3
#
#
#
# Elastic Constant Matrix: (Units=GPa)
#
#
# Indices 1 2 3 4 5 6 
#
# 1 122.0442 57.6604 13.1381 0.0000 0.0000 0.0000
# 2 57.6604 226.5303 48.8808 0.0000 0.0000 0.0000
# 3 13.1381 48.8808 181.3803 0.0000 0.0000 0.0000
# 4 0.0000 0.0000 0.0000 -193.0182 0.0000 0.0000
# 5 0.0000 0.0000 0.0000 0.0000 9.2573 0.0000
# 6 0.0000 0.0000 0.0000 0.0000 0.0000 -3.3108
#
#
#
# Elastic Compliance Matrix: (Units=1/GPa)
#
#
# Indices 1 2 3 4 5 6 
#
# 1 0.009314 -0.002363 -0.000038 0.000000 0.000000 0.000000
# 2 -0.002363 0.005286 -0.001253 0.000000 0.000000 0.000000
# 3 -0.000038 -0.001253 0.005854 0.000000 0.000000 0.000000
# 4 0.000000 0.000000 0.000000 -0.005181 0.000000 0.000000
# 5 0.000000 0.000000 0.000000 0.000000 0.108023 0.000000
# 6 0.000000 0.000000 0.000000 0.000000 0.000000 -0.302038
#
#
# Mechanical properties :
#
#
# Convention : Reuss Voigt Hill
#
# Bulk Modulus (GPa) = 76.06815 85.47927 80.77371
# Shear Modulus (GPa) = -29.93085 -10.06265 -19.99675
#
# Velocity S-wave (km/s) = -3.51738 -2.03946 -2.87501
# Velocity P-wave (km/s) = 3.86612 5.45775 4.72937
#
# Compressibility (1/GPa) = 0.01314611
#
# Stress axis : x y z
#
# Youngs Moduli (GPa) = 107.36467 189.16953 170.82824
#
# Poissons Ratio (x) = 0.44693 0.00648
# Poissons Ratio (y) = 0.25366 0.21413
# Poissons Ratio (z) = 0.00408 0.23712
#
# Static dielectric constant tensor:
#      x y z
#    x 2.019100 0.000000 0.000000 
#    y 0.000000 1.927230 0.000000 
#    z 0.000000 0.000000 2.204420 
# 
# From -- ./inp_files/29705.got.cif
#   From: 2010.05.17/outbox.cif.g08.bks.cpg/sg71_15_cif.got.tgz:29705.got - 2010.06.03 16:22:01.
