data_PCOD9523253
_publ_section_title
;
Structure prediction by ZEFSAII (Michael W. Deem and Ramdas Pophale) SiO2 
 PCOD9523253
Probable space group: I M M M
;
_chemical_formula_sum "Si O2"
_cell_formula_units_Z 100
_cell_length_a 19.922897
_cell_length_b 29.375590
_cell_length_c 7.733509
_cell_angle_alpha 90.000000
_cell_angle_beta 90.000000
_cell_angle_gamma 90.000000
_cell_volume 4526.011812
_symmetry_space_group_name_H-M "I M M M"
_symmetry_group_IT_number 71
_symmetry_cell_setting 'orthorhombic'
loop_
_space_group_symop_operation_xyz
x,y,z
-x,-y,z
x,-y,-z
-x,y,-z
-x,-y,-z
x,y,-z
-x,y,z
x,-y,z
1/2+x,1/2+y,1/2+z
1/2-x,1/2-y,1/2+z
1/2+x,1/2-y,1/2-z
1/2-x,1/2+y,1/2-z
1/2-x,1/2-y,1/2-z
1/2+x,1/2+y,1/2-z
1/2-x,1/2+y,1/2+z
1/2+x,1/2-y,1/2+z
loop_
_atom_site_type_symbol
_atom_site_label
_atom_site_fract_x
_atom_site_fract_y
_atom_site_fract_z
Si Si1 0.824179 0.765995 0.204331
Si Si2 0.737302 0.500000 0.500000
Si Si3 0.578599 0.448431 0.710801
Si Si4 0.926889 0.687674 0.706391
Si Si5 0.322190 0.367669 0.710133
Si Si6 0.778340 0.565384 0.194081
Si Si7 0.075779 0.416590 0.289987
O O1 0.750000 0.750000 0.250000
O O2 0.873623 0.726036 0.257496
O O3 0.838297 0.816848 0.273632
O O4 0.829140 0.769975 0.000000
O O5 0.742483 0.538651 0.347741
O O6 0.583297 0.449680 0.500000
O O7 0.500000 0.441489 0.754052
O O8 0.597389 0.500000 0.767976
O O9 0.624852 0.406554 0.769073
O O10 0.929774 0.682647 0.500000
O O11 0.916058 0.636006 0.768078
O O12 0.000000 0.702530 0.770947
O O13 0.322133 0.367348 0.500000
O O14 0.248909 0.383409 0.775607
O O15 0.858090 0.559097 0.219905
O O16 0.760431 0.552044 0.000000
O O17 0.079148 0.419500 0.500000
O O18 0.000000 0.431613 0.241171
#
# Coordination Sequence:
#
# PCOD9523253 Si02
#       7
#    16   4  16  16  16  16  16
#     4  11  23  36  54  83 121 164 206 255 314 370
#     4  12  26  48  65  88 133 164 198 272 314 362
#     4   8  15  29  54  85 112 148 198 244 298 368
#     4   9  19  36  60  87 119 163 209 256 312 368
#     4  10  21  37  59  85 122 166 203 257 317 367
#     4  12  25  41  66  96 122 162 212 254 315 380
#     4   9  18  38  65  89 121 165 207 256 316 373
#
# _framework density 22.094505999999999
#
# number of rings (size 3 to 8) (size 9 to 14) (size 15 to 20)
#    0.000    2.080    1.600    3.120    1.120    7.040 
#    0.000    4.000    0.000    1.440    0.000    1.120 
#    0.000    0.000    0.000    0.000    0.000    0.000 
#
# Total GULP energy -278702.878719 kJ/mol
# GULP energy per Si atom -5574.057574 kJ/mol
# Density = 2.204422 g / cm^3
# Si number density = 22.094506 Si / 1000 Ang^3
#
#
#
# Elastic Constant Matrix: (Units=GPa)
#
#
# Indices 1 2 3 4 5 6 
#
# 1 94.8840 15.8243 -0.5793 0.0000 0.0000 0.0000
# 2 15.8243 68.5083 9.7578 0.0000 0.0000 0.0000
# 3 -0.5793 9.7578 85.1641 0.0000 0.0000 0.0000
# 4 0.0000 0.0000 0.0000 0.6293 0.0000 0.0000
# 5 0.0000 0.0000 0.0000 0.0000 14.1671 0.0000
# 6 0.0000 0.0000 0.0000 0.0000 0.0000 -12.7755
#
#
#
# Elastic Compliance Matrix: (Units=1/GPa)
#
#
# Indices 1 2 3 4 5 6 
#
# 1 0.010973 -0.002587 0.000371 0.000000 0.000000 0.000000
# 2 -0.002587 0.015449 -0.001788 0.000000 0.000000 0.000000
# 3 0.000371 -0.001788 0.011949 0.000000 0.000000 0.000000
# 4 0.000000 0.000000 0.000000 1.589158 0.000000 0.000000
# 5 0.000000 0.000000 0.000000 0.000000 0.070586 0.000000
# 6 0.000000 0.000000 0.000000 0.000000 0.000000 -0.078275
#
#
# Mechanical properties :
#
#
# Convention : Reuss Voigt Hill
#
# Bulk Modulus (GPa) = 32.93447 33.17358 33.05402
# Shear Modulus (GPa) = 3.05256 15.30774 9.18015
#
# Velocity S-wave (km/s) = 1.17669 2.63502 2.04058
# Velocity P-wave (km/s) = 4.09691 4.92999 4.53263
#
# Compressibility (1/GPa) = 0.03036333
#
# Stress axis : x y z
#
# Youngs Moduli (GPa) = 91.13300 64.72890 83.68629
#
# Poissons Ratio (x) = 0.16748 -0.03106
# Poissons Ratio (y) = 0.23580 0.14961
# Poissons Ratio (z) = -0.03382 0.11572
#
# Static dielectric constant tensor:
#      x y z
#    x 1.894400 0.000000 0.000000 
#    y 0.000000 1.867820 0.000000 
#    z 0.000000 0.000000 2.135940 
# 
# From -- ./inp_files/11141.got.cif
#   From: 2010.05.17/outbox.cif.g08.bks.cpg/sg71_6_cif.got.tgz:11141.got - 2010.06.03 16:22:01.
