data_PCOD9523761
_publ_section_title
;
Structure prediction by ZEFSAII (Michael W. Deem and Ramdas Pophale) SiO2 
 PCOD9523761
Probable space group: I M M M
;
_chemical_formula_sum "Si O2"
_cell_formula_units_Z 104
_cell_length_a 8.617614
_cell_length_b 28.440534
_cell_length_c 22.362508
_cell_angle_alpha 90.000000
_cell_angle_beta 90.000000
_cell_angle_gamma 90.000000
_cell_volume 5480.816888
_symmetry_space_group_name_H-M "I M M M"
_symmetry_group_IT_number 71
_symmetry_cell_setting 'orthorhombic'
loop_
_space_group_symop_operation_xyz
x,y,z
-x,-y,z
x,-y,-z
-x,y,-z
-x,-y,-z
x,y,-z
-x,y,z
x,-y,z
1/2+x,1/2+y,1/2+z
1/2-x,1/2-y,1/2+z
1/2+x,1/2-y,1/2-z
1/2-x,1/2+y,1/2-z
1/2-x,1/2-y,1/2-z
1/2+x,1/2+y,1/2-z
1/2-x,1/2+y,1/2+z
1/2+x,1/2-y,1/2+z
loop_
_atom_site_type_symbol
_atom_site_label
_atom_site_fract_x
_atom_site_fract_y
_atom_site_fract_z
Si Si1 0.311811 0.795603 0.500000
Si Si2 0.187430 0.053400 0.376754
Si Si3 0.321621 0.500000 0.427423
Si Si4 0.313329 0.770911 0.631443
Si Si5 0.686746 0.900213 0.068505
Si Si6 0.813671 0.327992 0.669853
Si Si7 0.313700 0.094909 0.500000
Si Si8 0.186432 0.859713 0.704207
O O1 0.500000 0.795407 0.500000
O O2 0.262355 0.771567 0.561792
O O3 0.263153 0.850319 0.500000
O O4 0.252120 0.069875 0.440607
O O5 0.234644 0.091494 0.327076
O O6 0.000000 0.054279 0.380068
O O7 0.236323 0.000000 0.363622
O O8 0.500000 0.500000 0.408546
O O9 0.315360 0.500000 0.500000
O O10 0.241792 0.548643 0.409312
O O11 0.500000 0.773075 0.633994
O O12 0.255023 0.724026 0.663476
O O13 0.245211 0.816912 0.663075
O O14 0.500000 0.900413 0.067255
O O15 0.737632 0.859370 0.113204
O O16 0.742009 0.893204 0.000000
O O17 0.756573 0.352114 0.730475
O O18 0.000000 0.325102 0.670152
O O19 0.500000 0.093964 0.500000
O O20 0.000000 0.858297 0.707616
#
# Coordination Sequence:
#
# PCOD9523761 Si02
#       8
#     8  16   8  16  16  16   8  16
#     4   9  20  36  58  89 122 155 191 244 301 346
#     4  10  22  40  61  87 121 160 203 250 299 353
#     4   9  17  31  55  85 113 143 183 228 277 334
#     4  11  22  40  63  87 119 155 195 242 295 351
#     4   9  19  37  59  82 113 150 188 233 287 347
#     4  11  24  40  60  88 119 153 195 242 294 353
#     4  11  20  36  61  92 126 158 199 247 299 354
#     4  11  23  41  62  84 115 158 203 243 292 351
#
# _framework density 18.975273999999999
#
# number of rings (size 3 to 8) (size 9 to 14) (size 15 to 20)
#    0.000    1.769    1.538    2.538    1.077    4.000 
#    1.385    1.154    0.000    0.000    0.000    0.000 
#    0.000    0.000    0.000    0.000    0.000    0.000 
#
# Total GULP energy -290485.844367 kJ/mol
# GULP energy per Si atom -5586.266238 kJ/mol
# Density = 1.893209 g / cm^3
# Si number density = 18.975274 Si / 1000 Ang^3
#
#
#
# Elastic Constant Matrix: (Units=GPa)
#
#
# Indices 1 2 3 4 5 6 
#
# 1 24.1463 17.1777 14.6775 0.0000 0.0000 0.0000
# 2 17.1777 125.9514 54.2228 0.0001 0.0000 0.0000
# 3 14.6775 54.2228 107.3143 0.0005 0.0000 0.0000
# 4 0.0000 0.0001 0.0005 42.8998 0.0001 0.0000
# 5 0.0000 0.0000 0.0000 0.0001 12.5621 0.0000
# 6 0.0000 0.0000 0.0000 0.0000 0.0000 9.3800
#
#
#
# Elastic Compliance Matrix: (Units=1/GPa)
#
#
# Indices 1 2 3 4 5 6 
#
# 1 0.047232 -0.004678 -0.004096 0.000000 0.000000 0.000000
# 2 -0.004678 0.010610 -0.004721 0.000000 0.000000 0.000000
# 3 -0.004096 -0.004721 0.012264 0.000000 0.000000 0.000000
# 4 0.000000 0.000000 0.000000 0.023310 0.000000 0.000000
# 5 0.000000 0.000000 0.000000 0.000000 0.079604 0.000000
# 6 0.000000 0.000000 0.000000 0.000000 0.000000 0.106610
#
#
# Mechanical properties :
#
#
# Convention : Reuss Voigt Hill
#
# Bulk Modulus (GPa) = 23.19363 47.72979 35.46171
# Shear Modulus (GPa) = 15.57661 24.39064 19.98362
#
# Velocity S-wave (km/s) = 2.86823 3.58912 3.24873
# Velocity P-wave (km/s) = 4.81857 6.51030 5.72724
#
# Compressibility (1/GPa) = 0.04311529
#
# Stress axis : x y z
#
# Youngs Moduli (GPa) = 21.17193 94.24996 81.53867
#
# Poissons Ratio (x) = 0.44093 0.33400
# Poissons Ratio (y) = 0.09905 0.38495
# Poissons Ratio (z) = 0.08673 0.44497
#
# Static dielectric constant tensor:
#      x y z
#    x 1.639370 0.000000 0.000000 
#    y 0.000000 1.640750 0.000000 
#    z 0.000000 0.000000 1.647840 
# 
# From -- ./inp_files/50960.got.cif
#   From: 2010.05.17/outbox.cif.g08.bks.cpg/sg71_26_cif.got.tgz:50960.got - 2010.06.03 16:22:01.
