data_PCOD9523288
_publ_section_title
;
Structure prediction by ZEFSAII (Michael W. Deem and Ramdas Pophale) SiO2 
 PCOD9523288
Probable space group: I M M M
;
_chemical_formula_sum "Si O2"
_cell_formula_units_Z 96
_cell_length_a 15.270247
_cell_length_b 20.431945
_cell_length_c 15.484020
_cell_angle_alpha 90.000000
_cell_angle_beta 90.000000
_cell_angle_gamma 90.000000
_cell_volume 4831.027352
_symmetry_space_group_name_H-M "I M M M"
_symmetry_group_IT_number 71
_symmetry_cell_setting 'orthorhombic'
loop_
_space_group_symop_operation_xyz
x,y,z
-x,-y,z
x,-y,-z
-x,y,-z
-x,-y,-z
x,y,-z
-x,y,z
x,-y,z
1/2+x,1/2+y,1/2+z
1/2-x,1/2-y,1/2+z
1/2+x,1/2-y,1/2-z
1/2-x,1/2+y,1/2-z
1/2-x,1/2-y,1/2-z
1/2+x,1/2+y,1/2-z
1/2-x,1/2+y,1/2+z
1/2+x,1/2-y,1/2+z
loop_
_atom_site_type_symbol
_atom_site_label
_atom_site_fract_x
_atom_site_fract_y
_atom_site_fract_z
Si Si1 0.721102 0.286107 0.406295
Si Si2 0.094017 0.251840 0.349990
Si Si3 0.595174 0.396148 0.786761
Si Si4 0.398797 0.181728 0.321802
Si Si5 0.839747 0.926230 0.099174
Si Si6 0.267309 0.075462 0.601132
O O1 0.681787 0.275368 0.500000
O O2 0.817320 0.256525 0.402220
O O3 0.656737 0.246235 0.345885
O O4 0.724241 0.364000 0.392638
O O5 0.095109 0.182214 0.300511
O O6 0.097862 0.311277 0.281472
O O7 0.000000 0.254938 0.395576
O O8 0.500000 0.419770 0.818659
O O9 0.602839 0.415934 0.685679
O O10 0.678566 0.419378 0.842067
O O11 0.500000 0.182281 0.352542
O O12 0.341499 0.122423 0.358859
O O13 0.803084 0.000000 0.104908
O O14 0.877758 0.921696 0.000000
O O15 0.251369 0.093059 0.500000
O O16 0.296151 0.000000 0.603702
#
# Coordination Sequence:
#
# PCOD9523288 Si02
#       6
#    16  16  16  16  16  16
#     4  11  21  36  61  87 117 156 196 242 297 353
#     4  10  21  37  60  89 120 152 195 250 296 345
#     4  11  22  39  62  88 121 161 199 241 296 353
#     4  11  22  39  62  85 113 153 199 246 295 348
#     4  10  22  38  58  88 122 156 197 244 295 353
#     4  11  25  42  60  87 122 159 201 247 294 348
#
# _framework density 19.871551
#
# number of rings (size 3 to 8) (size 9 to 14) (size 15 to 20)
#    0.000    1.333    3.333    2.500    0.000    4.000 
#    0.000    5.833    0.000    1.500    0.000    2.333 
#    0.000    0.000    0.000    0.000    0.000    0.167 
#
# Total GULP energy -267294.076882 kJ/mol
# GULP energy per Si atom -5568.626602 kJ/mol
# Density = 1.982632 g / cm^3
# Si number density = 19.871551 Si / 1000 Ang^3
#
#
#
# Elastic Constant Matrix: (Units=GPa)
#
#
# Indices 1 2 3 4 5 6 
#
# 1 124.8859 45.7672 33.0956 0.0000 0.0000 0.0000
# 2 45.7672 112.5203 30.2184 0.0000 0.0000 0.0000
# 3 33.0956 30.2184 76.6241 0.0000 0.0001 0.0000
# 4 0.0000 0.0000 0.0000 27.2610 0.0001 0.0000
# 5 0.0000 0.0000 0.0001 0.0001 31.9033 0.0000
# 6 0.0000 0.0000 0.0000 0.0000 0.0000 4.8011
#
#
#
# Elastic Compliance Matrix: (Units=1/GPa)
#
#
# Indices 1 2 3 4 5 6 
#
# 1 0.010005 -0.003253 -0.003038 0.000000 0.000000 0.000000
# 2 -0.003253 0.010998 -0.002932 0.000000 0.000000 0.000000
# 3 -0.003038 -0.002932 0.015519 0.000000 0.000000 0.000000
# 4 0.000000 0.000000 0.000000 0.036682 0.000000 0.000000
# 5 0.000000 0.000000 0.000000 0.000000 0.031345 0.000000
# 6 0.000000 0.000000 0.000000 0.000000 0.000000 0.208284
#
#
# Mechanical properties :
#
#
# Convention : Reuss Voigt Hill
#
# Bulk Modulus (GPa) = 55.32613 59.13253 57.22933
# Shear Modulus (GPa) = 14.82334 26.45636 20.63985
#
# Velocity S-wave (km/s) = 2.73419 3.65275 3.22633
# Velocity P-wave (km/s) = 6.15386 6.90015 6.53766
#
# Compressibility (1/GPa) = 0.01807464
#
# Stress axis : x y z
#
# Youngs Moduli (GPa) = 99.95247 90.92519 64.43581
#
# Poissons Ratio (x) = 0.29582 0.19577
# Poissons Ratio (y) = 0.32519 0.18893
# Poissons Ratio (z) = 0.30368 0.26660
#
# Static dielectric constant tensor:
#      x y z
#    x 1.683990 0.000000 0.000000 
#    y 0.000000 1.711480 0.000000 
#    z 0.000000 0.000000 1.733490 
# 
# From -- ./inp_files/34487.got.cif
#   From: 2010.05.17/outbox.cif.g08.bks.cpg/sg71_18_cif.got.tgz:34487.got - 2010.06.03 16:22:01.
