data_PCOD9523730
_publ_section_title
;
Structure prediction by ZEFSAII (Michael W. Deem and Ramdas Pophale) SiO2 
 PCOD9523730
Probable space group: I M M M
;
_chemical_formula_sum "Si O2"
_cell_formula_units_Z 88
_cell_length_a 22.505557
_cell_length_b 9.959705
_cell_length_c 21.704296
_cell_angle_alpha 90.000000
_cell_angle_beta 90.000000
_cell_angle_gamma 90.000000
_cell_volume 4864.989919
_symmetry_space_group_name_H-M "I M M M"
_symmetry_group_IT_number 71
_symmetry_cell_setting 'orthorhombic'
loop_
_space_group_symop_operation_xyz
x,y,z
-x,-y,z
x,-y,-z
-x,y,-z
-x,-y,-z
x,y,-z
-x,y,z
x,-y,z
1/2+x,1/2+y,1/2+z
1/2-x,1/2-y,1/2+z
1/2+x,1/2-y,1/2-z
1/2-x,1/2+y,1/2-z
1/2-x,1/2-y,1/2-z
1/2+x,1/2+y,1/2-z
1/2-x,1/2+y,1/2+z
1/2+x,1/2-y,1/2+z
loop_
_atom_site_type_symbol
_atom_site_label
_atom_site_fract_x
_atom_site_fract_y
_atom_site_fract_z
Si Si1 0.432598 0.500000 0.926884
Si Si2 0.883917 0.341857 0.133346
Si Si3 0.571425 0.000000 0.074340
Si Si4 0.748403 0.160457 0.687615
Si Si5 0.931499 0.337926 0.000000
Si Si6 0.869627 0.244250 0.637434
Si Si7 0.569382 0.343189 0.261264
O O1 0.500000 0.500000 0.902870
O O2 0.398109 0.373641 0.901957
O O3 0.434624 0.500000 0.000000
O O4 0.900867 0.500000 0.141262
O O5 0.815467 0.330347 0.154627
O O6 0.897366 0.302511 0.062833
O O7 0.919999 0.242959 0.177669
O O8 0.604649 0.124513 0.105582
O O9 0.500000 0.000000 0.087199
O O10 0.577677 0.000000 0.000000
O O11 0.750000 0.250000 0.750000
O O12 0.799463 0.221227 0.643775
O O13 0.759863 0.000000 0.699567
O O14 0.934405 0.500000 0.000000
O O15 0.000000 0.288620 0.000000
O O16 0.894041 0.226109 0.706702
O O17 0.500000 0.340937 0.245068
O O18 0.587382 0.500000 0.267615
#
# Coordination Sequence:
#
# PCOD9523730 Si02
#       7
#     8  16   8  16   8  16  16
#     4  11  22  40  65  92 124 165 210 257 319 389
#     4  10  22  39  62  92 120 163 209 255 317 376
#     4  11  26  46  65  92 130 169 214 269 327 385
#     4  11  23  40  62  91 129 166 208 260 317 382
#     4   9  18  38  63  89 123 159 202 257 313 371
#     4  12  23  41  62  92 126 165 213 261 320 384
#     4  11  22  36  58  91 125 155 204 263 316 376
#
# _framework density 18.088422999999999
#
# number of rings (size 3 to 8) (size 9 to 14) (size 15 to 20)
#    0.000    1.182    3.636    2.727    2.545    2.545 
#    3.273    0.455    0.000    1.636    0.000    0.000 
#    0.000    0.000    0.000    0.000    0.000    0.000 
#
# Total GULP energy -245624.603988 kJ/mol
# GULP energy per Si atom -5582.377363 kJ/mol
# Density = 1.804725 g / cm^3
# Si number density = 18.088423 Si / 1000 Ang^3
#
#
#
# Elastic Constant Matrix: (Units=GPa)
#
#
# Indices 1 2 3 4 5 6 
#
# 1 85.1654 29.7998 25.8830 0.0000 0.0000 0.0000
# 2 29.7998 117.4425 41.7598 0.0000 0.0000 0.0000
# 3 25.8830 41.7598 114.2559 0.0000 0.0000 0.0000
# 4 0.0000 0.0000 0.0000 23.2600 0.0000 0.0000
# 5 0.0000 0.0000 0.0000 0.0000 36.8810 0.0000
# 6 0.0000 0.0000 0.0000 0.0000 0.0000 27.2996
#
#
#
# Elastic Compliance Matrix: (Units=1/GPa)
#
#
# Indices 1 2 3 4 5 6 
#
# 1 0.013288 -0.002645 -0.002044 0.000000 0.000000 0.000000
# 2 -0.002645 0.010313 -0.003170 0.000000 0.000000 0.000000
# 3 -0.002044 -0.003170 0.010374 0.000000 0.000000 0.000000
# 4 0.000000 0.000000 0.000000 0.042992 0.000000 0.000000
# 5 0.000000 0.000000 0.000000 0.000000 0.027114 0.000000
# 6 0.000000 0.000000 0.000000 0.000000 0.000000 0.036631
#
#
# Mechanical properties :
#
#
# Convention : Reuss Voigt Hill
#
# Bulk Modulus (GPa) = 54.77103 56.86100 55.81601
# Shear Modulus (GPa) = 30.76613 32.11620 31.44117
#
# Velocity S-wave (km/s) = 4.12864 4.21825 4.17369
# Velocity P-wave (km/s) = 7.28511 7.43156 7.35870
#
# Compressibility (1/GPa) = 0.01825783
#
# Stress axis : x y z
#
# Youngs Moduli (GPa) = 75.25318 96.96266 96.39575
#
# Poissons Ratio (x) = 0.25648 0.19699
# Poissons Ratio (y) = 0.19906 0.30559
# Poissons Ratio (z) = 0.15378 0.30739
#
# Static dielectric constant tensor:
#      x y z
#    x 1.633550 0.000000 0.000000 
#    y 0.000000 1.614850 0.000000 
#    z 0.000000 0.000000 1.622300 
# 
# From -- ./inp_files/55619.got.cif
#   From: 2010.05.17/outbox.cif.g08.bks.cpg/sg71_28_cif.got.tgz:55619.got - 2010.06.03 16:22:01.
