data_PCOD9523650
_publ_section_title
;
Structure prediction by ZEFSAII (Michael W. Deem and Ramdas Pophale) SiO2 
 PCOD9523650
Probable space group: I M M M
;
_chemical_formula_sum "Si O2"
_cell_formula_units_Z 104
_cell_length_a 27.007214
_cell_length_b 22.622223
_cell_length_c 8.396091
_cell_angle_alpha 90.000000
_cell_angle_beta 90.000000
_cell_angle_gamma 90.000000
_cell_volume 5129.702774
_symmetry_space_group_name_H-M "I M M M"
_symmetry_group_IT_number 71
_symmetry_cell_setting 'orthorhombic'
loop_
_space_group_symop_operation_xyz
x,y,z
-x,-y,z
x,-y,-z
-x,y,-z
-x,-y,-z
x,y,-z
-x,y,z
x,-y,z
1/2+x,1/2+y,1/2+z
1/2-x,1/2-y,1/2+z
1/2+x,1/2-y,1/2-z
1/2-x,1/2+y,1/2-z
1/2-x,1/2-y,1/2-z
1/2+x,1/2+y,1/2-z
1/2-x,1/2+y,1/2+z
1/2+x,1/2-y,1/2+z
loop_
_atom_site_type_symbol
_atom_site_label
_atom_site_fract_x
_atom_site_fract_y
_atom_site_fract_z
Si Si1 0.440502 0.127148 0.685787
Si Si2 0.719195 0.567582 0.691998
Si Si3 0.874461 0.278626 0.316777
Si Si4 0.445156 0.319307 0.809625
Si Si5 0.604070 0.567350 0.308586
Si Si6 0.056592 0.500000 0.193491
Si Si7 0.228911 0.312712 0.813990
O O1 0.427132 0.138730 0.500000
O O2 0.500000 0.125079 0.690510
O O3 0.419381 0.175742 0.801488
O O4 0.420432 0.062565 0.735678
O O5 0.720556 0.566251 0.500000
O O6 0.734013 0.500000 0.745054
O O7 0.661572 0.576336 0.740075
O O8 0.749578 0.625699 0.744552
O O9 0.858971 0.269866 0.500000
O O10 0.898802 0.219093 0.247684
O O11 0.829200 0.306344 0.222094
O O12 0.500000 0.303073 0.747594
O O13 0.432190 0.386338 0.771279
O O14 0.445821 0.309927 0.000000
O O15 0.601856 0.574609 0.500000
O O16 0.590939 0.500000 0.270788
O O17 0.000000 0.500000 0.254006
O O18 0.053647 0.500000 0.000000
O O19 0.250000 0.250000 0.750000
O O20 0.239052 0.314518 0.000000
#
# Coordination Sequence:
#
# PCOD9523650 Si02
#       7
#    16  16  16  16  16   8  16
#     4   9  17  32  55  81 109 144 186 231 281 336
#     4   9  19  39  65  91 121 156 196 245 299 355
#     4  11  23  39  57  80 111 149 193 240 292 343
#     4  10  22  38  55  79 113 152 193 238 285 334
#     4   9  19  36  59  87 116 147 184 227 278 339
#     4   7  12  26  49  75 103 137 177 221 267 317
#     4  12  25  41  62  88 118 152 195 245 300 361
#
# _framework density 20.274079
#
# number of rings (size 3 to 8) (size 9 to 14) (size 15 to 20)
#    0.000    2.231    0.000    5.077    0.000    6.462 
#    1.385    3.462    0.000    1.385    0.000    0.000 
#    0.000    0.000    0.000    0.000    0.000    0.000 
#
# Total GULP energy -289901.477366 kJ/mol
# GULP energy per Si atom -5575.028411 kJ/mol
# Density = 2.022793 g / cm^3
# Si number density = 20.274079 Si / 1000 Ang^3
#
#
#
# Elastic Constant Matrix: (Units=GPa)
#
#
# Indices 1 2 3 4 5 6 
#
# 1 36.8386 20.6634 7.8553 0.0000 0.0000 0.0000
# 2 20.6634 94.9738 12.8048 0.0000 0.0000 0.0000
# 3 7.8553 12.8048 26.2233 0.0000 0.0000 0.0000
# 4 0.0000 0.0000 0.0000 28.0422 0.0000 0.0000
# 5 0.0000 0.0000 0.0000 0.0000 23.7092 0.0000
# 6 0.0000 0.0000 0.0000 0.0000 0.0000 29.5492
#
#
#
# Elastic Compliance Matrix: (Units=1/GPa)
#
#
# Indices 1 2 3 4 5 6 
#
# 1 0.031955 -0.006061 -0.006613 0.000000 0.000000 0.000000
# 2 -0.006061 0.012421 -0.004249 0.000000 0.000000 0.000000
# 3 -0.006613 -0.004249 0.042190 0.000000 0.000000 0.000000
# 4 0.000000 0.000000 0.000000 0.035660 0.000000 0.000000
# 5 0.000000 0.000000 0.000000 0.000000 0.042178 0.000000
# 6 0.000000 0.000000 0.000000 0.000000 0.000000 0.033842
#
#
# Mechanical properties :
#
#
# Convention : Reuss Voigt Hill
#
# Bulk Modulus (GPa) = 18.96828 26.74250 22.85539
# Shear Modulus (GPa) = 20.02681 24.04095 22.03388
#
# Velocity S-wave (km/s) = 3.14634 3.44728 3.30024
# Velocity P-wave (km/s) = 4.75137 5.39111 5.08132
#
# Compressibility (1/GPa) = 0.05271960
#
# Stress axis : x y z
#
# Youngs Moduli (GPa) = 31.29388 80.51001 23.70237
#
# Poissons Ratio (x) = 0.48796 0.15674
# Poissons Ratio (y) = 0.18967 0.10072
# Poissons Ratio (z) = 0.20694 0.34213
#
# Static dielectric constant tensor:
#      x y z
#    x 1.697240 0.000000 0.000000 
#    y 0.000000 1.783510 0.000000 
#    z 0.000000 0.000000 1.733390 
# 
# From -- ./inp_files/14974.got.cif
#   From: 2010.05.17/outbox.cif.g08.bks.cpg/sg71_8_cif.got.tgz:14974.got - 2010.06.03 16:22:01.
