data_PCOD9523014
_publ_section_title
;
Structure prediction by ZEFSAII (Michael W. Deem and Ramdas Pophale) SiO2 
 PCOD9523014
Probable space group: I M M M
;
_chemical_formula_sum "Si O2"
_cell_formula_units_Z 112
_cell_length_a 14.628945
_cell_length_b 22.232453
_cell_length_c 19.045154
_cell_angle_alpha 90.000000
_cell_angle_beta 90.000000
_cell_angle_gamma 90.000000
_cell_volume 6194.195077
_symmetry_space_group_name_H-M "I M M M"
_symmetry_group_IT_number 71
_symmetry_cell_setting 'orthorhombic'
loop_
_space_group_symop_operation_xyz
x,y,z
-x,-y,z
x,-y,-z
-x,y,-z
-x,-y,-z
x,y,-z
-x,y,z
x,-y,z
1/2+x,1/2+y,1/2+z
1/2-x,1/2-y,1/2+z
1/2+x,1/2-y,1/2-z
1/2-x,1/2+y,1/2-z
1/2-x,1/2-y,1/2-z
1/2+x,1/2+y,1/2-z
1/2-x,1/2+y,1/2+z
1/2+x,1/2-y,1/2+z
loop_
_atom_site_type_symbol
_atom_site_label
_atom_site_fract_x
_atom_site_fract_y
_atom_site_fract_z
Si Si1 0.608702 0.429460 0.679865
Si Si2 0.249980 0.429180 0.922339
Si Si3 0.391318 0.864787 0.671693
Si Si4 0.249997 0.635955 0.415828
Si Si5 0.608703 0.929461 0.820132
Si Si6 0.391318 0.635208 0.171690
Si Si7 0.249987 0.238710 0.332732
O O1 0.500000 0.426678 0.668241
O O2 0.633017 0.500000 0.690465
O O3 0.663817 0.400441 0.615912
O O4 0.628546 0.390369 0.749981
O O5 0.249995 0.500000 0.927056
O O6 0.159771 0.409392 0.880951
O O7 0.340180 0.409378 0.880947
O O8 0.249978 0.401768 0.000000
O O9 0.500000 0.861597 0.663138
O O10 0.371446 0.890366 0.750019
O O11 0.340107 0.802123 0.656686
O O12 0.249998 0.638866 0.500000
O O13 0.163812 0.599557 0.384090
O O14 0.249993 0.702034 0.380087
O O15 0.500000 0.926679 0.831750
O O16 0.633020 0.000000 0.809532
O O17 0.500000 0.638369 0.163118
O O18 0.340149 0.697890 0.156698
O O19 0.250000 0.250000 0.250000
#
# Coordination Sequence:
#
# PCOD9523014 Si02
#       7
#    16  16  16  16  16  16  16
#     4  10  21  38  62  91 118 149 194 243 293 356
#     4  10  21  36  55  85 125 159 192 241 299 356
#     4  10  21  38  64  89 115 153 200 248 298 355
#     4  12  25  40  58  84 120 160 198 240 296 349
#     4  10  21  38  62  91 118 149 194 243 293 356
#     4  10  21  38  64  89 115 153 200 248 298 355
#     4  11  21  39  60  87 114 154 196 245 290 346
#
# _framework density 18.081446
#
# number of rings (size 3 to 8) (size 9 to 14) (size 15 to 20)
#    0.000    1.571    2.857    2.143    0.000    8.000 
#    0.000    2.857    0.000    0.000    0.000    0.000 
#    0.000    0.000    0.000    0.000    0.000    0.000 
#
# Total GULP energy -312498.768652 kJ/mol
# GULP energy per Si atom -5580.335154 kJ/mol
# Density = 1.804029 g / cm^3
# Si number density = 18.081446 Si / 1000 Ang^3
#
#
#
# Elastic Constant Matrix: (Units=GPa)
#
#
# Indices 1 2 3 4 5 6 
#
# 1 122.7882 44.8446 55.7260 0.0000 0.0000 0.0000
# 2 44.8446 103.3369 32.4608 0.0000 0.0000 0.0000
# 3 55.7260 32.4608 128.0851 0.0000 0.0000 0.0000
# 4 0.0000 0.0000 0.0000 25.5450 0.0000 0.0000
# 5 0.0000 0.0000 0.0000 0.0000 37.7642 0.0000
# 6 0.0000 0.0000 0.0000 0.0000 0.0000 10.3725
#
#
#
# Elastic Compliance Matrix: (Units=1/GPa)
#
#
# Indices 1 2 3 4 5 6 
#
# 1 0.011284 -0.003645 -0.003986 0.000000 0.000000 0.000000
# 2 -0.003645 0.011691 -0.001377 0.000000 0.000000 0.000000
# 3 -0.003986 -0.001377 0.009890 0.000000 0.000000 0.000000
# 4 0.000000 0.000000 0.000000 0.039147 0.000000 0.000000
# 5 0.000000 0.000000 0.000000 0.000000 0.026480 0.000000
# 6 0.000000 0.000000 0.000000 0.000000 0.000000 0.096409
#
#
# Mechanical properties :
#
#
# Convention : Reuss Voigt Hill
#
# Bulk Modulus (GPa) = 67.33803 68.91920 68.12862
# Shear Modulus (GPa) = 22.94978 29.48159 26.21569
#
# Velocity S-wave (km/s) = 3.56651 4.04231 3.81184
# Velocity P-wave (km/s) = 7.36766 7.74505 7.55871
#
# Compressibility (1/GPa) = 0.01485045
#
# Stress axis : x y z
#
# Youngs Moduli (GPa) = 88.61997 85.53247 101.10846
#
# Poissons Ratio (x) = 0.31176 0.40298
# Poissons Ratio (y) = 0.32301 0.13925
# Poissons Ratio (z) = 0.35321 0.11779
#
# Static dielectric constant tensor:
#      x y z
#    x 1.607580 0.000000 0.000000 
#    y 0.000000 1.656030 0.000000 
#    z 0.000000 0.000000 1.616160 
# 
# From -- ./inp_files/34911.got.cif
#   From: 2010.05.17/outbox.cif.g08.bks.cpg/sg71_18_cif.got.tgz:34911.got - 2010.06.03 16:22:01.
