data_PCOD9523389
_publ_section_title
;
Structure prediction by ZEFSAII (Michael W. Deem and Ramdas Pophale) SiO2 
 PCOD9523389
Probable space group: I M M M
;
_chemical_formula_sum "Si O2"
_cell_formula_units_Z 104
_cell_length_a 12.265365
_cell_length_b 25.120228
_cell_length_c 18.349551
_cell_angle_alpha 90.000000
_cell_angle_beta 90.000000
_cell_angle_gamma 90.000000
_cell_volume 5653.657502
_symmetry_space_group_name_H-M "I M M M"
_symmetry_group_IT_number 71
_symmetry_cell_setting 'orthorhombic'
loop_
_space_group_symop_operation_xyz
x,y,z
-x,-y,z
x,-y,-z
-x,y,-z
-x,-y,-z
x,y,-z
-x,y,z
x,-y,z
1/2+x,1/2+y,1/2+z
1/2-x,1/2-y,1/2+z
1/2+x,1/2-y,1/2-z
1/2-x,1/2+y,1/2-z
1/2-x,1/2-y,1/2-z
1/2+x,1/2+y,1/2-z
1/2-x,1/2+y,1/2+z
1/2+x,1/2-y,1/2+z
loop_
_atom_site_type_symbol
_atom_site_label
_atom_site_fract_x
_atom_site_fract_y
_atom_site_fract_z
Si Si1 0.368974 0.000000 0.086039
Si Si2 0.280594 0.087021 0.808256
Si Si3 0.374637 0.325577 0.135730
Si Si4 0.500000 0.128085 0.583458
Si Si5 0.834478 0.276712 0.917700
Si Si6 0.870037 0.942396 0.324227
Si Si7 0.376604 0.318596 0.308893
Si Si8 0.500000 0.064543 0.725550
O O1 0.312361 0.949517 0.123864
O O2 0.500000 0.000000 0.100942
O O3 0.354766 0.000000 0.000000
O O4 0.195010 0.061092 0.751491
O O5 0.220528 0.141347 0.830016
O O6 0.393158 0.089705 0.763056
O O7 0.500000 0.319555 0.114006
O O8 0.292129 0.290229 0.090855
O O9 0.344199 0.388457 0.132252
O O10 0.365060 0.310383 0.221721
O O11 0.500000 0.109620 0.500000
O O12 0.398347 0.168059 0.594579
O O13 0.500000 0.081435 0.641623
O O14 0.867383 0.234178 0.856931
O O15 0.860483 0.258533 0.000000
O O16 0.000000 0.939932 0.310656
O O17 0.845381 0.000000 0.358672
O O18 0.500000 0.340731 0.319318
O O19 0.500000 0.000000 0.733628
#
# Coordination Sequence:
#
# PCOD9523389 Si02
#       8
#     8  16  16   8  16  16  16   8
#     4  11  22  38  55  77 119 161 190 226 284 352
#     4  11  19  36  57  86 110 146 195 234 281 336
#     4   9  19  34  54  85 113 144 190 237 284 332
#     4  10  22  37  58  86 116 155 198 234 290 352
#     4  11  22  39  58  78 114 157 190 235 295 348
#     4   9  16  29  55  84 115 144 177 233 285 331
#     4  10  21  38  61  84 110 145 194 245 287 339
#     4  12  22  37  62  90 120 154 189 237 291 347
#
# _framework density 18.395171999999999
#
# number of rings (size 3 to 8) (size 9 to 14) (size 15 to 20)
#    0.000    1.769    3.077    3.692    0.000    1.077 
#    1.385    0.000    0.000    4.615    0.000    2.154 
#    0.000    0.000    0.000    1.385    0.000    0.000 
#
# Total GULP energy -289976.082918 kJ/mol
# GULP energy per Si atom -5576.463133 kJ/mol
# Density = 1.835330 g / cm^3
# Si number density = 18.395172 Si / 1000 Ang^3
#
#
#
# Elastic Constant Matrix: (Units=GPa)
#
#
# Indices 1 2 3 4 5 6 
#
# 1 92.0444 28.7119 28.6786 0.0000 0.0000 0.0000
# 2 28.7119 45.7480 31.0058 0.0000 0.0000 0.0000
# 3 28.6786 31.0058 58.3511 0.0000 0.0000 0.0000
# 4 0.0000 0.0000 0.0000 19.1077 0.0000 0.0000
# 5 0.0000 0.0000 0.0000 0.0000 9.8859 0.0000
# 6 0.0000 0.0000 0.0000 0.0000 0.0000 29.2804
#
#
#
# Elastic Compliance Matrix: (Units=1/GPa)
#
#
# Indices 1 2 3 4 5 6 
#
# 1 0.013938 -0.006415 -0.003441 0.000000 0.000000 0.000000
# 2 -0.006415 0.037114 -0.016568 0.000000 0.000000 0.000000
# 3 -0.003441 -0.016568 0.027633 0.000000 0.000000 0.000000
# 4 0.000000 0.000000 0.000000 0.052335 0.000000 0.000000
# 5 0.000000 0.000000 0.000000 0.000000 0.101154 0.000000
# 6 0.000000 0.000000 0.000000 0.000000 0.000000 0.034153
#
#
# Mechanical properties :
#
#
# Convention : Reuss Voigt Hill
#
# Bulk Modulus (GPa) = 38.70683 41.43733 40.07208
# Shear Modulus (GPa) = 15.25379 18.83795 17.04587
#
# Velocity S-wave (km/s) = 2.88276 3.20358 3.04739
# Velocity P-wave (km/s) = 5.67168 6.02155 5.84923
#
# Compressibility (1/GPa) = 0.02583523
#
# Stress axis : x y z
#
# Youngs Moduli (GPa) = 71.74821 26.94387 36.18874
#
# Poissons Ratio (x) = 0.17284 0.12454
# Poissons Ratio (y) = 0.46026 0.59959
# Poissons Ratio (z) = 0.24692 0.44642
#
# Static dielectric constant tensor:
#      x y z
#    x 1.657130 0.000000 0.000000 
#    y 0.000000 1.655320 0.000000 
#    z 0.000000 0.000000 1.608970 
# 
# From -- ./inp_files/43839.got.cif
#   From: 2010.05.17/outbox.cif.g08.bks.cpg/sg71_22_cif.got.tgz:43839.got - 2010.06.03 16:22:01.
