data_PCOD9523787
_publ_section_title
;
Structure prediction by ZEFSAII (Michael W. Deem and Ramdas Pophale) SiO2 
 PCOD9523787
Probable space group: I M M M
;
_chemical_formula_sum "Si O2"
_cell_formula_units_Z 72
_cell_length_a 8.867662
_cell_length_b 23.211279
_cell_length_c 17.891496
_cell_angle_alpha 90.000000
_cell_angle_beta 90.000000
_cell_angle_gamma 90.000000
_cell_volume 3682.602628
_symmetry_space_group_name_H-M "I M M M"
_symmetry_group_IT_number 71
_symmetry_cell_setting 'orthorhombic'
loop_
_space_group_symop_operation_xyz
x,y,z
-x,-y,z
x,-y,-z
-x,y,-z
-x,-y,-z
x,y,-z
-x,y,z
x,-y,z
1/2+x,1/2+y,1/2+z
1/2-x,1/2-y,1/2+z
1/2+x,1/2-y,1/2-z
1/2-x,1/2+y,1/2-z
1/2-x,1/2-y,1/2-z
1/2+x,1/2+y,1/2-z
1/2-x,1/2+y,1/2+z
1/2+x,1/2-y,1/2+z
loop_
_atom_site_type_symbol
_atom_site_label
_atom_site_fract_x
_atom_site_fract_y
_atom_site_fract_z
Si Si1 0.819312 0.363909 0.139756
Si Si2 0.178975 0.383411 0.586877
Si Si3 0.823497 0.761146 0.089027
Si Si4 0.178744 0.065830 0.771547
Si Si5 0.318866 0.567742 0.000000
O O1 0.776097 0.296835 0.130960
O O2 0.764807 0.390923 0.217009
O O3 0.000000 0.366792 0.132908
O O4 0.746150 0.400526 0.072786
O O5 0.218945 0.393774 0.500000
O O6 0.226081 0.317573 0.604642
O O7 0.266401 0.423496 0.644363
O O8 0.000000 0.390688 0.595223
O O9 0.000000 0.773450 0.105407
O O10 0.813013 0.749008 0.000000
O O11 0.000000 0.075203 0.765830
O O12 0.210997 0.000000 0.748920
O O13 0.278488 0.500000 0.000000
O O14 0.500000 0.572000 0.000000
#
# Coordination Sequence:
#
# PCOD9523787 Si02
#       5
#    16  16  16  16   8
#     4  11  22  38  61  89 120 159 203 249 298 347
#     4  10  22  40  64  93 119 150 195 246 302 360
#     4   9  18  36  60  88 122 156 195 242 293 353
#     4  11  25  43  61  85 119 159 202 247 300 360
#     4  11  23  37  55  83 121 165 208 247 292 351
#
# _framework density 19.551389
#
# number of rings (size 3 to 8) (size 9 to 14) (size 15 to 20)
#    0.000    1.667    1.111    3.000    0.000    9.778 
#    0.000    2.222    0.000    0.000    0.000    0.000 
#    0.000    0.000    0.000    0.000    0.000    0.000 
#
# Total GULP energy -201250.407422 kJ/mol
# GULP energy per Si atom -5590.289095 kJ/mol
# Density = 1.950689 g / cm^3
# Si number density = 19.551389 Si / 1000 Ang^3
#
#
#
# Elastic Constant Matrix: (Units=GPa)
#
#
# Indices 1 2 3 4 5 6 
#
# 1 24.0856 0.8142 4.2392 0.0000 0.0000 0.0000
# 2 0.8142 14.3955 -0.9811 0.0000 0.0000 0.0000
# 3 4.2392 -0.9811 48.8187 -0.0001 0.0000 0.0000
# 4 0.0000 0.0000 -0.0001 23.7254 0.0000 0.0000
# 5 0.0000 0.0000 0.0000 0.0000 31.9867 0.0000
# 6 0.0000 0.0000 0.0000 0.0000 0.0000 30.7713
#
#
#
# Elastic Compliance Matrix: (Units=1/GPa)
#
#
# Indices 1 2 3 4 5 6 
#
# 1 0.042263 -0.002644 -0.003723 0.000000 0.000000 0.000000
# 2 -0.002644 0.069727 0.001631 0.000000 0.000000 0.000000
# 3 -0.003723 0.001631 0.020840 0.000000 0.000000 0.000000
# 4 0.000000 0.000000 0.000000 0.042149 0.000000 0.000000
# 5 0.000000 0.000000 0.000000 0.000000 0.031263 0.000000
# 6 0.000000 0.000000 0.000000 0.000000 0.000000 0.032498
#
#
# Mechanical properties :
#
#
# Convention : Reuss Voigt Hill
#
# Bulk Modulus (GPa) = 8.10653 10.60494 9.35573
# Shear Modulus (GPa) = 17.28123 22.84520 20.06322
#
# Velocity S-wave (km/s) = 2.97625 3.42200 3.20688
# Velocity P-wave (km/s) = 3.99575 4.58795 4.30205
#
# Compressibility (1/GPa) = 0.12335741
#
# Stress axis : x y z
#
# Youngs Moduli (GPa) = 23.66122 14.34172 47.98461
#
# Poissons Ratio (x) = 0.03792 0.17865
# Poissons Ratio (y) = 0.06256 -0.07825
# Poissons Ratio (z) = 0.08809 -0.02339
#
# Static dielectric constant tensor:
#      x y z
#    x 1.648110 0.000000 0.000000 
#    y 0.000000 1.669940 0.000000 
#    z 0.000000 0.000000 1.676010 
# 
# From -- ./inp_files/10102.got.cif
#   From: 2010.05.17/outbox.cif.g08.bks.cpg/sg71_6_cif.got.tgz:10102.got - 2010.06.03 16:22:01.
