data_PCOD9523027
_publ_section_title
;
Structure prediction by ZEFSAII (Michael W. Deem and Ramdas Pophale) SiO2 
 PCOD9523027
Probable space group: I M M M
;
_chemical_formula_sum "Si O2"
_cell_formula_units_Z 96
_cell_length_a 24.400459
_cell_length_b 24.609631
_cell_length_c 9.036288
_cell_angle_alpha 90.000000
_cell_angle_beta 90.000000
_cell_angle_gamma 90.000000
_cell_volume 5426.167077
_symmetry_space_group_name_H-M "I M M M"
_symmetry_group_IT_number 71
_symmetry_cell_setting 'orthorhombic'
loop_
_space_group_symop_operation_xyz
x,y,z
-x,-y,z
x,-y,-z
-x,y,-z
-x,-y,-z
x,y,-z
-x,y,z
x,-y,z
1/2+x,1/2+y,1/2+z
1/2-x,1/2-y,1/2+z
1/2+x,1/2-y,1/2-z
1/2-x,1/2+y,1/2-z
1/2-x,1/2-y,1/2-z
1/2+x,1/2+y,1/2-z
1/2-x,1/2+y,1/2+z
1/2+x,1/2-y,1/2+z
loop_
_atom_site_type_symbol
_atom_site_label
_atom_site_fract_x
_atom_site_fract_y
_atom_site_fract_z
Si Si1 0.436487 0.150819 0.175831
Si Si2 0.062908 0.768311 0.821012
Si Si3 0.063899 0.935314 0.663245
Si Si4 0.640767 0.062147 0.677508
Si Si5 0.230404 0.938114 0.677633
Si Si6 0.642504 0.636008 0.672535
O O1 0.500000 0.135369 0.203885
O O2 0.427755 0.209009 0.253287
O O3 0.396180 0.105861 0.240894
O O4 0.429117 0.156384 0.000000
O O5 0.111115 0.809566 0.773455
O O6 0.000000 0.785324 0.779828
O O7 0.064229 0.765934 0.000000
O O8 0.084578 0.916902 0.500000
O O9 0.096390 0.909098 0.795831
O O10 0.000000 0.921932 0.671519
O O11 0.069107 0.000000 0.666231
O O12 0.635225 0.068408 0.500000
O O13 0.705300 0.068373 0.713022
O O14 0.625223 0.000000 0.714966
O O15 0.224898 0.936972 0.500000
O O16 0.194798 0.889695 0.746019
O O17 0.213612 0.000000 0.724853
O O18 0.654745 0.642394 0.500000
#
# Coordination Sequence:
#
# PCOD9523027 Si02
#       6
#    16  16  16  16  16  16
#     4  10  21  36  56  84 113 137 165 207 259 311
#     4   9  19  36  54  72 101 141 180 218 260 308
#     4   9  18  31  45  63  91 129 171 215 265 318
#     4   9  19  37  60  83 107 139 176 209 247 303
#     4   9  19  36  55  75 103 140 180 219 258 305
#     4  11  21  31  48  75 102 132 175 222 267 312
#
# _framework density 17.692046999999999
#
# number of rings (size 3 to 8) (size 9 to 14) (size 15 to 20)
#    0.000    2.500    0.000    3.500    0.000    7.333 
#    0.000    6.667    0.000    0.000    0.000    0.000 
#    0.000    0.000    0.000    0.000    0.000    0.000 
#
# Total GULP energy -267555.711179 kJ/mol
# GULP energy per Si atom -5574.077316 kJ/mol
# Density = 1.765178 g / cm^3
# Si number density = 17.692047 Si / 1000 Ang^3
#
#
#
# Elastic Constant Matrix: (Units=GPa)
#
#
# Indices 1 2 3 4 5 6 
#
# 1 92.9889 79.3919 37.8832 0.0000 0.0000 0.0000
# 2 79.3919 115.2942 41.9974 0.0000 0.0000 0.0000
# 3 37.8832 41.9974 24.7664 0.0000 0.0000 0.0000
# 4 0.0000 0.0000 0.0000 25.9193 0.0000 0.0000
# 5 0.0000 0.0000 0.0000 0.0000 30.0979 0.0000
# 6 0.0000 0.0000 0.0000 0.0000 0.0000 37.6664
#
#
#
# Elastic Compliance Matrix: (Units=1/GPa)
#
#
# Indices 1 2 3 4 5 6 
#
# 1 0.033519 -0.011522 -0.031733 0.000000 0.000000 0.000000
# 2 -0.011522 0.026648 -0.027563 0.000000 0.000000 0.000000
# 3 -0.031733 -0.027563 0.135657 0.000000 0.000000 0.000000
# 4 0.000000 0.000000 0.000000 0.038581 0.000000 0.000000
# 5 0.000000 0.000000 0.000000 0.000000 0.033225 0.000000
# 6 0.000000 0.000000 0.000000 0.000000 0.000000 0.026549
#
#
# Mechanical properties :
#
#
# Convention : Reuss Voigt Hill
#
# Bulk Modulus (GPa) = 18.45465 61.28827 39.87146
# Shear Modulus (GPa) = 11.01617 23.65519 17.33568
#
# Velocity S-wave (km/s) = 2.49803 3.66054 3.13366
# Velocity P-wave (km/s) = 4.33288 7.25141 5.97314
#
# Compressibility (1/GPa) = 0.05418687
#
# Stress axis : x y z
#
# Youngs Moduli (GPa) = 29.83350 37.52611 7.37156
#
# Poissons Ratio (x) = 0.43239 0.23392
# Poissons Ratio (y) = 0.34375 0.20318
# Poissons Ratio (z) = 0.94670 1.03434
#
# Static dielectric constant tensor:
#      x y z
#    x 1.610580 0.000000 0.000000 
#    y 0.000000 1.591510 0.000000 
#    z 0.000000 0.000000 1.607310 
# 
# From -- ./inp_files/12845.got.cif
#   From: 2010.05.17/outbox.cif.g08.bks.cpg/sg71_7_cif.got.tgz:12845.got - 2010.06.03 16:22:01.
