data_PCOD9523478
_publ_section_title
;
Structure prediction by ZEFSAII (Michael W. Deem and Ramdas Pophale) SiO2 
 PCOD9523478
Probable space group: I M M M
;
_chemical_formula_sum "Si O2"
_cell_formula_units_Z 58
_cell_length_a 16.552807
_cell_length_b 18.904312
_cell_length_c 10.220123
_cell_angle_alpha 90.000000
_cell_angle_beta 90.000000
_cell_angle_gamma 90.000000
_cell_volume 3198.075043
_symmetry_space_group_name_H-M "I M M M"
_symmetry_group_IT_number 71
_symmetry_cell_setting 'orthorhombic'
loop_
_space_group_symop_operation_xyz
x,y,z
-x,-y,z
x,-y,-z
-x,y,-z
-x,-y,-z
x,y,-z
-x,y,z
x,-y,z
1/2+x,1/2+y,1/2+z
1/2-x,1/2-y,1/2+z
1/2+x,1/2-y,1/2-z
1/2-x,1/2+y,1/2-z
1/2-x,1/2-y,1/2-z
1/2+x,1/2+y,1/2-z
1/2-x,1/2+y,1/2+z
1/2+x,1/2-y,1/2+z
loop_
_atom_site_type_symbol
_atom_site_label
_atom_site_fract_x
_atom_site_fract_y
_atom_site_fract_z
Si Si1 0.000000 0.081976 0.158783
Si Si2 0.500000 0.000000 0.500000
Si Si3 0.140010 0.191192 0.154013
Si Si4 0.332667 0.922007 0.500000
Si Si5 0.596082 0.079797 0.000000
Si Si6 0.177063 0.338119 0.266560
O O1 0.921128 0.128707 0.195378
O O2 0.000000 0.000000 0.205265
O O3 0.000000 0.078377 0.000000
O O4 0.428122 0.939719 0.500000
O O5 0.133695 0.263557 0.235792
O O6 0.233873 0.171463 0.172828
O O7 0.124743 0.205444 0.000000
O O8 0.313013 0.878823 0.370150
O O9 0.292581 0.000000 0.500000
O O10 0.625972 0.118083 0.129932
O O11 0.500000 0.077690 0.000000
O O12 0.628315 0.000000 0.000000
#
# Coordination Sequence:
#
# PCOD9523478 Si02
#       6
#     8   2  16   8   8  16
#     4   9  20  37  59  90 120 156 207 258 313 368
#     4   8  24  36  56  86 128 146 222 230 300 376
#     4  10  21  39  62  92 119 159 211 259 306 370
#     4  10  22  37  59  88 121 167 200 250 302 370
#     4  11  26  39  58  92 131 163 201 246 314 379
#     4  11  22  40  63  88 125 166 206 254 308 373
#
# _framework density 18.135909999999999
#
# number of rings (size 3 to 8) (size 9 to 14) (size 15 to 20)
#    0.414    1.379    2.759    0.828    3.862    2.207 
#    0.000    0.000    0.000    0.000    0.000    2.897 
#    0.000    0.000    0.000    0.000    0.000    0.000 
#
# Total GULP energy -161442.224912 kJ/mol
# GULP energy per Si atom -5566.973273 kJ/mol
# Density = 1.809463 g / cm^3
# Si number density = 18.135910 Si / 1000 Ang^3
#
#
#
# Elastic Constant Matrix: (Units=GPa)
#
#
# Indices 1 2 3 4 5 6 
#
# 1 55.6214 54.6537 16.4257 0.0000 0.0000 0.0000
# 2 54.6537 168.1196 49.0829 0.0000 0.0000 0.0000
# 3 16.4257 49.0829 88.1628 0.0000 0.0000 0.0000
# 4 0.0000 0.0000 0.0000 18.9978 0.0000 0.0000
# 5 0.0000 0.0000 0.0000 0.0000 15.1151 0.0000
# 6 0.0000 0.0000 0.0000 0.0000 0.0000 19.3219
#
#
#
# Elastic Compliance Matrix: (Units=1/GPa)
#
#
# Indices 1 2 3 4 5 6 
#
# 1 0.026419 -0.008540 -0.000168 0.000000 0.000000 0.000000
# 2 -0.008540 0.009863 -0.003900 0.000000 0.000000 0.000000
# 3 -0.000168 -0.003900 0.013545 0.000000 0.000000 0.000000
# 4 0.000000 0.000000 0.000000 0.052638 0.000000 0.000000
# 5 0.000000 0.000000 0.000000 0.000000 0.066159 0.000000
# 6 0.000000 0.000000 0.000000 0.000000 0.000000 0.051755
#
#
# Mechanical properties :
#
#
# Convention : Reuss Voigt Hill
#
# Bulk Modulus (GPa) = 40.62995 61.35870 50.99432
# Shear Modulus (GPa) = 19.70070 23.46972 21.58521
#
# Velocity S-wave (km/s) = 3.29945 3.60127 3.45366
# Velocity P-wave (km/s) = 6.08004 7.15530 6.63947
#
# Compressibility (1/GPa) = 0.02461239
#
# Stress axis : x y z
#
# Youngs Moduli (GPa) = 37.85109 101.39053 73.82714
#
# Poissons Ratio (x) = 0.86583 0.01240
# Poissons Ratio (y) = 0.32323 0.28792
# Poissons Ratio (z) = 0.00636 0.39542
#
# Static dielectric constant tensor:
#      x y z
#    x 1.597020 0.000000 0.000000 
#    y 0.000000 1.652570 0.000000 
#    z 0.000000 0.000000 1.596120 
# 
# From -- ./inp_files/7296.got.cif
#   From: 2010.05.17/outbox.cif.g08.bks.cpg/sg71_4_cif.got.tgz:7296.got - 2010.06.03 16:22:01.
