data_PCOD9523333
_publ_section_title
;
Structure prediction by ZEFSAII (Michael W. Deem and Ramdas Pophale) SiO2 
 PCOD9523333
Probable space group: I M M M
;
_chemical_formula_sum "Si O2"
_cell_formula_units_Z 108
_cell_length_a 17.496991
_cell_length_b 13.827435
_cell_length_c 22.670889
_cell_angle_alpha 90.000000
_cell_angle_beta 90.000000
_cell_angle_gamma 90.000000
_cell_volume 5484.961009
_symmetry_space_group_name_H-M "I M M M"
_symmetry_group_IT_number 71
_symmetry_cell_setting 'orthorhombic'
loop_
_space_group_symop_operation_xyz
x,y,z
-x,-y,z
x,-y,-z
-x,y,-z
-x,-y,-z
x,y,-z
-x,y,z
x,-y,z
1/2+x,1/2+y,1/2+z
1/2-x,1/2-y,1/2+z
1/2+x,1/2-y,1/2-z
1/2-x,1/2+y,1/2-z
1/2-x,1/2-y,1/2-z
1/2+x,1/2+y,1/2-z
1/2-x,1/2+y,1/2+z
1/2+x,1/2-y,1/2+z
loop_
_atom_site_type_symbol
_atom_site_label
_atom_site_fract_x
_atom_site_fract_y
_atom_site_fract_z
Si Si1 0.332269 0.782755 0.273057
Si Si2 0.089494 0.615921 0.000000
Si Si3 0.409036 0.608311 0.773047
Si Si4 0.631290 0.383938 0.907658
Si Si5 0.298239 0.196098 0.595941
Si Si6 0.784498 0.613709 0.569837
Si Si7 0.000000 0.829232 0.500000
Si Si8 0.413093 0.884004 0.835612
O O1 0.250000 0.750000 0.250000
O O2 0.381164 0.684564 0.274568
O O3 0.319243 0.827410 0.336785
O O4 0.373579 0.848282 0.224338
O O5 0.133803 0.660028 0.944563
O O6 0.097523 0.500000 0.000000
O O7 0.000000 0.639438 0.000000
O O8 0.500000 0.605673 0.774754
O O9 0.379509 0.500000 0.762015
O O10 0.381552 0.639098 0.838402
O O11 0.621789 0.500000 0.914435
O O12 0.717890 0.353678 0.921986
O O13 0.567498 0.336713 0.948733
O O14 0.280599 0.310472 0.588429
O O15 0.799714 0.624641 0.500000
O O16 0.766625 0.500000 0.580542
O O17 0.858732 0.639944 0.609013
O O18 0.500000 0.846496 0.840883
O O19 0.417039 0.000000 0.834237
#
# Coordination Sequence:
#
# PCOD9523333 Si02
#       8
#    16   8  16  16  16  16   4  16
#     4  12  23  38  62  92 125 167 215 262 312 374
#     4  11  27  50  72  95 127 162 206 271 335 389
#     4  10  21  38  58  86 128 170 207 257 315 371
#     4  11  21  35  58  91 131 171 209 255 308 380
#     4  12  24  43  67  96 124 165 219 266 324 382
#     4  10  21  40  66  94 128 170 213 260 316 373
#     4  12  23  36  58  94 137 178 211 242 304 388
#     4  10  22  40  62  94 135 173 214 264 314 374
#
# _framework density 19.690203
#
# number of rings (size 3 to 8) (size 9 to 14) (size 15 to 20)
#    0.000    1.111    4.444    2.000    0.000    3.852 
#    1.333    2.963    0.000    0.889    0.000    0.000 
#    0.000    0.000    0.000    0.000    0.000    0.000 
#
# Total GULP energy -301350.420756 kJ/mol
# GULP energy per Si atom -5580.563347 kJ/mol
# Density = 1.964539 g / cm^3
# Si number density = 19.690203 Si / 1000 Ang^3
#
#
#
# Elastic Constant Matrix: (Units=GPa)
#
#
# Indices 1 2 3 4 5 6 
#
# 1 138.8476 35.3706 47.6356 0.0000 0.0000 0.0000
# 2 35.3706 54.9201 13.5643 0.0000 0.0000 0.0000
# 3 47.6356 13.5643 96.2078 0.0000 0.0000 0.0000
# 4 0.0000 0.0000 0.0000 13.4770 0.0000 0.0000
# 5 0.0000 0.0000 0.0000 0.0000 30.7184 0.0000
# 6 0.0000 0.0000 0.0000 0.0000 0.0000 31.0179
#
#
#
# Elastic Compliance Matrix: (Units=1/GPa)
#
#
# Indices 1 2 3 4 5 6 
#
# 1 0.010023 -0.005418 -0.004199 0.000000 0.000000 0.000000
# 2 -0.005418 0.021794 -0.000390 0.000000 0.000000 0.000000
# 3 -0.004199 -0.000390 0.012528 0.000000 0.000000 0.000000
# 4 0.000000 0.000000 0.000000 0.074200 0.000000 0.000000
# 5 0.000000 0.000000 0.000000 0.000000 0.032554 0.000000
# 6 0.000000 0.000000 0.000000 0.000000 0.000000 0.032239
#
#
# Mechanical properties :
#
#
# Convention : Reuss Voigt Hill
#
# Bulk Modulus (GPa) = 41.09945 53.67959 47.38952
# Shear Modulus (GPa) = 23.64481 27.93633 25.79057
#
# Velocity S-wave (km/s) = 3.46907 3.77077 3.62307
# Velocity P-wave (km/s) = 6.07983 6.80291 6.45151
#
# Compressibility (1/GPa) = 0.02433123
#
# Stress axis : x y z
#
# Youngs Moduli (GPa) = 99.77185 45.88409 79.82052
#
# Poissons Ratio (x) = 0.24860 0.33515
# Poissons Ratio (y) = 0.54057 0.03114
# Poissons Ratio (z) = 0.41892 0.01790
#
# Static dielectric constant tensor:
#      x y z
#    x 1.523770 0.000000 0.000000 
#    y 0.000000 1.804640 0.000000 
#    z 0.000000 0.000000 1.679390 
# 
# From -- ./inp_files/59968.got.cif
#   From: 2010.05.17/outbox.cif.g08.bks.cpg/sg71_30_cif.got.tgz:59968.got - 2010.06.03 16:22:01.
