data_PCOD9523719
_publ_section_title
;
Structure prediction by ZEFSAII (Michael W. Deem and Ramdas Pophale) SiO2 
 PCOD9523719
Probable space group: I M M M
;
_chemical_formula_sum "Si O2"
_cell_formula_units_Z 88
_cell_length_a 18.712134
_cell_length_b 12.450030
_cell_length_c 17.977664
_cell_angle_alpha 90.000000
_cell_angle_beta 90.000000
_cell_angle_gamma 90.000000
_cell_volume 4188.195791
_symmetry_space_group_name_H-M "I M M M"
_symmetry_group_IT_number 71
_symmetry_cell_setting 'orthorhombic'
loop_
_space_group_symop_operation_xyz
x,y,z
-x,-y,z
x,-y,-z
-x,y,-z
-x,-y,-z
x,y,-z
-x,y,z
x,-y,z
1/2+x,1/2+y,1/2+z
1/2-x,1/2-y,1/2+z
1/2+x,1/2-y,1/2-z
1/2-x,1/2+y,1/2-z
1/2-x,1/2-y,1/2-z
1/2+x,1/2+y,1/2-z
1/2-x,1/2+y,1/2+z
1/2+x,1/2-y,1/2+z
loop_
_atom_site_type_symbol
_atom_site_label
_atom_site_fract_x
_atom_site_fract_y
_atom_site_fract_z
Si Si1 0.415579 0.335985 0.779728
Si Si2 0.713683 0.687043 0.317646
Si Si3 0.500000 0.871162 0.416438
Si Si4 0.585978 0.500000 0.087639
Si Si5 0.135237 0.380954 0.342438
Si Si6 0.343045 0.876880 0.410033
Si Si7 0.420973 0.870285 0.000000
O O1 0.500000 0.355690 0.764636
O O2 0.359323 0.364709 0.714070
O O3 0.396305 0.399493 0.856872
O O4 0.400633 0.209466 0.791753
O O5 0.750000 0.750000 0.250000
O O6 0.779335 0.612655 0.339259
O O7 0.702400 0.779217 0.379198
O O8 0.500000 0.823870 0.500000
O O9 0.423440 0.848557 0.382307
O O10 0.500000 0.000000 0.424060
O O11 0.500000 0.500000 0.080952
O O12 0.613067 0.500000 0.000000
O O13 0.105184 0.500000 0.328434
O O14 0.117506 0.342150 0.425053
O O15 0.343740 0.878623 0.500000
O O16 0.324605 0.000000 0.386041
O O17 0.500000 0.822627 0.000000
O O18 0.425898 0.000000 0.000000
#
# Coordination Sequence:
#
# PCOD9523719 Si02
#       7
#    16  16   8   8  16  16   8
#     4  10  22  40  64  94 123 161 213 264 324 389
#     4  10  23  38  55  84 126 170 206 256 317 391
#     4   7  12  26  52  88 121 147 185 254 321 364
#     4   9  20  40  66  94 125 161 209 272 329 383
#     4  10  22  39  59  86 124 164 203 254 321 389
#     4   9  18  35  61  91 123 161 211 265 321 382
#     4   9  18  34  60  89 114 148 199 259 311 359
#
# _framework density 21.011434999999999
#
# number of rings (size 3 to 8) (size 9 to 14) (size 15 to 20)
#    0.000    2.636    0.000    1.636    5.091    4.000 
#    4.909    0.000    0.000    0.000    0.000    0.000 
#    0.000    6.545    0.000    0.000    0.000    0.000 
#
# Total GULP energy -244941.764296 kJ/mol
# GULP energy per Si atom -5566.858279 kJ/mol
# Density = 2.096361 g / cm^3
# Si number density = 21.011435 Si / 1000 Ang^3
#
#
#
# Elastic Constant Matrix: (Units=GPa)
#
#
# Indices 1 2 3 4 5 6 
#
# 1 89.9630 15.1608 32.7684 0.0000 0.0000 0.0000
# 2 15.1608 95.3237 21.7145 0.0000 0.0000 0.0000
# 3 32.7684 21.7145 79.6105 0.0000 0.0000 0.0000
# 4 0.0000 0.0000 0.0000 25.9019 0.0000 0.0000
# 5 0.0000 0.0000 0.0000 0.0000 26.5676 0.0000
# 6 0.0000 0.0000 0.0000 0.0000 0.0000 94.8521
#
#
#
# Elastic Compliance Matrix: (Units=1/GPa)
#
#
# Indices 1 2 3 4 5 6 
#
# 1 0.013151 -0.000915 -0.005163 0.000000 0.000000 0.000000
# 2 -0.000915 0.011249 -0.002692 0.000000 0.000000 0.000000
# 3 -0.005163 -0.002692 0.015421 0.000000 0.000000 0.000000
# 4 0.000000 0.000000 0.000000 0.038607 0.000000 0.000000
# 5 0.000000 0.000000 0.000000 0.000000 0.037640 0.000000
# 6 0.000000 0.000000 0.000000 0.000000 0.000000 0.010543
#
#
# Mechanical properties :
#
#
# Convention : Reuss Voigt Hill
#
# Bulk Modulus (GPa) = 44.88313 44.90941 44.89627
# Shear Modulus (GPa) = 32.98649 42.48123 37.73386
#
# Velocity S-wave (km/s) = 3.96653 4.50134 4.24237
# Velocity P-wave (km/s) = 6.51042 6.95962 6.73876
#
# Compressibility (1/GPa) = 0.02228008
#
# Stress axis : x y z
#
# Youngs Moduli (GPa) = 76.04208 88.89449 64.84853
#
# Poissons Ratio (x) = 0.08137 0.33483
# Poissons Ratio (y) = 0.06961 0.17454
# Poissons Ratio (z) = 0.39262 0.23927
#
# Static dielectric constant tensor:
#      x y z
#    x 1.305340 0.000000 0.000000 
#    y 0.000000 1.770870 0.000000 
#    z 0.000000 0.000000 1.785250 
# 
# From -- ./inp_files/53977.got.cif
#   From: 2010.05.17/outbox.cif.g08.bks.cpg/sg71_27_cif.got.tgz:53977.got - 2010.06.03 16:22:01.
