data_PCOD9523224
_publ_section_title
;
Structure prediction by ZEFSAII (Michael W. Deem and Ramdas Pophale) SiO2 
 PCOD9523224
Probable space group: I M M M
;
_chemical_formula_sum "Si O2"
_cell_formula_units_Z 88
_cell_length_a 8.576785
_cell_length_b 20.254004
_cell_length_c 24.895731
_cell_angle_alpha 90.000000
_cell_angle_beta 90.000000
_cell_angle_gamma 90.000000
_cell_volume 4324.742933
_symmetry_space_group_name_H-M "I M M M"
_symmetry_group_IT_number 71
_symmetry_cell_setting 'orthorhombic'
loop_
_space_group_symop_operation_xyz
x,y,z
-x,-y,z
x,-y,-z
-x,y,-z
-x,-y,-z
x,y,-z
-x,y,z
x,-y,z
1/2+x,1/2+y,1/2+z
1/2-x,1/2-y,1/2+z
1/2+x,1/2-y,1/2-z
1/2-x,1/2+y,1/2-z
1/2-x,1/2-y,1/2-z
1/2+x,1/2+y,1/2-z
1/2-x,1/2+y,1/2+z
1/2+x,1/2-y,1/2+z
loop_
_atom_site_type_symbol
_atom_site_label
_atom_site_fract_x
_atom_site_fract_y
_atom_site_fract_z
Si Si1 0.317347 0.573434 0.581244
Si Si2 0.814277 0.818077 0.276028
Si Si3 0.681769 0.835792 0.394512
Si Si4 0.189830 0.578335 0.000000
Si Si5 0.679921 0.925923 0.197302
Si Si6 0.327736 0.211465 0.938848
O O1 0.500000 0.580334 0.568643
O O2 0.266167 0.500000 0.563668
O O3 0.288073 0.576206 0.644996
O O4 0.222588 0.635624 0.560525
O O5 0.750000 0.750000 0.250000
O O6 0.768503 0.836093 0.337365
O O7 0.738551 0.874319 0.239735
O O8 0.000000 0.816857 0.271585
O O9 0.500000 0.851032 0.385918
O O10 0.737351 0.882384 0.444806
O O11 0.704372 0.759496 0.411807
O O12 0.235077 0.500000 0.000000
O O13 0.000000 0.580406 0.000000
O O14 0.500000 0.912993 0.181052
O O15 0.686001 0.000000 0.219511
O O16 0.500000 0.218684 0.913669
O O17 0.337192 0.233941 0.000000
#
# Coordination Sequence:
#
# PCOD9523224 Si02
#       6
#    16  16  16   8  16  16
#     4  10  21  37  58  85 118 156 198 245 297 354
#     4  12  25  41  62  91 127 165 209 260 315 378
#     4  11  22  40  65  92 123 161 206 258 316 376
#     4   9  20  40  67  97 126 161 208 261 317 380
#     4  10  21  39  62  87 118 156 198 244 298 361
#     4  11  23  38  58  83 116 156 199 246 298 356
#
# _framework density 20.348030999999999
#
# number of rings (size 3 to 8) (size 9 to 14) (size 15 to 20)
#    0.000    1.364    0.909    4.909    0.000    4.364 
#    0.000    3.636    0.000    3.818    0.000    0.000 
#    0.000    0.000    0.000    0.000    0.000    0.000 
#
# Total GULP energy -245564.393149 kJ/mol
# GULP energy per Si atom -5581.008935 kJ/mol
# Density = 2.030172 g / cm^3
# Si number density = 20.348031 Si / 1000 Ang^3
#
#
#
# Elastic Constant Matrix: (Units=GPa)
#
#
# Indices 1 2 3 4 5 6 
#
# 1 55.0559 16.9082 -0.9497 0.0000 0.0000 0.0000
# 2 16.9082 102.7547 49.3727 0.0000 0.0000 0.0000
# 3 -0.9497 49.3727 90.9223 0.0000 0.0000 0.0000
# 4 0.0000 0.0000 0.0000 36.9246 0.0000 0.0000
# 5 0.0000 0.0000 0.0000 0.0000 22.6135 0.0000
# 6 0.0000 0.0000 0.0000 0.0000 0.0000 23.1287
#
#
#
# Elastic Compliance Matrix: (Units=1/GPa)
#
#
# Indices 1 2 3 4 5 6 
#
# 1 0.019589 -0.004494 0.002645 0.000000 0.000000 0.000000
# 2 -0.004494 0.014199 -0.007757 0.000000 0.000000 0.000000
# 3 0.002645 -0.007757 0.015238 0.000000 0.000000 0.000000
# 4 0.000000 0.000000 0.000000 0.027082 0.000000 0.000000
# 5 0.000000 0.000000 0.000000 0.000000 0.044221 0.000000
# 6 0.000000 0.000000 0.000000 0.000000 0.000000 0.043236
#
#
# Mechanical properties :
#
#
# Convention : Reuss Voigt Hill
#
# Bulk Modulus (GPa) = 33.54178 42.15502 37.84840
# Shear Modulus (GPa) = 25.94481 28.76014 27.35248
#
# Velocity S-wave (km/s) = 3.57466 3.76361 3.67035
# Velocity P-wave (km/s) = 5.79288 6.29670 6.05003
#
# Compressibility (1/GPa) = 0.02981357
#
# Stress axis : x y z
#
# Youngs Moduli (GPa) = 51.04842 70.42902 65.62407
#
# Poissons Ratio (x) = 0.31653 -0.17359
# Poissons Ratio (y) = 0.22943 0.50905
# Poissons Ratio (z) = -0.13503 0.54633
#
# Static dielectric constant tensor:
#      x y z
#    x 1.706390 0.000000 0.000000 
#    y 0.000000 1.702690 0.000000 
#    z 0.000000 0.000000 1.762920 
# 
# From -- ./inp_files/57572.got.cif
#   From: 2010.05.17/outbox.cif.g08.bks.cpg/sg71_29_cif.got.tgz:57572.got - 2010.06.03 16:22:01.
