data_PCOD9523661
_publ_section_title
;
Structure prediction by ZEFSAII (Michael W. Deem and Ramdas Pophale) SiO2 
 PCOD9523661
Probable space group: I M M M
;
_chemical_formula_sum "Si O2"
_cell_formula_units_Z 40
_cell_length_a 8.363710
_cell_length_b 18.126041
_cell_length_c 10.749521
_cell_angle_alpha 90.000000
_cell_angle_beta 90.000000
_cell_angle_gamma 90.000000
_cell_volume 1629.637600
_symmetry_space_group_name_H-M "I M M M"
_symmetry_group_IT_number 71
_symmetry_cell_setting 'orthorhombic'
loop_
_space_group_symop_operation_xyz
x,y,z
-x,-y,z
x,-y,-z
-x,y,-z
-x,-y,-z
x,y,-z
-x,y,z
x,-y,z
1/2+x,1/2+y,1/2+z
1/2-x,1/2-y,1/2+z
1/2+x,1/2-y,1/2-z
1/2-x,1/2+y,1/2-z
1/2-x,1/2-y,1/2-z
1/2+x,1/2+y,1/2-z
1/2-x,1/2+y,1/2+z
1/2+x,1/2-y,1/2+z
loop_
_atom_site_type_symbol
_atom_site_label
_atom_site_fract_x
_atom_site_fract_y
_atom_site_fract_z
Si Si1 0.500000 0.756312 0.640984
Si Si2 0.679203 0.619313 0.277190
Si Si3 0.000000 0.626246 0.362985
Si Si4 0.809053 0.916685 0.500000
O O1 0.500000 0.784916 0.500000
O O2 0.352575 0.699285 0.662003
O O3 0.500000 0.813233 0.753522
O O4 0.500000 0.584726 0.286242
O O5 0.831987 0.584853 0.343643
O O6 0.723853 0.622168 0.130891
O O7 0.000000 0.659595 0.500000
O O8 0.000000 0.923457 0.500000
O O9 0.739749 0.000000 0.500000
#
# Coordination Sequence:
#
# PCOD9523661 Si02
#       4
#     8  16   8   8
#     4  10  22  38  56  83 125 163 197 242 294 351
#     4   9  22  37  57  86 121 146 199 251 295 346
#     4  12  24  36  60  83 121 169 201 232 302 353
#     4   9  18  39  69  93 114 155 205 254 306 354
#
# _framework density 24.545332999999999
#
# number of rings (size 3 to 8) (size 9 to 14) (size 15 to 20)
#    1.200    1.000    0.000    2.400    5.600    0.000 
#    0.000    2.000    0.000    7.200    0.000    0.000 
#    0.000    0.000    0.000    0.000    0.000    0.000 
#
# Total GULP energy -111445.259014 kJ/mol
# GULP energy per Si atom -5572.262951 kJ/mol
# Density = 2.448947 g / cm^3
# Si number density = 24.545333 Si / 1000 Ang^3
#
#
#
# Elastic Constant Matrix: (Units=GPa)
#
#
# Indices 1 2 3 4 5 6 
#
# 1 198.6741 15.8493 52.3672 0.0000 0.0000 0.0000
# 2 15.8493 71.4426 44.1228 -0.0004 0.0001 0.0000
# 3 52.3672 44.1228 212.2044 -0.0005 0.0001 0.0000
# 4 0.0000 -0.0004 -0.0005 -56.0914 0.0001 0.0000
# 5 0.0000 0.0001 0.0001 0.0001 34.1716 0.0000
# 6 0.0000 0.0000 0.0000 0.0000 0.0000 -22.6021
#
#
#
# Elastic Compliance Matrix: (Units=1/GPa)
#
#
# Indices 1 2 3 4 5 6 
#
# 1 0.005395 -0.000430 -0.001242 0.000000 0.000000 0.000000
# 2 -0.000430 0.016094 -0.003240 0.000000 0.000000 0.000000
# 3 -0.001242 -0.003240 0.005693 0.000000 0.000000 0.000000
# 4 0.000000 0.000000 0.000000 -0.017828 0.000000 0.000000
# 5 0.000000 0.000000 0.000000 0.000000 0.029264 0.000000
# 6 0.000000 0.000000 0.000000 0.000000 0.000000 -0.044244
#
#
# Mechanical properties :
#
#
# Convention : Reuss Voigt Hill
#
# Bulk Modulus (GPa) = 57.61250 78.55553 68.08401
# Shear Modulus (GPa) = 500.82123 15.76109 258.29116
#
# Velocity S-wave (km/s) = 14.29973 2.53676 10.26931
# Velocity P-wave (km/s) = 17.20947 6.37604 12.97728
#
# Compressibility (1/GPa) = 0.01735734
#
# Stress axis : x y z
#
# Youngs Moduli (GPa) = 185.35588 62.13586 175.66460
#
# Poissons Ratio (x) = 0.02671 0.21818
# Poissons Ratio (y) = 0.07967 0.56920
# Poissons Ratio (z) = 0.23021 0.20134
#
# Static dielectric constant tensor:
#      x y z
#    x 2.072540 0.000000 0.000000 
#    y 0.000000 1.953440 0.000000 
#    z 0.000000 0.000000 1.875170 
# 
# From -- ./inp_files/1991.got.cif
#   From: 2010.05.17/outbox.cif.g08.bks.cpg/sg71_1_cif.got.tgz:1991.got - 2010.06.03 16:22:01.
