data_PCOD9523867
_publ_section_title
;
Structure prediction by ZEFSAII (Michael W. Deem and Ramdas Pophale) SiO2 
 PCOD9523867
Probable space group: I M M M
;
_chemical_formula_sum "Si O2"
_cell_formula_units_Z 84
_cell_length_a 11.547956
_cell_length_b 30.197691
_cell_length_c 12.045146
_cell_angle_alpha 90.000000
_cell_angle_beta 90.000000
_cell_angle_gamma 90.000000
_cell_volume 4200.402669
_symmetry_space_group_name_H-M "I M M M"
_symmetry_group_IT_number 71
_symmetry_cell_setting 'orthorhombic'
loop_
_space_group_symop_operation_xyz
x,y,z
-x,-y,z
x,-y,-z
-x,y,-z
-x,-y,-z
x,y,-z
-x,y,z
x,-y,z
1/2+x,1/2+y,1/2+z
1/2-x,1/2-y,1/2+z
1/2+x,1/2-y,1/2-z
1/2-x,1/2+y,1/2-z
1/2-x,1/2-y,1/2-z
1/2+x,1/2+y,1/2-z
1/2-x,1/2+y,1/2+z
1/2+x,1/2-y,1/2+z
loop_
_atom_site_type_symbol
_atom_site_label
_atom_site_fract_x
_atom_site_fract_y
_atom_site_fract_z
Si Si1 0.771863 0.197978 0.742424
Si Si2 0.137395 0.074232 0.500000
Si Si3 0.360843 0.875639 0.131718
Si Si4 0.256151 0.948958 0.270935
Si Si5 0.000000 0.446840 0.119611
Si Si6 0.252406 0.168119 0.500000
Si Si7 0.000000 0.289847 0.000000
Si Si8 0.000000 0.200922 0.123648
O O1 0.750000 0.250000 0.750000
O O2 0.670716 0.167319 0.793744
O O3 0.794196 0.187681 0.614224
O O4 0.885932 0.187638 0.812423
O O5 0.171571 0.053268 0.620770
O O6 0.215495 0.117756 0.500000
O O7 0.000000 0.081839 0.500000
O O8 0.500000 0.886596 0.144482
O O9 0.265872 0.912921 0.171955
O O10 0.344907 0.867160 0.000000
O O11 0.381096 0.937302 0.322357
O O12 0.253756 0.000000 0.231099
O O13 0.000000 0.500000 0.109398
O O14 0.000000 0.425471 0.000000
O O15 0.387269 0.180381 0.500000
O O16 0.000000 0.254584 0.102172
O O17 0.000000 0.181926 0.000000
#
# Coordination Sequence:
#
# PCOD9523867 Si02
#       8
#    16   8  16  16   8   8   4   8
#     4  12  25  42  67  98 133 178 230 280 334 405
#     4  12  27  44  61 102 143 176 218 280 348 409
#     4  11  26  44  66 101 141 178 221 277 343 407
#     4  11  22  41  70  96 131 176 218 274 338 408
#     4   9  16  29  58  97 124 157 211 261 323 392
#     4  12  26  41  70 101 138 175 229 289 347 398
#     4  10  22  44  64 100 125 184 227 278 356 386
#     4  10  22  43  67  89 130 183 228 273 336 396
#
# _framework density 19.998083000000001
#
# number of rings (size 3 to 8) (size 9 to 14) (size 15 to 20)
#    0.286    0.667    5.714    0.857    5.333    1.905 
#    0.000    0.952    0.000    0.000    0.000    1.333 
#    0.000    0.000    0.000    0.000    0.000    0.000 
#
# Total GULP energy -233949.455018 kJ/mol
# GULP energy per Si atom -5570.225119 kJ/mol
# Density = 1.995257 g / cm^3
# Si number density = 19.998083 Si / 1000 Ang^3
#
#
#
# Elastic Constant Matrix: (Units=GPa)
#
#
# Indices 1 2 3 4 5 6 
#
# 1 85.4704 -2.8446 25.8406 0.0001 0.0000 0.0000
# 2 -2.8446 106.8899 37.2349 0.0000 0.0000 0.0000
# 3 25.8406 37.2349 145.2290 0.0020 -0.0001 -0.0001
# 4 0.0001 0.0000 0.0020 80.5608 0.0001 -0.0002
# 5 0.0000 0.0000 -0.0001 0.0001 29.3046 0.0000
# 6 0.0000 0.0000 -0.0001 -0.0002 0.0000 3.1484
#
#
#
# Elastic Compliance Matrix: (Units=1/GPa)
#
#
# Indices 1 2 3 4 5 6 
#
# 1 0.012508 0.001217 -0.002537 0.000000 0.000000 0.000000
# 2 0.001217 0.010391 -0.002881 0.000000 0.000000 0.000000
# 3 -0.002537 -0.002881 0.008076 0.000000 0.000000 0.000000
# 4 0.000000 0.000000 0.000000 0.012413 0.000000 0.000001
# 5 0.000000 0.000000 0.000000 0.000000 0.034124 -0.000001
# 6 0.000000 0.000000 0.000000 0.000001 -0.000001 0.317622
#
#
# Mechanical properties :
#
#
# Convention : Reuss Voigt Hill
#
# Bulk Modulus (GPa) = 44.30290 50.89458 47.59874
# Shear Modulus (GPa) = 12.16365 41.09332 26.62848
#
# Velocity S-wave (km/s) = 2.46893 4.53798 3.65300
# Velocity P-wave (km/s) = 5.50719 7.27754 6.45336
#
# Compressibility (1/GPa) = 0.02257189
#
# Stress axis : x y z
#
# Youngs Moduli (GPa) = 79.95137 96.23445 123.82765
#
# Poissons Ratio (x) = -0.11709 0.31421
# Poissons Ratio (y) = -0.09728 0.35671
# Poissons Ratio (z) = 0.20287 0.27722
#
# Static dielectric constant tensor:
#      x y z
#    x 1.676880 0.000000 0.000000 
#    y 0.000000 1.759560 0.000000 
#    z 0.000000 0.000000 1.787910 
# 
# From -- ./inp_files/20332.got.cif
#   From: 2010.05.17/outbox.cif.g08.bks.cpg/sg71_11_cif.got.tgz:20332.got - 2010.06.03 16:22:01.
