data_PCOD9523844
_publ_section_title
;
Structure prediction by ZEFSAII (Michael W. Deem and Ramdas Pophale) SiO2 
 PCOD9523844
Probable space group: I M M M
;
_chemical_formula_sum "Si O2"
_cell_formula_units_Z 72
_cell_length_a 7.618933
_cell_length_b 27.181547
_cell_length_c 18.381280
_cell_angle_alpha 90.000000
_cell_angle_beta 90.000000
_cell_angle_gamma 90.000000
_cell_volume 3806.659885
_symmetry_space_group_name_H-M "I M M M"
_symmetry_group_IT_number 71
_symmetry_cell_setting 'orthorhombic'
loop_
_space_group_symop_operation_xyz
x,y,z
-x,-y,z
x,-y,-z
-x,y,-z
-x,-y,-z
x,y,-z
-x,y,z
x,-y,z
1/2+x,1/2+y,1/2+z
1/2-x,1/2-y,1/2+z
1/2+x,1/2-y,1/2-z
1/2-x,1/2+y,1/2-z
1/2-x,1/2-y,1/2-z
1/2+x,1/2+y,1/2-z
1/2-x,1/2+y,1/2+z
1/2+x,1/2-y,1/2+z
loop_
_atom_site_type_symbol
_atom_site_label
_atom_site_fract_x
_atom_site_fract_y
_atom_site_fract_z
Si Si1 0.787314 0.500000 0.918658
Si Si2 0.500000 0.631918 0.587366
Si Si3 0.000000 0.940810 0.791326
Si Si4 0.203953 0.590324 0.182679
Si Si5 0.787458 0.817865 0.583992
Si Si6 0.199155 0.707102 0.411686
O O1 0.737987 0.548506 0.874917
O O2 0.000000 0.500000 0.922327
O O3 0.717802 0.500000 0.000000
O O4 0.500000 0.627354 0.500000
O O5 0.500000 0.580107 0.627382
O O6 0.668154 0.664577 0.610083
O O7 0.168575 0.918126 0.750195
O O8 0.000000 0.000000 0.786832
O O9 0.222874 0.641805 0.140662
O O10 0.000000 0.582370 0.201696
O O11 0.729232 0.827230 0.500000
O O12 0.737794 0.762287 0.606293
O O13 0.000000 0.818998 0.583121
O O14 0.192961 0.706841 0.500000
O O15 0.000000 0.699871 0.385003
#
# Coordination Sequence:
#
# PCOD9523844 Si02
#       6
#     8   8   8  16  16  16
#     4   9  18  33  53  81 112 152 210 248 268 317
#     4  10  22  41  68  92 108 139 194 248 308 374
#     4  12  26  45  62  82 114 154 195 249 313 361
#     4  11  22  37  57  82 120 165 200 238 288 341
#     4   9  17  31  56  89 125 163 202 238 276 328
#     4   8  16  33  58  89 122 150 182 234 293 349
#
# _framework density 18.914218999999999
#
# number of rings (size 3 to 8) (size 9 to 14) (size 15 to 20)
#    0.000    2.333    2.222    2.000    1.556    2.444 
#    0.000    1.667    0.000    0.000    0.000    4.667 
#    0.000    0.000    0.000    0.000    0.000    0.000 
#
# Total GULP energy -200900.060715 kJ/mol
# GULP energy per Si atom -5580.557242 kJ/mol
# Density = 1.887117 g / cm^3
# Si number density = 18.914219 Si / 1000 Ang^3
#
#
#
# Elastic Constant Matrix: (Units=GPa)
#
#
# Indices 1 2 3 4 5 6 
#
# 1 86.7503 36.6576 31.5251 0.0000 0.0000 0.0000
# 2 36.6576 86.5718 46.8814 0.0000 0.0000 0.0000
# 3 31.5251 46.8814 55.3555 0.0000 0.0000 0.0000
# 4 0.0000 0.0000 0.0000 53.0796 0.0000 0.0000
# 5 0.0000 0.0000 0.0000 0.0000 8.1822 0.0000
# 6 0.0000 0.0000 0.0000 0.0000 0.0000 23.8820
#
#
#
# Elastic Compliance Matrix: (Units=1/GPa)
#
#
# Indices 1 2 3 4 5 6 
#
# 1 0.014997 -0.003187 -0.005842 0.000000 0.000000 0.000000
# 2 -0.003187 0.022014 -0.016829 0.000000 0.000000 0.000000
# 3 -0.005842 -0.016829 0.035645 0.000000 0.000000 0.000000
# 4 0.000000 0.000000 0.000000 0.018840 0.000000 0.000000
# 5 0.000000 0.000000 0.000000 0.000000 0.122217 0.000000
# 6 0.000000 0.000000 0.000000 0.000000 0.000000 0.041873
#
#
# Mechanical properties :
#
#
# Convention : Reuss Voigt Hill
#
# Bulk Modulus (GPa) = 47.75484 50.97842 49.36663
# Shear Modulus (GPa) = 15.90935 24.60298 20.25616
#
# Velocity S-wave (km/s) = 2.90337 3.61053 3.27609
# Velocity P-wave (km/s) = 6.04503 6.66274 6.36139
#
# Compressibility (1/GPa) = 0.02094029
#
# Stress axis : x y z
#
# Youngs Moduli (GPa) = 66.68064 45.42568 28.05442
#
# Poissons Ratio (x) = 0.14475 0.16389
# Poissons Ratio (y) = 0.21248 0.47213
# Poissons Ratio (z) = 0.38955 0.76448
#
# Static dielectric constant tensor:
#      x y z
#    x 1.678220 0.000000 0.000000 
#    y 0.000000 1.641750 0.000000 
#    z 0.000000 0.000000 1.640300 
# 
# From -- ./inp_files/8019.got.cif
#   From: 2010.05.17/outbox.cif.g08.bks.cpg/sg71_5_cif.got.tgz:8019.got - 2010.06.03 16:22:01.
