data_PCOD9523251
_publ_section_title
;
Structure prediction by ZEFSAII (Michael W. Deem and Ramdas Pophale) SiO2 
 PCOD9523251
Probable space group: I M M M
;
_chemical_formula_sum "Si O2"
_cell_formula_units_Z 88
_cell_length_a 14.517245
_cell_length_b 31.876237
_cell_length_c 11.166200
_cell_angle_alpha 90.000000
_cell_angle_beta 90.000000
_cell_angle_gamma 90.000000
_cell_volume 5167.216469
_symmetry_space_group_name_H-M "I M M M"
_symmetry_group_IT_number 71
_symmetry_cell_setting 'orthorhombic'
loop_
_space_group_symop_operation_xyz
x,y,z
-x,-y,z
x,-y,-z
-x,y,-z
-x,-y,-z
x,y,-z
-x,y,z
x,-y,z
1/2+x,1/2+y,1/2+z
1/2-x,1/2-y,1/2+z
1/2+x,1/2-y,1/2-z
1/2-x,1/2+y,1/2-z
1/2-x,1/2-y,1/2-z
1/2+x,1/2+y,1/2-z
1/2-x,1/2+y,1/2+z
1/2+x,1/2-y,1/2+z
loop_
_atom_site_type_symbol
_atom_site_label
_atom_site_fract_x
_atom_site_fract_y
_atom_site_fract_z
Si Si1 0.835445 0.585794 0.250484
Si Si2 0.795018 0.272688 0.133948
Si Si3 0.105620 0.500000 0.641391
Si Si4 0.500000 0.141771 0.856603
Si Si5 0.692184 0.360860 0.861420
Si Si6 0.000000 0.181793 0.356854
Si Si7 0.500000 0.229757 0.278326
Si Si8 0.890999 0.547766 0.000000
O O1 0.842915 0.541994 0.319529
O O2 0.736378 0.606928 0.232110
O O3 0.910084 0.617242 0.307666
O O4 0.864261 0.573565 0.116339
O O5 0.750000 0.250000 0.250000
O O6 0.758854 0.320328 0.137726
O O7 0.905094 0.271493 0.147866
O O8 0.768852 0.256072 0.000000
O O9 0.097023 0.500000 0.500000
O O10 0.000000 0.500000 0.693047
O O11 0.500000 0.189041 0.807264
O O12 0.500000 0.140820 0.000000
O O13 0.591749 0.344021 0.826966
O O14 0.687640 0.376548 0.000000
O O15 0.000000 0.188468 0.500000
O O16 0.000000 0.226848 0.294722
O O17 0.852293 0.500000 0.000000
O O18 0.000000 0.543822 0.000000
#
# Coordination Sequence:
#
# PCOD9523251 Si02
#       8
#    16  16   8   8  16   8   8   8
#     4  12  21  36  55  84 119 155 191 233 290 352
#     4  11  23  39  59  87 118 155 200 248 302 355
#     4  11  22  37  57  84 125 161 185 226 291 364
#     4  12  25  35  51  87 125 161 198 236 284 352
#     4  10  21  37  59  85 115 152 198 250 299 348
#     4  10  21  39  61  84 115 156 203 250 297 347
#     4  12  22  38  59  86 121 160 198 249 300 345
#     4  11  20  32  54  85 117 149 185 230 288 357
#
# _framework density 17.030445
#
# number of rings (size 3 to 8) (size 9 to 14) (size 15 to 20)
#    0.000    0.909    7.273    1.091    0.000    0.727 
#    1.636    0.000    0.000    0.545    0.000    3.182 
#    0.000    0.000    0.000    0.000    0.000    0.000 
#
# Total GULP energy -245539.442241 kJ/mol
# GULP energy per Si atom -5580.441869 kJ/mol
# Density = 1.699168 g / cm^3
# Si number density = 17.030445 Si / 1000 Ang^3
#
#
#
# Elastic Constant Matrix: (Units=GPa)
#
#
# Indices 1 2 3 4 5 6 
#
# 1 119.1787 54.2781 29.1273 0.0000 0.0000 0.0000
# 2 54.2781 101.3428 44.6281 0.0000 0.0001 0.0000
# 3 29.1273 44.6281 110.3124 0.0000 0.0002 -0.0001
# 4 0.0000 0.0000 0.0000 30.9695 0.0001 0.0000
# 5 0.0000 0.0001 0.0002 0.0001 23.2866 0.0000
# 6 0.0000 0.0000 -0.0001 0.0000 0.0000 20.0068
#
#
#
# Elastic Compliance Matrix: (Units=1/GPa)
#
#
# Indices 1 2 3 4 5 6 
#
# 1 0.011135 -0.005681 -0.000642 0.000000 0.000000 0.000000
# 2 -0.005681 0.014905 -0.004530 0.000000 0.000000 0.000000
# 3 -0.000642 -0.004530 0.011067 0.000000 0.000000 0.000000
# 4 0.000000 0.000000 0.000000 0.032290 0.000000 0.000000
# 5 0.000000 0.000000 0.000000 0.000000 0.042943 0.000000
# 6 0.000000 0.000000 0.000000 0.000000 0.000000 0.049983
#
#
# Mechanical properties :
#
#
# Convention : Reuss Voigt Hill
#
# Bulk Modulus (GPa) = 64.92819 65.21120 65.06969
# Shear Modulus (GPa) = 26.43223 28.37260 27.40241
#
# Velocity S-wave (km/s) = 3.94389 4.08609 4.01562
# Velocity P-wave (km/s) = 7.67767 7.78688 7.73247
#
# Compressibility (1/GPa) = 0.01540163
#
# Stress axis : x y z
#
# Youngs Moduli (GPa) = 89.80680 67.09103 90.35663
#
# Poissons Ratio (x) = 0.38116 0.05799
# Poissons Ratio (y) = 0.51021 0.40931
# Poissons Ratio (z) = 0.05763 0.30392
#
# Static dielectric constant tensor:
#      x y z
#    x 1.579280 0.000000 0.000000 
#    y 0.000000 1.590990 0.000000 
#    z 0.000000 0.000000 1.658160 
# 
# From -- ./inp_files/22404.got.cif
#   From: 2010.05.17/outbox.cif.g08.bks.cpg/sg71_12_cif.got.tgz:22404.got - 2010.06.03 16:22:01.
