data_PCOD9523906
_publ_section_title
;
Structure prediction by ZEFSAII (Michael W. Deem and Ramdas Pophale) SiO2 
 PCOD9523906
Probable space group: I M M M
;
_chemical_formula_sum "Si O2"
_cell_formula_units_Z 104
_cell_length_a 27.912426
_cell_length_b 23.218035
_cell_length_c 8.599421
_cell_angle_alpha 90.000000
_cell_angle_beta 90.000000
_cell_angle_gamma 90.000000
_cell_volume 5573.041247
_symmetry_space_group_name_H-M "I M M M"
_symmetry_group_IT_number 71
_symmetry_cell_setting 'orthorhombic'
loop_
_space_group_symop_operation_xyz
x,y,z
-x,-y,z
x,-y,-z
-x,y,-z
-x,-y,-z
x,y,-z
-x,y,z
x,-y,z
1/2+x,1/2+y,1/2+z
1/2-x,1/2-y,1/2+z
1/2+x,1/2-y,1/2-z
1/2-x,1/2+y,1/2-z
1/2-x,1/2-y,1/2-z
1/2+x,1/2+y,1/2-z
1/2-x,1/2+y,1/2+z
1/2+x,1/2-y,1/2+z
loop_
_atom_site_type_symbol
_atom_site_label
_atom_site_fract_x
_atom_site_fract_y
_atom_site_fract_z
Si Si1 0.292020 0.567212 0.812774
Si Si2 0.630840 0.662361 0.182687
Si Si3 0.944171 0.756021 0.186122
Si Si4 0.197856 0.742454 0.181150
Si Si5 0.500000 0.065147 0.685694
Si Si6 0.694069 0.880370 0.183619
Si Si7 0.911076 0.634300 0.316654
O O1 0.301624 0.500000 0.781908
O O2 0.336593 0.608056 0.762012
O O3 0.241106 0.584778 0.735813
O O4 0.286992 0.575109 0.000000
O O5 0.581820 0.684853 0.260657
O O6 0.664873 0.716734 0.216411
O O7 0.622304 0.654463 0.000000
O O8 0.916273 0.699154 0.247350
O O9 0.000000 0.753334 0.236041
O O10 0.942556 0.753634 0.000000
O O11 0.250000 0.750000 0.250000
O O12 0.190218 0.675535 0.208473
O O13 0.193493 0.758051 0.000000
O O14 0.500000 0.064965 0.500000
O O15 0.453503 0.098287 0.743201
O O16 0.500000 0.000000 0.744451
O O17 0.639091 0.900742 0.201371
O O18 0.700173 0.865551 0.000000
O O19 0.918109 0.641541 0.500000
#
# Coordination Sequence:
#
# PCOD9523906 Si02
#       7
#    16  16  16  16   8  16  16
#     4  10  23  42  62  85 118 161 204 246 295 355
#     4  11  22  37  60  89 120 155 198 244 299 365
#     4  11  23  38  60  90 123 155 193 245 307 368
#     4  12  22  33  54  84 119 154 190 237 289 346
#     4  11  25  43  61  81 111 157 210 255 300 355
#     4  11  23  37  57  87 120 156 197 242 294 352
#     4  11  23  38  60  87 119 156 200 251 301 354
#
# _framework density 18.661266000000001
#
# number of rings (size 3 to 8) (size 9 to 14) (size 15 to 20)
#    0.000    1.000    3.846    3.462    0.000    4.923 
#    0.000    3.077    0.000    0.462    0.000    3.231 
#    0.000    0.000    0.000    0.000    0.000    0.000 
#
# Total GULP energy -289934.664081 kJ/mol
# GULP energy per Si atom -5575.666617 kJ/mol
# Density = 1.861879 g / cm^3
# Si number density = 18.661266 Si / 1000 Ang^3
#
#
#
# Elastic Constant Matrix: (Units=GPa)
#
#
# Indices 1 2 3 4 5 6 
#
# 1 111.0665 51.1668 25.9751 0.0000 0.0000 0.0000
# 2 51.1668 103.0454 19.5619 0.0000 0.0000 0.0000
# 3 25.9751 19.5619 45.1939 0.0000 0.0000 0.0000
# 4 0.0000 0.0000 0.0000 21.3451 0.0000 0.0000
# 5 0.0000 0.0000 0.0000 0.0000 26.8045 0.0000
# 6 0.0000 0.0000 0.0000 0.0000 0.0000 14.5354
#
#
#
# Elastic Compliance Matrix: (Units=1/GPa)
#
#
# Indices 1 2 3 4 5 6 
#
# 1 0.012613 -0.005324 -0.004945 0.000000 0.000000 0.000000
# 2 -0.005324 0.012821 -0.002489 0.000000 0.000000 0.000000
# 3 -0.004945 -0.002489 0.026046 0.000000 0.000000 0.000000
# 4 0.000000 0.000000 0.000000 0.046849 0.000000 0.000000
# 5 0.000000 0.000000 0.000000 0.000000 0.037307 0.000000
# 6 0.000000 0.000000 0.000000 0.000000 0.000000 0.068798
#
#
# Mechanical properties :
#
#
# Convention : Reuss Voigt Hill
#
# Bulk Modulus (GPa) = 38.51552 50.30149 44.40851
# Shear Modulus (GPa) = 20.95517 23.37712 22.16615
#
# Velocity S-wave (km/s) = 3.35464 3.54320 3.45021
# Velocity P-wave (km/s) = 5.97402 6.61457 6.30244
#
# Compressibility (1/GPa) = 0.02596356
#
# Stress axis : x y z
#
# Youngs Moduli (GPa) = 79.28466 77.99872 38.39317
#
# Poissons Ratio (x) = 0.41528 0.18984
# Poissons Ratio (y) = 0.42212 0.09557
# Poissons Ratio (z) = 0.39203 0.19416
#
# Static dielectric constant tensor:
#      x y z
#    x 1.638300 0.000000 0.000000 
#    y 0.000000 1.724510 0.000000 
#    z 0.000000 0.000000 1.627010 
# 
# From -- ./inp_files/15017.got.cif
#   From: 2010.05.17/outbox.cif.g08.bks.cpg/sg71_8_cif.got.tgz:15017.got - 2010.06.03 16:22:01.
