data_PCOD9523915
_publ_section_title
;
Structure prediction by ZEFSAII (Michael W. Deem and Ramdas Pophale) SiO2 
 PCOD9523915
Probable space group: I M M M
;
_chemical_formula_sum "Si O2"
_cell_formula_units_Z 88
_cell_length_a 11.402718
_cell_length_b 17.196988
_cell_length_c 23.214975
_cell_angle_alpha 90.000000
_cell_angle_beta 90.000000
_cell_angle_gamma 90.000000
_cell_volume 4552.280271
_symmetry_space_group_name_H-M "I M M M"
_symmetry_group_IT_number 71
_symmetry_cell_setting 'orthorhombic'
loop_
_space_group_symop_operation_xyz
x,y,z
-x,-y,z
x,-y,-z
-x,y,-z
-x,-y,-z
x,y,-z
-x,y,z
x,-y,z
1/2+x,1/2+y,1/2+z
1/2-x,1/2-y,1/2+z
1/2+x,1/2-y,1/2-z
1/2-x,1/2+y,1/2-z
1/2-x,1/2-y,1/2-z
1/2+x,1/2+y,1/2-z
1/2-x,1/2+y,1/2+z
1/2+x,1/2-y,1/2+z
loop_
_atom_site_type_symbol
_atom_site_label
_atom_site_fract_x
_atom_site_fract_y
_atom_site_fract_z
Si Si1 0.140044 0.500000 0.432188
Si Si2 0.000000 0.914256 0.067150
Si Si3 0.000000 0.592127 0.930054
Si Si4 0.361854 0.584815 0.859698
Si Si5 0.855014 0.814519 0.753940
Si Si6 0.770265 0.691891 0.932499
Si Si7 0.772518 0.855035 0.121992
O O1 0.181289 0.500000 0.500000
O O2 0.185922 0.576653 0.398693
O O3 0.000000 0.500000 0.433141
O O4 0.887099 0.868072 0.084303
O O5 0.000000 0.000000 0.095071
O O6 0.000000 0.923764 0.000000
O O7 0.888245 0.645618 0.913424
O O8 0.000000 0.500000 0.911202
O O9 0.000000 0.588692 0.000000
O O10 0.500000 0.577147 0.858996
O O11 0.305136 0.500000 0.857383
O O12 0.334828 0.633620 0.802484
O O13 0.326990 0.628793 0.917498
O O14 0.750000 0.750000 0.750000
O O15 0.818464 0.858688 0.812621
O O16 0.000000 0.794891 0.756239
O O17 0.736613 0.767847 0.895395
O O18 0.778810 0.711192 0.000000
#
# Coordination Sequence:
#
# PCOD9523915 Si02
#       7
#     8   8   8  16  16  16  16
#     4  11  26  45  65  95 139 184 222 277 356 430
#     4  11  21  35  61  97 131 159 206 268 323 388
#     4   9  19  35  57  88 127 163 199 252 325 398
#     4  10  23  42  64  89 123 167 216 269 320 385
#     4  11  24  44  69  96 130 173 226 278 336 397
#     4  11  22  37  62  92 125 165 210 265 330 396
#     4  12  23  40  65  95 127 172 222 274 331 405
#
# _framework density 19.330971000000002
#
# number of rings (size 3 to 8) (size 9 to 14) (size 15 to 20)
#    0.000    1.182    3.636    2.727    1.273    3.636 
#    0.000    0.909    0.000    0.000    0.000    0.000 
#    0.000    0.000    0.000    0.000    0.000    0.000 
#
# Total GULP energy -244958.146665 kJ/mol
# GULP energy per Si atom -5567.230606 kJ/mol
# Density = 1.928697 g / cm^3
# Si number density = 19.330971 Si / 1000 Ang^3
#
#
#
# Elastic Constant Matrix: (Units=GPa)
#
#
# Indices 1 2 3 4 5 6 
#
# 1 60.9392 33.9040 11.9228 0.0000 0.0000 0.0000
# 2 33.9040 111.3608 8.0832 0.0000 0.0000 0.0000
# 3 11.9228 8.0832 50.6361 0.0000 0.0000 0.0000
# 4 0.0000 0.0000 0.0000 5.2390 0.0000 0.0000
# 5 0.0000 0.0000 0.0000 0.0000 32.7915 0.0000
# 6 0.0000 0.0000 0.0000 0.0000 0.0000 43.2445
#
#
#
# Elastic Compliance Matrix: (Units=1/GPa)
#
#
# Indices 1 2 3 4 5 6 
#
# 1 0.020480 -0.005954 -0.003872 0.000000 0.000000 0.000000
# 2 -0.005954 0.010816 -0.000325 0.000000 0.000000 0.000000
# 3 -0.003872 -0.000325 0.020712 0.000000 0.000000 0.000000
# 4 0.000000 0.000000 0.000000 0.190878 0.000000 0.000000
# 5 0.000000 0.000000 0.000000 0.000000 0.030496 0.000000
# 6 0.000000 0.000000 0.000000 0.000000 0.000000 0.023124
#
#
# Mechanical properties :
#
#
# Convention : Reuss Voigt Hill
#
# Bulk Modulus (GPa) = 31.53853 36.75069 34.14461
# Shear Modulus (GPa) = 15.27295 27.52338 21.39817
#
# Velocity S-wave (km/s) = 2.81388 3.77742 3.33068
# Velocity P-wave (km/s) = 5.18726 6.17072 5.70024
#
# Compressibility (1/GPa) = 0.03170725
#
# Stress axis : x y z
#
# Youngs Moduli (GPa) = 48.82824 92.45451 48.28066
#
# Poissons Ratio (x) = 0.55049 0.18693
# Poissons Ratio (y) = 0.29073 0.01567
# Poissons Ratio (z) = 0.18905 0.03001
#
# Static dielectric constant tensor:
#      x y z
#    x 1.711800 0.000000 0.000000 
#    y 0.000000 1.663360 0.000000 
#    z 0.000000 0.000000 1.658360 
# 
# From -- ./inp_files/51823.got.cif
#   From: 2010.05.17/outbox.cif.g08.bks.cpg/sg71_26_cif.got.tgz:51823.got - 2010.06.03 16:22:01.
