data_PCOD9523883
_publ_section_title
;
Structure prediction by ZEFSAII (Michael W. Deem and Ramdas Pophale) SiO2 
 PCOD9523883
Probable space group: I M M M
;
_chemical_formula_sum "Si O2"
_cell_formula_units_Z 68
_cell_length_a 16.984511
_cell_length_b 18.864472
_cell_length_c 11.075522
_cell_angle_alpha 90.000000
_cell_angle_beta 90.000000
_cell_angle_gamma 90.000000
_cell_volume 3548.639692
_symmetry_space_group_name_H-M "I M M M"
_symmetry_group_IT_number 71
_symmetry_cell_setting 'orthorhombic'
loop_
_space_group_symop_operation_xyz
x,y,z
-x,-y,z
x,-y,-z
-x,y,-z
-x,-y,-z
x,y,-z
-x,y,z
x,-y,z
1/2+x,1/2+y,1/2+z
1/2-x,1/2-y,1/2+z
1/2+x,1/2-y,1/2-z
1/2-x,1/2+y,1/2-z
1/2-x,1/2-y,1/2-z
1/2+x,1/2+y,1/2-z
1/2-x,1/2+y,1/2+z
1/2+x,1/2-y,1/2+z
loop_
_atom_site_type_symbol
_atom_site_label
_atom_site_fract_x
_atom_site_fract_y
_atom_site_fract_z
Si Si1 0.913749 0.613172 0.681725
Si Si2 0.091962 0.778517 0.738281
Si Si3 0.819618 0.837599 0.500000
Si Si4 0.720686 0.922600 0.000000
Si Si5 0.178898 0.779131 0.000000
Si Si6 0.883294 0.500000 0.867884
Si Si7 0.230380 0.000000 0.500000
O O1 0.905701 0.696361 0.698980
O O2 0.839956 0.583702 0.610005
O O3 0.910437 0.570690 0.804602
O O4 0.000000 0.598747 0.628094
O O5 0.135730 0.817616 0.626098
O O6 0.000000 0.800579 0.744856
O O7 0.130642 0.780675 0.872684
O O8 0.739443 0.788648 0.500000
O O9 0.809590 0.922918 0.500000
O O10 0.774122 0.853446 0.000000
O O11 0.760102 0.000000 0.000000
O O12 0.788958 0.500000 0.884639
O O13 0.915010 0.500000 0.000000
#
# Coordination Sequence:
#
# PCOD9523883 Si02
#       7
#    16  16   8   8   8   8   4
#     4  11  22  38  61  91 129 168 206 253 313 392
#     4  11  25  44  67  96 129 169 219 269 324 385
#     4  12  23  44  74  96 128 171 222 270 323 384
#     4  12  25  38  62  93 127 163 221 252 314 372
#     4  12  25  42  69  97 133 170 211 267 331 378
#     4  10  23  37  56  90 139 168 203 253 323 389
#     4  10  26  38  64  96 130 152 226 274 320 372
#
# _framework density 19.162272999999999
#
# number of rings (size 3 to 8) (size 9 to 14) (size 15 to 20)
#    0.353    0.471    3.529    3.529    4.941    3.294 
#    0.000    1.176    0.000    0.706    0.000    0.000 
#    0.000    0.000    0.000    0.000    0.000    0.000 
#
# Total GULP energy -189493.462004 kJ/mol
# GULP energy per Si atom -5573.337118 kJ/mol
# Density = 1.911866 g / cm^3
# Si number density = 19.162273 Si / 1000 Ang^3
#
#
#
# Elastic Constant Matrix: (Units=GPa)
#
#
# Indices 1 2 3 4 5 6 
#
# 1 107.0734 54.1876 65.9746 0.0000 0.0000 0.0000
# 2 54.1876 151.7920 44.1449 0.0000 0.0000 0.0000
# 3 65.9746 44.1449 156.0864 0.0000 0.0000 0.0000
# 4 0.0000 0.0000 0.0000 22.5470 0.0000 0.0000
# 5 0.0000 0.0000 0.0000 0.0000 64.1250 0.0000
# 6 0.0000 0.0000 0.0000 0.0000 0.0000 33.7810
#
#
#
# Elastic Compliance Matrix: (Units=1/GPa)
#
#
# Indices 1 2 3 4 5 6 
#
# 1 0.014260 -0.003637 -0.004999 0.000000 0.000000 0.000000
# 2 -0.003637 0.008106 -0.000755 0.000000 0.000000 0.000000
# 3 -0.004999 -0.000755 0.008733 0.000000 0.000000 0.000000
# 4 0.000000 0.000000 0.000000 0.044352 0.000000 0.000000
# 5 0.000000 0.000000 0.000000 0.000000 0.015595 0.000000
# 6 0.000000 0.000000 0.000000 0.000000 0.000000 0.029602
#
#
# Mechanical properties :
#
#
# Convention : Reuss Voigt Hill
#
# Bulk Modulus (GPa) = 81.18743 82.61843 81.90293
# Shear Modulus (GPa) = 34.83452 40.80023 37.81738
#
# Velocity S-wave (km/s) = 4.26827 4.61933 4.44727
# Velocity P-wave (km/s) = 8.17014 8.46520 8.31898
#
# Compressibility (1/GPa) = 0.01231718
#
# Stress axis : x y z
#
# Youngs Moduli (GPa) = 70.12618 123.36652 114.50498
#
# Poissons Ratio (x) = 0.44866 0.57239
# Poissons Ratio (y) = 0.25504 0.08649
# Poissons Ratio (z) = 0.35055 0.09318
#
# Static dielectric constant tensor:
#      x y z
#    x 1.707410 0.000000 0.000000 
#    y 0.000000 1.644490 0.000000 
#    z 0.000000 0.000000 1.726940 
# 
# From -- ./inp_files/21635.got.cif
#   From: 2010.05.17/outbox.cif.g08.bks.cpg/sg71_11_cif.got.tgz:21635.got - 2010.06.03 16:22:01.
