data_PCOD9523642
_publ_section_title
;
Structure prediction by ZEFSAII (Michael W. Deem and Ramdas Pophale) SiO2 
 PCOD9523642
Probable space group: I M M M
;
_chemical_formula_sum "Si O2"
_cell_formula_units_Z 84
_cell_length_a 26.901034
_cell_length_b 7.344354
_cell_length_c 20.187266
_cell_angle_alpha 90.000000
_cell_angle_beta 90.000000
_cell_angle_gamma 90.000000
_cell_volume 3988.412611
_symmetry_space_group_name_H-M "I M M M"
_symmetry_group_IT_number 71
_symmetry_cell_setting 'orthorhombic'
loop_
_space_group_symop_operation_xyz
x,y,z
-x,-y,z
x,-y,-z
-x,y,-z
-x,-y,-z
x,y,-z
-x,y,z
x,-y,z
1/2+x,1/2+y,1/2+z
1/2-x,1/2-y,1/2+z
1/2+x,1/2-y,1/2-z
1/2-x,1/2+y,1/2-z
1/2-x,1/2-y,1/2-z
1/2+x,1/2+y,1/2-z
1/2-x,1/2+y,1/2+z
1/2+x,1/2-y,1/2+z
loop_
_atom_site_type_symbol
_atom_site_label
_atom_site_fract_x
_atom_site_fract_y
_atom_site_fract_z
Si Si1 0.913195 0.720962 0.427778
Si Si2 0.662575 0.280720 0.249136
Si Si3 0.806220 0.220976 0.102264
Si Si4 0.053412 0.210764 0.716892
Si Si5 0.303706 0.208449 0.105260
Si Si6 0.154109 0.500000 0.000000
O O1 0.932367 0.774534 0.500000
O O2 0.913202 0.500000 0.424903
O O3 0.941764 0.783594 0.362852
O O4 0.855874 0.785978 0.420126
O O5 0.661924 0.500000 0.242190
O O6 0.684873 0.238595 0.320303
O O7 0.605554 0.212790 0.243104
O O8 0.692191 0.211534 0.185201
O O9 0.749732 0.281437 0.084709
O O10 0.810467 0.000000 0.093633
O O11 0.842191 0.339198 0.057448
O O12 0.000000 0.291393 0.735931
O O13 0.052794 0.000000 0.737730
O O14 0.303658 0.000000 0.082744
#
# Coordination Sequence:
#
# PCOD9523642 Si02
#       6
#    16  16  16  16  16   4
#     4   9  18  31  46  67 100 144 181 213 261 308
#     4   9  18  33  54  77 103 136 176 225 274 317
#     4  10  22  38  54  79 112 143 183 225 265 319
#     4   9  18  33  51  74 101 130 173 225 273 320
#     4   9  18  31  51  74 104 141 178 226 264 305
#     4  12  26  36  56  82 109 154 177 216 266 328
#
# _framework density 21.061011000000001
#
# number of rings (size 3 to 8) (size 9 to 14) (size 15 to 20)
#    0.000    2.667    0.000    0.857    4.000    1.143 
#    0.000    1.905    0.000    0.000    0.000    1.333 
#    0.000    4.571    0.000    0.000    0.000    0.000 
#
# Total GULP energy -233856.221848 kJ/mol
# GULP energy per Si atom -5568.005282 kJ/mol
# Density = 2.101308 g / cm^3
# Si number density = 21.061011 Si / 1000 Ang^3
#
#
#
# Elastic Constant Matrix: (Units=GPa)
#
#
# Indices 1 2 3 4 5 6 
#
# 1 71.7224 -0.0822 -0.7840 0.0000 0.0000 0.0000
# 2 -0.0822 90.9480 4.6899 0.0000 0.0000 0.0000
# 3 -0.7840 4.6899 69.7416 0.0000 0.0000 0.0000
# 4 0.0000 0.0000 0.0000 21.9421 0.0000 0.0000
# 5 0.0000 0.0000 0.0000 0.0000 125.4128 0.0000
# 6 0.0000 0.0000 0.0000 0.0000 0.0000 19.9591
#
#
#
# Elastic Compliance Matrix: (Units=1/GPa)
#
#
# Indices 1 2 3 4 5 6 
#
# 1 0.013944 0.000005 0.000156 0.000000 0.000000 0.000000
# 2 0.000005 0.011034 -0.000742 0.000000 0.000000 0.000000
# 3 0.000156 -0.000742 0.014390 0.000000 0.000000 0.000000
# 4 0.000000 0.000000 0.000000 0.045574 0.000000 0.000000
# 5 0.000000 0.000000 0.000000 0.000000 0.007974 0.000000
# 6 0.000000 0.000000 0.000000 0.000000 0.000000 0.050103
#
#
# Mechanical properties :
#
#
# Convention : Reuss Voigt Hill
#
# Bulk Modulus (GPa) = 26.17366 26.67326 26.42346
# Shear Modulus (GPa) = 31.86414 48.70200 40.28307
#
# Velocity S-wave (km/s) = 3.89388 4.81398 4.37817
# Velocity P-wave (km/s) = 5.71585 6.60239 6.17505
#
# Compressibility (1/GPa) = 0.03820635
#
# Stress axis : x y z
#
# Youngs Moduli (GPa) = 71.71355 90.63262 69.49125
#
# Poissons Ratio (x) = -0.00041 -0.01087
# Poissons Ratio (y) = -0.00033 0.05156
# Poissons Ratio (z) = -0.01122 0.06724
#
# Static dielectric constant tensor:
#      x y z
#    x 1.790580 0.000000 0.000000 
#    y 0.000000 1.820860 0.000000 
#    z 0.000000 0.000000 1.731870 
# 
# From -- ./inp_files/56079.got.cif
#   From: 2010.05.17/outbox.cif.g08.bks.cpg/sg71_29_cif.got.tgz:56079.got - 2010.06.03 16:22:01.
