data_PCOD9523419
_publ_section_title
;
Structure prediction by ZEFSAII (Michael W. Deem and Ramdas Pophale) SiO2 
 PCOD9523419
Probable space group: I M M M
;
_chemical_formula_sum "Si O2"
_cell_formula_units_Z 104
_cell_length_a 20.016458
_cell_length_b 7.882721
_cell_length_c 30.528330
_cell_angle_alpha 90.000000
_cell_angle_beta 90.000000
_cell_angle_gamma 90.000000
_cell_volume 4816.886717
_symmetry_space_group_name_H-M "I M M M"
_symmetry_group_IT_number 71
_symmetry_cell_setting 'orthorhombic'
loop_
_space_group_symop_operation_xyz
x,y,z
-x,-y,z
x,-y,-z
-x,y,-z
-x,-y,-z
x,y,-z
-x,y,z
x,-y,z
1/2+x,1/2+y,1/2+z
1/2-x,1/2-y,1/2+z
1/2+x,1/2-y,1/2-z
1/2-x,1/2+y,1/2-z
1/2-x,1/2-y,1/2-z
1/2+x,1/2+y,1/2-z
1/2-x,1/2+y,1/2+z
1/2+x,1/2-y,1/2+z
loop_
_atom_site_type_symbol
_atom_site_label
_atom_site_fract_x
_atom_site_fract_y
_atom_site_fract_z
Si Si1 0.807871 0.201666 0.782444
Si Si2 0.287634 0.695917 0.625044
Si Si3 0.691180 0.797612 0.949529
Si Si4 0.076438 0.707453 0.094654
Si Si5 0.419426 0.190130 0.500000
Si Si6 0.076176 0.702246 0.282623
Si Si7 0.423089 0.297728 0.118645
O O1 0.750000 0.250000 0.750000
O O2 0.779842 0.279936 0.827881
O O3 0.876483 0.252502 0.758199
O O4 0.811837 0.000000 0.788910
O O5 0.265247 0.500000 0.626392
O O6 0.250904 0.770411 0.582244
O O7 0.367680 0.707997 0.623007
O O8 0.625032 0.768674 0.919870
O O9 0.700247 0.000000 0.953972
O O10 0.689220 0.730657 0.000000
O O11 0.081041 0.500000 0.095228
O O12 0.095228 0.771583 0.045905
O O13 0.000000 0.749563 0.104648
O O14 0.500000 0.172581 0.500000
O O15 0.390754 0.000000 0.500000
O O16 0.073522 0.500000 0.284032
O O17 0.100066 0.757015 0.331475
O O18 0.000000 0.768647 0.277316
O O19 0.500000 0.234219 0.114710
O O20 0.424089 0.500000 0.114509
#
# Coordination Sequence:
#
# PCOD9523419 Si02
#       7
#    16  16  16  16   8  16  16
#     4  11  23  39  60  85 116 153 195 243 294 353
#     4  10  23  39  55  81 115 150 189 238 293 342
#     4  10  22  40  60  83 116 158 202 247 294 348
#     4   9  18  33  54  79 107 142 186 233 278 328
#     4   7  12  26  47  71  99 131 170 217 264 307
#     4  10  21  38  62  91 122 156 195 240 294 359
#     4  10  21  38  62  92 123 153 189 237 293 354
#
# _framework density 21.590707999999999
#
# number of rings (size 3 to 8) (size 9 to 14) (size 15 to 20)
#    0.000    2.231    0.000    3.231    1.077    6.462 
#    0.000    4.615    0.000    1.385    0.000    0.000 
#    0.000    0.000    0.000    0.000    0.000    0.000 
#
# Total GULP energy -289639.735547 kJ/mol
# GULP energy per Si atom -5569.994914 kJ/mol
# Density = 2.154157 g / cm^3
# Si number density = 21.590708 Si / 1000 Ang^3
#
#
#
# Elastic Constant Matrix: (Units=GPa)
#
#
# Indices 1 2 3 4 5 6 
#
# 1 92.8913 0.7180 59.0340 0.0000 0.0000 0.0000
# 2 0.7180 32.6915 25.1416 0.0000 0.0000 0.0000
# 3 59.0340 25.1416 123.5122 0.0000 0.0000 0.0000
# 4 0.0000 0.0000 0.0000 48.1218 0.0000 0.0000
# 5 0.0000 0.0000 0.0000 0.0000 36.7258 0.0000
# 6 0.0000 0.0000 0.0000 0.0000 0.0000 25.8740
#
#
#
# Elastic Compliance Matrix: (Units=1/GPa)
#
#
# Indices 1 2 3 4 5 6 
#
# 1 0.016654 0.006824 -0.009349 0.000000 0.000000 0.000000
# 2 0.006824 0.039063 -0.011213 0.000000 0.000000 0.000000
# 3 -0.009349 -0.011213 0.014847 0.000000 0.000000 0.000000
# 4 0.000000 0.000000 0.000000 0.020781 0.000000 0.000000
# 5 0.000000 0.000000 0.000000 0.000000 0.027229 0.000000
# 6 0.000000 0.000000 0.000000 0.000000 0.000000 0.038649
#
#
# Mechanical properties :
#
#
# Convention : Reuss Voigt Hill
#
# Bulk Modulus (GPa) = 23.20830 46.54248 34.87539
# Shear Modulus (GPa) = 25.11793 33.09109 29.10451
#
# Velocity S-wave (km/s) = 3.41452 3.91916 3.67551
# Velocity P-wave (km/s) = 5.13009 6.48716 5.84812
#
# Compressibility (1/GPa) = 0.04308803
#
# Stress axis : x y z
#
# Youngs Moduli (GPa) = 60.04556 25.59989 67.35202
#
# Poissons Ratio (x) = -0.17470 0.62968
# Poissons Ratio (y) = -0.40976 0.75523
# Poissons Ratio (z) = 0.56137 0.28706
#
# Static dielectric constant tensor:
#      x y z
#    x 1.774050 0.000000 0.000000 
#    y 0.000000 1.832170 0.000000 
#    z 0.000000 0.000000 1.888590 
# 
# From -- ./inp_files/63328.got.cif
#   From: 2010.05.17/outbox.cif.g08.bks.cpg/sg71_32_cif.got.tgz:63328.got - 2010.06.03 16:22:01.
