data_PCOD9523522
_publ_section_title
;
Structure prediction by ZEFSAII (Michael W. Deem and Ramdas Pophale) SiO2 
 PCOD9523522
Probable space group: I M M M
;
_chemical_formula_sum "Si O2"
_cell_formula_units_Z 56
_cell_length_a 15.593241
_cell_length_b 7.895692
_cell_length_c 19.657922
_cell_angle_alpha 90.000000
_cell_angle_beta 90.000000
_cell_angle_gamma 90.000000
_cell_volume 2420.272117
_symmetry_space_group_name_H-M "I M M M"
_symmetry_group_IT_number 71
_symmetry_cell_setting 'orthorhombic'
loop_
_space_group_symop_operation_xyz
x,y,z
-x,-y,z
x,-y,-z
-x,y,-z
-x,-y,-z
x,y,-z
-x,y,z
x,-y,z
1/2+x,1/2+y,1/2+z
1/2-x,1/2-y,1/2+z
1/2+x,1/2-y,1/2-z
1/2-x,1/2+y,1/2-z
1/2-x,1/2-y,1/2-z
1/2+x,1/2+y,1/2-z
1/2-x,1/2+y,1/2+z
1/2+x,1/2-y,1/2+z
loop_
_atom_site_type_symbol
_atom_site_label
_atom_site_fract_x
_atom_site_fract_y
_atom_site_fract_z
Si Si1 0.500000 0.308083 0.244798
Si Si2 0.349847 0.798625 0.854484
Si Si3 0.000000 0.693076 0.107741
Si Si4 0.812116 0.295065 0.922719
Si Si5 0.101505 0.305368 0.500000
O O1 0.500000 0.500000 0.269439
O O2 0.413858 0.277753 0.200669
O O3 0.500000 0.192064 0.310747
O O4 0.247842 0.769015 0.860829
O O5 0.375581 0.724256 0.928324
O O6 0.366149 0.000000 0.852768
O O7 0.090531 0.768406 0.085063
O O8 0.000000 0.500000 0.081552
O O9 0.811912 0.500000 0.918943
O O10 0.783423 0.247849 0.000000
O O11 0.135070 0.500000 0.500000
O O12 0.000000 0.318082 0.500000
#
# Coordination Sequence:
#
# PCOD9523522 Si02
#       5
#     8  16   8  16   8
#     4  12  26  42  60  89 125 162 207 255 300 357
#     4  11  21  37  62  92 125 161 199 244 304 370
#     4  10  23  44  65  85 120 169 209 246 301 364
#     4  10  21  39  65  96 124 154 200 256 307 356
#     4   9  16  30  54  85 118 153 193 236 290 360
#
# _framework density 23.137893999999999
#
# number of rings (size 3 to 8) (size 9 to 14) (size 15 to 20)
#    0.000    1.571    2.857    2.571    0.000    4.000 
#    0.000    0.714    0.000    2.571    0.000    0.000 
#    0.000    0.000    0.000    0.000    0.000    0.000 
#
# Total GULP energy -156242.375676 kJ/mol
# GULP energy per Si atom -5580.084846 kJ/mol
# Density = 2.308523 g / cm^3
# Si number density = 23.137894 Si / 1000 Ang^3
#
#
#
# Elastic Constant Matrix: (Units=GPa)
#
#
# Indices 1 2 3 4 5 6 
#
# 1 125.7896 6.6516 20.7357 0.0000 0.0000 0.0000
# 2 6.6516 57.7393 -2.1431 0.0000 0.0000 0.0000
# 3 20.7357 -2.1431 81.1946 0.0000 0.0000 0.0000
# 4 0.0000 0.0000 0.0000 11.0717 0.0000 0.0000
# 5 0.0000 0.0000 0.0000 0.0000 29.9247 0.0000
# 6 0.0000 0.0000 0.0000 0.0000 0.0000 15.6384
#
#
#
# Elastic Compliance Matrix: (Units=1/GPa)
#
#
# Indices 1 2 3 4 5 6 
#
# 1 0.008362 -0.001044 -0.002163 0.000000 0.000000 0.000000
# 2 -0.001044 0.017466 0.000728 0.000000 0.000000 0.000000
# 3 -0.002163 0.000728 0.012888 0.000000 0.000000 0.000000
# 4 0.000000 0.000000 0.000000 0.090321 0.000000 0.000000
# 5 0.000000 0.000000 0.000000 0.000000 0.033417 0.000000
# 6 0.000000 0.000000 0.000000 0.000000 0.000000 0.063945
#
#
# Mechanical properties :
#
#
# Convention : Reuss Voigt Hill
#
# Bulk Modulus (GPa) = 29.62283 35.02354 32.32318
# Shear Modulus (GPa) = 20.60928 27.29224 23.95076
#
# Velocity S-wave (km/s) = 2.98772 3.43818 3.22084
# Velocity P-wave (km/s) = 4.97318 5.56158 5.27559
#
# Compressibility (1/GPa) = 0.03375775
#
# Stress axis : x y z
#
# Youngs Moduli (GPa) = 119.59556 57.25267 77.59355
#
# Poissons Ratio (x) = 0.05974 0.16783
# Poissons Ratio (y) = 0.12480 -0.05645
# Poissons Ratio (z) = 0.25868 -0.04165
#
# Static dielectric constant tensor:
#      x y z
#    x 1.990420 0.000000 0.000000 
#    y 0.000000 1.836460 0.000000 
#    z 0.000000 0.000000 1.860660 
# 
# From -- ./inp_files/5125.got.cif
#   From: 2010.05.17/outbox.cif.g08.bks.cpg/sg71_3_cif.got.tgz:5125.got - 2010.06.03 16:22:01.
