data_PCOD9523792
_publ_section_title
;
Structure prediction by ZEFSAII (Michael W. Deem and Ramdas Pophale) SiO2 
 PCOD9523792
Probable space group: I M M M
;
_chemical_formula_sum "Si O2"
_cell_formula_units_Z 88
_cell_length_a 25.141975
_cell_length_b 11.715344
_cell_length_c 15.780363
_cell_angle_alpha 90.000000
_cell_angle_beta 90.000000
_cell_angle_gamma 90.000000
_cell_volume 4648.056781
_symmetry_space_group_name_H-M "I M M M"
_symmetry_group_IT_number 71
_symmetry_cell_setting 'orthorhombic'
loop_
_space_group_symop_operation_xyz
x,y,z
-x,-y,z
x,-y,-z
-x,y,-z
-x,-y,-z
x,y,-z
-x,y,z
x,-y,z
1/2+x,1/2+y,1/2+z
1/2-x,1/2-y,1/2+z
1/2+x,1/2-y,1/2-z
1/2-x,1/2+y,1/2-z
1/2-x,1/2-y,1/2-z
1/2+x,1/2+y,1/2-z
1/2-x,1/2+y,1/2+z
1/2+x,1/2-y,1/2+z
loop_
_atom_site_type_symbol
_atom_site_label
_atom_site_fract_x
_atom_site_fract_y
_atom_site_fract_z
Si Si1 0.000000 0.138819 0.904921
Si Si2 0.748661 0.367834 0.500000
Si Si3 0.438559 0.000000 0.291795
Si Si4 0.624401 0.131202 0.000000
Si Si5 0.561046 0.791400 0.159285
Si Si6 0.709629 0.759073 0.670026
Si Si7 0.400804 0.365049 0.291702
Si Si8 0.332031 0.000000 0.602856
O O1 0.053941 0.173502 0.858310
O O2 0.000000 0.000000 0.904754
O O3 0.000000 0.181069 0.000000
O O4 0.730279 0.500000 0.500000
O O5 0.812376 0.366209 0.500000
O O6 0.729966 0.306102 0.414112
O O7 0.431687 0.889633 0.230801
O O8 0.500000 0.000000 0.322688
O O9 0.392930 0.000000 0.362678
O O10 0.600746 0.187324 0.083300
O O11 0.606235 0.000000 0.000000
O O12 0.500000 0.797938 0.130817
O O13 0.574125 0.671500 0.202617
O O14 0.750000 0.750000 0.750000
O O15 0.654227 0.699817 0.695794
O O16 0.696735 0.888371 0.641629
O O17 0.392970 0.500000 0.299582
O O18 0.330128 0.000000 0.500000
#
# Coordination Sequence:
#
# PCOD9523792 Si02
#       8
#     8   8   8   8  16  16  16   8
#     4   9  20  38  64  94 125 166 210 262 321 387
#     4  11  26  44  67  97 131 171 235 284 325 400
#     4  10  22  40  66  96 131 175 219 264 333 409
#     4  11  23  40  65  95 128 170 225 286 335 384
#     4  11  21  38  64  98 132 169 218 272 331 400
#     4  12  27  46  69  98 134 180 228 277 337 400
#     4  11  23  41  66  95 133 173 217 267 330 402
#     4  12  26  47  71  99 142 177 218 286 345 403
#
# _framework density 18.932642000000001
#
# number of rings (size 3 to 8) (size 9 to 14) (size 15 to 20)
#    0.000    1.000    4.545    1.909    3.818    0.545 
#    0.000    0.455    0.000    1.091    0.000    0.000 
#    0.000    0.000    0.000    0.000    0.000    0.000 
#
# Total GULP energy -245861.126470 kJ/mol
# GULP energy per Si atom -5587.752874 kJ/mol
# Density = 1.888955 g / cm^3
# Si number density = 18.932642 Si / 1000 Ang^3
#
#
#
# Elastic Constant Matrix: (Units=GPa)
#
#
# Indices 1 2 3 4 5 6 
#
# 1 116.8133 45.7743 47.2643 0.0000 0.0000 0.0000
# 2 45.7743 107.5604 39.2852 0.0000 0.0000 0.0000
# 3 47.2643 39.2852 87.7690 0.0000 0.0000 0.0000
# 4 0.0000 0.0000 0.0000 27.8113 0.0000 0.0000
# 5 0.0000 0.0000 0.0000 0.0000 -81.5690 0.0000
# 6 0.0000 0.0000 0.0000 0.0000 0.0000 19.1197
#
#
#
# Elastic Compliance Matrix: (Units=1/GPa)
#
#
# Indices 1 2 3 4 5 6 
#
# 1 0.011817 -0.003233 -0.004916 0.000000 0.000000 0.000000
# 2 -0.003233 0.011999 -0.003629 0.000000 0.000000 0.000000
# 3 -0.004916 -0.003629 0.015666 0.000000 0.000000 0.000000
# 4 0.000000 0.000000 0.000000 0.035957 0.000000 0.000000
# 5 0.000000 0.000000 0.000000 0.000000 -0.012260 0.000000
# 6 0.000000 0.000000 0.000000 0.000000 0.000000 0.052302
#
#
# Mechanical properties :
#
#
# Convention : Reuss Voigt Hill
#
# Bulk Modulus (GPa) = 62.80182 64.08782 63.44482
# Shear Modulus (GPa) = 34.63907 5.06035 19.84971
#
# Velocity S-wave (km/s) = 4.28202 1.63665 3.24147
# Velocity P-wave (km/s) = 7.59544 6.12335 6.89877
#
# Compressibility (1/GPa) = 0.01592310
#
# Stress axis : x y z
#
# Youngs Moduli (GPa) = 84.62503 83.34244 63.83450
#
# Poissons Ratio (x) = 0.26947 0.31383
# Poissons Ratio (y) = 0.27362 0.23168
# Poissons Ratio (z) = 0.41604 0.30249
#
# Static dielectric constant tensor:
#      x y z
#    x 1.673430 0.000000 0.000000 
#    y 0.000000 1.673810 0.000000 
#    z 0.000000 0.000000 1.634410 
# 
# From -- ./inp_files/39058.got.cif
#   From: 2010.05.17/outbox.cif.g08.bks.cpg/sg71_20_cif.got.tgz:39058.got - 2010.06.03 16:22:01.
