data_PCOD9523124
_publ_section_title
;
Structure prediction by ZEFSAII (Michael W. Deem and Ramdas Pophale) SiO2 
 PCOD9523124
Probable space group: I M M M
;
_chemical_formula_sum "Si O2"
_cell_formula_units_Z 96
_cell_length_a 16.660312
_cell_length_b 20.675852
_cell_length_c 14.039964
_cell_angle_alpha 90.000000
_cell_angle_beta 90.000000
_cell_angle_gamma 90.000000
_cell_volume 4836.292278
_symmetry_space_group_name_H-M "I M M M"
_symmetry_group_IT_number 71
_symmetry_cell_setting 'orthorhombic'
loop_
_space_group_symop_operation_xyz
x,y,z
-x,-y,z
x,-y,-z
-x,y,-z
-x,-y,-z
x,y,-z
-x,y,z
x,-y,z
1/2+x,1/2+y,1/2+z
1/2-x,1/2-y,1/2+z
1/2+x,1/2-y,1/2-z
1/2-x,1/2+y,1/2-z
1/2-x,1/2-y,1/2-z
1/2+x,1/2+y,1/2-z
1/2-x,1/2+y,1/2+z
1/2+x,1/2-y,1/2+z
loop_
_atom_site_type_symbol
_atom_site_label
_atom_site_fract_x
_atom_site_fract_y
_atom_site_fract_z
Si Si1 0.715538 0.429951 0.761152
Si Si2 0.088509 0.257170 0.111900
Si Si3 0.361643 0.072386 0.112674
Si Si4 0.407623 0.601611 0.605529
Si Si5 0.913224 0.285422 0.385521
Si Si6 0.263587 0.695733 0.884371
O O1 0.722315 0.500000 0.808573
O O2 0.786614 0.424323 0.683498
O O3 0.638015 0.426884 0.694291
O O4 0.717013 0.372050 0.835358
O O5 0.094687 0.179484 0.116513
O O6 0.173136 0.285004 0.147084
O O7 0.000000 0.277043 0.149881
O O8 0.086530 0.273821 0.000000
O O9 0.409305 0.137971 0.135612
O O10 0.398296 0.000000 0.124458
O O11 0.339690 0.077050 0.000000
O O12 0.373441 0.586002 0.500000
O O13 0.500000 0.581994 0.605187
O O14 0.912494 0.280809 0.500000
O O15 0.833308 0.246833 0.355397
O O16 0.000000 0.258308 0.354015
O O17 0.264194 0.692404 0.000000
#
# Coordination Sequence:
#
# PCOD9523124 Si02
#       6
#    16  16  16  16  16  16
#     4  11  23  36  51  74 104 141 187 230 270 322
#     4   8  15  31  57  86 110 132 165 215 278 343
#     4   9  18  33  53  78 109 140 167 204 259 322
#     4   9  18  33  54  82 114 141 168 214 276 336
#     4   9  18  33  54  80 109 143 182 218 256 313
#     4  10  21  37  56  77 105 142 185 235 280 315
#
# _framework density 19.849917999999999
#
# number of rings (size 3 to 8) (size 9 to 14) (size 15 to 20)
#    0.000    2.667    0.000    2.500    0.000    8.000 
#    0.000    5.000    0.000    1.500    0.000    5.833 
#    0.000    0.000    0.000    0.000    0.000    0.000 
#
# Total GULP energy -267559.456867 kJ/mol
# GULP energy per Si atom -5574.155351 kJ/mol
# Density = 1.980474 g / cm^3
# Si number density = 19.849918 Si / 1000 Ang^3
#
#
#
# Elastic Constant Matrix: (Units=GPa)
#
#
# Indices 1 2 3 4 5 6 
#
# 1 141.6726 68.7936 28.0552 0.0000 0.0000 0.0000
# 2 68.7936 121.3754 35.4552 0.0000 0.0000 0.0000
# 3 28.0552 35.4552 83.7663 0.0000 0.0000 0.0000
# 4 0.0000 0.0000 0.0000 26.0549 0.0000 0.0000
# 5 0.0000 0.0000 0.0000 0.0000 -22.8405 0.0000
# 6 0.0000 0.0000 0.0000 0.0000 0.0000 3.0881
#
#
#
# Elastic Compliance Matrix: (Units=1/GPa)
#
#
# Indices 1 2 3 4 5 6 
#
# 1 0.009821 -0.005256 -0.001065 0.000000 0.000000 0.000000
# 2 -0.005256 0.012214 -0.003409 0.000000 0.000000 0.000000
# 3 -0.001065 -0.003409 0.013738 0.000000 0.000000 0.000000
# 4 0.000000 0.000000 0.000000 0.038381 0.000000 0.000000
# 5 0.000000 0.000000 0.000000 0.000000 -0.043782 0.000000
# 6 0.000000 0.000000 0.000000 0.000000 0.000000 0.323821
#
#
# Mechanical properties :
#
#
# Convention : Reuss Voigt Hill
#
# Bulk Modulus (GPa) = 61.30069 67.93580 64.61825
# Shear Modulus (GPa) = 13.18949 15.56119 14.37534
#
# Velocity S-wave (km/s) = 2.58051 2.80293 2.69402
# Velocity P-wave (km/s) = 6.31093 6.69136 6.50393
#
# Compressibility (1/GPa) = 0.01631303
#
# Stress axis : x y z
#
# Youngs Moduli (GPa) = 101.81842 81.87614 72.79235
#
# Poissons Ratio (x) = 0.43030 0.07752
# Poissons Ratio (y) = 0.53511 0.24818
# Poissons Ratio (z) = 0.10843 0.27914
#
# Static dielectric constant tensor:
#      x y z
#    x 1.742980 0.000000 0.000000 
#    y 0.000000 1.702480 0.000000 
#    z 0.000000 0.000000 1.682660 
# 
# From -- ./inp_files/34534.got.cif
#   From: 2010.05.17/outbox.cif.g08.bks.cpg/sg71_18_cif.got.tgz:34534.got - 2010.06.03 16:22:01.
