data_PCOD9523684
_publ_section_title
;
Structure prediction by ZEFSAII (Michael W. Deem and Ramdas Pophale) SiO2 
 PCOD9523684
Probable space group: I M M M
;
_chemical_formula_sum "Si O2"
_cell_formula_units_Z 72
_cell_length_a 10.112509
_cell_length_b 28.940007
_cell_length_c 13.563880
_cell_angle_alpha 90.000000
_cell_angle_beta 90.000000
_cell_angle_gamma 90.000000
_cell_volume 3969.551967
_symmetry_space_group_name_H-M "I M M M"
_symmetry_group_IT_number 71
_symmetry_cell_setting 'orthorhombic'
loop_
_space_group_symop_operation_xyz
x,y,z
-x,-y,z
x,-y,-z
-x,y,-z
-x,-y,-z
x,y,-z
-x,y,z
x,-y,z
1/2+x,1/2+y,1/2+z
1/2-x,1/2-y,1/2+z
1/2+x,1/2-y,1/2-z
1/2-x,1/2+y,1/2-z
1/2-x,1/2-y,1/2-z
1/2+x,1/2+y,1/2-z
1/2-x,1/2+y,1/2+z
1/2+x,1/2-y,1/2+z
loop_
_atom_site_type_symbol
_atom_site_label
_atom_site_fract_x
_atom_site_fract_y
_atom_site_fract_z
Si Si1 0.655943 0.318584 0.799251
Si Si2 0.000000 0.055379 0.886856
Si Si3 0.000000 0.443929 0.382891
Si Si4 0.650524 0.254471 0.611186
Si Si5 0.839997 0.500000 0.116644
Si Si6 0.750911 0.417826 0.255844
O O1 0.500000 0.321622 0.825386
O O2 0.664710 0.294762 0.691320
O O3 0.740581 0.284532 0.868029
O O4 0.723208 0.368390 0.792459
O O5 0.874068 0.070663 0.824207
O O6 0.000000 0.000000 0.891830
O O7 0.000000 0.072888 0.000000
O O8 0.874559 0.421834 0.329332
O O9 0.000000 0.500000 0.367947
O O10 0.000000 0.436224 0.500000
O O11 0.663527 0.271975 0.500000
O O12 0.500000 0.235771 0.622956
O O13 0.778671 0.455736 0.171607
O O14 0.000000 0.500000 0.129612
O O15 0.813155 0.500000 0.000000
#
# Coordination Sequence:
#
# PCOD9523684 Si02
#       6
#    16   8   8  16   8  16
#     4  10  22  38  61  88 122 156 189 244 303 353
#     4  11  22  36  60  89 124 162 194 234 305 372
#     4  11  22  38  60  87 122 162 202 248 299 348
#     4   9  20  40  63  86 114 154 201 244 292 354
#     4  11  24  43  64  85 117 167 213 253 296 339
#     4  12  21  40  60  90 124 158 201 250 294 353
#
# _framework density 18.138066999999999
#
# number of rings (size 3 to 8) (size 9 to 14) (size 15 to 20)
#    0.000    1.444    4.444    0.667    1.556    4.889 
#    0.000    3.333    0.000    0.000    0.000    0.000 
#    0.000    0.000    0.000    0.000    0.000    0.000 
#
# Total GULP energy -200954.249514 kJ/mol
# GULP energy per Si atom -5582.062486 kJ/mol
# Density = 1.809678 g / cm^3
# Si number density = 18.138067 Si / 1000 Ang^3
#
#
#
# Elastic Constant Matrix: (Units=GPa)
#
#
# Indices 1 2 3 4 5 6 
#
# 1 129.1760 34.7382 37.5779 0.0000 0.0000 0.0001
# 2 34.7382 88.2279 12.2885 0.0000 0.0000 0.0002
# 3 37.5779 12.2885 104.2892 0.0000 0.0000 -0.0005
# 4 0.0000 0.0000 0.0000 1.1994 0.0000 -0.0004
# 5 0.0000 0.0000 0.0000 0.0000 27.5317 0.0001
# 6 0.0001 0.0002 -0.0005 -0.0004 0.0001 -22.8014
#
#
#
# Elastic Compliance Matrix: (Units=1/GPa)
#
#
# Indices 1 2 3 4 5 6 
#
# 1 0.009519 -0.003325 -0.003038 0.000000 0.000000 0.000000
# 2 -0.003325 0.012685 -0.000297 0.000000 0.000000 0.000000
# 3 -0.003038 -0.000297 0.010718 0.000000 0.000000 0.000000
# 4 0.000000 0.000000 0.000000 0.833754 0.000000 -0.000014
# 5 0.000000 0.000000 0.000000 0.000000 0.036322 0.000000
# 6 0.000000 0.000000 0.000000 -0.000014 0.000000 -0.043857
#
#
# Mechanical properties :
#
#
# Convention : Reuss Voigt Hill
#
# Bulk Modulus (GPa) = 51.01276 54.54469 52.77873
# Shear Modulus (GPa) = 5.68831 16.99184 11.34007
#
# Velocity S-wave (km/s) = 1.77283 3.06405 2.50313
# Velocity P-wave (km/s) = 5.69002 6.53109 6.12501
#
# Compressibility (1/GPa) = 0.01960294
#
# Stress axis : x y z
#
# Youngs Moduli (GPa) = 105.04908 78.83497 93.29723
#
# Poissons Ratio (x) = 0.26212 0.28346
# Poissons Ratio (y) = 0.34928 0.02767
# Poissons Ratio (z) = 0.31917 0.02338
#
# Static dielectric constant tensor:
#      x y z
#    x 1.397660 0.000000 0.000000 
#    y 0.000000 1.606880 0.000000 
#    z 0.000000 0.000000 1.605910 
# 
# From -- ./inp_files/6198.got.cif
#   From: 2010.05.17/outbox.cif.g08.bks.cpg/sg71_4_cif.got.tgz:6198.got - 2010.06.03 16:22:01.
