data_PCOD9523177
_publ_section_title
;
Structure prediction by ZEFSAII (Michael W. Deem and Ramdas Pophale) SiO2 
 PCOD9523177
Probable space group: I M M M
;
_chemical_formula_sum "Si O2"
_cell_formula_units_Z 72
_cell_length_a 29.300363
_cell_length_b 9.118471
_cell_length_c 14.496379
_cell_angle_alpha 90.000000
_cell_angle_beta 90.000000
_cell_angle_gamma 90.000000
_cell_volume 3873.062961
_symmetry_space_group_name_H-M "I M M M"
_symmetry_group_IT_number 71
_symmetry_cell_setting 'orthorhombic'
loop_
_space_group_symop_operation_xyz
x,y,z
-x,-y,z
x,-y,-z
-x,y,-z
-x,-y,-z
x,y,-z
-x,y,z
x,-y,z
1/2+x,1/2+y,1/2+z
1/2-x,1/2-y,1/2+z
1/2+x,1/2-y,1/2-z
1/2-x,1/2+y,1/2-z
1/2-x,1/2-y,1/2-z
1/2+x,1/2+y,1/2-z
1/2-x,1/2+y,1/2+z
1/2+x,1/2-y,1/2+z
loop_
_atom_site_type_symbol
_atom_site_label
_atom_site_fract_x
_atom_site_fract_y
_atom_site_fract_z
Si Si1 0.447936 0.178398 0.500000
Si Si2 0.362479 0.827951 0.395063
Si Si3 0.640395 0.166776 0.110607
Si Si4 0.448795 0.668813 0.887620
Si Si5 0.201025 0.826529 0.253964
O O1 0.500000 0.231393 0.500000
O O2 0.415522 0.218644 0.587459
O O3 0.448923 0.000000 0.500000
O O4 0.343312 0.817273 0.500000
O O5 0.332836 0.734772 0.325118
O O6 0.361619 0.000000 0.369046
O O7 0.590679 0.222071 0.142945
O O8 0.677150 0.276649 0.151532
O O9 0.649190 0.000000 0.140566
O O10 0.640856 0.169915 0.000000
O O11 0.500000 0.707046 0.857062
O O12 0.438885 0.500000 0.861073
O O13 0.449169 0.671366 0.000000
O O14 0.250000 0.750000 0.250000
O O15 0.205635 0.000000 0.246907
#
# Coordination Sequence:
#
# PCOD9523177 Si02
#       5
#     8  16  16  16  16
#     4   7  12  28  59  93 121 151 185 227 282 341
#     4   8  17  35  60  87 117 149 185 232 284 343
#     4  10  21  37  57  82 113 147 189 238 283 335
#     4   8  14  27  49  76 107 143 179 216 264 320
#     4  12  25  40  59  80 109 148 192 242 294 349
#
# _framework density 18.589938
#
# number of rings (size 3 to 8) (size 9 to 14) (size 15 to 20)
#    0.667    2.111    0.000    3.333    0.000    3.111 
#    0.000    3.333    0.000    5.333    0.000    0.000 
#    0.000    0.000    0.000    0.000    0.000    0.000 
#
# Total GULP energy -200475.674141 kJ/mol
# GULP energy per Si atom -5568.768726 kJ/mol
# Density = 1.854763 g / cm^3
# Si number density = 18.589938 Si / 1000 Ang^3
#
#
#
# Elastic Constant Matrix: (Units=GPa)
#
#
# Indices 1 2 3 4 5 6 
#
# 1 137.1819 68.4877 32.5052 0.0000 0.0000 0.0000
# 2 68.4877 116.1958 26.6005 0.0000 0.0000 0.0000
# 3 32.5052 26.6005 43.2230 0.0000 0.0000 0.0000
# 4 0.0000 0.0000 0.0000 25.3542 0.0000 0.0000
# 5 0.0000 0.0000 0.0000 0.0000 27.5461 0.0000
# 6 0.0000 0.0000 0.0000 0.0000 0.0000 29.3740
#
#
#
# Elastic Compliance Matrix: (Units=1/GPa)
#
#
# Indices 1 2 3 4 5 6 
#
# 1 0.011212 -0.005445 -0.005081 0.000000 0.000000 0.000000
# 2 -0.005445 0.012662 -0.003697 0.000000 0.000000 0.000000
# 3 -0.005081 -0.003697 0.029232 0.000000 0.000000 0.000000
# 4 0.000000 0.000000 0.000000 0.039441 0.000000 0.000000
# 5 0.000000 0.000000 0.000000 0.000000 0.036303 0.000000
# 6 0.000000 0.000000 0.000000 0.000000 0.000000 0.034044
#
#
# Mechanical properties :
#
#
# Convention : Reuss Voigt Hill
#
# Bulk Modulus (GPa) = 40.55253 61.30973 50.93113
# Shear Modulus (GPa) = 25.05499 27.72202 26.38851
#
# Velocity S-wave (km/s) = 3.67518 3.86584 3.77172
# Velocity P-wave (km/s) = 6.31434 7.27860 6.81355
#
# Compressibility (1/GPa) = 0.02465937
#
# Stress axis : x y z
#
# Youngs Moduli (GPa) = 89.18948 78.97473 34.20897
#
# Poissons Ratio (x) = 0.43006 0.17380
# Poissons Ratio (y) = 0.48568 0.12649
# Poissons Ratio (z) = 0.45313 0.29201
#
# Static dielectric constant tensor:
#      x y z
#    x 1.632150 0.000000 0.000000 
#    y 0.000000 1.623310 0.000000 
#    z 0.000000 0.000000 1.676790 
# 
# From -- ./inp_files/40677.got.cif
#   From: 2010.05.17/outbox.cif.g08.bks.cpg/sg71_21_cif.got.tgz:40677.got - 2010.06.03 16:22:01.
