data_PCOD9523228
_publ_section_title
;
Structure prediction by ZEFSAII (Michael W. Deem and Ramdas Pophale) SiO2 
 PCOD9523228
Probable space group: I M M M
;
_chemical_formula_sum "Si O2"
_cell_formula_units_Z 96
_cell_length_a 8.770091
_cell_length_b 25.269464
_cell_length_c 21.975866
_cell_angle_alpha 90.000000
_cell_angle_beta 90.000000
_cell_angle_gamma 90.000000
_cell_volume 4870.192505
_symmetry_space_group_name_H-M "I M M M"
_symmetry_group_IT_number 71
_symmetry_cell_setting 'orthorhombic'
loop_
_space_group_symop_operation_xyz
x,y,z
-x,-y,z
x,-y,-z
-x,y,-z
-x,-y,-z
x,y,-z
-x,y,z
x,-y,z
1/2+x,1/2+y,1/2+z
1/2-x,1/2-y,1/2+z
1/2+x,1/2-y,1/2-z
1/2-x,1/2+y,1/2-z
1/2-x,1/2-y,1/2-z
1/2+x,1/2+y,1/2-z
1/2-x,1/2+y,1/2+z
1/2+x,1/2-y,1/2+z
loop_
_atom_site_type_symbol
_atom_site_label
_atom_site_fract_x
_atom_site_fract_y
_atom_site_fract_z
Si Si1 0.681506 0.059491 0.598260
Si Si2 0.316871 0.559674 0.365883
Si Si3 0.321167 0.697007 0.724747
Si Si4 0.177916 0.915750 0.273996
Si Si5 0.181185 0.243727 0.000000
Si Si6 0.679416 0.165568 0.098180
Si Si7 0.181580 0.138113 0.500000
O O1 0.500000 0.065232 0.591325
O O2 0.726833 0.064263 0.669111
O O3 0.762158 0.104415 0.558327
O O4 0.724215 0.000000 0.577720
O O5 0.500000 0.567844 0.367875
O O6 0.281988 0.500000 0.385416
O O7 0.275013 0.565393 0.293858
O O8 0.239511 0.605299 0.405682
O O9 0.500000 0.702978 0.708362
O O10 0.250000 0.750000 0.750000
O O11 0.312720 0.647988 0.771200
O O12 0.223072 0.681008 0.666610
O O13 0.000000 0.930889 0.281877
O O14 0.236722 0.208197 0.943547
O O15 0.251902 0.302461 0.000000
O O16 0.000000 0.248633 0.000000
O O17 0.500000 0.167727 0.086802
O O18 0.000000 0.141304 0.500000
#
# Coordination Sequence:
#
# PCOD9523228 Si02
#       7
#    16  16  16  16   8  16   8
#     4  11  24  41  61  88 123 160 202 250 301 359
#     4   9  18  36  62  92 127 165 205 248 299 360
#     4  10  21  37  58  86 122 162 204 253 304 361
#     4   9  19  35  57  87 122 160 203 247 297 355
#     4  12  26  47  70  89 118 159 205 255 307 366
#     4  11  23  40  62  91 125 160 201 251 306 366
#     4  12  27  45  66  88 113 152 203 254 309 367
#
# _framework density 19.711746999999999
#
# number of rings (size 3 to 8) (size 9 to 14) (size 15 to 20)
#    0.000    1.667    0.000    5.750    2.333    6.667 
#    0.000    0.417    0.000    2.500    0.000    0.000 
#    0.000    0.000    0.000    0.000    0.000    0.000 
#
# Total GULP energy -268155.314596 kJ/mol
# GULP energy per Si atom -5586.569054 kJ/mol
# Density = 1.966688 g / cm^3
# Si number density = 19.711747 Si / 1000 Ang^3
#
#
#
# Elastic Constant Matrix: (Units=GPa)
#
#
# Indices 1 2 3 4 5 6 
#
# 1 114.4285 78.0995 33.2815 0.0000 0.0000 0.0000
# 2 78.0995 180.5702 46.4361 0.0000 0.0000 0.0000
# 3 33.2815 46.4361 54.7076 0.0000 0.0000 0.0000
# 4 0.0000 0.0000 0.0000 17.8718 0.0000 0.0000
# 5 0.0000 0.0000 0.0000 0.0000 16.8021 0.0000
# 6 0.0000 0.0000 0.0000 0.0000 0.0000 28.8441
#
#
#
# Elastic Compliance Matrix: (Units=1/GPa)
#
#
# Indices 1 2 3 4 5 6 
#
# 1 0.013059 -0.004612 -0.004030 0.000000 0.000000 0.000000
# 2 -0.004612 0.008713 -0.004590 0.000000 0.000000 0.000000
# 3 -0.004030 -0.004590 0.024627 0.000000 0.000000 0.000000
# 4 0.000000 0.000000 0.000000 0.055954 0.000000 0.000000
# 5 0.000000 0.000000 0.000000 0.000000 0.059516 0.000000
# 6 0.000000 0.000000 0.000000 0.000000 0.000000 0.034669
#
#
# Mechanical properties :
#
#
# Convention : Reuss Voigt Hill
#
# Bulk Modulus (GPa) = 50.16288 73.92671 62.04480
# Shear Modulus (GPa) = 21.77256 25.49621 23.63439
#
# Velocity S-wave (km/s) = 3.32708 3.60036 3.46641
# Velocity P-wave (km/s) = 6.34529 7.40735 6.89679
#
# Compressibility (1/GPa) = 0.01993506
#
# Stress axis : x y z
#
# Youngs Moduli (GPa) = 76.57668 114.76965 40.60638
#
# Poissons Ratio (x) = 0.52930 0.16364
# Poissons Ratio (y) = 0.35316 0.18639
# Poissons Ratio (z) = 0.30859 0.52681
#
# Static dielectric constant tensor:
#      x y z
#    x 1.664340 0.000000 0.000000 
#    y 0.000000 1.684800 0.000000 
#    z 0.000000 0.000000 1.689270 
# 
# From -- ./inp_files/57749.got.cif
#   From: 2010.05.17/outbox.cif.g08.bks.cpg/sg71_29_cif.got.tgz:57749.got - 2010.06.03 16:22:01.
