data_PCOD9523853
_publ_section_title
;
Structure prediction by ZEFSAII (Michael W. Deem and Ramdas Pophale) SiO2 
 PCOD9523853
Probable space group: I M M M
;
_chemical_formula_sum "Si O2"
_cell_formula_units_Z 72
_cell_length_a 9.195164
_cell_length_b 27.257110
_cell_length_c 14.410516
_cell_angle_alpha 90.000000
_cell_angle_beta 90.000000
_cell_angle_gamma 90.000000
_cell_volume 3611.759454
_symmetry_space_group_name_H-M "I M M M"
_symmetry_group_IT_number 71
_symmetry_cell_setting 'orthorhombic'
loop_
_space_group_symop_operation_xyz
x,y,z
-x,-y,z
x,-y,-z
-x,y,-z
-x,-y,-z
x,y,-z
-x,y,z
x,-y,z
1/2+x,1/2+y,1/2+z
1/2-x,1/2-y,1/2+z
1/2+x,1/2-y,1/2-z
1/2-x,1/2+y,1/2-z
1/2-x,1/2-y,1/2-z
1/2+x,1/2+y,1/2-z
1/2-x,1/2+y,1/2+z
1/2+x,1/2-y,1/2+z
loop_
_atom_site_type_symbol
_atom_site_label
_atom_site_fract_x
_atom_site_fract_y
_atom_site_fract_z
Si Si1 0.732399 0.781560 0.000000
Si Si2 0.674780 0.328715 0.000000
Si Si3 0.666183 0.389868 0.500000
Si Si4 0.836532 0.295495 0.291546
Si Si5 0.329887 0.057786 0.169722
Si Si6 0.326847 0.617864 0.805738
O O1 0.764605 0.722605 0.000000
O O2 0.834350 0.830192 0.000000
O O3 0.654853 0.788836 0.098290
O O4 0.702070 0.361385 0.908757
O O5 0.500000 0.315705 0.000000
O O6 0.500000 0.406784 0.500000
O O7 0.749139 0.412185 0.411206
O O8 0.750000 0.250000 0.250000
O O9 0.740609 0.341305 0.261865
O O10 0.000000 0.298892 0.253709
O O11 0.500000 0.072170 0.172343
O O12 0.254070 0.069757 0.268297
O O13 0.320926 0.000000 0.149491
O O14 0.500000 0.613415 0.794624
#
# Coordination Sequence:
#
# PCOD9523853 Si02
#       6
#     8   8   8  16  16  16
#     4  12  24  39  62  92 136 175 211 252 315 374
#     4  10  22  42  64  92 128 171 214 258 312 375
#     4  12  26  41  64  99 134 169 217 263 310 380
#     4  12  24  39  61  89 127 174 218 262 315 379
#     4  11  25  45  68  94 127 167 211 264 331 393
#     4  11  23  42  66  92 125 165 215 269 321 379
#
# _framework density 19.934882000000002
#
# number of rings (size 3 to 8) (size 9 to 14) (size 15 to 20)
#    0.000    0.667    4.444    3.667    0.000    5.778 
#    0.000    2.778    0.000    3.333    0.000    0.000 
#    0.000    0.000    0.000    0.000    0.000    0.000 
#
# Total GULP energy -200887.901601 kJ/mol
# GULP energy per Si atom -5580.219489 kJ/mol
# Density = 1.988951 g / cm^3
# Si number density = 19.934882 Si / 1000 Ang^3
#
#
#
# Elastic Constant Matrix: (Units=GPa)
#
#
# Indices 1 2 3 4 5 6 
#
# 1 140.3781 51.8152 61.7161 0.0000 0.0000 0.0000
# 2 51.8152 81.1299 42.0981 0.0000 0.0000 0.0000
# 3 61.7161 42.0981 144.8898 0.0000 0.0000 0.0000
# 4 0.0000 0.0000 0.0000 30.3241 0.0000 0.0000
# 5 0.0000 0.0000 0.0000 0.0000 15.5926 0.0000
# 6 0.0000 0.0000 0.0000 0.0000 0.0000 19.9438
#
#
#
# Elastic Compliance Matrix: (Units=1/GPa)
#
#
# Indices 1 2 3 4 5 6 
#
# 1 0.010264 -0.005048 -0.002905 0.000000 0.000000 0.000000
# 2 -0.005048 0.016997 -0.002788 0.000000 0.000000 0.000000
# 3 -0.002905 -0.002788 0.008949 0.000000 0.000000 0.000000
# 4 0.000000 0.000000 0.000000 0.032977 0.000000 0.000000
# 5 0.000000 0.000000 0.000000 0.000000 0.064133 0.000000
# 6 0.000000 0.000000 0.000000 0.000000 0.000000 0.050141
#
#
# Mechanical properties :
#
#
# Convention : Reuss Voigt Hill
#
# Bulk Modulus (GPa) = 67.90104 75.29517 71.59811
# Shear Modulus (GPa) = 23.82618 27.22334 25.52476
#
# Velocity S-wave (km/s) = 3.46092 3.69943 3.58216
# Velocity P-wave (km/s) = 7.07856 7.49001 7.28719
#
# Compressibility (1/GPa) = 0.01472732
#
# Stress axis : x y z
#
# Youngs Moduli (GPa) = 97.42646 58.83525 111.73819
#
# Poissons Ratio (x) = 0.29699 0.32464
# Poissons Ratio (y) = 0.49179 0.31156
# Poissons Ratio (z) = 0.28306 0.16405
#
# Static dielectric constant tensor:
#      x y z
#    x 1.680920 0.000000 0.000000 
#    y 0.000000 1.670380 0.000000 
#    z 0.000000 0.000000 1.724830 
# 
# From -- ./inp_files/31487.got.cif
#   From: 2010.05.17/outbox.cif.g08.bks.cpg/sg71_16_cif.got.tgz:31487.got - 2010.06.03 16:22:01.
