data_PCOD9523741
_publ_section_title
;
Structure prediction by ZEFSAII (Michael W. Deem and Ramdas Pophale) SiO2 
 PCOD9523741
Probable space group: I M M M
;
_chemical_formula_sum "Si O2"
_cell_formula_units_Z 96
_cell_length_a 25.933874
_cell_length_b 24.093483
_cell_length_c 8.649018
_cell_angle_alpha 90.000000
_cell_angle_beta 90.000000
_cell_angle_gamma 90.000000
_cell_volume 5404.229507
_symmetry_space_group_name_H-M "I M M M"
_symmetry_group_IT_number 71
_symmetry_cell_setting 'orthorhombic'
loop_
_space_group_symop_operation_xyz
x,y,z
-x,-y,z
x,-y,-z
-x,y,-z
-x,-y,-z
x,y,-z
-x,y,z
x,-y,z
1/2+x,1/2+y,1/2+z
1/2-x,1/2-y,1/2+z
1/2+x,1/2-y,1/2-z
1/2-x,1/2+y,1/2-z
1/2-x,1/2-y,1/2-z
1/2+x,1/2+y,1/2-z
1/2-x,1/2+y,1/2+z
1/2+x,1/2-y,1/2+z
loop_
_atom_site_type_symbol
_atom_site_label
_atom_site_fract_x
_atom_site_fract_y
_atom_site_fract_z
Si Si1 0.250161 0.188018 0.816022
Si Si2 0.846145 0.617998 0.186112
Si Si3 0.298931 0.500000 0.185478
Si Si4 0.683358 0.000000 0.183940
Si Si5 0.343995 0.619051 0.815876
Si Si6 0.941462 0.306851 0.811864
Si Si7 0.940007 0.179357 0.185967
O O1 0.250000 0.250000 0.750000
O O2 0.297001 0.152717 0.744661
O O3 0.197237 0.158100 0.768744
O O4 0.255280 0.189383 0.000000
O O5 0.841855 0.555809 0.249198
O O6 0.897873 0.650098 0.237837
O O7 0.844983 0.616650 0.000000
O O8 0.243424 0.500000 0.266171
O O9 0.330043 0.444328 0.224399
O O10 0.289797 0.500000 0.000000
O O11 0.679932 0.000000 0.000000
O O12 0.400554 0.638022 0.765781
O O13 0.337766 0.625489 0.000000
O O14 0.928764 0.243345 0.767094
O O15 0.000000 0.319579 0.760906
O O16 0.941981 0.307238 0.000000
O O17 0.000000 0.168506 0.221659
O O18 0.933983 0.176106 0.000000
#
# Coordination Sequence:
#
# PCOD9523741 Si02
#       7
#    16  16   8   8  16  16  16
#     4  12  24  37  55  83 117 149 186 232 288 350
#     4  11  21  36  59  85 114 147 188 240 290 338
#     4  10  22  40  59  78 109 151 196 240 289 342
#     4  12  24  38  57  80 111 155 196 234 283 348
#     4  11  22  37  58  83 112 148 192 240 290 344
#     4   8  16  33  58  85 111 144 186 230 281 339
#     4   9  18  35  59  86 117 152 189 233 287 347
#
# _framework density 17.763864000000002
#
# number of rings (size 3 to 8) (size 9 to 14) (size 15 to 20)
#    0.000    1.667    1.667    5.250    0.000    2.333 
#    0.000    1.667    0.000    9.000    0.000    0.000 
#    0.000    0.000    0.000    0.000    0.000    0.000 
#
# Total GULP energy -268158.240675 kJ/mol
# GULP energy per Si atom -5586.630014 kJ/mol
# Density = 1.772343 g / cm^3
# Si number density = 17.763864 Si / 1000 Ang^3
#
#
#
# Elastic Constant Matrix: (Units=GPa)
#
#
# Indices 1 2 3 4 5 6 
#
# 1 83.4741 47.9417 34.0324 0.0000 0.0000 0.0000
# 2 47.9417 115.8338 45.7628 0.0000 0.0000 0.0000
# 3 34.0324 45.7628 65.7287 0.0000 0.0000 0.0000
# 4 0.0000 0.0000 0.0000 28.3132 0.0000 0.0000
# 5 0.0000 0.0000 0.0000 0.0000 25.1085 0.0000
# 6 0.0000 0.0000 0.0000 0.0000 0.0000 11.5892
#
#
#
# Elastic Compliance Matrix: (Units=1/GPa)
#
#
# Indices 1 2 3 4 5 6 
#
# 1 0.016992 -0.004906 -0.005382 0.000000 0.000000 0.000000
# 2 -0.004906 0.013325 -0.006737 0.000000 0.000000 0.000000
# 3 -0.005382 -0.006737 0.022691 0.000000 0.000000 0.000000
# 4 0.000000 0.000000 0.000000 0.035319 0.000000 0.000000
# 5 0.000000 0.000000 0.000000 0.000000 0.039827 0.000000
# 6 0.000000 0.000000 0.000000 0.000000 0.000000 0.086287
#
#
# Mechanical properties :
#
#
# Convention : Reuss Voigt Hill
#
# Bulk Modulus (GPa) = 52.74939 57.83448 55.29193
# Shear Modulus (GPa) = 19.62226 22.15550 20.88888
#
# Velocity S-wave (km/s) = 3.32718 3.53544 3.43289
# Velocity P-wave (km/s) = 6.67229 7.02095 6.84884
#
# Compressibility (1/GPa) = 0.01895757
#
# Stress axis : x y z
#
# Youngs Moduli (GPa) = 58.85172 75.04430 44.06966
#
# Poissons Ratio (x) = 0.36820 0.23718
# Poissons Ratio (y) = 0.28875 0.29691
# Poissons Ratio (z) = 0.31673 0.50559
#
# Static dielectric constant tensor:
#      x y z
#    x 1.591220 0.000000 0.000000 
#    y 0.000000 1.586850 0.000000 
#    z 0.000000 0.000000 1.603710 
# 
# From -- ./inp_files/12900.got.cif
#   From: 2010.05.17/outbox.cif.g08.bks.cpg/sg71_7_cif.got.tgz:12900.got - 2010.06.03 16:22:01.
