data_PCOD9523685
_publ_section_title
;
Structure prediction by ZEFSAII (Michael W. Deem and Ramdas Pophale) SiO2 
 PCOD9523685
Probable space group: I M M M
;
_chemical_formula_sum "Si O2"
_cell_formula_units_Z 82
_cell_length_a 27.061629
_cell_length_b 19.959815
_cell_length_c 7.760878
_cell_angle_alpha 90.000000
_cell_angle_beta 90.000000
_cell_angle_gamma 90.000000
_cell_volume 4192.000289
_symmetry_space_group_name_H-M "I M M M"
_symmetry_group_IT_number 71
_symmetry_cell_setting 'orthorhombic'
loop_
_space_group_symop_operation_xyz
x,y,z
-x,-y,z
x,-y,-z
-x,y,-z
-x,-y,-z
x,y,-z
-x,y,z
x,-y,z
1/2+x,1/2+y,1/2+z
1/2-x,1/2-y,1/2+z
1/2+x,1/2-y,1/2-z
1/2-x,1/2+y,1/2-z
1/2-x,1/2-y,1/2-z
1/2+x,1/2+y,1/2-z
1/2-x,1/2+y,1/2+z
1/2+x,1/2-y,1/2+z
loop_
_atom_site_type_symbol
_atom_site_label
_atom_site_fract_x
_atom_site_fract_y
_atom_site_fract_z
Si Si1 0.844329 0.073610 0.705878
Si Si2 0.905740 0.401533 0.000000
Si Si3 0.828682 0.424277 0.702893
Si Si4 0.442709 0.646014 0.204827
Si Si5 0.000000 0.500000 0.000000
Si Si6 0.242688 0.172554 0.796533
Si Si7 0.941819 0.746904 0.000000
O O1 0.842196 0.069232 0.500000
O O2 0.900947 0.091778 0.749860
O O3 0.808145 0.134858 0.751246
O O4 0.830199 0.000000 0.776698
O O5 0.875236 0.419992 0.171601
O O6 0.956574 0.441747 0.000000
O O7 0.912856 0.321859 0.000000
O O8 0.840640 0.411534 0.500000
O O9 0.808412 0.500000 0.712088
O O10 0.787951 0.372372 0.770416
O O11 0.500000 0.625386 0.233714
O O12 0.432412 0.708710 0.329658
O O13 0.437934 0.661824 0.000000
O O14 0.250000 0.250000 0.750000
O O15 0.246250 0.168702 0.000000
O O16 0.000000 0.731217 0.000000
#
# Coordination Sequence:
#
# PCOD9523685 Si02
#       7
#    16   8  16  16   2  16   8
#     4  10  22  39  61  90 124 163 207 258 316 373
#     4  12  24  42  70  91 132 164 209 272 318 386
#     4  10  23  43  64  90 122 169 213 251 323 388
#     4   9  20  39  61  89 125 164 210 255 311 378
#     4  12  24  48  66 112 124 166 234 260 340 396
#     4  11  25  41  61  91 126 162 212 266 315 381
#     4  10  22  38  61  90 124 164 202 259 313 375
#
# _framework density 19.561066
#
# number of rings (size 3 to 8) (size 9 to 14) (size 15 to 20)
#    0.000    1.756    1.463    1.171    6.829    2.341 
#    0.000    2.927    0.000    1.756    0.000    0.000 
#    0.000    0.000    0.000    0.000    0.000    0.000 
#
# Total GULP energy -228475.845542 kJ/mol
# GULP energy per Si atom -5572.581599 kJ/mol
# Density = 1.951654 g / cm^3
# Si number density = 19.561066 Si / 1000 Ang^3
#
#
#
# Elastic Constant Matrix: (Units=GPa)
#
#
# Indices 1 2 3 4 5 6 
#
# 1 132.7039 76.2962 37.3389 0.0000 0.0000 0.0000
# 2 76.2962 146.3279 30.4664 0.0000 0.0000 0.0000
# 3 37.3389 30.4664 57.6987 0.0000 0.0000 0.0000
# 4 0.0000 0.0000 0.0000 21.3942 0.0000 0.0000
# 5 0.0000 0.0000 0.0000 0.0000 17.5921 0.0000
# 6 0.0000 0.0000 0.0000 0.0000 0.0000 38.7961
#
#
#
# Elastic Compliance Matrix: (Units=1/GPa)
#
#
# Indices 1 2 3 4 5 6 
#
# 1 0.011910 -0.005174 -0.004976 0.000000 0.000000 0.000000
# 2 -0.005174 0.009926 -0.001893 0.000000 0.000000 0.000000
# 3 -0.004976 -0.001893 0.021551 0.000000 0.000000 0.000000
# 4 0.000000 0.000000 0.000000 0.046742 0.000000 0.000000
# 5 0.000000 0.000000 0.000000 0.000000 0.056844 0.000000
# 6 0.000000 0.000000 0.000000 0.000000 0.000000 0.025776
#
#
# Mechanical properties :
#
#
# Convention : Reuss Voigt Hill
#
# Bulk Modulus (GPa) = 51.80794 69.43705 60.62250
# Shear Modulus (GPa) = 24.59820 28.39842 26.49831
#
# Velocity S-wave (km/s) = 3.54998 3.81436 3.68454
# Velocity P-wave (km/s) = 6.58376 7.41443 7.01141
#
# Compressibility (1/GPa) = 0.01930206
#
# Stress axis : x y z
#
# Youngs Moduli (GPa) = 83.96052 100.74655 46.40229
#
# Poissons Ratio (x) = 0.52128 0.23087
# Poissons Ratio (y) = 0.43443 0.08783
# Poissons Ratio (z) = 0.41775 0.19069
#
# Static dielectric constant tensor:
#      x y z
#    x 1.691620 0.000000 0.000000 
#    y 0.000000 1.655510 0.000000 
#    z 0.000000 0.000000 1.645980 
# 
# From -- ./inp_files/12445.got.cif
#   From: 2010.05.17/outbox.cif.g08.bks.cpg/sg71_7_cif.got.tgz:12445.got - 2010.06.03 16:22:01.
