data_PCOD9523910
_publ_section_title
;
Structure prediction by ZEFSAII (Michael W. Deem and Ramdas Pophale) SiO2 
 PCOD9523910
Probable space group: I M M M
;
_chemical_formula_sum "Si O2"
_cell_formula_units_Z 112
_cell_length_a 15.001224
_cell_length_b 24.495109
_cell_length_c 14.695984
_cell_angle_alpha 90.000000
_cell_angle_beta 90.000000
_cell_angle_gamma 90.000000
_cell_volume 5400.136564
_symmetry_space_group_name_H-M "I M M M"
_symmetry_group_IT_number 71
_symmetry_cell_setting 'orthorhombic'
loop_
_space_group_symop_operation_xyz
x,y,z
-x,-y,z
x,-y,-z
-x,y,-z
-x,-y,-z
x,y,-z
-x,y,z
x,-y,z
1/2+x,1/2+y,1/2+z
1/2-x,1/2-y,1/2+z
1/2+x,1/2-y,1/2-z
1/2-x,1/2+y,1/2-z
1/2-x,1/2-y,1/2-z
1/2+x,1/2+y,1/2-z
1/2-x,1/2+y,1/2+z
1/2+x,1/2-y,1/2+z
loop_
_atom_site_type_symbol
_atom_site_label
_atom_site_fract_x
_atom_site_fract_y
_atom_site_fract_z
Si Si1 0.257495 0.750373 0.111467
Si Si2 0.107193 0.564048 0.752234
Si Si3 0.394296 0.843588 0.107162
Si Si4 0.104376 0.058516 0.145508
Si Si5 0.598095 0.437291 0.864644
Si Si6 0.773682 0.372464 0.897042
Si Si7 0.399988 0.323420 0.393305
O O1 0.338687 0.790223 0.137191
O O2 0.250346 0.687663 0.140024
O O3 0.167998 0.780061 0.145412
O O4 0.259131 0.749344 0.000000
O O5 0.132816 0.500000 0.742476
O O6 0.127427 0.602270 0.665160
O O7 0.159762 0.592924 0.834442
O O8 0.000000 0.565653 0.766612
O O9 0.500000 0.833333 0.117777
O O10 0.376282 0.852807 0.000000
O O11 0.104785 0.061203 0.254768
O O12 0.141166 0.115918 0.112820
O O13 0.000000 0.058320 0.116258
O O14 0.143448 0.000000 0.117253
O O15 0.500000 0.415489 0.888189
O O16 0.603040 0.500000 0.894651
O O17 0.680143 0.403705 0.900058
O O18 0.809768 0.367338 0.000000
O O19 0.408437 0.311195 0.500000
O O20 0.500000 0.323180 0.353051
#
# Coordination Sequence:
#
# PCOD9523910 Si02
#       7
#    16  16  16  16  16  16  16
#     4   9  20  37  56  82 115 152 196 240 284 344
#     4  10  23  42  63  90 120 152 200 255 302 357
#     4   9  19  39  65  90 120 156 193 243 305 360
#     4   8  15  29  48  72 105 143 179 219 272 330
#     4   9  19  36  56  80 111 144 183 233 285 343
#     4  11  24  40  60  85 117 159 200 244 297 348
#     4   9  17  30  49  75 110 149 187 228 272 328
#
# _framework density 20.740216
#
# number of rings (size 3 to 8) (size 9 to 14) (size 15 to 20)
#    0.000    2.714    0.000    1.286    2.000    4.000 
#    0.000    7.143    0.000    2.571    0.000    0.000 
#    0.000    0.000    0.000    0.000    0.000    0.143 
#
# Total GULP energy -312411.737897 kJ/mol
# GULP energy per Si atom -5578.781034 kJ/mol
# Density = 2.069301 g / cm^3
# Si number density = 20.740216 Si / 1000 Ang^3
#
#
#
# Elastic Constant Matrix: (Units=GPa)
#
#
# Indices 1 2 3 4 5 6 
#
# 1 74.4599 68.8483 31.6849 0.0000 0.0000 0.0000
# 2 68.8483 167.0906 36.2095 0.0000 0.0000 0.0000
# 3 31.6849 36.2095 70.7880 0.0000 0.0000 0.0000
# 4 0.0000 0.0000 0.0000 16.9651 0.0000 0.0000
# 5 0.0000 0.0000 0.0000 0.0000 9.5247 0.0000
# 6 0.0000 0.0000 0.0000 0.0000 0.0000 46.4618
#
#
#
# Elastic Compliance Matrix: (Units=1/GPa)
#
#
# Indices 1 2 3 4 5 6 
#
# 1 0.024023 -0.008512 -0.006399 0.000000 0.000000 0.000000
# 2 -0.008512 0.009747 -0.001176 0.000000 0.000000 0.000000
# 3 -0.006399 -0.001176 0.017592 0.000000 0.000000 0.000000
# 4 0.000000 0.000000 0.000000 0.058945 0.000000 0.000000
# 5 0.000000 0.000000 0.000000 0.000000 0.104990 0.000000
# 6 0.000000 0.000000 0.000000 0.000000 0.000000 0.021523
#
#
# Mechanical properties :
#
#
# Convention : Reuss Voigt Hill
#
# Bulk Modulus (GPa) = 52.11228 65.09155 58.60192
# Shear Modulus (GPa) = 18.15609 26.29672 22.22640
#
# Velocity S-wave (km/s) = 2.96193 3.56463 3.27717
# Velocity P-wave (km/s) = 6.07274 6.95662 6.52965
#
# Compressibility (1/GPa) = 0.01918933
#
# Stress axis : x y z
#
# Youngs Moduli (GPa) = 41.62595 102.59711 56.84319
#
# Poissons Ratio (x) = 0.87331 0.36373
# Poissons Ratio (y) = 0.35432 0.06683
# Poissons Ratio (z) = 0.26636 0.12063
#
# Static dielectric constant tensor:
#      x y z
#    x 1.746340 0.000000 0.000000 
#    y 0.000000 1.694160 0.000000 
#    z 0.000000 0.000000 1.781930 
# 
# From -- ./inp_files/34881.got.cif
#   From: 2010.05.17/outbox.cif.g08.bks.cpg/sg71_18_cif.got.tgz:34881.got - 2010.06.03 16:22:01.
