data_PCOD9523523
_publ_section_title
;
Structure prediction by ZEFSAII (Michael W. Deem and Ramdas Pophale) SiO2 
 PCOD9523523
Probable space group: I M M M
;
_chemical_formula_sum "Si O2"
_cell_formula_units_Z 50
_cell_length_a 15.573361
_cell_length_b 9.648030
_cell_length_c 15.522670
_cell_angle_alpha 90.000000
_cell_angle_beta 90.000000
_cell_angle_gamma 90.000000
_cell_volume 2332.316158
_symmetry_space_group_name_H-M "I M M M"
_symmetry_group_IT_number 71
_symmetry_cell_setting 'orthorhombic'
loop_
_space_group_symop_operation_xyz
x,y,z
-x,-y,z
x,-y,-z
-x,y,-z
-x,-y,-z
x,y,-z
-x,y,z
x,-y,z
1/2+x,1/2+y,1/2+z
1/2-x,1/2-y,1/2+z
1/2+x,1/2-y,1/2-z
1/2-x,1/2+y,1/2-z
1/2-x,1/2-y,1/2-z
1/2+x,1/2+y,1/2-z
1/2-x,1/2+y,1/2+z
1/2+x,1/2-y,1/2+z
loop_
_atom_site_type_symbol
_atom_site_label
_atom_site_fract_x
_atom_site_fract_y
_atom_site_fract_z
Si Si1 0.654527 0.658071 0.500000
Si Si2 0.396035 0.345335 0.819270
Si Si3 0.896442 0.342569 0.163065
Si Si4 0.348925 0.769164 0.000000
Si Si5 0.500000 0.000000 0.000000
O O1 0.621816 0.500000 0.500000
O O2 0.625650 0.744204 0.416465
O O3 0.757176 0.658682 0.500000
O O4 0.500000 0.335967 0.826368
O O5 0.375342 0.500000 0.787659
O O6 0.366752 0.229345 0.751542
O O7 0.358031 0.319843 0.913220
O O8 0.863970 0.500000 0.152855
O O9 0.000000 0.349771 0.167647
O O10 0.425261 0.879721 0.000000
#
# Coordination Sequence:
#
# PCOD9523523 Si02
#       5
#     8  16  16   8   2
#     4  12  26  42  62  95 128 167 213 268 323 371
#     4  10  21  39  65  96 126 166 214 263 317 378
#     4  10  23  42  68  94 128 171 215 257 315 386
#     4  12  25  40  68  91 132 166 216 266 320 377
#     4  12  24  44  66  96 122 178 214 260 312 404
#
# _framework density 21.437916000000001
#
# number of rings (size 3 to 8) (size 9 to 14) (size 15 to 20)
#    0.000    1.280    2.400    2.400    2.240    8.960 
#    0.000    0.000    0.000    0.000    0.000    0.000 
#    0.000    0.000    0.000    0.000    0.000    0.000 
#
# Total GULP energy -139563.147138 kJ/mol
# GULP energy per Si atom -5582.525886 kJ/mol
# Density = 2.138912 g / cm^3
# Si number density = 21.437916 Si / 1000 Ang^3
#
#
#
# Elastic Constant Matrix: (Units=GPa)
#
#
# Indices 1 2 3 4 5 6 
#
# 1 38.1071 17.0432 3.6870 0.0000 0.0000 0.0000
# 2 17.0432 198.7853 85.4148 0.0000 0.0000 0.0000
# 3 3.6870 85.4148 159.2333 0.0000 0.0000 0.0000
# 4 0.0000 0.0000 0.0000 387.3760 0.0000 0.0000
# 5 0.0000 0.0000 0.0000 0.0000 79.8794 0.0000
# 6 0.0000 0.0000 0.0000 0.0000 0.0000 19.2181
#
#
#
# Elastic Compliance Matrix: (Units=1/GPa)
#
#
# Indices 1 2 3 4 5 6 
#
# 1 0.027369 -0.002695 0.000812 0.000000 0.000000 0.000000
# 2 -0.002695 0.006803 -0.003587 0.000000 0.000000 0.000000
# 3 0.000812 -0.003587 0.008185 0.000000 0.000000 0.000000
# 4 0.000000 0.000000 0.000000 0.002581 0.000000 0.000000
# 5 0.000000 0.000000 0.000000 0.000000 0.012519 0.000000
# 6 0.000000 0.000000 0.000000 0.000000 0.000000 0.052034
#
#
# Mechanical properties :
#
#
# Convention : Reuss Voigt Hill
#
# Bulk Modulus (GPa) = 31.83012 67.60177 49.71594
# Shear Modulus (GPa) = 38.19603 116.62676 77.41140
#
# Velocity S-wave (km/s) = 4.22560 7.38378 6.01564
# Velocity P-wave (km/s) = 6.21992 10.21253 8.45527
#
# Compressibility (1/GPa) = 0.03141678
#
# Stress axis : x y z
#
# Youngs Moduli (GPa) = 36.53800 146.99829 122.17114
#
# Poissons Ratio (x) = 0.39623 -0.09922
# Poissons Ratio (y) = 0.09849 0.43819
# Poissons Ratio (z) = -0.02968 0.52724
#
# Static dielectric constant tensor:
#      x y z
#    x 1.769960 0.000000 0.000000 
#    y 0.000000 1.767630 0.000000 
#    z 0.000000 0.000000 1.742890 
# 
# From -- ./inp_files/4706.got.cif
#   From: 2010.05.17/outbox.cif.g08.bks.cpg/sg71_3_cif.got.tgz:4706.got - 2010.06.03 16:22:01.
