data_PCOD9523745
_publ_section_title
;
Structure prediction by ZEFSAII (Michael W. Deem and Ramdas Pophale) SiO2 
 PCOD9523745
Probable space group: I M M M
;
_chemical_formula_sum "Si O2"
_cell_formula_units_Z 72
_cell_length_a 30.583771
_cell_length_b 8.660309
_cell_length_c 14.763599
_cell_angle_alpha 90.000000
_cell_angle_beta 90.000000
_cell_angle_gamma 90.000000
_cell_volume 3910.359280
_symmetry_space_group_name_H-M "I M M M"
_symmetry_group_IT_number 71
_symmetry_cell_setting 'orthorhombic'
loop_
_space_group_symop_operation_xyz
x,y,z
-x,-y,z
x,-y,-z
-x,y,-z
-x,-y,-z
x,y,-z
-x,y,z
x,-y,z
1/2+x,1/2+y,1/2+z
1/2-x,1/2-y,1/2+z
1/2+x,1/2-y,1/2-z
1/2-x,1/2+y,1/2-z
1/2-x,1/2-y,1/2-z
1/2+x,1/2+y,1/2-z
1/2-x,1/2+y,1/2+z
1/2+x,1/2-y,1/2+z
loop_
_atom_site_type_symbol
_atom_site_label
_atom_site_fract_x
_atom_site_fract_y
_atom_site_fract_z
Si Si1 0.949004 0.312724 0.301376
Si Si2 0.446786 0.821651 0.000000
Si Si3 0.668220 0.314449 0.500000
Si Si4 0.266088 0.316215 0.000000
Si Si5 0.290645 0.184219 0.807699
Si Si6 0.870698 0.184651 0.805867
O O1 0.946246 0.500000 0.301881
O O2 0.934358 0.255522 0.402113
O O3 0.917647 0.244343 0.225931
O O4 0.000000 0.272681 0.288878
O O5 0.500000 0.824445 0.000000
O O6 0.431882 0.000000 0.000000
O O7 0.676111 0.500000 0.500000
O O8 0.715057 0.232217 0.500000
O O9 0.641955 0.275380 0.408978
O O10 0.287130 0.247672 0.090727
O O11 0.269766 0.500000 0.000000
O O12 0.250000 0.250000 0.750000
O O13 0.334616 0.239122 0.758967
O O14 0.288040 0.000000 0.808674
O O15 0.868389 0.000000 0.797032
#
# Coordination Sequence:
#
# PCOD9523745 Si02
#       6
#    16   8   8   8  16  16
#     4   9  18  35  59  86 117 154 197 246 301 359
#     4   7  12  27  53  80 107 144 185 225 280 349
#     4  10  22  40  60  80 112 158 204 248 300 357
#     4  12  24  39  63  91 120 158 201 247 299 357
#     4  12  24  40  61  88 121 156 196 245 299 357
#     4  11  23  39  60  86 117 155 202 250 301 362
#
# _framework density 18.412631000000001
#
# number of rings (size 3 to 8) (size 9 to 14) (size 15 to 20)
#    0.000    1.667    2.222    5.000    0.000    2.222 
#    0.000    4.444    0.000    5.333    0.000    0.000 
#    0.000    0.000    0.000    0.000    0.000    0.000 
#
# Total GULP energy -201075.007447 kJ/mol
# GULP energy per Si atom -5585.416874 kJ/mol
# Density = 1.837072 g / cm^3
# Si number density = 18.412631 Si / 1000 Ang^3
#
#
#
# Elastic Constant Matrix: (Units=GPa)
#
#
# Indices 1 2 3 4 5 6 
#
# 1 90.7438 51.0598 74.9606 0.0000 0.0000 0.0000
# 2 51.0598 84.9256 71.5339 0.0000 0.0000 0.0000
# 3 74.9606 71.5339 183.3749 0.0000 0.0000 0.0000
# 4 0.0000 0.0000 0.0000 25.5414 0.0000 0.0000
# 5 0.0000 0.0000 0.0000 0.0000 21.8636 0.0000
# 6 0.0000 0.0000 0.0000 0.0000 0.0000 28.9273
#
#
#
# Elastic Compliance Matrix: (Units=1/GPa)
#
#
# Indices 1 2 3 4 5 6 
#
# 1 0.019323 -0.007393 -0.005015 0.000000 0.000000 0.000000
# 2 -0.007393 0.020367 -0.004923 0.000000 0.000000 0.000000
# 3 -0.005015 -0.004923 0.009423 0.000000 0.000000 0.000000
# 4 0.000000 0.000000 0.000000 0.039152 0.000000 0.000000
# 5 0.000000 0.000000 0.000000 0.000000 0.045738 0.000000
# 6 0.000000 0.000000 0.000000 0.000000 0.000000 0.034569
#
#
# Mechanical properties :
#
#
# Convention : Reuss Voigt Hill
#
# Bulk Modulus (GPa) = 69.19783 83.79477 76.49630
# Shear Modulus (GPa) = 24.03259 26.03244 25.03252
#
# Velocity S-wave (km/s) = 3.61671 3.76418 3.69118
# Velocity P-wave (km/s) = 7.42321 8.03121 7.73319
#
# Compressibility (1/GPa) = 0.01445132
#
# Stress axis : x y z
#
# Youngs Moduli (GPa) = 51.75287 49.10017 106.11798
#
# Poissons Ratio (x) = 0.36302 0.53214
# Poissons Ratio (y) = 0.38263 0.52237
# Poissons Ratio (z) = 0.25952 0.24170
#
# Static dielectric constant tensor:
#      x y z
#    x 1.615090 0.000000 0.000000 
#    y 0.000000 1.622670 0.000000 
#    z 0.000000 0.000000 1.640560 
# 
# From -- ./inp_files/40722.got.cif
#   From: 2010.05.17/outbox.cif.g08.bks.cpg/sg71_21_cif.got.tgz:40722.got - 2010.06.03 16:22:01.
