data_PCOD9523596
_publ_section_title
;
Structure prediction by ZEFSAII (Michael W. Deem and Ramdas Pophale) SiO2 
 PCOD9523596
Probable space group: I M M M
;
_chemical_formula_sum "Si O2"
_cell_formula_units_Z 54
_cell_length_a 10.624262
_cell_length_b 10.595207
_cell_length_c 22.717787
_cell_angle_alpha 90.000000
_cell_angle_beta 90.000000
_cell_angle_gamma 90.000000
_cell_volume 2557.256207
_symmetry_space_group_name_H-M "I M M M"
_symmetry_group_IT_number 71
_symmetry_cell_setting 'orthorhombic'
loop_
_space_group_symop_operation_xyz
x,y,z
-x,-y,z
x,-y,-z
-x,y,-z
-x,-y,-z
x,y,-z
-x,y,z
x,-y,z
1/2+x,1/2+y,1/2+z
1/2-x,1/2-y,1/2+z
1/2+x,1/2-y,1/2-z
1/2-x,1/2+y,1/2-z
1/2-x,1/2-y,1/2-z
1/2+x,1/2+y,1/2-z
1/2-x,1/2+y,1/2+z
1/2+x,1/2-y,1/2+z
loop_
_atom_site_type_symbol
_atom_site_label
_atom_site_fract_x
_atom_site_fract_y
_atom_site_fract_z
Si Si1 0.144063 0.348471 0.500000
Si Si2 0.500000 0.500000 0.000000
Si Si3 0.500000 0.859015 0.793600
Si Si4 0.500000 0.736976 0.329218
Si Si5 0.500000 0.000000 0.599929
Si Si6 0.767800 0.720944 0.371439
Si Si7 0.223664 0.000000 0.402848
O O1 0.137117 0.500000 0.500000
O O2 0.211167 0.305275 0.440571
O O3 0.000000 0.295512 0.500000
O O4 0.611065 0.500000 0.051098
O O5 0.500000 0.760746 0.740296
O O6 0.621536 0.842115 0.834567
O O7 0.500000 0.000000 0.768527
O O8 0.500000 0.873725 0.361146
O O9 0.630904 0.676941 0.350150
O O10 0.364288 0.000000 0.568669
O O11 0.781833 0.872197 0.364835
#
# Coordination Sequence:
#
# PCOD9523596 Si02
#       7
#     8   2   8   8   4  16   8
#     4  11  23  43  67  93 129 172 217 259 321 403
#     4  12  20  30  48  92 122 150 196 272 304 370
#     4  12  23  41  68  93 133 181 221 258 325 399
#     4  10  22  42  63  93 129 170 223 270 316 374
#     4   8  18  41  56  80 118 181 198 258 314 394
#     4  11  23  41  68  96 130 173 217 270 328 388
#     4  10  22  35  61  88 133 156 217 263 326 368
#
# _framework density 21.116382999999999
#
# number of rings (size 3 to 8) (size 9 to 14) (size 15 to 20)
#    0.000    1.333    2.222    3.556    2.074    0.889 
#    0.000    8.148    6.519    0.000    0.000    0.000 
#    0.000    0.000    0.000    0.000    0.000    0.000 
#
# Total GULP energy -150642.789031 kJ/mol
# GULP energy per Si atom -5579.362557 kJ/mol
# Density = 2.106832 g / cm^3
# Si number density = 21.116383 Si / 1000 Ang^3
#
#
#
# Elastic Constant Matrix: (Units=GPa)
#
#
# Indices 1 2 3 4 5 6 
#
# 1 236.1726 6.5137 76.4947 0.0000 0.0000 0.0000
# 2 6.5137 49.8307 -8.5001 0.0000 0.0000 0.0000
# 3 76.4947 -8.5001 129.0344 0.0000 0.0000 0.0000
# 4 0.0000 0.0000 0.0000 10.8918 0.0000 0.0000
# 5 0.0000 0.0000 0.0000 0.0000 -0.1424 0.0000
# 6 0.0000 0.0000 0.0000 0.0000 0.0000 -45.3437
#
#
#
# Elastic Compliance Matrix: (Units=1/GPa)
#
#
# Indices 1 2 3 4 5 6 
#
# 1 0.005316 -0.001246 -0.003233 0.000000 0.000000 0.000000
# 2 -0.001246 0.020588 0.002095 0.000000 0.000000 0.000000
# 3 -0.003233 0.002095 0.009805 0.000000 0.000000 0.000000
# 4 0.000000 0.000000 0.000000 0.091812 0.000000 0.000000
# 5 0.000000 0.000000 0.000000 0.000000 -7.021184 0.000000
# 6 0.000000 0.000000 0.000000 0.000000 0.000000 -0.022054
#
#
# Mechanical properties :
#
#
# Convention : Reuss Voigt Hill
#
# Bulk Modulus (GPa) = 32.32125 62.67269 47.49697
# Shear Modulus (GPa) = -0.72457 15.78311 7.52927
#
# Velocity S-wave (km/s) = -0.58641 2.73689 1.89033
# Velocity P-wave (km/s) = 3.85759 6.30329 5.22554
#
# Compressibility (1/GPa) = 0.03093940
#
# Stress axis : x y z
#
# Youngs Moduli (GPa) = 188.11587 48.57138 101.99105
#
# Poissons Ratio (x) = 0.06054 0.32979
# Poissons Ratio (y) = 0.23447 -0.21369
# Poissons Ratio (z) = 0.60827 -0.10177
#
# Static dielectric constant tensor:
#      x y z
#    x 1.775670 0.000000 0.000000 
#    y 0.000000 1.859080 0.000000 
#    z 0.000000 0.000000 1.695900 
# 
# From -- ./inp_files/58473.got.cif
#   From: 2010.05.17/outbox.cif.g08.bks.cpg/sg71_30_cif.got.tgz:58473.got - 2010.06.03 16:22:01.
