data_PCOD9523430
_publ_section_title
;
Structure prediction by ZEFSAII (Michael W. Deem and Ramdas Pophale) SiO2 
 PCOD9523430
Probable space group: I M M M
;
_chemical_formula_sum "Si O2"
_cell_formula_units_Z 64
_cell_length_a 27.329672
_cell_length_b 13.873611
_cell_length_c 8.047763
_cell_angle_alpha 90.000000
_cell_angle_beta 90.000000
_cell_angle_gamma 90.000000
_cell_volume 3051.399783
_symmetry_space_group_name_H-M "I M M M"
_symmetry_group_IT_number 71
_symmetry_cell_setting 'orthorhombic'
loop_
_space_group_symop_operation_xyz
x,y,z
-x,-y,z
x,-y,-z
-x,y,-z
-x,-y,-z
x,y,-z
-x,y,z
x,-y,z
1/2+x,1/2+y,1/2+z
1/2-x,1/2-y,1/2+z
1/2+x,1/2-y,1/2-z
1/2-x,1/2+y,1/2-z
1/2-x,1/2-y,1/2-z
1/2+x,1/2+y,1/2-z
1/2-x,1/2+y,1/2+z
1/2+x,1/2-y,1/2+z
loop_
_atom_site_type_symbol
_atom_site_label
_atom_site_fract_x
_atom_site_fract_y
_atom_site_fract_z
Si Si1 0.183604 0.000000 0.184276
Si Si2 0.624338 0.108127 0.297340
Si Si3 0.054922 0.216271 0.199631
Si Si4 0.919749 0.000000 0.685816
Si Si5 0.263130 0.856226 0.301336
O O1 0.220411 0.913628 0.212072
O O2 0.138972 0.000000 0.308931
O O3 0.161764 0.000000 0.000000
O O4 0.623113 0.109868 0.500000
O O5 0.593060 0.201383 0.239514
O O6 0.681477 0.118426 0.249884
O O7 0.607264 0.000000 0.246763
O O8 0.065727 0.103669 0.237554
O O9 0.000000 0.238222 0.259960
O O10 0.055315 0.223899 0.000000
O O11 0.939151 0.000000 0.500000
O O12 0.260106 0.872288 0.500000
O O13 0.250000 0.750000 0.250000
#
# Coordination Sequence:
#
# PCOD9523430 Si02
#       5
#     8  16  16   8  16
#     4  12  24  39  59  86 119 156 200 253 313 370
#     4   9  18  35  59  87 122 161 200 248 300 357
#     4  10  21  38  63  93 123 158 203 255 310 368
#     4  12  25  41  62  87 120 161 207 258 315 381
#     4  11  21  36  58  86 122 164 206 250 299 363
#
# _framework density 20.973980000000001
#
# number of rings (size 3 to 8) (size 9 to 14) (size 15 to 20)
#    0.000    1.500    1.250    4.875    0.000    4.500 
#    0.000    3.750    0.000    0.000    0.000    1.750 
#    0.000    0.000    0.000    0.000    0.000    0.000 
#
# Total GULP energy -178535.696214 kJ/mol
# GULP energy per Si atom -5579.240507 kJ/mol
# Density = 2.092624 g / cm^3
# Si number density = 20.973980 Si / 1000 Ang^3
#
#
#
# Elastic Constant Matrix: (Units=GPa)
#
#
# Indices 1 2 3 4 5 6 
#
# 1 112.2440 41.1194 5.8153 0.0000 0.0000 0.0000
# 2 41.1194 148.1212 -2.5229 0.0000 0.0000 0.0000
# 3 5.8153 -2.5229 32.9208 0.0000 0.0000 0.0000
# 4 0.0000 0.0000 0.0000 2.6805 0.0000 0.0000
# 5 0.0000 0.0000 0.0000 0.0000 15.1669 0.0000
# 6 0.0000 0.0000 0.0000 0.0000 0.0000 30.9110
#
#
#
# Elastic Compliance Matrix: (Units=1/GPa)
#
#
# Indices 1 2 3 4 5 6 
#
# 1 0.010046 -0.002823 -0.001991 0.000000 0.000000 0.000000
# 2 -0.002823 0.007553 0.001077 0.000000 0.000000 0.000000
# 3 -0.001991 0.001077 0.030810 0.000000 0.000000 0.000000
# 4 0.000000 0.000000 0.000000 0.373067 0.000000 0.000000
# 5 0.000000 0.000000 0.000000 0.000000 0.065933 0.000000
# 6 0.000000 0.000000 0.000000 0.000000 0.000000 0.032351
#
#
# Mechanical properties :
#
#
# Convention : Reuss Voigt Hill
#
# Bulk Modulus (GPa) = 24.42771 42.45663 33.44217
# Shear Modulus (GPa) = 9.24420 26.34329 17.79375
#
# Velocity S-wave (km/s) = 2.10167 3.54785 2.91584
# Velocity P-wave (km/s) = 4.19062 6.08847 5.22641
#
# Compressibility (1/GPa) = 0.04093712
#
# Stress axis : x y z
#
# Youngs Moduli (GPa) = 99.53771 132.39375 32.45680
#
# Poissons Ratio (x) = 0.37373 0.06462
# Poissons Ratio (y) = 0.28098 -0.03497
# Poissons Ratio (z) = 0.19818 -0.14265
#
# Static dielectric constant tensor:
#      x y z
#    x 1.726480 0.000000 0.000000 
#    y 0.000000 1.726180 0.000000 
#    z 0.000000 0.000000 1.770090 
# 
# From -- ./inp_files/11977.got.cif
#   From: 2010.05.17/outbox.cif.g08.bks.cpg/sg71_6_cif.got.tgz:11977.got - 2010.06.03 16:22:01.
