data_PCOD9523325
_publ_section_title
;
Structure prediction by ZEFSAII (Michael W. Deem and Ramdas Pophale) SiO2 
 PCOD9523325
Probable space group: I M M M
;
_chemical_formula_sum "Si O2"
_cell_formula_units_Z 72
_cell_length_a 7.348918
_cell_length_b 28.363147
_cell_length_c 16.193026
_cell_angle_alpha 90.000000
_cell_angle_beta 90.000000
_cell_angle_gamma 90.000000
_cell_volume 3375.249103
_symmetry_space_group_name_H-M "I M M M"
_symmetry_group_IT_number 71
_symmetry_cell_setting 'orthorhombic'
loop_
_space_group_symop_operation_xyz
x,y,z
-x,-y,z
x,-y,-z
-x,y,-z
-x,-y,-z
x,y,-z
-x,y,z
x,-y,z
1/2+x,1/2+y,1/2+z
1/2-x,1/2-y,1/2+z
1/2+x,1/2-y,1/2-z
1/2-x,1/2+y,1/2-z
1/2-x,1/2-y,1/2-z
1/2+x,1/2+y,1/2-z
1/2-x,1/2+y,1/2+z
1/2+x,1/2-y,1/2+z
loop_
_atom_site_type_symbol
_atom_site_label
_atom_site_fract_x
_atom_site_fract_y
_atom_site_fract_z
Si Si1 0.291374 0.693746 0.500000
Si Si2 0.280333 0.052380 0.903251
Si Si3 0.718252 0.697627 0.000000
Si Si4 0.205445 0.848808 0.166928
Si Si5 0.279375 0.631897 0.153952
Si Si6 0.500000 0.055292 0.600067
O O1 0.500000 0.675195 0.500000
O O2 0.292533 0.749824 0.500000
O O3 0.208446 0.674909 0.585805
O O4 0.500000 0.054627 0.898159
O O5 0.203302 0.095557 0.852714
O O6 0.224224 0.000000 0.876714
O O7 0.232313 0.057871 0.000000
O O8 0.768070 0.667566 0.919666
O O9 0.500000 0.702182 0.000000
O O10 0.281726 0.845931 0.258793
O O11 0.000000 0.829624 0.172445
O O12 0.500000 0.625399 0.155588
O O13 0.174111 0.583395 0.135634
O O14 0.500000 0.058961 0.500000
O O15 0.500000 0.000000 0.621959
#
# Coordination Sequence:
#
# PCOD9523325 Si02
#       6
#     8  16   8  16  16   8
#     4  10  22  38  61  91 123 158 207 269 311 372
#     4   9  18  32  51  77 112 155 200 246 297 359
#     4  10  22  42  64  86 117 159 209 258 326 386
#     4  10  21  38  57  85 123 162 204 254 313 368
#     4  10  23  43  65  91 130 170 206 258 316 383
#     4  11  24  42  70 103 127 165 219 260 318 383
#
# _framework density 21.331759000000002
#
# number of rings (size 3 to 8) (size 9 to 14) (size 15 to 20)
#    0.000    2.111    2.222    0.667    3.111    3.556 
#    0.000    4.444    0.000    0.000    0.000    0.000 
#    0.000    0.000    0.000    0.000    0.000    0.000 
#
# Total GULP energy -201015.739900 kJ/mol
# GULP energy per Si atom -5583.770553 kJ/mol
# Density = 2.128321 g / cm^3
# Si number density = 21.331759 Si / 1000 Ang^3
#
#
#
# Elastic Constant Matrix: (Units=GPa)
#
#
# Indices 1 2 3 4 5 6 
#
# 1 91.6805 17.3043 27.0214 0.0000 0.0000 0.0000
# 2 17.3043 117.7973 77.6111 0.0000 0.0000 0.0000
# 3 27.0214 77.6111 196.2204 -0.0001 0.0000 0.0000
# 4 0.0000 0.0000 -0.0001 -2.5436 0.0000 0.0000
# 5 0.0000 0.0000 0.0000 0.0000 -0.2428 0.0000
# 6 0.0000 0.0000 0.0000 0.0000 0.0000 28.2468
#
#
#
# Elastic Compliance Matrix: (Units=1/GPa)
#
#
# Indices 1 2 3 4 5 6 
#
# 1 0.011434 -0.000869 -0.001231 0.000000 0.000000 0.000000
# 2 -0.000869 0.011547 -0.004448 0.000000 -0.000001 0.000000
# 3 -0.001231 -0.004448 0.007025 0.000000 0.000001 0.000000
# 4 0.000000 0.000000 0.000000 -0.393146 -0.000020 0.000000
# 5 0.000000 -0.000001 0.000001 -0.000020 -4.118232 0.000000
# 6 0.000000 0.000000 0.000000 0.000000 0.000000 0.035402
#
#
# Mechanical properties :
#
#
# Convention : Reuss Voigt Hill
#
# Bulk Modulus (GPa) = 59.13030 72.17463 65.65247
# Shear Modulus (GPa) = -1.12937 24.00951 11.44007
#
# Velocity S-wave (km/s) = -0.72841 3.35853 2.31831
# Velocity P-wave (km/s) = 5.20309 6.99624 6.16521
#
# Compressibility (1/GPa) = 0.01691180
#
# Stress axis : x y z
#
# Youngs Moduli (GPa) = 87.45681 86.60210 142.34888
#
# Poissons Ratio (x) = 0.07522 0.17524
# Poissons Ratio (y) = 0.07596 0.63311
# Poissons Ratio (z) = 0.10766 0.38517
#
# Static dielectric constant tensor:
#      x y z
#    x 1.817100 0.000000 0.000000 
#    y 0.000000 1.714020 0.000000 
#    z 0.000000 0.000000 1.787690 
# 
# From -- ./inp_files/31496.got.cif
#   From: 2010.05.17/outbox.cif.g08.bks.cpg/sg71_16_cif.got.tgz:31496.got - 2010.06.03 16:22:01.
