data_PCOD9523190
_publ_section_title
;
Structure prediction by ZEFSAII (Michael W. Deem and Ramdas Pophale) SiO2 
 PCOD9523190
Probable space group: I M M M
;
_chemical_formula_sum "Si O2"
_cell_formula_units_Z 104
_cell_length_a 19.444507
_cell_length_b 8.611366
_cell_length_c 31.704910
_cell_angle_alpha 90.000000
_cell_angle_beta 90.000000
_cell_angle_gamma 90.000000
_cell_volume 5308.789546
_symmetry_space_group_name_H-M "I M M M"
_symmetry_group_IT_number 71
_symmetry_cell_setting 'orthorhombic'
loop_
_space_group_symop_operation_xyz
x,y,z
-x,-y,z
x,-y,-z
-x,y,-z
-x,-y,-z
x,y,-z
-x,y,z
x,-y,z
1/2+x,1/2+y,1/2+z
1/2-x,1/2-y,1/2+z
1/2+x,1/2-y,1/2-z
1/2-x,1/2+y,1/2-z
1/2-x,1/2-y,1/2-z
1/2+x,1/2+y,1/2-z
1/2-x,1/2+y,1/2+z
1/2+x,1/2-y,1/2+z
loop_
_atom_site_type_symbol
_atom_site_label
_atom_site_fract_x
_atom_site_fract_y
_atom_site_fract_z
Si Si1 0.420365 0.311862 0.673028
Si Si2 0.720956 0.687450 0.047430
Si Si3 0.575775 0.313538 0.080228
Si Si4 0.327175 0.186610 0.251123
Si Si5 0.353055 0.685426 0.415299
Si Si6 0.078032 0.685513 0.326243
Si Si7 0.082224 0.321420 0.000000
O O1 0.500000 0.263117 0.678352
O O2 0.418705 0.500000 0.674499
O O3 0.370981 0.247509 0.709305
O O4 0.391448 0.262677 0.627217
O O5 0.722054 0.500000 0.049640
O O6 0.643133 0.741677 0.055758
O O7 0.775332 0.752920 0.080567
O O8 0.741984 0.733384 0.000000
O O9 0.500000 0.254594 0.066984
O O10 0.574273 0.500000 0.075991
O O11 0.585437 0.269751 0.129141
O O12 0.250000 0.250000 0.250000
O O13 0.367456 0.234849 0.208641
O O14 0.325817 0.000000 0.252386
O O15 0.352007 0.500000 0.415267
O O16 0.391282 0.743130 0.457283
O O17 0.084793 0.500000 0.333182
O O18 0.000000 0.714056 0.310684
O O19 0.106556 0.500000 0.000000
O O20 0.000000 0.318203 0.000000
#
# Coordination Sequence:
#
# PCOD9523190 Si02
#       7
#    16  16  16  16  16  16   8
#     4  10  23  43  64  88 120 157 198 247 301 354
#     4  10  21  37  57  83 119 158 197 245 297 349
#     4   9  19  35  57  86 116 151 197 243 292 350
#     4  11  24  40  60  88 121 157 199 243 294 354
#     4  11  23  39  61  88 119 157 199 243 294 352
#     4   9  19  37  59  82 111 148 189 236 289 344
#     4  11  23  39  61  89 120 153 194 243 293 348
#
# _framework density 19.590153999999998
#
# number of rings (size 3 to 8) (size 9 to 14) (size 15 to 20)
#    0.000    1.923    0.769    2.077    2.154    5.538 
#    0.000    3.077    0.000    0.000    0.000    3.231 
#    0.000    0.000    0.000    0.000    0.000    0.000 
#
# Total GULP energy -290431.495945 kJ/mol
# GULP energy per Si atom -5585.221076 kJ/mol
# Density = 1.954557 g / cm^3
# Si number density = 19.590154 Si / 1000 Ang^3
#
#
#
# Elastic Constant Matrix: (Units=GPa)
#
#
# Indices 1 2 3 4 5 6 
#
# 1 150.4873 23.7188 48.9778 0.0000 0.0000 0.0000
# 2 23.7188 17.6255 9.6970 0.0000 0.0000 0.0000
# 3 48.9778 9.6970 55.2631 0.0000 0.0000 0.0000
# 4 0.0000 0.0000 0.0000 27.6262 0.0000 0.0000
# 5 0.0000 0.0000 0.0000 0.0000 41.2778 0.0000
# 6 0.0000 0.0000 0.0000 0.0000 0.0000 26.9930
#
#
#
# Elastic Compliance Matrix: (Units=1/GPa)
#
#
# Indices 1 2 3 4 5 6 
#
# 1 0.010786 -0.010244 -0.007762 0.000000 0.000000 0.000000
# 2 -0.010244 0.072529 -0.003647 0.000000 0.000000 0.000000
# 3 -0.007762 -0.003647 0.025614 0.000000 0.000000 0.000000
# 4 0.000000 0.000000 0.000000 0.036198 0.000000 0.000000
# 5 0.000000 0.000000 0.000000 0.000000 0.024226 0.000000
# 6 0.000000 0.000000 0.000000 0.000000 0.000000 0.037047
#
#
# Mechanical properties :
#
#
# Convention : Reuss Voigt Hill
#
# Bulk Modulus (GPa) = 15.23880 43.12923 29.18401
# Shear Modulus (GPa) = 18.41083 28.57821 23.49452
#
# Velocity S-wave (km/s) = 3.06894 3.82357 3.46685
# Velocity P-wave (km/s) = 4.51149 6.44643 5.56373
#
# Compressibility (1/GPa) = 0.06562197
#
# Stress axis : x y z
#
# Youngs Moduli (GPa) = 92.71448 13.78765 39.04108
#
# Poissons Ratio (x) = 0.14125 0.30302
# Poissons Ratio (y) = 0.94980 0.14240
# Poissons Ratio (z) = 0.71960 0.05029
#
# Static dielectric constant tensor:
#      x y z
#    x 1.703520 0.000000 0.000000 
#    y 0.000000 1.674510 0.000000 
#    z 0.000000 0.000000 1.657290 
# 
# From -- ./inp_files/66407.got.cif
#   From: 2010.05.17/outbox.cif.g08.bks.cpg/sg71_34_cif.got.tgz:66407.got - 2010.06.03 16:22:01.
