data_PCOD9523550
_publ_section_title
;
Structure prediction by ZEFSAII (Michael W. Deem and Ramdas Pophale) SiO2 
 PCOD9523550
Probable space group: I M M M
;
_chemical_formula_sum "Si O2"
_cell_formula_units_Z 40
_cell_length_a 10.567690
_cell_length_b 14.455758
_cell_length_c 12.227215
_cell_angle_alpha 90.000000
_cell_angle_beta 90.000000
_cell_angle_gamma 90.000000
_cell_volume 1867.877896
_symmetry_space_group_name_H-M "I M M M"
_symmetry_group_IT_number 71
_symmetry_cell_setting 'orthorhombic'
loop_
_space_group_symop_operation_xyz
x,y,z
-x,-y,z
x,-y,-z
-x,y,-z
-x,-y,-z
x,y,-z
-x,y,z
x,-y,z
1/2+x,1/2+y,1/2+z
1/2-x,1/2-y,1/2+z
1/2+x,1/2-y,1/2-z
1/2-x,1/2+y,1/2-z
1/2-x,1/2-y,1/2-z
1/2+x,1/2+y,1/2-z
1/2-x,1/2+y,1/2+z
1/2+x,1/2-y,1/2+z
loop_
_atom_site_type_symbol
_atom_site_label
_atom_site_fract_x
_atom_site_fract_y
_atom_site_fract_z
Si Si1 0.000000 0.298204 0.122915
Si Si2 0.778348 0.391036 0.742096
Si Si3 0.146889 0.611978 0.500000
Si Si4 0.000000 0.894768 0.212928
O O1 0.877114 0.334791 0.186774
O O2 0.000000 0.187400 0.126590
O O3 0.000000 0.333164 0.000000
O O4 0.813127 0.500000 0.746752
O O5 0.790382 0.360528 0.614769
O O6 0.631941 0.383494 0.776798
O O7 0.149460 0.500000 0.500000
O O8 0.000000 0.641196 0.500000
O O9 0.000000 0.000000 0.167579
#
# Coordination Sequence:
#
# PCOD9523550 Si02
#       4
#     8  16   8   8
#     4  12  25  40  62  96 131 166 207 250 310 385
#     4  10  21  40  66  95 124 162 209 260 314 365
#     4   9  16  31  61  95 121 153 204 258 305 356
#     4  10  24  44  65  89 125 166 212 266 310 357
#
# _framework density 21.414677000000001
#
# number of rings (size 3 to 8) (size 9 to 14) (size 15 to 20)
#    0.000    1.800    2.000    1.800    2.800    2.000 
#    0.000    1.000    0.000    3.600    0.000    0.000 
#    0.000    0.000    0.000    0.000    0.000    0.000 
#
# Total GULP energy -111705.177708 kJ/mol
# GULP energy per Si atom -5585.258885 kJ/mol
# Density = 2.136594 g / cm^3
# Si number density = 21.414677 Si / 1000 Ang^3
#
#
#
# Elastic Constant Matrix: (Units=GPa)
#
#
# Indices 1 2 3 4 5 6 
#
# 1 190.8989 55.5888 69.0458 0.0000 0.0000 0.0000
# 2 55.5888 94.4760 42.7690 0.0000 0.0000 0.0000
# 3 69.0458 42.7690 115.7562 0.0000 0.0000 0.0000
# 4 0.0000 0.0000 0.0000 8.4279 0.0000 0.0000
# 5 0.0000 0.0000 0.0000 0.0000 -8.8874 0.0000
# 6 0.0000 0.0000 0.0000 0.0000 0.0000 26.1616
#
#
#
# Elastic Compliance Matrix: (Units=1/GPa)
#
#
# Indices 1 2 3 4 5 6 
#
# 1 0.007235 -0.002766 -0.003294 0.000000 0.000000 0.000000
# 2 -0.002766 0.013768 -0.003437 0.000000 0.000000 0.000000
# 3 -0.003294 -0.003437 0.011873 0.000000 0.000000 0.000000
# 4 0.000000 0.000000 0.000000 0.118654 0.000000 0.000000
# 5 0.000000 0.000000 0.000000 0.000000 -0.112519 0.000000
# 6 0.000000 0.000000 0.000000 0.000000 0.000000 0.038224
#
#
# Mechanical properties :
#
#
# Convention : Reuss Voigt Hill
#
# Bulk Modulus (GPa) = 72.02998 81.77092 76.90045
# Shear Modulus (GPa) = 49.57546 20.72226 35.14886
#
# Velocity S-wave (km/s) = 4.81669 3.11411 4.05575
# Velocity P-wave (km/s) = 8.04007 7.15525 7.61053
#
# Compressibility (1/GPa) = 0.01388311
#
# Stress axis : x y z
#
# Youngs Moduli (GPa) = 138.21548 72.63112 84.22255
#
# Poissons Ratio (x) = 0.20090 0.27739
# Poissons Ratio (y) = 0.38231 0.28948
# Poissons Ratio (z) = 0.45522 0.24964
#
# Static dielectric constant tensor:
#      x y z
#    x 1.799100 0.000000 0.000000 
#    y 0.000000 1.802070 0.000000 
#    z 0.000000 0.000000 1.726350 
# 
# From -- ./inp_files/6707.got.cif
#   From: 2010.05.17/outbox.cif.g08.bks.cpg/sg71_4_cif.got.tgz:6707.got - 2010.06.03 16:22:01.
