data_PCOD9523997
_publ_section_title
;
Structure prediction by ZEFSAII (Michael W. Deem and Ramdas Pophale) SiO2 
 PCOD9523997
Probable space group: I M M M
;
_chemical_formula_sum "Si O2"
_cell_formula_units_Z 88
_cell_length_a 27.346403
_cell_length_b 13.760458
_cell_length_c 14.470482
_cell_angle_alpha 90.000000
_cell_angle_beta 90.000000
_cell_angle_gamma 90.000000
_cell_volume 5445.228339
_symmetry_space_group_name_H-M "I M M M"
_symmetry_group_IT_number 71
_symmetry_cell_setting 'orthorhombic'
loop_
_space_group_symop_operation_xyz
x,y,z
-x,-y,z
x,-y,-z
-x,y,-z
-x,-y,-z
x,y,-z
-x,y,z
x,-y,z
1/2+x,1/2+y,1/2+z
1/2-x,1/2-y,1/2+z
1/2+x,1/2-y,1/2-z
1/2-x,1/2+y,1/2-z
1/2-x,1/2-y,1/2-z
1/2+x,1/2+y,1/2-z
1/2-x,1/2+y,1/2+z
1/2+x,1/2-y,1/2+z
loop_
_atom_site_type_symbol
_atom_site_label
_atom_site_fract_x
_atom_site_fract_y
_atom_site_fract_z
Si Si1 0.058533 0.883993 0.294693
Si Si2 0.769635 0.886744 0.765831
Si Si3 0.559153 0.387991 0.000000
Si Si4 0.308463 0.885088 0.394632
Si Si5 0.362604 0.753417 0.266492
Si Si6 0.822381 0.615990 0.391796
O O1 0.073607 0.851416 0.399369
O O2 0.089232 0.812213 0.231012
O O3 0.000000 0.874189 0.285378
O O4 0.069316 0.000000 0.284272
O O5 0.737204 0.868765 0.674095
O O6 0.816894 0.820640 0.765526
O O7 0.732384 0.868819 0.850901
O O8 0.783414 0.000000 0.767162
O O9 0.574806 0.500000 0.000000
O O10 0.500000 0.386831 0.000000
O O11 0.297237 0.859408 0.500000
O O12 0.352884 0.823502 0.353075
O O13 0.319205 0.000000 0.389643
O O14 0.356892 0.821289 0.175448
O O15 0.825905 0.640989 0.500000
O O16 0.832198 0.500000 0.381453
#
# Coordination Sequence:
#
# PCOD9523997 Si02
#       6
#    16  16   8  16  16  16
#     4   9  18  32  48  68  97 127 152 186 232 277
#     4   9  18  30  43  67  99 125 152 188 228 273
#     4   7  12  26  44  60  85 121 151 173 210 266
#     4   9  18  33  49  66  94 127 157 194 237 275
#     4  11  19  27  49  73  91 120 161 197 226 271
#     4   9  18  31  45  64  95 128 152 182 228 279
#
# _framework density 16.160938999999999
#
# number of rings (size 3 to 8) (size 9 to 14) (size 15 to 20)
#    0.000    2.818    0.000    5.455    1.273    2.909 
#    0.000    0.000    0.000    4.364    0.000    3.818 
#    0.000    0.000    0.000    0.000    0.000    0.000 
#
# Total GULP energy -244974.603958 kJ/mol
# GULP energy per Si atom -5567.604635 kJ/mol
# Density = 1.612416 g / cm^3
# Si number density = 16.160939 Si / 1000 Ang^3
#
#
#
# Elastic Constant Matrix: (Units=GPa)
#
#
# Indices 1 2 3 4 5 6 
#
# 1 23.3403 21.3814 6.1183 0.0000 0.0000 0.0000
# 2 21.3814 58.5586 12.7871 0.0000 0.0000 0.0000
# 3 6.1183 12.7871 60.5090 0.0000 0.0000 0.0000
# 4 0.0000 0.0000 0.0000 22.1932 0.0000 0.0000
# 5 0.0000 0.0000 0.0000 0.0000 3.4068 0.0000
# 6 0.0000 0.0000 0.0000 0.0000 0.0000 26.6563
#
#
#
# Elastic Compliance Matrix: (Units=1/GPa)
#
#
# Indices 1 2 3 4 5 6 
#
# 1 0.064529 -0.023208 -0.001620 0.000000 0.000000 0.000000
# 2 -0.023208 0.026250 -0.003201 0.000000 0.000000 0.000000
# 3 -0.001620 -0.003201 0.017367 0.000000 0.000000 0.000000
# 4 0.000000 0.000000 0.000000 0.045059 0.000000 0.000000
# 5 0.000000 0.000000 0.000000 0.000000 0.293531 0.000000
# 6 0.000000 0.000000 0.000000 0.000000 0.000000 0.037515
#
#
# Mechanical properties :
#
#
# Convention : Reuss Voigt Hill
#
# Bulk Modulus (GPa) = 19.19824 24.77572 21.98698
# Shear Modulus (GPa) = 8.96588 17.25932 13.11260
#
# Velocity S-wave (km/s) = 2.35795 3.27152 2.85156
# Velocity P-wave (km/s) = 4.39527 5.44374 4.94736
#
# Compressibility (1/GPa) = 0.05208811
#
# Stress axis : x y z
#
# Youngs Moduli (GPa) = 15.49690 38.09588 57.58152
#
# Poissons Ratio (x) = 0.88411 0.09331
# Poissons Ratio (y) = 0.35964 0.18430
# Poissons Ratio (z) = 0.02511 0.12193
#
# Static dielectric constant tensor:
#      x y z
#    x 1.521480 0.000000 0.000000 
#    y 0.000000 1.568460 0.000000 
#    z 0.000000 0.000000 1.567340 
# 
# From -- ./inp_files/34999.got.cif
#   From: 2010.05.17/outbox.cif.g08.bks.cpg/sg71_18_cif.got.tgz:34999.got - 2010.06.03 16:22:01.
