data_PCOD9523160
_publ_section_title
;
Structure prediction by ZEFSAII (Michael W. Deem and Ramdas Pophale) SiO2 
 PCOD9523160
Probable space group: I M M M
;
_chemical_formula_sum "Si O2"
_cell_formula_units_Z 88
_cell_length_a 18.960508
_cell_length_b 8.453256
_cell_length_c 29.020526
_cell_angle_alpha 90.000000
_cell_angle_beta 90.000000
_cell_angle_gamma 90.000000
_cell_volume 4651.352679
_symmetry_space_group_name_H-M "I M M M"
_symmetry_group_IT_number 71
_symmetry_cell_setting 'orthorhombic'
loop_
_space_group_symop_operation_xyz
x,y,z
-x,-y,z
x,-y,-z
-x,y,-z
-x,-y,-z
x,y,-z
-x,y,z
x,-y,z
1/2+x,1/2+y,1/2+z
1/2-x,1/2-y,1/2+z
1/2+x,1/2-y,1/2-z
1/2-x,1/2+y,1/2-z
1/2-x,1/2-y,1/2-z
1/2+x,1/2+y,1/2-z
1/2-x,1/2+y,1/2+z
1/2+x,1/2-y,1/2+z
loop_
_atom_site_type_symbol
_atom_site_label
_atom_site_fract_x
_atom_site_fract_y
_atom_site_fract_z
Si Si1 0.136452 0.688943 0.888198
Si Si2 0.500000 0.193222 0.553411
Si Si3 0.580578 0.309118 0.291902
Si Si4 0.789852 0.310987 0.386431
Si Si5 0.811392 0.189573 0.283452
Si Si6 0.078343 0.307232 0.446461
O O1 0.136760 0.500000 0.889662
O O2 0.121954 0.742591 0.835802
O O3 0.213557 0.748881 0.902256
O O4 0.070694 0.745308 0.919597
O O5 0.500000 0.242591 0.500000
O O6 0.500000 0.000000 0.554072
O O7 0.500000 0.254848 0.294280
O O8 0.582228 0.500000 0.295266
O O9 0.617298 0.266220 0.243798
O O10 0.787982 0.500000 0.389261
O O11 0.802767 0.261905 0.333676
O O12 0.855742 0.251054 0.416592
O O13 0.750000 0.250000 0.250000
O O14 0.807497 0.000000 0.287210
O O15 0.086163 0.262408 0.500000
O O16 0.078689 0.500000 0.444929
O O17 0.000000 0.256381 0.430588
#
# Coordination Sequence:
#
# PCOD9523160 Si02
#       6
#    16   8  16  16  16  16
#     4  11  21  35  57  81 107 149 195 233 279 340
#     4   9  20  38  57  81 113 147 189 241 290 339
#     4  10  21  37  57  79 107 144 185 232 282 330
#     4  11  22  35  56  87 119 148 185 239 289 336
#     4  11  22  36  55  80 112 150 186 225 275 333
#     4   8  16  34  59  84 112 148 189 233 283 338
#
# _framework density 18.919226999999999
#
# number of rings (size 3 to 8) (size 9 to 14) (size 15 to 20)
#    0.000    1.909    2.727    2.182    0.000    2.182 
#    0.000    0.000    0.000    7.091    0.000    5.091 
#    0.000    0.000    0.000    0.000    0.000    0.000 
#
# Total GULP energy -245618.027561 kJ/mol
# GULP energy per Si atom -5582.227899 kJ/mol
# Density = 1.887617 g / cm^3
# Si number density = 18.919227 Si / 1000 Ang^3
#
#
#
# Elastic Constant Matrix: (Units=GPa)
#
#
# Indices 1 2 3 4 5 6 
#
# 1 191.1122 24.0903 80.8196 0.0000 0.0000 0.0000
# 2 24.0903 17.3283 9.7181 0.0000 0.0000 0.0000
# 3 80.8196 9.7181 98.9569 0.0000 0.0000 0.0000
# 4 0.0000 0.0000 0.0000 16.1109 0.0000 0.0000
# 5 0.0000 0.0000 0.0000 0.0000 38.9730 0.0000
# 6 0.0000 0.0000 0.0000 0.0000 0.0000 22.6135
#
#
#
# Elastic Compliance Matrix: (Units=1/GPa)
#
#
# Indices 1 2 3 4 5 6 
#
# 1 0.009160 -0.009037 -0.006594 0.000000 0.000000 0.000000
# 2 -0.009037 0.069987 0.000507 0.000000 0.000000 0.000000
# 3 -0.006594 0.000507 0.015441 0.000000 0.000000 0.000000
# 4 0.000000 0.000000 0.000000 0.062070 0.000000 0.000000
# 5 0.000000 0.000000 0.000000 0.000000 0.025659 0.000000
# 6 0.000000 0.000000 0.000000 0.000000 0.000000 0.044221
#
#
# Mechanical properties :
#
#
# Convention : Reuss Voigt Hill
#
# Bulk Modulus (GPa) = 15.54193 59.62815 37.58504
# Shear Modulus (GPa) = 17.97061 28.39075 23.18068
#
# Velocity S-wave (km/s) = 3.08532 3.87800 3.50415
# Velocity P-wave (km/s) = 4.57439 7.18592 6.02339
#
# Compressibility (1/GPa) = 0.06434206
#
# Stress axis : x y z
#
# Youngs Moduli (GPa) = 109.16973 14.28827 64.76358
#
# Poissons Ratio (x) = 0.12912 0.42703
# Poissons Ratio (y) = 0.98653 -0.03285
# Poissons Ratio (z) = 0.71983 -0.00725
#
# Static dielectric constant tensor:
#      x y z
#    x 1.677670 0.000000 0.000000 
#    y 0.000000 1.648440 0.000000 
#    z 0.000000 0.000000 1.624740 
# 
# From -- ./inp_files/8743.got.cif
#   From: 2010.05.17/outbox.cif.g08.bks.cpg/sg71_5_cif.got.tgz:8743.got - 2010.06.03 16:22:01.
