data_PCOD9523032
_publ_section_title
;
Structure prediction by ZEFSAII (Michael W. Deem and Ramdas Pophale) SiO2 
 PCOD9523032
Probable space group: I M M M
;
_chemical_formula_sum "Si O2"
_cell_formula_units_Z 104
_cell_length_a 8.772125
_cell_length_b 29.205341
_cell_length_c 21.064543
_cell_angle_alpha 90.000000
_cell_angle_beta 90.000000
_cell_angle_gamma 90.000000
_cell_volume 5396.586399
_symmetry_space_group_name_H-M "I M M M"
_symmetry_group_IT_number 71
_symmetry_cell_setting 'orthorhombic'
loop_
_space_group_symop_operation_xyz
x,y,z
-x,-y,z
x,-y,-z
-x,y,-z
-x,-y,-z
x,y,-z
-x,y,z
x,-y,z
1/2+x,1/2+y,1/2+z
1/2-x,1/2-y,1/2+z
1/2+x,1/2-y,1/2-z
1/2-x,1/2+y,1/2-z
1/2-x,1/2-y,1/2-z
1/2+x,1/2+y,1/2-z
1/2-x,1/2+y,1/2+z
1/2+x,1/2-y,1/2+z
loop_
_atom_site_type_symbol
_atom_site_label
_atom_site_fract_x
_atom_site_fract_y
_atom_site_fract_z
Si Si1 0.182169 0.195989 0.676585
Si Si2 0.179696 0.053104 0.883616
Si Si3 0.316809 0.446223 0.000000
Si Si4 0.680007 0.858096 0.070619
Si Si5 0.317414 0.892628 0.379548
Si Si6 0.177161 0.554209 0.751320
Si Si7 0.818460 0.796081 0.178375
O O1 0.258081 0.158897 0.630644
O O2 0.225390 0.187171 0.750695
O O3 0.237727 0.247658 0.665001
O O4 0.000000 0.193136 0.670913
O O5 0.275183 0.088821 0.923934
O O6 0.219719 0.062877 0.809911
O O7 0.000000 0.059284 0.894676
O O8 0.218695 0.000000 0.895610
O O9 0.254961 0.419694 0.938241
O O10 0.269544 0.500000 0.000000
O O11 0.500000 0.444948 0.000000
O O12 0.500000 0.852429 0.080613
O O13 0.769719 0.831617 0.125057
O O14 0.718791 0.841224 0.000000
O O15 0.500000 0.892973 0.386265
O O16 0.277398 0.918577 0.313938
O O17 0.184058 0.500000 0.765080
O O18 0.000000 0.565407 0.735763
O O19 0.000000 0.789308 0.178600
#
# Coordination Sequence:
#
# PCOD9523032 Si02
#       7
#    16  16   8  16  16  16  16
#     4  10  21  38  62  91 122 152 188 238 295 351
#     4  10  21  36  56  84 116 150 191 240 288 336
#     4  11  25  43  61  83 117 161 205 251 306 367
#     4  11  24  40  58  82 114 154 195 234 284 343
#     4  11  22  37  59  87 117 153 198 245 294 352
#     4   9  18  33  55  83 114 149 189 236 289 342
#     4  10  21  39  64  92 119 151 192 240 293 349
#
# _framework density 19.271440999999999
#
# number of rings (size 3 to 8) (size 9 to 14) (size 15 to 20)
#    0.000    1.769    0.000    3.923    0.000    9.231 
#    1.385    3.077    0.000    0.000    0.000    0.000 
#    0.000    0.000    0.000    0.000    0.000    0.000 
#
# Total GULP energy -290606.505862 kJ/mol
# GULP energy per Si atom -5588.586651 kJ/mol
# Density = 1.922758 g / cm^3
# Si number density = 19.271441 Si / 1000 Ang^3
#
#
#
# Elastic Constant Matrix: (Units=GPa)
#
#
# Indices 1 2 3 4 5 6 
#
# 1 33.8442 23.6516 19.0410 0.0000 0.0000 0.0000
# 2 23.6516 84.7870 49.5675 0.0000 0.0000 0.0000
# 3 19.0410 49.5675 57.1334 -0.0001 0.0000 0.0000
# 4 0.0000 0.0000 -0.0001 23.9762 0.0000 0.0000
# 5 0.0000 0.0000 0.0000 0.0000 27.2244 0.0000
# 6 0.0000 0.0000 0.0000 0.0000 0.0000 32.7929
#
#
#
# Elastic Compliance Matrix: (Units=1/GPa)
#
#
# Indices 1 2 3 4 5 6 
#
# 1 0.038050 -0.006495 -0.007046 0.000000 0.000000 0.000000
# 2 -0.006495 0.025041 -0.019561 0.000000 0.000000 0.000000
# 3 -0.007046 -0.019561 0.036822 0.000000 0.000000 0.000000
# 4 0.000000 0.000000 0.000000 0.041708 0.000000 0.000000
# 5 0.000000 0.000000 0.000000 0.000000 0.036732 0.000000
# 6 0.000000 0.000000 0.000000 0.000000 0.000000 0.030494
#
#
# Mechanical properties :
#
#
# Convention : Reuss Voigt Hill
#
# Bulk Modulus (GPa) = 29.66526 40.03167 34.84846
# Shear Modulus (GPa) = 17.46492 22.36568 19.91530
#
# Velocity S-wave (km/s) = 3.01368 3.41040 3.21816
# Velocity P-wave (km/s) = 5.24752 6.02705 5.65075
#
# Compressibility (1/GPa) = 0.03370947
#
# Stress axis : x y z
#
# Youngs Moduli (GPa) = 26.28096 39.93372 27.15791
#
# Poissons Ratio (x) = 0.25937 0.19136
# Poissons Ratio (y) = 0.17069 0.53123
# Poissons Ratio (z) = 0.18518 0.78113
#
# Static dielectric constant tensor:
#      x y z
#    x 1.644180 0.000000 0.000000 
#    y 0.000000 1.661480 0.000000 
#    z 0.000000 0.000000 1.660350 
# 
# From -- ./inp_files/50942.got.cif
#   From: 2010.05.17/outbox.cif.g08.bks.cpg/sg71_26_cif.got.tgz:50942.got - 2010.06.03 16:22:01.
