data_PCOD9523672
_publ_section_title
;
Structure prediction by ZEFSAII (Michael W. Deem and Ramdas Pophale) SiO2 
 PCOD9523672
Probable space group: I M M M
;
_chemical_formula_sum "Si O2"
_cell_formula_units_Z 50
_cell_length_a 11.512205
_cell_length_b 13.538068
_cell_length_c 19.279020
_cell_angle_alpha 90.000000
_cell_angle_beta 90.000000
_cell_angle_gamma 90.000000
_cell_volume 3004.693376
_symmetry_space_group_name_H-M "I M M M"
_symmetry_group_IT_number 71
_symmetry_cell_setting 'orthorhombic'
loop_
_space_group_symop_operation_xyz
x,y,z
-x,-y,z
x,-y,-z
-x,y,-z
-x,-y,-z
x,y,-z
-x,y,z
x,-y,z
1/2+x,1/2+y,1/2+z
1/2-x,1/2-y,1/2+z
1/2+x,1/2-y,1/2-z
1/2-x,1/2+y,1/2-z
1/2-x,1/2-y,1/2-z
1/2+x,1/2+y,1/2-z
1/2-x,1/2+y,1/2+z
1/2+x,1/2-y,1/2+z
loop_
_atom_site_type_symbol
_atom_site_label
_atom_site_fract_x
_atom_site_fract_y
_atom_site_fract_z
Si Si1 0.128750 0.205693 0.000000
Si Si2 0.361123 0.115731 0.755042
Si Si3 0.500000 0.384010 0.083430
Si Si4 0.500000 0.500000 0.500000
Si Si5 0.228932 0.229107 0.634962
O O1 0.099472 0.088909 0.000000
O O2 0.199306 0.237368 0.932089
O O3 0.000000 0.254155 0.000000
O O4 0.500000 0.127971 0.754078
O O5 0.306388 0.161411 0.685522
O O6 0.309392 0.176695 0.819402
O O7 0.333836 0.000000 0.760381
O O8 0.500000 0.500000 0.102046
O O9 0.385664 0.330604 0.112521
O O10 0.500000 0.376366 0.000000
#
# Coordination Sequence:
#
# PCOD9523672 Si02
#       5
#     8  16   8   2  16
#     4  10  22  39  61  86 117 151 197 247 290 345
#     4  10  22  38  58  85 119 156 196 240 291 348
#     4  11  22  38  60  89 119 153 196 241 296 351
#     4   8  24  40  56  94 114 152 200 238 298 352
#     4  11  21  39  61  86 119 158 194 245 291 347
#
# _framework density 16.640633999999999
#
# number of rings (size 3 to 8) (size 9 to 14) (size 15 to 20)
#    0.480    1.120    3.200    1.920    2.240    0.000 
#    0.000    0.000    7.040    7.680    0.000    0.000 
#    0.000    0.000    0.000    0.000    0.000    0.000 
#
# Total GULP energy -139225.483713 kJ/mol
# GULP energy per Si atom -5569.019349 kJ/mol
# Density = 1.660276 g / cm^3
# Si number density = 16.640634 Si / 1000 Ang^3
#
#
#
# Elastic Constant Matrix: (Units=GPa)
#
#
# Indices 1 2 3 4 5 6 
#
# 1 128.6709 92.2645 88.3053 0.0000 0.0000 0.0000
# 2 92.2645 158.0475 93.6933 0.0000 0.0000 0.0000
# 3 88.3053 93.6933 157.3169 0.0000 0.0000 0.0000
# 4 0.0000 0.0000 0.0000 13.1349 0.0000 0.0000
# 5 0.0000 0.0000 0.0000 0.0000 25.8448 0.0000
# 6 0.0000 0.0000 0.0000 0.0000 0.0000 27.7445
#
#
#
# Elastic Compliance Matrix: (Units=1/GPa)
#
#
# Indices 1 2 3 4 5 6 
#
# 1 0.015696 -0.006090 -0.005183 0.000000 0.000000 0.000000
# 2 -0.006090 0.012143 -0.003814 0.000000 0.000000 0.000000
# 3 -0.005183 -0.003814 0.011537 0.000000 0.000000 0.000000
# 4 0.000000 0.000000 0.000000 0.076133 0.000000 0.000000
# 5 0.000000 0.000000 0.000000 0.000000 0.038693 0.000000
# 6 0.000000 0.000000 0.000000 0.000000 0.000000 0.036043
#
#
# Mechanical properties :
#
#
# Convention : Reuss Voigt Hill
#
# Bulk Modulus (GPa) = 108.66778 110.28460 109.47619
# Shear Modulus (GPa) = 22.37262 24.66299 23.51780
#
# Velocity S-wave (km/s) = 3.67066 3.85397 3.76343
# Velocity P-wave (km/s) = 9.13288 9.28560 9.20955
#
# Compressibility (1/GPa) = 0.00920236
#
# Stress axis : x y z
#
# Youngs Moduli (GPa) = 63.71001 82.34979 86.67425
#
# Poissons Ratio (x) = 0.50153 0.44927
# Poissons Ratio (y) = 0.38801 0.33054
# Poissons Ratio (z) = 0.33024 0.31405
#
# Static dielectric constant tensor:
#      x y z
#    x 1.542120 0.000000 0.000000 
#    y 0.000000 1.534210 0.000000 
#    z 0.000000 0.000000 1.529980 
# 
# From -- ./inp_files/42807.got.cif
#   From: 2010.05.17/outbox.cif.g08.bks.cpg/sg71_22_cif.got.tgz:42807.got - 2010.06.03 16:22:01.
