data_PCOD9523588
_publ_section_title
;
Structure prediction by ZEFSAII (Michael W. Deem and Ramdas Pophale) SiO2 
 PCOD9523588
Probable space group: I M M M
;
_chemical_formula_sum "Si O2"
_cell_formula_units_Z 80
_cell_length_a 19.292742
_cell_length_b 22.804055
_cell_length_c 11.349864
_cell_angle_alpha 90.000000
_cell_angle_beta 90.000000
_cell_angle_gamma 90.000000
_cell_volume 4993.403875
_symmetry_space_group_name_H-M "I M M M"
_symmetry_group_IT_number 71
_symmetry_cell_setting 'orthorhombic'
loop_
_space_group_symop_operation_xyz
x,y,z
-x,-y,z
x,-y,-z
-x,y,-z
-x,-y,-z
x,y,-z
-x,y,z
x,-y,z
1/2+x,1/2+y,1/2+z
1/2-x,1/2-y,1/2+z
1/2+x,1/2-y,1/2-z
1/2-x,1/2+y,1/2-z
1/2-x,1/2-y,1/2-z
1/2+x,1/2+y,1/2-z
1/2-x,1/2+y,1/2+z
1/2+x,1/2-y,1/2+z
loop_
_atom_site_type_symbol
_atom_site_label
_atom_site_fract_x
_atom_site_fract_y
_atom_site_fract_z
Si Si1 0.361410 0.738631 0.768522
Si Si2 0.613804 0.065726 0.000000
Si Si3 0.000000 0.242244 0.860977
Si Si4 0.500000 0.883708 0.359434
Si Si5 0.263287 0.830503 0.360606
Si Si6 0.353715 0.933146 0.265879
Si Si7 0.078903 0.300488 0.500000
O O1 0.430959 0.719964 0.702397
O O2 0.317697 0.781610 0.684360
O O3 0.310348 0.686276 0.804513
O O4 0.382627 0.775863 0.884548
O O5 0.653501 0.067646 0.124166
O O6 0.575897 0.128679 0.000000
O O7 0.579326 0.000000 0.000000
O O8 0.000000 0.313346 0.845097
O O9 0.000000 0.230432 0.000000
O O10 0.500000 0.896411 0.500000
O O11 0.430451 0.909328 0.300377
O O12 0.257628 0.827519 0.500000
O O13 0.296288 0.891747 0.322102
O O14 0.348900 0.000000 0.306856
O O15 0.000000 0.278441 0.500000
#
# Coordination Sequence:
#
# PCOD9523588 Si02
#       7
#    16   8   8   8  16  16   8
#     4  11  22  35  53  79 107 139 181 222 270 323
#     4  10  22  35  48  74 106 139 182 219 252 306
#     4  11  20  36  55  79 111 144 177 219 265 317
#     4  11  21  35  51  76 110 144 185 225 257 305
#     4  11  22  36  53  78 108 141 179 224 269 316
#     4  11  23  37  53  75 107 146 186 223 264 315
#     4  12  20  35  56  74 105 144 179 224 273 317
#
# _framework density 16.021135999999998
#
# number of rings (size 3 to 8) (size 9 to 14) (size 15 to 20)
#    0.000    1.000    6.000    1.500    1.400    2.200 
#    1.800    0.000    0.000    0.000    0.000    0.700 
#    0.000    3.200    0.000    0.000    0.000    0.000 
#
# Total GULP energy -223273.381866 kJ/mol
# GULP energy per Si atom -5581.834547 kJ/mol
# Density = 1.598467 g / cm^3
# Si number density = 16.021136 Si / 1000 Ang^3
#
#
#
# Elastic Constant Matrix: (Units=GPa)
#
#
# Indices 1 2 3 4 5 6 
#
# 1 134.1350 56.8950 57.7211 0.0000 0.0000 0.0000
# 2 56.8950 73.2764 30.8413 0.0000 0.0000 0.0000
# 3 57.7211 30.8413 104.4627 0.0000 0.0000 0.0000
# 4 0.0000 0.0000 0.0000 19.4832 0.0000 0.0000
# 5 0.0000 0.0000 0.0000 0.0000 15.9070 0.0000
# 6 0.0000 0.0000 0.0000 0.0000 0.0000 17.0811
#
#
#
# Elastic Compliance Matrix: (Units=1/GPa)
#
#
# Indices 1 2 3 4 5 6 
#
# 1 0.012905 -0.008015 -0.004764 0.000000 0.000000 0.000000
# 2 -0.008015 0.020561 -0.001642 0.000000 0.000000 0.000000
# 3 -0.004764 -0.001642 0.012690 0.000000 0.000000 0.000000
# 4 0.000000 0.000000 0.000000 0.051326 0.000000 0.000000
# 5 0.000000 0.000000 0.000000 0.000000 0.062866 0.000000
# 6 0.000000 0.000000 0.000000 0.000000 0.000000 0.058544
#
#
# Mechanical properties :
#
#
# Convention : Reuss Voigt Hill
#
# Bulk Modulus (GPa) = 57.75623 66.97653 62.36638
# Shear Modulus (GPa) = 19.72346 21.58870 20.65608
#
# Velocity S-wave (km/s) = 3.51250 3.67483 3.59458
# Velocity P-wave (km/s) = 7.25110 7.73962 7.49934
#
# Compressibility (1/GPa) = 0.01731415
#
# Stress axis : x y z
#
# Youngs Moduli (GPa) = 77.48989 48.63596 78.80149
#
# Poissons Ratio (x) = 0.38980 0.37544
# Poissons Ratio (y) = 0.62105 0.12938
# Poissons Ratio (z) = 0.36919 0.07985
#
# Static dielectric constant tensor:
#      x y z
#    x 1.524230 0.000000 0.000000 
#    y 0.000000 1.528310 0.000000 
#    z 0.000000 0.000000 1.551870 
# 
# From -- ./inp_files/24176.got.cif
#   From: 2010.05.17/outbox.cif.g08.bks.cpg/sg71_13_cif.got.tgz:24176.got - 2010.06.03 16:22:01.
