data_PCOD9523958
_publ_section_title
;
Structure prediction by ZEFSAII (Michael W. Deem and Ramdas Pophale) SiO2 
 PCOD9523958
Probable space group: I M M M
;
_chemical_formula_sum "Si O2"
_cell_formula_units_Z 64
_cell_length_a 8.776153
_cell_length_b 24.125758
_cell_length_c 15.654036
_cell_angle_alpha 90.000000
_cell_angle_beta 90.000000
_cell_angle_gamma 90.000000
_cell_volume 3314.450073
_symmetry_space_group_name_H-M "I M M M"
_symmetry_group_IT_number 71
_symmetry_cell_setting 'orthorhombic'
loop_
_space_group_symop_operation_xyz
x,y,z
-x,-y,z
x,-y,-z
-x,y,-z
-x,-y,-z
x,y,-z
-x,y,z
x,-y,z
1/2+x,1/2+y,1/2+z
1/2-x,1/2-y,1/2+z
1/2+x,1/2-y,1/2-z
1/2-x,1/2+y,1/2-z
1/2-x,1/2-y,1/2-z
1/2+x,1/2+y,1/2-z
1/2-x,1/2+y,1/2+z
1/2+x,1/2-y,1/2+z
loop_
_atom_site_type_symbol
_atom_site_label
_atom_site_fract_x
_atom_site_fract_y
_atom_site_fract_z
Si Si1 0.318183 0.117187 0.156669
Si Si2 0.819799 0.500000 0.897409
Si Si3 0.818718 0.185862 0.000000
Si Si4 0.317861 0.615993 0.162784
Si Si5 0.182343 0.192756 0.500000
Si Si6 0.680078 0.500000 0.397078
O O1 0.500000 0.117722 0.153092
O O2 0.259326 0.134962 0.249587
O O3 0.256946 0.055107 0.139481
O O4 0.250334 0.155886 0.082966
O O5 0.743673 0.555024 0.860030
O O6 0.000000 0.500000 0.878104
O O7 0.800604 0.500000 0.000000
O O8 0.771323 0.249872 0.000000
O O9 0.000000 0.178962 0.000000
O O10 0.500000 0.613928 0.173222
O O11 0.282308 0.656386 0.083731
O O12 0.000000 0.203751 0.500000
O O13 0.500000 0.500000 0.377073
O O14 0.696468 0.500000 0.500000
#
# Coordination Sequence:
#
# PCOD9523958 Si02
#       6
#    16   8   8  16   8   8
#     4  12  25  42  66  96 131 168 209 259 316 378
#     4  11  22  37  62  96 134 170 209 257 316 378
#     4  12  26  45  68  93 124 166 213 264 317 374
#     4  11  23  42  67  95 129 168 213 261 315 377
#     4  10  24  45  68  93 123 166 215 266 316 368
#     4  11  22  39  66  96 129 167 208 256 314 378
#
# _framework density 19.309386
#
# number of rings (size 3 to 8) (size 9 to 14) (size 15 to 20)
#    0.000    0.750    2.500    5.625    0.000    4.000 
#    0.000    0.000    0.000    0.000    0.000    0.000 
#    0.000    0.000    0.000    0.000    0.000    0.000 
#
# Total GULP energy -179173.377202 kJ/mol
# GULP energy per Si atom -5599.168038 kJ/mol
# Density = 1.926544 g / cm^3
# Si number density = 19.309386 Si / 1000 Ang^3
#
#
#
# Elastic Constant Matrix: (Units=GPa)
#
#
# Indices 1 2 3 4 5 6 
#
# 1 161.6469 80.9278 106.6459 0.0000 0.0000 0.0000
# 2 80.9278 121.2197 76.1748 0.0001 0.0000 0.0000
# 3 106.6459 76.1748 177.5722 0.0004 0.0000 -0.0001
# 4 0.0000 0.0001 0.0004 -15.0423 0.0000 0.0000
# 5 0.0000 0.0000 0.0000 0.0000 33.1695 0.0000
# 6 0.0000 0.0000 -0.0001 0.0000 0.0000 55.0161
#
#
#
# Elastic Compliance Matrix: (Units=1/GPa)
#
#
# Indices 1 2 3 4 5 6 
#
# 1 0.011959 -0.004751 -0.005144 0.000000 0.000000 0.000000
# 2 -0.004751 0.013182 -0.002801 0.000000 0.000000 0.000000
# 3 -0.005144 -0.002801 0.009922 0.000000 0.000000 0.000000
# 4 0.000000 0.000000 0.000000 -0.066479 0.000000 0.000000
# 5 0.000000 0.000000 0.000000 0.000000 0.030148 0.000000
# 6 0.000000 0.000000 0.000000 0.000000 0.000000 0.018176
#
#
# Mechanical properties :
#
#
# Convention : Reuss Voigt Hill
#
# Bulk Modulus (GPa) = 103.41103 109.77065 106.59084
# Shear Modulus (GPa) = 109.82981 27.74133 68.78557
#
# Velocity S-wave (km/s) = 7.55000 3.79446 5.97496
# Velocity P-wave (km/s) = 11.38746 8.72749 10.14503
#
# Compressibility (1/GPa) = 0.00967015
#
# Stress axis : x y z
#
# Youngs Moduli (GPa) = 83.62073 75.86210 100.78124
#
# Poissons Ratio (x) = 0.36045 0.51841
# Poissons Ratio (y) = 0.39731 0.28231
# Poissons Ratio (z) = 0.43014 0.21250
#
# Static dielectric constant tensor:
#      x y z
#    x 1.641840 0.000000 0.000000 
#    y 0.000000 1.630090 0.000000 
#    z 0.000000 0.000000 1.671230 
# 
# From -- ./inp_files/12054.got.cif
#   From: 2010.05.17/outbox.cif.g08.bks.cpg/sg71_7_cif.got.tgz:12054.got - 2010.06.03 16:22:01.
