data_PCOD9523896
_publ_section_title
;
Structure prediction by ZEFSAII (Michael W. Deem and Ramdas Pophale) SiO2 
 PCOD9523896
Probable space group: I M M M
;
_chemical_formula_sum "Si O2"
_cell_formula_units_Z 58
_cell_length_a 10.616171
_cell_length_b 14.906181
_cell_length_c 19.358401
_cell_angle_alpha 90.000000
_cell_angle_beta 90.000000
_cell_angle_gamma 90.000000
_cell_volume 3063.400490
_symmetry_space_group_name_H-M "I M M M"
_symmetry_group_IT_number 71
_symmetry_cell_setting 'orthorhombic'
loop_
_space_group_symop_operation_xyz
x,y,z
-x,-y,z
x,-y,-z
-x,y,-z
-x,-y,-z
x,y,-z
-x,y,z
x,-y,z
1/2+x,1/2+y,1/2+z
1/2-x,1/2-y,1/2+z
1/2+x,1/2-y,1/2-z
1/2-x,1/2+y,1/2-z
1/2-x,1/2-y,1/2-z
1/2+x,1/2+y,1/2-z
1/2-x,1/2+y,1/2+z
1/2+x,1/2-y,1/2+z
loop_
_atom_site_type_symbol
_atom_site_label
_atom_site_fract_x
_atom_site_fract_y
_atom_site_fract_z
Si Si1 0.000000 0.000000 0.000000
Si Si2 0.000000 0.147987 0.121390
Si Si3 0.151029 0.290136 0.500000
Si Si4 0.000000 0.392161 0.737041
Si Si5 0.216786 0.400864 0.000000
Si Si6 0.000000 0.352198 0.897781
Si Si7 0.770469 0.392194 0.360421
O O1 0.000000 0.923099 0.060099
O O2 0.870582 0.132591 0.162394
O O3 0.000000 0.246352 0.089051
O O4 0.194965 0.186535 0.500000
O O5 0.202999 0.341592 0.567531
O O6 0.000000 0.296313 0.500000
O O7 0.000000 0.362641 0.815854
O O8 0.876155 0.364344 0.694506
O O9 0.000000 0.500000 0.737445
O O10 0.122887 0.392843 0.065680
O O11 0.276603 0.500000 0.000000
O O12 0.778805 0.500000 0.371561
#
# Coordination Sequence:
#
# PCOD9523896 Si02
#       7
#     2   8   8   8   8   8  16
#     4  12  20  36  60  94 134 160 200 260 300 376
#     4  12  22  35  61  94 128 166 204 257 311 364
#     4  12  23  39  61  94 128 158 211 257 313 379
#     4  10  23  41  62  90 126 168 208 254 314 380
#     4  11  23  41  66  89 114 160 215 271 311 358
#     4  11  22  41  68  92 117 158 219 263 313 363
#     4  11  22  38  61  94 131 169 201 251 318 378
#
# _framework density 18.933206999999999
#
# number of rings (size 3 to 8) (size 9 to 14) (size 15 to 20)
#    0.000    0.828    5.517    3.724    0.000    1.931 
#    0.000    0.000    0.000    0.000    0.000    0.000 
#    0.000    0.000    0.000    0.000    0.000    0.000 
#
# Total GULP energy -161763.120165 kJ/mol
# GULP energy per Si atom -5578.038626 kJ/mol
# Density = 1.889011 g / cm^3
# Si number density = 18.933207 Si / 1000 Ang^3
#
#
#
# Elastic Constant Matrix: (Units=GPa)
#
#
# Indices 1 2 3 4 5 6 
#
# 1 152.5918 23.3702 51.1536 0.0000 0.0000 0.0000
# 2 23.3702 112.4425 22.7107 0.0000 0.0000 0.0000
# 3 51.1536 22.7107 127.6414 0.0000 0.0000 0.0000
# 4 0.0000 0.0000 0.0000 -232.3201 0.0000 0.0000
# 5 0.0000 0.0000 0.0000 0.0000 -0.1453 0.0000
# 6 0.0000 0.0000 0.0000 0.0000 0.0000 22.4604
#
#
#
# Elastic Compliance Matrix: (Units=1/GPa)
#
#
# Indices 1 2 3 4 5 6 
#
# 1 0.007680 -0.001011 -0.002898 0.000000 0.000000 0.000000
# 2 -0.001011 0.009358 -0.001260 0.000000 0.000000 0.000000
# 3 -0.002898 -0.001260 0.009220 0.000000 0.000000 0.000000
# 4 0.000000 0.000000 0.000000 -0.004304 -0.000001 0.000000
# 5 0.000000 0.000000 0.000000 -0.000001 -6.883873 0.000000
# 6 0.000000 0.000000 0.000000 0.000000 0.000000 0.044523
#
#
# Mechanical properties :
#
#
# Convention : Reuss Voigt Hill
#
# Bulk Modulus (GPa) = 62.81249 65.23828 64.02539
# Shear Modulus (GPa) = -0.73510 -22.30491 -11.52001
#
# Velocity S-wave (km/s) = -0.62378 -3.43605 -2.46936
# Velocity P-wave (km/s) = 5.72093 4.33474 5.07538
#
# Compressibility (1/GPa) = 0.01592040
#
# Stress axis : x y z
#
# Youngs Moduli (GPa) = 130.21338 106.86035 108.46023
#
# Poissons Ratio (x) = 0.10802 0.31430
# Poissons Ratio (y) = 0.13163 0.13665
# Poissons Ratio (z) = 0.37734 0.13464
#
# Static dielectric constant tensor:
#      x y z
#    x 1.695880 0.000000 0.000000 
#    y 0.000000 1.653190 0.000000 
#    z 0.000000 0.000000 1.635960 
# 
# From -- ./inp_files/21215.got.cif
#   From: 2010.05.17/outbox.cif.g08.bks.cpg/sg71_11_cif.got.tgz:21215.got - 2010.06.03 16:22:01.
