data_PCOD9523581
_publ_section_title
;
Structure prediction by ZEFSAII (Michael W. Deem and Ramdas Pophale) SiO2 
 PCOD9523581
Probable space group: I M M M
;
_chemical_formula_sum "Si O2"
_cell_formula_units_Z 58
_cell_length_a 7.713267
_cell_length_b 14.263911
_cell_length_c 26.003962
_cell_angle_alpha 90.000000
_cell_angle_beta 90.000000
_cell_angle_gamma 90.000000
_cell_volume 2860.991109
_symmetry_space_group_name_H-M "I M M M"
_symmetry_group_IT_number 71
_symmetry_cell_setting 'orthorhombic'
loop_
_space_group_symop_operation_xyz
x,y,z
-x,-y,z
x,-y,-z
-x,y,-z
-x,-y,-z
x,y,-z
-x,y,z
x,-y,z
1/2+x,1/2+y,1/2+z
1/2-x,1/2-y,1/2+z
1/2+x,1/2-y,1/2-z
1/2-x,1/2+y,1/2-z
1/2-x,1/2-y,1/2-z
1/2+x,1/2+y,1/2-z
1/2-x,1/2+y,1/2+z
1/2+x,1/2-y,1/2+z
loop_
_atom_site_type_symbol
_atom_site_label
_atom_site_fract_x
_atom_site_fract_y
_atom_site_fract_z
Si Si1 0.296084 0.193083 0.300537
Si Si2 0.000000 0.500000 0.000000
Si Si3 0.199573 0.833507 0.500000
Si Si4 0.203348 0.000000 0.251608
Si Si5 0.287854 0.500000 0.632785
Si Si6 0.788461 0.794470 0.902611
O O1 0.500000 0.197379 0.307485
O O2 0.250000 0.250000 0.250000
O O3 0.248242 0.088579 0.286050
O O4 0.223322 0.240107 0.351642
O O5 0.844924 0.583846 0.000000
O O6 0.225905 0.764900 0.548944
O O7 0.000000 0.868908 0.500000
O O8 0.275178 0.000000 0.192829
O O9 0.000000 0.000000 0.243258
O O10 0.500000 0.500000 0.633836
O O11 0.235851 0.596516 0.604577
O O12 0.000000 0.794310 0.904397
#
# Coordination Sequence:
#
# PCOD9523581 Si02
#       6
#    16   2   8   8   8  16
#     4  11  22  37  62  93 133 178 224 276 340 402
#     4  12  26  56  80  96 144 168 230 292 348 398
#     4  12  27  48  78 107 132 179 231 283 350 408
#     4  11  21  38  59  90 131 176 225 275 332 400
#     4   9  18  36  67  96 132 187 224 260 341 415
#     4  10  21  43  68  96 139 184 226 282 345 409
#
# _framework density 20.272693
#
# number of rings (size 3 to 8) (size 9 to 14) (size 15 to 20)
#    0.000    1.379    4.138    1.448    0.000    3.862 
#    0.000    3.448    0.000    0.000    0.000    0.000 
#    0.000    0.000    0.000    0.000    0.000    0.000 
#
# Total GULP energy -161562.967000 kJ/mol
# GULP energy per Si atom -5571.136793 kJ/mol
# Density = 2.022655 g / cm^3
# Si number density = 20.272693 Si / 1000 Ang^3
#
#
#
# Elastic Constant Matrix: (Units=GPa)
#
#
# Indices 1 2 3 4 5 6 
#
# 1 89.8401 40.8889 23.7367 0.0000 0.0000 0.0000
# 2 40.8889 224.8066 103.8509 0.0000 0.0000 0.0000
# 3 23.7367 103.8509 160.3528 0.0000 0.0000 0.0000
# 4 0.0000 0.0000 0.0000 18.1489 0.0000 0.0000
# 5 0.0000 0.0000 0.0000 0.0000 25.0031 0.0000
# 6 0.0000 0.0000 0.0000 0.0000 0.0000 28.4068
#
#
#
# Elastic Compliance Matrix: (Units=1/GPa)
#
#
# Indices 1 2 3 4 5 6 
#
# 1 0.012166 -0.001970 -0.000525 0.000000 0.000000 0.000000
# 2 -0.001970 0.006666 -0.004026 0.000000 0.000000 0.000000
# 3 -0.000525 -0.004026 0.008921 0.000000 0.000000 0.000000
# 4 0.000000 0.000000 0.000000 0.055100 0.000000 0.000000
# 5 0.000000 0.000000 0.000000 0.000000 0.039995 0.000000
# 6 0.000000 0.000000 0.000000 0.000000 0.000000 0.035203
#
#
# Mechanical properties :
#
#
# Convention : Reuss Voigt Hill
#
# Bulk Modulus (GPa) = 67.97213 90.21694 79.09453
# Shear Modulus (GPa) = 28.40949 34.74662 31.57805
#
# Velocity S-wave (km/s) = 3.74755 4.14449 3.95101
# Velocity P-wave (km/s) = 7.23375 8.21588 7.74041
#
# Compressibility (1/GPa) = 0.01471191
#
# Stress axis : x y z
#
# Youngs Moduli (GPa) = 82.19386 150.00656 112.09298
#
# Poissons Ratio (x) = 0.29558 0.05883
# Poissons Ratio (y) = 0.16196 0.45126
# Poissons Ratio (z) = 0.04314 0.60389
#
# Static dielectric constant tensor:
#      x y z
#    x 1.824740 0.000000 0.000000 
#    y 0.000000 1.706880 0.000000 
#    z 0.000000 0.000000 1.719870 
# 
# From -- ./inp_files/14038.got.cif
#   From: 2010.05.17/outbox.cif.g08.bks.cpg/sg71_8_cif.got.tgz:14038.got - 2010.06.03 16:22:01.
