data_PCOD9523145
_publ_section_title
;
Structure prediction by ZEFSAII (Michael W. Deem and Ramdas Pophale) SiO2 
 PCOD9523145
Probable space group: I M M M
;
_chemical_formula_sum "Si O2"
_cell_formula_units_Z 88
_cell_length_a 11.134111
_cell_length_b 27.514603
_cell_length_c 14.419131
_cell_angle_alpha 90.000000
_cell_angle_beta 90.000000
_cell_angle_gamma 90.000000
_cell_volume 4417.310067
_symmetry_space_group_name_H-M "I M M M"
_symmetry_group_IT_number 71
_symmetry_cell_setting 'orthorhombic'
loop_
_space_group_symop_operation_xyz
x,y,z
-x,-y,z
x,-y,-z
-x,y,-z
-x,-y,-z
x,y,-z
-x,y,z
x,-y,z
1/2+x,1/2+y,1/2+z
1/2-x,1/2-y,1/2+z
1/2+x,1/2-y,1/2-z
1/2-x,1/2+y,1/2-z
1/2-x,1/2-y,1/2-z
1/2+x,1/2+y,1/2-z
1/2-x,1/2+y,1/2+z
1/2+x,1/2-y,1/2+z
loop_
_atom_site_type_symbol
_atom_site_label
_atom_site_fract_x
_atom_site_fract_y
_atom_site_fract_z
Si Si1 0.860176 0.395675 0.605709
Si Si2 0.818981 0.815549 0.104996
Si Si3 0.500000 0.941177 0.604695
Si Si4 0.128542 0.850992 0.695450
Si Si5 0.759000 0.442844 0.215193
Si Si6 0.361668 0.799616 0.609226
O O1 0.841841 0.412429 0.500000
O O2 0.813126 0.340030 0.609564
O O3 0.789160 0.428238 0.679040
O O4 0.000000 0.398171 0.627722
O O5 0.877055 0.839691 0.194837
O O6 0.835098 0.758124 0.116388
O O7 0.862458 0.827206 0.000000
O O8 0.500000 0.922345 0.500000
O O9 0.378669 0.928072 0.657912
O O10 0.500000 0.000000 0.601444
O O11 0.152062 0.908220 0.682822
O O12 0.249711 0.825315 0.658998
O O13 0.000000 0.835733 0.653883
O O14 0.738652 0.500000 0.204956
O O15 0.358548 0.812012 0.500000
O O16 0.500000 0.809098 0.642141
#
# Coordination Sequence:
#
# PCOD9523145 Si02
#       6
#    16  16   8  16  16  16
#     4   9  17  30  52  85 122 156 190 234 289 343
#     4   9  19  36  58  84 117 157 197 232 277 343
#     4   9  18  34  57  81 101 133 186 238 281 329
#     4  11  24  38  58  88 118 152 191 240 296 347
#     4  10  21  37  56  80 112 150 194 239 287 344
#     4  10  22  40  62  86 114 152 195 240 290 347
#
# _framework density 19.921626
#
# number of rings (size 3 to 8) (size 9 to 14) (size 15 to 20)
#    0.000    2.273    0.909    1.091    1.273    4.364 
#    0.000    2.727    0.000    0.000    0.000    8.909 
#    0.000    0.000    0.000    0.000    0.000    0.000 
#
# Total GULP energy -245165.853423 kJ/mol
# GULP energy per Si atom -5571.951214 kJ/mol
# Density = 1.987628 g / cm^3
# Si number density = 19.921626 Si / 1000 Ang^3
#
#
#
# Elastic Constant Matrix: (Units=GPa)
#
#
# Indices 1 2 3 4 5 6 
#
# 1 56.9792 35.5544 39.5078 0.0000 0.0000 0.0000
# 2 35.5544 80.9078 27.7566 0.0000 0.0000 0.0000
# 3 39.5078 27.7566 66.0439 0.0001 0.0000 -0.0001
# 4 0.0000 0.0000 0.0001 13.5093 0.0000 0.0000
# 5 0.0000 0.0000 0.0000 0.0000 8.8071 0.0000
# 6 0.0000 0.0000 -0.0001 0.0000 0.0000 13.1793
#
#
#
# Elastic Compliance Matrix: (Units=1/GPa)
#
#
# Indices 1 2 3 4 5 6 
#
# 1 0.035513 -0.009719 -0.017159 0.000000 0.000000 0.000000
# 2 -0.009719 0.017102 -0.001374 0.000000 0.000000 0.000000
# 3 -0.017159 -0.001374 0.025983 0.000000 0.000000 0.000000
# 4 0.000000 0.000000 0.000000 0.074023 0.000000 0.000000
# 5 0.000000 0.000000 0.000000 0.000000 0.113545 0.000000
# 6 0.000000 0.000000 0.000000 0.000000 0.000000 0.075877
#
#
# Mechanical properties :
#
#
# Convention : Reuss Voigt Hill
#
# Bulk Modulus (GPa) = 45.26024 45.50762 45.38393
# Shear Modulus (GPa) = 12.31799 13.83994 13.07896
#
# Velocity S-wave (km/s) = 2.48931 2.63861 2.56505
# Velocity P-wave (km/s) = 5.57052 5.67238 5.62168
#
# Compressibility (1/GPa) = 0.02209445
#
# Stress axis : x y z
#
# Youngs Moduli (GPa) = 28.15909 58.47288 38.48616
#
# Poissons Ratio (x) = 0.56830 0.66039
# Poissons Ratio (y) = 0.27368 0.05286
# Poissons Ratio (z) = 0.48318 0.08031
#
# Static dielectric constant tensor:
#      x y z
#    x 1.722530 0.000000 0.000000 
#    y 0.000000 1.699590 0.000000 
#    z 0.000000 0.000000 1.718430 
# 
# From -- ./inp_files/32968.got.cif
#   From: 2010.05.17/outbox.cif.g08.bks.cpg/sg71_17_cif.got.tgz:32968.got - 2010.06.03 16:22:01.
