data_PCOD9523000
_publ_section_title
;
Structure prediction by ZEFSAII (Michael W. Deem and Ramdas Pophale) SiO2 
 PCOD9523000
Probable space group: I M M M
;
_chemical_formula_sum "Si O2"
_cell_formula_units_Z 88
_cell_length_a 20.585560
_cell_length_b 25.454212
_cell_length_c 8.764608
_cell_angle_alpha 90.000000
_cell_angle_beta 90.000000
_cell_angle_gamma 90.000000
_cell_volume 4592.560008
_symmetry_space_group_name_H-M "I M M M"
_symmetry_group_IT_number 71
_symmetry_cell_setting 'orthorhombic'
loop_
_space_group_symop_operation_xyz
x,y,z
-x,-y,z
x,-y,-z
-x,y,-z
-x,-y,-z
x,y,-z
-x,y,z
x,-y,z
1/2+x,1/2+y,1/2+z
1/2-x,1/2-y,1/2+z
1/2+x,1/2-y,1/2-z
1/2-x,1/2+y,1/2-z
1/2-x,1/2-y,1/2-z
1/2+x,1/2+y,1/2-z
1/2-x,1/2+y,1/2+z
1/2+x,1/2-y,1/2+z
loop_
_atom_site_type_symbol
_atom_site_label
_atom_site_fract_x
_atom_site_fract_y
_atom_site_fract_z
Si Si1 0.929015 0.216220 0.173478
Si Si2 0.804965 0.288195 0.178744
Si Si3 0.572257 0.606751 0.178491
Si Si4 0.699507 0.561617 0.330508
Si Si5 0.831070 0.407689 0.181293
Si Si6 0.422315 0.000000 0.816163
O O1 0.871436 0.256264 0.192146
O O2 0.925430 0.169054 0.292070
O O3 0.000000 0.241651 0.186131
O O4 0.924440 0.193941 0.000000
O O5 0.750000 0.250000 0.250000
O O6 0.822146 0.346969 0.237215
O O7 0.787398 0.294658 0.000000
O O8 0.500000 0.588981 0.229056
O O9 0.632644 0.584584 0.269533
O O10 0.578839 0.594735 0.000000
O O11 0.715106 0.583088 0.500000
O O12 0.690440 0.500000 0.342690
O O13 0.759666 0.570398 0.218647
O O14 0.883841 0.447788 0.255356
O O15 0.843942 0.406633 0.000000
O O16 0.500000 0.000000 0.775681
O O17 0.417671 0.000000 0.000000
#
# Coordination Sequence:
#
# PCOD9523000 Si02
#       6
#    16  16  16  16  16   8
#     4   9  18  35  57  79 109 149 190 232 283 346
#     4  10  22  37  57  89 122 156 198 247 304 366
#     4  10  21  36  55  82 116 152 193 242 292 343
#     4  11  23  38  58  82 112 151 195 241 291 351
#     4  11  23  40  64  92 123 158 202 256 312 369
#     4  11  25  45  67  93 126 165 212 263 319 383
#
# _framework density 19.161428000000001
#
# number of rings (size 3 to 8) (size 9 to 14) (size 15 to 20)
#    0.000    1.727    0.909    3.000    0.000    9.091 
#    0.000    3.636    0.000    2.182    0.000    0.000 
#    0.000    0.000    0.000    0.000    0.000    0.000 
#
# Total GULP energy -245228.076953 kJ/mol
# GULP energy per Si atom -5573.365385 kJ/mol
# Density = 1.911782 g / cm^3
# Si number density = 19.161428 Si / 1000 Ang^3
#
#
#
# Elastic Constant Matrix: (Units=GPa)
#
#
# Indices 1 2 3 4 5 6 
#
# 1 123.8591 62.3053 29.9933 0.0000 0.0000 0.0000
# 2 62.3053 107.1381 31.5387 0.0000 0.0000 0.0000
# 3 29.9933 31.5387 41.6272 0.0000 0.0000 0.0000
# 4 0.0000 0.0000 0.0000 24.4003 0.0000 0.0000
# 5 0.0000 0.0000 0.0000 0.0000 38.3881 0.0000
# 6 0.0000 0.0000 0.0000 0.0000 0.0000 4.4632
#
#
#
# Elastic Compliance Matrix: (Units=1/GPa)
#
#
# Indices 1 2 3 4 5 6 
#
# 1 0.011986 -0.005699 -0.004318 0.000000 0.000000 0.000000
# 2 -0.005699 0.014723 -0.007048 0.000000 0.000000 0.000000
# 3 -0.004318 -0.007048 0.032474 0.000000 0.000000 0.000000
# 4 0.000000 0.000000 0.000000 0.040983 0.000000 0.000000
# 5 0.000000 0.000000 0.000000 0.000000 0.026050 0.000000
# 6 0.000000 0.000000 0.000000 0.000000 0.000000 0.224052
#
#
# Mechanical properties :
#
#
# Convention : Reuss Voigt Hill
#
# Bulk Modulus (GPa) = 39.91747 57.81101 48.86424
# Shear Modulus (GPa) = 12.73070 23.36947 18.05008
#
# Velocity S-wave (km/s) = 2.58038 3.49608 3.07253
# Velocity P-wave (km/s) = 5.45483 6.82149 6.17608
#
# Compressibility (1/GPa) = 0.02505168
#
# Stress axis : x y z
#
# Youngs Moduli (GPa) = 83.42802 67.92085 30.79353
#
# Poissons Ratio (x) = 0.38711 0.13298
# Poissons Ratio (y) = 0.47549 0.21704
# Poissons Ratio (z) = 0.36027 0.47873
#
# Static dielectric constant tensor:
#      x y z
#    x 1.630840 0.000000 0.000000 
#    y 0.000000 1.704540 0.000000 
#    z 0.000000 0.000000 1.718650 
# 
# From -- ./inp_files/10385.got.cif
#   From: 2010.05.17/outbox.cif.g08.bks.cpg/sg71_6_cif.got.tgz:10385.got - 2010.06.03 16:22:01.
