data_PCOD9523776
_publ_section_title
;
Structure prediction by ZEFSAII (Michael W. Deem and Ramdas Pophale) SiO2 
 PCOD9523776
Probable space group: I M M M
;
_chemical_formula_sum "Si O2"
_cell_formula_units_Z 120
_cell_length_a 17.280072
_cell_length_b 19.692898
_cell_length_c 18.014771
_cell_angle_alpha 90.000000
_cell_angle_beta 90.000000
_cell_angle_gamma 90.000000
_cell_volume 6130.331009
_symmetry_space_group_name_H-M "I M M M"
_symmetry_group_IT_number 71
_symmetry_cell_setting 'orthorhombic'
loop_
_space_group_symop_operation_xyz
x,y,z
-x,-y,z
x,-y,-z
-x,y,-z
-x,-y,-z
x,y,-z
-x,y,z
x,-y,z
1/2+x,1/2+y,1/2+z
1/2-x,1/2-y,1/2+z
1/2+x,1/2-y,1/2-z
1/2-x,1/2+y,1/2-z
1/2-x,1/2-y,1/2-z
1/2+x,1/2+y,1/2-z
1/2-x,1/2+y,1/2+z
1/2+x,1/2-y,1/2+z
loop_
_atom_site_type_symbol
_atom_site_label
_atom_site_fract_x
_atom_site_fract_y
_atom_site_fract_z
Si Si1 0.087722 0.710989 0.087744
Si Si2 0.683410 0.292460 0.706428
Si Si3 0.412316 0.724894 0.151513
Si Si4 0.914320 0.625931 0.587217
Si Si5 0.914277 0.000000 0.409593
Si Si6 0.856851 0.421076 0.841186
Si Si7 0.713453 0.923857 0.815789
Si Si8 0.695530 0.620253 0.913326
O O1 0.150324 0.754394 0.134041
O O2 0.088990 0.635136 0.122279
O O3 0.000000 0.738125 0.095730
O O4 0.106503 0.708178 0.000000
O O5 0.750000 0.250000 0.750000
O O6 0.612783 0.293558 0.765079
O O7 0.722219 0.365039 0.688925
O O8 0.500000 0.701389 0.134075
O O9 0.410700 0.804749 0.134813
O O10 0.345256 0.691342 0.101962
O O11 0.910028 0.642766 0.500000
O O12 0.840692 0.583227 0.612423
O O13 0.000000 0.594901 0.600092
O O14 0.867783 0.933971 0.387311
O O15 0.917155 0.000000 0.500000
O O16 0.000000 0.000000 0.380179
O O17 0.872842 0.500000 0.859942
O O18 0.846713 0.415060 0.752909
O O19 0.772855 0.398256 0.871041
O O20 0.746095 0.000000 0.809170
O O21 0.710706 0.611473 0.000000
#
# Coordination Sequence:
#
# PCOD9523776 Si02
#       8
#    16  16  16  16   8  16  16  16
#     4  11  25  43  65  94 126 164 211 262 318 377
#     4  12  21  42  66  93 120 162 207 259 311 365
#     4  11  21  35  59  89 121 158 200 250 305 365
#     4  10  22  40  62  91 125 158 197 247 305 367
#     4   9  18  30  44  70 115 165 204 241 295 361
#     4  11  22  39  62  90 126 168 211 252 303 370
#     4  11  24  41  62  90 125 162 205 253 307 370
#     4  11  20  32  51  80 119 161 205 252 301 357
#
# _framework density 19.574798999999999
#
# number of rings (size 3 to 8) (size 9 to 14) (size 15 to 20)
#    0.000    1.133    4.667    1.600    0.000    5.067 
#    0.000    2.667    0.000    1.200    0.000    0.933 
#    0.000    0.000    0.000    0.000    0.000    0.000 
#
# Total GULP energy -334984.241205 kJ/mol
# GULP energy per Si atom -5583.070687 kJ/mol
# Density = 1.953025 g / cm^3
# Si number density = 19.574799 Si / 1000 Ang^3
#
#
#
# Elastic Constant Matrix: (Units=GPa)
#
#
# Indices 1 2 3 4 5 6 
#
# 1 74.9443 32.3788 32.7441 0.0000 0.0000 0.0000
# 2 32.3788 108.1461 31.3719 0.0000 0.0000 0.0000
# 3 32.7441 31.3719 76.2226 0.0000 0.0000 0.0000
# 4 0.0000 0.0000 0.0000 19.1397 0.0000 0.0000
# 5 0.0000 0.0000 0.0000 0.0000 31.7856 0.0000
# 6 0.0000 0.0000 0.0000 0.0000 0.0000 22.7836
#
#
#
# Elastic Compliance Matrix: (Units=1/GPa)
#
#
# Indices 1 2 3 4 5 6 
#
# 1 0.017505 -0.003474 -0.006090 0.000000 0.000000 0.000000
# 2 -0.003474 0.011190 -0.003113 0.000000 0.000000 0.000000
# 3 -0.006090 -0.003113 0.017017 0.000000 0.000000 0.000000
# 4 0.000000 0.000000 0.000000 0.052247 0.000000 0.000000
# 5 0.000000 0.000000 0.000000 0.000000 0.031461 0.000000
# 6 0.000000 0.000000 0.000000 0.000000 0.000000 0.043891
#
#
# Mechanical properties :
#
#
# Convention : Reuss Voigt Hill
#
# Bulk Modulus (GPa) = 49.12257 50.25584 49.68921
# Shear Modulus (GPa) = 24.33660 25.59634 24.96647
#
# Velocity S-wave (km/s) = 3.52982 3.62002 3.57520
# Velocity P-wave (km/s) = 6.46236 6.57284 6.51783
#
# Compressibility (1/GPa) = 0.02035724
#
# Stress axis : x y z
#
# Youngs Moduli (GPa) = 57.12627 89.36516 58.76513
#
# Poissons Ratio (x) = 0.31049 0.35787
# Poissons Ratio (y) = 0.19848 0.18294
# Poissons Ratio (z) = 0.34789 0.27820
#
# Static dielectric constant tensor:
#      x y z
#    x 1.687320 0.000000 0.000000 
#    y 0.000000 1.729330 0.000000 
#    z 0.000000 0.000000 1.710720 
# 
# From -- ./inp_files/46463.got.cif
#   From: 2010.05.17/outbox.cif.g08.bks.cpg/sg71_24_cif.got.tgz:46463.got - 2010.06.03 16:22:01.
