data_PCOD9523125
_publ_section_title
;
Structure prediction by ZEFSAII (Michael W. Deem and Ramdas Pophale) SiO2 
 PCOD9523125
Probable space group: I M M M
;
_chemical_formula_sum "Si O2"
_cell_formula_units_Z 72
_cell_length_a 9.357107
_cell_length_b 27.342101
_cell_length_c 14.015203
_cell_angle_alpha 90.000000
_cell_angle_beta 90.000000
_cell_angle_gamma 90.000000
_cell_volume 3585.691086
_symmetry_space_group_name_H-M "I M M M"
_symmetry_group_IT_number 71
_symmetry_cell_setting 'orthorhombic'
loop_
_space_group_symop_operation_xyz
x,y,z
-x,-y,z
x,-y,-z
-x,y,-z
-x,-y,-z
x,y,-z
-x,y,z
x,-y,z
1/2+x,1/2+y,1/2+z
1/2-x,1/2-y,1/2+z
1/2+x,1/2-y,1/2-z
1/2-x,1/2+y,1/2-z
1/2-x,1/2-y,1/2-z
1/2+x,1/2+y,1/2-z
1/2-x,1/2+y,1/2+z
1/2+x,1/2-y,1/2+z
loop_
_atom_site_type_symbol
_atom_site_label
_atom_site_fract_x
_atom_site_fract_y
_atom_site_fract_z
Si Si1 0.173963 0.609235 0.611110
Si Si2 0.843227 0.555508 0.883838
Si Si3 0.666680 0.000000 0.883637
Si Si4 0.168852 0.301312 0.750980
Si Si5 0.157249 0.858105 0.386421
O O1 0.215605 0.616101 0.500000
O O2 0.223232 0.554420 0.643292
O O3 0.215261 0.656325 0.674873
O O4 0.000000 0.607624 0.613371
O O5 0.830511 0.500000 0.851032
O O6 0.710420 0.588362 0.856582
O O7 0.000000 0.574654 0.852369
O O8 0.846415 0.554827 0.000000
O O9 0.500000 0.000000 0.855123
O O10 0.670433 0.000000 0.000000
O O11 0.250000 0.250000 0.750000
O O12 0.216833 0.323749 0.851363
O O13 0.000000 0.294312 0.740649
O O14 0.149758 0.856763 0.500000
O O15 0.000000 0.845520 0.348191
#
# Coordination Sequence:
#
# PCOD9523125 Si02
#       5
#    16  16   8  16  16
#     4   8  15  30  54  83 112 141 175 222 283 346
#     4   8  14  27  49  76 105 137 175 221 270 321
#     4   7  10  22  48  80 110 135 164 212 275 339
#     4  11  23  38  56  81 113 149 189 236 284 339
#     4  10  21  37  56  77 106 147 192 236 281 330
#
# _framework density 20.079810999999999
#
# number of rings (size 3 to 8) (size 9 to 14) (size 15 to 20)
#    0.000    3.000    0.000    3.333    0.000    2.667 
#    2.000    4.444    0.000    2.000    0.000    0.000 
#    0.000   10.667    0.000    0.000    0.000    0.000 
#
# Total GULP energy -200476.181774 kJ/mol
# GULP energy per Si atom -5568.782827 kJ/mol
# Density = 2.003411 g / cm^3
# Si number density = 20.079811 Si / 1000 Ang^3
#
#
#
# Elastic Constant Matrix: (Units=GPa)
#
#
# Indices 1 2 3 4 5 6 
#
# 1 43.3762 48.2040 22.4883 0.0000 0.0000 0.0000
# 2 48.2040 155.1688 45.3402 -0.0001 0.0000 0.0000
# 3 22.4883 45.3402 70.6272 -0.0004 0.0000 0.0000
# 4 0.0000 -0.0001 -0.0004 22.1409 0.0000 0.0000
# 5 0.0000 0.0000 0.0000 0.0000 14.3995 0.0000
# 6 0.0000 0.0000 0.0000 0.0000 0.0000 32.9631
#
#
#
# Elastic Compliance Matrix: (Units=1/GPa)
#
#
# Indices 1 2 3 4 5 6 
#
# 1 0.036804 -0.009858 -0.005390 0.000000 0.000000 0.000000
# 2 -0.009858 0.010573 -0.003649 0.000000 0.000000 0.000000
# 3 -0.005390 -0.003649 0.018217 0.000000 0.000000 0.000000
# 4 0.000000 0.000000 0.000000 0.045165 0.000000 0.000000
# 5 0.000000 0.000000 0.000000 0.000000 0.069447 0.000000
# 6 0.000000 0.000000 0.000000 0.000000 0.000000 0.030337
#
#
# Mechanical properties :
#
#
# Convention : Reuss Voigt Hill
#
# Bulk Modulus (GPa) = 35.97032 55.69303 45.83168
# Shear Modulus (GPa) = 19.40953 24.11001 21.75977
#
# Velocity S-wave (km/s) = 3.11242 3.46888 3.29548
# Velocity P-wave (km/s) = 5.55597 6.62120 6.11183
#
# Compressibility (1/GPa) = 0.02780069
#
# Stress axis : x y z
#
# Youngs Moduli (GPa) = 27.17078 94.57757 54.89258
#
# Poissons Ratio (x) = 0.93239 0.29587
# Poissons Ratio (y) = 0.26786 0.20029
# Poissons Ratio (z) = 0.14645 0.34508
#
# Static dielectric constant tensor:
#      x y z
#    x 1.705930 0.000000 0.000000 
#    y 0.000000 1.820060 0.000000 
#    z 0.000000 0.000000 1.787340 
# 
# From -- ./inp_files/31458.got.cif
#   From: 2010.05.17/outbox.cif.g08.bks.cpg/sg71_16_cif.got.tgz:31458.got - 2010.06.03 16:22:01.
