data_PCOD9523703
_publ_section_title
;
Structure prediction by ZEFSAII (Michael W. Deem and Ramdas Pophale) SiO2 
 PCOD9523703
Probable space group: I M M M
;
_chemical_formula_sum "Si O2"
_cell_formula_units_Z 96
_cell_length_a 24.852058
_cell_length_b 8.735181
_cell_length_c 23.032535
_cell_angle_alpha 90.000000
_cell_angle_beta 90.000000
_cell_angle_gamma 90.000000
_cell_volume 5000.069104
_symmetry_space_group_name_H-M "I M M M"
_symmetry_group_IT_number 71
_symmetry_cell_setting 'orthorhombic'
loop_
_space_group_symop_operation_xyz
x,y,z
-x,-y,z
x,-y,-z
-x,y,-z
-x,-y,-z
x,y,-z
-x,y,z
x,-y,z
1/2+x,1/2+y,1/2+z
1/2-x,1/2-y,1/2+z
1/2+x,1/2-y,1/2-z
1/2-x,1/2+y,1/2-z
1/2-x,1/2-y,1/2-z
1/2+x,1/2+y,1/2-z
1/2-x,1/2+y,1/2+z
1/2+x,1/2-y,1/2+z
loop_
_atom_site_type_symbol
_atom_site_label
_atom_site_fract_x
_atom_site_fract_y
_atom_site_fract_z
Si Si1 0.000000 0.817244 0.654110
Si Si2 0.697469 0.180577 0.109095
Si Si3 0.388047 0.183650 0.671609
Si Si4 0.500000 0.316062 0.710671
Si Si5 0.189856 0.315818 0.933487
Si Si6 0.307913 0.681791 0.766234
Si Si7 0.081492 0.681913 0.563676
O O1 0.000000 0.764570 0.721267
O O2 0.050935 0.759250 0.617017
O O3 0.000000 0.000000 0.655033
O O4 0.753457 0.238876 0.082917
O O5 0.684282 0.273451 0.167195
O O6 0.645621 0.201098 0.068680
O O7 0.702363 0.000000 0.122774
O O8 0.446741 0.254687 0.679283
O O9 0.355788 0.228339 0.613069
O O10 0.352116 0.241968 0.725211
O O11 0.391666 0.000000 0.673041
O O12 0.500000 0.500000 0.710401
O O13 0.196741 0.500000 0.929057
O O14 0.175652 0.278716 0.000000
O O15 0.308467 0.500000 0.758284
O O16 0.250000 0.750000 0.750000
O O17 0.063765 0.737456 0.500000
O O18 0.070427 0.500000 0.566910
#
# Coordination Sequence:
#
# PCOD9523703 Si02
#       7
#     8  16  16   8  16  16  16
#     4  11  24  40  59  85 113 150 200 253 304 355
#     4  11  22  37  60  90 123 162 206 251 303 363
#     4  11  23  41  65  93 124 160 204 251 306 370
#     4  11  25  44  65  90 122 159 202 255 312 369
#     4  10  22  40  62  89 123 161 200 248 308 370
#     4  12  23  37  59  90 126 162 202 252 307 364
#     4  10  22  39  58  83 118 160 203 246 293 352
#
# _framework density 19.199735
#
# number of rings (size 3 to 8) (size 9 to 14) (size 15 to 20)
#    0.000    1.167    1.667    4.750    0.000    8.333 
#    0.000    0.417    0.000    2.500    0.000    0.000 
#    0.000    0.000    0.000    0.000    0.000    0.000 
#
# Total GULP energy -268378.786043 kJ/mol
# GULP energy per Si atom -5591.224709 kJ/mol
# Density = 1.915604 g / cm^3
# Si number density = 19.199735 Si / 1000 Ang^3
#
#
#
# Elastic Constant Matrix: (Units=GPa)
#
#
# Indices 1 2 3 4 5 6 
#
# 1 161.3499 45.9587 60.9825 0.0000 0.0000 0.0000
# 2 45.9587 61.9950 38.5912 0.0000 0.0000 0.0000
# 3 60.9825 38.5912 118.0709 0.0000 0.0000 0.0000
# 4 0.0000 0.0000 0.0000 24.3239 0.0000 0.0000
# 5 0.0000 0.0000 0.0000 0.0000 -6.0018 0.0000
# 6 0.0000 0.0000 0.0000 0.0000 0.0000 36.2256
#
#
#
# Elastic Compliance Matrix: (Units=1/GPa)
#
#
# Indices 1 2 3 4 5 6 
#
# 1 0.008611 -0.004538 -0.002964 0.000000 0.000000 0.000000
# 2 -0.004538 0.022642 -0.005057 0.000000 0.000000 0.000000
# 3 -0.002964 -0.005057 0.011653 0.000000 0.000000 0.000000
# 4 0.000000 0.000000 0.000000 0.041112 0.000000 0.000000
# 5 0.000000 0.000000 0.000000 0.000000 -0.166616 0.000000
# 6 0.000000 0.000000 0.000000 0.000000 0.000000 0.027605
#
#
# Mechanical properties :
#
#
# Convention : Reuss Voigt Hill
#
# Bulk Modulus (GPa) = 56.21660 70.27560 63.24610
# Shear Modulus (GPa) = -208.80198 23.96843 -92.41677
#
# Velocity S-wave (km/s) = -10.43976 3.53707 -6.94542
# Velocity P-wave (km/s) = 10.76916 7.30500 5.59517
#
# Compressibility (1/GPa) = 0.01778834
#
# Stress axis : x y z
#
# Youngs Moduli (GPa) = 116.13564 44.16497 85.81397
#
# Poissons Ratio (x) = 0.20043 0.25435
# Poissons Ratio (y) = 0.52705 0.43393
# Poissons Ratio (z) = 0.34422 0.22333
#
# Static dielectric constant tensor:
#      x y z
#    x 1.660130 0.000000 0.000000 
#    y 0.000000 1.643990 0.000000 
#    z 0.000000 0.000000 1.669590 
# 
# From -- ./inp_files/61555.got.cif
#   From: 2010.05.17/outbox.cif.g08.bks.cpg/sg71_31_cif.got.tgz:61555.got - 2010.06.03 16:22:01.
