data_PCOD9523118
_publ_section_title
;
Structure prediction by ZEFSAII (Michael W. Deem and Ramdas Pophale) SiO2 
 PCOD9523118
Probable space group: I M M M
;
_chemical_formula_sum "Si O2"
_cell_formula_units_Z 116
_cell_length_a 30.020728
_cell_length_b 24.491992
_cell_length_c 7.807595
_cell_angle_alpha 90.000000
_cell_angle_beta 90.000000
_cell_angle_gamma 90.000000
_cell_volume 5740.670310
_symmetry_space_group_name_H-M "I M M M"
_symmetry_group_IT_number 71
_symmetry_cell_setting 'orthorhombic'
loop_
_space_group_symop_operation_xyz
x,y,z
-x,-y,z
x,-y,-z
-x,y,-z
-x,-y,-z
x,y,-z
-x,y,z
x,-y,z
1/2+x,1/2+y,1/2+z
1/2-x,1/2-y,1/2+z
1/2+x,1/2-y,1/2-z
1/2-x,1/2+y,1/2-z
1/2-x,1/2-y,1/2-z
1/2+x,1/2+y,1/2-z
1/2-x,1/2+y,1/2+z
1/2+x,1/2-y,1/2+z
loop_
_atom_site_type_symbol
_atom_site_label
_atom_site_fract_x
_atom_site_fract_y
_atom_site_fract_z
Si Si1 0.449975 0.345194 0.702248
Si Si2 0.049059 0.278378 0.699711
Si Si3 0.881977 0.059834 0.706807
Si Si4 0.355924 0.800042 0.794134
Si Si5 0.789738 0.789921 0.803973
Si Si6 0.685800 0.916950 0.196947
Si Si7 0.662737 0.000000 0.500000
Si Si8 0.784579 0.089474 0.695784
O O1 0.449624 0.334290 0.500000
O O2 0.500000 0.364175 0.750972
O O3 0.442686 0.286794 0.790171
O O4 0.413470 0.390768 0.739569
O O5 0.046490 0.293724 0.500000
O O6 0.093440 0.306472 0.770130
O O7 0.000000 0.288754 0.777016
O O8 0.880096 0.061084 0.500000
O O9 0.831046 0.067069 0.767107
O O10 0.898712 0.000000 0.760732
O O11 0.333718 0.746416 0.715329
O O12 0.326491 0.853755 0.764768
O O13 0.356811 0.791622 0.000000
O O14 0.750000 0.750000 0.750000
O O15 0.789982 0.845036 0.696848
O O16 0.783181 0.806697 0.000000
O O17 0.739163 0.924530 0.208529
O O18 0.665024 0.953086 0.346652
O O19 0.671453 0.928356 0.000000
O O20 0.778930 0.069890 0.500000
#
# Coordination Sequence:
#
# PCOD9523118 Si02
#       8
#    16  16  16  16  16  16   4  16
#     4  10  21  37  55  80 114 148 188 241 301 362
#     4   9  18  35  61  89 119 154 189 232 293 360
#     4  10  23  39  57  78 104 145 199 254 301 348
#     4  10  21  37  57  88 122 153 196 245 296 363
#     4  12  23  34  53  81 116 157 197 240 296 363
#     4  11  24  41  63  89 118 159 205 252 303 354
#     4  12  26  44  64  86 121 162 207 254 296 350
#     4  11  22  38  58  81 117 154 198 251 308 358
#
# _framework density 20.206700999999999
#
# number of rings (size 3 to 8) (size 9 to 14) (size 15 to 20)
#    0.000    1.517    2.069    3.103    1.931    6.345 
#    0.000    1.379    0.000    0.000    0.000    0.966 
#    0.000    3.310    0.000    0.000    0.000    0.000 
#
# Total GULP energy -323469.730439 kJ/mol
# GULP energy per Si atom -5577.064318 kJ/mol
# Density = 2.016071 g / cm^3
# Si number density = 20.206701 Si / 1000 Ang^3
#
#
#
# Elastic Constant Matrix: (Units=GPa)
#
#
# Indices 1 2 3 4 5 6 
#
# 1 90.0524 -6.2048 -1.1745 0.0000 0.0000 0.0000
# 2 -6.2048 41.6611 9.5139 0.0000 0.0000 0.0000
# 3 -1.1745 9.5139 72.6356 0.0000 0.0000 0.0000
# 4 0.0000 0.0000 0.0000 15.4492 0.0000 0.0000
# 5 0.0000 0.0000 0.0000 0.0000 17.7391 0.0000
# 6 0.0000 0.0000 0.0000 0.0000 0.0000 -0.5920
#
#
#
# Elastic Compliance Matrix: (Units=1/GPa)
#
#
# Indices 1 2 3 4 5 6 
#
# 1 0.011220 0.001680 -0.000039 0.000000 0.000000 0.000000
# 2 0.001680 0.024995 -0.003247 0.000000 0.000000 0.000000
# 3 -0.000039 -0.003247 0.014192 0.000000 0.000000 0.000000
# 4 0.000000 0.000000 0.000000 0.064728 0.000000 0.000000
# 5 0.000000 0.000000 0.000000 0.000000 0.056373 0.000000
# 6 0.000000 0.000000 0.000000 0.000000 0.000000 -1.689057
#
#
# Mechanical properties :
#
#
# Convention : Reuss Voigt Hill
#
# Bulk Modulus (GPa) = 21.18832 23.17981 22.18406
# Shear Modulus (GPa) = -3.33643 20.00021 8.33189
#
# Velocity S-wave (km/s) = -1.28637 3.14949 2.03280
# Velocity P-wave (km/s) = 2.88136 4.97212 4.06351
#
# Compressibility (1/GPa) = 0.04719582
#
# Stress axis : x y z
#
# Youngs Moduli (GPa) = 89.12743 40.00828 70.46234
#
# Poissons Ratio (x) = -0.06721 0.00272
# Poissons Ratio (y) = -0.14972 0.22877
# Poissons Ratio (z) = 0.00344 0.12989
#
# Static dielectric constant tensor:
#      x y z
#    x 1.759480 0.000000 0.000000 
#    y 0.000000 1.760300 0.000000 
#    z 0.000000 0.000000 1.730960 
# 
# From -- ./inp_files/15406.got.cif
#   From: 2010.05.17/outbox.cif.g08.bks.cpg/sg71_8_cif.got.tgz:15406.got - 2010.06.03 16:22:01.
