data_PCOD9523130
_publ_section_title
;
Structure prediction by ZEFSAII (Michael W. Deem and Ramdas Pophale) SiO2 
 PCOD9523130
Probable space group: I M M M
;
_chemical_formula_sum "Si O2"
_cell_formula_units_Z 116
_cell_length_a 24.015755
_cell_length_b 14.962233
_cell_length_c 14.392549
_cell_angle_alpha 90.000000
_cell_angle_beta 90.000000
_cell_angle_gamma 90.000000
_cell_volume 5171.664874
_symmetry_space_group_name_H-M "I M M M"
_symmetry_group_IT_number 71
_symmetry_cell_setting 'orthorhombic'
loop_
_space_group_symop_operation_xyz
x,y,z
-x,-y,z
x,-y,-z
-x,y,-z
-x,-y,-z
x,y,-z
-x,y,z
x,-y,z
1/2+x,1/2+y,1/2+z
1/2-x,1/2-y,1/2+z
1/2+x,1/2-y,1/2-z
1/2-x,1/2+y,1/2-z
1/2-x,1/2-y,1/2-z
1/2+x,1/2+y,1/2-z
1/2-x,1/2+y,1/2+z
1/2+x,1/2-y,1/2+z
loop_
_atom_site_type_symbol
_atom_site_label
_atom_site_fract_x
_atom_site_fract_y
_atom_site_fract_z
Si Si1 0.258147 0.104657 0.771514
Si Si2 0.638677 0.147259 0.893857
Si Si3 0.369482 0.360562 0.100090
Si Si4 0.306274 0.500000 0.000000
Si Si5 0.563141 0.143994 0.276698
Si Si6 0.835863 0.105713 0.897660
Si Si7 0.562824 0.640632 0.719459
Si Si8 0.830252 0.393451 0.104058
O O1 0.303596 0.111533 0.853727
O O2 0.201605 0.143920 0.813775
O O3 0.288487 0.145000 0.681445
O O4 0.249548 0.000000 0.753204
O O5 0.642289 0.255680 0.890944
O O6 0.590703 0.117698 0.821930
O O7 0.628709 0.120761 0.000000
O O8 0.315539 0.421368 0.080337
O O9 0.405555 0.390493 0.187270
O O10 0.400378 0.374088 0.000000
O O11 0.500000 0.111201 0.289002
O O12 0.561185 0.251669 0.276138
O O13 0.607443 0.117082 0.355594
O O14 0.899514 0.116389 0.868085
O O15 0.823810 0.000000 0.901465
O O16 0.824401 0.143054 0.000000
O O17 0.500000 0.607593 0.714955
O O18 0.819193 0.500000 0.097561
O O19 0.824133 0.357625 0.000000
#
# Coordination Sequence:
#
# PCOD9523130 Si02
#       8
#    16  16  16   4  16  16  16  16
#     4   9  18  35  58  81 108 142 181 229 281 333
#     4   9  16  30  53  79 108 142 188 235 275 327
#     4   8  17  32  51  78 108 143 182 222 269 324
#     4   8  16  32  53  76 112 150 180 222 273 326
#     4   9  19  34  51  77 113 149 185 226 274 327
#     4  10  22  38  55  78 107 139 180 229 277 327
#     4  10  21  37  56  78 107 144 185 227 273 326
#     4   9  18  34  58  85 112 144 182 226 278 335
#
# _framework density 22.429914
#
# number of rings (size 3 to 8) (size 9 to 14) (size 15 to 20)
#    0.414    2.483    0.000    0.414    0.966    3.034 
#    0.000   12.759    0.000    4.138    0.000    3.862 
#    0.000    0.000    0.000    0.000    0.000    0.000 
#
# Total GULP energy -323197.556817 kJ/mol
# GULP energy per Si atom -5572.371669 kJ/mol
# Density = 2.237886 g / cm^3
# Si number density = 22.429914 Si / 1000 Ang^3
#
#
#
# Elastic Constant Matrix: (Units=GPa)
#
#
# Indices 1 2 3 4 5 6 
#
# 1 117.6288 -1.6472 66.1175 0.0000 0.0000 0.0000
# 2 -1.6472 64.0618 9.7467 0.0000 0.0000 0.0000
# 3 66.1175 9.7467 162.7321 0.0000 0.0000 0.0000
# 4 0.0000 0.0000 0.0000 20.0187 0.0000 0.0000
# 5 0.0000 0.0000 0.0000 0.0000 -1.7251 0.0000
# 6 0.0000 0.0000 0.0000 0.0000 0.0000 17.9138
#
#
#
# Elastic Compliance Matrix: (Units=1/GPa)
#
#
# Indices 1 2 3 4 5 6 
#
# 1 0.011078 0.000979 -0.004560 0.000000 0.000000 0.000000
# 2 0.000979 0.015840 -0.001346 0.000000 0.000000 0.000000
# 3 -0.004560 -0.001346 0.008078 0.000000 0.000000 0.000000
# 4 0.000000 0.000000 0.000000 0.049953 0.000000 0.000000
# 5 0.000000 0.000000 0.000000 0.000000 -0.579683 0.000000
# 6 0.000000 0.000000 0.000000 0.000000 0.000000 0.055823
#
#
# Mechanical properties :
#
#
# Convention : Reuss Voigt Hill
#
# Bulk Modulus (GPa) = 39.77491 54.76186 47.26839
# Shear Modulus (GPa) = -11.88565 25.25519 6.68477
#
# Velocity S-wave (km/s) = -2.30446 3.35917 1.72822
# Velocity P-wave (km/s) = 3.26968 6.28594 5.01018
#
# Compressibility (1/GPa) = 0.02514148
#
# Stress axis : x y z
#
# Youngs Moduli (GPa) = 90.27017 63.13164 123.78975
#
# Poissons Ratio (x) = -0.06178 0.56442
# Poissons Ratio (y) = -0.08833 0.16666
# Poissons Ratio (z) = 0.41159 0.08499
#
# Static dielectric constant tensor:
#      x y z
#    x 1.846000 0.000000 0.000000 
#    y 0.000000 1.878420 0.000000 
#    z 0.000000 0.000000 1.855870 
# 
# From -- ./inp_files/39547.got.cif
#   From: 2010.05.17/outbox.cif.g08.bks.cpg/sg71_20_cif.got.tgz:39547.got - 2010.06.03 16:22:01.
