data_PCOD9523887
_publ_section_title
;
Structure prediction by ZEFSAII (Michael W. Deem and Ramdas Pophale) SiO2 
 PCOD9523887
Probable space group: I M M M
;
_chemical_formula_sum "Si O2"
_cell_formula_units_Z 104
_cell_length_a 8.597222
_cell_length_b 29.189651
_cell_length_c 20.277603
_cell_angle_alpha 90.000000
_cell_angle_beta 90.000000
_cell_angle_gamma 90.000000
_cell_volume 5088.662643
_symmetry_space_group_name_H-M "I M M M"
_symmetry_group_IT_number 71
_symmetry_cell_setting 'orthorhombic'
loop_
_space_group_symop_operation_xyz
x,y,z
-x,-y,z
x,-y,-z
-x,y,-z
-x,-y,-z
x,y,-z
-x,y,z
x,-y,z
1/2+x,1/2+y,1/2+z
1/2-x,1/2-y,1/2+z
1/2+x,1/2-y,1/2-z
1/2-x,1/2+y,1/2-z
1/2-x,1/2-y,1/2-z
1/2+x,1/2+y,1/2-z
1/2-x,1/2+y,1/2+z
1/2+x,1/2-y,1/2+z
loop_
_atom_site_type_symbol
_atom_site_label
_atom_site_fract_x
_atom_site_fract_y
_atom_site_fract_z
Si Si1 0.686926 0.114364 0.786344
Si Si2 0.314296 0.447150 0.824838
Si Si3 0.814791 0.403022 0.572515
Si Si4 0.187004 0.369054 0.077384
Si Si5 0.685826 0.212654 0.798920
Si Si6 0.312044 0.763517 0.576341
Si Si7 0.326133 0.500000 0.578697
O O1 0.500000 0.107063 0.785085
O O2 0.763625 0.073785 0.745740
O O3 0.740167 0.121480 0.862141
O O4 0.724935 0.164884 0.761714
O O5 0.500000 0.448068 0.828382
O O6 0.258366 0.500000 0.833577
O O7 0.253395 0.409771 0.877610
O O8 0.748758 0.392121 0.500000
O O9 0.772715 0.455062 0.591020
O O10 0.000000 0.397579 0.568396
O O11 0.237166 0.316373 0.092007
O O12 0.000000 0.369875 0.085172
O O13 0.222644 0.377241 0.000000
O O14 0.500000 0.212685 0.804508
O O15 0.750000 0.250000 0.750000
O O16 0.749064 0.227164 0.870996
O O17 0.266502 0.753844 0.500000
O O18 0.500000 0.762924 0.578940
O O19 0.500000 0.500000 0.608575
O O20 0.346194 0.500000 0.500000
#
# Coordination Sequence:
#
# PCOD9523887 Si02
#       7
#    16  16  16  16  16  16   8
#     4  10  23  40  58  81 110 150 195 239 285 337
#     4  11  25  41  57  83 118 153 191 241 296 347
#     4   9  18  34  55  77 102 136 181 229 273 319
#     4   9  19  38  64  91 118 151 192 234 277 338
#     4  11  23  38  58  85 116 151 193 239 287 343
#     4   9  19  37  61  90 123 155 189 234 288 346
#     4   9  17  29  47  73 103 133 166 209 262 317
#
# _framework density 20.43759
#
# number of rings (size 3 to 8) (size 9 to 14) (size 15 to 20)
#    0.000    2.231    0.000    3.000    1.077    9.846 
#    0.000    4.615    0.000    1.846    0.000    0.000 
#    0.000    0.000    0.000    0.000    0.000    0.000 
#
# Total GULP energy -289719.935627 kJ/mol
# GULP energy per Si atom -5571.537224 kJ/mol
# Density = 2.039107 g / cm^3
# Si number density = 20.437590 Si / 1000 Ang^3
#
#
#
# Elastic Constant Matrix: (Units=GPa)
#
#
# Indices 1 2 3 4 5 6 
#
# 1 12.8264 10.9140 14.8250 0.0000 0.0000 0.0000
# 2 10.9140 81.5200 19.0899 0.0000 0.0000 0.0000
# 3 14.8250 19.0899 77.6120 0.0001 0.0000 0.0000
# 4 0.0000 0.0000 0.0001 35.0107 0.0000 0.0000
# 5 0.0000 0.0000 0.0000 0.0000 27.1099 0.0000
# 6 0.0000 0.0000 0.0000 0.0000 0.0000 25.6516
#
#
#
# Elastic Compliance Matrix: (Units=1/GPa)
#
#
# Indices 1 2 3 4 5 6 
#
# 1 0.107445 -0.010164 -0.018024 0.000000 0.000000 0.000000
# 2 -0.010164 0.013978 -0.001497 0.000000 0.000000 0.000000
# 3 -0.018024 -0.001497 0.016695 0.000000 0.000000 0.000000
# 4 0.000000 0.000000 0.000000 0.028563 0.000000 0.000000
# 5 0.000000 0.000000 0.000000 0.000000 0.036887 0.000000
# 6 0.000000 0.000000 0.000000 0.000000 0.000000 0.038984
#
#
# Mechanical properties :
#
#
# Convention : Reuss Voigt Hill
#
# Bulk Modulus (GPa) = 12.69840 29.06847 20.88344
# Shear Modulus (GPa) = 15.23592 26.02974 20.63283
#
# Velocity S-wave (km/s) = 2.73332 3.57265 3.18079
# Velocity P-wave (km/s) = 4.02345 5.59217 4.87137
#
# Compressibility (1/GPa) = 0.07875008
#
# Stress axis : x y z
#
# Youngs Moduli (GPa) = 9.30705 71.53985 59.89640
#
# Poissons Ratio (x) = 0.72715 1.07955
# Poissons Ratio (y) = 0.09460 0.08964
# Poissons Ratio (z) = 0.16775 0.10707
#
# Static dielectric constant tensor:
#      x y z
#    x 1.723240 0.000000 0.000000 
#    y 0.000000 1.795070 0.000000 
#    z 0.000000 0.000000 1.795710 
# 
# From -- ./inp_files/14996.got.cif
#   From: 2010.05.17/outbox.cif.g08.bks.cpg/sg71_8_cif.got.tgz:14996.got - 2010.06.03 16:22:01.
