data_PCOD9523670
_publ_section_title
;
Structure prediction by ZEFSAII (Michael W. Deem and Ramdas Pophale) SiO2 
 PCOD9523670
Probable space group: I M M M
;
_chemical_formula_sum "Si O2"
_cell_formula_units_Z 120
_cell_length_a 21.076978
_cell_length_b 21.823986
_cell_length_c 14.597033
_cell_angle_alpha 90.000000
_cell_angle_beta 90.000000
_cell_angle_gamma 90.000000
_cell_volume 6714.396851
_symmetry_space_group_name_H-M "I M M M"
_symmetry_group_IT_number 71
_symmetry_cell_setting 'orthorhombic'
loop_
_space_group_symop_operation_xyz
x,y,z
-x,-y,z
x,-y,-z
-x,y,-z
-x,-y,-z
x,y,-z
-x,y,z
x,-y,z
1/2+x,1/2+y,1/2+z
1/2-x,1/2-y,1/2+z
1/2+x,1/2-y,1/2-z
1/2-x,1/2+y,1/2-z
1/2-x,1/2-y,1/2-z
1/2+x,1/2+y,1/2-z
1/2-x,1/2+y,1/2+z
1/2+x,1/2-y,1/2+z
loop_
_atom_site_type_symbol
_atom_site_label
_atom_site_fract_x
_atom_site_fract_y
_atom_site_fract_z
Si Si1 0.307939 0.766467 0.180589
Si Si2 0.864987 0.606635 0.894577
Si Si3 0.217724 0.139391 0.398932
Si Si4 0.927319 0.722807 0.813222
Si Si5 0.640101 0.000000 0.240054
Si Si6 0.167235 0.070295 0.221955
Si Si7 0.793670 0.404614 0.609136
Si Si8 0.925552 0.146794 0.898492
O O1 0.250000 0.750000 0.250000
O O2 0.305711 0.708928 0.112503
O O3 0.374078 0.769440 0.235320
O O4 0.298453 0.832523 0.134430
O O5 0.793932 0.635347 0.889107
O O6 0.912940 0.660364 0.866662
O O7 0.867927 0.553109 0.820365
O O8 0.874697 0.586838 0.000000
O O9 0.201586 0.115869 0.500000
O O10 0.188995 0.099119 0.317775
O O11 0.919190 0.781021 0.879758
O O12 0.000000 0.723478 0.779153
O O13 0.654858 0.945753 0.162630
O O14 0.227283 0.073713 0.153646
O O15 0.112363 0.110268 0.177475
O O16 0.148853 0.000000 0.233620
O O17 0.795775 0.412853 0.500000
O O18 0.000000 0.132005 0.894657
O O19 0.901151 0.131764 0.000000
#
# Coordination Sequence:
#
# PCOD9523670 Si02
#       8
#    16  16  16  16   8  16  16  16
#     4  12  19  39  62  88 119 153 198 252 300 356
#     4  11  22  37  60  89 122 158 195 243 296 356
#     4  11  22  37  61  89 118 153 197 247 303 353
#     4  11  21  38  64  90 121 157 193 246 309 360
#     4  12  20  40  55  85 122 159 197 238 288 360
#     4  12  22  37  56  84 122 154 194 242 296 357
#     4  12  23  35  58  88 119 154 194 247 306 357
#     4  10  22  38  58  83 114 155 196 237 293 361
#
# _framework density 17.872045
#
# number of rings (size 3 to 8) (size 9 to 14) (size 15 to 20)
#    0.000    0.667    7.333    1.600    0.000    2.133 
#    0.000    1.000    0.000    3.600    0.000    1.867 
#    0.000    0.000    0.000    0.000    0.000    0.000 
#
# Total GULP energy -334005.903574 kJ/mol
# GULP energy per Si atom -5566.765060 kJ/mol
# Density = 1.783137 g / cm^3
# Si number density = 17.872045 Si / 1000 Ang^3
#
#
#
# Elastic Constant Matrix: (Units=GPa)
#
#
# Indices 1 2 3 4 5 6 
#
# 1 56.7129 26.3145 42.0587 0.0000 0.0000 0.0000
# 2 26.3145 122.1205 51.3701 0.0000 0.0000 0.0000
# 3 42.0587 51.3701 128.7558 0.0000 0.0000 0.0000
# 4 0.0000 0.0000 0.0000 9.7754 0.0000 0.0000
# 5 0.0000 0.0000 0.0000 0.0000 9.8528 0.0000
# 6 0.0000 0.0000 0.0000 0.0000 0.0000 0.1269
#
#
#
# Elastic Compliance Matrix: (Units=1/GPa)
#
#
# Indices 1 2 3 4 5 6 
#
# 1 0.023764 -0.002230 -0.006873 0.000000 0.000000 0.000000
# 2 -0.002230 0.010049 -0.003281 0.000000 0.000000 0.000000
# 3 -0.006873 -0.003281 0.011321 0.000000 0.000000 0.000000
# 4 0.000000 0.000000 0.000000 0.102297 0.000000 0.000000
# 5 0.000000 0.000000 0.000000 0.000000 0.101494 0.000000
# 6 0.000000 0.000000 0.000000 0.000000 0.000000 7.881901
#
#
# Mechanical properties :
#
#
# Convention : Reuss Voigt Hill
#
# Bulk Modulus (GPa) = 49.09946 60.78623 54.94285
# Shear Modulus (GPa) = 0.61257 16.47408 8.54332
#
# Velocity S-wave (km/s) = 0.58608 3.03938 2.18876
# Velocity P-wave (km/s) = 5.29060 6.81196 6.09890
#
# Compressibility (1/GPa) = 0.02036682
#
# Stress axis : x y z
#
# Youngs Moduli (GPa) = 42.07973 99.50997 88.33230
#
# Poissons Ratio (x) = 0.22186 0.60713
# Poissons Ratio (y) = 0.09382 0.28983
# Poissons Ratio (z) = 0.28922 0.32650
#
# Static dielectric constant tensor:
#      x y z
#    x 1.608150 0.000000 0.000000 
#    y 0.000000 1.614780 0.000000 
#    z 0.000000 0.000000 1.619870 
# 
# From -- ./inp_files/38419.got.cif
#   From: 2010.05.17/outbox.cif.g08.bks.cpg/sg71_20_cif.got.tgz:38419.got - 2010.06.03 16:22:01.
