data_PCOD9523403
_publ_section_title
;
Structure prediction by ZEFSAII (Michael W. Deem and Ramdas Pophale) SiO2 
 PCOD9523403
Probable space group: I M M M
;
_chemical_formula_sum "Si O2"
_cell_formula_units_Z 104
_cell_length_a 19.549514
_cell_length_b 27.939360
_cell_length_c 9.721227
_cell_angle_alpha 90.000000
_cell_angle_beta 90.000000
_cell_angle_gamma 90.000000
_cell_volume 5309.743029
_symmetry_space_group_name_H-M "I M M M"
_symmetry_group_IT_number 71
_symmetry_cell_setting 'orthorhombic'
loop_
_space_group_symop_operation_xyz
x,y,z
-x,-y,z
x,-y,-z
-x,y,-z
-x,-y,-z
x,y,-z
-x,y,z
x,-y,z
1/2+x,1/2+y,1/2+z
1/2-x,1/2-y,1/2+z
1/2+x,1/2-y,1/2-z
1/2-x,1/2+y,1/2-z
1/2-x,1/2-y,1/2-z
1/2+x,1/2+y,1/2-z
1/2-x,1/2+y,1/2+z
1/2+x,1/2-y,1/2+z
loop_
_atom_site_type_symbol
_atom_site_label
_atom_site_fract_x
_atom_site_fract_y
_atom_site_fract_z
Si Si1 0.418608 0.888863 0.779245
Si Si2 0.792958 0.556322 0.349121
Si Si3 0.922188 0.057285 0.846765
Si Si4 0.815742 0.893438 0.664202
Si Si5 0.845243 0.711624 0.342052
Si Si6 0.319871 0.699844 0.341081
Si Si7 0.418946 0.054784 0.500000
O O1 0.500000 0.889265 0.808878
O O2 0.370280 0.925374 0.860532
O O3 0.386880 0.836181 0.802232
O O4 0.405933 0.911380 0.629243
O O5 0.760375 0.564534 0.500000
O O6 0.790018 0.500000 0.319495
O O7 0.753300 0.586119 0.233755
O O8 0.874445 0.072181 0.722253
O O9 0.000000 0.073923 0.826518
O O10 0.922537 0.000000 0.852451
O O11 0.899874 0.074187 0.000000
O O12 0.811058 0.890507 0.500000
O O13 0.833328 0.843451 0.737330
O O14 0.863970 0.725086 0.500000
O O15 0.763206 0.703006 0.343703
O O16 0.852638 0.753150 0.228729
O O17 0.341691 0.693392 0.500000
O O18 0.500000 0.047255 0.500000
O O19 0.388526 0.000000 0.500000
#
# Coordination Sequence:
#
# PCOD9523403 Si02
#       7
#    16  16  16  16  16  16   8
#     4  11  23  39  63  90 125 169 213 265 326 384
#     4  11  24  40  59  87 126 170 219 270 315 372
#     4   9  19  38  64  91 122 162 204 247 304 376
#     4  12  24  38  61  93 128 165 208 258 314 374
#     4  10  21  38  61  90 119 151 201 259 314 373
#     4  10  21  39  64  87 117 156 200 253 310 375
#     4   9  20  38  58  86 126 170 215 263 312 370
#
# _framework density 19.586635000000001
#
# number of rings (size 3 to 8) (size 9 to 14) (size 15 to 20)
#    0.000    1.615    1.538    3.692    2.154    5.538 
#    0.000    2.308    0.000    2.769    0.000    0.000 
#    0.000    0.000    0.000    0.000    0.000    0.000 
#
# Total GULP energy -289888.454394 kJ/mol
# GULP energy per Si atom -5574.777969 kJ/mol
# Density = 1.954206 g / cm^3
# Si number density = 19.586635 Si / 1000 Ang^3
#
#
#
# Elastic Constant Matrix: (Units=GPa)
#
#
# Indices 1 2 3 4 5 6 
#
# 1 68.3920 13.0569 31.4655 0.0000 0.0000 0.0000
# 2 13.0569 74.7529 58.0880 0.0000 0.0000 0.0000
# 3 31.4655 58.0880 184.2348 0.0000 0.0000 0.0000
# 4 0.0000 0.0000 0.0000 34.5955 0.0000 0.0000
# 5 0.0000 0.0000 0.0000 0.0000 22.8820 0.0000
# 6 0.0000 0.0000 0.0000 0.0000 0.0000 10.6669
#
#
#
# Elastic Compliance Matrix: (Units=1/GPa)
#
#
# Indices 1 2 3 4 5 6 
#
# 1 0.015912 -0.000884 -0.002439 0.000000 0.000000 0.000000
# 2 -0.000884 0.017768 -0.005451 0.000000 0.000000 0.000000
# 3 -0.002439 -0.005451 0.007563 0.000000 0.000000 0.000000
# 4 0.000000 0.000000 0.000000 0.028905 0.000000 0.000000
# 5 0.000000 0.000000 0.000000 0.000000 0.043703 0.000000
# 6 0.000000 0.000000 0.000000 0.000000 0.000000 0.093748
#
#
# Mechanical properties :
#
#
# Convention : Reuss Voigt Hill
#
# Bulk Modulus (GPa) = 42.20307 59.17784 50.69046
# Shear Modulus (GPa) = 21.45502 28.61349 25.03426
#
# Velocity S-wave (km/s) = 3.31326 3.82628 3.57897
# Velocity P-wave (km/s) = 6.01918 7.05688 6.55858
#
# Compressibility (1/GPa) = 0.02369496
#
# Stress axis : x y z
#
# Youngs Moduli (GPa) = 62.84371 56.28204 132.22148
#
# Poissons Ratio (x) = 0.04976 0.32248
# Poissons Ratio (y) = 0.05557 0.72074
# Poissons Ratio (z) = 0.15327 0.30679
#
# Static dielectric constant tensor:
#      x y z
#    x 1.705330 0.000000 0.000000 
#    y 0.000000 1.702070 0.000000 
#    z 0.000000 0.000000 2.007630 
# 
# From -- ./inp_files/11092.got.cif
#   From: 2010.05.17/outbox.cif.g08.bks.cpg/sg71_6_cif.got.tgz:11092.got - 2010.06.03 16:22:01.
