data_PCOD9523981
_publ_section_title
;
Structure prediction by ZEFSAII (Michael W. Deem and Ramdas Pophale) SiO2 
 PCOD9523981
Probable space group: I M M M
;
_chemical_formula_sum "Si O2"
_cell_formula_units_Z 92
_cell_length_a 15.423499
_cell_length_b 14.595047
_cell_length_c 19.062438
_cell_angle_alpha 90.000000
_cell_angle_beta 90.000000
_cell_angle_gamma 90.000000
_cell_volume 4291.082375
_symmetry_space_group_name_H-M "I M M M"
_symmetry_group_IT_number 71
_symmetry_cell_setting 'orthorhombic'
loop_
_space_group_symop_operation_xyz
x,y,z
-x,-y,z
x,-y,-z
-x,y,-z
-x,-y,-z
x,y,-z
-x,y,z
x,-y,z
1/2+x,1/2+y,1/2+z
1/2-x,1/2-y,1/2+z
1/2+x,1/2-y,1/2-z
1/2-x,1/2+y,1/2-z
1/2-x,1/2-y,1/2-z
1/2+x,1/2+y,1/2-z
1/2-x,1/2+y,1/2+z
1/2+x,1/2-y,1/2+z
loop_
_atom_site_type_symbol
_atom_site_label
_atom_site_fract_x
_atom_site_fract_y
_atom_site_fract_z
Si Si1 0.000000 0.000000 0.292445
Si Si2 0.324723 0.208880 0.361149
Si Si3 0.362088 0.356470 0.155873
Si Si4 0.604618 0.891389 0.500000
Si Si5 0.900799 0.858888 0.500000
Si Si6 0.768329 0.598873 0.626073
Si Si7 0.406241 0.832571 0.219252
Si Si8 0.898095 0.361694 0.500000
O O1 0.077085 0.078621 0.299082
O O2 0.239062 0.158312 0.330836
O O3 0.357484 0.158413 0.430948
O O4 0.294389 0.313070 0.377501
O O5 0.392683 0.203975 0.297953
O O6 0.364773 0.388527 0.074754
O O7 0.400951 0.254908 0.167253
O O8 0.500000 0.883381 0.500000
O O9 0.626224 0.000000 0.500000
O O10 0.895169 0.748791 0.500000
O O11 0.000000 0.888006 0.500000
O O12 0.723819 0.500000 0.621277
O O13 0.825626 0.606455 0.696155
O O14 0.841766 0.605550 0.565947
O O15 0.500000 0.877087 0.211943
O O16 0.000000 0.388228 0.500000
#
# Coordination Sequence:
#
# PCOD9523981 Si02
#       8
#     4  16  16   8   8  16  16   8
#     4  12  24  37  60  96 138 171 222 274 318 409
#     4  11  24  45  68  92 129 171 215 279 332 393
#     4  11  22  38  57  94 130 176 213 261 328 391
#     4  11  26  49  75 101 125 165 222 277 333 387
#     4  11  17  32  56  79 123 166 202 241 300 380
#     4  11  23  39  62  96 130 171 215 261 321 394
#     4  11  22  43  63  88 127 172 218 269 334 386
#     4  11  20  32  57  84 121 164 204 253 304 379
#
# _framework density 21.439813000000001
#
# number of rings (size 3 to 8) (size 9 to 14) (size 15 to 20)
#    0.000    0.957    5.217    4.435    1.217    3.130 
#    4.696    0.000    0.000    2.087    0.000    0.000 
#    0.000    0.000    0.000    0.000    0.000    0.000 
#
# Total GULP energy -256338.344010 kJ/mol
# GULP energy per Si atom -5572.572696 kJ/mol
# Density = 2.139101 g / cm^3
# Si number density = 21.439813 Si / 1000 Ang^3
#
#
#
# Elastic Constant Matrix: (Units=GPa)
#
#
# Indices 1 2 3 4 5 6 
#
# 1 83.4242 29.7547 19.7840 0.0000 0.0000 0.0000
# 2 29.7547 145.8381 23.4943 0.0000 0.0000 0.0000
# 3 19.7840 23.4943 110.1672 0.0000 0.0000 0.0000
# 4 0.0000 0.0000 0.0000 -1.3516 0.0000 0.0000
# 5 0.0000 0.0000 0.0000 0.0000 -14.0339 0.0000
# 6 0.0000 0.0000 0.0000 0.0000 0.0000 10.8901
#
#
#
# Elastic Compliance Matrix: (Units=1/GPa)
#
#
# Indices 1 2 3 4 5 6 
#
# 1 0.013291 -0.002410 -0.001873 0.000000 0.000000 0.000000
# 2 -0.002410 0.007538 -0.001175 0.000000 0.000000 0.000000
# 3 -0.001873 -0.001175 0.009664 0.000000 0.000000 0.000000
# 4 0.000000 0.000000 0.000000 -0.739838 0.000000 0.000000
# 5 0.000000 0.000000 0.000000 0.000000 -0.071256 0.000000
# 6 0.000000 0.000000 0.000000 0.000000 0.000000 0.091826
#
#
# Mechanical properties :
#
#
# Convention : Reuss Voigt Hill
#
# Bulk Modulus (GPa) = 51.07910 53.94394 52.51152
# Shear Modulus (GPa) = -7.44786 16.86068 4.70641
#
# Velocity S-wave (km/s) = -1.86585 2.80736 1.48322
# Velocity P-wave (km/s) = 4.38569 5.97692 5.24204
#
# Compressibility (1/GPa) = 0.01957748
#
# Stress axis : x y z
#
# Youngs Moduli (GPa) = 75.24110 132.66379 103.47723
#
# Poissons Ratio (x) = 0.31971 0.19379
# Poissons Ratio (y) = 0.18132 0.12156
# Poissons Ratio (z) = 0.14091 0.15585
#
# Static dielectric constant tensor:
#      x y z
#    x 1.771390 0.000000 0.000000 
#    y 0.000000 1.804030 0.000000 
#    z 0.000000 0.000000 1.990200 
# 
# From -- ./inp_files/53051.got.cif
#   From: 2010.05.17/outbox.cif.g08.bks.cpg/sg71_27_cif.got.tgz:53051.got - 2010.06.03 16:22:01.
