data_PCOD9523093
_publ_section_title
;
Structure prediction by ZEFSAII (Michael W. Deem and Ramdas Pophale) SiO2 
 PCOD9523093
Probable space group: I M M M
;
_chemical_formula_sum "Si O2"
_cell_formula_units_Z 88
_cell_length_a 8.605944
_cell_length_b 27.758123
_cell_length_c 19.782268
_cell_angle_alpha 90.000000
_cell_angle_beta 90.000000
_cell_angle_gamma 90.000000
_cell_volume 4725.684165
_symmetry_space_group_name_H-M "I M M M"
_symmetry_group_IT_number 71
_symmetry_cell_setting 'orthorhombic'
loop_
_space_group_symop_operation_xyz
x,y,z
-x,-y,z
x,-y,-z
-x,y,-z
-x,-y,-z
x,y,-z
-x,y,z
x,-y,z
1/2+x,1/2+y,1/2+z
1/2-x,1/2-y,1/2+z
1/2+x,1/2-y,1/2-z
1/2-x,1/2+y,1/2-z
1/2-x,1/2-y,1/2-z
1/2+x,1/2+y,1/2-z
1/2-x,1/2+y,1/2+z
1/2+x,1/2-y,1/2+z
loop_
_atom_site_type_symbol
_atom_site_label
_atom_site_fract_x
_atom_site_fract_y
_atom_site_fract_z
Si Si1 0.688040 0.881593 0.299596
Si Si2 0.814730 0.903740 0.849059
Si Si3 0.313139 0.000000 0.079348
Si Si4 0.310828 0.055903 0.574058
Si Si5 0.313933 0.229588 0.679814
Si Si6 0.186076 0.691946 0.578895
O O1 0.500000 0.884711 0.293523
O O2 0.758261 0.897227 0.228107
O O3 0.742487 0.914930 0.361151
O O4 0.726578 0.826774 0.319428
O O5 0.747429 0.951993 0.883419
O O6 0.757291 0.856355 0.888938
O O7 0.000000 0.905892 0.850920
O O8 0.500000 0.000000 0.081834
O O9 0.266104 0.000000 0.000000
O O10 0.260661 0.074222 0.500000
O O11 0.500000 0.057722 0.574495
O O12 0.266806 0.000000 0.579281
O O13 0.500000 0.233953 0.678067
O O14 0.250000 0.250000 0.750000
O O15 0.244450 0.261630 0.619906
O O16 0.227071 0.695194 0.500000
O O17 0.000000 0.688824 0.585200
#
# Coordination Sequence:
#
# PCOD9523093 Si02
#       6
#    16  16   8  16  16  16
#     4  10  21  36  59  89 121 160 203 248 300 363
#     4  12  25  40  62  92 125 160 200 250 305 366
#     4  11  25  45  67  89 120 161 202 249 303 362
#     4   8  15  30  54  85 117 149 191 242 291 344
#     4  11  22  37  59  86 121 160 202 251 302 359
#     4  11  24  42  64  89 120 160 207 255 307 368
#
# _framework density 18.621642999999999
#
# number of rings (size 3 to 8) (size 9 to 14) (size 15 to 20)
#    0.000    1.545    1.818    4.091    1.273    5.818 
#    0.000    1.818    0.000    0.545    0.000    1.273 
#    0.000    0.000    0.000    0.000    0.000    0.000 
#
# Total GULP energy -245827.087292 kJ/mol
# GULP energy per Si atom -5586.979257 kJ/mol
# Density = 1.857926 g / cm^3
# Si number density = 18.621643 Si / 1000 Ang^3
#
#
#
# Elastic Constant Matrix: (Units=GPa)
#
#
# Indices 1 2 3 4 5 6 
#
# 1 52.6600 53.1567 63.9575 0.0000 0.0000 0.0000
# 2 53.1567 146.9586 125.0372 0.0000 0.0000 0.0000
# 3 63.9575 125.0372 221.9088 0.0000 0.0000 0.0000
# 4 0.0000 0.0000 0.0000 40.9906 0.0000 0.0000
# 5 0.0000 0.0000 0.0000 0.0000 20.0411 0.0000
# 6 0.0000 0.0000 0.0000 0.0000 0.0000 28.0056
#
#
#
# Elastic Compliance Matrix: (Units=1/GPa)
#
#
# Indices 1 2 3 4 5 6 
#
# 1 0.032899 -0.007362 -0.005334 0.000000 0.000000 0.000000
# 2 -0.007362 0.014718 -0.006171 0.000000 0.000000 0.000000
# 3 -0.005334 -0.006171 0.009521 0.000000 0.000000 0.000000
# 4 0.000000 0.000000 0.000000 0.024396 0.000000 0.000000
# 5 0.000000 0.000000 0.000000 0.000000 0.049897 0.000000
# 6 0.000000 0.000000 0.000000 0.000000 0.000000 0.035707
#
#
# Mechanical properties :
#
#
# Convention : Reuss Voigt Hill
#
# Bulk Modulus (GPa) = 51.53501 100.64780 76.09141
# Shear Modulus (GPa) = 23.65839 29.76587 26.71213
#
# Velocity S-wave (km/s) = 3.56824 4.00241 3.79154
# Velocity P-wave (km/s) = 6.68665 8.69052 7.75360
#
# Compressibility (1/GPa) = 0.01940429
#
# Stress axis : x y z
#
# Youngs Moduli (GPa) = 30.39584 67.94236 105.02991
#
# Poissons Ratio (x) = 0.50017 0.56023
# Poissons Ratio (y) = 0.22377 0.64819
# Poissons Ratio (z) = 0.16213 0.41931
#
# Static dielectric constant tensor:
#      x y z
#    x 1.635180 0.000000 0.000000 
#    y 0.000000 1.518100 0.000000 
#    z 0.000000 0.000000 1.622870 
# 
# From -- ./inp_files/50815.got.cif
#   From: 2010.05.17/outbox.cif.g08.bks.cpg/sg71_26_cif.got.tgz:50815.got - 2010.06.03 16:22:01.
