data_PCOD9523725
_publ_section_title
;
Structure prediction by ZEFSAII (Michael W. Deem and Ramdas Pophale) SiO2 
 PCOD9523725
Probable space group: I M M M
;
_chemical_formula_sum "Si O2"
_cell_formula_units_Z 104
_cell_length_a 28.837781
_cell_length_b 9.664621
_cell_length_c 19.934046
_cell_angle_alpha 90.000000
_cell_angle_beta 90.000000
_cell_angle_gamma 90.000000
_cell_volume 5555.742687
_symmetry_space_group_name_H-M "I M M M"
_symmetry_group_IT_number 71
_symmetry_cell_setting 'orthorhombic'
loop_
_space_group_symop_operation_xyz
x,y,z
-x,-y,z
x,-y,-z
-x,y,-z
-x,-y,-z
x,y,-z
-x,y,z
x,-y,z
1/2+x,1/2+y,1/2+z
1/2-x,1/2-y,1/2+z
1/2+x,1/2-y,1/2-z
1/2-x,1/2+y,1/2-z
1/2-x,1/2-y,1/2-z
1/2+x,1/2+y,1/2-z
1/2-x,1/2+y,1/2+z
1/2+x,1/2-y,1/2+z
loop_
_atom_site_type_symbol
_atom_site_label
_atom_site_fract_x
_atom_site_fract_y
_atom_site_fract_z
Si Si1 0.698065 0.743235 0.578143
Si Si2 0.444756 0.155465 0.500000
Si Si3 0.792465 0.658328 0.777976
Si Si4 0.302787 0.154427 0.922348
Si Si5 0.854787 0.167037 0.315006
Si Si6 0.947916 0.166104 0.259791
Si Si7 0.404134 0.342368 0.614775
O O1 0.692953 0.791164 0.500000
O O2 0.704784 0.845116 0.641364
O O3 0.746737 0.661399 0.580594
O O4 0.650985 0.664915 0.599441
O O5 0.500000 0.152301 0.500000
O O6 0.427006 0.236595 0.564111
O O7 0.426249 0.000000 0.500000
O O8 0.789713 0.500000 0.753795
O O9 0.750000 0.750000 0.750000
O O10 0.834842 0.745073 0.747350
O O11 0.326260 0.271812 0.877291
O O12 0.317478 0.000000 0.901224
O O13 0.315379 0.174398 0.000000
O O14 0.909644 0.199612 0.316182
O O15 0.848282 0.000000 0.307084
O O16 0.923372 0.194673 0.188368
O O17 0.000000 0.224348 0.265042
O O18 0.952013 0.000000 0.261967
O O19 0.419033 0.500000 0.601422
#
# Coordination Sequence:
#
# PCOD9523725 Si02
#       7
#    16   8  16  16  16  16  16
#     4  11  23  38  58  91 125 163 203 249 302 354
#     4  11  25  41  53  73 111 155 203 263 322 359
#     4  12  25  40  61  87 121 162 207 254 303 360
#     4  10  22  39  61  89 124 162 198 241 300 368
#     4  11  22  38  62  90 120 157 202 252 305 362
#     4   9  19  36  59  88 118 148 192 252 308 359
#     4  11  21  37  61  85 111 151 206 253 298 360
#
# _framework density 18.719370000000001
#
# number of rings (size 3 to 8) (size 9 to 14) (size 15 to 20)
#    0.000    1.308    3.846    2.077    0.000    4.308 
#    0.000    1.538    0.000    3.231    0.000    3.231 
#    0.000    0.000    0.000    0.000    0.000    0.000 
#
# Total GULP energy -289719.737479 kJ/mol
# GULP energy per Si atom -5571.533413 kJ/mol
# Density = 1.867676 g / cm^3
# Si number density = 18.719370 Si / 1000 Ang^3
#
#
#
# Elastic Constant Matrix: (Units=GPa)
#
#
# Indices 1 2 3 4 5 6 
#
# 1 131.5624 40.7406 31.0764 0.0000 0.0000 0.0000
# 2 40.7406 119.1924 39.7770 0.0000 0.0000 0.0000
# 3 31.0764 39.7770 90.1770 0.0000 0.0000 0.0000
# 4 0.0000 0.0000 0.0000 20.4113 0.0000 0.0000
# 5 0.0000 0.0000 0.0000 0.0000 32.8461 0.0000
# 6 0.0000 0.0000 0.0000 0.0000 0.0000 6.7198
#
#
#
# Elastic Compliance Matrix: (Units=1/GPa)
#
#
# Indices 1 2 3 4 5 6 
#
# 1 0.008798 -0.002340 -0.002000 0.000000 0.000000 0.000000
# 2 -0.002340 0.010460 -0.003808 0.000000 0.000000 0.000000
# 3 -0.002000 -0.003808 0.013458 0.000000 0.000000 0.000000
# 4 0.000000 0.000000 0.000000 0.048992 0.000000 0.000000
# 5 0.000000 0.000000 0.000000 0.000000 0.030445 0.000000
# 6 0.000000 0.000000 0.000000 0.000000 0.000000 0.148813
#
#
# Mechanical properties :
#
#
# Convention : Reuss Voigt Hill
#
# Bulk Modulus (GPa) = 60.89534 62.67997 61.78766
# Shear Modulus (GPa) = 17.68437 27.28463 22.48450
#
# Velocity S-wave (km/s) = 3.07695 3.82194 3.46950
# Velocity P-wave (km/s) = 6.72494 7.28238 7.00920
#
# Compressibility (1/GPa) = 0.01642162
#
# Stress axis : x y z
#
# Youngs Moduli (GPa) = 113.66368 95.60002 74.30506
#
# Poissons Ratio (x) = 0.22368 0.14860
# Poissons Ratio (y) = 0.26595 0.28293
# Poissons Ratio (z) = 0.22731 0.36401
#
# Static dielectric constant tensor:
#      x y z
#    x 1.692320 0.000000 0.000000 
#    y 0.000000 1.643290 0.000000 
#    z 0.000000 0.000000 1.691310 
# 
# From -- ./inp_files/56278.got.cif
#   From: 2010.05.17/outbox.cif.g08.bks.cpg/sg71_29_cif.got.tgz:56278.got - 2010.06.03 16:22:01.
