data_PCOD9523428
_publ_section_title
;
Structure prediction by ZEFSAII (Michael W. Deem and Ramdas Pophale) SiO2 
 PCOD9523428
Probable space group: I M M M
;
_chemical_formula_sum "Si O2"
_cell_formula_units_Z 104
_cell_length_a 28.042068
_cell_length_b 8.568306
_cell_length_c 22.715668
_cell_angle_alpha 90.000000
_cell_angle_beta 90.000000
_cell_angle_gamma 90.000000
_cell_volume 5457.962140
_symmetry_space_group_name_H-M "I M M M"
_symmetry_group_IT_number 71
_symmetry_cell_setting 'orthorhombic'
loop_
_space_group_symop_operation_xyz
x,y,z
-x,-y,z
x,-y,-z
-x,y,-z
-x,-y,-z
x,y,-z
-x,y,z
x,-y,z
1/2+x,1/2+y,1/2+z
1/2-x,1/2-y,1/2+z
1/2+x,1/2-y,1/2-z
1/2-x,1/2+y,1/2-z
1/2-x,1/2-y,1/2-z
1/2+x,1/2+y,1/2-z
1/2-x,1/2+y,1/2+z
1/2+x,1/2-y,1/2+z
loop_
_atom_site_type_symbol
_atom_site_label
_atom_site_fract_x
_atom_site_fract_y
_atom_site_fract_z
Si Si1 0.182040 0.309500 0.500000
Si Si2 0.575528 0.314156 0.663149
Si Si3 0.000000 0.312870 0.930578
Si Si4 0.946604 0.811841 0.702887
Si Si5 0.672684 0.183916 0.379699
Si Si6 0.639303 0.187278 0.874749
Si Si7 0.238083 0.686966 0.686256
Si Si8 0.294626 0.687553 0.500000
O O1 0.182820 0.500000 0.500000
O O2 0.154551 0.259385 0.559455
O O3 0.238285 0.262900 0.500000
O O4 0.568237 0.500000 0.661161
O O5 0.544903 0.242708 0.609328
O O6 0.561313 0.259481 0.729067
O O7 0.630560 0.271052 0.654124
O O8 0.000000 0.500000 0.932105
O O9 0.000000 0.259738 0.000000
O O10 0.907253 0.753452 0.656980
O O11 0.000000 0.764355 0.685195
O O12 0.944252 0.000000 0.703975
O O13 0.724025 0.228206 0.354475
O O14 0.676690 0.246931 0.445123
O O15 0.664256 0.000000 0.376791
O O16 0.684643 0.223705 0.833554
O O17 0.634498 0.000000 0.877555
O O18 0.244278 0.500000 0.682075
O O19 0.250000 0.750000 0.750000
O O20 0.294453 0.500000 0.500000
#
# Coordination Sequence:
#
# PCOD9523428 Si02
#       8
#     8  16   8  16  16  16  16   8
#     4   9  18  39  64  88 122 161 208 257 306 377
#     4  11  23  43  67  89 120 168 217 257 312 379
#     4  11  25  43  63  91 127 160 203 268 326 372
#     4  10  22  42  64  90 122 158 206 263 317 374
#     4  12  25  39  58  91 127 158 202 255 304 365
#     4  10  21  38  63  91 119 160 208 257 315 378
#     4  11  22  38  59  87 123 163 204 250 310 372
#     4  11  21  41  65  85 119 169 210 251 307 372
#
# _framework density 19.054729999999999
#
# number of rings (size 3 to 8) (size 9 to 14) (size 15 to 20)
#    0.000    1.308    2.308    3.692    1.077    5.846 
#    0.000    0.769    0.000    2.308    0.000    0.000 
#    0.000    0.000    0.000    0.000    0.000    0.000 
#
# Total GULP energy -290388.059077 kJ/mol
# GULP energy per Si atom -5584.385751 kJ/mol
# Density = 1.901136 g / cm^3
# Si number density = 19.054730 Si / 1000 Ang^3
#
#
#
# Elastic Constant Matrix: (Units=GPa)
#
#
# Indices 1 2 3 4 5 6 
#
# 1 114.5370 18.5257 35.4807 0.0000 0.0000 0.0000
# 2 18.5257 32.2658 20.7327 0.0000 0.0000 0.0000
# 3 35.4807 20.7327 93.7166 0.0000 0.0000 0.0000
# 4 0.0000 0.0000 0.0000 28.9894 0.0000 0.0000
# 5 0.0000 0.0000 0.0000 0.0000 38.4126 0.0000
# 6 0.0000 0.0000 0.0000 0.0000 0.0000 33.7024
#
#
#
# Elastic Compliance Matrix: (Units=1/GPa)
#
#
# Indices 1 2 3 4 5 6 
#
# 1 0.010311 -0.003977 -0.003024 0.000000 0.000000 0.000000
# 2 -0.003977 0.037662 -0.006826 0.000000 0.000000 0.000000
# 3 -0.003024 -0.006826 0.013325 0.000000 0.000000 0.000000
# 4 0.000000 0.000000 0.000000 0.034495 0.000000 0.000000
# 5 0.000000 0.000000 0.000000 0.000000 0.026033 0.000000
# 6 0.000000 0.000000 0.000000 0.000000 0.000000 0.029671
#
#
# Mechanical properties :
#
#
# Convention : Reuss Voigt Hill
#
# Bulk Modulus (GPa) = 29.72273 43.33308 36.52791
# Shear Modulus (GPa) = 26.26502 31.27291 28.76897
#
# Velocity S-wave (km/s) = 3.71671 4.05559 3.88984
# Velocity P-wave (km/s) = 5.83533 6.68739 6.27583
#
# Compressibility (1/GPa) = 0.03364428
#
# Stress axis : x y z
#
# Youngs Moduli (GPa) = 96.98609 26.55179 75.04456
#
# Poissons Ratio (x) = 0.10560 0.22692
# Poissons Ratio (y) = 0.38572 0.51227
# Poissons Ratio (z) = 0.29326 0.18125
#
# Static dielectric constant tensor:
#      x y z
#    x 1.643180 0.000000 0.000000 
#    y 0.000000 1.660200 0.000000 
#    z 0.000000 0.000000 1.616700 
# 
# From -- ./inp_files/56300.got.cif
#   From: 2010.05.17/outbox.cif.g08.bks.cpg/sg71_29_cif.got.tgz:56300.got - 2010.06.03 16:22:01.
