data_PCOD9523969
_publ_section_title
;
Structure prediction by ZEFSAII (Michael W. Deem and Ramdas Pophale) SiO2 
 PCOD9523969
Probable space group: I M M M
;
_chemical_formula_sum "Si O2"
_cell_formula_units_Z 58
_cell_length_a 8.355378
_cell_length_b 14.960159
_cell_length_c 26.140351
_cell_angle_alpha 90.000000
_cell_angle_beta 90.000000
_cell_angle_gamma 90.000000
_cell_volume 3267.485932
_symmetry_space_group_name_H-M "I M M M"
_symmetry_group_IT_number 71
_symmetry_cell_setting 'orthorhombic'
loop_
_space_group_symop_operation_xyz
x,y,z
-x,-y,z
x,-y,-z
-x,y,-z
-x,-y,-z
x,y,-z
-x,y,z
x,-y,z
1/2+x,1/2+y,1/2+z
1/2-x,1/2-y,1/2+z
1/2+x,1/2-y,1/2-z
1/2-x,1/2+y,1/2-z
1/2-x,1/2-y,1/2-z
1/2+x,1/2+y,1/2-z
1/2-x,1/2+y,1/2+z
1/2+x,1/2-y,1/2+z
loop_
_atom_site_type_symbol
_atom_site_label
_atom_site_fract_x
_atom_site_fract_y
_atom_site_fract_z
Si Si1 0.186760 0.310895 0.612860
Si Si2 0.193706 0.356748 0.500000
Si Si3 0.692910 0.500000 0.347564
Si Si4 0.687223 0.808882 0.297647
Si Si5 0.689873 0.500000 0.229787
Si Si6 0.500000 0.500000 0.500000
O O1 0.207177 0.300867 0.552250
O O2 0.244767 0.411148 0.625543
O O3 0.276012 0.242850 0.649989
O O4 0.000000 0.304174 0.625633
O O5 0.350021 0.423323 0.500000
O O6 0.000000 0.390651 0.500000
O O7 0.500000 0.500000 0.350035
O O8 0.748680 0.500000 0.288712
O O9 0.500000 0.816877 0.290614
O O10 0.750000 0.750000 0.250000
O O11 0.758109 0.908137 0.296169
O O12 0.500000 0.500000 0.232862
#
# Coordination Sequence:
#
# PCOD9523969 Si02
#       6
#    16   8   8  16   8   2
#     4  11  23  40  60  84 122 164 205 253 303 361
#     4  10  25  41  57  89 126 168 212 256 310 375
#     4  11  22  33  55  87 121 158 201 244 292 362
#     4  12  24  39  61  89 120 158 203 250 305 366
#     4  11  23  40  59  86 121 158 198 245 306 361
#     4  12  22  36  68  86 132 162 214 252 320 360
#
# _framework density 17.750648999999999
#
# number of rings (size 3 to 8) (size 9 to 14) (size 15 to 20)
#    0.000    0.828    2.759    5.172    5.793    3.310 
#    0.000    0.000    0.000    0.828    0.000    5.793 
#    0.000    0.000    0.000    0.000    0.000    0.000 
#
# Total GULP energy -161647.515927 kJ/mol
# GULP energy per Si atom -5574.052273 kJ/mol
# Density = 1.771025 g / cm^3
# Si number density = 17.750649 Si / 1000 Ang^3
#
#
#
# Elastic Constant Matrix: (Units=GPa)
#
#
# Indices 1 2 3 4 5 6 
#
# 1 85.3840 18.6803 11.5961 0.0000 0.0000 0.0000
# 2 18.6803 120.8055 52.0180 0.0000 0.0000 0.0000
# 3 11.5961 52.0180 107.8297 0.0000 0.0000 0.0000
# 4 0.0000 0.0000 0.0000 49.7313 0.0000 0.0000
# 5 0.0000 0.0000 0.0000 0.0000 24.2015 0.0000
# 6 0.0000 0.0000 0.0000 0.0000 0.0000 20.1132
#
#
#
# Elastic Compliance Matrix: (Units=1/GPa)
#
#
# Indices 1 2 3 4 5 6 
#
# 1 0.012144 -0.001660 -0.000505 0.000000 0.000000 0.000000
# 2 -0.001660 0.010675 -0.004971 0.000000 0.000000 0.000000
# 3 -0.000505 -0.004971 0.011726 0.000000 0.000000 0.000000
# 4 0.000000 0.000000 0.000000 0.020108 0.000000 0.000000
# 5 0.000000 0.000000 0.000000 0.000000 0.041320 0.000000
# 6 0.000000 0.000000 0.000000 0.000000 0.000000 0.049719
#
#
# Mechanical properties :
#
#
# Convention : Reuss Voigt Hill
#
# Bulk Modulus (GPa) = 49.32910 53.17866 51.25388
# Shear Modulus (GPa) = 29.99008 34.25752 32.12380
#
# Velocity S-wave (km/s) = 4.11484 4.39786 4.25870
# Velocity P-wave (km/s) = 7.10114 7.47074 7.28829
#
# Compressibility (1/GPa) = 0.02027201
#
# Stress axis : x y z
#
# Youngs Moduli (GPa) = 82.34772 93.67617 85.27812
#
# Poissons Ratio (x) = 0.15553 0.04306
# Poissons Ratio (y) = 0.13673 0.42393
# Poissons Ratio (z) = 0.04158 0.46568
#
# Static dielectric constant tensor:
#      x y z
#    x 1.631680 0.000000 0.000000 
#    y 0.000000 1.551220 0.000000 
#    z 0.000000 0.000000 1.666790 
# 
# From -- ./inp_files/31166.got.cif
#   From: 2010.05.17/outbox.cif.g08.bks.cpg/sg71_16_cif.got.tgz:31166.got - 2010.06.03 16:22:01.
