data_PCOD9523114
_publ_section_title
;
Structure prediction by ZEFSAII (Michael W. Deem and Ramdas Pophale) SiO2 
 PCOD9523114
Probable space group: I M M M
;
_chemical_formula_sum "Si O2"
_cell_formula_units_Z 88
_cell_length_a 8.352582
_cell_length_b 19.821101
_cell_length_c 28.528480
_cell_angle_alpha 90.000000
_cell_angle_beta 90.000000
_cell_angle_gamma 90.000000
_cell_volume 4723.100160
_symmetry_space_group_name_H-M "I M M M"
_symmetry_group_IT_number 71
_symmetry_cell_setting 'orthorhombic'
loop_
_space_group_symop_operation_xyz
x,y,z
-x,-y,z
x,-y,-z
-x,y,-z
-x,-y,-z
x,y,-z
-x,y,z
x,-y,z
1/2+x,1/2+y,1/2+z
1/2-x,1/2-y,1/2+z
1/2+x,1/2-y,1/2-z
1/2-x,1/2+y,1/2-z
1/2-x,1/2-y,1/2-z
1/2+x,1/2+y,1/2-z
1/2-x,1/2+y,1/2+z
1/2+x,1/2-y,1/2+z
loop_
_atom_site_type_symbol
_atom_site_label
_atom_site_fract_x
_atom_site_fract_y
_atom_site_fract_z
Si Si1 0.184235 0.918142 0.783325
Si Si2 0.306239 0.800632 0.053872
Si Si3 0.693743 0.577993 0.819374
Si Si4 0.191805 0.339744 0.908519
Si Si5 0.804702 0.422630 0.000000
Si Si6 0.191235 0.576477 0.616043
O O1 0.249508 0.897921 0.732290
O O2 0.273461 0.899745 0.830918
O O3 0.000000 0.895857 0.787521
O O4 0.184355 0.000000 0.781427
O O5 0.500000 0.801745 0.053345
O O6 0.251903 0.735776 0.083021
O O7 0.248390 0.869122 0.078787
O O8 0.250666 0.795038 0.000000
O O9 0.500000 0.577113 0.817529
O O10 0.746304 0.500000 0.827156
O O11 0.748783 0.625397 0.861178
O O12 0.247825 0.383762 0.953331
O O13 0.000000 0.339820 0.908481
O O14 0.751239 0.500000 0.000000
O O15 0.000000 0.422675 0.000000
O O16 0.255642 0.500000 0.610279
O O17 0.000000 0.572694 0.610642
#
# Coordination Sequence:
#
# PCOD9523114 Si02
#       6
#    16  16  16  16   8  16
#     4   8  15  30  52  77 106 138 168 206 259 311
#     4  10  21  37  55  74 103 141 174 211 263 317
#     4   9  18  33  53  78 108 140 175 214 257 308
#     4  11  21  34  52  75 105 140 177 217 260 307
#     4   9  18  32  49  71 100 131 166 212 259 297
#     4   9  18  33  55  82 106 130 168 216 261 311
#
# _framework density 18.631830999999998
#
# number of rings (size 3 to 8) (size 9 to 14) (size 15 to 20)
#    0.000    2.636    0.909    2.182    0.000    2.909 
#    0.000    4.545    0.000    2.182    0.000    3.818 
#    0.000    0.000    0.000    0.000    0.000    0.000 
#
# Total GULP energy -245309.774491 kJ/mol
# GULP energy per Si atom -5575.222148 kJ/mol
# Density = 1.858942 g / cm^3
# Si number density = 18.631831 Si / 1000 Ang^3
#
#
#
# Elastic Constant Matrix: (Units=GPa)
#
#
# Indices 1 2 3 4 5 6 
#
# 1 8.4331 11.8734 9.1224 0.0000 0.0000 0.0000
# 2 11.8734 106.3248 60.2195 0.0000 0.0000 0.0000
# 3 9.1224 60.2195 95.8303 0.0000 0.0000 0.0000
# 4 0.0000 0.0000 0.0000 -22.7726 0.0000 0.0000
# 5 0.0000 0.0000 0.0000 0.0000 19.6750 0.0000
# 6 0.0000 0.0000 0.0000 0.0000 0.0000 15.5644
#
#
#
# Elastic Compliance Matrix: (Units=1/GPa)
#
#
# Indices 1 2 3 4 5 6 
#
# 1 0.142571 -0.012784 -0.005538 0.000000 0.000000 0.000000
# 2 -0.012784 0.015749 -0.008679 0.000000 0.000000 0.000000
# 3 -0.005538 -0.008679 0.016416 0.000000 0.000000 0.000000
# 4 0.000000 0.000000 0.000000 -0.043912 0.000000 0.000000
# 5 0.000000 0.000000 0.000000 0.000000 0.050826 0.000000
# 6 0.000000 0.000000 0.000000 0.000000 0.000000 0.064249
#
#
# Mechanical properties :
#
#
# Convention : Reuss Voigt Hill
#
# Bulk Modulus (GPa) = 8.28283 41.44655 24.86469
# Shear Modulus (GPa) = 14.69956 11.11820 12.90888
#
# Velocity S-wave (km/s) = 2.81187 2.44546 2.63504
# Velocity P-wave (km/s) = 3.87264 5.50155 4.75733
#
# Compressibility (1/GPa) = 0.12073174
#
# Stress axis : x y z
#
# Youngs Moduli (GPa) = 7.01407 63.49789 60.91467
#
# Poissons Ratio (x) = 0.81178 0.33736
# Poissons Ratio (y) = 0.08967 0.52870
# Poissons Ratio (z) = 0.03885 0.55112
#
# Static dielectric constant tensor:
#      x y z
#    x 1.650660 0.000000 0.000000 
#    y 0.000000 1.631380 0.000000 
#    z 0.000000 0.000000 1.649880 
# 
# From -- ./inp_files/10453.got.cif
#   From: 2010.05.17/outbox.cif.g08.bks.cpg/sg71_6_cif.got.tgz:10453.got - 2010.06.03 16:22:01.
