data_PCOD9523496
_publ_section_title
;
Structure prediction by ZEFSAII (Michael W. Deem and Ramdas Pophale) SiO2 
 PCOD9523496
Probable space group: I M M M
;
_chemical_formula_sum "Si O2"
_cell_formula_units_Z 80
_cell_length_a 13.783635
_cell_length_b 11.899302
_cell_length_c 23.905054
_cell_angle_alpha 90.000000
_cell_angle_beta 90.000000
_cell_angle_gamma 90.000000
_cell_volume 3920.802624
_symmetry_space_group_name_H-M "I M M M"
_symmetry_group_IT_number 71
_symmetry_cell_setting 'orthorhombic'
loop_
_space_group_symop_operation_xyz
x,y,z
-x,-y,z
x,-y,-z
-x,y,-z
-x,-y,-z
x,y,-z
-x,y,z
x,-y,z
1/2+x,1/2+y,1/2+z
1/2-x,1/2-y,1/2+z
1/2+x,1/2-y,1/2-z
1/2-x,1/2+y,1/2-z
1/2-x,1/2-y,1/2-z
1/2+x,1/2+y,1/2-z
1/2-x,1/2+y,1/2+z
1/2+x,1/2-y,1/2+z
loop_
_atom_site_type_symbol
_atom_site_label
_atom_site_fract_x
_atom_site_fract_y
_atom_site_fract_z
Si Si1 0.383692 0.631786 0.660443
Si Si2 0.202417 0.274753 0.063839
Si Si3 0.385447 0.633770 0.111589
Si Si4 0.882026 0.500000 0.751919
Si Si5 0.383906 0.000000 0.617898
Si Si6 0.617676 0.245316 0.225575
O O1 0.500000 0.649309 0.653034
O O2 0.368084 0.500000 0.670230
O O3 0.330055 0.677218 0.605828
O O4 0.353446 0.702717 0.714997
O O5 0.316755 0.300500 0.069238
O O6 0.152976 0.388747 0.087044
O O7 0.174735 0.253456 0.000000
O O8 0.500000 0.654631 0.103813
O O9 0.369930 0.500000 0.107674
O O10 0.355076 0.678621 0.172955
O O11 0.851873 0.500000 0.817063
O O12 0.851465 0.384509 0.722760
O O13 0.000000 0.500000 0.752298
O O14 0.500000 0.000000 0.617874
O O15 0.500000 0.246261 0.225834
#
# Coordination Sequence:
#
# PCOD9523496 Si02
#       6
#    16  16  16   8   8  16
#     4  10  21  39  63  91 124 159 193 238 298 362
#     4  12  25  40  59  87 119 157 208 251 290 352
#     4  10  22  41  63  87 119 157 198 251 306 351
#     4   9  16  31  58  90 125 154 183 234 294 356
#     4  11  21  38  60  88 124 157 189 237 298 358
#     4   9  17  34  60  90 122 154 191 240 298 361
#
# _framework density 20.403986
#
# number of rings (size 3 to 8) (size 9 to 14) (size 15 to 20)
#    0.000    1.800    3.000    1.500    0.000    6.000 
#    1.800    2.000    0.000    0.000    0.000    1.400 
#    0.000    0.000    0.000    0.000    0.000    0.000 
#
# Total GULP energy -223712.866469 kJ/mol
# GULP energy per Si atom -5592.821662 kJ/mol
# Density = 2.035755 g / cm^3
# Si number density = 20.403986 Si / 1000 Ang^3
#
#
#
# Elastic Constant Matrix: (Units=GPa)
#
#
# Indices 1 2 3 4 5 6 
#
# 1 70.4578 13.6513 -10.6655 0.0000 0.0000 0.0000
# 2 13.6513 82.4283 -2.9752 0.0000 0.0000 0.0000
# 3 -10.6655 -2.9752 35.3133 0.0000 0.0000 0.0000
# 4 0.0000 0.0000 0.0000 10.4080 0.0000 0.0000
# 5 0.0000 0.0000 0.0000 0.0000 30.0102 0.0000
# 6 0.0000 0.0000 0.0000 0.0000 0.0000 27.5547
#
#
#
# Elastic Compliance Matrix: (Units=1/GPa)
#
#
# Indices 1 2 3 4 5 6 
#
# 1 0.015324 -0.002378 0.004428 0.000000 0.000000 0.000000
# 2 -0.002378 0.012538 0.000338 0.000000 0.000000 0.000000
# 3 0.004428 0.000338 0.029684 0.000000 0.000000 0.000000
# 4 0.000000 0.000000 0.000000 0.096080 0.000000 0.000000
# 5 0.000000 0.000000 0.000000 0.000000 0.033322 0.000000
# 6 0.000000 0.000000 0.000000 0.000000 0.000000 0.036291
#
#
# Mechanical properties :
#
#
# Convention : Reuss Voigt Hill
#
# Bulk Modulus (GPa) = 16.04591 20.91342 18.47966
# Shear Modulus (GPa) = 20.89979 26.14049 23.52014
#
# Velocity S-wave (km/s) = 3.20394 3.58319 3.39886
# Velocity P-wave (km/s) = 4.64415 5.23364 4.94768
#
# Compressibility (1/GPa) = 0.06232118
#
# Stress axis : x y z
#
# Youngs Moduli (GPa) = 65.25756 79.75883 33.68851
#
# Poissons Ratio (x) = 0.18967 -0.14917
# Poissons Ratio (y) = 0.15518 -0.01139
# Poissons Ratio (z) = -0.28895 -0.02697
#
# Static dielectric constant tensor:
#      x y z
#    x 1.791880 0.000000 0.000000 
#    y 0.000000 1.685750 0.000000 
#    z 0.000000 0.000000 1.683350 
# 
# From -- ./inp_files/32684.got.cif
#   From: 2010.05.17/outbox.cif.g08.bks.cpg/sg71_17_cif.got.tgz:32684.got - 2010.06.03 16:22:01.
