data_PCOD9523169
_publ_section_title
;
Structure prediction by ZEFSAII (Michael W. Deem and Ramdas Pophale) SiO2 
 PCOD9523169
Probable space group: I M M M
;
_chemical_formula_sum "Si O2"
_cell_formula_units_Z 72
_cell_length_a 15.426035
_cell_length_b 29.519004
_cell_length_c 8.645049
_cell_angle_alpha 90.000000
_cell_angle_beta 90.000000
_cell_angle_gamma 90.000000
_cell_volume 3936.619790
_symmetry_space_group_name_H-M "I M M M"
_symmetry_group_IT_number 71
_symmetry_cell_setting 'orthorhombic'
loop_
_space_group_symop_operation_xyz
x,y,z
-x,-y,z
x,-y,-z
-x,y,-z
-x,-y,-z
x,y,-z
-x,y,z
x,-y,z
1/2+x,1/2+y,1/2+z
1/2-x,1/2-y,1/2+z
1/2+x,1/2-y,1/2-z
1/2-x,1/2+y,1/2-z
1/2-x,1/2-y,1/2-z
1/2+x,1/2+y,1/2-z
1/2-x,1/2+y,1/2+z
1/2+x,1/2-y,1/2+z
loop_
_atom_site_type_symbol
_atom_site_label
_atom_site_fract_x
_atom_site_fract_y
_atom_site_fract_z
Si Si1 0.398786 0.290809 0.818643
Si Si2 0.237611 0.139620 0.182707
Si Si3 0.500000 0.945098 0.675465
Si Si4 0.690895 0.052388 0.312343
Si Si5 0.600124 0.808176 0.316454
O O1 0.500000 0.303027 0.800369
O O2 0.336572 0.330320 0.761398
O O3 0.384181 0.244520 0.724249
O O4 0.382774 0.281436 0.000000
O O5 0.242758 0.088616 0.246713
O O6 0.328832 0.162813 0.228094
O O7 0.225965 0.139829 0.000000
O O8 0.500000 0.926379 0.500000
O O9 0.593498 0.934351 0.745013
O O10 0.500000 0.000000 0.663806
O O11 0.688881 0.054635 0.500000
O O12 0.707339 0.000000 0.270501
O O13 0.609871 0.815389 0.500000
O O14 0.500000 0.818672 0.274073
#
# Coordination Sequence:
#
# PCOD9523169 Si02
#       5
#    16  16   8  16  16
#     4  10  21  39  61  82 106 138 181 231 278 325
#     4  12  24  35  53  81 115 149 182 222 269 327
#     4   7  12  26  49  73  97 131 173 215 259 307
#     4   9  18  34  55  78 106 142 185 228 270 318
#     4  10  21  37  57  81 112 148 184 223 268 320
#
# _framework density 18.289802999999999
#
# number of rings (size 3 to 8) (size 9 to 14) (size 15 to 20)
#    0.000    2.111    0.000    5.333    1.556    3.111 
#    0.000    0.000    0.000    2.667    0.000    4.667 
#    0.000    0.000    0.000    0.000    0.000    0.000 
#
# Total GULP energy -201024.756913 kJ/mol
# GULP energy per Si atom -5584.021025 kJ/mol
# Density = 1.824817 g / cm^3
# Si number density = 18.289803 Si / 1000 Ang^3
#
#
#
# Elastic Constant Matrix: (Units=GPa)
#
#
# Indices 1 2 3 4 5 6 
#
# 1 31.4058 33.3682 8.8163 -0.0002 0.0005 0.0001
# 2 33.3682 73.3902 4.3968 -0.0004 0.0009 0.0002
# 3 8.8163 4.3968 30.8801 -0.0040 0.0022 0.0008
# 4 -0.0002 -0.0004 -0.0040 26.6481 0.0003 0.0005
# 5 0.0005 0.0009 0.0022 0.0003 18.4220 0.0000
# 6 0.0001 0.0002 0.0008 0.0005 0.0000 29.1355
#
#
#
# Elastic Compliance Matrix: (Units=1/GPa)
#
#
# Indices 1 2 3 4 5 6 
#
# 1 0.067951 -0.029989 -0.015130 -0.000002 0.000001 0.000000
# 2 -0.029989 0.026978 0.004721 0.000001 -0.000001 0.000000
# 3 -0.015130 0.004721 0.036031 0.000005 -0.000004 -0.000001
# 4 -0.000002 0.000001 0.000005 0.037526 -0.000001 -0.000001
# 5 0.000001 -0.000001 -0.000004 -0.000001 0.054283 0.000000
# 6 0.000000 0.000000 -0.000001 -0.000001 0.000000 0.034322
#
#
# Mechanical properties :
#
#
# Convention : Reuss Voigt Hill
#
# Bulk Modulus (GPa) = 19.93490 25.42651 22.68071
# Shear Modulus (GPa) = 14.10002 20.78079 17.44041
#
# Velocity S-wave (km/s) = 2.77956 3.37441 3.09133
# Velocity P-wave (km/s) = 4.60700 5.39577 5.01691
#
# Compressibility (1/GPa) = 0.05016327
#
# Stress axis : x y z
#
# Youngs Moduli (GPa) = 14.71641 37.06732 27.75399
#
# Poissons Ratio (x) = 1.11161 0.41992
# Poissons Ratio (y) = 0.44133 -0.13102
# Poissons Ratio (z) = 0.22266 -0.17498
#
# Static dielectric constant tensor:
#      x y z
#    x 1.629200 0.000000 0.000000 
#    y 0.000000 1.635440 0.000000 
#    z 0.000000 0.000000 1.615070 
# 
# From -- ./inp_files/6057.got.cif
#   From: 2010.05.17/outbox.cif.g08.bks.cpg/sg71_4_cif.got.tgz:6057.got - 2010.06.03 16:22:01.
