data_PCOD9523473
_publ_section_title
;
Structure prediction by ZEFSAII (Michael W. Deem and Ramdas Pophale) SiO2 
 PCOD9523473
Probable space group: I M M M
;
_chemical_formula_sum "Si O2"
_cell_formula_units_Z 90
_cell_length_a 7.795050
_cell_length_b 30.714530
_cell_length_c 19.390273
_cell_angle_alpha 90.000000
_cell_angle_beta 90.000000
_cell_angle_gamma 90.000000
_cell_volume 4642.444312
_symmetry_space_group_name_H-M "I M M M"
_symmetry_group_IT_number 71
_symmetry_cell_setting 'orthorhombic'
loop_
_space_group_symop_operation_xyz
x,y,z
-x,-y,z
x,-y,-z
-x,y,-z
-x,-y,-z
x,y,-z
-x,y,z
x,-y,z
1/2+x,1/2+y,1/2+z
1/2-x,1/2-y,1/2+z
1/2+x,1/2-y,1/2-z
1/2-x,1/2+y,1/2-z
1/2-x,1/2-y,1/2-z
1/2+x,1/2+y,1/2-z
1/2-x,1/2+y,1/2+z
1/2+x,1/2-y,1/2+z
loop_
_atom_site_type_symbol
_atom_site_label
_atom_site_fract_x
_atom_site_fract_y
_atom_site_fract_z
Si Si1 0.800752 0.388504 0.172803
Si Si2 0.798495 0.367457 0.334573
Si Si3 0.293241 0.807013 0.421651
Si Si4 0.500000 0.453107 0.857569
Si Si5 0.209197 0.451095 0.419060
Si Si6 0.500000 0.500000 0.000000
Si Si7 0.202034 0.271308 0.323676
O O1 0.792836 0.375950 0.252885
O O2 0.743413 0.348043 0.125416
O O3 0.670749 0.427329 0.160565
O O4 0.000000 0.398916 0.156296
O O5 0.727512 0.409500 0.375311
O O6 0.721609 0.318873 0.341820
O O7 0.000000 0.365411 0.355595
O O8 0.229314 0.809896 0.500000
O O9 0.500000 0.807410 0.423417
O O10 0.239416 0.763274 0.383092
O O11 0.500000 0.500000 0.821463
O O12 0.500000 0.463122 0.938784
O O13 0.251840 0.445769 0.500000
O O14 0.266133 0.500000 0.397311
O O15 0.000000 0.451640 0.414134
O O16 0.250000 0.250000 0.250000
O O17 0.000000 0.278312 0.318126
#
# Coordination Sequence:
#
# PCOD9523473 Si02
#       7
#    16  16  16   8  16   2  16
#     4  10  21  39  62  88 117 157 200 248 305 356
#     4   9  18  32  53  82 115 149 196 244 291 353
#     4  10  22  38  56  82 115 153 201 249 292 357
#     4  10  24  42  60  88 121 152 200 249 301 356
#     4   8  14  26  46  74 109 147 183 229 289 347
#     4   8  24  48  58  88 128 158 186 272 290 356
#     4  11  21  35  55  81 115 153 190 240 299 355
#
# _framework density 19.386339
#
# number of rings (size 3 to 8) (size 9 to 14) (size 15 to 20)
#    0.267    2.133    1.778    1.067    2.489    2.133 
#    1.600    4.000    0.000    0.000    0.000    0.000 
#    0.000    2.133    0.000    0.178    0.000    0.000 
#
# Total GULP energy -250572.222102 kJ/mol
# GULP energy per Si atom -5568.271602 kJ/mol
# Density = 1.934221 g / cm^3
# Si number density = 19.386339 Si / 1000 Ang^3
#
#
#
# Elastic Constant Matrix: (Units=GPa)
#
#
# Indices 1 2 3 4 5 6 
#
# 1 44.2005 44.3486 13.4135 0.0000 0.0000 0.0000
# 2 44.3486 217.6960 74.1951 0.0000 0.0000 0.0000
# 3 13.4135 74.1951 79.0325 0.0000 0.0000 -0.0002
# 4 0.0000 0.0000 0.0000 24.1172 0.0000 -0.0001
# 5 0.0000 0.0000 0.0000 0.0000 3.2922 0.0000
# 6 0.0000 0.0000 -0.0002 -0.0001 0.0000 -833.7923
#
#
#
# Elastic Compliance Matrix: (Units=1/GPa)
#
#
# Indices 1 2 3 4 5 6 
#
# 1 0.028480 -0.006109 0.000902 0.000000 0.000000 0.000000
# 2 -0.006109 0.008065 -0.006535 0.000000 0.000000 0.000000
# 3 0.000902 -0.006535 0.018635 0.000000 0.000000 0.000000
# 4 0.000000 0.000000 0.000000 0.041464 0.000000 0.000000
# 5 0.000000 0.000000 0.000000 0.000000 0.303752 0.000000
# 6 0.000000 0.000000 0.000000 0.000000 0.000000 -0.001199
#
#
# Mechanical properties :
#
#
# Convention : Reuss Voigt Hill
#
# Bulk Modulus (GPa) = 31.55016 67.20483 49.37749
# Shear Modulus (GPa) = 11.54076 -147.34513 -67.90218
#
# Velocity S-wave (km/s) = 2.44253 -8.72752 -5.92468
# Velocity P-wave (km/s) = 4.92589 8.17424 4.61269
#
# Compressibility (1/GPa) = 0.03169557
#
# Stress axis : x y z
#
# Youngs Moduli (GPa) = 35.11200 123.98781 53.66303
#
# Poissons Ratio (x) = 0.75747 -0.04838
# Poissons Ratio (y) = 0.21451 0.35068
# Poissons Ratio (z) = -0.03166 0.81023
#
# Static dielectric constant tensor:
#      x y z
#    x 1.714660 0.000000 0.000000 
#    y 0.000000 1.715720 0.000000 
#    z 0.000000 0.000000 1.652410 
# 
# From -- ./inp_files/50585.got.cif
#   From: 2010.05.17/outbox.cif.g08.bks.cpg/sg71_26_cif.got.tgz:50585.got - 2010.06.03 16:22:01.
