data_PCOD9523690
_publ_section_title
;
Structure prediction by ZEFSAII (Michael W. Deem and Ramdas Pophale) SiO2 
 PCOD9523690
Probable space group: I M M M
;
_chemical_formula_sum "Si O2"
_cell_formula_units_Z 116
_cell_length_a 18.234119
_cell_length_b 19.160288
_cell_length_c 15.242523
_cell_angle_alpha 90.000000
_cell_angle_beta 90.000000
_cell_angle_gamma 90.000000
_cell_volume 5325.295068
_symmetry_space_group_name_H-M "I M M M"
_symmetry_group_IT_number 71
_symmetry_cell_setting 'orthorhombic'
loop_
_space_group_symop_operation_xyz
x,y,z
-x,-y,z
x,-y,-z
-x,y,-z
-x,-y,-z
x,y,-z
-x,y,z
x,-y,z
1/2+x,1/2+y,1/2+z
1/2-x,1/2-y,1/2+z
1/2+x,1/2-y,1/2-z
1/2-x,1/2+y,1/2-z
1/2-x,1/2-y,1/2-z
1/2+x,1/2+y,1/2-z
1/2-x,1/2+y,1/2+z
1/2+x,1/2-y,1/2+z
loop_
_atom_site_type_symbol
_atom_site_label
_atom_site_fract_x
_atom_site_fract_y
_atom_site_fract_z
Si Si1 0.863679 0.422903 0.400395
Si Si2 0.771094 0.421050 0.147551
Si Si3 0.294362 0.576237 0.341907
Si Si4 0.580834 0.157828 0.606165
Si Si5 0.500000 0.500000 0.155490
Si Si6 0.413019 0.776438 0.899133
Si Si7 0.887606 0.877790 0.601333
Si Si8 0.580795 0.679094 0.606135
O O1 0.894076 0.423013 0.500000
O O2 0.881664 0.500000 0.361425
O O3 0.775714 0.418808 0.404594
O O4 0.888084 0.349881 0.357478
O O5 0.784995 0.500000 0.118971
O O6 0.743686 0.420611 0.247552
O O7 0.846323 0.379846 0.137952
O O8 0.698760 0.393613 0.099206
O O9 0.329584 0.500000 0.353429
O O10 0.353875 0.634971 0.354544
O O11 0.581134 0.153579 0.500000
O O12 0.500000 0.131925 0.635994
O O13 0.585585 0.239573 0.629495
O O14 0.435138 0.437886 0.148415
O O15 0.500000 0.779714 0.903631
O O16 0.395119 0.700494 0.860080
O O17 0.382785 0.775167 0.000000
O O18 0.914730 0.876917 0.500000
O O19 0.585110 0.674418 0.500000
O O20 0.500000 0.652967 0.632914
#
# Coordination Sequence:
#
# PCOD9523690 Si02
#       8
#    16  16  16  16   4  16  16  16
#     4   9  18  34  57  80 105 143 188 239 295 346
#     4  11  24  39  56  85 120 159 198 242 296 365
#     4  10  22  39  55  82 119 155 193 238 292 358
#     4   9  20  40  65  91 118 151 198 258 314 362
#     4  12  21  36  60  80 116 164 197 242 293 334
#     4   9  18  32  51  79 109 137 181 233 277 333
#     4  11  21  35  55  82 114 153 198 241 285 342
#     4   9  19  38  63  89 117 153 200 254 310 363
#
# _framework density 21.782830000000001
#
# number of rings (size 3 to 8) (size 9 to 14) (size 15 to 20)
#    0.000    2.207    1.379    2.276    1.931    3.034 
#    1.241    3.448    0.000    2.483    0.000    0.000 
#    0.000    0.000    0.000    0.000    0.000    0.000 
#
# Total GULP energy -323137.056224 kJ/mol
# GULP energy per Si atom -5571.328556 kJ/mol
# Density = 2.173325 g / cm^3
# Si number density = 21.782830 Si / 1000 Ang^3
#
#
#
# Elastic Constant Matrix: (Units=GPa)
#
#
# Indices 1 2 3 4 5 6 
#
# 1 154.9544 92.3295 8.9289 0.0000 0.0000 0.0000
# 2 92.3295 190.2158 13.2147 0.0000 0.0000 0.0000
# 3 8.9289 13.2147 25.6890 0.0000 0.0000 0.0000
# 4 0.0000 0.0000 0.0000 15.1637 0.0000 0.0000
# 5 0.0000 0.0000 0.0000 0.0000 2.8115 0.0000
# 6 0.0000 0.0000 0.0000 0.0000 0.0000 43.7026
#
#
#
# Elastic Compliance Matrix: (Units=1/GPa)
#
#
# Indices 1 2 3 4 5 6 
#
# 1 0.009101 -0.004353 -0.000924 0.000000 0.000000 0.000000
# 2 -0.004353 0.007534 -0.002363 0.000000 0.000000 0.000000
# 3 -0.000924 -0.002363 0.040464 0.000000 0.000000 0.000000
# 4 0.000000 0.000000 0.000000 0.065947 0.000000 0.000000
# 5 0.000000 0.000000 0.000000 0.000000 0.355683 0.000000
# 6 0.000000 0.000000 0.000000 0.000000 0.000000 0.022882
#
#
# Mechanical properties :
#
#
# Convention : Reuss Voigt Hill
#
# Bulk Modulus (GPa) = 23.91245 66.64503 45.27874
# Shear Modulus (GPa) = 9.41923 29.42798 19.42360
#
# Velocity S-wave (km/s) = 2.08172 3.67954 2.98936
# Velocity P-wave (km/s) = 4.09628 6.97952 5.72247
#
# Compressibility (1/GPa) = 0.04181921
#
# Stress axis : x y z
#
# Youngs Moduli (GPa) = 109.88302 132.72575 24.71353
#
# Poissons Ratio (x) = 0.57778 0.02283
# Poissons Ratio (y) = 0.47834 0.05839
# Poissons Ratio (z) = 0.10151 0.31359
#
# Static dielectric constant tensor:
#      x y z
#    x 1.771210 0.000000 0.000000 
#    y 0.000000 1.814080 0.000000 
#    z 0.000000 0.000000 1.832190 
# 
# From -- ./inp_files/46224.got.cif
#   From: 2010.05.17/outbox.cif.g08.bks.cpg/sg71_24_cif.got.tgz:46224.got - 2010.06.03 16:22:01.
