data_PCOD9523707
_publ_section_title
;
Structure prediction by ZEFSAII (Michael W. Deem and Ramdas Pophale) SiO2 
 PCOD9523707
Probable space group: I M M M
;
_chemical_formula_sum "Si O2"
_cell_formula_units_Z 88
_cell_length_a 21.275534
_cell_length_b 17.997548
_cell_length_c 12.575248
_cell_angle_alpha 90.000000
_cell_angle_beta 90.000000
_cell_angle_gamma 90.000000
_cell_volume 4815.156074
_symmetry_space_group_name_H-M "I M M M"
_symmetry_group_IT_number 71
_symmetry_cell_setting 'orthorhombic'
loop_
_space_group_symop_operation_xyz
x,y,z
-x,-y,z
x,-y,-z
-x,y,-z
-x,-y,-z
x,y,-z
-x,y,z
x,-y,z
1/2+x,1/2+y,1/2+z
1/2-x,1/2-y,1/2+z
1/2+x,1/2-y,1/2-z
1/2-x,1/2+y,1/2-z
1/2-x,1/2-y,1/2-z
1/2+x,1/2+y,1/2-z
1/2-x,1/2+y,1/2+z
1/2+x,1/2-y,1/2+z
loop_
_atom_site_type_symbol
_atom_site_label
_atom_site_fract_x
_atom_site_fract_y
_atom_site_fract_z
Si Si1 0.253815 0.089350 0.500000
Si Si2 0.074865 0.000000 0.628443
Si Si3 0.104147 0.409184 0.000000
Si Si4 0.769177 0.415416 0.372897
Si Si5 0.500000 0.150501 0.883057
Si Si6 0.863459 0.282102 0.624034
Si Si7 0.831070 0.125617 0.702312
Si Si8 0.500000 0.913424 0.340893
O O1 0.324997 0.118291 0.500000
O O2 0.217433 0.113348 0.394709
O O3 0.254496 0.000000 0.500000
O O4 0.110183 0.928255 0.677082
O O5 0.084571 0.000000 0.500000
O O6 0.000000 0.000000 0.647684
O O7 0.062725 0.384281 0.898701
O O8 0.108473 0.500000 0.000000
O O9 0.759305 0.412624 0.500000
O O10 0.788981 0.500000 0.345211
O O11 0.822269 0.354372 0.346625
O O12 0.706199 0.396751 0.308246
O O13 0.436862 0.198342 0.874194
O O14 0.500000 0.096755 0.783589
O O15 0.500000 0.114328 0.000000
O O16 0.848039 0.263598 0.500000
O O17 0.849522 0.211686 0.696968
O O18 0.500000 0.000000 0.366088
#
# Coordination Sequence:
#
# PCOD9523707 Si02
#       8
#     8   8   8  16   8  16  16   8
#     4  11  19  32  57  94 119 143 187 251 299 344
#     4  11  22  36  59  95 127 153 189 243 305 359
#     4   8  18  33  56  82 116 149 186 237 296 346
#     4  10  22  40  61  85 120 158 193 237 291 352
#     4  10  23  38  54  79 115 155 197 235 283 346
#     4  10  22  39  58  85 116 156 197 243 297 345
#     4  12  20  39  61  90 119 148 199 243 295 356
#     4   9  18  37  55  79 112 157 198 233 289 347
#
# _framework density 18.275628000000001
#
# number of rings (size 3 to 8) (size 9 to 14) (size 15 to 20)
#    0.000    1.727    3.636    1.091    3.818    0.909 
#    0.000    1.818    2.000    1.091    0.000    0.000 
#    0.000    0.000    0.000    0.000    0.000    0.000 
#
# Total GULP energy -245526.391675 kJ/mol
# GULP energy per Si atom -5580.145265 kJ/mol
# Density = 1.823403 g / cm^3
# Si number density = 18.275628 Si / 1000 Ang^3
#
#
#
# Elastic Constant Matrix: (Units=GPa)
#
#
# Indices 1 2 3 4 5 6 
#
# 1 146.0226 57.1406 40.4000 0.0000 0.0000 0.0000
# 2 57.1406 113.4022 30.1193 0.0000 0.0000 0.0000
# 3 40.4000 30.1193 60.0769 0.0000 0.0000 0.0000
# 4 0.0000 0.0000 0.0000 22.8062 0.0000 0.0000
# 5 0.0000 0.0000 0.0000 0.0000 26.4581 0.0000
# 6 0.0000 0.0000 0.0000 0.0000 0.0000 2.6914
#
#
#
# Elastic Compliance Matrix: (Units=1/GPa)
#
#
# Indices 1 2 3 4 5 6 
#
# 1 0.009523 -0.003573 -0.004612 0.000000 0.000000 0.000000
# 2 -0.003573 0.011514 -0.003369 0.000000 0.000000 0.000000
# 3 -0.004612 -0.003369 0.021436 0.000000 0.000000 0.000000
# 4 0.000000 0.000000 0.000000 0.043848 0.000000 0.000000
# 5 0.000000 0.000000 0.000000 0.000000 0.037796 0.000000
# 6 0.000000 0.000000 0.000000 0.000000 0.000000 0.371556
#
#
# Mechanical properties :
#
#
# Convention : Reuss Voigt Hill
#
# Bulk Modulus (GPa) = 51.64597 63.86905 57.75751
# Shear Modulus (GPa) = 9.51954 23.18059 16.35006
#
# Velocity S-wave (km/s) = 2.28477 3.56531 2.99429
# Velocity P-wave (km/s) = 5.93979 7.20917 6.60504
#
# Compressibility (1/GPa) = 0.01936259
#
# Stress axis : x y z
#
# Youngs Moduli (GPa) = 105.01384 86.85456 46.65020
#
# Poissons Ratio (x) = 0.31035 0.21516
# Poissons Ratio (y) = 0.37523 0.15718
# Poissons Ratio (z) = 0.48435 0.29265
#
# Static dielectric constant tensor:
#      x y z
#    x 1.624490 0.000000 0.000000 
#    y 0.000000 1.636040 0.000000 
#    z 0.000000 0.000000 1.640120 
# 
# From -- ./inp_files/25721.got.cif
#   From: 2010.05.17/outbox.cif.g08.bks.cpg/sg71_13_cif.got.tgz:25721.got - 2010.06.03 16:22:01.
