data_PCOD9523704
_publ_section_title
;
Structure prediction by ZEFSAII (Michael W. Deem and Ramdas Pophale) SiO2 
 PCOD9523704
Probable space group: I M M M
;
_chemical_formula_sum "Si O2"
_cell_formula_units_Z 64
_cell_length_a 17.263806
_cell_length_b 13.861024
_cell_length_c 11.614666
_cell_angle_alpha 90.000000
_cell_angle_beta 90.000000
_cell_angle_gamma 90.000000
_cell_volume 2779.320226
_symmetry_space_group_name_H-M "I M M M"
_symmetry_group_IT_number 71
_symmetry_cell_setting 'orthorhombic'
loop_
_space_group_symop_operation_xyz
x,y,z
-x,-y,z
x,-y,-z
-x,y,-z
-x,-y,-z
x,y,-z
-x,y,z
x,-y,z
1/2+x,1/2+y,1/2+z
1/2-x,1/2-y,1/2+z
1/2+x,1/2-y,1/2-z
1/2-x,1/2+y,1/2-z
1/2-x,1/2-y,1/2-z
1/2+x,1/2+y,1/2-z
1/2-x,1/2+y,1/2+z
1/2+x,1/2-y,1/2+z
loop_
_atom_site_type_symbol
_atom_site_label
_atom_site_fract_x
_atom_site_fract_y
_atom_site_fract_z
Si Si1 0.329959 0.195429 0.130102
Si Si2 0.412624 0.610657 0.847851
Si Si3 0.592488 0.884196 0.631981
Si Si4 0.332907 0.391781 0.627525
O O1 0.353391 0.307036 0.117518
O O2 0.370888 0.156564 0.247863
O O3 0.238789 0.178612 0.146428
O O4 0.348550 0.152298 0.000000
O O5 0.500000 0.632722 0.881655
O O6 0.394505 0.500000 0.879638
O O7 0.404206 0.615943 0.711352
O O8 0.618318 0.853219 0.500000
O O9 0.500000 0.865686 0.637241
O O10 0.604543 0.000000 0.635225
O O11 0.361187 0.381224 0.500000
O O12 0.299321 0.500000 0.642875
#
# Coordination Sequence:
#
# PCOD9523704 Si02
#       4
#    16  16  16  16
#     4  11  22  37  61  91 123 160 201 250 310 368
#     4  10  22  39  58  83 119 165 214 259 302 353
#     4   9  19  36  57  84 121 162 202 248 304 366
#     4   9  19  37  61  90 122 154 196 255 317 374
#
# _framework density 23.027213
#
# number of rings (size 3 to 8) (size 9 to 14) (size 15 to 20)
#    0.000    2.250    0.000    3.000    0.000    5.500 
#    0.000    6.250    0.000    1.500    0.000    0.000 
#    0.000    0.000    0.000    0.000    0.000    0.000 
#
# Total GULP energy -178294.462785 kJ/mol
# GULP energy per Si atom -5571.701962 kJ/mol
# Density = 2.297480 g / cm^3
# Si number density = 23.027213 Si / 1000 Ang^3
#
#
#
# Elastic Constant Matrix: (Units=GPa)
#
#
# Indices 1 2 3 4 5 6 
#
# 1 60.2983 39.0007 83.5976 0.0000 0.0000 0.0000
# 2 39.0007 99.2936 28.4337 0.0000 0.0000 0.0000
# 3 83.5976 28.4337 226.3277 0.0000 0.0000 0.0000
# 4 0.0000 0.0000 0.0000 5.2825 0.0000 0.0000
# 5 0.0000 0.0000 0.0000 0.0000 -24.2076 0.0000
# 6 0.0000 0.0000 0.0000 0.0000 0.0000 30.3110
#
#
#
# Elastic Compliance Matrix: (Units=1/GPa)
#
#
# Indices 1 2 3 4 5 6 
#
# 1 0.047765 -0.014221 -0.015856 0.000000 0.000000 0.000000
# 2 -0.014221 0.014681 0.003408 0.000000 0.000000 0.000000
# 3 -0.015856 0.003408 0.009847 0.000000 0.000000 0.000000
# 4 0.000000 0.000000 0.000000 0.189304 0.000000 0.000000
# 5 0.000000 0.000000 0.000000 0.000000 -0.041309 0.000000
# 6 0.000000 0.000000 0.000000 0.000000 0.000000 0.032991
#
#
# Mechanical properties :
#
#
# Convention : Reuss Voigt Hill
#
# Bulk Modulus (GPa) = 52.75489 76.44262 64.59876
# Shear Modulus (GPa) = 15.97776 17.93635 16.95705
#
# Velocity S-wave (km/s) = 2.63699 2.79394 2.71660
# Velocity P-wave (km/s) = 5.67725 6.60885 6.16068
#
# Compressibility (1/GPa) = 0.01895559
#
# Stress axis : x y z
#
# Youngs Moduli (GPa) = 20.93564 68.11612 101.55412
#
# Poissons Ratio (x) = 0.96867 1.61028
# Poissons Ratio (y) = 0.29772 -0.34613
# Poissons Ratio (z) = 0.33196 -0.23216
#
# Static dielectric constant tensor:
#      x y z
#    x 1.757000 0.000000 0.000000 
#    y 0.000000 1.926720 0.000000 
#    z 0.000000 0.000000 2.039170 
# 
# From -- ./inp_files/21232.got.cif
#   From: 2010.05.17/outbox.cif.g08.bks.cpg/sg71_11_cif.got.tgz:21232.got - 2010.06.03 16:22:01.
