data_PCOD9523773
_publ_section_title
;
Structure prediction by ZEFSAII (Michael W. Deem and Ramdas Pophale) SiO2 
 PCOD9523773
Probable space group: I M M M
;
_chemical_formula_sum "Si O2"
_cell_formula_units_Z 72
_cell_length_a 9.966346
_cell_length_b 14.103065
_cell_length_c 25.794392
_cell_angle_alpha 90.000000
_cell_angle_beta 90.000000
_cell_angle_gamma 90.000000
_cell_volume 3625.557218
_symmetry_space_group_name_H-M "I M M M"
_symmetry_group_IT_number 71
_symmetry_cell_setting 'orthorhombic'
loop_
_space_group_symop_operation_xyz
x,y,z
-x,-y,z
x,-y,-z
-x,y,-z
-x,-y,-z
x,y,-z
-x,y,z
x,-y,z
1/2+x,1/2+y,1/2+z
1/2-x,1/2-y,1/2+z
1/2+x,1/2-y,1/2-z
1/2-x,1/2+y,1/2-z
1/2-x,1/2-y,1/2-z
1/2+x,1/2+y,1/2-z
1/2-x,1/2+y,1/2+z
1/2+x,1/2-y,1/2+z
loop_
_atom_site_type_symbol
_atom_site_label
_atom_site_fract_x
_atom_site_fract_y
_atom_site_fract_z
Si Si1 0.844296 0.000000 0.380547
Si Si2 0.716539 0.000000 0.275441
Si Si3 0.139001 0.710492 0.786503
Si Si4 0.342588 0.854172 0.559790
Si Si5 0.665199 0.000000 0.847414
Si Si6 0.847370 0.834044 0.110463
O O1 0.837005 0.000000 0.317509
O O2 0.761416 0.911270 0.404432
O O3 0.000000 0.000000 0.396282
O O4 0.645250 0.902030 0.289464
O O5 0.722505 0.000000 0.212339
O O6 0.250000 0.750000 0.750000
O O7 0.148479 0.762324 0.840843
O O8 0.000000 0.738921 0.760951
O O9 0.325867 0.883088 0.500000
O O10 0.500000 0.872480 0.574246
O O11 0.321789 0.740637 0.564636
O O12 0.732856 0.089806 0.876585
O O13 0.500000 0.000000 0.846104
O O14 0.000000 0.874570 0.105537
#
# Coordination Sequence:
#
# PCOD9523773 Si02
#       6
#     8   8  16  16   8  16
#     4  12  26  39  60  95 133 168 204 250 309 372
#     4  12  24  39  57  88 126 168 206 241 296 366
#     4  11  22  37  59  85 120 162 205 252 304 363
#     4  10  22  43  69  93 121 162 210 259 312 368
#     4  12  25  40  63  92 125 167 207 253 309 371
#     4  10  22  40  62  89 121 159 204 258 309 366
#
# _framework density 19.859016
#
# number of rings (size 3 to 8) (size 9 to 14) (size 15 to 20)
#    0.000    1.111    4.444    2.000    0.000    6.222 
#    0.000    0.556    0.000    3.333    0.000    0.000 
#    0.000    0.000    0.000    0.000    0.000    0.000 
#
# Total GULP energy -200613.792783 kJ/mol
# GULP energy per Si atom -5572.605355 kJ/mol
# Density = 1.981382 g / cm^3
# Si number density = 19.859016 Si / 1000 Ang^3
#
#
#
# Elastic Constant Matrix: (Units=GPa)
#
#
# Indices 1 2 3 4 5 6 
#
# 1 153.0737 60.6128 51.9435 0.0000 0.0000 0.0000
# 2 60.6128 117.3044 18.8231 0.0000 0.0000 0.0000
# 3 51.9435 18.8231 65.5204 0.0000 0.0000 0.0000
# 4 0.0000 0.0000 0.0000 23.6457 0.0000 0.0000
# 5 0.0000 0.0000 0.0000 0.0000 19.2366 0.0000
# 6 0.0000 0.0000 0.0000 0.0000 0.0000 24.5670
#
#
#
# Elastic Compliance Matrix: (Units=1/GPa)
#
#
# Indices 1 2 3 4 5 6 
#
# 1 0.010725 -0.004379 -0.007245 0.000000 0.000000 0.000000
# 2 -0.004379 0.010725 0.000391 0.000000 0.000000 0.000000
# 3 -0.007245 0.000391 0.020894 0.000000 0.000000 0.000000
# 4 0.000000 0.000000 0.000000 0.042291 0.000000 0.000000
# 5 0.000000 0.000000 0.000000 0.000000 0.051984 0.000000
# 6 0.000000 0.000000 0.000000 0.000000 0.000000 0.040705
#
#
# Mechanical properties :
#
#
# Convention : Reuss Voigt Hill
#
# Bulk Modulus (GPa) = 50.30864 66.51748 58.41306
# Shear Modulus (GPa) = 24.22283 27.12445 25.67364
#
# Velocity S-wave (km/s) = 3.49627 3.69975 3.59945
# Velocity P-wave (km/s) = 6.45650 7.19850 6.83757
#
# Compressibility (1/GPa) = 0.01987730
#
# Stress axis : x y z
#
# Youngs Moduli (GPa) = 93.23727 93.23989 47.86142
#
# Poissons Ratio (x) = 0.40834 0.34674
# Poissons Ratio (y) = 0.40832 -0.01870
# Poissons Ratio (z) = 0.67548 -0.03644
#
# Static dielectric constant tensor:
#      x y z
#    x 1.723460 0.000000 0.000000 
#    y 0.000000 1.723850 0.000000 
#    z 0.000000 0.000000 1.735960 
# 
# From -- ./inp_files/31506.got.cif
#   From: 2010.05.17/outbox.cif.g08.bks.cpg/sg71_16_cif.got.tgz:31506.got - 2010.06.03 16:22:01.
