data_PCOD9523482
_publ_section_title
;
Structure prediction by ZEFSAII (Michael W. Deem and Ramdas Pophale) SiO2 
 PCOD9523482
Probable space group: I M M M
;
_chemical_formula_sum "Si O2"
_cell_formula_units_Z 64
_cell_length_a 15.771391
_cell_length_b 15.361493
_cell_length_c 13.128480
_cell_angle_alpha 90.000000
_cell_angle_beta 90.000000
_cell_angle_gamma 90.000000
_cell_volume 3180.664583
_symmetry_space_group_name_H-M "I M M M"
_symmetry_group_IT_number 71
_symmetry_cell_setting 'orthorhombic'
loop_
_space_group_symop_operation_xyz
x,y,z
-x,-y,z
x,-y,-z
-x,y,-z
-x,-y,-z
x,y,-z
-x,y,z
x,-y,z
1/2+x,1/2+y,1/2+z
1/2-x,1/2-y,1/2+z
1/2+x,1/2-y,1/2-z
1/2-x,1/2+y,1/2-z
1/2-x,1/2-y,1/2-z
1/2+x,1/2+y,1/2-z
1/2-x,1/2+y,1/2+z
1/2+x,1/2-y,1/2+z
loop_
_atom_site_type_symbol
_atom_site_label
_atom_site_fract_x
_atom_site_fract_y
_atom_site_fract_z
Si Si1 0.598236 0.401916 0.319511
Si Si2 0.760752 0.649555 0.780824
Si Si3 0.836417 0.397494 0.000000
Si Si4 0.096222 0.604122 0.615116
Si Si5 0.595491 0.715491 0.500000
O O1 0.500000 0.384329 0.289058
O O2 0.599769 0.500000 0.363058
O O3 0.669594 0.395733 0.234377
O O4 0.630731 0.330466 0.400285
O O5 0.750000 0.750000 0.750000
O O6 0.788023 0.625418 0.895294
O O7 0.834545 0.621019 0.701742
O O8 0.904537 0.318942 0.000000
O O9 0.861069 0.500000 0.000000
O O10 0.118744 0.636105 0.500000
O O11 0.090979 0.500000 0.608275
O O12 0.000000 0.636056 0.639785
O O13 0.500000 0.681962 0.500000
#
# Coordination Sequence:
#
# PCOD9523482 Si02
#       5
#    16  16   8  16   8
#     4  10  21  40  66  95 127 164 213 275 332 388
#     4  12  25  41  66  91 134 178 224 270 333 392
#     4  12  26  44  62  94 136 178 222 271 328 405
#     4   9  20  40  67  98 126 158 210 271 330 393
#     4  10  21  39  62  96 130 162 211 268 329 397
#
# _framework density 20.121580999999999
#
# number of rings (size 3 to 8) (size 9 to 14) (size 15 to 20)
#    0.000    1.500    2.500    3.375    3.500    3.750 
#    0.000    0.625    0.000    2.250    0.000    0.000 
#    0.000    0.000    0.000    0.000    0.000    0.000 
#
# Total GULP energy -178142.446504 kJ/mol
# GULP energy per Si atom -5566.951453 kJ/mol
# Density = 2.007578 g / cm^3
# Si number density = 20.121581 Si / 1000 Ang^3
#
#
#
# Elastic Constant Matrix: (Units=GPa)
#
#
# Indices 1 2 3 4 5 6 
#
# 1 123.0594 18.0561 78.2876 0.0000 0.0000 0.0000
# 2 18.0561 114.7872 18.1261 0.0000 0.0000 0.0000
# 3 78.2876 18.1261 136.5213 0.0000 0.0000 0.0000
# 4 0.0000 0.0000 0.0000 24.1417 0.0000 0.0000
# 5 0.0000 0.0000 0.0000 0.0000 3.7459 0.0000
# 6 0.0000 0.0000 0.0000 0.0000 0.0000 26.7067
#
#
#
# Elastic Compliance Matrix: (Units=1/GPa)
#
#
# Indices 1 2 3 4 5 6 
#
# 1 0.012879 -0.000878 -0.007269 0.000000 0.000000 0.000000
# 2 -0.000878 0.008958 -0.000686 0.000000 0.000000 0.000000
# 3 -0.007269 -0.000686 0.011584 0.000000 0.000000 0.000000
# 4 0.000000 0.000000 0.000000 0.041422 0.000000 0.000000
# 5 0.000000 0.000000 0.000000 0.000000 0.266958 0.000000
# 6 0.000000 0.000000 0.000000 0.000000 0.000000 0.037444
#
#
# Mechanical properties :
#
#
# Convention : Reuss Voigt Hill
#
# Bulk Modulus (GPa) = 63.46811 67.03417 65.25114
# Shear Modulus (GPa) = 12.43275 28.24540 20.33908
#
# Velocity S-wave (km/s) = 2.48842 3.75071 3.18277
# Velocity P-wave (km/s) = 6.31404 7.22108 6.78274
#
# Compressibility (1/GPa) = 0.01575595
#
# Stress axis : x y z
#
# Youngs Moduli (GPa) = 77.64335 111.62956 86.32347
#
# Poissons Ratio (x) = 0.09802 0.62749
# Poissons Ratio (y) = 0.06818 0.05921
# Poissons Ratio (z) = 0.56439 0.07656
#
# Static dielectric constant tensor:
#      x y z
#    x 1.729190 0.000000 0.000000 
#    y 0.000000 1.738070 0.000000 
#    z 0.000000 0.000000 1.772220 
# 
# From -- ./inp_files/21271.got.cif
#   From: 2010.05.17/outbox.cif.g08.bks.cpg/sg71_11_cif.got.tgz:21271.got - 2010.06.03 16:22:01.
