data_PCOD9523566
_publ_section_title
;
Structure prediction by ZEFSAII (Michael W. Deem and Ramdas Pophale) SiO2 
 PCOD9523566
Probable space group: I M M M
;
_chemical_formula_sum "Si O2"
_cell_formula_units_Z 104
_cell_length_a 8.538499
_cell_length_b 30.339744
_cell_length_c 20.577499
_cell_angle_alpha 90.000000
_cell_angle_beta 90.000000
_cell_angle_gamma 90.000000
_cell_volume 5330.721984
_symmetry_space_group_name_H-M "I M M M"
_symmetry_group_IT_number 71
_symmetry_cell_setting 'orthorhombic'
loop_
_space_group_symop_operation_xyz
x,y,z
-x,-y,z
x,-y,-z
-x,y,-z
-x,-y,-z
x,y,-z
-x,y,z
x,-y,z
1/2+x,1/2+y,1/2+z
1/2-x,1/2-y,1/2+z
1/2+x,1/2-y,1/2-z
1/2-x,1/2+y,1/2-z
1/2-x,1/2-y,1/2-z
1/2+x,1/2+y,1/2-z
1/2-x,1/2+y,1/2+z
1/2+x,1/2-y,1/2+z
loop_
_atom_site_type_symbol
_atom_site_label
_atom_site_fract_x
_atom_site_fract_y
_atom_site_fract_z
Si Si1 0.815441 0.824513 0.378448
Si Si2 0.813576 0.131111 0.137425
Si Si3 0.809506 0.234612 0.500000
Si Si4 0.685057 0.085921 0.363524
Si Si5 0.688296 0.836540 0.000000
Si Si6 0.177951 0.000000 0.576580
Si Si7 0.816121 0.299181 0.741922
Si Si8 0.189136 0.551609 0.279709
O O1 0.761669 0.791519 0.435057
O O2 0.783868 0.875000 0.395734
O O3 0.719889 0.819604 0.312088
O O4 0.000000 0.816718 0.366228
O O5 0.759041 0.170366 0.186183
O O6 0.753589 0.084344 0.165373
O O7 0.000000 0.130830 0.135991
O O8 0.748095 0.140943 0.065811
O O9 0.758715 0.285229 0.500000
O O10 0.000000 0.233962 0.500000
O O11 0.500000 0.095968 0.365164
O O12 0.731140 0.074663 0.288934
O O13 0.725461 0.041904 0.400981
O O14 0.500000 0.836889 0.000000
O O15 0.165023 0.000000 0.500000
O O16 0.000000 0.000000 0.604284
O O17 0.500000 0.202779 0.771367
O O18 0.750000 0.250000 0.750000
O O19 0.239983 0.500000 0.282119
O O20 0.000000 0.551375 0.283098
#
# Coordination Sequence:
#
# PCOD9523566 Si02
#       8
#    16  16   8  16   8   8  16  16
#     4  11  22  39  61  90 125 165 211 261 315 379
#     4  12  25  42  66  99 133 168 213 269 330 399
#     4   9  22  41  63  89 123 167 215 261 315 380
#     4  11  22  39  61  89 123 162 210 266 319 377
#     4  11  23  45  72  94 126 174 215 262 326 394
#     4  11  25  41  59  85 121 168 217 266 321 381
#     4  12  24  40  62  92 127 166 215 269 324 381
#     4  10  21  41  67  94 127 166 212 265 325 388
#
# _framework density 19.509553
#
# number of rings (size 3 to 8) (size 9 to 14) (size 15 to 20)
#    0.000    1.000    2.308    5.077    1.077    2.769 
#    0.000    3.846    0.000    2.308    0.000    0.000 
#    0.000    0.000    0.000    0.000    0.000    0.000 
#
# Total GULP energy -290639.771803 kJ/mol
# GULP energy per Si atom -5589.226381 kJ/mol
# Density = 1.946515 g / cm^3
# Si number density = 19.509553 Si / 1000 Ang^3
#
#
#
# Elastic Constant Matrix: (Units=GPa)
#
#
# Indices 1 2 3 4 5 6 
#
# 1 65.9926 25.7845 28.7237 0.0001 0.0000 0.0000
# 2 25.7845 110.5910 38.0618 0.0003 0.0000 0.0000
# 3 28.7237 38.0618 119.4166 0.0011 0.0000 0.0000
# 4 0.0001 0.0003 0.0011 167.9148 0.0000 -0.0001
# 5 0.0000 0.0000 0.0000 0.0000 24.0753 0.0000
# 6 0.0000 0.0000 0.0000 -0.0001 0.0000 44.3653
#
#
#
# Elastic Compliance Matrix: (Units=1/GPa)
#
#
# Indices 1 2 3 4 5 6 
#
# 1 0.017770 -0.003001 -0.003318 0.000000 0.000000 0.000000
# 2 -0.003001 0.010663 -0.002677 0.000000 0.000000 0.000000
# 3 -0.003318 -0.002677 0.010025 0.000000 0.000000 0.000000
# 4 0.000000 0.000000 0.000000 0.005955 0.000000 0.000000
# 5 0.000000 0.000000 0.000000 0.000000 0.041536 0.000000
# 6 0.000000 0.000000 0.000000 0.000000 0.000000 0.022540
#
#
# Mechanical properties :
#
#
# Convention : Reuss Voigt Hill
#
# Bulk Modulus (GPa) = 48.85918 53.46002 51.15960
# Shear Modulus (GPa) = 37.50818 60.83309 49.17064
#
# Velocity S-wave (km/s) = 4.38945 5.59007 5.02574
# Velocity P-wave (km/s) = 7.12656 8.31424 7.74320
#
# Compressibility (1/GPa) = 0.02046698
#
# Stress axis : x y z
#
# Youngs Moduli (GPa) = 56.27501 93.77915 99.74821
#
# Poissons Ratio (x) = 0.28145 0.33093
# Poissons Ratio (y) = 0.16890 0.26701
# Poissons Ratio (z) = 0.18670 0.25103
#
# Static dielectric constant tensor:
#      x y z
#    x 1.679460 0.000000 0.000000 
#    y 0.000000 1.764510 0.000000 
#    z 0.000000 0.000000 1.719140 
# 
# From -- ./inp_files/50956.got.cif
#   From: 2010.05.17/outbox.cif.g08.bks.cpg/sg71_26_cif.got.tgz:50956.got - 2010.06.03 16:22:01.
