data_PCOD9523013
_publ_section_title
;
Structure prediction by ZEFSAII (Michael W. Deem and Ramdas Pophale) SiO2 
 PCOD9523013
Probable space group: I M M M
;
_chemical_formula_sum "Si O2"
_cell_formula_units_Z 112
_cell_length_a 14.676615
_cell_length_b 24.046933
_cell_length_c 15.786613
_cell_angle_alpha 90.000000
_cell_angle_beta 90.000000
_cell_angle_gamma 90.000000
_cell_volume 5571.531084
_symmetry_space_group_name_H-M "I M M M"
_symmetry_group_IT_number 71
_symmetry_cell_setting 'orthorhombic'
loop_
_space_group_symop_operation_xyz
x,y,z
-x,-y,z
x,-y,-z
-x,y,-z
-x,-y,-z
x,y,-z
-x,y,z
x,-y,z
1/2+x,1/2+y,1/2+z
1/2-x,1/2-y,1/2+z
1/2+x,1/2-y,1/2-z
1/2-x,1/2+y,1/2-z
1/2-x,1/2-y,1/2-z
1/2+x,1/2+y,1/2-z
1/2-x,1/2+y,1/2+z
1/2+x,1/2-y,1/2+z
loop_
_atom_site_type_symbol
_atom_site_label
_atom_site_fract_x
_atom_site_fract_y
_atom_site_fract_z
Si Si1 0.255263 0.750752 0.149090
Si Si2 0.109877 0.566100 0.752916
Si Si3 0.390720 0.849483 0.098440
Si Si4 0.106730 0.059476 0.174245
Si Si5 0.598394 0.563961 0.877456
Si Si6 0.781228 0.374023 0.906117
Si Si7 0.398092 0.330305 0.400869
O O1 0.250000 0.750000 0.250000
O O2 0.335462 0.792798 0.120091
O O3 0.252611 0.687942 0.116652
O O4 0.162311 0.777680 0.116152
O O5 0.136498 0.500000 0.748594
O O6 0.130359 0.601856 0.667324
O O7 0.158283 0.597608 0.831938
O O8 0.000000 0.567490 0.763919
O O9 0.500000 0.839640 0.104149
O O10 0.370060 0.864618 0.000000
O O11 0.105597 0.063589 0.275237
O O12 0.148345 0.115299 0.138527
O O13 0.000000 0.059357 0.146312
O O14 0.146856 0.000000 0.148916
O O15 0.500000 0.589454 0.899335
O O16 0.597008 0.500000 0.903530
O O17 0.687744 0.592115 0.910232
O O18 0.825180 0.374519 0.000000
O O19 0.404637 0.340020 0.500000
O O20 0.500000 0.323243 0.365040
#
# Coordination Sequence:
#
# PCOD9523013 Si02
#       7
#    16  16  16  16  16  16  16
#     4  12  24  42  65  88 125 169 210 261 313 375
#     4  10  23  44  68  95 127 166 216 270 327 387
#     4  10  22  43  70  98 129 164 209 270 331 385
#     4   8  15  30  53  80 112 154 198 238 290 354
#     4   9  19  37  59  85 120 159 202 252 302 359
#     4  12  25  40  62  93 128 170 215 260 312 375
#     4  10  21  36  55  84 122 159 198 246 298 360
#
# _framework density 20.102194000000001
#
# number of rings (size 3 to 8) (size 9 to 14) (size 15 to 20)
#    0.000    1.857    1.429    3.429    0.000    4.000 
#    0.000    4.286    0.000    1.714    0.000    0.000 
#    0.000    0.000    0.000    0.000    0.000    0.143 
#
# Total GULP energy -312425.773678 kJ/mol
# GULP energy per Si atom -5579.031673 kJ/mol
# Density = 2.005644 g / cm^3
# Si number density = 20.102194 Si / 1000 Ang^3
#
#
#
# Elastic Constant Matrix: (Units=GPa)
#
#
# Indices 1 2 3 4 5 6 
#
# 1 78.9323 46.4380 37.5698 0.0000 0.0000 0.0000
# 2 46.4380 139.1022 63.3990 0.0001 0.0001 0.0001
# 3 37.5698 63.3990 142.7096 -0.0002 0.0001 0.0003
# 4 0.0000 0.0001 -0.0002 32.6289 0.0002 0.0002
# 5 0.0000 0.0001 0.0001 0.0002 12.7706 -0.0002
# 6 0.0000 0.0001 0.0003 0.0002 -0.0002 39.8852
#
#
#
# Elastic Compliance Matrix: (Units=1/GPa)
#
#
# Indices 1 2 3 4 5 6 
#
# 1 0.016376 -0.004391 -0.002360 0.000000 0.000000 0.000000
# 2 -0.004391 0.010192 -0.003372 0.000000 0.000000 0.000000
# 3 -0.002360 -0.003372 0.009126 0.000000 0.000000 0.000000
# 4 0.000000 0.000000 0.000000 0.030648 0.000000 0.000000
# 5 0.000000 0.000000 0.000000 0.000000 0.078305 0.000000
# 6 0.000000 0.000000 0.000000 0.000000 0.000000 0.025072
#
#
# Mechanical properties :
#
#
# Convention : Reuss Voigt Hill
#
# Bulk Modulus (GPa) = 64.73432 72.83975 68.78703
# Shear Modulus (GPa) = 25.62606 31.27945 28.45275
#
# Velocity S-wave (km/s) = 3.57429 3.94892 3.76627
# Velocity P-wave (km/s) = 7.02187 7.55681 7.29424
#
# Compressibility (1/GPa) = 0.01544776
#
# Stress axis : x y z
#
# Youngs Moduli (GPa) = 61.06498 98.11996 109.57135
#
# Poissons Ratio (x) = 0.43086 0.25863
# Poissons Ratio (y) = 0.26815 0.36943
# Poissons Ratio (z) = 0.14414 0.33082
#
# Static dielectric constant tensor:
#      x y z
#    x 1.728270 0.000000 0.000000 
#    y 0.000000 1.639980 0.000000 
#    z 0.000000 0.000000 1.712160 
# 
# From -- ./inp_files/34880.got.cif
#   From: 2010.05.17/outbox.cif.g08.bks.cpg/sg71_18_cif.got.tgz:34880.got - 2010.06.03 16:22:01.
