data_PCOD9523659
_publ_section_title
;
Structure prediction by ZEFSAII (Michael W. Deem and Ramdas Pophale) SiO2 
 PCOD9523659
Probable space group: I M M M
;
_chemical_formula_sum "Si O2"
_cell_formula_units_Z 80
_cell_length_a 24.292284
_cell_length_b 13.957591
_cell_length_c 10.960423
_cell_angle_alpha 90.000000
_cell_angle_beta 90.000000
_cell_angle_gamma 90.000000
_cell_volume 3716.260362
_symmetry_space_group_name_H-M "I M M M"
_symmetry_group_IT_number 71
_symmetry_cell_setting 'orthorhombic'
loop_
_space_group_symop_operation_xyz
x,y,z
-x,-y,z
x,-y,-z
-x,y,-z
-x,-y,-z
x,y,-z
-x,y,z
x,-y,z
1/2+x,1/2+y,1/2+z
1/2-x,1/2-y,1/2+z
1/2+x,1/2-y,1/2-z
1/2-x,1/2+y,1/2-z
1/2-x,1/2-y,1/2-z
1/2+x,1/2+y,1/2-z
1/2-x,1/2+y,1/2+z
1/2+x,1/2-y,1/2+z
loop_
_atom_site_type_symbol
_atom_site_label
_atom_site_fract_x
_atom_site_fract_y
_atom_site_fract_z
Si Si1 0.127940 0.615041 0.864612
Si Si2 0.676410 0.615322 0.631939
Si Si3 0.064548 0.697416 0.633438
Si Si4 0.438066 0.390087 0.744768
Si Si5 0.242611 0.883397 0.366372
O O1 0.123357 0.500000 0.862096
O O2 0.095736 0.655507 0.749498
O O3 0.192721 0.638311 0.854718
O O4 0.108780 0.646971 0.000000
O O5 0.694313 0.652916 0.500000
O O6 0.684650 0.500000 0.629775
O O7 0.611389 0.630042 0.651830
O O8 0.708412 0.651871 0.750505
O O9 0.085805 0.668199 0.500000
O O10 0.067181 0.812323 0.649094
O O11 0.000000 0.670676 0.640393
O O12 0.500000 0.380291 0.693209
O O13 0.431534 0.500000 0.786436
O O14 0.222733 0.850359 0.500000
O O15 0.238449 0.000000 0.366998
#
# Coordination Sequence:
#
# PCOD9523659 Si02
#       5
#    16  16  16  16  16
#     4   9  19  37  60  84 111 147 188 224 265 325
#     4   9  17  29  49  80 112 140 177 226 276 325
#     4  10  22  38  56  83 115 143 179 230 281 326
#     4   9  19  36  56  78 108 147 187 227 274 328
#     4   8  15  30  52  77 106 141 180 221 266 319
#
# _framework density 21.527017000000001
#
# number of rings (size 3 to 8) (size 9 to 14) (size 15 to 20)
#    0.000    3.000    0.000    1.200    0.000    4.400 
#    0.000   13.000    0.000    0.000    0.000    0.000 
#    0.000    0.000    0.000    0.000    0.000    0.000 
#
# Total GULP energy -223237.615027 kJ/mol
# GULP energy per Si atom -5580.940376 kJ/mol
# Density = 2.147802 g / cm^3
# Si number density = 21.527017 Si / 1000 Ang^3
#
#
#
# Elastic Constant Matrix: (Units=GPa)
#
#
# Indices 1 2 3 4 5 6 
#
# 1 78.6963 18.6662 99.6180 0.0000 0.0000 0.0000
# 2 18.6662 64.2869 45.4614 0.0000 0.0000 0.0000
# 3 99.6180 45.4614 245.2515 0.0000 0.0000 0.0000
# 4 0.0000 0.0000 0.0000 11.7548 0.0000 0.0000
# 5 0.0000 0.0000 0.0000 0.0000 21.6419 0.0000
# 6 0.0000 0.0000 0.0000 0.0000 0.0000 14.8272
#
#
#
# Elastic Compliance Matrix: (Units=1/GPa)
#
#
# Indices 1 2 3 4 5 6 
#
# 1 0.026156 -0.000094 -0.010607 0.000000 0.000000 0.000000
# 2 -0.000094 0.017902 -0.003280 0.000000 0.000000 0.000000
# 3 -0.010607 -0.003280 0.008994 0.000000 0.000000 0.000000
# 4 0.000000 0.000000 0.000000 0.085072 0.000000 0.000000
# 5 0.000000 0.000000 0.000000 0.000000 0.046207 0.000000
# 6 0.000000 0.000000 0.000000 0.000000 0.000000 0.067444
#
#
# Mechanical properties :
#
#
# Convention : Reuss Voigt Hill
#
# Bulk Modulus (GPa) = 39.85630 79.52509 59.69069
# Shear Modulus (GPa) = 17.35509 24.61071 20.98290
#
# Velocity S-wave (km/s) = 2.84245 3.38486 3.12544
# Velocity P-wave (km/s) = 5.41548 7.23178 6.38851
#
# Compressibility (1/GPa) = 0.02509014
#
# Stress axis : x y z
#
# Youngs Moduli (GPa) = 38.23203 55.85882 111.18658
#
# Poissons Ratio (x) = 0.00524 1.17934
# Poissons Ratio (y) = 0.00359 0.36473
# Poissons Ratio (z) = 0.40552 0.18324
#
# Static dielectric constant tensor:
#      x y z
#    x 1.763560 0.000000 0.000000 
#    y 0.000000 1.819840 0.000000 
#    z 0.000000 0.000000 1.766860 
# 
# From -- ./inp_files/27106.got.cif
#   From: 2010.05.17/outbox.cif.g08.bks.cpg/sg71_14_cif.got.tgz:27106.got - 2010.06.03 16:22:01.
