data_PCOD9523765
_publ_section_title
;
Structure prediction by ZEFSAII (Michael W. Deem and Ramdas Pophale) SiO2 
 PCOD9523765
Probable space group: I M M M
;
_chemical_formula_sum "Si O2"
_cell_formula_units_Z 88
_cell_length_a 18.363819
_cell_length_b 21.247403
_cell_length_c 11.675828
_cell_angle_alpha 90.000000
_cell_angle_beta 90.000000
_cell_angle_gamma 90.000000
_cell_volume 4555.715001
_symmetry_space_group_name_H-M "I M M M"
_symmetry_group_IT_number 71
_symmetry_cell_setting 'orthorhombic'
loop_
_space_group_symop_operation_xyz
x,y,z
-x,-y,z
x,-y,-z
-x,y,-z
-x,-y,-z
x,y,-z
-x,y,z
x,-y,z
1/2+x,1/2+y,1/2+z
1/2-x,1/2-y,1/2+z
1/2+x,1/2-y,1/2-z
1/2-x,1/2+y,1/2-z
1/2-x,1/2-y,1/2-z
1/2+x,1/2+y,1/2-z
1/2-x,1/2+y,1/2+z
1/2+x,1/2-y,1/2+z
loop_
_atom_site_type_symbol
_atom_site_label
_atom_site_fract_x
_atom_site_fract_y
_atom_site_fract_z
Si Si1 0.419760 0.188065 0.865142
Si Si2 0.163199 0.925688 0.362813
Si Si3 0.822714 0.618306 0.796520
Si Si4 0.419028 0.000000 0.636020
Si Si5 0.917484 0.180500 0.231447
Si Si6 0.707587 0.250783 0.625732
O O1 0.500000 0.163985 0.826141
O O2 0.354238 0.144402 0.822631
O O3 0.413339 0.258135 0.813854
O O4 0.419984 0.191731 0.000000
O O5 0.167177 0.914187 0.500000
O O6 0.240477 0.906005 0.307264
O O7 0.104137 0.880856 0.303745
O O8 0.150242 0.000000 0.346080
O O9 0.874359 0.561716 0.831513
O O10 0.827025 0.680925 0.873978
O O11 0.500000 0.000000 0.686523
O O12 0.424488 0.000000 0.500000
O O13 0.855097 0.196978 0.139592
O O14 0.000000 0.176197 0.187377
O O15 0.744894 0.258285 0.500000
O O16 0.750000 0.250000 0.750000
#
# Coordination Sequence:
#
# PCOD9523765 Si02
#       6
#    16  16  16   8  16  16
#     4   9  19  36  58  85 120 159 198 246 305 369
#     4  11  22  37  59  87 122 163 208 262 320 376
#     4  11  21  36  57  86 119 156 200 251 303 364
#     4  11  22  36  57  83 116 158 196 239 303 369
#     4  10  22  40  61  90 124 159 200 254 314 373
#     4  11  23  39  65  97 129 165 208 258 314 376
#
# _framework density 19.316396999999998
#
# number of rings (size 3 to 8) (size 9 to 14) (size 15 to 20)
#    0.000    1.545    2.727    2.727    0.000    5.455 
#    0.000    1.364    0.000    3.273    0.000    1.273 
#    0.000    0.000    0.000    0.000    0.000    0.000 
#
# Total GULP energy -245278.948186 kJ/mol
# GULP energy per Si atom -5574.521550 kJ/mol
# Density = 1.927243 g / cm^3
# Si number density = 19.316397 Si / 1000 Ang^3
#
#
#
# Elastic Constant Matrix: (Units=GPa)
#
#
# Indices 1 2 3 4 5 6 
#
# 1 91.7341 24.8903 21.2141 0.0000 0.0000 0.0000
# 2 24.8903 101.1839 19.9573 0.0000 0.0000 0.0000
# 3 21.2141 19.9573 94.1503 0.0000 0.0000 0.0000
# 4 0.0000 0.0000 0.0000 8.8376 0.0000 0.0000
# 5 0.0000 0.0000 0.0000 0.0000 20.1623 0.0000
# 6 0.0000 0.0000 0.0000 0.0000 0.0000 44.8175
#
#
#
# Elastic Compliance Matrix: (Units=1/GPa)
#
#
# Indices 1 2 3 4 5 6 
#
# 1 0.012097 -0.002545 -0.002186 0.000000 0.000000 0.000000
# 2 -0.002545 0.010849 -0.001726 0.000000 0.000000 0.000000
# 3 -0.002186 -0.001726 0.011480 0.000000 0.000000 0.000000
# 4 0.000000 0.000000 0.000000 0.113153 0.000000 0.000000
# 5 0.000000 0.000000 0.000000 0.000000 0.049598 0.000000
# 6 0.000000 0.000000 0.000000 0.000000 0.000000 0.022313
#
#
# Mechanical properties :
#
#
# Convention : Reuss Voigt Hill
#
# Bulk Modulus (GPa) = 46.48622 46.57685 46.53154
# Shear Modulus (GPa) = 20.87025 29.49724 25.18374
#
# Velocity S-wave (km/s) = 3.29057 3.91200 3.61466
# Velocity P-wave (km/s) = 6.20927 6.67607 6.44690
#
# Compressibility (1/GPa) = 0.02151175
#
# Stress axis : x y z
#
# Youngs Moduli (GPa) = 82.66448 92.17054 87.10868
#
# Poissons Ratio (x) = 0.23453 0.19045
# Poissons Ratio (y) = 0.21034 0.15039
# Poissons Ratio (z) = 0.18073 0.15913
#
# Static dielectric constant tensor:
#      x y z
#    x 1.765330 0.000000 0.000000 
#    y 0.000000 1.629170 0.000000 
#    z 0.000000 0.000000 1.691280 
# 
# From -- ./inp_files/23976.got.cif
#   From: 2010.05.17/outbox.cif.g08.bks.cpg/sg71_12_cif.got.tgz:23976.got - 2010.06.03 16:22:01.
