data_PCOD9523492
_publ_section_title
;
Structure prediction by ZEFSAII (Michael W. Deem and Ramdas Pophale) SiO2 
 PCOD9523492
Probable space group: I M M M
;
_chemical_formula_sum "Si O2"
_cell_formula_units_Z 72
_cell_length_a 8.733871
_cell_length_b 15.771831
_cell_length_c 27.274064
_cell_angle_alpha 90.000000
_cell_angle_beta 90.000000
_cell_angle_gamma 90.000000
_cell_volume 3756.978789
_symmetry_space_group_name_H-M "I M M M"
_symmetry_group_IT_number 71
_symmetry_cell_setting 'orthorhombic'
loop_
_space_group_symop_operation_xyz
x,y,z
-x,-y,z
x,-y,-z
-x,y,-z
-x,-y,-z
x,y,-z
-x,y,z
x,-y,z
1/2+x,1/2+y,1/2+z
1/2-x,1/2-y,1/2+z
1/2+x,1/2-y,1/2-z
1/2-x,1/2+y,1/2-z
1/2-x,1/2-y,1/2-z
1/2+x,1/2+y,1/2-z
1/2-x,1/2+y,1/2+z
1/2+x,1/2-y,1/2+z
loop_
_atom_site_type_symbol
_atom_site_label
_atom_site_fract_x
_atom_site_fract_y
_atom_site_fract_z
Si Si1 0.684051 0.666146 0.607650
Si Si2 0.183133 0.500000 0.227224
Si Si3 0.316842 0.000000 0.056572
Si Si4 0.815926 0.168247 0.222506
Si Si5 0.818007 0.000000 0.618107
Si Si6 0.315459 0.156361 0.557643
O O1 0.500000 0.658257 0.604325
O O2 0.756942 0.583716 0.583446
O O3 0.724319 0.672313 0.664956
O O4 0.727933 0.752063 0.579397
O O5 0.248202 0.416623 0.253746
O O6 0.237964 0.500000 0.171015
O O7 0.000000 0.500000 0.229267
O O8 0.500000 0.000000 0.057343
O O9 0.264466 0.000000 0.000000
O O10 0.750000 0.250000 0.250000
O O11 0.000000 0.167181 0.226715
O O12 0.764959 0.082255 0.587814
O O13 0.000000 0.000000 0.624573
O O14 0.279173 0.151260 0.500000
O O15 0.500000 0.147077 0.562900
#
# Coordination Sequence:
#
# PCOD9523492 Si02
#       6
#    16   8   8  16   8  16
#     4  10  22  40  63  89 118 156 200 243 289 350
#     4  12  25  42  63  87 120 162 206 253 306 360
#     4  11  24  39  58  88 123 157 196 245 298 349
#     4  11  23  40  63  93 125 158 201 249 300 361
#     4  12  25  40  61  89 121 157 200 251 306 363
#     4  10  21  39  63  90 121 159 202 245 293 355
#
# _framework density 19.164335000000001
#
# number of rings (size 3 to 8) (size 9 to 14) (size 15 to 20)
#    0.000    1.222    0.000    6.000    0.000   10.667 
#    0.000    0.000    0.000    0.000    0.000    0.000 
#    0.000    0.000    0.000    0.000    0.000    0.000 
#
# Total GULP energy -201455.492171 kJ/mol
# GULP energy per Si atom -5595.985894 kJ/mol
# Density = 1.912072 g / cm^3
# Si number density = 19.164335 Si / 1000 Ang^3
#
#
#
# Elastic Constant Matrix: (Units=GPa)
#
#
# Indices 1 2 3 4 5 6 
#
# 1 51.6628 25.8754 35.8524 0.0000 0.0000 0.0000
# 2 25.8754 100.4944 11.6264 0.0000 0.0000 0.0000
# 3 35.8524 11.6264 93.6262 0.0000 0.0000 0.0000
# 4 0.0000 0.0000 0.0000 45.9504 0.0000 0.0000
# 5 0.0000 0.0000 0.0000 0.0000 31.5818 0.0000
# 6 0.0000 0.0000 0.0000 0.0000 0.0000 7.9195
#
#
#
# Elastic Compliance Matrix: (Units=1/GPa)
#
#
# Indices 1 2 3 4 5 6 
#
# 1 0.030030 -0.006495 -0.010693 0.000000 0.000000 0.000000
# 2 -0.006495 0.011501 0.001059 0.000000 0.000000 0.000000
# 3 -0.010693 0.001059 0.014644 0.000000 0.000000 0.000000
# 4 0.000000 0.000000 0.000000 0.021763 0.000000 0.000000
# 5 0.000000 0.000000 0.000000 0.000000 0.031664 0.000000
# 6 0.000000 0.000000 0.000000 0.000000 0.000000 0.126271
#
#
# Mechanical properties :
#
#
# Convention : Reuss Voigt Hill
#
# Bulk Modulus (GPa) = 41.81183 43.61018 42.71100
# Shear Modulus (GPa) = 18.10930 28.58562 23.34746
#
# Velocity S-wave (km/s) = 3.07734 3.86632 3.49417
# Velocity P-wave (km/s) = 5.87295 6.53732 6.21402
#
# Compressibility (1/GPa) = 0.02391668
#
# Stress axis : x y z
#
# Youngs Moduli (GPa) = 33.30020 86.95174 68.28789
#
# Poissons Ratio (x) = 0.56475 0.73019
# Poissons Ratio (y) = 0.21629 -0.07232
# Poissons Ratio (z) = 0.35607 -0.09208
#
# Static dielectric constant tensor:
#      x y z
#    x 1.645900 0.000000 0.000000 
#    y 0.000000 1.618780 0.000000 
#    z 0.000000 0.000000 1.635970 
# 
# From -- ./inp_files/6139.got.cif
#   From: 2010.05.17/outbox.cif.g08.bks.cpg/sg71_4_cif.got.tgz:6139.got - 2010.06.03 16:22:01.
