data_PCOD9523677
_publ_section_title
;
Structure prediction by ZEFSAII (Michael W. Deem and Ramdas Pophale) SiO2 
 PCOD9523677
Probable space group: I M M M
;
_chemical_formula_sum "Si O2"
_cell_formula_units_Z 72
_cell_length_a 29.138430
_cell_length_b 10.127027
_cell_length_c 13.556589
_cell_angle_alpha 90.000000
_cell_angle_beta 90.000000
_cell_angle_gamma 90.000000
_cell_volume 4000.355112
_symmetry_space_group_name_H-M "I M M M"
_symmetry_group_IT_number 71
_symmetry_cell_setting 'orthorhombic'
loop_
_space_group_symop_operation_xyz
x,y,z
-x,-y,z
x,-y,-z
-x,y,-z
-x,-y,-z
x,y,-z
-x,y,z
x,-y,z
1/2+x,1/2+y,1/2+z
1/2-x,1/2-y,1/2+z
1/2+x,1/2-y,1/2-z
1/2-x,1/2+y,1/2-z
1/2-x,1/2-y,1/2-z
1/2+x,1/2+y,1/2-z
1/2-x,1/2+y,1/2+z
1/2+x,1/2-y,1/2+z
loop_
_atom_site_type_symbol
_atom_site_label
_atom_site_fract_x
_atom_site_fract_y
_atom_site_fract_z
Si Si1 0.228710 0.150832 0.883283
Si Si2 0.820418 0.655977 0.264280
Si Si3 0.418740 0.250805 0.744295
Si Si4 0.500000 0.659557 0.883371
Si Si5 0.054935 0.500000 0.112895
Si Si6 0.444149 0.500000 0.383069
O O1 0.199271 0.260975 0.827703
O O2 0.281388 0.167028 0.847903
O O3 0.215001 0.000000 0.854887
O O4 0.224807 0.162979 0.000000
O O5 0.826175 0.500000 0.242474
O O6 0.868978 0.721408 0.289267
O O7 0.456007 0.278798 0.828812
O O8 0.422457 0.374630 0.670847
O O9 0.430596 0.126680 0.675412
O O10 0.500000 0.500000 0.869315
O O11 0.500000 0.685341 0.000000
O O12 0.000000 0.500000 0.106860
O O13 0.072824 0.500000 0.000000
O O14 0.500000 0.500000 0.369615
O O15 0.435650 0.500000 0.500000
#
# Coordination Sequence:
#
# PCOD9523677 Si02
#       6
#    16  16  16   8   8   8
#     4   9  20  40  62  84 112 151 198 242 288 348
#     4  10  22  38  60  86 121 154 186 241 301 350
#     4  12  21  40  60  88 123 158 198 248 297 350
#     4  11  24  43  64  87 119 163 209 255 296 335
#     4  11  22  36  58  87 126 162 192 238 303 362
#     4  11  22  38  60  85 116 162 208 242 291 356
#
# _framework density 17.998403
#
# number of rings (size 3 to 8) (size 9 to 14) (size 15 to 20)
#    0.000    1.444    4.444    0.667    1.556    4.889 
#    0.000    1.111    0.000    0.000    0.000    0.000 
#    0.000    0.000    0.000    0.000    0.000    0.000 
#
# Total GULP energy -200957.759399 kJ/mol
# GULP energy per Si atom -5582.159983 kJ/mol
# Density = 1.795744 g / cm^3
# Si number density = 17.998403 Si / 1000 Ang^3
#
#
#
# Elastic Constant Matrix: (Units=GPa)
#
#
# Indices 1 2 3 4 5 6 
#
# 1 108.7348 43.7964 26.0183 0.0000 0.0000 0.0000
# 2 43.7964 128.1459 40.9662 0.0000 0.0000 0.0000
# 3 26.0183 40.9662 95.8448 0.0000 0.0000 0.0000
# 4 0.0000 0.0000 0.0000 11.8353 0.0000 0.0000
# 5 0.0000 0.0000 0.0000 0.0000 1.0888 0.0000
# 6 0.0000 0.0000 0.0000 0.0000 0.0000 22.8369
#
#
#
# Elastic Compliance Matrix: (Units=1/GPa)
#
#
# Indices 1 2 3 4 5 6 
#
# 1 0.010867 -0.003210 -0.001578 0.000000 0.000000 0.000000
# 2 -0.003210 0.009987 -0.003397 0.000000 0.000000 0.000000
# 3 -0.001578 -0.003397 0.012314 0.000000 0.000000 0.000000
# 4 0.000000 0.000000 0.000000 0.084493 0.000000 0.000000
# 5 0.000000 0.000000 0.000000 0.000000 0.918441 0.000000
# 6 0.000000 0.000000 0.000000 0.000000 0.000000 0.043789
#
#
# Mechanical properties :
#
#
# Convention : Reuss Voigt Hill
#
# Bulk Modulus (GPa) = 59.53166 61.58748 60.55957
# Shear Modulus (GPa) = 4.53778 21.94851 13.24315
#
# Velocity S-wave (km/s) = 1.58956 3.49588 2.71550
# Velocity P-wave (km/s) = 6.04291 7.11249 6.59940
#
# Compressibility (1/GPa) = 0.01679778
#
# Stress axis : x y z
#
# Youngs Moduli (GPa) = 92.02132 100.13465 81.20843
#
# Poissons Ratio (x) = 0.32138 0.12816
# Poissons Ratio (y) = 0.29534 0.27588
# Poissons Ratio (z) = 0.14523 0.34018
#
# Static dielectric constant tensor:
#      x y z
#    x 1.634510 0.000000 0.000000 
#    y 0.000000 2.066780 0.000000 
#    z 0.000000 0.000000 1.580190 
# 
# From -- ./inp_files/16393.got.cif
#   From: 2010.05.17/outbox.cif.g08.bks.cpg/sg71_9_cif.got.tgz:16393.got - 2010.06.03 16:22:01.
