data_PCOD9523065
_publ_section_title
;
Structure prediction by ZEFSAII (Michael W. Deem and Ramdas Pophale) SiO2 
 PCOD9523065
Probable space group: I M M M
;
_chemical_formula_sum "Si O2"
_cell_formula_units_Z 104
_cell_length_a 18.482590
_cell_length_b 14.373160
_cell_length_c 18.893512
_cell_angle_alpha 90.000000
_cell_angle_beta 90.000000
_cell_angle_gamma 90.000000
_cell_volume 5019.122362
_symmetry_space_group_name_H-M "I M M M"
_symmetry_group_IT_number 71
_symmetry_cell_setting 'orthorhombic'
loop_
_space_group_symop_operation_xyz
x,y,z
-x,-y,z
x,-y,-z
-x,y,-z
-x,-y,-z
x,y,-z
-x,y,z
x,-y,z
1/2+x,1/2+y,1/2+z
1/2-x,1/2-y,1/2+z
1/2+x,1/2-y,1/2-z
1/2-x,1/2+y,1/2-z
1/2-x,1/2-y,1/2-z
1/2+x,1/2+y,1/2-z
1/2-x,1/2+y,1/2+z
1/2+x,1/2-y,1/2+z
loop_
_atom_site_type_symbol
_atom_site_label
_atom_site_fract_x
_atom_site_fract_y
_atom_site_fract_z
Si Si1 0.288167 0.389331 0.206001
Si Si2 0.912433 0.105201 0.500000
Si Si3 0.417512 0.291297 0.854801
Si Si4 0.372655 0.891313 0.080966
Si Si5 0.418876 0.722475 0.416124
Si Si6 0.218528 0.890483 0.135231
Si Si7 0.821234 0.389805 0.080569
O O1 0.303814 0.500000 0.198595
O O2 0.361304 0.330635 0.200992
O O3 0.256378 0.374039 0.283918
O O4 0.235138 0.362985 0.141900
O O5 0.893937 0.159733 0.571146
O O6 0.000000 0.099606 0.500000
O O7 0.882766 0.000000 0.500000
O O8 0.500000 0.317551 0.839467
O O9 0.411716 0.181694 0.868738
O O10 0.287112 0.868508 0.086254
O O11 0.381488 0.000000 0.100207
O O12 0.397665 0.879487 0.000000
O O13 0.419238 0.700502 0.500000
O O14 0.500000 0.706987 0.388391
O O15 0.354263 0.663953 0.381895
O O16 0.393302 0.829391 0.409612
O O17 0.203394 0.000000 0.127573
O O18 0.833886 0.500000 0.086175
O O19 0.794202 0.370886 0.000000
#
# Coordination Sequence:
#
# PCOD9523065 Si02
#       7
#    16   8  16  16  16  16  16
#     4  10  22  38  58  83 112 148 189 234 281 333
#     4   9  18  32  49  73 107 143 177 216 264 320
#     4  11  22  35  54  82 114 150 187 227 279 333
#     4  10  21  38  60  83 110 148 193 238 281 329
#     4  10  21  36  57  86 116 145 180 227 282 338
#     4  10  22  40  59  81 110 146 189 236 285 334
#     4   9  19  36  58  84 113 146 185 227 273 330
#
# _framework density 20.720755
#
# number of rings (size 3 to 8) (size 9 to 14) (size 15 to 20)
#    0.000    2.077    0.769    1.846    1.077    7.077 
#    0.000    4.615    0.000    0.000    0.000    6.462 
#    0.000    0.000    0.000    0.000    0.000    0.000 
#
# Total GULP energy -290487.453771 kJ/mol
# GULP energy per Si atom -5586.297188 kJ/mol
# Density = 2.067359 g / cm^3
# Si number density = 20.720755 Si / 1000 Ang^3
#
#
#
# Elastic Constant Matrix: (Units=GPa)
#
#
# Indices 1 2 3 4 5 6 
#
# 1 54.9101 11.1294 5.8598 0.0000 0.0000 0.0000
# 2 11.1294 50.3054 11.1404 0.0000 0.0000 0.0000
# 3 5.8598 11.1404 38.6173 0.0000 0.0000 0.0000
# 4 0.0000 0.0000 0.0000 23.5867 0.0000 0.0000
# 5 0.0000 0.0000 0.0000 0.0000 12.3470 0.0000
# 6 0.0000 0.0000 0.0000 0.0000 0.0000 19.6254
#
#
#
# Elastic Compliance Matrix: (Units=1/GPa)
#
#
# Indices 1 2 3 4 5 6 
#
# 1 0.019183 -0.003845 -0.001802 0.000000 0.000000 0.000000
# 2 -0.003845 0.022006 -0.005765 0.000000 0.000000 0.000000
# 3 -0.001802 -0.005765 0.027832 0.000000 0.000000 0.000000
# 4 0.000000 0.000000 0.000000 0.042397 0.000000 0.000000
# 5 0.000000 0.000000 0.000000 0.000000 0.080991 0.000000
# 6 0.000000 0.000000 0.000000 0.000000 0.000000 0.050954
#
#
# Mechanical properties :
#
#
# Convention : Reuss Voigt Hill
#
# Bulk Modulus (GPa) = 21.64618 22.23247 21.93932
# Shear Modulus (GPa) = 17.75663 18.82539 18.29101
#
# Velocity S-wave (km/s) = 2.93054 3.01745 2.97431
# Velocity P-wave (km/s) = 4.68189 4.78465 4.73355
#
# Compressibility (1/GPa) = 0.04619753
#
# Stress axis : x y z
#
# Youngs Moduli (GPa) = 52.12902 45.44237 35.93043
#
# Poissons Ratio (x) = 0.17473 0.06473
# Poissons Ratio (y) = 0.20044 0.20713
# Poissons Ratio (z) = 0.09392 0.26197
#
# Static dielectric constant tensor:
#      x y z
#    x 1.716170 0.000000 0.000000 
#    y 0.000000 1.756290 0.000000 
#    z 0.000000 0.000000 1.747200 
# 
# From -- ./inp_files/54142.got.cif
#   From: 2010.05.17/outbox.cif.g08.bks.cpg/sg71_28_cif.got.tgz:54142.got - 2010.06.03 16:22:01.
