data_PCOD9523585
_publ_section_title
;
Structure prediction by ZEFSAII (Michael W. Deem and Ramdas Pophale) SiO2 
 PCOD9523585
Probable space group: I M M M
;
_chemical_formula_sum "Si O2"
_cell_formula_units_Z 88
_cell_length_a 20.795428
_cell_length_b 27.415516
_cell_length_c 7.818956
_cell_angle_alpha 90.000000
_cell_angle_beta 90.000000
_cell_angle_gamma 90.000000
_cell_volume 4457.722780
_symmetry_space_group_name_H-M "I M M M"
_symmetry_group_IT_number 71
_symmetry_cell_setting 'orthorhombic'
loop_
_space_group_symop_operation_xyz
x,y,z
-x,-y,z
x,-y,-z
-x,y,-z
-x,-y,-z
x,y,-z
-x,y,z
x,-y,z
1/2+x,1/2+y,1/2+z
1/2-x,1/2-y,1/2+z
1/2+x,1/2-y,1/2-z
1/2-x,1/2+y,1/2-z
1/2-x,1/2-y,1/2-z
1/2+x,1/2+y,1/2-z
1/2-x,1/2+y,1/2+z
1/2+x,1/2-y,1/2+z
loop_
_atom_site_type_symbol
_atom_site_label
_atom_site_fract_x
_atom_site_fract_y
_atom_site_fract_z
Si Si1 0.632596 0.848166 0.698335
Si Si2 0.000000 0.801852 0.701684
Si Si3 0.000000 0.693623 0.196017
Si Si4 0.925855 0.555710 0.706500
Si Si5 0.880069 0.128244 0.696910
Si Si6 0.421703 0.441342 0.500000
Si Si7 0.763967 0.194541 0.192585
O O1 0.639978 0.832821 0.500000
O O2 0.566852 0.825081 0.772542
O O3 0.621101 0.905650 0.710730
O O4 0.695247 0.831505 0.796159
O O5 0.000000 0.751579 0.800953
O O6 0.062388 0.834068 0.736234
O O7 0.000000 0.789339 0.500000
O O8 0.000000 0.675233 0.000000
O O9 0.922136 0.559392 0.500000
O O10 0.912512 0.500000 0.753809
O O11 0.000000 0.566631 0.755113
O O12 0.887284 0.111210 0.500000
O O13 0.889560 0.085040 0.834551
O O14 0.815238 0.160595 0.710119
O O15 0.411867 0.500000 0.500000
O O16 0.500000 0.433175 0.500000
O O17 0.750000 0.250000 0.250000
O O18 0.788776 0.196926 0.000000
#
# Coordination Sequence:
#
# PCOD9523585 Si02
#       7
#    16   8   8  16  16   8  16
#     4  11  22  38  56  86 122 160 209 261 314 376
#     4  10  22  36  60  92 123 161 207 256 318 384
#     4  10  22  34  53  83 123 166 209 261 315 382
#     4   9  18  34  57  83 112 151 198 250 308 362
#     4  11  23  43  67  99 136 173 220 277 332 400
#     4  11  24  44  74 108 138 179 227 281 349 409
#     4  12  25  42  64  93 130 175 218 265 331 403
#
# _framework density 19.741021
#
# number of rings (size 3 to 8) (size 9 to 14) (size 15 to 20)
#    0.000    1.364    2.727    3.818    1.273    5.091 
#    0.000    2.727    0.000    2.182    0.000    0.000 
#    0.000    0.000    0.000    0.000    0.000    0.000 
#
# Total GULP energy -245731.954301 kJ/mol
# GULP energy per Si atom -5584.817143 kJ/mol
# Density = 1.969609 g / cm^3
# Si number density = 19.741021 Si / 1000 Ang^3
#
#
#
# Elastic Constant Matrix: (Units=GPa)
#
#
# Indices 1 2 3 4 5 6 
#
# 1 119.4338 51.6037 13.4452 0.0000 0.0000 0.0000
# 2 51.6037 125.1652 41.8110 0.0000 0.0000 0.0000
# 3 13.4452 41.8110 72.5244 0.0000 0.0000 0.0000
# 4 0.0000 0.0000 0.0000 23.5380 0.0000 0.0000
# 5 0.0000 0.0000 0.0000 0.0000 -132.6289 0.0000
# 6 0.0000 0.0000 0.0000 0.0000 0.0000 108.7967
#
#
#
# Elastic Compliance Matrix: (Units=1/GPa)
#
#
# Indices 1 2 3 4 5 6 
#
# 1 0.010213 -0.004432 0.000662 0.000000 0.000000 0.000000
# 2 -0.004432 0.011818 -0.005992 0.000000 0.000000 0.000000
# 3 0.000662 -0.005992 0.017120 0.000000 0.000000 0.000000
# 4 0.000000 0.000000 0.000000 0.042484 0.000000 0.000000
# 5 0.000000 0.000000 0.000000 0.000000 -0.007540 0.000000
# 6 0.000000 0.000000 0.000000 0.000000 0.000000 0.009191
#
#
# Mechanical properties :
#
#
# Convention : Reuss Voigt Hill
#
# Bulk Modulus (GPa) = 50.94853 58.98254 54.96554
# Shear Modulus (GPa) = 45.72324 13.95874 29.84099
#
# Velocity S-wave (km/s) = 4.81786 2.66201 3.89218
# Velocity P-wave (km/s) = 7.53748 6.27626 6.93560
#
# Compressibility (1/GPa) = 0.01962765
#
# Stress axis : x y z
#
# Youngs Moduli (GPa) = 97.91275 84.61631 58.41098
#
# Poissons Ratio (x) = 0.37500 -0.03864
# Poissons Ratio (y) = 0.43392 0.34998
# Poissons Ratio (z) = -0.06477 0.50699
#
# Static dielectric constant tensor:
#      x y z
#    x 1.686110 0.000000 0.000000 
#    y 0.000000 1.673750 0.000000 
#    z 0.000000 0.000000 1.726030 
# 
# From -- ./inp_files/10518.got.cif
#   From: 2010.05.17/outbox.cif.g08.bks.cpg/sg71_6_cif.got.tgz:10518.got - 2010.06.03 16:22:01.
