data_PCOD9523317
_publ_section_title
;
Structure prediction by ZEFSAII (Michael W. Deem and Ramdas Pophale) SiO2 
 PCOD9523317
Probable space group: I M M M
;
_chemical_formula_sum "Si O2"
_cell_formula_units_Z 116
_cell_length_a 29.610934
_cell_length_b 26.194621
_cell_length_c 8.930816
_cell_angle_alpha 90.000000
_cell_angle_beta 90.000000
_cell_angle_gamma 90.000000
_cell_volume 6927.162367
_symmetry_space_group_name_H-M "I M M M"
_symmetry_group_IT_number 71
_symmetry_cell_setting 'orthorhombic'
loop_
_space_group_symop_operation_xyz
x,y,z
-x,-y,z
x,-y,-z
-x,y,-z
-x,-y,-z
x,y,-z
-x,y,z
x,-y,z
1/2+x,1/2+y,1/2+z
1/2-x,1/2-y,1/2+z
1/2+x,1/2-y,1/2-z
1/2-x,1/2+y,1/2-z
1/2-x,1/2-y,1/2-z
1/2+x,1/2+y,1/2-z
1/2-x,1/2+y,1/2+z
1/2+x,1/2-y,1/2+z
loop_
_atom_site_type_symbol
_atom_site_label
_atom_site_fract_x
_atom_site_fract_y
_atom_site_fract_z
Si Si1 0.447930 0.357588 0.682541
Si Si2 0.203725 0.229831 0.678069
Si Si3 0.314947 0.000000 0.500000
Si Si4 0.709466 0.377548 0.679312
Si Si5 0.804971 0.604819 0.835376
Si Si6 0.553415 0.758153 0.678666
Si Si7 0.376054 0.442090 0.682378
Si Si8 0.868913 0.318972 0.323130
O O1 0.447301 0.357320 0.500000
O O2 0.500000 0.367179 0.726994
O O3 0.435046 0.299942 0.728911
O O4 0.413657 0.401381 0.733443
O O5 0.209011 0.223704 0.500000
O O6 0.250000 0.250000 0.750000
O O7 0.192701 0.175983 0.753757
O O8 0.165627 0.272124 0.704819
O O9 0.313508 0.045722 0.372150
O O10 0.710966 0.373937 0.500000
O O11 0.759288 0.387953 0.741861
O O12 0.673471 0.421057 0.722672
O O13 0.846709 0.632452 0.756664
O O14 0.797842 0.629724 0.000000
O O15 0.561193 0.760848 0.500000
O O16 0.500000 0.764862 0.704433
O O17 0.583625 0.800069 0.758862
O O18 0.377976 0.442641 0.500000
O O19 0.383496 0.500000 0.734270
O O20 0.871547 0.327634 0.500000
#
# Coordination Sequence:
#
# PCOD9523317 Si02
#       8
#    16  16   4  16  16  16  16  16
#     4   8  14  27  46  68  98 137 181 225 271 323
#     4  11  22  34  50  77 110 147 184 227 278 344
#     4   8  24  40  58  80 101 142 195 228 266 322
#     4  11  21  33  50  74 108 145 186 232 286 334
#     4  10  21  38  57  76 102 141 184 226 265 323
#     4   9  18  33  55  83 113 148 183 218 271 339
#     4   9  18  28  41  66  98 137 184 234 282 320
#     4  11  22  35  55  84 115 145 182 223 281 336
#
# _framework density 16.745674000000001
#
# number of rings (size 3 to 8) (size 9 to 14) (size 15 to 20)
#    0.414    1.793    1.379    3.310    0.966    3.310 
#    0.000    2.414    0.000    0.000    0.000    0.966 
#    0.000    1.103    0.000   16.621    0.000   14.621 
#
# Total GULP energy -322889.546183 kJ/mol
# GULP energy per Si atom -5567.061141 kJ/mol
# Density = 1.670756 g / cm^3
# Si number density = 16.745674 Si / 1000 Ang^3
#
#
#
# Elastic Constant Matrix: (Units=GPa)
#
#
# Indices 1 2 3 4 5 6 
#
# 1 51.9668 34.5830 27.4693 0.0000 0.0000 0.0000
# 2 34.5830 107.2327 39.9975 0.0000 0.0000 0.0000
# 3 27.4693 39.9975 48.2321 0.0000 0.0000 0.0000
# 4 0.0000 0.0000 0.0000 21.5782 0.0000 0.0000
# 5 0.0000 0.0000 0.0000 0.0000 20.2482 0.0000
# 6 0.0000 0.0000 0.0000 0.0000 0.0000 20.6266
#
#
#
# Elastic Compliance Matrix: (Units=1/GPa)
#
#
# Indices 1 2 3 4 5 6 
#
# 1 0.029035 -0.004627 -0.012699 0.000000 0.000000 0.000000
# 2 -0.004627 0.014239 -0.009173 0.000000 0.000000 0.000000
# 3 -0.012699 -0.009173 0.035572 0.000000 0.000000 0.000000
# 4 0.000000 0.000000 0.000000 0.046343 0.000000 0.000000
# 5 0.000000 0.000000 0.000000 0.000000 0.049387 0.000000
# 6 0.000000 0.000000 0.000000 0.000000 0.000000 0.048481
#
#
# Mechanical properties :
#
#
# Convention : Reuss Voigt Hill
#
# Bulk Modulus (GPa) = 38.68702 45.72567 42.20634
# Shear Modulus (GPa) = 17.56409 19.51605 18.54007
#
# Velocity S-wave (km/s) = 3.24214 3.41756 3.33100
# Velocity P-wave (km/s) = 6.09657 6.55272 6.32876
#
# Compressibility (1/GPa) = 0.02584846
#
# Stress axis : x y z
#
# Youngs Moduli (GPa) = 34.44127 70.22824 28.11186
#
# Poissons Ratio (x) = 0.32497 0.35699
# Poissons Ratio (y) = 0.15937 0.25787
# Poissons Ratio (z) = 0.43736 0.64420
#
# Static dielectric constant tensor:
#      x y z
#    x 1.560350 0.000000 0.000000 
#    y 0.000000 1.559750 0.000000 
#    z 0.000000 0.000000 1.575620 
# 
# From -- ./inp_files/17520.got.cif
#   From: 2010.05.17/outbox.cif.g08.bks.cpg/sg71_9_cif.got.tgz:17520.got - 2010.06.03 16:22:01.
