data_PCOD9523737
_publ_section_title
;
Structure prediction by ZEFSAII (Michael W. Deem and Ramdas Pophale) SiO2 
 PCOD9523737
Probable space group: I M M M
;
_chemical_formula_sum "Si O2"
_cell_formula_units_Z 72
_cell_length_a 16.938263
_cell_length_b 15.205650
_cell_length_c 14.032797
_cell_angle_alpha 90.000000
_cell_angle_beta 90.000000
_cell_angle_gamma 90.000000
_cell_volume 3614.249290
_symmetry_space_group_name_H-M "I M M M"
_symmetry_group_IT_number 71
_symmetry_cell_setting 'orthorhombic'
loop_
_space_group_symop_operation_xyz
x,y,z
-x,-y,z
x,-y,-z
-x,y,-z
-x,-y,-z
x,y,-z
-x,y,z
x,-y,z
1/2+x,1/2+y,1/2+z
1/2-x,1/2-y,1/2+z
1/2+x,1/2-y,1/2-z
1/2-x,1/2+y,1/2-z
1/2-x,1/2-y,1/2-z
1/2+x,1/2+y,1/2-z
1/2-x,1/2+y,1/2+z
1/2+x,1/2-y,1/2+z
loop_
_atom_site_type_symbol
_atom_site_label
_atom_site_fract_x
_atom_site_fract_y
_atom_site_fract_z
Si Si1 0.237530 0.657455 0.000000
Si Si2 0.084316 0.723295 0.289385
Si Si3 0.092729 0.800642 0.000000
Si Si4 0.411019 0.744054 0.000000
Si Si5 0.791764 0.404639 0.208684
Si Si6 0.877717 0.899213 0.801058
O O1 0.164183 0.728401 0.000000
O O2 0.327325 0.694018 0.000000
O O3 0.230351 0.604349 0.098088
O O4 0.090613 0.703629 0.401026
O O5 0.153227 0.676412 0.233898
O O6 0.088421 0.828075 0.273251
O O7 0.000000 0.692372 0.252046
O O8 0.104327 0.859701 0.094835
O O9 0.000000 0.768740 0.000000
O O10 0.500000 0.700333 0.000000
O O11 0.830083 0.500000 0.224765
O O12 0.714981 0.399737 0.275491
O O13 0.905391 0.000000 0.792624
#
# Coordination Sequence:
#
# PCOD9523737 Si02
#       6
#     8  16   8   8  16  16
#     4  12  21  41  68  91 130 170 209 265 318 370
#     4  11  22  41  64  92 128 165 211 265 319 376
#     4  12  25  39  63  98 132 169 209 256 319 386
#     4  10  22  39  67  97 122 162 214 267 321 375
#     4  11  24  41  65  94 125 170 217 259 313 377
#     4  11  23  40  63  90 125 168 211 255 312 377
#
# _framework density 19.921149
#
# number of rings (size 3 to 8) (size 9 to 14) (size 15 to 20)
#    0.000    0.889    4.444    3.333    0.000    2.667 
#    0.000    2.222    0.000    7.333    0.000    0.000 
#    0.000    0.000    0.000    0.000    0.000    0.000 
#
# Total GULP energy -200739.976693 kJ/mol
# GULP energy per Si atom -5576.110464 kJ/mol
# Density = 1.987581 g / cm^3
# Si number density = 19.921149 Si / 1000 Ang^3
#
#
#
# Elastic Constant Matrix: (Units=GPa)
#
#
# Indices 1 2 3 4 5 6 
#
# 1 121.1140 44.7527 19.7407 0.0000 0.0000 0.0000
# 2 44.7527 74.8152 3.7203 0.0000 0.0000 0.0000
# 3 19.7407 3.7203 94.3674 0.0000 0.0000 0.0000
# 4 0.0000 0.0000 0.0000 11.4375 0.0000 0.0000
# 5 0.0000 0.0000 0.0000 0.0000 -50.0652 0.0000
# 6 0.0000 0.0000 0.0000 0.0000 0.0000 -2.2931
#
#
#
# Elastic Compliance Matrix: (Units=1/GPa)
#
#
# Indices 1 2 3 4 5 6 
#
# 1 0.010979 -0.006466 -0.002042 0.000000 0.000000 0.000000
# 2 -0.006466 0.017200 0.000674 0.000000 0.000000 0.000000
# 3 -0.002042 0.000674 0.010997 0.000000 0.000000 0.000000
# 4 0.000000 0.000000 0.000000 0.087432 0.000000 0.000000
# 5 0.000000 0.000000 0.000000 0.000000 -0.019974 0.000000
# 6 0.000000 0.000000 0.000000 0.000000 0.000000 -0.436091
#
#
# Mechanical properties :
#
#
# Convention : Reuss Voigt Hill
#
# Bulk Modulus (GPa) = 42.53411 47.41375 44.97393
# Shear Modulus (GPa) = -16.34232 6.62137 -4.86048
#
# Velocity S-wave (km/s) = -2.86728 1.82510 -1.56370
# Velocity P-wave (km/s) = 3.23045 5.31918 4.40054
#
# Compressibility (1/GPa) = 0.02351054
#
# Stress axis : x y z
#
# Youngs Moduli (GPa) = 91.08664 58.13853 90.93066
#
# Poissons Ratio (x) = 0.37590 0.18565
# Poissons Ratio (y) = 0.58893 -0.06133
# Poissons Ratio (z) = 0.18597 -0.03921
#
# Static dielectric constant tensor:
#      x y z
#    x 1.726640 0.000000 0.000000 
#    y 0.000000 1.687760 0.000000 
#    z 0.000000 0.000000 1.688760 
# 
# From -- ./inp_files/36097.got.cif
#   From: 2010.05.17/outbox.cif.g08.bks.cpg/sg71_19_cif.got.tgz:36097.got - 2010.06.03 16:22:01.
