data_PCOD9523493
_publ_section_title
;
Structure prediction by ZEFSAII (Michael W. Deem and Ramdas Pophale) SiO2 
 PCOD9523493
Probable space group: I M M M
;
_chemical_formula_sum "Si O2"
_cell_formula_units_Z 64
_cell_length_a 27.067294
_cell_length_b 8.793298
_cell_length_c 13.872555
_cell_angle_alpha 90.000000
_cell_angle_beta 90.000000
_cell_angle_gamma 90.000000
_cell_volume 3301.817667
_symmetry_space_group_name_H-M "I M M M"
_symmetry_group_IT_number 71
_symmetry_cell_setting 'orthorhombic'
loop_
_space_group_symop_operation_xyz
x,y,z
-x,-y,z
x,-y,-z
-x,y,-z
-x,-y,-z
x,y,-z
-x,y,z
x,-y,z
1/2+x,1/2+y,1/2+z
1/2-x,1/2-y,1/2+z
1/2+x,1/2-y,1/2-z
1/2-x,1/2+y,1/2-z
1/2-x,1/2-y,1/2-z
1/2+x,1/2+y,1/2-z
1/2-x,1/2+y,1/2+z
1/2+x,1/2-y,1/2+z
loop_
_atom_site_type_symbol
_atom_site_label
_atom_site_fract_x
_atom_site_fract_y
_atom_site_fract_z
Si Si1 0.080446 0.324715 0.500000
Si Si2 0.056762 0.182345 0.290473
Si Si3 0.198233 0.323498 0.500000
Si Si4 0.232428 0.680502 0.848750
Si Si5 0.375046 0.316100 0.608915
O O1 0.063697 0.500000 0.500000
O O2 0.065001 0.249754 0.397921
O O3 0.139760 0.320797 0.500000
O O4 0.092591 0.234104 0.202380
O O5 0.000000 0.214039 0.262763
O O6 0.062895 0.000000 0.298756
O O7 0.214492 0.500000 0.500000
O O8 0.222385 0.233237 0.586255
O O9 0.227309 0.500000 0.846722
O O10 0.250000 0.750000 0.750000
O O11 0.180286 0.751516 0.880873
O O12 0.393388 0.275012 0.500000
O O13 0.373244 0.500000 0.612363
#
# Coordination Sequence:
#
# PCOD9523493 Si02
#       5
#     8  16   8  16  16
#     4  11  24  40  61  90 122 159 205 260 317 372
#     4  10  22  40  63  91 122 161 208 257 310 369
#     4  11  23  40  60  87 121 157 200 248 301 365
#     4  12  24  38  59  88 122 162 204 249 300 363
#     4  10  21  39  63  90 125 164 204 254 308 368
#
# _framework density 19.383262999999999
#
# number of rings (size 3 to 8) (size 9 to 14) (size 15 to 20)
#    0.000    1.250    1.250    4.875    0.000    9.500 
#    0.000    2.500    0.000    0.000    0.000    3.500 
#    0.000    0.000    0.000    0.000    0.000    0.000 
#
# Total GULP energy -178515.978480 kJ/mol
# GULP energy per Si atom -5578.624328 kJ/mol
# Density = 1.933915 g / cm^3
# Si number density = 19.383263 Si / 1000 Ang^3
#
#
#
# Elastic Constant Matrix: (Units=GPa)
#
#
# Indices 1 2 3 4 5 6 
#
# 1 82.8389 27.3673 34.8000 0.0000 0.0000 0.0000
# 2 27.3673 50.8514 35.0710 0.0000 0.0000 0.0000
# 3 34.8000 35.0710 145.2020 0.0000 0.0000 0.0000
# 4 0.0000 0.0000 0.0000 18.5447 0.0000 0.0000
# 5 0.0000 0.0000 0.0000 0.0000 41.8106 0.0000
# 6 0.0000 0.0000 0.0000 0.0000 0.0000 23.4817
#
#
#
# Elastic Compliance Matrix: (Units=1/GPa)
#
#
# Indices 1 2 3 4 5 6 
#
# 1 0.015148 -0.006778 -0.001993 0.000000 0.000000 0.000000
# 2 -0.006778 0.026628 -0.004807 0.000000 0.000000 0.000000
# 3 -0.001993 -0.004807 0.008526 0.000000 0.000000 0.000000
# 4 0.000000 0.000000 0.000000 0.053924 0.000000 0.000000
# 5 0.000000 0.000000 0.000000 0.000000 0.023917 0.000000
# 6 0.000000 0.000000 0.000000 0.000000 0.000000 0.042586
#
#
# Mechanical properties :
#
#
# Convention : Reuss Voigt Hill
#
# Bulk Modulus (GPa) = 43.20489 52.59655 47.90072
# Shear Modulus (GPa) = 24.31890 28.87767 26.59828
#
# Velocity S-wave (km/s) = 3.54592 3.86401 3.70838
# Velocity P-wave (km/s) = 6.25323 6.86305 6.56522
#
# Compressibility (1/GPa) = 0.02314553
#
# Stress axis : x y z
#
# Youngs Moduli (GPa) = 66.01451 37.55427 117.29069
#
# Poissons Ratio (x) = 0.25453 0.23382
# Poissons Ratio (y) = 0.44742 0.56384
# Poissons Ratio (z) = 0.13160 0.18053
#
# Static dielectric constant tensor:
#      x y z
#    x 1.650910 0.000000 0.000000 
#    y 0.000000 1.656390 0.000000 
#    z 0.000000 0.000000 1.664440 
# 
# From -- ./inp_files/38792.got.cif
#   From: 2010.05.17/outbox.cif.g08.bks.cpg/sg71_20_cif.got.tgz:38792.got - 2010.06.03 16:22:01.
