data_PCOD9523736
_publ_section_title
;
Structure prediction by ZEFSAII (Michael W. Deem and Ramdas Pophale) SiO2 
 PCOD9523736
Probable space group: I M M M
;
_chemical_formula_sum "Si O2"
_cell_formula_units_Z 74
_cell_length_a 13.691773
_cell_length_b 10.360367
_cell_length_c 27.605732
_cell_angle_alpha 90.000000
_cell_angle_beta 90.000000
_cell_angle_gamma 90.000000
_cell_volume 3915.922586
_symmetry_space_group_name_H-M "I M M M"
_symmetry_group_IT_number 71
_symmetry_cell_setting 'orthorhombic'
loop_
_space_group_symop_operation_xyz
x,y,z
-x,-y,z
x,-y,-z
-x,y,-z
-x,-y,-z
x,y,-z
-x,y,z
x,-y,z
1/2+x,1/2+y,1/2+z
1/2-x,1/2-y,1/2+z
1/2+x,1/2-y,1/2-z
1/2-x,1/2+y,1/2-z
1/2-x,1/2-y,1/2-z
1/2+x,1/2+y,1/2-z
1/2-x,1/2+y,1/2+z
1/2+x,1/2-y,1/2+z
loop_
_atom_site_type_symbol
_atom_site_label
_atom_site_fract_x
_atom_site_fract_y
_atom_site_fract_z
Si Si1 0.000000 0.000000 0.000000
Si Si2 0.616400 0.500000 0.942922
Si Si3 0.322497 0.000000 0.257314
Si Si4 0.200717 0.859082 0.000000
Si Si5 0.391323 0.500000 0.268038
Si Si6 0.882611 0.500000 0.355179
Si Si7 0.389498 0.770616 0.676018
Si Si8 0.219357 0.248435 0.598698
O O1 0.913509 0.890498 0.000000
O O2 0.500000 0.500000 0.943651
O O3 0.654184 0.374506 0.914436
O O4 0.649030 0.500000 0.000000
O O5 0.368204 0.125687 0.282177
O O6 0.205109 0.000000 0.264732
O O7 0.345387 0.000000 0.200365
O O8 0.231333 0.789075 0.951557
O O9 0.251576 0.000000 0.000000
O O10 0.500000 0.500000 0.244826
O O11 0.384925 0.372479 0.301169
O O12 0.840422 0.370919 0.380476
O O13 0.000000 0.500000 0.356244
O O14 0.500000 0.789746 0.657198
O O15 0.305601 0.783936 0.636289
#
# Coordination Sequence:
#
# PCOD9523736 Si02
#       8
#     2   8   8   8   8   8  16  16
#     4   8  20  36  64 106 130 168 208 278 344 372
#     4  11  25  45  66  89 131 178 215 272 338 395
#     4  12  23  46  61  95 136 169 215 275 320 381
#     4  10  22  39  66  99 135 166 216 280 328 384
#     4  10  22  40  64  95 123 169 215 259 319 386
#     4  12  25  41  68  97 128 170 225 277 329 394
#     4  11  24  41  67  92 130 174 214 263 331 391
#     4  12  23  45  66  98 131 171 223 274 332 401
#
# _framework density 18.897207000000002
#
# number of rings (size 3 to 8) (size 9 to 14) (size 15 to 20)
#    0.324    0.541    4.324    2.919    1.514    0.000 
#    1.946    2.703    0.000    1.297    0.000    0.000 
#    0.000    0.000    0.000    0.000    0.000    0.000 
#
# Total GULP energy -206412.297031 kJ/mol
# GULP energy per Si atom -5578.710731 kJ/mol
# Density = 1.885420 g / cm^3
# Si number density = 18.897207 Si / 1000 Ang^3
#
#
#
# Elastic Constant Matrix: (Units=GPa)
#
#
# Indices 1 2 3 4 5 6 
#
# 1 155.6397 64.2556 45.1442 0.0000 0.0000 0.0000
# 2 64.2556 156.7424 77.7988 0.0000 0.0000 0.0000
# 3 45.1442 77.7988 90.8532 0.0000 0.0000 0.0000
# 4 0.0000 0.0000 0.0000 28.8968 0.0000 0.0000
# 5 0.0000 0.0000 0.0000 0.0000 -7.6798 0.0000
# 6 0.0000 0.0000 0.0000 0.0000 0.0000 13.6490
#
#
#
# Elastic Compliance Matrix: (Units=1/GPa)
#
#
# Indices 1 2 3 4 5 6 
#
# 1 0.007940 -0.002255 -0.002014 0.000000 0.000000 0.000000
# 2 -0.002255 0.011737 -0.008930 0.000000 0.000000 0.000000
# 3 -0.002014 -0.008930 0.019654 0.000000 0.000000 0.000000
# 4 0.000000 0.000000 0.000000 0.034606 0.000000 0.000000
# 5 0.000000 0.000000 0.000000 0.000000 -0.130212 0.000000
# 6 0.000000 0.000000 0.000000 0.000000 0.000000 0.073266
#
#
# Mechanical properties :
#
#
# Convention : Reuss Voigt Hill
#
# Bulk Modulus (GPa) = 77.32232 86.40359 81.86295
# Shear Modulus (GPa) = 104.82094 21.37564 63.09829
#
# Velocity S-wave (km/s) = 7.45583 3.36691 5.78470
# Velocity P-wave (km/s) = 10.72965 7.80621 9.38249
#
# Compressibility (1/GPa) = 0.01293288
#
# Stress axis : x y z
#
# Youngs Moduli (GPa) = 125.93711 85.20325 50.87990
#
# Poissons Ratio (x) = 0.19217 0.10248
# Poissons Ratio (y) = 0.28404 0.45434
# Poissons Ratio (z) = 0.25367 0.76083
#
# Static dielectric constant tensor:
#      x y z
#    x 1.648550 0.000000 0.000000 
#    y 0.000000 1.653390 0.000000 
#    z 0.000000 0.000000 1.639620 
# 
# From -- ./inp_files/69767.got.cif
#   From: 2010.05.17/outbox.cif.g08.bks.cpg/sg71_35_cif.got.tgz:69767.got - 2010.06.03 16:22:01.
