data_PCOD9523912
_publ_section_title
;
Structure prediction by ZEFSAII (Michael W. Deem and Ramdas Pophale) SiO2 
 PCOD9523912
Probable space group: I M M M
;
_chemical_formula_sum "Si O2"
_cell_formula_units_Z 44
_cell_length_a 7.965583
_cell_length_b 10.115356
_cell_length_c 25.583128
_cell_angle_alpha 90.000000
_cell_angle_beta 90.000000
_cell_angle_gamma 90.000000
_cell_volume 2061.353063
_symmetry_space_group_name_H-M "I M M M"
_symmetry_group_IT_number 71
_symmetry_cell_setting 'orthorhombic'
loop_
_space_group_symop_operation_xyz
x,y,z
-x,-y,z
x,-y,-z
-x,y,-z
-x,-y,-z
x,y,-z
-x,y,z
x,-y,z
1/2+x,1/2+y,1/2+z
1/2-x,1/2-y,1/2+z
1/2+x,1/2-y,1/2-z
1/2-x,1/2+y,1/2-z
1/2-x,1/2-y,1/2-z
1/2+x,1/2+y,1/2-z
1/2-x,1/2+y,1/2+z
1/2+x,1/2-y,1/2+z
loop_
_atom_site_type_symbol
_atom_site_label
_atom_site_fract_x
_atom_site_fract_y
_atom_site_fract_z
Si Si1 0.301077 0.292742 0.589061
Si Si2 0.798129 0.854553 0.793438
Si Si3 0.207150 0.500000 0.500000
Si Si4 0.806642 0.000000 0.437395
O O1 0.500000 0.325216 0.584302
O O2 0.240893 0.323668 0.647650
O O3 0.213391 0.383835 0.545738
O O4 0.277182 0.136759 0.580016
O O5 0.750000 0.750000 0.750000
O O6 0.000000 0.856152 0.796174
O O7 0.737540 0.000000 0.778188
O O8 0.804854 0.000000 0.500000
O O9 0.000000 0.000000 0.419215
#
# Coordination Sequence:
#
# PCOD9523912 Si02
#       4
#    16  16   4   8
#     4  11  22  40  67  94 121 160 209 260 313 373
#     4  10  23  42  63  91 124 161 208 258 308 368
#     4  12  21  38  71 100 123 156 205 266 321 364
#     4  11  25  41  56  86 129 166 198 243 308 377
#
# _framework density 21.345203000000001
#
# number of rings (size 3 to 8) (size 9 to 14) (size 15 to 20)
#    0.000    1.273    3.636    2.182    2.545    2.909 
#    0.000    1.818    0.000    0.000    0.000    0.000 
#    0.000    0.000    0.000    0.000    0.000    0.000 
#
# Total GULP energy -122483.257404 kJ/mol
# GULP energy per Si atom -5567.420791 kJ/mol
# Density = 2.129662 g / cm^3
# Si number density = 21.345203 Si / 1000 Ang^3
#
#
#
# Elastic Constant Matrix: (Units=GPa)
#
#
# Indices 1 2 3 4 5 6 
#
# 1 34.1195 5.8059 17.1006 0.0000 0.0000 0.0000
# 2 5.8059 227.6337 111.4883 0.0000 0.0000 0.0000
# 3 17.1006 111.4883 201.6707 0.0000 0.0000 0.0000
# 4 0.0000 0.0000 0.0000 43.4601 0.0000 0.0000
# 5 0.0000 0.0000 0.0000 0.0000 -133.0472 0.0000
# 6 0.0000 0.0000 0.0000 0.0000 0.0000 4.5678
#
#
#
# Elastic Compliance Matrix: (Units=1/GPa)
#
#
# Indices 1 2 3 4 5 6 
#
# 1 0.030685 0.000674 -0.002975 0.000000 0.000000 0.000000
# 2 0.000674 0.006039 -0.003396 0.000000 0.000000 0.000000
# 3 -0.002975 -0.003396 0.007088 0.000000 0.000000 0.000000
# 4 0.000000 0.000000 0.000000 0.023010 0.000000 0.000000
# 5 0.000000 0.000000 0.000000 0.000000 -0.007516 0.000000
# 6 0.000000 0.000000 0.000000 0.000000 0.000000 0.218921
#
#
# Mechanical properties :
#
#
# Convention : Reuss Voigt Hill
#
# Bulk Modulus (GPa) = 30.84541 81.35706 56.10124
# Shear Modulus (GPa) = 16.64307 4.93141 10.78724
#
# Velocity S-wave (km/s) = 2.79536 1.52162 2.25048
# Velocity P-wave (km/s) = 4.99007 6.42532 5.75263
#
# Compressibility (1/GPa) = 0.03241974
#
# Stress axis : x y z
#
# Youngs Moduli (GPa) = 32.58934 165.59306 141.08366
#
# Poissons Ratio (x) = -0.11166 0.41968
# Poissons Ratio (y) = -0.02197 0.47907
# Poissons Ratio (z) = 0.09694 0.56229
#
# Static dielectric constant tensor:
#      x y z
#    x 1.848920 0.000000 0.000000 
#    y 0.000000 1.762680 0.000000 
#    z 0.000000 0.000000 1.727460 
# 
# From -- ./inp_files/58368.got.cif
#   From: 2010.05.17/outbox.cif.g08.bks.cpg/sg71_30_cif.got.tgz:58368.got - 2010.06.03 16:22:01.
