data_PCOD9523835
_publ_section_title
;
Structure prediction by ZEFSAII (Michael W. Deem and Ramdas Pophale) SiO2 
 PCOD9523835
Probable space group: I M M M
;
_chemical_formula_sum "Si O2"
_cell_formula_units_Z 90
_cell_length_a 25.386601
_cell_length_b 8.078430
_cell_length_c 20.959812
_cell_angle_alpha 90.000000
_cell_angle_beta 90.000000
_cell_angle_gamma 90.000000
_cell_volume 4298.519551
_symmetry_space_group_name_H-M "I M M M"
_symmetry_group_IT_number 71
_symmetry_cell_setting 'orthorhombic'
loop_
_space_group_symop_operation_xyz
x,y,z
-x,-y,z
x,-y,-z
-x,y,-z
-x,-y,-z
x,y,-z
-x,y,z
x,-y,z
1/2+x,1/2+y,1/2+z
1/2-x,1/2-y,1/2+z
1/2+x,1/2-y,1/2-z
1/2-x,1/2+y,1/2-z
1/2-x,1/2-y,1/2-z
1/2+x,1/2+y,1/2-z
1/2-x,1/2+y,1/2+z
1/2+x,1/2-y,1/2+z
loop_
_atom_site_type_symbol
_atom_site_label
_atom_site_fract_x
_atom_site_fract_y
_atom_site_fract_z
Si Si1 0.790482 0.694670 0.928615
Si Si2 0.500000 0.000000 0.000000
Si Si3 0.387232 0.304061 0.141523
Si Si4 0.593409 0.303009 0.572074
Si Si5 0.721305 0.192145 0.814138
Si Si6 0.000000 0.202989 0.161788
Si Si7 0.500000 0.297995 0.191278
Si Si8 0.587520 0.698259 0.000000
O O1 0.799918 0.500000 0.932678
O O2 0.846245 0.773653 0.909340
O O3 0.746781 0.723175 0.875806
O O4 0.776613 0.756072 0.000000
O O5 0.454626 0.151825 0.000000
O O6 0.385899 0.500000 0.155443
O O7 0.341060 0.224350 0.182663
O O8 0.446084 0.242020 0.157928
O O9 0.380181 0.283780 0.065605
O O10 0.585734 0.235739 0.500000
O O11 0.584998 0.500000 0.568416
O O12 0.551325 0.239886 0.622917
O O13 0.750000 0.250000 0.750000
O O14 0.731550 0.000000 0.820763
O O15 0.000000 0.254056 0.235161
O O16 0.000000 0.000000 0.163098
O O17 0.500000 0.500000 0.187833
O O18 0.568108 0.500000 0.000000
#
# Coordination Sequence:
#
# PCOD9523835 Si02
#       8
#    16   2  16  16  16   8   8   8
#     4  10  22  41  65  92 126 167 211 262 320 380
#     4  12  22  36  72 102 144 176 242 280 350 412
#     4  10  22  43  67  94 130 172 220 268 335 401
#     4   9  17  31  54  85 120 158 203 252 305 366
#     4  12  27  45  68  96 130 170 217 274 335 402
#     4   9  17  29  52  86 120 158 201 252 306 366
#     4   9  19  35  59  89 122 163 206 252 312 386
#     4  10  23  41  67 100 139 185 226 288 350 409
#
# _framework density 20.937441
#
# number of rings (size 3 to 8) (size 9 to 14) (size 15 to 20)
#    0.000    1.956    0.000    3.067    4.978    3.556 
#    0.000    0.444    0.000    3.200    0.000    0.000 
#    0.000    0.000    0.000    0.000    0.000    0.000 
#
# Total GULP energy -250964.878511 kJ/mol
# GULP energy per Si atom -5576.997300 kJ/mol
# Density = 2.088979 g / cm^3
# Si number density = 20.937441 Si / 1000 Ang^3
#
#
#
# Elastic Constant Matrix: (Units=GPa)
#
#
# Indices 1 2 3 4 5 6 
#
# 1 96.8476 -10.2520 64.6572 0.0000 0.0000 0.0000
# 2 -10.2520 41.8736 1.1693 0.0000 0.0000 0.0000
# 3 64.6572 1.1693 89.1479 0.0000 0.0000 0.0000
# 4 0.0000 0.0000 0.0000 16.6559 0.0000 0.0000
# 5 0.0000 0.0000 0.0000 0.0000 24.9879 0.0000
# 6 0.0000 0.0000 0.0000 0.0000 0.0000 -392.4289
#
#
#
# Elastic Compliance Matrix: (Units=1/GPa)
#
#
# Indices 1 2 3 4 5 6 
#
# 1 0.021272 0.005641 -0.015502 0.000000 0.000000 0.000000
# 2 0.005641 0.025386 -0.004424 0.000000 0.000000 0.000000
# 3 -0.015502 -0.004424 0.022519 0.000000 0.000000 0.000000
# 4 0.000000 0.000000 0.000000 0.060039 0.000000 0.000000
# 5 0.000000 0.000000 0.000000 0.000000 0.040019 0.000000
# 6 0.000000 0.000000 0.000000 0.000000 0.000000 -0.002548
#
#
# Mechanical properties :
#
#
# Convention : Reuss Voigt Hill
#
# Bulk Modulus (GPa) = 24.62691 37.66867 31.14779
# Shear Modulus (GPa) = 23.94710 -58.67071 -17.36180
#
# Velocity S-wave (km/s) = 3.38560 -5.29932 -2.88275
# Velocity P-wave (km/s) = 5.20295 4.40608 1.95668
#
# Compressibility (1/GPa) = 0.04060599
#
# Stress axis : x y z
#
# Youngs Moduli (GPa) = 47.00954 39.39172 44.40721
#
# Poissons Ratio (x) = -0.22221 0.68842
# Poissons Ratio (y) = -0.26518 0.19647
# Poissons Ratio (z) = 0.72876 0.17428
#
# Static dielectric constant tensor:
#      x y z
#    x 1.745100 0.000000 0.000000 
#    y 0.000000 1.759290 0.000000 
#    z 0.000000 0.000000 1.743230 
# 
# From -- ./inp_files/55647.got.cif
#   From: 2010.05.17/outbox.cif.g08.bks.cpg/sg71_28_cif.got.tgz:55647.got - 2010.06.03 16:22:01.
