data_PCOD9523467
_publ_section_title
;
Structure prediction by ZEFSAII (Michael W. Deem and Ramdas Pophale) SiO2 
 PCOD9523467
Probable space group: I M M M
;
_chemical_formula_sum "Si O2"
_cell_formula_units_Z 82
_cell_length_a 26.092808
_cell_length_b 7.329797
_cell_length_c 20.080541
_cell_angle_alpha 90.000000
_cell_angle_beta 90.000000
_cell_angle_gamma 90.000000
_cell_volume 3840.503584
_symmetry_space_group_name_H-M "I M M M"
_symmetry_group_IT_number 71
_symmetry_cell_setting 'orthorhombic'
loop_
_space_group_symop_operation_xyz
x,y,z
-x,-y,z
x,-y,-z
-x,y,-z
-x,-y,-z
x,y,-z
-x,y,z
x,-y,z
1/2+x,1/2+y,1/2+z
1/2-x,1/2-y,1/2+z
1/2+x,1/2-y,1/2-z
1/2-x,1/2+y,1/2-z
1/2-x,1/2-y,1/2-z
1/2+x,1/2+y,1/2-z
1/2-x,1/2+y,1/2+z
1/2+x,1/2-y,1/2+z
loop_
_atom_site_type_symbol
_atom_site_label
_atom_site_fract_x
_atom_site_fract_y
_atom_site_fract_z
Si Si1 0.000000 0.723841 0.373626
Si Si2 0.910564 0.292198 0.273671
Si Si3 0.057823 0.277738 0.000000
Si Si4 0.000000 0.000000 0.500000
Si Si5 0.724868 0.777645 0.423050
Si Si6 0.206058 0.783427 0.306051
Si Si7 0.884158 0.723162 0.131816
O O1 0.949558 0.776436 0.329594
O O2 0.000000 0.500000 0.384599
O O3 0.000000 0.839251 0.441092
O O4 0.928010 0.500000 0.264528
O O5 0.850329 0.292564 0.292515
O O6 0.909148 0.208534 0.199824
O O7 0.085589 0.219783 0.066703
O O8 0.059277 0.500000 0.000000
O O9 0.000000 0.218372 0.000000
O O10 0.724381 0.717643 0.500000
O O11 0.772252 0.720525 0.377390
O O12 0.674282 0.721848 0.382252
O O13 0.724421 0.000000 0.424867
O O14 0.250000 0.750000 0.250000
O O15 0.199572 0.000000 0.308659
O O16 0.883752 0.500000 0.134742
#
# Coordination Sequence:
#
# PCOD9523467 Si02
#       7
#     8  16   8   2  16  16  16
#     4  10  25  47  73 103 133 169 215 277 348 415
#     4  10  21  39  61  89 125 162 209 266 333 394
#     4   9  16  22  38  75 115 153 198 239 286 342
#     4  12  26  52  84  94 128 162 230 276 356 420
#     4   9  16  29  47  74 109 149 194 244 300 359
#     4  11  21  34  56  86 121 161 210 261 322 384
#     4   9  15  26  47  75 115 158 194 245 302 363
#
# _framework density 21.351365999999999
#
# number of rings (size 3 to 8) (size 9 to 14) (size 15 to 20)
#    0.000    2.244    2.927    0.732    2.732    0.000 
#    1.756    0.000    0.000    1.756    0.000    0.000 
#    0.000    1.561    0.000    0.098    0.000    0.000 
#
# Total GULP energy -228525.475349 kJ/mol
# GULP energy per Si atom -5573.792082 kJ/mol
# Density = 2.130277 g / cm^3
# Si number density = 21.351366 Si / 1000 Ang^3
#
#
#
# Elastic Constant Matrix: (Units=GPa)
#
#
# Indices 1 2 3 4 5 6 
#
# 1 116.8600 3.3391 80.8424 0.0000 0.0000 0.0000
# 2 3.3391 101.5574 25.4701 0.0000 0.0000 0.0000
# 3 80.8424 25.4701 221.7381 0.0000 0.0000 0.0000
# 4 0.0000 0.0000 0.0000 2.2784 0.0000 0.0000
# 5 0.0000 0.0000 0.0000 0.0000 7.5187 0.0000
# 6 0.0000 0.0000 0.0000 0.0000 0.0000 9.4386
#
#
#
# Elastic Compliance Matrix: (Units=1/GPa)
#
#
# Indices 1 2 3 4 5 6 
#
# 1 0.011491 0.000693 -0.004269 0.000000 0.000000 0.000000
# 2 0.000693 0.010180 -0.001422 0.000000 0.000000 0.000000
# 3 -0.004269 -0.001422 0.006230 0.000000 0.000000 0.000000
# 4 0.000000 0.000000 0.000000 0.438912 0.000000 0.000000
# 5 0.000000 0.000000 0.000000 0.000000 0.133002 0.000000
# 6 0.000000 0.000000 0.000000 0.000000 0.000000 0.105948
#
#
# Mechanical properties :
#
#
# Convention : Reuss Voigt Hill
#
# Bulk Modulus (GPa) = 55.85174 73.27317 64.56246
# Shear Modulus (GPa) = 6.92783 25.88073 16.40428
#
# Velocity S-wave (km/s) = 1.80325 3.48535 2.77483
# Velocity P-wave (km/s) = 5.52728 7.11261 6.36946
#
# Compressibility (1/GPa) = 0.01790454
#
# Stress axis : x y z
#
# Youngs Moduli (GPa) = 87.02754 98.22709 160.52569
#
# Poissons Ratio (x) = -0.06805 0.68527
# Poissons Ratio (y) = -0.06029 0.22826
# Poissons Ratio (z) = 0.37151 0.13968
#
# Static dielectric constant tensor:
#      x y z
#    x 1.769860 0.000000 0.000000 
#    y 0.000000 1.875320 0.000000 
#    z 0.000000 0.000000 1.710570 
# 
# From -- ./inp_files/56094.got.cif
#   From: 2010.05.17/outbox.cif.g08.bks.cpg/sg71_29_cif.got.tgz:56094.got - 2010.06.03 16:22:01.
