data_PCOD9523296
_publ_section_title
;
Structure prediction by ZEFSAII (Michael W. Deem and Ramdas Pophale) SiO2 
 PCOD9523296
Probable space group: I M M M
;
_chemical_formula_sum "Si O2"
_cell_formula_units_Z 96
_cell_length_a 21.818353
_cell_length_b 15.429582
_cell_length_c 15.022418
_cell_angle_alpha 90.000000
_cell_angle_beta 90.000000
_cell_angle_gamma 90.000000
_cell_volume 5057.267977
_symmetry_space_group_name_H-M "I M M M"
_symmetry_group_IT_number 71
_symmetry_cell_setting 'orthorhombic'
loop_
_space_group_symop_operation_xyz
x,y,z
-x,-y,z
x,-y,-z
-x,y,-z
-x,-y,-z
x,y,-z
-x,y,z
x,-y,z
1/2+x,1/2+y,1/2+z
1/2-x,1/2-y,1/2+z
1/2+x,1/2-y,1/2-z
1/2-x,1/2+y,1/2-z
1/2-x,1/2-y,1/2-z
1/2+x,1/2+y,1/2-z
1/2-x,1/2+y,1/2+z
1/2+x,1/2-y,1/2+z
loop_
_atom_site_type_symbol
_atom_site_label
_atom_site_fract_x
_atom_site_fract_y
_atom_site_fract_z
Si Si1 0.216317 0.801742 0.000000
Si Si2 0.433193 0.267743 0.704694
Si Si3 0.067682 0.678828 0.500000
Si Si4 0.762530 0.598233 0.671061
Si Si5 0.841586 0.898177 0.694331
Si Si6 0.428943 0.702565 0.500000
Si Si7 0.592367 0.097767 0.187512
Si Si8 0.324030 0.322173 0.000000
O O1 0.242478 0.842092 0.909538
O O2 0.252488 0.708913 0.000000
O O3 0.143649 0.826133 0.000000
O O4 0.500000 0.306467 0.722969
O O5 0.385147 0.333038 0.750193
O O6 0.428044 0.255640 0.598329
O O7 0.429958 0.174095 0.749533
O O8 0.071949 0.620537 0.587747
O O9 0.126353 0.742839 0.500000
O O10 0.000000 0.722834 0.500000
O O11 0.748195 0.500000 0.642911
O O12 0.724562 0.615447 0.760109
O O13 0.834151 0.604176 0.688107
O O14 0.838037 0.873355 0.590897
O O15 0.858411 0.000000 0.704878
O O16 0.500000 0.660259 0.500000
O O17 0.574528 0.000000 0.211770
#
# Coordination Sequence:
#
# PCOD9523296 Si02
#       8
#     8  16   8  16  16   8  16   8
#     4  12  19  36  68  90 120 164 204 259 321 371
#     4  11  23  42  65  91 124 164 215 258 312 382
#     4  12  23  38  60  92 132 166 206 262 316 373
#     4  10  21  37  60  93 125 154 203 263 318 377
#     4  11  24  42  63  91 129 167 209 263 315 369
#     4  10  24  41  62  94 127 161 206 267 321 376
#     4  11  23  40  63  94 129 165 209 263 321 381
#     4  12  25  38  63  96 126 169 214 252 310 381
#
# _framework density 18.982582000000001
#
# number of rings (size 3 to 8) (size 9 to 14) (size 15 to 20)
#    0.000    1.000    5.000    1.250    2.333    4.667 
#    0.000    0.833    0.000    5.500    0.000    0.000 
#    0.000    0.000    0.000    0.000    0.000    0.000 
#
# Total GULP energy -267362.481186 kJ/mol
# GULP energy per Si atom -5570.051691 kJ/mol
# Density = 1.893938 g / cm^3
# Si number density = 18.982582 Si / 1000 Ang^3
#
#
#
# Elastic Constant Matrix: (Units=GPa)
#
#
# Indices 1 2 3 4 5 6 
#
# 1 106.4503 28.4497 24.6940 0.0000 0.0000 0.0000
# 2 28.4497 78.8433 57.6663 0.0000 0.0000 0.0000
# 3 24.6940 57.6663 147.5173 0.0000 0.0000 0.0000
# 4 0.0000 0.0000 0.0000 23.1054 0.0000 0.0000
# 5 0.0000 0.0000 0.0000 0.0000 96.5260 0.0000
# 6 0.0000 0.0000 0.0000 0.0000 0.0000 -50.1825
#
#
#
# Elastic Compliance Matrix: (Units=1/GPa)
#
#
# Indices 1 2 3 4 5 6 
#
# 1 0.010412 -0.003476 -0.000384 0.000000 0.000000 0.000000
# 2 -0.003476 0.018922 -0.006815 0.000000 0.000000 0.000000
# 3 -0.000384 -0.006815 0.009507 0.000000 0.000000 0.000000
# 4 0.000000 0.000000 0.000000 0.043280 0.000000 0.000000
# 5 0.000000 0.000000 0.000000 0.000000 0.010360 0.000000
# 6 0.000000 0.000000 0.000000 0.000000 0.000000 -0.019927
#
#
# Mechanical properties :
#
#
# Convention : Reuss Voigt Hill
#
# Bulk Modulus (GPa) = 57.17204 61.60343 59.38773
# Shear Modulus (GPa) = 50.13270 28.68985 39.41127
#
# Velocity S-wave (km/s) = 5.14463 3.89186 4.56146
# Velocity P-wave (km/s) = 8.09155 7.26075 7.68738
#
# Compressibility (1/GPa) = 0.01749107
#
# Stress axis : x y z
#
# Youngs Moduli (GPa) = 96.04125 52.84769 105.18289
#
# Poissons Ratio (x) = 0.18371 0.04040
# Poissons Ratio (y) = 0.33386 0.71683
# Poissons Ratio (z) = 0.03689 0.36016
#
# Static dielectric constant tensor:
#      x y z
#    x 1.725370 0.000000 0.000000 
#    y 0.000000 1.660990 0.000000 
#    z 0.000000 0.000000 1.628760 
# 
# From -- ./inp_files/37886.got.cif
#   From: 2010.05.17/outbox.cif.g08.bks.cpg/sg71_19_cif.got.tgz:37886.got - 2010.06.03 16:22:01.
