data_PCOD9523840
_publ_section_title
;
Structure prediction by ZEFSAII (Michael W. Deem and Ramdas Pophale) SiO2 
 PCOD9523840
Probable space group: I M M M
;
_chemical_formula_sum "Si O2"
_cell_formula_units_Z 72
_cell_length_a 24.090721
_cell_length_b 8.727693
_cell_length_c 18.009264
_cell_angle_alpha 90.000000
_cell_angle_beta 90.000000
_cell_angle_gamma 90.000000
_cell_volume 3786.563322
_symmetry_space_group_name_H-M "I M M M"
_symmetry_group_IT_number 71
_symmetry_cell_setting 'orthorhombic'
loop_
_space_group_symop_operation_xyz
x,y,z
-x,-y,z
x,-y,-z
-x,y,-z
-x,-y,-z
x,y,-z
-x,y,z
x,-y,z
1/2+x,1/2+y,1/2+z
1/2-x,1/2-y,1/2+z
1/2+x,1/2-y,1/2-z
1/2-x,1/2+y,1/2-z
1/2-x,1/2-y,1/2-z
1/2+x,1/2+y,1/2-z
1/2-x,1/2+y,1/2+z
1/2+x,1/2-y,1/2+z
loop_
_atom_site_type_symbol
_atom_site_label
_atom_site_fract_x
_atom_site_fract_y
_atom_site_fract_z
Si Si1 0.253359 0.317067 0.333071
Si Si2 0.566164 0.680019 0.500000
Si Si3 0.935391 0.315191 0.292732
Si Si4 0.854402 0.816406 0.586341
Si Si5 0.127898 0.316242 0.140535
O O1 0.251068 0.500000 0.329875
O O2 0.250000 0.250000 0.250000
O O3 0.201824 0.255094 0.380443
O O4 0.311891 0.260238 0.364929
O O5 0.580935 0.500000 0.500000
O O6 0.500000 0.693360 0.500000
O O7 0.590820 0.760105 0.572595
O O8 0.932892 0.500000 0.298907
O O9 0.904837 0.242386 0.363030
O O10 0.901600 0.272656 0.218249
O O11 0.000000 0.270784 0.286992
O O12 0.861134 0.774227 0.500000
O O13 0.850807 0.000000 0.591648
O O14 0.133719 0.500000 0.139400
#
# Coordination Sequence:
#
# PCOD9523840 Si02
#       5
#    16   8  16  16  16
#     4  12  24  41  66  95 127 163 208 259 318 381
#     4  11  25  43  63  93 133 175 218 265 318 379
#     4  10  22  41  66  94 124 164 213 262 317 380
#     4  11  25  43  64  93 129 169 214 263 319 378
#     4  11  23  41  66  95 127 168 215 265 321 380
#
# _framework density 19.014603000000001
#
# number of rings (size 3 to 8) (size 9 to 14) (size 15 to 20)
#    0.000    1.000    2.222    4.333    1.556    5.333 
#    0.000    2.222    0.000    0.000    0.000    0.000 
#    0.000    0.000    0.000    0.000    0.000    0.000 
#
# Total GULP energy -201424.084734 kJ/mol
# GULP energy per Si atom -5595.113465 kJ/mol
# Density = 1.897133 g / cm^3
# Si number density = 19.014603 Si / 1000 Ang^3
#
#
#
# Elastic Constant Matrix: (Units=GPa)
#
#
# Indices 1 2 3 4 5 6 
#
# 1 107.0275 29.0213 29.3713 0.0000 0.0000 0.0000
# 2 29.0213 57.5421 33.9536 0.0000 0.0000 0.0000
# 3 29.3713 33.9536 118.8598 0.0000 0.0000 0.0000
# 4 0.0000 0.0000 0.0000 35.2920 0.0000 0.0000
# 5 0.0000 0.0000 0.0000 0.0000 25.3482 0.0000
# 6 0.0000 0.0000 0.0000 0.0000 0.0000 35.0162
#
#
#
# Elastic Compliance Matrix: (Units=1/GPa)
#
#
# Indices 1 2 3 4 5 6 
#
# 1 0.011004 -0.004745 -0.001364 0.000000 0.000000 0.000000
# 2 -0.004745 0.022948 -0.005383 0.000000 0.000000 0.000000
# 3 -0.001364 -0.005383 0.010288 0.000000 0.000000 0.000000
# 4 0.000000 0.000000 0.000000 0.028335 0.000000 0.000000
# 5 0.000000 0.000000 0.000000 0.000000 0.039451 0.000000
# 6 0.000000 0.000000 0.000000 0.000000 0.000000 0.028558
#
#
# Mechanical properties :
#
#
# Convention : Reuss Voigt Hill
#
# Bulk Modulus (GPa) = 47.04399 52.01354 49.52877
# Shear Modulus (GPa) = 29.29916 31.87016 30.58466
#
# Velocity S-wave (km/s) = 3.92966 4.09845 4.01494
# Velocity P-wave (km/s) = 6.73679 7.05764 6.89908
#
# Compressibility (1/GPa) = 0.02125670
#
# Stress axis : x y z
#
# Youngs Moduli (GPa) = 90.87296 43.57663 97.20161
#
# Poissons Ratio (x) = 0.20679 0.13256
# Poissons Ratio (y) = 0.43123 0.52321
# Poissons Ratio (z) = 0.12392 0.23456
#
# Static dielectric constant tensor:
#      x y z
#    x 1.642770 0.000000 0.000000 
#    y 0.000000 1.640220 0.000000 
#    z 0.000000 0.000000 1.633320 
# 
# From -- ./inp_files/39949.got.cif
#   From: 2010.05.17/outbox.cif.g08.bks.cpg/sg71_20_cif.got.tgz:39949.got - 2010.06.03 16:22:01.
