data_PCOD9523579
_publ_section_title
;
Structure prediction by ZEFSAII (Michael W. Deem and Ramdas Pophale) SiO2 
 PCOD9523579
Probable space group: I M M M
;
_chemical_formula_sum "Si O2"
_cell_formula_units_Z 104
_cell_length_a 8.610608
_cell_length_b 27.801740
_cell_length_c 22.511761
_cell_angle_alpha 90.000000
_cell_angle_beta 90.000000
_cell_angle_gamma 90.000000
_cell_volume 5389.087874
_symmetry_space_group_name_H-M "I M M M"
_symmetry_group_IT_number 71
_symmetry_cell_setting 'orthorhombic'
loop_
_space_group_symop_operation_xyz
x,y,z
-x,-y,z
x,-y,-z
-x,y,-z
-x,-y,-z
x,y,-z
-x,y,z
x,-y,z
1/2+x,1/2+y,1/2+z
1/2-x,1/2-y,1/2+z
1/2+x,1/2-y,1/2-z
1/2-x,1/2+y,1/2-z
1/2-x,1/2-y,1/2-z
1/2+x,1/2+y,1/2-z
1/2-x,1/2+y,1/2+z
1/2+x,1/2-y,1/2+z
loop_
_atom_site_type_symbol
_atom_site_label
_atom_site_fract_x
_atom_site_fract_y
_atom_site_fract_z
Si Si1 0.683434 0.817177 0.377079
Si Si2 0.816726 0.140369 0.122638
Si Si3 0.812149 0.203925 0.500000
Si Si4 0.685891 0.076100 0.335840
Si Si5 0.685577 0.818109 0.000000
Si Si6 0.186176 0.000000 0.570049
Si Si7 0.818812 0.270204 0.689678
Si Si8 0.186862 0.554671 0.299311
O O1 0.500000 0.805367 0.371004
O O2 0.734598 0.821952 0.444428
O O3 0.713012 0.867093 0.343828
O O4 0.788087 0.773249 0.355156
O O5 0.770802 0.183373 0.167066
O O6 0.755145 0.092287 0.154029
O O7 0.000000 0.137635 0.115452
O O8 0.744342 0.155266 0.059227
O O9 0.769014 0.261231 0.500000
O O10 0.000000 0.200567 0.500000
O O11 0.500000 0.067613 0.338325
O O12 0.739482 0.062126 0.269339
O O13 0.758139 0.045427 0.389807
O O14 0.500000 0.818777 0.000000
O O15 0.239124 0.000000 0.500000
O O16 0.000000 0.000000 0.568612
O O17 0.750000 0.250000 0.750000
O O18 0.000000 0.281648 0.695022
O O19 0.223447 0.500000 0.316338
O O20 0.000000 0.560705 0.298843
#
# Coordination Sequence:
#
# PCOD9523579 Si02
#       8
#    16  16   8  16   8   8  16  16
#     4  11  23  38  61  92 124 160 205 255 307 371
#     4  12  25  41  66  98 132 170 212 268 331 395
#     4  11  23  39  61  87 124 172 212 256 311 375
#     4  10  22  42  66  92 122 166 215 263 318 381
#     4  11  23  43  68  94 127 175 222 265 322 391
#     4  11  25  41  59  89 125 166 213 268 325 379
#     4  12  24  40  61  90 126 165 208 255 311 376
#     4  10  21  42  70  96 126 167 216 269 327 391
#
# _framework density 19.298255999999999
#
# number of rings (size 3 to 8) (size 9 to 14) (size 15 to 20)
#    0.000    1.000    2.308    4.846    1.077    4.615 
#    0.000    0.385    0.000    2.308    0.000    0.000 
#    0.000    0.000    0.000    0.000    0.000    0.000 
#
# Total GULP energy -290606.299090 kJ/mol
# GULP energy per Si atom -5588.582675 kJ/mol
# Density = 1.925433 g / cm^3
# Si number density = 19.298256 Si / 1000 Ang^3
#
#
#
# Elastic Constant Matrix: (Units=GPa)
#
#
# Indices 1 2 3 4 5 6 
#
# 1 51.3049 37.0834 15.4972 0.0000 0.0000 0.0000
# 2 37.0834 101.1725 29.8988 0.0000 0.0000 0.0000
# 3 15.4972 29.8988 80.1112 0.0001 0.0000 0.0000
# 4 0.0000 0.0000 0.0001 40.3644 0.0000 0.0000
# 5 0.0000 0.0000 0.0000 0.0000 33.1860 0.0000
# 6 0.0000 0.0000 0.0000 0.0000 0.0000 16.8257
#
#
#
# Elastic Compliance Matrix: (Units=1/GPa)
#
#
# Indices 1 2 3 4 5 6 
#
# 1 0.026721 -0.009291 -0.001701 0.000000 0.000000 0.000000
# 2 -0.009291 0.014340 -0.003555 0.000000 0.000000 0.000000
# 3 -0.001701 -0.003555 0.014138 0.000000 0.000000 0.000000
# 4 0.000000 0.000000 0.000000 0.024774 0.000000 0.000000
# 5 0.000000 0.000000 0.000000 0.000000 0.030133 0.000000
# 6 0.000000 0.000000 0.000000 0.000000 0.000000 0.059433
#
#
# Mechanical properties :
#
#
# Convention : Reuss Voigt Hill
#
# Bulk Modulus (GPa) = 38.30704 44.17193 41.23948
# Shear Modulus (GPa) = 24.11537 28.08250 26.09894
#
# Velocity S-wave (km/s) = 3.53882 3.81882 3.68149
# Velocity P-wave (km/s) = 6.04903 6.51025 6.28387
#
# Compressibility (1/GPa) = 0.02610486
#
# Stress axis : x y z
#
# Youngs Moduli (GPa) = 37.42358 69.73388 70.72926
#
# Poissons Ratio (x) = 0.64793 0.12034
# Poissons Ratio (y) = 0.34772 0.25141
# Poissons Ratio (z) = 0.06367 0.24788
#
# Static dielectric constant tensor:
#      x y z
#    x 1.655400 0.000000 0.000000 
#    y 0.000000 1.626780 0.000000 
#    z 0.000000 0.000000 1.472830 
# 
# From -- ./inp_files/50955.got.cif
#   From: 2010.05.17/outbox.cif.g08.bks.cpg/sg71_26_cif.got.tgz:50955.got - 2010.06.03 16:22:01.
