data_PCOD9523767
_publ_section_title
;
Structure prediction by ZEFSAII (Michael W. Deem and Ramdas Pophale) SiO2 
 PCOD9523767
Probable space group: I M M M
;
_chemical_formula_sum "Si O2"
_cell_formula_units_Z 100
_cell_length_a 20.013569
_cell_length_b 15.555947
_cell_length_c 16.904597
_cell_angle_alpha 90.000000
_cell_angle_beta 90.000000
_cell_angle_gamma 90.000000
_cell_volume 5262.908499
_symmetry_space_group_name_H-M "I M M M"
_symmetry_group_IT_number 71
_symmetry_cell_setting 'orthorhombic'
loop_
_space_group_symop_operation_xyz
x,y,z
-x,-y,z
x,-y,-z
-x,y,-z
-x,-y,-z
x,y,-z
-x,y,z
x,-y,z
1/2+x,1/2+y,1/2+z
1/2-x,1/2-y,1/2+z
1/2+x,1/2-y,1/2-z
1/2-x,1/2+y,1/2-z
1/2-x,1/2-y,1/2-z
1/2+x,1/2+y,1/2-z
1/2-x,1/2+y,1/2+z
1/2+x,1/2-y,1/2+z
loop_
_atom_site_type_symbol
_atom_site_label
_atom_site_fract_x
_atom_site_fract_y
_atom_site_fract_z
Si Si1 0.575419 0.398693 0.348645
Si Si2 0.384875 0.403151 0.165469
Si Si3 0.297145 0.000000 0.500000
Si Si4 0.670853 0.902543 0.813086
Si Si5 0.771414 0.369060 0.856284
Si Si6 0.921832 0.274100 0.590727
Si Si7 0.788747 0.172994 0.907719
O O1 0.500000 0.370017 0.366941
O O2 0.580739 0.500000 0.368348
O O3 0.588007 0.391460 0.254349
O O4 0.634020 0.348262 0.391834
O O5 0.402442 0.500000 0.138743
O O6 0.304618 0.394849 0.165046
O O7 0.411673 0.325935 0.112160
O O8 0.293882 0.925501 0.430368
O O9 0.683629 0.885228 0.720749
O O10 0.621505 0.833039 0.851328
O O11 0.741856 0.889637 0.856877
O O12 0.647126 0.000000 0.824715
O O13 0.773008 0.268995 0.878488
O O14 0.900567 0.288577 0.500000
O O15 0.000000 0.294729 0.597996
O O16 0.773481 0.164628 0.000000
#
# Coordination Sequence:
#
# PCOD9523767 Si02
#       7
#    16  16   4  16  16  16  16
#     4  10  22  40  61  90 129 171 214 260 313 377
#     4  11  21  38  65  92 128 169 213 261 322 389
#     4  12  24  40  68 104 134 156 196 272 346 372
#     4  12  24  42  67  92 125 171 217 266 314 379
#     4  12  23  41  65 100 130 159 207 266 328 383
#     4  11  26  43  61  93 133 171 218 267 314 376
#     4  12  24  38  63  96 128 166 214 265 316 373
#
# _framework density 19.000900000000001
#
# number of rings (size 3 to 8) (size 9 to 14) (size 15 to 20)
#    0.000    0.640    5.600    2.880    1.120    4.160 
#    0.000    2.400    0.000    0.000    0.000    2.240 
#    0.000    0.000    0.000    0.000    0.000    0.000 
#
# Total GULP energy -279118.719322 kJ/mol
# GULP energy per Si atom -5582.374386 kJ/mol
# Density = 1.895765 g / cm^3
# Si number density = 19.000900 Si / 1000 Ang^3
#
#
#
# Elastic Constant Matrix: (Units=GPa)
#
#
# Indices 1 2 3 4 5 6 
#
# 1 74.1725 18.8014 35.1304 0.0000 0.0000 0.0000
# 2 18.8014 77.9904 59.3149 0.0000 0.0000 0.0000
# 3 35.1304 59.3149 84.2172 0.0000 0.0000 0.0000
# 4 0.0000 0.0000 0.0000 29.4028 0.0000 0.0000
# 5 0.0000 0.0000 0.0000 0.0000 14.4132 0.0000
# 6 0.0000 0.0000 0.0000 0.0000 0.0000 476.4507
#
#
#
# Elastic Compliance Matrix: (Units=1/GPa)
#
#
# Indices 1 2 3 4 5 6 
#
# 1 0.017081 0.002802 -0.009099 0.000000 0.000000 0.000000
# 2 0.002802 0.028073 -0.020941 0.000000 0.000000 0.000000
# 3 -0.009099 -0.020941 0.030419 0.000000 0.000000 0.000000
# 4 0.000000 0.000000 0.000000 0.034010 0.000000 0.000000
# 5 0.000000 0.000000 0.000000 0.000000 0.069381 0.000000
# 6 0.000000 0.000000 0.000000 0.000000 0.000000 0.002099
#
#
# Mechanical properties :
#
#
# Convention : Reuss Voigt Hill
#
# Bulk Modulus (GPa) = 47.39901 51.43038 49.41469
# Shear Modulus (GPa) = 20.61253 112.26223 66.43738
#
# Velocity S-wave (km/s) = 3.29723 7.69486 5.91957
# Velocity P-wave (km/s) = 6.28454 10.29922 8.53139
#
# Compressibility (1/GPa) = 0.02109749
#
# Stress axis : x y z
#
# Youngs Moduli (GPa) = 58.54342 35.62137 32.87465
#
# Poissons Ratio (x) = -0.09982 0.29913
# Poissons Ratio (y) = -0.16406 0.68843
# Poissons Ratio (z) = 0.53269 0.74595
#
# Static dielectric constant tensor:
#      x y z
#    x 1.654310 0.000000 0.000000 
#    y 0.000000 1.652140 0.000000 
#    z 0.000000 0.000000 1.641240 
# 
# From -- ./inp_files/47341.got.cif
#   From: 2010.05.17/outbox.cif.g08.bks.cpg/sg71_24_cif.got.tgz:47341.got - 2010.06.03 16:22:01.
