data_PCOD9523426
_publ_section_title
;
Structure prediction by ZEFSAII (Michael W. Deem and Ramdas Pophale) SiO2 
 PCOD9523426
Probable space group: I M M M
;
_chemical_formula_sum "Si O2"
_cell_formula_units_Z 72
_cell_length_a 16.312350
_cell_length_b 8.117700
_cell_length_c 25.551617
_cell_angle_alpha 90.000000
_cell_angle_beta 90.000000
_cell_angle_gamma 90.000000
_cell_volume 3383.513531
_symmetry_space_group_name_H-M "I M M M"
_symmetry_group_IT_number 71
_symmetry_cell_setting 'orthorhombic'
loop_
_space_group_symop_operation_xyz
x,y,z
-x,-y,z
x,-y,-z
-x,y,-z
-x,-y,-z
x,y,-z
-x,y,z
x,-y,z
1/2+x,1/2+y,1/2+z
1/2-x,1/2-y,1/2+z
1/2+x,1/2-y,1/2-z
1/2-x,1/2+y,1/2-z
1/2-x,1/2-y,1/2-z
1/2+x,1/2+y,1/2-z
1/2-x,1/2+y,1/2+z
1/2+x,1/2-y,1/2+z
loop_
_atom_site_type_symbol
_atom_site_label
_atom_site_fract_x
_atom_site_fract_y
_atom_site_fract_z
Si Si1 0.823741 0.694982 0.058840
Si Si2 0.336950 0.803002 0.774863
Si Si3 0.902637 0.697240 0.500000
Si Si4 0.500000 0.301907 0.407009
Si Si5 0.170154 0.691974 0.391338
Si Si6 0.000000 0.196897 0.786029
O O1 0.809931 0.500000 0.064666
O O2 0.767388 0.791160 0.099555
O O3 0.918346 0.733966 0.066817
O O4 0.799925 0.745620 0.000000
O O5 0.250000 0.750000 0.750000
O O6 0.348375 0.736179 0.834287
O O7 0.416582 0.755735 0.741488
O O8 0.333621 0.000000 0.778306
O O9 0.882963 0.500000 0.500000
O O10 0.868656 0.765230 0.555350
O O11 0.000000 0.715062 0.500000
O O12 0.500000 0.500000 0.410349
O O13 0.500000 0.249736 0.346409
O O14 0.145235 0.500000 0.390103
O O15 0.000000 0.000000 0.785053
#
# Coordination Sequence:
#
# PCOD9523426 Si02
#       6
#    16  16   8   8  16   8
#     4  11  23  38  58  88 125 159 195 241 302 362
#     4  11  24  41  64  94 126 163 209 257 309 371
#     4   9  18  34  61  90 115 146 191 245 292 341
#     4  11  24  40  61  86 115 155 208 252 290 352
#     4  10  21  38  63  90 119 157 203 247 294 355
#     4  11  25  44  64  90 123 162 209 259 313 370
#
# _framework density 21.279655000000002
#
# number of rings (size 3 to 8) (size 9 to 14) (size 15 to 20)
#    0.000    1.444    1.111    3.667    1.556   11.556 
#    0.000    0.000    0.000    0.667    0.000    0.000 
#    0.000    0.000    0.000    0.000    0.000    0.000 
#
# Total GULP energy -201156.673448 kJ/mol
# GULP energy per Si atom -5587.685374 kJ/mol
# Density = 2.123122 g / cm^3
# Si number density = 21.279655 Si / 1000 Ang^3
#
#
#
# Elastic Constant Matrix: (Units=GPa)
#
#
# Indices 1 2 3 4 5 6 
#
# 1 74.3639 1.7921 28.9135 0.0000 0.0000 0.0000
# 2 1.7921 26.7376 19.8821 0.0000 0.0000 0.0000
# 3 28.9135 19.8821 133.5755 0.0000 0.0000 0.0000
# 4 0.0000 0.0000 0.0000 23.3687 0.0000 0.0000
# 5 0.0000 0.0000 0.0000 0.0000 45.7229 0.0000
# 6 0.0000 0.0000 0.0000 0.0000 0.0000 26.1509
#
#
#
# Elastic Compliance Matrix: (Units=1/GPa)
#
#
# Indices 1 2 3 4 5 6 
#
# 1 0.014741 0.001557 -0.003422 0.000000 0.000000 0.000000
# 2 0.001557 0.042220 -0.006621 0.000000 0.000000 0.000000
# 3 -0.003422 -0.006621 0.009213 0.000000 0.000000 0.000000
# 4 0.000000 0.000000 0.000000 0.042792 0.000000 0.000000
# 5 0.000000 0.000000 0.000000 0.000000 0.021871 0.000000
# 6 0.000000 0.000000 0.000000 0.000000 0.000000 0.038240
#
#
# Mechanical properties :
#
#
# Convention : Reuss Voigt Hill
#
# Bulk Modulus (GPa) = 20.32536 37.31691 28.82114
# Shear Modulus (GPa) = 24.69757 31.32113 28.00935
#
# Velocity S-wave (km/s) = 3.41048 3.84067 3.63195
# Velocity P-wave (km/s) = 5.00807 6.10264 5.58225
#
# Compressibility (1/GPa) = 0.04919962
#
# Stress axis : x y z
#
# Youngs Moduli (GPa) = 67.84007 23.68560 108.54510
#
# Poissons Ratio (x) = -0.03688 0.37149
# Poissons Ratio (y) = -0.10562 0.71870
# Poissons Ratio (z) = 0.23218 0.15683
#
# Static dielectric constant tensor:
#      x y z
#    x 1.677840 0.000000 0.000000 
#    y 0.000000 1.767160 0.000000 
#    z 0.000000 0.000000 1.804480 
# 
# From -- ./inp_files/65188.got.cif
#   From: 2010.05.17/outbox.cif.g08.bks.cpg/sg71_33_cif.got.tgz:65188.got - 2010.06.03 16:22:01.
