data_PCOD9523104
_publ_section_title
;
Structure prediction by ZEFSAII (Michael W. Deem and Ramdas Pophale) SiO2 
 PCOD9523104
Probable space group: I M M M
;
_chemical_formula_sum "Si O2"
_cell_formula_units_Z 96
_cell_length_a 9.566597
_cell_length_b 30.875575
_cell_length_c 20.254980
_cell_angle_alpha 90.000000
_cell_angle_beta 90.000000
_cell_angle_gamma 90.000000
_cell_volume 5982.798173
_symmetry_space_group_name_H-M "I M M M"
_symmetry_group_IT_number 71
_symmetry_cell_setting 'orthorhombic'
loop_
_space_group_symop_operation_xyz
x,y,z
-x,-y,z
x,-y,-z
-x,y,-z
-x,-y,-z
x,y,-z
-x,y,z
x,-y,z
1/2+x,1/2+y,1/2+z
1/2-x,1/2-y,1/2+z
1/2+x,1/2-y,1/2-z
1/2-x,1/2+y,1/2-z
1/2-x,1/2-y,1/2-z
1/2+x,1/2+y,1/2-z
1/2-x,1/2+y,1/2+z
1/2+x,1/2-y,1/2+z
loop_
_atom_site_type_symbol
_atom_site_label
_atom_site_fract_x
_atom_site_fract_y
_atom_site_fract_z
Si Si1 0.164128 0.131167 0.607036
Si Si2 0.164333 0.229246 0.424451
Si Si3 0.337077 0.048087 0.397723
Si Si4 0.837114 0.547485 0.262812
Si Si5 0.668109 0.726235 0.309197
Si Si6 0.336991 0.629566 0.734678
O O1 0.200667 0.178126 0.578640
O O2 0.250372 0.090039 0.581491
O O3 0.184963 0.135235 0.686338
O O4 0.000000 0.123537 0.594833
O O5 0.175006 0.243922 0.500000
O O6 0.264621 0.255257 0.375855
O O7 0.000000 0.232604 0.403615
O O8 0.500000 0.052305 0.415880
O O9 0.330004 0.047987 0.317426
O O10 0.288488 0.000000 0.419143
O O11 0.784486 0.500000 0.283934
O O12 0.753472 0.588784 0.287627
O O13 0.000000 0.550841 0.280168
O O14 0.500000 0.733421 0.305325
O O15 0.750000 0.750000 0.250000
O O16 0.693733 0.674982 0.300210
O O17 0.500000 0.619648 0.725536
#
# Coordination Sequence:
#
# PCOD9523104 Si02
#       6
#    16  16  16  16  16  16
#     4   9  16  28  44  64  89 118 156 197 240 287
#     4  10  21  37  53  70  97 130 164 205 252 297
#     4   8  14  24  38  59  86 115 150 193 239 283
#     4   8  14  24  38  60  91 123 153 187 230 280
#     4  11  21  34  52  74 101 129 165 207 247 294
#     4   9  17  28  43  66  94 122 156 197 237 282
#
# _framework density 16.046004
#
# number of rings (size 3 to 8) (size 9 to 14) (size 15 to 20)
#    0.000    2.833    1.667    1.500    0.000    3.000 
#    0.000    3.333    0.000    0.500    0.000    3.500 
#    0.000    0.667    0.000    7.333    0.000    5.667 
#
# Total GULP energy -267453.217964 kJ/mol
# GULP energy per Si atom -5571.942041 kJ/mol
# Density = 1.600948 g / cm^3
# Si number density = 16.046004 Si / 1000 Ang^3
#
#
#
# Elastic Constant Matrix: (Units=GPa)
#
#
# Indices 1 2 3 4 5 6 
#
# 1 68.5504 81.4713 38.2503 0.0000 0.0000 0.0000
# 2 81.4713 143.7509 46.6811 0.0000 0.0000 0.0000
# 3 38.2503 46.6811 43.9959 0.0001 0.0000 0.0000
# 4 0.0000 0.0000 0.0001 -0.5922 0.0000 0.0000
# 5 0.0000 0.0000 0.0000 0.0000 8.8269 0.0000
# 6 0.0000 0.0000 0.0000 0.0000 0.0000 36.7682
#
#
#
# Elastic Compliance Matrix: (Units=1/GPa)
#
#
# Indices 1 2 3 4 5 6 
#
# 1 0.056971 -0.024722 -0.023300 -0.000003 0.000000 0.000000
# 2 -0.024722 0.021341 -0.001150 0.000000 0.000000 0.000000
# 3 -0.023300 -0.001150 0.044207 0.000006 0.000000 0.000000
# 4 -0.000003 0.000000 0.000006 -1.688546 0.000000 0.000000
# 5 0.000000 0.000000 0.000000 0.000000 0.113290 0.000000
# 6 0.000000 0.000000 0.000000 0.000000 0.000000 0.027197
#
#
# Mechanical properties :
#
#
# Convention : Reuss Voigt Hill
#
# Bulk Modulus (GPa) = 41.36571 65.45583 53.41077
# Shear Modulus (GPa) = -3.79035 14.99356 5.60160
#
# Velocity S-wave (km/s) = -1.53861 3.06013 1.87044
# Velocity P-wave (km/s) = 4.76225 7.30527 6.16628
#
# Compressibility (1/GPa) = 0.02417461
#
# Stress axis : x y z
#
# Youngs Moduli (GPa) = 17.55293 46.85734 22.62097
#
# Poissons Ratio (x) = 1.15841 0.52706
# Poissons Ratio (y) = 0.43394 0.02602
# Poissons Ratio (z) = 0.40898 0.05390
#
# Static dielectric constant tensor:
#      x y z
#    x 1.534810 0.000000 0.000000 
#    y 0.000000 1.542060 0.000000 
#    z 0.000000 0.000000 1.538720 
# 
# From -- ./inp_files/29034.got.cif
#   From: 2010.05.17/outbox.cif.g08.bks.cpg/sg71_15_cif.got.tgz:29034.got - 2010.06.03 16:22:01.
