data_PCOD9523631
_publ_section_title
;
Structure prediction by ZEFSAII (Michael W. Deem and Ramdas Pophale) SiO2 
 PCOD9523631
Probable space group: I M M M
;
_chemical_formula_sum "Si O2"
_cell_formula_units_Z 40
_cell_length_a 13.199785
_cell_length_b 22.333770
_cell_length_c 7.893250
_cell_angle_alpha 90.000000
_cell_angle_beta 90.000000
_cell_angle_gamma 90.000000
_cell_volume 2326.937695
_symmetry_space_group_name_H-M "I M M M"
_symmetry_group_IT_number 71
_symmetry_cell_setting 'orthorhombic'
loop_
_space_group_symop_operation_xyz
x,y,z
-x,-y,z
x,-y,-z
-x,y,-z
-x,-y,-z
x,y,-z
-x,y,z
x,-y,z
1/2+x,1/2+y,1/2+z
1/2-x,1/2-y,1/2+z
1/2+x,1/2-y,1/2-z
1/2-x,1/2+y,1/2-z
1/2-x,1/2-y,1/2-z
1/2+x,1/2+y,1/2-z
1/2-x,1/2+y,1/2+z
1/2+x,1/2-y,1/2+z
loop_
_atom_site_type_symbol
_atom_site_label
_atom_site_fract_x
_atom_site_fract_y
_atom_site_fract_z
Si Si1 0.119433 0.651609 0.000000
Si Si2 0.380640 0.705537 0.500000
Si Si3 0.117481 0.000000 0.704315
Si Si4 0.754163 0.885207 0.187234
O O1 0.132972 0.723549 0.000000
O O2 0.174272 0.625518 0.165592
O O3 0.000000 0.638782 0.000000
O O4 0.500000 0.692286 0.500000
O O5 0.325906 0.672995 0.341544
O O6 0.174998 0.941406 0.770482
O O7 0.121016 0.000000 0.500000
O O8 0.000000 0.000000 0.757472
O O9 0.707111 0.894525 0.000000
#
# Coordination Sequence:
#
# PCOD9523631 Si02
#       4
#     8   8   8  16
#     4  11  22  41  59  83 121 161 202 241 280 338
#     4   9  20  37  62  89 120 153 189 243 301 352
#     4  11  21  37  63  91 121 152 189 242 308 359
#     4  10  22  37  61  86 121 149 195 238 298 348
#
# _framework density 17.189976000000001
#
# number of rings (size 3 to 8) (size 9 to 14) (size 15 to 20)
#    1.200    0.600    2.000    3.000    0.000    1.600 
#    0.000    2.000    0.000    2.400    0.000    0.000 
#    0.000    0.000    0.000    0.000    0.000    0.000 
#
# Total GULP energy -111451.338779 kJ/mol
# GULP energy per Si atom -5572.566939 kJ/mol
# Density = 1.715085 g / cm^3
# Si number density = 17.189976 Si / 1000 Ang^3
#
#
#
# Elastic Constant Matrix: (Units=GPa)
#
#
# Indices 1 2 3 4 5 6 
#
# 1 148.7840 79.2109 90.8581 0.0000 0.0000 0.0000
# 2 79.2109 95.3351 53.5907 -0.0002 0.0000 0.0000
# 3 90.8581 53.5907 152.1600 -0.0009 -0.0001 0.0001
# 4 0.0000 -0.0002 -0.0009 25.8927 0.0000 0.0000
# 5 0.0000 0.0000 -0.0001 0.0000 5.5504 -0.0001
# 6 0.0000 0.0000 0.0001 0.0000 -0.0001 22.1002
#
#
#
# Elastic Compliance Matrix: (Units=1/GPa)
#
#
# Indices 1 2 3 4 5 6 
#
# 1 0.015295 -0.009444 -0.005807 0.000000 0.000000 0.000000
# 2 -0.009444 0.018910 -0.001021 0.000000 0.000000 0.000000
# 3 -0.005807 -0.001021 0.010399 0.000000 0.000000 0.000000
# 4 0.000000 0.000000 0.000000 0.038621 0.000000 0.000000
# 5 0.000000 0.000000 0.000000 0.000000 0.180168 0.000001
# 6 0.000000 0.000000 0.000000 0.000000 0.000001 0.045249
#
#
# Mechanical properties :
#
#
# Convention : Reuss Voigt Hill
#
# Bulk Modulus (GPa) = 82.91497 93.73316 88.32406
# Shear Modulus (GPa) = 14.48416 22.21660 18.35038
#
# Velocity S-wave (km/s) = 2.90589 3.59892 3.27081
# Velocity P-wave (km/s) = 7.71998 8.48032 8.10907
#
# Compressibility (1/GPa) = 0.01206055
#
# Stress axis : x y z
#
# Youngs Moduli (GPa) = 65.38028 52.88244 96.16324
#
# Poissons Ratio (x) = 0.49942 0.55841
# Poissons Ratio (y) = 0.61745 0.09817
# Poissons Ratio (z) = 0.37966 0.05398
#
# Static dielectric constant tensor:
#      x y z
#    x 1.543070 0.000000 0.000000 
#    y 0.000000 1.568230 0.000000 
#    z 0.000000 0.000000 1.588110 
# 
# From -- ./inp_files/2865.got.cif
#   From: 2010.05.17/outbox.cif.g08.bks.cpg/sg71_2_cif.got.tgz:2865.got - 2010.06.03 16:22:01.
