data_PCOD9523604
_publ_section_title
;
Structure prediction by ZEFSAII (Michael W. Deem and Ramdas Pophale) SiO2 
 PCOD9523604
Probable space group: I M M M
;
_chemical_formula_sum "Si O2"
_cell_formula_units_Z 96
_cell_length_a 32.648180
_cell_length_b 14.182558
_cell_length_c 10.856882
_cell_angle_alpha 90.000000
_cell_angle_beta 90.000000
_cell_angle_gamma 90.000000
_cell_volume 5027.113170
_symmetry_space_group_name_H-M "I M M M"
_symmetry_group_IT_number 71
_symmetry_cell_setting 'orthorhombic'
loop_
_space_group_symop_operation_xyz
x,y,z
-x,-y,z
x,-y,-z
-x,y,-z
-x,-y,-z
x,y,-z
-x,y,z
x,-y,z
1/2+x,1/2+y,1/2+z
1/2-x,1/2-y,1/2+z
1/2+x,1/2-y,1/2-z
1/2-x,1/2+y,1/2-z
1/2-x,1/2-y,1/2-z
1/2+x,1/2+y,1/2-z
1/2-x,1/2+y,1/2+z
1/2+x,1/2-y,1/2+z
loop_
_atom_site_type_symbol
_atom_site_label
_atom_site_fract_x
_atom_site_fract_y
_atom_site_fract_z
Si Si1 0.236511 0.113189 0.139150
Si Si2 0.950107 0.613930 0.500000
Si Si3 0.453780 0.099641 0.355058
Si Si4 0.500000 0.608312 0.148093
Si Si5 0.075323 0.241072 0.712504
Si Si6 0.350873 0.714004 0.641223
Si Si7 0.201989 0.610787 0.859959
O O1 0.192011 0.158824 0.155665
O O2 0.266831 0.138226 0.251062
O O3 0.232605 0.000000 0.141912
O O4 0.251179 0.139176 0.000000
O O5 0.942220 0.500000 0.500000
O O6 0.930860 0.674563 0.612825
O O7 0.000000 0.625318 0.500000
O O8 0.457214 0.091127 0.500000
O O9 0.500000 0.105645 0.301919
O O10 0.432279 0.197327 0.333226
O O11 0.435645 0.000000 0.308584
O O12 0.500000 0.500000 0.190673
O O13 0.540236 0.665010 0.189362
O O14 0.500000 0.608694 0.000000
O O15 0.118495 0.193975 0.745680
O O16 0.365084 0.693523 0.500000
O O17 0.337747 0.823823 0.648995
O O18 0.192600 0.500000 0.847227
O O19 0.218568 0.625241 0.000000
#
# Coordination Sequence:
#
# PCOD9523604 Si02
#       7
#    16   8  16   8  16  16  16
#     4   9  18  36  59  82 112 151 197 246 293 340
#     4  11  22  38  60  84 112 150 188 232 292 354
#     4   9  17  29  50  79 108 140 177 218 268 334
#     4  11  24  44  63  78 105 151 204 252 298 342
#     4  12  20  38  57  82 112 147 190 236 288 350
#     4  10  22  36  56  84 116 153 187 229 288 346
#     4   9  18  35  57  84 117 153 192 233 286 352
#
# _framework density 19.096446
#
# number of rings (size 3 to 8) (size 9 to 14) (size 15 to 20)
#    0.000    2.000    2.500    2.000    0.000    3.333 
#    3.000    1.667    0.000    3.500    0.000    0.000 
#    0.000    0.000    0.000    0.000    0.000    0.000 
#
# Total GULP energy -267214.048067 kJ/mol
# GULP energy per Si atom -5566.959335 kJ/mol
# Density = 1.905298 g / cm^3
# Si number density = 19.096446 Si / 1000 Ang^3
#
#
#
# Elastic Constant Matrix: (Units=GPa)
#
#
# Indices 1 2 3 4 5 6 
#
# 1 71.2934 25.2636 54.2255 0.0000 0.0000 0.0000
# 2 25.2636 83.2087 27.2586 0.0000 0.0000 0.0000
# 3 54.2255 27.2586 101.3802 0.0000 0.0000 0.0000
# 4 0.0000 0.0000 0.0000 20.7025 0.0000 0.0000
# 5 0.0000 0.0000 0.0000 0.0000 23.4098 0.0000
# 6 0.0000 0.0000 0.0000 0.0000 0.0000 13.1589
#
#
#
# Elastic Compliance Matrix: (Units=1/GPa)
#
#
# Indices 1 2 3 4 5 6 
#
# 1 0.024519 -0.003452 -0.012186 0.000000 0.000000 0.000000
# 2 -0.003452 0.013665 -0.001828 0.000000 0.000000 0.000000
# 3 -0.012186 -0.001828 0.016873 0.000000 0.000000 0.000000
# 4 0.000000 0.000000 0.000000 0.048303 0.000000 0.000000
# 5 0.000000 0.000000 0.000000 0.000000 0.042717 0.000000
# 6 0.000000 0.000000 0.000000 0.000000 0.000000 0.075994
#
#
# Mechanical properties :
#
#
# Convention : Reuss Voigt Hill
#
# Bulk Modulus (GPa) = 49.68992 52.15310 50.92151
# Shear Modulus (GPa) = 18.96010 21.39653 20.17831
#
# Velocity S-wave (km/s) = 3.15439 3.35094 3.25415
# Velocity P-wave (km/s) = 6.27247 6.50702 6.39082
#
# Compressibility (1/GPa) = 0.02012480
#
# Stress axis : x y z
#
# Youngs Moduli (GPa) = 40.78544 73.18050 59.26530
#
# Poissons Ratio (x) = 0.25263 0.72221
# Poissons Ratio (y) = 0.14080 0.10832
# Poissons Ratio (z) = 0.49702 0.13375
#
# Static dielectric constant tensor:
#      x y z
#    x 1.760610 0.000000 0.000000 
#    y 0.000000 1.691380 0.000000 
#    z 0.000000 0.000000 1.790380 
# 
# From -- ./inp_files/29966.got.cif
#   From: 2010.05.17/outbox.cif.g08.bks.cpg/sg71_15_cif.got.tgz:29966.got - 2010.06.03 16:22:01.
