data_PCOD9523975
_publ_section_title
;
Structure prediction by ZEFSAII (Michael W. Deem and Ramdas Pophale) SiO2 
 PCOD9523975
Probable space group: I M M M
;
_chemical_formula_sum "Si O2"
_cell_formula_units_Z 100
_cell_length_a 7.690800
_cell_length_b 29.969706
_cell_length_c 20.512040
_cell_angle_alpha 90.000000
_cell_angle_beta 90.000000
_cell_angle_gamma 90.000000
_cell_volume 4727.840917
_symmetry_space_group_name_H-M "I M M M"
_symmetry_group_IT_number 71
_symmetry_cell_setting 'orthorhombic'
loop_
_space_group_symop_operation_xyz
x,y,z
-x,-y,z
x,-y,-z
-x,y,-z
-x,-y,-z
x,y,-z
-x,y,z
x,-y,z
1/2+x,1/2+y,1/2+z
1/2-x,1/2-y,1/2+z
1/2+x,1/2-y,1/2-z
1/2-x,1/2+y,1/2-z
1/2-x,1/2-y,1/2-z
1/2+x,1/2+y,1/2-z
1/2-x,1/2+y,1/2+z
1/2+x,1/2-y,1/2+z
loop_
_atom_site_type_symbol
_atom_site_label
_atom_site_fract_x
_atom_site_fract_y
_atom_site_fract_z
Si Si1 0.197359 0.692652 0.700720
Si Si2 0.786238 0.770871 0.610292
Si Si3 0.210883 0.550289 0.379759
Si Si4 0.000000 0.249244 0.000000
Si Si5 0.304886 0.641401 0.174744
Si Si6 0.797207 0.143654 0.070889
Si Si7 0.706254 0.048854 0.730313
O O1 0.244516 0.741877 0.676043
O O2 0.303059 0.666767 0.755443
O O3 0.206485 0.664821 0.633181
O O4 0.000000 0.692358 0.724786
O O5 0.656389 0.752167 0.556337
O O6 0.732287 0.822006 0.624876
O O7 0.000000 0.768215 0.598059
O O8 0.257667 0.500000 0.399864
O O9 0.284680 0.590474 0.421384
O O10 0.270559 0.556466 0.304450
O O11 0.000000 0.553480 0.381876
O O12 0.500000 0.634400 0.152874
O O13 0.233339 0.592165 0.186486
O O14 0.000000 0.156909 0.071907
O O15 0.725544 0.156466 0.000000
O O16 0.500000 0.045044 0.737242
O O17 0.771891 0.000000 0.707830
#
# Coordination Sequence:
#
# PCOD9523975 Si02
#       7
#    16  16  16   4  16  16  16
#     4  11  23  39  60  84 121 163 207 262 307 365
#     4  10  26  44  64  98 128 167 215 258 313 378
#     4   9  18  34  53  73 101 145 196 247 305 364
#     4  12  26  44  76  90 129 178 205 272 302 392
#     4  11  22  38  62  94 131 159 204 262 313 373
#     4  11  24  36  50  76 109 150 203 254 308 366
#     4   9  18  33  56  87 122 158 201 249 309 382
#
# _framework density 21.151304
#
# number of rings (size 3 to 8) (size 9 to 14) (size 15 to 20)
#    0.000    1.760    1.600    3.120    5.600    2.240 
#    0.000    3.200    0.000    0.000    0.000    1.120 
#    0.000    2.560    0.000    0.000    0.000    0.000 
#
# Total GULP energy -278596.637870 kJ/mol
# GULP energy per Si atom -5571.932757 kJ/mol
# Density = 2.110316 g / cm^3
# Si number density = 21.151304 Si / 1000 Ang^3
#
#
#
# Elastic Constant Matrix: (Units=GPa)
#
#
# Indices 1 2 3 4 5 6 
#
# 1 64.8256 13.1825 13.7501 0.0000 0.0000 0.0000
# 2 13.1825 138.9726 15.3536 0.0000 0.0000 0.0000
# 3 13.7501 15.3536 35.1245 0.0001 0.0001 0.0000
# 4 0.0000 0.0000 0.0001 -0.7066 0.0000 0.0000
# 5 0.0000 0.0000 0.0001 0.0000 34.3643 0.0000
# 6 0.0000 0.0000 0.0000 0.0000 0.0000 26.5679
#
#
#
# Elastic Compliance Matrix: (Units=1/GPa)
#
#
# Indices 1 2 3 4 5 6 
#
# 1 0.016934 -0.000918 -0.006228 0.000000 0.000000 0.000000
# 2 -0.000918 0.007611 -0.002967 0.000000 0.000000 0.000000
# 3 -0.006228 -0.002967 0.032205 0.000003 0.000000 0.000000
# 4 0.000000 0.000000 0.000003 -1.415158 0.000001 0.000000
# 5 0.000000 0.000000 0.000000 0.000001 0.029100 0.000000
# 6 0.000000 0.000000 0.000000 0.000000 0.000000 0.037639
#
#
# Mechanical properties :
#
#
# Convention : Reuss Voigt Hill
#
# Bulk Modulus (GPa) = 27.37990 35.94389 31.66189
# Shear Modulus (GPa) = -3.97056 25.15422 10.59183
#
# Velocity S-wave (km/s) = -1.37160 3.45229 2.24021
# Velocity P-wave (km/s) = 3.23489 5.73774 4.65759
#
# Compressibility (1/GPa) = 0.03652315
#
# Stress axis : x y z
#
# Youngs Moduli (GPa) = 59.05398 131.39590 31.05097
#
# Poissons Ratio (x) = 0.12066 0.19337
# Poissons Ratio (y) = 0.05423 0.09214
# Poissons Ratio (z) = 0.36776 0.38989
#
# Static dielectric constant tensor:
#      x y z
#    x 1.776450 0.000000 0.000000 
#    y 0.000000 1.873930 0.000000 
#    z 0.000000 0.000000 1.750910 
# 
# From -- ./inp_files/50946.got.cif
#   From: 2010.05.17/outbox.cif.g08.bks.cpg/sg71_26_cif.got.tgz:50946.got - 2010.06.03 16:22:01.
