data_PCOD9523932
_publ_section_title
;
Structure prediction by ZEFSAII (Michael W. Deem and Ramdas Pophale) SiO2 
 PCOD9523932
Probable space group: I M M M
;
_chemical_formula_sum "Si O2"
_cell_formula_units_Z 64
_cell_length_a 22.189850
_cell_length_b 15.198479
_cell_length_c 7.672521
_cell_angle_alpha 90.000000
_cell_angle_beta 90.000000
_cell_angle_gamma 90.000000
_cell_volume 2587.572816
_symmetry_space_group_name_H-M "I M M M"
_symmetry_group_IT_number 71
_symmetry_cell_setting 'orthorhombic'
loop_
_space_group_symop_operation_xyz
x,y,z
-x,-y,z
x,-y,-z
-x,y,-z
-x,-y,-z
x,y,-z
-x,y,z
x,-y,z
1/2+x,1/2+y,1/2+z
1/2-x,1/2-y,1/2+z
1/2+x,1/2-y,1/2-z
1/2-x,1/2+y,1/2-z
1/2-x,1/2-y,1/2-z
1/2+x,1/2+y,1/2-z
1/2-x,1/2+y,1/2+z
1/2+x,1/2-y,1/2+z
loop_
_atom_site_type_symbol
_atom_site_label
_atom_site_fract_x
_atom_site_fract_y
_atom_site_fract_z
Si Si1 0.773958 0.309685 0.000000
Si Si2 0.933901 0.135671 0.294840
Si Si3 0.874093 0.315091 0.696183
Si Si4 0.070872 0.500000 0.208720
Si Si5 0.198688 0.898480 0.809848
O O1 0.825901 0.300308 0.846049
O O2 0.726723 0.345765 0.847513
O O3 0.930832 0.111660 0.500000
O O4 0.925516 0.241206 0.284181
O O5 0.873695 0.100226 0.205171
O O6 0.000000 0.110025 0.228804
O O7 0.849255 0.305522 0.500000
O O8 0.899605 0.412524 0.716596
O O9 0.000000 0.500000 0.244110
O O10 0.080373 0.500000 0.000000
O O11 0.220102 0.000000 0.802820
O O12 0.216589 0.859212 0.000000
#
# Coordination Sequence:
#
# PCOD9523932 Si02
#       5
#     8  16  16   8  16
#     4  12  25  46  69  95 145 179 231 283 341 417
#     4  10  23  47  74 104 140 181 234 296 357 415
#     4  11  25  44  69 103 139 186 233 287 354 412
#     4  11  23  41  67 100 139 185 238 287 350 418
#     4  11  26  46  71 103 140 188 233 291 353 417
#
# _framework density 24.733602999999999
#
# number of rings (size 3 to 8) (size 9 to 14) (size 15 to 20)
#    0.000    1.125    2.500    2.250    5.250    4.000 
#    0.000    2.500    0.000    0.000    0.000    0.000 
#    0.000    0.000    0.000    0.000    0.000    0.000 
#
# Total GULP energy -178412.658203 kJ/mol
# GULP energy per Si atom -5575.395569 kJ/mol
# Density = 2.467731 g / cm^3
# Si number density = 24.733603 Si / 1000 Ang^3
#
#
#
# Elastic Constant Matrix: (Units=GPa)
#
#
# Indices 1 2 3 4 5 6 
#
# 1 125.3996 -12.2544 74.7946 0.0000 0.0000 0.0000
# 2 -12.2544 78.9424 15.7295 0.0000 0.0000 0.0000
# 3 74.7946 15.7295 219.3520 0.0000 0.0000 0.0000
# 4 0.0000 0.0000 0.0000 24.6925 0.0000 0.0000
# 5 0.0000 0.0000 0.0000 0.0000 12.3695 0.0000
# 6 0.0000 0.0000 0.0000 0.0000 0.0000 -8.9190
#
#
#
# Elastic Compliance Matrix: (Units=1/GPa)
#
#
# Indices 1 2 3 4 5 6 
#
# 1 0.010427 0.002361 -0.003725 0.000000 0.000000 0.000000
# 2 0.002361 0.013386 -0.001765 0.000000 0.000000 0.000000
# 3 -0.003725 -0.001765 0.005955 0.000000 0.000000 0.000000
# 4 0.000000 0.000000 0.000000 0.040498 0.000000 0.000000
# 5 0.000000 0.000000 0.000000 0.000000 0.080844 0.000000
# 6 0.000000 0.000000 0.000000 0.000000 0.000000 -0.112120
#
#
# Mechanical properties :
#
#
# Convention : Reuss Voigt Hill
#
# Bulk Modulus (GPa) = 42.53448 64.47038 53.50243
# Shear Modulus (GPa) = 94.19115 28.65689 61.42402
#
# Velocity S-wave (km/s) = 6.17778 3.40755 4.98880
# Velocity P-wave (km/s) = 8.25354 6.45014 7.40693
#
# Compressibility (1/GPa) = 0.02351034
#
# Stress axis : x y z
#
# Youngs Moduli (GPa) = 95.90730 74.70730 167.91349
#
# Poissons Ratio (x) = -0.17636 0.62541
# Poissons Ratio (y) = -0.22641 0.29634
# Poissons Ratio (z) = 0.35722 0.13184
#
# Static dielectric constant tensor:
#      x y z
#    x 1.908720 0.000000 0.000000 
#    y 0.000000 2.102690 0.000000 
#    z 0.000000 0.000000 1.908790 
# 
# From -- ./inp_files/11983.got.cif
#   From: 2010.05.17/outbox.cif.g08.bks.cpg/sg71_6_cif.got.tgz:11983.got - 2010.06.03 16:22:01.
