data_PCOD9523427
_publ_section_title
;
Structure prediction by ZEFSAII (Michael W. Deem and Ramdas Pophale) SiO2 
 PCOD9523427
Probable space group: I M M M
;
_chemical_formula_sum "Si O2"
_cell_formula_units_Z 64
_cell_length_a 9.063600
_cell_length_b 16.588910
_cell_length_c 22.789939
_cell_angle_alpha 90.000000
_cell_angle_beta 90.000000
_cell_angle_gamma 90.000000
_cell_volume 3426.586854
_symmetry_space_group_name_H-M "I M M M"
_symmetry_group_IT_number 71
_symmetry_cell_setting 'orthorhombic'
loop_
_space_group_symop_operation_xyz
x,y,z
-x,-y,z
x,-y,-z
-x,y,-z
-x,-y,-z
x,y,-z
-x,y,z
x,-y,z
1/2+x,1/2+y,1/2+z
1/2-x,1/2-y,1/2+z
1/2+x,1/2-y,1/2-z
1/2-x,1/2+y,1/2-z
1/2-x,1/2-y,1/2-z
1/2+x,1/2+y,1/2-z
1/2-x,1/2+y,1/2+z
1/2+x,1/2-y,1/2+z
loop_
_atom_site_type_symbol
_atom_site_label
_atom_site_fract_x
_atom_site_fract_y
_atom_site_fract_z
Si Si1 0.822988 0.836582 0.235614
Si Si2 0.177617 0.330101 0.616625
Si Si3 0.174663 0.859236 0.365097
Si Si4 0.175542 0.903300 0.000000
Si Si5 0.333067 0.000000 0.569666
O O1 0.750000 0.750000 0.250000
O O2 0.748277 0.867211 0.176002
O O3 0.795542 0.881800 0.296969
O O4 0.000000 0.828868 0.228005
O O5 0.212367 0.234129 0.621393
O O6 0.248433 0.366789 0.558160
O O7 0.000000 0.339232 0.616712
O O8 0.255464 0.920486 0.406738
O O9 0.000000 0.865990 0.373526
O O10 0.000000 0.885574 0.000000
O O11 0.193812 0.000000 0.000000
O O12 0.500000 0.000000 0.591059
O O13 0.330483 0.000000 0.500000
#
# Coordination Sequence:
#
# PCOD9523427 Si02
#       5
#    16  16  16   8   8
#     4   9  17  33  58  88 117 149 192 240 290 347
#     4  10  21  38  63  91 117 152 196 241 295 354
#     4   9  20  38  60  86 116 155 195 235 289 350
#     4  11  25  43  61  86 119 156 195 239 294 353
#     4  11  25  39  53  83 121 156 199 246 287 335
#
# _framework density 18.677477
#
# number of rings (size 3 to 8) (size 9 to 14) (size 15 to 20)
#    0.000    2.250    0.000    3.750    1.750    8.000 
#    2.250    0.000    0.000    0.000    0.000    0.000 
#    0.000    0.000    0.000    0.000    0.000    0.000 
#
# Total GULP energy -178490.090718 kJ/mol
# GULP energy per Si atom -5577.815335 kJ/mol
# Density = 1.863497 g / cm^3
# Si number density = 18.677477 Si / 1000 Ang^3
#
#
#
# Elastic Constant Matrix: (Units=GPa)
#
#
# Indices 1 2 3 4 5 6 
#
# 1 64.8828 44.6717 69.9287 0.0000 0.0000 0.0000
# 2 44.6717 55.1284 43.4987 0.0000 0.0000 0.0000
# 3 69.9287 43.4987 137.9407 0.0000 0.0000 0.0000
# 4 0.0000 0.0000 0.0000 58.5478 0.0000 0.0000
# 5 0.0000 0.0000 0.0000 0.0000 38.9697 0.0000
# 6 0.0000 0.0000 0.0000 0.0000 0.0000 22.4040
#
#
#
# Elastic Compliance Matrix: (Units=1/GPa)
#
#
# Indices 1 2 3 4 5 6 
#
# 1 0.058559 -0.031987 -0.019600 0.000000 0.000000 0.000000
# 2 -0.031987 0.041620 0.003091 0.000000 0.000000 0.000000
# 3 -0.019600 0.003091 0.016211 0.000000 0.000000 0.000000
# 4 0.000000 0.000000 0.000000 0.017080 0.000000 0.000000
# 5 0.000000 0.000000 0.000000 0.000000 0.025661 0.000000
# 6 0.000000 0.000000 0.000000 0.000000 0.000000 0.044635
#
#
# Mechanical properties :
#
#
# Convention : Reuss Voigt Hill
#
# Bulk Modulus (GPa) = 51.54849 63.79446 57.67147
# Shear Modulus (GPa) = 16.27482 30.64115 23.45799
#
# Velocity S-wave (km/s) = 2.95508 4.05475 3.54778
# Velocity P-wave (km/s) = 6.26918 7.49342 6.90847
#
# Compressibility (1/GPa) = 0.01939921
#
# Stress axis : x y z
#
# Youngs Moduli (GPa) = 17.07678 24.02682 61.68767
#
# Poissons Ratio (x) = 0.76854 1.20905
# Poissons Ratio (y) = 0.54623 -0.19067
# Poissons Ratio (z) = 0.33470 -0.07427
#
# Static dielectric constant tensor:
#      x y z
#    x 1.623150 0.000000 0.000000 
#    y 0.000000 1.606940 0.000000 
#    z 0.000000 0.000000 1.659760 
# 
# From -- ./inp_files/9553.got.cif
#   From: 2010.05.17/outbox.cif.g08.bks.cpg/sg71_5_cif.got.tgz:9553.got - 2010.06.03 16:22:01.
