data_PCOD9523501
_publ_section_title
;
Structure prediction by ZEFSAII (Michael W. Deem and Ramdas Pophale) SiO2 
 PCOD9523501
Probable space group: I M M M
;
_chemical_formula_sum "Si O2"
_cell_formula_units_Z 72
_cell_length_a 7.541478
_cell_length_b 25.518738
_cell_length_c 19.574171
_cell_angle_alpha 90.000000
_cell_angle_beta 90.000000
_cell_angle_gamma 90.000000
_cell_volume 3767.029659
_symmetry_space_group_name_H-M "I M M M"
_symmetry_group_IT_number 71
_symmetry_cell_setting 'orthorhombic'
loop_
_space_group_symop_operation_xyz
x,y,z
-x,-y,z
x,-y,-z
-x,y,-z
-x,-y,-z
x,y,-z
-x,y,z
x,-y,z
1/2+x,1/2+y,1/2+z
1/2-x,1/2-y,1/2+z
1/2+x,1/2-y,1/2-z
1/2-x,1/2+y,1/2-z
1/2-x,1/2-y,1/2-z
1/2+x,1/2+y,1/2-z
1/2-x,1/2+y,1/2+z
1/2+x,1/2-y,1/2+z
loop_
_atom_site_type_symbol
_atom_site_label
_atom_site_fract_x
_atom_site_fract_y
_atom_site_fract_z
Si Si1 0.706959 0.855150 0.185419
Si Si2 0.285887 0.440094 0.424461
Si Si3 0.205102 0.370951 0.839390
Si Si4 0.500000 0.437299 0.917731
Si Si5 0.789745 0.244688 0.331203
O O1 0.500000 0.843699 0.198821
O O2 0.722834 0.903284 0.135283
O O3 0.777694 0.868922 0.260825
O O4 0.776162 0.802552 0.147793
O O5 0.227983 0.422629 0.500000
O O6 0.500000 0.439771 0.423749
O O7 0.228376 0.500000 0.415006
O O8 0.330385 0.407480 0.884908
O O9 0.209171 0.309059 0.859165
O O10 0.000000 0.388786 0.840463
O O11 0.500000 0.500000 0.902236
O O12 0.500000 0.431680 0.000000
O O13 0.750000 0.250000 0.250000
O O14 0.000000 0.239341 0.342756
#
# Coordination Sequence:
#
# PCOD9523501 Si02
#       5
#    16  16  16   8  16
#     4   9  19  32  54  88 117 149 194 238 289 345
#     4   9  19  34  49  69 105 154 199 236 278 329
#     4  10  21  39  63  92 121 151 193 247 302 361
#     4  11  26  46  66  88 117 159 204 250 315 378
#     4   9  16  30  54  86 120 152 188 233 289 353
#
# _framework density 19.113202999999999
#
# number of rings (size 3 to 8) (size 9 to 14) (size 15 to 20)
#    0.000    2.556    1.111    2.667    1.556    4.444 
#    0.000    5.556    0.000    0.000    0.000    0.000 
#    0.000    0.000    0.000    0.000    0.000    0.000 
#
# Total GULP energy -200490.620144 kJ/mol
# GULP energy per Si atom -5569.183893 kJ/mol
# Density = 1.906970 g / cm^3
# Si number density = 19.113203 Si / 1000 Ang^3
#
#
#
# Elastic Constant Matrix: (Units=GPa)
#
#
# Indices 1 2 3 4 5 6 
#
# 1 89.4324 34.8812 24.5339 0.0000 0.0000 0.0000
# 2 34.8812 121.2051 71.9844 0.0000 0.0000 0.0000
# 3 24.5339 71.9844 81.4759 -0.0001 0.0000 0.0000
# 4 0.0000 0.0000 -0.0001 -87.1365 0.0001 0.0000
# 5 0.0000 0.0000 0.0000 0.0001 3.1248 0.0000
# 6 0.0000 0.0000 0.0000 0.0000 0.0000 23.1571
#
#
#
# Elastic Compliance Matrix: (Units=1/GPa)
#
#
# Indices 1 2 3 4 5 6 
#
# 1 0.012655 -0.002901 -0.001248 0.000000 0.000000 0.000000
# 2 -0.002901 0.018024 -0.015051 0.000000 0.000000 0.000000
# 3 -0.001248 -0.015051 0.025947 0.000000 0.000000 0.000000
# 4 0.000000 0.000000 0.000000 -0.011476 0.000000 0.000000
# 5 0.000000 0.000000 0.000000 0.000000 0.320024 0.000000
# 6 0.000000 0.000000 0.000000 0.000000 0.000000 0.043183
#
#
# Mechanical properties :
#
#
# Convention : Reuss Voigt Hill
#
# Bulk Modulus (GPa) = 54.86327 61.65693 58.26010
# Shear Modulus (GPa) = 11.04161 -1.45668 4.79246
#
# Velocity S-wave (km/s) = 2.40614 -0.87395 1.58520
# Velocity P-wave (km/s) = 6.04037 5.59558 5.82222
#
# Compressibility (1/GPa) = 0.01822713
#
# Stress axis : x y z
#
# Youngs Moduli (GPa) = 79.01764 55.48103 38.54035
#
# Poissons Ratio (x) = 0.16095 0.04809
# Poissons Ratio (y) = 0.22923 0.58007
# Poissons Ratio (z) = 0.09859 0.83504
#
# Static dielectric constant tensor:
#      x y z
#    x 1.782500 0.000000 0.000000 
#    y 0.000000 1.714430 0.000000 
#    z 0.000000 0.000000 1.644780 
# 
# From -- ./inp_files/42085.got.cif
#   From: 2010.05.17/outbox.cif.g08.bks.cpg/sg71_22_cif.got.tgz:42085.got - 2010.06.03 16:22:01.
