data_PCOD9523410
_publ_section_title
;
Structure prediction by ZEFSAII (Michael W. Deem and Ramdas Pophale) SiO2 
 PCOD9523410
Probable space group: I M M M
;
_chemical_formula_sum "Si O2"
_cell_formula_units_Z 88
_cell_length_a 21.675084
_cell_length_b 7.629438
_cell_length_c 25.009545
_cell_angle_alpha 90.000000
_cell_angle_beta 90.000000
_cell_angle_gamma 90.000000
_cell_volume 4135.796182
_symmetry_space_group_name_H-M "I M M M"
_symmetry_group_IT_number 71
_symmetry_cell_setting 'orthorhombic'
loop_
_space_group_symop_operation_xyz
x,y,z
-x,-y,z
x,-y,-z
-x,y,-z
-x,-y,-z
x,y,-z
-x,y,z
x,-y,z
1/2+x,1/2+y,1/2+z
1/2-x,1/2-y,1/2+z
1/2+x,1/2-y,1/2-z
1/2-x,1/2+y,1/2-z
1/2-x,1/2-y,1/2-z
1/2+x,1/2+y,1/2-z
1/2-x,1/2+y,1/2+z
1/2+x,1/2-y,1/2+z
loop_
_atom_site_type_symbol
_atom_site_label
_atom_site_fract_x
_atom_site_fract_y
_atom_site_fract_z
Si Si1 0.314709 0.711420 0.779681
Si Si2 0.201348 0.784907 0.500000
Si Si3 0.134097 0.790150 0.393599
Si Si4 0.000000 0.291856 0.437268
Si Si5 0.432311 0.293595 0.715909
Si Si6 0.068494 0.711901 0.092260
Si Si7 0.342141 0.214622 0.500000
O O1 0.316875 0.500000 0.781352
O O2 0.250000 0.750000 0.750000
O O3 0.331184 0.774126 0.839941
O O4 0.372440 0.779423 0.744864
O O5 0.167443 0.723175 0.446818
O O6 0.271996 0.730116 0.500000
O O7 0.199528 0.000000 0.500000
O O8 0.061407 0.757734 0.403921
O O9 0.140995 0.000000 0.392411
O O10 0.000000 0.500000 0.441952
O O11 0.000000 0.222821 0.500000
O O12 0.500000 0.218366 0.729764
O O13 0.434722 0.500000 0.729017
O O14 0.424187 0.275754 0.652480
O O15 0.070230 0.500000 0.093679
O O16 0.000000 0.762922 0.073282
O O17 0.120766 0.772968 0.052159
O O18 0.342955 0.000000 0.500000
#
# Coordination Sequence:
#
# PCOD9523410 Si02
#       7
#    16   8  16   8  16  16   8
#     4  10  23  39  60  86 115 152 192 239 290 342
#     4   9  18  32  52  82 109 140 187 236 278 324
#     4  10  21  38  62  87 112 151 201 241 282 345
#     4  11  23  39  61  91 125 155 185 238 311 364
#     4   9  19  36  54  75 107 145 182 221 269 327
#     4   9  17  30  51  78 105 136 176 224 274 320
#     4   9  17  28  49  77 108 138 175 228 276 321
#
# _framework density 21.277643000000001
#
# number of rings (size 3 to 8) (size 9 to 14) (size 15 to 20)
#    0.000    2.455    0.909    0.545    3.818    2.909 
#    0.000    0.455    0.000    3.273    0.000    0.000 
#    0.000    0.000    0.000    0.000    0.000    0.000 
#
# Total GULP energy -245464.931490 kJ/mol
# GULP energy per Si atom -5578.748443 kJ/mol
# Density = 2.122921 g / cm^3
# Si number density = 21.277643 Si / 1000 Ang^3
#
#
#
# Elastic Constant Matrix: (Units=GPa)
#
#
# Indices 1 2 3 4 5 6 
#
# 1 225.2717 6.0101 131.5770 0.0000 0.0000 0.0000
# 2 6.0101 41.4471 6.3056 0.0000 0.0000 0.0000
# 3 131.5770 6.3056 149.7025 0.0000 0.0000 0.0000
# 4 0.0000 0.0000 0.0000 16.4774 0.0000 0.0000
# 5 0.0000 0.0000 0.0000 0.0000 37.3509 0.0000
# 6 0.0000 0.0000 0.0000 0.0000 0.0000 13.8588
#
#
#
# Elastic Compliance Matrix: (Units=1/GPa)
#
#
# Indices 1 2 3 4 5 6 
#
# 1 0.009122 -0.000104 -0.008014 0.000000 0.000000 0.000000
# 2 -0.000104 0.024284 -0.000932 0.000000 0.000000 0.000000
# 3 -0.008014 -0.000932 0.013762 0.000000 0.000000 0.000000
# 4 0.000000 0.000000 0.000000 0.060689 0.000000 0.000000
# 5 0.000000 0.000000 0.000000 0.000000 0.026773 0.000000
# 6 0.000000 0.000000 0.000000 0.000000 0.000000 0.072156
#
#
# Mechanical properties :
#
#
# Convention : Reuss Voigt Hill
#
# Bulk Modulus (GPa) = 34.39869 78.24520 56.32195
# Shear Modulus (GPa) = 21.31511 31.70600 26.51055
#
# Velocity S-wave (km/s) = 3.16849 3.86438 3.53361
# Velocity P-wave (km/s) = 5.43944 7.53422 6.57084
#
# Compressibility (1/GPa) = 0.02907088
#
# Stress axis : x y z
#
# Youngs Moduli (GPa) = 109.62032 41.17951 72.66157
#
# Poissons Ratio (x) = 0.00427 0.58227
# Poissons Ratio (y) = 0.01136 0.06770
# Poissons Ratio (z) = 0.87844 0.03837
#
# Static dielectric constant tensor:
#      x y z
#    x 1.755860 0.000000 0.000000 
#    y 0.000000 1.803040 0.000000 
#    z 0.000000 0.000000 1.755480 
# 
# From -- ./inp_files/12611.got.cif
#   From: 2010.05.17/outbox.cif.g08.bks.cpg/sg71_7_cif.got.tgz:12611.got - 2010.06.03 16:22:01.
