data_PCOD9523324
_publ_section_title
;
Structure prediction by ZEFSAII (Michael W. Deem and Ramdas Pophale) SiO2 
 PCOD9523324
Probable space group: I M M M
;
_chemical_formula_sum "Si O2"
_cell_formula_units_Z 72
_cell_length_a 13.632737
_cell_length_b 26.956845
_cell_length_c 10.467755
_cell_angle_alpha 90.000000
_cell_angle_beta 90.000000
_cell_angle_gamma 90.000000
_cell_volume 3846.853677
_symmetry_space_group_name_H-M "I M M M"
_symmetry_group_IT_number 71
_symmetry_cell_setting 'orthorhombic'
loop_
_space_group_symop_operation_xyz
x,y,z
-x,-y,z
x,-y,-z
-x,y,-z
-x,-y,-z
x,y,-z
-x,y,z
x,-y,z
1/2+x,1/2+y,1/2+z
1/2-x,1/2-y,1/2+z
1/2+x,1/2-y,1/2-z
1/2-x,1/2+y,1/2-z
1/2-x,1/2-y,1/2-z
1/2+x,1/2+y,1/2-z
1/2-x,1/2+y,1/2+z
1/2+x,1/2-y,1/2+z
loop_
_atom_site_type_symbol
_atom_site_label
_atom_site_fract_x
_atom_site_fract_y
_atom_site_fract_z
Si Si1 0.381343 0.847778 0.000000
Si Si2 0.116810 0.836837 0.260157
Si Si3 0.118466 0.220130 0.000000
Si Si4 0.118502 0.232859 0.500000
Si Si5 0.117281 0.500000 0.153607
Si Si6 0.617609 0.166965 0.500000
Si Si7 0.302160 0.894964 0.738800
O O1 0.342530 0.874912 0.873382
O O2 0.500000 0.848854 0.000000
O O3 0.347886 0.789903 0.000000
O O4 0.142292 0.799000 0.374482
O O5 0.185715 0.884762 0.268538
O O6 0.000000 0.846983 0.264648
O O7 0.142108 0.809441 0.128029
O O8 0.155177 0.276466 0.000000
O O9 0.000000 0.224059 0.000000
O O10 0.000000 0.236464 0.500000
O O11 0.165136 0.549124 0.212634
O O12 0.000000 0.500000 0.176608
O O13 0.131527 0.500000 0.000000
O O14 0.500000 0.167453 0.500000
O O15 0.652095 0.138304 0.625646
#
# Coordination Sequence:
#
# PCOD9523324 Si02
#       7
#     8  16   8   8   8   8  16
#     4  11  23  38  57  91 127 153 190 242 298 354
#     4  10  21  38  57  85 123 160 196 237 281 340
#     4   9  19  35  57  85 123 162 196 233 278 337
#     4   9  19  35  55  83 127 164 188 235 292 337
#     4  11  24  45  66  86 113 144 191 253 300 343
#     4  11  21  36  59  89 119 157 204 240 278 350
#     4  12  24  38  63  87 114 157 200 241 298 349
#
# _framework density 18.716595000000002
#
# number of rings (size 3 to 8) (size 9 to 14) (size 15 to 20)
#    0.000    1.444    1.111    4.667    0.000    9.333 
#    0.000    1.667    0.000    0.667    0.000    3.889 
#    0.000    0.000    0.000    0.000    0.000    0.000 
#
# Total GULP energy -201287.908012 kJ/mol
# GULP energy per Si atom -5591.330778 kJ/mol
# Density = 1.867399 g / cm^3
# Si number density = 18.716595 Si / 1000 Ang^3
#
#
#
# Elastic Constant Matrix: (Units=GPa)
#
#
# Indices 1 2 3 4 5 6 
#
# 1 135.2435 76.4658 51.3407 -0.0001 0.0000 0.0000
# 2 76.4658 177.3298 74.7548 -0.0005 -0.0002 0.0000
# 3 51.3407 74.7548 167.8156 -0.0017 -0.0002 -0.0001
# 4 -0.0001 -0.0005 -0.0017 1.5122 -0.0021 -0.0001
# 5 0.0000 -0.0002 -0.0002 -0.0021 18.8043 0.0000
# 6 0.0000 0.0000 -0.0001 -0.0001 0.0000 35.3523
#
#
#
# Elastic Compliance Matrix: (Units=1/GPa)
#
#
# Indices 1 2 3 4 5 6 
#
# 1 0.010041 -0.003736 -0.001407 -0.000002 0.000000 0.000000
# 2 -0.003736 0.008333 -0.002569 0.000000 0.000000 0.000000
# 3 -0.001407 -0.002569 0.007534 0.000007 0.000000 0.000000
# 4 -0.000002 0.000000 0.000007 0.661270 0.000074 0.000002
# 5 0.000000 0.000000 0.000000 0.000074 0.053179 0.000000
# 6 0.000000 0.000000 0.000000 0.000002 0.000000 0.028287
#
#
# Mechanical properties :
#
#
# Convention : Reuss Voigt Hill
#
# Bulk Modulus (GPa) = 95.39837 98.39019 96.89428
# Shear Modulus (GPa) = 6.34869 29.65561 18.00215
#
# Velocity S-wave (km/s) = 1.84374 3.98484 3.10470
# Velocity P-wave (km/s) = 7.45742 8.59386 8.04573
#
# Compressibility (1/GPa) = 0.01048236
#
# Stress axis : x y z
#
# Youngs Moduli (GPa) = 99.59282 119.99944 132.73277
#
# Poissons Ratio (x) = 0.44836 0.18682
# Poissons Ratio (y) = 0.37212 0.34100
# Poissons Ratio (z) = 0.14017 0.30829
#
# Static dielectric constant tensor:
#      x y z
#    x 1.701710 0.000000 0.000000 
#    y 0.000000 1.607070 0.000000 
#    z 0.000000 0.000000 1.615780 
# 
# From -- ./inp_files/6251.got.cif
#   From: 2010.05.17/outbox.cif.g08.bks.cpg/sg71_4_cif.got.tgz:6251.got - 2010.06.03 16:22:01.
