data_PCOD9523395
_publ_section_title
;
Structure prediction by ZEFSAII (Michael W. Deem and Ramdas Pophale) SiO2 
 PCOD9523395
Probable space group: I M M M
;
_chemical_formula_sum "Si O2"
_cell_formula_units_Z 72
_cell_length_a 8.776768
_cell_length_b 29.298176
_cell_length_c 15.028804
_cell_angle_alpha 90.000000
_cell_angle_beta 90.000000
_cell_angle_gamma 90.000000
_cell_volume 3864.556159
_symmetry_space_group_name_H-M "I M M M"
_symmetry_group_IT_number 71
_symmetry_cell_setting 'orthorhombic'
loop_
_space_group_symop_operation_xyz
x,y,z
-x,-y,z
x,-y,-z
-x,y,-z
-x,-y,-z
x,y,-z
-x,y,z
x,-y,z
1/2+x,1/2+y,1/2+z
1/2-x,1/2-y,1/2+z
1/2+x,1/2-y,1/2-z
1/2-x,1/2+y,1/2-z
1/2-x,1/2-y,1/2-z
1/2+x,1/2+y,1/2-z
1/2-x,1/2+y,1/2+z
1/2+x,1/2-y,1/2+z
loop_
_atom_site_type_symbol
_atom_site_label
_atom_site_fract_x
_atom_site_fract_y
_atom_site_fract_z
Si Si1 0.170951 0.051546 0.606887
Si Si2 0.681289 0.203498 0.000000
Si Si3 0.684422 0.195496 0.500000
Si Si4 0.823019 0.637052 0.828219
Si Si5 0.315333 0.553092 0.500000
Si Si6 0.818032 0.867498 0.864674
O O1 0.170232 0.050714 0.500000
O O2 0.299088 0.085688 0.637826
O O3 0.000000 0.066720 0.635310
O O4 0.192683 0.000000 0.639097
O O5 0.739967 0.173815 0.082838
O O6 0.500000 0.206535 0.000000
O O7 0.752552 0.253631 0.000000
O O8 0.500000 0.195714 0.500000
O O9 0.732145 0.168918 0.590115
O O10 0.730507 0.638047 0.736995
O O11 0.000000 0.647357 0.811279
O O12 0.261143 0.500000 0.500000
O O13 0.500000 0.550771 0.500000
O O14 0.272287 0.584682 0.585836
O O15 0.000000 0.864186 0.873991
#
# Coordination Sequence:
#
# PCOD9523395 Si02
#       6
#    16   8   8  16   8  16
#     4   9  18  33  53  77 109 151 195 235 278 335
#     4  11  23  41  64  87 110 144 190 243 296 348
#     4  10  23  41  59  81 114 153 192 238 292 355
#     4  11  22  37  57  85 118 153 194 242 293 345
#     4   8  16  34  60  87 113 146 189 232 276 329
#     4  10  21  38  61  87 118 154 189 235 292 348
#
# _framework density 18.630858
#
# number of rings (size 3 to 8) (size 9 to 14) (size 15 to 20)
#    0.000    2.111    1.111    3.667    0.000    4.000 
#    0.000    3.333    0.000   11.333    0.000    0.000 
#    0.000    0.000    0.000    0.000    0.000    0.000 
#
# Total GULP energy -200727.517600 kJ/mol
# GULP energy per Si atom -5575.764378 kJ/mol
# Density = 1.858845 g / cm^3
# Si number density = 18.630858 Si / 1000 Ang^3
#
#
#
# Elastic Constant Matrix: (Units=GPa)
#
#
# Indices 1 2 3 4 5 6 
#
# 1 28.8246 26.8868 30.3806 0.0000 0.0000 0.0000
# 2 26.8868 128.7817 67.0928 0.0001 0.0000 0.0000
# 3 30.3806 67.0928 125.0129 0.0005 0.0003 -0.0001
# 4 0.0000 0.0001 0.0005 -4.8748 0.0001 0.0000
# 5 0.0000 0.0000 0.0003 0.0001 2.6986 0.0000
# 6 0.0000 0.0000 -0.0001 0.0000 0.0000 26.7200
#
#
#
# Elastic Compliance Matrix: (Units=1/GPa)
#
#
# Indices 1 2 3 4 5 6 
#
# 1 0.049420 -0.005637 -0.008985 -0.000001 0.000002 0.000000
# 2 -0.005637 0.011422 -0.004760 0.000000 0.000000 0.000000
# 3 -0.008985 -0.004760 0.012737 0.000001 -0.000001 0.000000
# 4 -0.000001 0.000000 0.000001 -0.205137 0.000010 0.000000
# 5 0.000002 0.000000 -0.000001 0.000010 0.370559 0.000000
# 6 0.000000 0.000000 0.000000 0.000000 0.000000 0.037425
#
#
# Mechanical properties :
#
#
# Convention : Reuss Voigt Hill
#
# Bulk Modulus (GPa) = 28.72255 59.03773 43.88014
# Shear Modulus (GPa) = 15.30007 15.45938 15.37972
#
# Velocity S-wave (km/s) = 2.86881 2.88370 2.87626
# Velocity P-wave (km/s) = 5.14038 6.54558 5.88507
#
# Compressibility (1/GPa) = 0.03481585
#
# Stress axis : x y z
#
# Youngs Moduli (GPa) = 20.23456 87.55143 78.50937
#
# Poissons Ratio (x) = 0.49352 0.70539
# Poissons Ratio (y) = 0.11406 0.37371
# Poissons Ratio (z) = 0.18180 0.41675
#
# Static dielectric constant tensor:
#      x y z
#    x 1.645880 0.000000 0.000000 
#    y 0.000000 1.632370 0.000000 
#    z 0.000000 0.000000 1.559150 
# 
# From -- ./inp_files/31464.got.cif
#   From: 2010.05.17/outbox.cif.g08.bks.cpg/sg71_16_cif.got.tgz:31464.got - 2010.06.03 16:22:01.
