data_PCOD9523063
_publ_section_title
;
Structure prediction by ZEFSAII (Michael W. Deem and Ramdas Pophale) SiO2 
 PCOD9523063
Probable space group: I M M M
;
_chemical_formula_sum "Si O2"
_cell_formula_units_Z 64
_cell_length_a 16.870295
_cell_length_b 18.474161
_cell_length_c 11.751349
_cell_angle_alpha 90.000000
_cell_angle_beta 90.000000
_cell_angle_gamma 90.000000
_cell_volume 3662.478850
_symmetry_space_group_name_H-M "I M M M"
_symmetry_group_IT_number 71
_symmetry_cell_setting 'orthorhombic'
loop_
_space_group_symop_operation_xyz
x,y,z
-x,-y,z
x,-y,-z
-x,y,-z
-x,-y,-z
x,y,-z
-x,y,z
x,-y,z
1/2+x,1/2+y,1/2+z
1/2-x,1/2-y,1/2+z
1/2+x,1/2-y,1/2-z
1/2-x,1/2+y,1/2-z
1/2-x,1/2-y,1/2-z
1/2+x,1/2+y,1/2-z
1/2-x,1/2+y,1/2+z
1/2+x,1/2-y,1/2+z
loop_
_atom_site_type_symbol
_atom_site_label
_atom_site_fract_x
_atom_site_fract_y
_atom_site_fract_z
Si Si1 0.000000 0.585582 0.626447
Si Si2 0.647939 0.145783 0.264686
Si Si3 0.406219 0.720568 0.133850
Si Si4 0.803260 0.915337 0.634707
Si Si5 0.593705 0.084350 0.500000
O O1 0.918644 0.607524 0.687256
O O2 0.000000 0.500000 0.621695
O O3 0.000000 0.616954 0.500000
O O4 0.644139 0.226873 0.215773
O O5 0.734841 0.110904 0.278110
O O6 0.616264 0.130851 0.390810
O O7 0.500000 0.729317 0.157164
O O8 0.377178 0.638356 0.149523
O O9 0.392312 0.738286 0.000000
O O10 0.778508 0.906727 0.500000
O O11 0.819951 0.000000 0.651274
O O12 0.500000 0.075931 0.500000
O O13 0.625466 0.000000 0.500000
#
# Coordination Sequence:
#
# PCOD9523063 Si02
#       5
#     8  16  16  16   8
#     4  11  22  33  51  79 114 155 185 214 273 348
#     4  12  20  34  54  81 115 145 183 233 281 332
#     4  10  21  38  58  82 114 152 189 232 282 336
#     4  10  21  36  57  85 114 147 190 238 286 331
#     4  11  20  30  50  80 112 150 186 227 278 332
#
# _framework density 17.474504
#
# number of rings (size 3 to 8) (size 9 to 14) (size 15 to 20)
#    0.000    1.250    3.750    3.750    0.000    0.500 
#    0.000    2.500    0.000    0.000    0.000    0.000 
#    0.000    3.000    0.000    0.000    0.000    0.000 
#
# Total GULP energy -178301.300894 kJ/mol
# GULP energy per Si atom -5571.915653 kJ/mol
# Density = 1.743473 g / cm^3
# Si number density = 17.474504 Si / 1000 Ang^3
#
#
#
# Elastic Constant Matrix: (Units=GPa)
#
#
# Indices 1 2 3 4 5 6 
#
# 1 34.2901 33.4678 18.8664 0.0000 0.0000 0.0000
# 2 33.4678 142.8261 41.4915 0.0000 0.0000 0.0000
# 3 18.8664 41.4915 94.3364 0.0000 0.0000 0.0000
# 4 0.0000 0.0000 0.0000 27.1285 0.0000 0.0000
# 5 0.0000 0.0000 0.0000 0.0000 12.4024 0.0000
# 6 0.0000 0.0000 0.0000 0.0000 0.0000 26.5794
#
#
#
# Elastic Compliance Matrix: (Units=1/GPa)
#
#
# Indices 1 2 3 4 5 6 
#
# 1 0.039321 -0.007945 -0.004370 0.000000 0.000000 0.000000
# 2 -0.007945 0.009632 -0.002648 0.000000 0.000000 0.000000
# 3 -0.004370 -0.002648 0.012639 0.000000 0.000000 0.000000
# 4 0.000000 0.000000 0.000000 0.036862 0.000000 0.000000
# 5 0.000000 0.000000 0.000000 0.000000 0.080630 0.000000
# 6 0.000000 0.000000 0.000000 0.000000 0.000000 0.037623
#
#
# Mechanical properties :
#
#
# Convention : Reuss Voigt Hill
#
# Bulk Modulus (GPa) = 31.57718 51.01157 41.29438
# Shear Modulus (GPa) = 19.44114 25.06386 22.25250
#
# Velocity S-wave (km/s) = 3.33910 3.79134 3.57238
# Velocity P-wave (km/s) = 5.74245 6.95852 6.37953
#
# Compressibility (1/GPa) = 0.03166844
#
# Stress axis : x y z
#
# Youngs Moduli (GPa) = 25.43157 103.81740 79.12159
#
# Poissons Ratio (x) = 0.82478 0.34574
# Poissons Ratio (y) = 0.20204 0.20949
# Poissons Ratio (z) = 0.11113 0.27488
#
# Static dielectric constant tensor:
#      x y z
#    x 1.625480 0.000000 0.000000 
#    y 0.000000 1.623700 0.000000 
#    z 0.000000 0.000000 1.576570 
# 
# From -- ./inp_files/23382.got.cif
#   From: 2010.05.17/outbox.cif.g08.bks.cpg/sg71_12_cif.got.tgz:23382.got - 2010.06.03 16:22:01.
