data_PCOD9523265
_publ_section_title
;
Structure prediction by ZEFSAII (Michael W. Deem and Ramdas Pophale) SiO2 
 PCOD9523265
Probable space group: I M M M
;
_chemical_formula_sum "Si O2"
_cell_formula_units_Z 88
_cell_length_a 29.536803
_cell_length_b 15.506138
_cell_length_c 9.632464
_cell_angle_alpha 90.000000
_cell_angle_beta 90.000000
_cell_angle_gamma 90.000000
_cell_volume 4411.685305
_symmetry_space_group_name_H-M "I M M M"
_symmetry_group_IT_number 71
_symmetry_cell_setting 'orthorhombic'
loop_
_space_group_symop_operation_xyz
x,y,z
-x,-y,z
x,-y,-z
-x,y,-z
-x,-y,-z
x,y,-z
-x,y,z
x,-y,z
1/2+x,1/2+y,1/2+z
1/2-x,1/2-y,1/2+z
1/2+x,1/2-y,1/2-z
1/2-x,1/2+y,1/2-z
1/2-x,1/2-y,1/2-z
1/2+x,1/2+y,1/2-z
1/2-x,1/2+y,1/2+z
1/2+x,1/2-y,1/2+z
loop_
_atom_site_type_symbol
_atom_site_label
_atom_site_fract_x
_atom_site_fract_y
_atom_site_fract_z
Si Si1 0.901320 0.648704 0.338928
Si Si2 0.182490 0.604366 0.164236
Si Si3 0.867880 0.102341 0.845811
Si Si4 0.053148 0.835870 0.658675
Si Si5 0.946065 0.500000 0.840485
Si Si6 0.213948 0.105288 0.342243
O O1 0.897034 0.621211 0.500000
O O2 0.852636 0.651502 0.264294
O O3 0.928222 0.738292 0.337783
O O4 0.928733 0.581579 0.245099
O O5 0.177558 0.500000 0.184242
O O6 0.234582 0.628318 0.195063
O O7 0.174355 0.620771 0.000000
O O8 0.914256 0.115164 0.763343
O O9 0.825061 0.136906 0.759722
O O10 0.860562 0.000000 0.857139
O O11 0.870284 0.140110 0.000000
O O12 0.058713 0.867848 0.500000
O O13 0.000000 0.839512 0.693080
O O14 0.000000 0.500000 0.844761
O O15 0.928990 0.500000 0.000000
O O16 0.204435 0.133563 0.500000
O O17 0.213067 0.000000 0.343647
#
# Coordination Sequence:
#
# PCOD9523265 Si02
#       6
#    16  16  16  16   8  16
#     4  11  22  36  56  83 113 147 189 237 284 327
#     4   9  17  31  53  82 116 152 190 229 271 326
#     4  10  21  37  59  88 116 141 177 230 285 339
#     4  10  23  42  60  79 108 147 189 233 282 338
#     4  11  23  37  55  79 109 149 195 237 280 335
#     4   8  15  30  54  82 112 149 186 222 269 326
#
# _framework density 19.947026000000001
#
# number of rings (size 3 to 8) (size 9 to 14) (size 15 to 20)
#    0.000    2.273    0.909    3.000    0.000    5.455 
#    0.000    4.545    0.000    0.000    0.000    0.000 
#    0.000    0.000    0.000    0.000    0.000    0.000 
#
# Total GULP energy -245684.803242 kJ/mol
# GULP energy per Si atom -5583.745528 kJ/mol
# Density = 1.990163 g / cm^3
# Si number density = 19.947026 Si / 1000 Ang^3
#
#
#
# Elastic Constant Matrix: (Units=GPa)
#
#
# Indices 1 2 3 4 5 6 
#
# 1 165.0773 2.9074 100.8307 0.0000 0.0000 0.0000
# 2 2.9074 15.5667 13.5436 0.0000 0.0000 0.0000
# 3 100.8307 13.5436 132.2405 0.0000 0.0000 0.0000
# 4 0.0000 0.0000 0.0000 6.8715 0.0000 0.0000
# 5 0.0000 0.0000 0.0000 0.0000 25.6244 0.0000
# 6 0.0000 0.0000 0.0000 0.0000 0.0000 24.5891
#
#
#
# Elastic Compliance Matrix: (Units=1/GPa)
#
#
# Indices 1 2 3 4 5 6 
#
# 1 0.011860 0.006206 -0.009679 0.000000 0.000000 0.000000
# 2 0.006206 0.073771 -0.012287 0.000000 0.000000 0.000000
# 3 -0.009679 -0.012287 0.016200 0.000000 0.000000 0.000000
# 4 0.000000 0.000000 0.000000 0.145529 0.000000 0.000000
# 5 0.000000 0.000000 0.000000 0.000000 0.039025 0.000000
# 6 0.000000 0.000000 0.000000 0.000000 0.000000 0.040668
#
#
# Mechanical properties :
#
#
# Convention : Reuss Voigt Hill
#
# Bulk Modulus (GPa) = 14.22249 60.82755 37.52502
# Shear Modulus (GPa) = 13.08858 24.45719 18.77288
#
# Velocity S-wave (km/s) = 2.56435 3.50538 3.07112
# Velocity P-wave (km/s) = 3.98917 6.85159 5.60615
#
# Compressibility (1/GPa) = 0.07031116
#
# Stress axis : x y z
#
# Youngs Moduli (GPa) = 84.31393 13.55548 61.72699
#
# Poissons Ratio (x) = -0.08412 0.59745
# Poissons Ratio (y) = -0.52324 0.75845
# Poissons Ratio (z) = 0.81607 0.16656
#
# Static dielectric constant tensor:
#      x y z
#    x 1.688380 0.000000 0.000000 
#    y 0.000000 1.734100 0.000000 
#    z 0.000000 0.000000 1.692410 
# 
# From -- ./inp_files/16698.got.cif
#   From: 2010.05.17/outbox.cif.g08.bks.cpg/sg71_9_cif.got.tgz:16698.got - 2010.06.03 16:22:01.
