data_PCOD9523850
_publ_section_title
;
Structure prediction by ZEFSAII (Michael W. Deem and Ramdas Pophale) SiO2 
 PCOD9523850
Probable space group: I M M M
;
_chemical_formula_sum "Si O2"
_cell_formula_units_Z 100
_cell_length_a 29.464120
_cell_length_b 8.928406
_cell_length_c 20.958608
_cell_angle_alpha 90.000000
_cell_angle_beta 90.000000
_cell_angle_gamma 90.000000
_cell_volume 5513.531246
_symmetry_space_group_name_H-M "I M M M"
_symmetry_group_IT_number 71
_symmetry_cell_setting 'orthorhombic'
loop_
_space_group_symop_operation_xyz
x,y,z
-x,-y,z
x,-y,-z
-x,y,-z
-x,-y,-z
x,y,-z
-x,y,z
x,-y,z
1/2+x,1/2+y,1/2+z
1/2-x,1/2-y,1/2+z
1/2+x,1/2-y,1/2-z
1/2-x,1/2+y,1/2-z
1/2-x,1/2-y,1/2-z
1/2+x,1/2+y,1/2-z
1/2-x,1/2+y,1/2+z
1/2+x,1/2-y,1/2+z
loop_
_atom_site_type_symbol
_atom_site_label
_atom_site_fract_x
_atom_site_fract_y
_atom_site_fract_z
Si Si1 0.143222 0.678102 0.302963
Si Si2 0.695209 0.323071 0.317123
Si Si3 0.948337 0.177446 0.262006
Si Si4 0.640901 0.827693 0.427322
Si Si5 0.217360 0.165835 0.370426
Si Si6 0.235123 0.000000 0.500000
Si Si7 0.052226 0.175364 0.891515
O O1 0.145456 0.500000 0.303056
O O2 0.170157 0.743352 0.241651
O O3 0.091574 0.733351 0.296099
O O4 0.170084 0.747791 0.362830
O O5 0.696865 0.500000 0.308193
O O6 0.666003 0.282358 0.379682
O O7 0.744407 0.255190 0.332045
O O8 0.943736 0.194760 0.185195
O O9 0.000000 0.221698 0.278766
O O10 0.943284 0.000000 0.274837
O O11 0.657238 0.816637 0.500000
O O12 0.588194 0.783322 0.423957
O O13 0.648216 0.000000 0.406685
O O14 0.211914 0.000000 0.340723
O O15 0.232458 0.128584 0.442554
O O16 0.000000 0.204206 0.909130
O O17 0.061981 0.000000 0.905802
#
# Coordination Sequence:
#
# PCOD9523850 Si02
#       7
#    16  16  16  16  16   4  16
#     4  12  23  37  60  94 127 158 197 248 303 352
#     4  12  24  38  58  86 119 157 203 253 301 348
#     4   9  18  34  57  86 120 157 196 243 303 364
#     4  11  24  37  51  74 108 152 201 250 299 355
#     4  10  22  42  64  87 116 156 196 240 293 354
#     4   8  24  44  70  88 117 166 197 244 298 362
#     4   9  18  34  54  75 103 143 194 249 300 352
#
# _framework density 18.137197
#
# number of rings (size 3 to 8) (size 9 to 14) (size 15 to 20)
#    0.480    1.120    1.600    5.280    1.120    2.240 
#    0.000    4.400    0.000    0.000    0.000    1.120 
#    0.000    1.280    0.000    0.000    0.000    0.000 
#
# Total GULP energy -278693.220651 kJ/mol
# GULP energy per Si atom -5573.864413 kJ/mol
# Density = 1.809592 g / cm^3
# Si number density = 18.137197 Si / 1000 Ang^3
#
#
#
# Elastic Constant Matrix: (Units=GPa)
#
#
# Indices 1 2 3 4 5 6 
#
# 1 94.6485 45.0084 16.8996 0.0000 0.0000 0.0000
# 2 45.0084 106.9226 19.7903 0.0000 0.0000 0.0000
# 3 16.8996 19.7903 38.0376 0.0000 0.0000 0.0000
# 4 0.0000 0.0000 0.0000 26.5183 0.0000 0.0000
# 5 0.0000 0.0000 0.0000 0.0000 9.6826 0.0000
# 6 0.0000 0.0000 0.0000 0.0000 0.0000 33.4458
#
#
#
# Elastic Compliance Matrix: (Units=1/GPa)
#
#
# Indices 1 2 3 4 5 6 
#
# 1 0.013593 -0.005095 -0.003389 0.000000 0.000000 0.000000
# 2 -0.005095 0.012259 -0.004114 0.000000 0.000000 0.000000
# 3 -0.003389 -0.004114 0.029936 0.000000 0.000000 0.000000
# 4 0.000000 0.000000 0.000000 0.037710 0.000000 0.000000
# 5 0.000000 0.000000 0.000000 0.000000 0.103278 0.000000
# 6 0.000000 0.000000 0.000000 0.000000 0.000000 0.029899
#
#
# Mechanical properties :
#
#
# Convention : Reuss Voigt Hill
#
# Bulk Modulus (GPa) = 32.68801 44.77839 38.73320
# Shear Modulus (GPa) = 19.07903 24.45670 21.76786
#
# Velocity S-wave (km/s) = 3.24686 3.67608 3.46812
# Velocity P-wave (km/s) = 5.66727 6.53914 6.11875
#
# Compressibility (1/GPa) = 0.03059226
#
# Stress axis : x y z
#
# Youngs Moduli (GPa) = 73.56642 81.57460 33.40469
#
# Poissons Ratio (x) = 0.41560 0.11319
# Poissons Ratio (y) = 0.37480 0.13744
# Poissons Ratio (z) = 0.24928 0.33564
#
# Static dielectric constant tensor:
#      x y z
#    x 1.669830 0.000000 0.000000 
#    y 0.000000 1.605790 0.000000 
#    z 0.000000 0.000000 1.621940 
# 
# From -- ./inp_files/56742.got.cif
#   From: 2010.05.17/outbox.cif.g08.bks.cpg/sg71_29_cif.got.tgz:56742.got - 2010.06.03 16:22:01.
