data_PCOD9523449
_publ_section_title
;
Structure prediction by ZEFSAII (Michael W. Deem and Ramdas Pophale) SiO2 
 PCOD9523449
Probable space group: I M M M
;
_chemical_formula_sum "Si O2"
_cell_formula_units_Z 88
_cell_length_a 12.532758
_cell_length_b 14.977460
_cell_length_c 25.523540
_cell_angle_alpha 90.000000
_cell_angle_beta 90.000000
_cell_angle_gamma 90.000000
_cell_volume 4790.995149
_symmetry_space_group_name_H-M "I M M M"
_symmetry_group_IT_number 71
_symmetry_cell_setting 'orthorhombic'
loop_
_space_group_symop_operation_xyz
x,y,z
-x,-y,z
x,-y,-z
-x,y,-z
-x,-y,-z
x,y,-z
-x,y,z
x,-y,z
1/2+x,1/2+y,1/2+z
1/2-x,1/2-y,1/2+z
1/2+x,1/2-y,1/2-z
1/2-x,1/2+y,1/2-z
1/2-x,1/2-y,1/2-z
1/2+x,1/2+y,1/2-z
1/2-x,1/2+y,1/2+z
1/2+x,1/2-y,1/2+z
loop_
_atom_site_type_symbol
_atom_site_label
_atom_site_fract_x
_atom_site_fract_y
_atom_site_fract_z
Si Si1 0.342387 0.240980 0.560130
Si Si2 0.118348 0.895802 0.861319
Si Si3 0.874663 0.193042 0.397970
Si Si4 0.627518 0.500000 0.060075
Si Si5 0.000000 0.605814 0.241142
Si Si6 0.000000 0.608548 0.882676
Si Si7 0.803987 0.301330 0.702657
O O1 0.373266 0.236233 0.500000
O O2 0.378377 0.331542 0.588393
O O3 0.214095 0.238388 0.565460
O O4 0.398457 0.158526 0.590960
O O5 0.213690 0.861539 0.824813
O O6 0.000000 0.884718 0.836766
O O7 0.131784 0.000000 0.873972
O O8 0.849272 0.088661 0.407080
O O9 0.849847 0.232396 0.340630
O O10 0.000000 0.207577 0.410416
O O11 0.500000 0.500000 0.053681
O O12 0.672710 0.500000 0.000000
O O13 0.000000 0.630761 0.179405
O O14 0.101817 0.642144 0.271948
O O15 0.000000 0.500000 0.242351
O O16 0.000000 0.500000 0.889542
O O17 0.750000 0.250000 0.750000
#
# Coordination Sequence:
#
# PCOD9523449 Si02
#       7
#    16  16  16   8   8   8  16
#     4  11  23  39  63  90 122 162 206 257 313 371
#     4  10  22  41  63  90 125 161 206 256 306 368
#     4  10  21  39  60  87 122 158 201 250 310 369
#     4   9  18  34  58  87 123 157 195 244 303 374
#     4  11  22  41  66  89 117 166 215 254 314 370
#     4  11  25  42  60  88 128 166 212 260 304 377
#     4  11  23  39  64  90 125 162 207 258 310 366
#
# _framework density 18.367792000000001
#
# number of rings (size 3 to 8) (size 9 to 14) (size 15 to 20)
#    0.000    1.545    1.818    3.545    2.545    2.182 
#    3.273    0.909    0.000    0.000    0.000    2.545 
#    0.000    0.000    0.000    0.000    0.000    0.000 
#
# Total GULP energy -245444.726627 kJ/mol
# GULP energy per Si atom -5578.289242 kJ/mol
# Density = 1.832599 g / cm^3
# Si number density = 18.367792 Si / 1000 Ang^3
#
#
#
# Elastic Constant Matrix: (Units=GPa)
#
#
# Indices 1 2 3 4 5 6 
#
# 1 150.4246 59.7137 60.8355 0.0000 0.0000 0.0000
# 2 59.7137 131.0385 72.0854 0.0000 0.0000 0.0000
# 3 60.8355 72.0854 147.6227 0.0000 0.0000 0.0000
# 4 0.0000 0.0000 0.0000 5.4098 0.0000 0.0000
# 5 0.0000 0.0000 0.0000 0.0000-1757.1846 0.0000
# 6 0.0000 0.0000 0.0000 0.0000 0.0000 25.1036
#
#
#
# Elastic Compliance Matrix: (Units=1/GPa)
#
#
# Indices 1 2 3 4 5 6 
#
# 1 0.008624 -0.002700 -0.002235 0.000000 0.000000 0.000000
# 2 -0.002700 0.011280 -0.004395 0.000000 0.000000 0.000000
# 3 -0.002235 -0.004395 0.009841 0.000000 0.000000 0.000000
# 4 0.000000 0.000000 0.000000 0.184849 0.000000 0.000000
# 5 0.000000 0.000000 0.000000 0.000000 -0.000569 0.000000
# 6 0.000000 0.000000 0.000000 0.000000 0.000000 0.039835
#
#
# Mechanical properties :
#
#
# Convention : Reuss Voigt Hill
#
# Bulk Modulus (GPa) = 90.22485 90.48390 90.35438
# Shear Modulus (GPa) = 18.10178 -329.57083 -155.73453
#
# Velocity S-wave (km/s) = 3.14270 -13.40963 -9.21796
# Velocity P-wave (km/s) = 7.89915 13.79813 7.99974
#
# Compressibility (1/GPa) = 0.01108342
#
# Stress axis : x y z
#
# Youngs Moduli (GPa) = 115.95887 88.65549 101.61109
#
# Poissons Ratio (x) = 0.23938 0.22714
# Poissons Ratio (y) = 0.31310 0.44660
# Poissons Ratio (z) = 0.25921 0.38966
#
# Static dielectric constant tensor:
#      x y z
#    x 1.627100 0.000000 0.000000 
#    y 0.000000 1.628200 0.000000 
#    z 0.000000 0.000000 1.620900 
# 
# From -- ./inp_files/64491.got.cif
#   From: 2010.05.17/outbox.cif.g08.bks.cpg/sg71_33_cif.got.tgz:64491.got - 2010.06.03 16:22:01.
