data_PCOD9523553
_publ_section_title
;
Structure prediction by ZEFSAII (Michael W. Deem and Ramdas Pophale) SiO2 
 PCOD9523553
Probable space group: I M M M
;
_chemical_formula_sum "Si O2"
_cell_formula_units_Z 90
_cell_length_a 11.541842
_cell_length_b 22.176856
_cell_length_c 18.485622
_cell_angle_alpha 90.000000
_cell_angle_beta 90.000000
_cell_angle_gamma 90.000000
_cell_volume 4731.612490
_symmetry_space_group_name_H-M "I M M M"
_symmetry_group_IT_number 71
_symmetry_cell_setting 'orthorhombic'
loop_
_space_group_symop_operation_xyz
x,y,z
-x,-y,z
x,-y,-z
-x,y,-z
-x,-y,-z
x,y,-z
-x,y,z
x,-y,z
1/2+x,1/2+y,1/2+z
1/2-x,1/2-y,1/2+z
1/2+x,1/2-y,1/2-z
1/2-x,1/2+y,1/2-z
1/2-x,1/2-y,1/2-z
1/2+x,1/2+y,1/2-z
1/2-x,1/2+y,1/2+z
1/2+x,1/2-y,1/2+z
loop_
_atom_site_type_symbol
_atom_site_label
_atom_site_fract_x
_atom_site_fract_y
_atom_site_fract_z
Si Si1 0.000000 0.746917 0.587714
Si Si2 0.246500 0.783436 0.085794
Si Si3 0.000000 0.500000 0.500000
Si Si4 0.362665 0.607207 0.334128
Si Si5 0.242759 0.500000 0.420274
Si Si6 0.715563 0.429428 0.176685
Si Si7 0.863942 0.652223 0.917567
Si Si8 0.000000 0.111818 0.413568
O O1 0.880936 0.715008 0.609718
O O2 0.000000 0.817342 0.608807
O O3 0.000000 0.746843 0.500000
O O4 0.168936 0.828338 0.131978
O O5 0.204740 0.714601 0.092969
O O6 0.239427 0.799012 0.000000
O O7 0.894710 0.500000 0.437894
O O8 0.500000 0.594963 0.340130
O O9 0.287629 0.558206 0.377884
O O10 0.325059 0.601372 0.250932
O O11 0.299180 0.500000 0.500000
O O12 0.734975 0.500000 0.189512
O O13 0.823934 0.396071 0.140861
O O14 0.612138 0.419578 0.119571
O O15 0.000000 0.664632 0.912915
O O16 0.838439 0.631312 0.000000
O O17 0.000000 0.109426 0.500000
#
# Coordination Sequence:
#
# PCOD9523553 Si02
#       8
#     8  16   2  16   8  16  16   8
#     4   9  18  38  66  98 130 164 218 276 337 390
#     4  10  21  40  67  98 128 171 218 276 331 401
#     4   8  24  48  70 100 124 172 242 278 314 392
#     4  12  25  42  65  98 137 175 219 274 339 399
#     4  10  23  46  70  93 128 175 225 274 324 384
#     4  12  25  42  63  95 134 175 219 275 336 396
#     4  10  22  43  67  94 131 170 219 277 330 399
#     4  11  21  40  70  96 126 170 223 278 330 397
#
# _framework density 19.021000000000001
#
# number of rings (size 3 to 8) (size 9 to 14) (size 15 to 20)
#    0.267    1.067    3.556    2.133    0.000    6.044 
#    4.800    0.889    0.000    0.000    0.000    0.000 
#    0.000    0.000    0.000    0.000    0.000    0.000 
#
# Total GULP energy -251064.576160 kJ/mol
# GULP energy per Si atom -5579.212804 kJ/mol
# Density = 1.897771 g / cm^3
# Si number density = 19.021000 Si / 1000 Ang^3
#
#
#
# Elastic Constant Matrix: (Units=GPa)
#
#
# Indices 1 2 3 4 5 6 
#
# 1 117.9471 16.7134 40.4171 0.0000 0.0000 0.0000
# 2 16.7134 52.0441 32.3597 0.0000 0.0000 0.0000
# 3 40.4171 32.3597 96.5445 0.0000 0.0000 0.0000
# 4 0.0000 0.0000 0.0000 36.3209 0.0000 0.0000
# 5 0.0000 0.0000 0.0000 0.0000 27.1229 0.0000
# 6 0.0000 0.0000 0.0000 0.0000 0.0000 26.7716
#
#
#
# Elastic Compliance Matrix: (Units=1/GPa)
#
#
# Indices 1 2 3 4 5 6 
#
# 1 0.009922 -0.000763 -0.003898 0.000000 0.000000 0.000000
# 2 -0.000763 0.024332 -0.007836 0.000000 0.000000 0.000000
# 3 -0.003898 -0.007836 0.014616 0.000000 0.000000 0.000000
# 4 0.000000 0.000000 0.000000 0.027532 0.000000 0.000000
# 5 0.000000 0.000000 0.000000 0.000000 0.036869 0.000000
# 6 0.000000 0.000000 0.000000 0.000000 0.000000 0.037353
#
#
# Mechanical properties :
#
#
# Convention : Reuss Voigt Hill
#
# Bulk Modulus (GPa) = 41.88257 49.50179 45.69218
# Shear Modulus (GPa) = 27.23640 29.84612 28.54126
#
# Velocity S-wave (km/s) = 3.78817 3.96550 3.87785
# Velocity P-wave (km/s) = 6.41876 6.85917 6.64262
#
# Compressibility (1/GPa) = 0.02387628
#
# Stress axis : x y z
#
# Youngs Moduli (GPa) = 100.78367 41.09849 68.41630
#
# Poissons Ratio (x) = 0.03134 0.26670
# Poissons Ratio (y) = 0.07686 0.53613
# Poissons Ratio (z) = 0.39287 0.32206
#
# Static dielectric constant tensor:
#      x y z
#    x 1.668870 0.000000 0.000000 
#    y 0.000000 1.650670 0.000000 
#    z 0.000000 0.000000 1.648030 
# 
# From -- ./inp_files/43421.got.cif
#   From: 2010.05.17/outbox.cif.g08.bks.cpg/sg71_22_cif.got.tgz:43421.got - 2010.06.03 16:22:01.
