data_PCOD9523460
_publ_section_title
;
Structure prediction by ZEFSAII (Michael W. Deem and Ramdas Pophale) SiO2 
 PCOD9523460
Probable space group: I M M M
;
_chemical_formula_sum "Si O2"
_cell_formula_units_Z 66
_cell_length_a 14.978399
_cell_length_b 7.751577
_cell_length_c 30.044194
_cell_angle_alpha 90.000000
_cell_angle_beta 90.000000
_cell_angle_gamma 90.000000
_cell_volume 3488.317594
_symmetry_space_group_name_H-M "I M M M"
_symmetry_group_IT_number 71
_symmetry_cell_setting 'orthorhombic'
loop_
_space_group_symop_operation_xyz
x,y,z
-x,-y,z
x,-y,-z
-x,y,-z
-x,-y,-z
x,y,-z
-x,y,z
x,-y,z
1/2+x,1/2+y,1/2+z
1/2-x,1/2-y,1/2+z
1/2+x,1/2-y,1/2-z
1/2-x,1/2+y,1/2-z
1/2-x,1/2-y,1/2-z
1/2+x,1/2+y,1/2-z
1/2-x,1/2+y,1/2+z
1/2+x,1/2-y,1/2+z
loop_
_atom_site_type_symbol
_atom_site_label
_atom_site_fract_x
_atom_site_fract_y
_atom_site_fract_z
Si Si1 0.354013 0.695449 0.000000
Si Si2 0.227757 0.792202 0.683897
Si Si3 0.500000 0.000000 0.000000
Si Si4 0.605649 0.500000 0.447552
Si Si5 0.899032 0.295979 0.761444
Si Si6 0.225838 0.699803 0.085316
O O1 0.293057 0.710249 0.043988
O O2 0.423476 0.848182 0.000000
O O3 0.391547 0.500000 0.000000
O O4 0.144548 0.726170 0.712645
O O5 0.321108 0.727176 0.705766
O O6 0.227657 0.751046 0.631862
O O7 0.226384 0.000000 0.688403
O O8 0.500000 0.500000 0.444094
O O9 0.630124 0.500000 0.500000
O O10 0.646815 0.668935 0.424920
O O11 0.905199 0.500000 0.770531
O O12 0.000000 0.224989 0.765021
O O13 0.195769 0.500000 0.089280
#
# Coordination Sequence:
#
# PCOD9523460 Si02
#       6
#     8  16   2   8  16  16
#     4  10  21  39  61  86 116 154 202 239 292 357
#     4   9  19  35  57  80 109 149 188 233 286 341
#     4  12  22  40  60  86 118 160 182 260 304 334
#     4  11  23  37  58  90 122 152 194 241 289 351
#     4   9  18  34  54  81 112 145 184 233 285 343
#     4  10  21  40  62  84 116 158 195 238 292 349
#
# _framework density 18.920294999999999
#
# number of rings (size 3 to 8) (size 9 to 14) (size 15 to 20)
#    0.000    2.303    1.212    0.909    1.697    1.939 
#    2.182    3.636    0.000    0.000    0.000    0.000 
#    0.000    0.000    0.000    0.000    0.000    0.000 
#
# Total GULP energy -183790.558548 kJ/mol
# GULP energy per Si atom -5569.410865 kJ/mol
# Density = 1.887723 g / cm^3
# Si number density = 18.920295 Si / 1000 Ang^3
#
#
#
# Elastic Constant Matrix: (Units=GPa)
#
#
# Indices 1 2 3 4 5 6 
#
# 1 86.4474 28.0370 17.8937 0.0000 0.0000 0.0000
# 2 28.0370 83.3051 7.4964 0.0000 0.0000 0.0000
# 3 17.8937 7.4964 105.5642 0.0000 0.0000 0.0000
# 4 0.0000 0.0000 0.0000 41.5101 0.0000 0.0000
# 5 0.0000 0.0000 0.0000 0.0000 11.1490 0.0000
# 6 0.0000 0.0000 0.0000 0.0000 0.0000 35.0121
#
#
#
# Elastic Compliance Matrix: (Units=1/GPa)
#
#
# Indices 1 2 3 4 5 6 
#
# 1 0.013376 -0.004326 -0.001960 0.000000 0.000000 0.000000
# 2 -0.004326 0.013480 -0.000224 0.000000 0.000000 0.000000
# 3 -0.001960 -0.000224 0.009821 0.000000 0.000000 0.000000
# 4 0.000000 0.000000 0.000000 0.024091 0.000000 0.000000
# 5 0.000000 0.000000 0.000000 0.000000 0.089694 0.000000
# 6 0.000000 0.000000 0.000000 0.000000 0.000000 0.028562
#
#
# Mechanical properties :
#
#
# Convention : Reuss Voigt Hill
#
# Bulk Modulus (GPa) = 42.26914 42.46340 42.36627
# Shear Modulus (GPa) = 25.00885 32.32688 28.66787
#
# Velocity S-wave (km/s) = 3.63960 4.13798 3.89677
# Velocity P-wave (km/s) = 6.32862 6.73220 6.53353
#
# Compressibility (1/GPa) = 0.02365792
#
# Stress axis : x y z
#
# Youngs Moduli (GPa) = 74.75889 74.18390 101.82174
#
# Poissons Ratio (x) = 0.32088 0.19959
# Poissons Ratio (y) = 0.32337 0.02281
# Poissons Ratio (z) = 0.14654 0.01662
#
# Static dielectric constant tensor:
#      x y z
#    x 1.630910 0.000000 0.000000 
#    y 0.000000 1.681850 0.000000 
#    z 0.000000 0.000000 1.656710 
# 
# From -- ./inp_files/65131.got.cif
#   From: 2010.05.17/outbox.cif.g08.bks.cpg/sg71_33_cif.got.tgz:65131.got - 2010.06.03 16:22:01.
