data_PCOD9523315
_publ_section_title
;
Structure prediction by ZEFSAII (Michael W. Deem and Ramdas Pophale) SiO2 
 PCOD9523315
Probable space group: I M M M
;
_chemical_formula_sum "Si O2"
_cell_formula_units_Z 82
_cell_length_a 21.109627
_cell_length_b 16.250110
_cell_length_c 11.932001
_cell_angle_alpha 90.000000
_cell_angle_beta 90.000000
_cell_angle_gamma 90.000000
_cell_volume 4093.079177
_symmetry_space_group_name_H-M "I M M M"
_symmetry_group_IT_number 71
_symmetry_cell_setting 'orthorhombic'
loop_
_space_group_symop_operation_xyz
x,y,z
-x,-y,z
x,-y,-z
-x,y,-z
-x,-y,-z
x,y,-z
-x,y,z
x,-y,z
1/2+x,1/2+y,1/2+z
1/2-x,1/2-y,1/2+z
1/2+x,1/2-y,1/2-z
1/2-x,1/2+y,1/2-z
1/2-x,1/2-y,1/2-z
1/2+x,1/2+y,1/2-z
1/2-x,1/2+y,1/2+z
1/2+x,1/2-y,1/2+z
loop_
_atom_site_type_symbol
_atom_site_label
_atom_site_fract_x
_atom_site_fract_y
_atom_site_fract_z
Si Si1 0.423194 0.294858 0.000000
Si Si2 0.635589 0.653175 0.365842
Si Si3 0.000000 0.361349 0.807276
Si Si4 0.802023 0.901204 0.500000
Si Si5 0.000000 0.164879 0.866387
Si Si6 0.500000 0.000000 0.500000
Si Si7 0.624270 0.808525 0.213933
Si Si8 0.745897 0.094676 0.263111
O O1 0.374965 0.371913 0.000000
O O2 0.401152 0.243387 0.108917
O O3 0.500000 0.307877 0.000000
O O4 0.639607 0.652798 0.500000
O O5 0.565350 0.625196 0.327407
O O6 0.638134 0.745405 0.316134
O O7 0.691167 0.602136 0.310712
O O8 0.000000 0.427064 0.904506
O O9 0.066366 0.368925 0.743015
O O10 0.000000 0.263022 0.839998
O O11 0.765835 0.872743 0.613021
O O12 0.800829 0.000000 0.500000
O O13 0.000000 0.158934 0.000000
O O14 0.690000 0.856063 0.202722
O O15 0.726539 0.000000 0.276413
#
# Coordination Sequence:
#
# PCOD9523315 Si02
#       8
#     8  16   8   8   8   2  16  16
#     4  12  24  45  74  97 130 177 231 277 333 405
#     4  10  21  37  65  93 124 161 215 265 327 393
#     4  10  22  39  58  97 125 162 216 254 327 390
#     4  10  24  44  66 102 138 169 222 280 341 403
#     4   8  16  36  58  89 121 152 196 268 302 370
#     4  12  24  36  72  90 140 164 210 270 338 396
#     4  11  24  41  65  93 129 171 221 276 325 391
#     4  11  25  42  61  92 133 173 217 273 332 397
#
# _framework density 20.033816999999999
#
# number of rings (size 3 to 8) (size 9 to 14) (size 15 to 20)
#    0.000    1.561    3.415    0.585    5.463    0.585 
#    1.756    0.488    0.000    2.927    0.000    0.000 
#    0.000    0.000    0.000    0.000    0.000    0.000 
#
# Total GULP energy -228362.364511 kJ/mol
# GULP energy per Si atom -5569.813769 kJ/mol
# Density = 1.998822 g / cm^3
# Si number density = 20.033817 Si / 1000 Ang^3
#
#
#
# Elastic Constant Matrix: (Units=GPa)
#
#
# Indices 1 2 3 4 5 6 
#
# 1 134.9073 21.4331 11.1758 0.0000 0.0000 0.0000
# 2 21.4331 15.9351 9.0028 0.0000 0.0000 0.0000
# 3 11.1758 9.0028 80.2364 0.0000 0.0000 0.0000
# 4 0.0000 0.0000 0.0000 30.7604 0.0000 0.0000
# 5 0.0000 0.0000 0.0000 0.0000 48.6257 0.0000
# 6 0.0000 0.0000 0.0000 0.0000 0.0000 -1.7694
#
#
#
# Elastic Compliance Matrix: (Units=1/GPa)
#
#
# Indices 1 2 3 4 5 6 
#
# 1 0.009428 -0.012747 0.000117 0.000000 0.000000 0.000000
# 2 -0.012747 0.084237 -0.007676 0.000000 0.000000 0.000000
# 3 0.000117 -0.007676 0.013308 0.000000 0.000000 0.000000
# 4 0.000000 0.000000 0.000000 0.032509 0.000000 0.000000
# 5 0.000000 0.000000 0.000000 0.000000 0.020565 0.000000
# 6 0.000000 0.000000 0.000000 0.000000 0.000000 -0.565152
#
#
# Mechanical properties :
#
#
# Convention : Reuss Voigt Hill
#
# Bulk Modulus (GPa) = 15.06922 34.92248 24.99585
# Shear Modulus (GPa) = -14.60398 28.15447 6.77525
#
# Velocity S-wave (km/s) = -2.70287 3.75286 1.84099
# Velocity P-wave (km/s) = 1.48406 6.02065 4.12588
#
# Compressibility (1/GPa) = 0.06636045
#
# Stress axis : x y z
#
# Youngs Moduli (GPa) = 106.06767 11.87134 75.14187
#
# Poissons Ratio (x) = 0.15132 -0.00880
# Poissons Ratio (y) = 1.35204 0.57680
# Poissons Ratio (z) = -0.01242 0.09113
#
# Static dielectric constant tensor:
#      x y z
#    x 1.746900 0.000000 0.000000 
#    y 0.000000 1.690030 0.000000 
#    z 0.000000 0.000000 1.716960 
# 
# From -- ./inp_files/25632.got.cif
#   From: 2010.05.17/outbox.cif.g08.bks.cpg/sg71_13_cif.got.tgz:25632.got - 2010.06.03 16:22:01.
