data_PCOD9523420
_publ_section_title
;
Structure prediction by ZEFSAII (Michael W. Deem and Ramdas Pophale) SiO2 
 PCOD9523420
Probable space group: I M M M
;
_chemical_formula_sum "Si O2"
_cell_formula_units_Z 64
_cell_length_a 21.481555
_cell_length_b 8.716873
_cell_length_c 18.087521
_cell_angle_alpha 90.000000
_cell_angle_beta 90.000000
_cell_angle_gamma 90.000000
_cell_volume 3386.924243
_symmetry_space_group_name_H-M "I M M M"
_symmetry_group_IT_number 71
_symmetry_cell_setting 'orthorhombic'
loop_
_space_group_symop_operation_xyz
x,y,z
-x,-y,z
x,-y,-z
-x,y,-z
-x,-y,-z
x,y,-z
-x,y,z
x,-y,z
1/2+x,1/2+y,1/2+z
1/2-x,1/2-y,1/2+z
1/2+x,1/2-y,1/2-z
1/2-x,1/2+y,1/2-z
1/2-x,1/2-y,1/2-z
1/2+x,1/2+y,1/2-z
1/2-x,1/2+y,1/2+z
1/2+x,1/2-y,1/2+z
loop_
_atom_site_type_symbol
_atom_site_label
_atom_site_fract_x
_atom_site_fract_y
_atom_site_fract_z
Si Si1 0.000000 0.171026 0.410670
Si Si2 0.073494 0.815521 0.839592
Si Si3 0.870788 0.316484 0.582384
Si Si4 0.575086 0.824315 0.500000
Si Si5 0.682275 0.185019 0.766638
O O1 0.938564 0.262201 0.392284
O O2 0.000000 0.159987 0.500000
O O3 0.000000 0.000000 0.379067
O O4 0.090926 0.759375 0.922844
O O5 0.124884 0.748552 0.782955
O O6 0.000000 0.770666 0.825280
O O7 0.075752 0.000000 0.836803
O O8 0.857771 0.255516 0.500000
O O9 0.870590 0.500000 0.578098
O O10 0.826764 0.268421 0.647817
O O11 0.500000 0.829331 0.500000
O O12 0.598351 0.000000 0.500000
O O13 0.750000 0.250000 0.750000
O O14 0.681290 0.000000 0.760731
#
# Coordination Sequence:
#
# PCOD9523420 Si02
#       5
#     8  16  16   8  16
#     4   9  17  29  51  85 117 144 179 230 285 335
#     4  10  21  38  62  91 122 158 198 244 299 359
#     4   9  19  37  59  82 111 151 195 237 288 350
#     4   9  17  33  59  91 123 153 194 247 298 353
#     4  11  24  41  60  84 119 158 200 250 302 358
#
# _framework density 18.896201000000001
#
# number of rings (size 3 to 8) (size 9 to 14) (size 15 to 20)
#    0.000    2.250    0.000    2.250    1.750    6.500 
#    2.250    0.000    0.000    0.000    0.000    0.000 
#    0.000    0.000    0.000    0.000    0.000    0.000 
#
# Total GULP energy -178331.328647 kJ/mol
# GULP energy per Si atom -5572.854020 kJ/mol
# Density = 1.885319 g / cm^3
# Si number density = 18.896201 Si / 1000 Ang^3
#
#
#
# Elastic Constant Matrix: (Units=GPa)
#
#
# Indices 1 2 3 4 5 6 
#
# 1 127.6708 35.7871 92.1909 0.0000 0.0000 0.0000
# 2 35.7871 33.2890 48.1835 0.0000 0.0000 0.0000
# 3 92.1909 48.1835 143.1924 0.0000 0.0000 0.0000
# 4 0.0000 0.0000 0.0000 25.3923 0.0000 0.0000
# 5 0.0000 0.0000 0.0000 0.0000 34.1895 0.0000
# 6 0.0000 0.0000 0.0000 0.0000 0.0000 28.5688
#
#
#
# Elastic Compliance Matrix: (Units=1/GPa)
#
#
# Indices 1 2 3 4 5 6 
#
# 1 0.014928 -0.004166 -0.008209 0.000000 0.000000 0.000000
# 2 -0.004166 0.059726 -0.017415 0.000000 0.000000 0.000000
# 3 -0.008209 -0.017415 0.018129 0.000000 0.000000 0.000000
# 4 0.000000 0.000000 0.000000 0.039382 0.000000 0.000000
# 5 0.000000 0.000000 0.000000 0.000000 0.029249 0.000000
# 6 0.000000 0.000000 0.000000 0.000000 0.000000 0.035003
#
#
# Mechanical properties :
#
#
# Convention : Reuss Voigt Hill
#
# Bulk Modulus (GPa) = 30.11858 72.94168 51.53013
# Shear Modulus (GPa) = 18.72192 26.16284 22.44238
#
# Velocity S-wave (km/s) = 3.15108 3.72500 3.44999
# Velocity P-wave (km/s) = 5.40487 7.56213 6.57261
#
# Compressibility (1/GPa) = 0.03320209
#
# Stress axis : x y z
#
# Youngs Moduli (GPa) = 66.98604 16.74311 55.15964
#
# Poissons Ratio (x) = 0.06975 0.45283
# Poissons Ratio (y) = 0.27907 0.96062
# Poissons Ratio (z) = 0.54992 0.29159
#
# Static dielectric constant tensor:
#      x y z
#    x 1.748820 0.000000 0.000000 
#    y 0.000000 1.653860 0.000000 
#    z 0.000000 0.000000 1.689800 
# 
# From -- ./inp_files/46807.got.cif
#   From: 2010.05.17/outbox.cif.g08.bks.cpg/sg71_24_cif.got.tgz:46807.got - 2010.06.03 16:22:01.
