data_PCOD9523132
_publ_section_title
;
Structure prediction by ZEFSAII (Michael W. Deem and Ramdas Pophale) SiO2 
 PCOD9523132
Probable space group: I M M M
;
_chemical_formula_sum "Si O2"
_cell_formula_units_Z 72
_cell_length_a 15.276136
_cell_length_b 29.383905
_cell_length_c 8.813781
_cell_angle_alpha 90.000000
_cell_angle_beta 90.000000
_cell_angle_gamma 90.000000
_cell_volume 3956.264167
_symmetry_space_group_name_H-M "I M M M"
_symmetry_group_IT_number 71
_symmetry_cell_setting 'orthorhombic'
loop_
_space_group_symop_operation_xyz
x,y,z
-x,-y,z
x,-y,-z
-x,y,-z
-x,-y,-z
x,y,-z
-x,y,z
x,-y,z
1/2+x,1/2+y,1/2+z
1/2-x,1/2-y,1/2+z
1/2+x,1/2-y,1/2-z
1/2-x,1/2+y,1/2-z
1/2-x,1/2-y,1/2-z
1/2+x,1/2+y,1/2-z
1/2-x,1/2+y,1/2+z
1/2+x,1/2-y,1/2+z
loop_
_atom_site_type_symbol
_atom_site_label
_atom_site_fract_x
_atom_site_fract_y
_atom_site_fract_z
Si Si1 0.239886 0.138549 0.319904
Si Si2 0.814653 0.446632 0.680826
Si Si3 0.603216 0.707010 0.322191
Si Si4 0.500000 0.944907 0.672523
Si Si5 0.898254 0.694262 0.680975
O O1 0.232183 0.139652 0.500000
O O2 0.246957 0.087102 0.259797
O O3 0.162126 0.166970 0.243665
O O4 0.329465 0.163048 0.267288
O O5 0.811609 0.441261 0.500000
O O6 0.801107 0.500000 0.717066
O O7 0.911499 0.433195 0.739683
O O8 0.623632 0.714449 0.500000
O O9 0.500000 0.696595 0.309333
O O10 0.619041 0.753700 0.230972
O O11 0.500000 0.927189 0.500000
O O12 0.500000 0.000000 0.664419
O O13 0.887050 0.689405 0.500000
O O14 0.000000 0.684030 0.718406
#
# Coordination Sequence:
#
# PCOD9523132 Si02
#       5
#    16  16  16   8  16
#     4  12  24  36  56  83 114 149 187 231 277 333
#     4  10  21  37  56  78 108 146 187 230 276 327
#     4  10  21  39  61  83 110 144 185 232 281 334
#     4   9  17  31  51  75 105 141 179 219 267 323
#     4  10  21  37  57  82 115 151 187 228 274 328
#
# _framework density 18.198986999999999
#
# number of rings (size 3 to 8) (size 9 to 14) (size 15 to 20)
#    0.000    1.667    0.000    5.000    1.556    5.333 
#    0.000    0.000    0.000    0.667    0.000    4.667 
#    0.000    0.000    0.000    0.000    0.000    0.000 
#
# Total GULP energy -201252.163638 kJ/mol
# GULP energy per Si atom -5590.337879 kJ/mol
# Density = 1.815757 g / cm^3
# Si number density = 18.198987 Si / 1000 Ang^3
#
#
#
# Elastic Constant Matrix: (Units=GPa)
#
#
# Indices 1 2 3 4 5 6 
#
# 1 31.1267 32.3019 16.7275 -0.0003 -0.0004 0.0002
# 2 32.3019 69.9777 17.1315 -0.0004 -0.0005 0.0011
# 3 16.7275 17.1315 65.1086 -0.0063 0.0027 0.0000
# 4 -0.0003 -0.0004 -0.0063 31.0488 0.0007 -0.0002
# 5 -0.0004 -0.0005 0.0027 0.0007 23.7820 -0.0002
# 6 0.0002 0.0011 0.0000 -0.0002 -0.0002 18.9128
#
#
#
# Elastic Compliance Matrix: (Units=1/GPa)
#
#
# Indices 1 2 3 4 5 6 
#
# 1 0.066938 -0.028526 -0.009692 -0.000002 0.000002 0.000001
# 2 -0.028526 0.027431 0.000111 0.000000 0.000000 -0.000001
# 3 -0.009692 0.000111 0.017820 0.000004 -0.000002 0.000000
# 4 -0.000002 0.000000 0.000004 0.032207 -0.000001 0.000000
# 5 0.000002 0.000000 -0.000002 -0.000001 0.042049 0.000000
# 6 0.000001 -0.000001 0.000000 0.000000 0.000000 0.052874
#
#
# Mechanical properties :
#
#
# Convention : Reuss Voigt Hill
#
# Bulk Modulus (GPa) = 27.79681 33.17053 30.48367
# Shear Modulus (GPa) = 15.26607 21.41888 18.34248
#
# Velocity S-wave (km/s) = 2.89942 3.43436 3.17816
# Velocity P-wave (km/s) = 5.14935 5.83032 5.50038
#
# Compressibility (1/GPa) = 0.03597536
#
# Stress axis : x y z
#
# Youngs Moduli (GPa) = 14.93917 36.45538 56.11790
#
# Poissons Ratio (x) = 1.03993 0.54387
# Poissons Ratio (y) = 0.42616 -0.00624
# Poissons Ratio (z) = 0.14478 -0.00405
#
# Static dielectric constant tensor:
#      x y z
#    x 1.607020 0.000000 0.000000 
#    y 0.000000 1.636960 0.000000 
#    z 0.000000 0.000000 1.606630 
# 
# From -- ./inp_files/6022.got.cif
#   From: 2010.05.17/outbox.cif.g08.bks.cpg/sg71_4_cif.got.tgz:6022.got - 2010.06.03 16:22:01.
