data_PCOD9523144
_publ_section_title
;
Structure prediction by ZEFSAII (Michael W. Deem and Ramdas Pophale) SiO2 
 PCOD9523144
Probable space group: I M M M
;
_chemical_formula_sum "Si O2"
_cell_formula_units_Z 88
_cell_length_a 14.319723
_cell_length_b 9.244133
_cell_length_c 34.729658
_cell_angle_alpha 90.000000
_cell_angle_beta 90.000000
_cell_angle_gamma 90.000000
_cell_volume 4597.283742
_symmetry_space_group_name_H-M "I M M M"
_symmetry_group_IT_number 71
_symmetry_cell_setting 'orthorhombic'
loop_
_space_group_symop_operation_xyz
x,y,z
-x,-y,z
x,-y,-z
-x,y,-z
-x,-y,-z
x,y,-z
-x,y,z
x,-y,z
1/2+x,1/2+y,1/2+z
1/2-x,1/2-y,1/2+z
1/2+x,1/2-y,1/2-z
1/2-x,1/2+y,1/2-z
1/2-x,1/2-y,1/2-z
1/2+x,1/2+y,1/2-z
1/2-x,1/2+y,1/2+z
1/2+x,1/2-y,1/2+z
loop_
_atom_site_type_symbol
_atom_site_label
_atom_site_fract_x
_atom_site_fract_y
_atom_site_fract_z
Si Si1 0.500000 0.835930 0.546480
Si Si2 0.191775 0.828568 0.954310
Si Si3 0.613651 0.336040 0.253348
Si Si4 0.112566 0.334602 0.322555
Si Si5 0.107260 0.330868 0.169068
Si Si6 0.221099 0.829461 0.612597
O O1 0.500000 0.848317 0.500000
O O2 0.593308 0.747979 0.555691
O O3 0.500000 0.000000 0.562681
O O4 0.268608 0.752973 0.927669
O O5 0.186579 0.000000 0.946986
O O6 0.208004 0.807529 0.000000
O O7 0.500000 0.340234 0.251633
O O8 0.648494 0.500000 0.250190
O O9 0.644456 0.240683 0.217106
O O10 0.634811 0.264491 0.294247
O O11 0.146076 0.500000 0.324889
O O12 0.147219 0.242765 0.358779
O O13 0.000000 0.336597 0.322031
O O14 0.109666 0.500000 0.180553
O O15 0.180305 0.311358 0.135003
O O16 0.000000 0.296726 0.158002
O O17 0.204210 0.000000 0.607453
#
# Coordination Sequence:
#
# PCOD9523144 Si02
#       6
#     8  16  16  16  16  16
#     4   9  17  31  53  79 107 143 185 223 261 311
#     4  10  21  37  56  80 112 148 185 225 271 328
#     4   9  17  31  53  79 106 140 183 228 272 320
#     4  10  21  38  59  80 106 142 183 230 282 334
#     4   9  19  35  52  75 111 150 184 219 265 323
#     4  11  23  36  56  84 111 144 184 230 280 327
#
# _framework density 19.141739000000001
#
# number of rings (size 3 to 8) (size 9 to 14) (size 15 to 20)
#    0.000    2.273    0.000    2.455    1.273    7.636 
#    0.000    0.000    0.000    0.545    0.000    3.818 
#    0.000    0.000    0.000    0.000    0.000    0.000 
#
# Total GULP energy -245816.642921 kJ/mol
# GULP energy per Si atom -5586.741885 kJ/mol
# Density = 1.909817 g / cm^3
# Si number density = 19.141739 Si / 1000 Ang^3
#
#
#
# Elastic Constant Matrix: (Units=GPa)
#
#
# Indices 1 2 3 4 5 6 
#
# 1 26.7368 21.3554 3.1415 0.0000 0.0000 0.0000
# 2 21.3554 137.8269 71.0232 0.0000 0.0000 0.0000
# 3 3.1415 71.0232 80.0461 0.0000 0.0000 0.0000
# 4 0.0000 0.0000 0.0000 33.3494 0.0000 0.0000
# 5 0.0000 0.0000 0.0000 0.0000 -56.1042 0.0000
# 6 0.0000 0.0000 0.0000 0.0000 0.0000 24.6948
#
#
#
# Elastic Compliance Matrix: (Units=1/GPa)
#
#
# Indices 1 2 3 4 5 6 
#
# 1 0.045445 -0.011280 0.008225 0.000000 0.000000 0.000000
# 2 -0.011280 0.016167 -0.013902 0.000000 0.000000 0.000000
# 3 0.008225 -0.013902 0.024505 0.000000 0.000000 0.000000
# 4 0.000000 0.000000 0.000000 0.029986 0.000000 0.000000
# 5 0.000000 0.000000 0.000000 0.000000 -0.017824 0.000000
# 6 0.000000 0.000000 0.000000 0.000000 0.000000 0.040494
#
#
# Mechanical properties :
#
#
# Convention : Reuss Voigt Hill
#
# Bulk Modulus (GPa) = 19.15611 48.40555 33.78083
# Shear Modulus (GPa) = 26.30379 10.32733 18.31556
#
# Velocity S-wave (km/s) = 3.71099 2.32527 3.09664
# Velocity P-wave (km/s) = 5.32833 5.70544 5.52011
#
# Compressibility (1/GPa) = 0.05220267
#
# Stress axis : x y z
#
# Youngs Moduli (GPa) = 22.00483 61.85484 40.80828
#
# Poissons Ratio (x) = 0.69769 -0.33563
# Poissons Ratio (y) = 0.24820 0.56731
# Poissons Ratio (z) = -0.18098 0.85990
#
# Static dielectric constant tensor:
#      x y z
#    x 1.690350 0.000000 0.000000 
#    y 0.000000 1.651380 0.000000 
#    z 0.000000 0.000000 1.649800 
# 
# From -- ./inp_files/70386.got.cif
#   From: 2010.05.17/outbox.cif.g08.bks.cpg/sg71_36_cif.got.tgz:70386.got - 2010.06.03 16:22:01.
