data_PCOD9523028
_publ_section_title
;
Structure prediction by ZEFSAII (Michael W. Deem and Ramdas Pophale) SiO2 
 PCOD9523028
Probable space group: I M M M
;
_chemical_formula_sum "Si O2"
_cell_formula_units_Z 72
_cell_length_a 8.955941
_cell_length_b 14.249128
_cell_length_c 29.799760
_cell_angle_alpha 90.000000
_cell_angle_beta 90.000000
_cell_angle_gamma 90.000000
_cell_volume 3802.876993
_symmetry_space_group_name_H-M "I M M M"
_symmetry_group_IT_number 71
_symmetry_cell_setting 'orthorhombic'
loop_
_space_group_symop_operation_xyz
x,y,z
-x,-y,z
x,-y,-z
-x,y,-z
-x,-y,-z
x,y,-z
-x,y,z
x,-y,z
1/2+x,1/2+y,1/2+z
1/2-x,1/2-y,1/2+z
1/2+x,1/2-y,1/2-z
1/2-x,1/2+y,1/2-z
1/2-x,1/2-y,1/2-z
1/2+x,1/2+y,1/2-z
1/2-x,1/2+y,1/2+z
1/2+x,1/2-y,1/2+z
loop_
_atom_site_type_symbol
_atom_site_label
_atom_site_fract_x
_atom_site_fract_y
_atom_site_fract_z
Si Si1 0.177670 0.710882 0.317773
Si Si2 0.823226 0.108417 0.446692
Si Si3 0.179483 0.608161 0.774839
Si Si4 0.818110 0.892560 0.000000
Si Si5 0.177805 0.212787 0.090090
O O1 0.212464 0.641928 0.276145
O O2 0.242818 0.813608 0.305574
O O3 0.248345 0.677879 0.364264
O O4 0.000000 0.717197 0.321888
O O5 0.793171 0.120883 0.500000
O O6 0.726825 0.180203 0.418384
O O7 0.000000 0.125822 0.439790
O O8 0.793138 0.000000 0.435708
O O9 0.224748 0.500000 0.782226
O O10 0.000000 0.614190 0.780940
O O11 0.769505 0.841696 0.045516
O O12 0.000000 0.889574 0.000000
O O13 0.770859 0.000000 0.000000
O O14 0.000000 0.205235 0.093383
#
# Coordination Sequence:
#
# PCOD9523028 Si02
#       5
#    16  16  16   8  16
#     4  10  21  36  56  84 114 144 179 224 276 330
#     4   9  18  33  53  76 104 139 177 221 275 327
#     4   9  19  38  61  83 110 143 180 225 274 327
#     4   9  20  38  56  77 108 146 189 233 272 313
#     4  11  21  35  56  81 110 147 188 230 272 319
#
# _framework density 18.933032999999998
#
# number of rings (size 3 to 8) (size 9 to 14) (size 15 to 20)
#    0.000    2.333    1.111    2.000    0.000    3.556 
#    0.000    1.111    0.000    4.667    0.000    0.000 
#    0.000    0.000    0.000    0.000    0.000    0.000 
#
# Total GULP energy -200962.523405 kJ/mol
# GULP energy per Si atom -5582.292317 kJ/mol
# Density = 1.888994 g / cm^3
# Si number density = 18.933033 Si / 1000 Ang^3
#
#
#
# Elastic Constant Matrix: (Units=GPa)
#
#
# Indices 1 2 3 4 5 6 
#
# 1 22.4260 12.3805 30.0589 0.0000 0.0000 0.0000
# 2 12.3805 55.3703 15.9708 0.0000 0.0000 0.0000
# 3 30.0589 15.9708 106.4071 0.0000 0.0000 0.0000
# 4 0.0000 0.0000 0.0000 7.6412 0.0000 0.0000
# 5 0.0000 0.0000 0.0000 0.0000 32.6342 0.0000
# 6 0.0000 0.0000 0.0000 0.0000 0.0000 14.4718
#
#
#
# Elastic Compliance Matrix: (Units=1/GPa)
#
#
# Indices 1 2 3 4 5 6 
#
# 1 0.078334 -0.011636 -0.020382 0.000000 0.000000 0.000000
# 2 -0.011636 0.020606 0.000194 0.000000 0.000000 0.000000
# 3 -0.020382 0.000194 0.015126 0.000000 0.000000 0.000000
# 4 0.000000 0.000000 0.000000 0.130869 0.000000 0.000000
# 5 0.000000 0.000000 0.000000 0.000000 0.030643 0.000000
# 6 0.000000 0.000000 0.000000 0.000000 0.000000 0.069100
#
#
# Mechanical properties :
#
#
# Convention : Reuss Voigt Hill
#
# Bulk Modulus (GPa) = 19.83390 33.44711 26.64050
# Shear Modulus (GPa) = 11.76102 19.33564 15.54833
#
# Velocity S-wave (km/s) = 2.49507 3.19919 2.86882
# Velocity P-wave (km/s) = 4.33579 5.59918 5.00749
#
# Compressibility (1/GPa) = 0.05041874
#
# Stress axis : x y z
#
# Youngs Moduli (GPa) = 12.76579 48.52968 66.10932
#
# Poissons Ratio (x) = 0.56470 1.34745
# Poissons Ratio (y) = 0.14854 -0.01285
# Poissons Ratio (z) = 0.26019 -0.00943
#
# Static dielectric constant tensor:
#      x y z
#    x 1.631850 0.000000 0.000000 
#    y 0.000000 1.640280 0.000000 
#    z 0.000000 0.000000 1.672180 
# 
# From -- ./inp_files/6089.got.cif
#   From: 2010.05.17/outbox.cif.g08.bks.cpg/sg71_4_cif.got.tgz:6089.got - 2010.06.03 16:22:01.
