data_PCOD9523069
_publ_section_title
;
Structure prediction by ZEFSAII (Michael W. Deem and Ramdas Pophale) SiO2 
 PCOD9523069
Probable space group: I M M M
;
_chemical_formula_sum "Si O2"
_cell_formula_units_Z 100
_cell_length_a 27.568575
_cell_length_b 8.302474
_cell_length_c 22.825867
_cell_angle_alpha 90.000000
_cell_angle_beta 90.000000
_cell_angle_gamma 90.000000
_cell_volume 5224.552829
_symmetry_space_group_name_H-M "I M M M"
_symmetry_group_IT_number 71
_symmetry_cell_setting 'orthorhombic'
loop_
_space_group_symop_operation_xyz
x,y,z
-x,-y,z
x,-y,-z
-x,y,-z
-x,-y,-z
x,y,-z
-x,y,z
x,-y,z
1/2+x,1/2+y,1/2+z
1/2-x,1/2-y,1/2+z
1/2+x,1/2-y,1/2-z
1/2-x,1/2+y,1/2-z
1/2-x,1/2-y,1/2-z
1/2+x,1/2+y,1/2-z
1/2-x,1/2+y,1/2+z
1/2+x,1/2-y,1/2+z
loop_
_atom_site_type_symbol
_atom_site_label
_atom_site_fract_x
_atom_site_fract_y
_atom_site_fract_z
Si Si1 0.118465 0.304838 0.000000
Si Si2 0.876336 0.695384 0.329736
Si Si3 0.096129 0.193363 0.204240
Si Si4 0.233961 0.692184 0.685352
Si Si5 0.824041 0.690934 0.883795
Si Si6 0.500000 0.255611 0.500000
Si Si7 0.500000 0.692730 0.639489
Si Si8 0.055056 0.303592 0.566551
O O1 0.147810 0.247772 0.057953
O O2 0.061216 0.262872 0.000000
O O3 0.119333 0.500000 0.000000
O O4 0.876426 0.500000 0.328913
O O5 0.902604 0.756466 0.271435
O O6 0.820526 0.750562 0.327774
O O7 0.905654 0.750892 0.386618
O O8 0.141770 0.268152 0.171063
O O9 0.048183 0.254159 0.171028
O O10 0.098955 0.000000 0.199347
O O11 0.233194 0.500000 0.687580
O O12 0.250000 0.750000 0.750000
O O13 0.271787 0.742219 0.634886
O O14 0.819527 0.500000 0.890251
O O15 0.500000 0.276975 0.570570
O O16 0.500000 0.500000 0.646983
O O17 0.065155 0.251999 0.500000
O O18 0.055531 0.500000 0.566627
O O19 0.000000 0.254820 0.581987
#
# Coordination Sequence:
#
# PCOD9523069 Si02
#       8
#     8  16  16  16  16   4   8  16
#     4  10  23  39  59  84 113 151 197 247 296 346
#     4  10  21  36  57  87 115 144 188 234 281 338
#     4  11  22  37  56  83 117 151 189 234 290 346
#     4  11  22  37  57  84 115 151 189 234 287 340
#     4  11  22  40  60  82 111 148 197 247 292 342
#     4  12  18  40  60  82 112 154 196 236 294 350
#     4  10  23  37  53  82 118 154 192 236 286 348
#     4   8  15  31  56  84 113 143 177 223 278 333
#
# _framework density 19.140395000000002
#
# number of rings (size 3 to 8) (size 9 to 14) (size 15 to 20)
#    0.000    1.760    3.200    2.160    1.120    0.640 
#    1.440    2.800    0.000    0.480    0.000    1.120 
#    0.000    0.000    0.000    0.000    0.000    0.000 
#
# Total GULP energy -278595.188439 kJ/mol
# GULP energy per Si atom -5571.903769 kJ/mol
# Density = 1.909683 g / cm^3
# Si number density = 19.140395 Si / 1000 Ang^3
#
#
#
# Elastic Constant Matrix: (Units=GPa)
#
#
# Indices 1 2 3 4 5 6 
#
# 1 175.7873 10.7764 118.8930 0.0000 0.0000 0.0000
# 2 10.7764 13.2325 2.0633 0.0000 0.0000 0.0000
# 3 118.8930 2.0633 158.7817 0.0000 0.0000 0.0000
# 4 0.0000 0.0000 0.0000 305.1683 0.0000 0.0000
# 5 0.0000 0.0000 0.0000 0.0000 -85.5834 0.0000
# 6 0.0000 0.0000 0.0000 0.0000 0.0000 8.1469
#
#
#
# Elastic Compliance Matrix: (Units=1/GPa)
#
#
# Indices 1 2 3 4 5 6 
#
# 1 0.012452 -0.008704 -0.009211 0.000000 0.000000 0.000000
# 2 -0.008704 0.081810 0.005455 0.000000 0.000000 0.000000
# 3 -0.009211 0.005455 0.013124 0.000000 0.000000 0.000000
# 4 0.000000 0.000000 0.000000 0.003277 0.000000 0.000000
# 5 0.000000 0.000000 0.000000 0.000000 -0.011685 0.000000
# 6 0.000000 0.000000 0.000000 0.000000 0.000000 0.122746
#
#
# Mechanical properties :
#
#
# Convention : Reuss Voigt Hill
#
# Bulk Modulus (GPa) = 12.12644 67.91855 40.02250
# Shear Modulus (GPa) = 18.23933 59.95094 39.09513
#
# Velocity S-wave (km/s) = 3.09029 5.60265 4.52436
# Velocity P-wave (km/s) = 4.36835 8.79854 6.94611
#
# Compressibility (1/GPa) = 0.08246444
#
# Stress axis : x y z
#
# Youngs Moduli (GPa) = 80.30907 12.22350 76.19714
#
# Poissons Ratio (x) = 0.10640 0.70183
# Poissons Ratio (y) = 0.69904 -0.41563
# Poissons Ratio (z) = 0.73970 -0.06667
#
# Static dielectric constant tensor:
#      x y z
#    x 1.688910 0.000000 0.000000 
#    y 0.000000 1.679840 0.000000 
#    z 0.000000 0.000000 1.832360 
# 
# From -- ./inp_files/56320.got.cif
#   From: 2010.05.17/outbox.cif.g08.bks.cpg/sg71_29_cif.got.tgz:56320.got - 2010.06.03 16:22:01.
