data_PCOD9523015
_publ_section_title
;
Structure prediction by ZEFSAII (Michael W. Deem and Ramdas Pophale) SiO2 
 PCOD9523015
Probable space group: I M M M
;
_chemical_formula_sum "Si O2"
_cell_formula_units_Z 72
_cell_length_a 13.911771
_cell_length_b 13.284199
_cell_length_c 19.288761
_cell_angle_alpha 90.000000
_cell_angle_beta 90.000000
_cell_angle_gamma 90.000000
_cell_volume 3564.692931
_symmetry_space_group_name_H-M "I M M M"
_symmetry_group_IT_number 71
_symmetry_cell_setting 'orthorhombic'
loop_
_space_group_symop_operation_xyz
x,y,z
-x,-y,z
x,-y,-z
-x,y,-z
-x,-y,-z
x,y,-z
-x,y,z
x,-y,z
1/2+x,1/2+y,1/2+z
1/2-x,1/2-y,1/2+z
1/2+x,1/2-y,1/2-z
1/2-x,1/2+y,1/2-z
1/2-x,1/2-y,1/2-z
1/2+x,1/2+y,1/2-z
1/2-x,1/2+y,1/2+z
1/2+x,1/2-y,1/2+z
loop_
_atom_site_type_symbol
_atom_site_label
_atom_site_fract_x
_atom_site_fract_y
_atom_site_fract_z
Si Si1 0.195033 0.611379 0.789842
Si Si2 0.894354 0.176717 0.776779
Si Si3 0.500000 0.616158 0.084525
Si Si4 0.207044 0.189396 0.580060
Si Si5 0.324537 0.617055 0.421625
O O1 0.156894 0.500000 0.777234
O O2 0.128288 0.704408 0.767702
O O3 0.299626 0.623205 0.753556
O O4 0.220371 0.629803 0.870609
O O5 0.891879 0.149375 0.858491
O O6 0.000000 0.149524 0.749578
O O7 0.500000 0.500000 0.106718
O O8 0.598986 0.669103 0.104739
O O9 0.500000 0.616671 0.000000
O O10 0.215604 0.157961 0.500000
O O11 0.234869 0.306686 0.584625
O O12 0.363879 0.630796 0.500000
O O13 0.299024 0.500000 0.414154
#
# Coordination Sequence:
#
# PCOD9523015 Si02
#       5
#    16  16   8  16  16
#     4  10  21  36  56  80 107 141 176 213 264 319
#     4  10  22  38  55  79 109 137 175 224 264 310
#     4   9  16  26  43  69 101 135 169 207 252 301
#     4   9  18  32  50  76 108 137 172 217 260 310
#     4   9  18  34  55  76 102 137 174 217 268 314
#
# _framework density 20.198094000000001
#
# number of rings (size 3 to 8) (size 9 to 14) (size 15 to 20)
#    0.000    2.556    0.000    1.333    1.556    4.000 
#    0.000    1.667    0.000    3.333    0.000    6.222 
#    0.000    0.000    0.000    0.000    0.000    0.000 
#
# Total GULP energy -200818.111598 kJ/mol
# GULP energy per Si atom -5578.280878 kJ/mol
# Density = 2.015212 g / cm^3
# Si number density = 20.198094 Si / 1000 Ang^3
#
#
#
# Elastic Constant Matrix: (Units=GPa)
#
#
# Indices 1 2 3 4 5 6 
#
# 1 52.4657 1.5065 8.0772 0.0000 0.0000 0.0000
# 2 1.5065 114.3454 7.5985 0.0000 0.0000 0.0000
# 3 8.0772 7.5985 73.0670 0.0000 0.0000 0.0000
# 4 0.0000 0.0000 0.0000 19.7193 0.0000 0.0000
# 5 0.0000 0.0000 0.0000 0.0000 17.1498 0.0000
# 6 0.0000 0.0000 0.0000 0.0000 0.0000 -0.2105
#
#
#
# Elastic Compliance Matrix: (Units=1/GPa)
#
#
# Indices 1 2 3 4 5 6 
#
# 1 0.019392 -0.000114 -0.002132 0.000000 0.000000 0.000000
# 2 -0.000114 0.008807 -0.000903 0.000000 0.000000 0.000000
# 3 -0.002132 -0.000903 0.014016 0.000000 0.000000 0.000000
# 4 0.000000 0.000000 0.000000 0.050712 0.000000 0.000000
# 5 0.000000 0.000000 0.000000 0.000000 0.058310 0.000000
# 6 0.000000 0.000000 0.000000 0.000000 0.000000 -4.751429
#
#
# Mechanical properties :
#
#
# Convention : Reuss Voigt Hill
#
# Bulk Modulus (GPa) = 27.84246 30.47138 29.15692
# Shear Modulus (GPa) = -1.09124 22.17811 10.54343
#
# Velocity S-wave (km/s) = -0.73583 3.31725 2.28721
# Velocity P-wave (km/s) = 3.61838 5.45813 4.63054
#
# Compressibility (1/GPa) = 0.03591637
#
# Stress axis : x y z
#
# Youngs Moduli (GPa) = 51.56887 113.54654 71.34874
#
# Poissons Ratio (x) = 0.01292 0.15210
# Poissons Ratio (y) = 0.00587 0.06445
# Poissons Ratio (z) = 0.10993 0.10257
#
# Static dielectric constant tensor:
#      x y z
#    x 1.679360 0.000000 0.000000 
#    y 0.000000 1.697250 0.000000 
#    z 0.000000 0.000000 1.800100 
# 
# From -- ./inp_files/58601.got.cif
#   From: 2010.05.17/outbox.cif.g08.bks.cpg/sg71_30_cif.got.tgz:58601.got - 2010.06.03 16:22:01.
