data_PCOD9523564
_publ_section_title
;
Structure prediction by ZEFSAII (Michael W. Deem and Ramdas Pophale) SiO2 
 PCOD9523564
Probable space group: I M M M
;
_chemical_formula_sum "Si O2"
_cell_formula_units_Z 88
_cell_length_a 24.327265
_cell_length_b 19.876705
_cell_length_c 9.782952
_cell_angle_alpha 90.000000
_cell_angle_beta 90.000000
_cell_angle_gamma 90.000000
_cell_volume 4730.506035
_symmetry_space_group_name_H-M "I M M M"
_symmetry_group_IT_number 71
_symmetry_cell_setting 'orthorhombic'
loop_
_space_group_symop_operation_xyz
x,y,z
-x,-y,z
x,-y,-z
-x,y,-z
-x,-y,-z
x,y,-z
-x,y,z
x,-y,z
1/2+x,1/2+y,1/2+z
1/2-x,1/2-y,1/2+z
1/2+x,1/2-y,1/2-z
1/2-x,1/2+y,1/2-z
1/2-x,1/2-y,1/2-z
1/2+x,1/2+y,1/2-z
1/2-x,1/2+y,1/2+z
1/2+x,1/2-y,1/2+z
loop_
_atom_site_type_symbol
_atom_site_label
_atom_site_fract_x
_atom_site_fract_y
_atom_site_fract_z
Si Si1 0.212963 0.500000 0.336713
Si Si2 0.881915 0.861902 0.340745
Si Si3 0.807678 0.758349 0.166820
Si Si4 0.559833 0.921082 0.500000
Si Si5 0.500000 0.420616 0.165774
Si Si6 0.365280 0.879992 0.747194
Si Si7 0.934407 0.581435 0.500000
Si Si8 0.315061 0.500000 0.850940
O O1 0.213925 0.500000 0.500000
O O2 0.181393 0.565805 0.283296
O O3 0.272668 0.500000 0.271529
O O4 0.882027 0.836050 0.500000
O O5 0.845952 0.815309 0.239198
O O6 0.944568 0.879561 0.296633
O O7 0.852148 0.934061 0.345217
O O8 0.750000 0.750000 0.250000
O O9 0.838766 0.688974 0.199120
O O10 0.800775 0.767550 0.000000
O O11 0.500000 0.887666 0.500000
O O12 0.595837 0.904206 0.371720
O O13 0.552384 0.000000 0.500000
O O14 0.500000 0.500000 0.211648
O O15 0.500000 0.423831 0.000000
O O16 0.406117 0.881352 0.874609
O O17 0.921292 0.500000 0.500000
O O18 0.000000 0.586248 0.500000
O O19 0.285766 0.500000 0.000000
#
# Coordination Sequence:
#
# PCOD9523564 Si02
#       8
#     8  16  16   8   8  16   8   8
#     4  12  24  38  60  92 124 164 210 271 320 375
#     4  10  21  41  67 101 128 167 212 261 327 385
#     4  12  28  46  65  90 130 175 219 270 322 384
#     4  11  22  40  67  94 124 165 208 257 319 381
#     4   9  16  36  73 103 133 162 207 266 319 385
#     4  12  23  42  62  94 128 164 216 263 317 377
#     4  11  22  42  69  98 130 165 212 265 317 377
#     4  10  22  37  64  95 125 156 211 267 318 389
#
# _framework density 18.602661000000001
#
# number of rings (size 3 to 8) (size 9 to 14) (size 15 to 20)
#    0.000    1.000    4.545    2.182    3.818    5.091 
#    3.273    0.455    0.000    0.545    0.000    0.000 
#    0.000    0.000    0.000    0.000    0.000    0.000 
#
# Total GULP energy -245416.260739 kJ/mol
# GULP energy per Si atom -5577.642290 kJ/mol
# Density = 1.856032 g / cm^3
# Si number density = 18.602661 Si / 1000 Ang^3
#
#
#
# Elastic Constant Matrix: (Units=GPa)
#
#
# Indices 1 2 3 4 5 6 
#
# 1 151.9251 49.2137 74.5246 0.0000 0.0000 0.0000
# 2 49.2137 102.0163 49.4349 0.0000 0.0000 0.0000
# 3 74.5246 49.4349 162.2369 0.0000 0.0000 0.0000
# 4 0.0000 0.0000 0.0000 35.9507 0.0000 0.0000
# 5 0.0000 0.0000 0.0000 0.0000 36.7523 0.0000
# 6 0.0000 0.0000 0.0000 0.0000 0.0000 -15.1865
#
#
#
# Elastic Compliance Matrix: (Units=1/GPa)
#
#
# Indices 1 2 3 4 5 6 
#
# 1 0.009123 -0.002781 -0.003343 0.000000 0.000000 0.000000
# 2 -0.002781 0.012348 -0.002485 0.000000 0.000000 0.000000
# 3 -0.003343 -0.002485 0.008457 0.000000 0.000000 0.000000
# 4 0.000000 0.000000 0.000000 0.027816 0.000000 0.000000
# 5 0.000000 0.000000 0.000000 0.000000 0.027209 0.000000
# 6 0.000000 0.000000 0.000000 0.000000 0.000000 -0.065848
#
#
# Mechanical properties :
#
#
# Convention : Reuss Voigt Hill
#
# Bulk Modulus (GPa) = 78.68319 84.72498 81.70409
# Shear Modulus (GPa) = 123.27315 27.70365 75.48840
#
# Velocity S-wave (km/s) = 8.14925 3.86324 6.37710
# Velocity P-wave (km/s) = 11.44271 8.09586 9.91157
#
# Compressibility (1/GPa) = 0.01270919
#
# Stress axis : x y z
#
# Youngs Moduli (GPa) = 109.61226 80.98381 118.24711
#
# Poissons Ratio (x) = 0.22521 0.39534
# Poissons Ratio (y) = 0.30482 0.29386
# Poissons Ratio (z) = 0.36647 0.20126
#
# Static dielectric constant tensor:
#      x y z
#    x 1.699730 0.000000 0.000000 
#    y 0.000000 1.638400 0.000000 
#    z 0.000000 0.000000 1.636450 
# 
# From -- ./inp_files/12692.got.cif
#   From: 2010.05.17/outbox.cif.g08.bks.cpg/sg71_7_cif.got.tgz:12692.got - 2010.06.03 16:22:01.
