data_PCOD9523156
_publ_section_title
;
Structure prediction by ZEFSAII (Michael W. Deem and Ramdas Pophale) SiO2 
 PCOD9523156
Probable space group: I M M M
;
_chemical_formula_sum "Si O2"
_cell_formula_units_Z 116
_cell_length_a 29.740429
_cell_length_b 25.307396
_cell_length_c 7.776991
_cell_angle_alpha 90.000000
_cell_angle_beta 90.000000
_cell_angle_gamma 90.000000
_cell_volume 5853.374160
_symmetry_space_group_name_H-M "I M M M"
_symmetry_group_IT_number 71
_symmetry_cell_setting 'orthorhombic'
loop_
_space_group_symop_operation_xyz
x,y,z
-x,-y,z
x,-y,-z
-x,y,-z
-x,-y,-z
x,y,-z
-x,y,z
x,-y,z
1/2+x,1/2+y,1/2+z
1/2-x,1/2-y,1/2+z
1/2+x,1/2-y,1/2-z
1/2-x,1/2+y,1/2-z
1/2-x,1/2-y,1/2-z
1/2+x,1/2+y,1/2-z
1/2-x,1/2+y,1/2+z
1/2+x,1/2-y,1/2+z
loop_
_atom_site_type_symbol
_atom_site_label
_atom_site_fract_x
_atom_site_fract_y
_atom_site_fract_z
Si Si1 0.206553 0.785123 0.793766
Si Si2 0.657550 0.000000 0.000000
Si Si3 0.814703 0.582702 0.788898
Si Si4 0.856036 0.304883 0.203282
Si Si5 0.883958 0.942581 0.802294
Si Si6 0.949588 0.730815 0.707288
Si Si7 0.211496 0.906537 0.697926
Si Si8 0.949991 0.850107 0.704515
O O1 0.250000 0.750000 0.750000
O O2 0.165247 0.749403 0.726384
O O3 0.209339 0.843045 0.714519
O O4 0.203756 0.792522 0.000000
O O5 0.659885 0.954683 0.155430
O O6 0.829479 0.642655 0.745569
O O7 0.761481 0.575960 0.750851
O O8 0.820917 0.574717 0.000000
O O9 0.908843 0.306177 0.238421
O O10 0.849226 0.301500 0.000000
O O11 0.830853 0.931113 0.793373
O O12 0.911931 0.893211 0.733613
O O13 0.893317 0.000000 0.720541
O O14 0.897152 0.945604 0.000000
O O15 0.949879 0.731281 0.500000
O O16 0.940401 0.790882 0.771255
O O17 0.000000 0.716111 0.764383
O O18 0.205583 0.921443 0.500000
O O19 0.953309 0.844388 0.500000
O O20 0.000000 0.866155 0.767954
#
# Coordination Sequence:
#
# PCOD9523156 Si02
#       8
#    16   4  16  16  16  16  16  16
#     4  11  21  34  55  83 118 155 195 236 288 363
#     4  12  26  40  68  86 113 170 207 244 314 342
#     4  10  24  42  60  89 121 155 207 256 293 357
#     4  10  21  37  56  86 124 156 193 243 294 354
#     4  11  25  39  54  78 108 146 200 257 303 353
#     4   9  19  35  58  89 121 151 188 234 288 360
#     4  11  23  39  56  79 115 154 196 249 303 347
#     4   9  19  38  60  82 111 149 193 240 298 362
#
# _framework density 19.817630999999999
#
# number of rings (size 3 to 8) (size 9 to 14) (size 15 to 20)
#    0.000    1.793    1.379    3.103    3.862    5.793 
#    0.000    2.759    0.000    0.000    0.000    0.966 
#    0.000    2.207    0.000    0.000    0.000    0.000 
#
# Total GULP energy -323104.884019 kJ/mol
# GULP energy per Si atom -5570.773862 kJ/mol
# Density = 1.977252 g / cm^3
# Si number density = 19.817631 Si / 1000 Ang^3
#
#
#
# Elastic Constant Matrix: (Units=GPa)
#
#
# Indices 1 2 3 4 5 6 
#
# 1 71.5494 1.7565 -9.4828 0.0000 0.0000 0.0000
# 2 1.7565 27.8959 2.1274 0.0000 0.0000 0.0000
# 3 -9.4828 2.1274 35.9031 0.0000 0.0000 0.0000
# 4 0.0000 0.0000 0.0000 -59.6970 0.0000 0.0000
# 5 0.0000 0.0000 0.0000 0.0000 14.1995 0.0000
# 6 0.0000 0.0000 0.0000 0.0000 0.0000 212.8383
#
#
#
# Elastic Compliance Matrix: (Units=1/GPa)
#
#
# Indices 1 2 3 4 5 6 
#
# 1 0.014524 -0.001213 0.003908 0.000000 0.000000 0.000000
# 2 -0.001213 0.036112 -0.002460 0.000000 0.000000 0.000000
# 3 0.003908 -0.002460 0.029031 0.000000 0.000000 0.000000
# 4 0.000000 0.000000 0.000000 -0.016751 0.000000 0.000000
# 5 0.000000 0.000000 0.000000 0.000000 0.070425 0.000000
# 6 0.000000 0.000000 0.000000 0.000000 0.000000 0.004698
#
#
# Mechanical properties :
#
#
# Convention : Reuss Voigt Hill
#
# Bulk Modulus (GPa) = 12.47862 13.79451 13.13656
# Shear Modulus (GPa) = 30.43584 42.86465 36.65025
#
# Velocity S-wave (km/s) = 3.92318 4.65580 4.30510
# Velocity P-wave (km/s) = 5.17997 5.98981 5.59955
#
# Compressibility (1/GPa) = 0.08013709
#
# Stress axis : x y z
#
# Youngs Moduli (GPa) = 68.85117 27.69195 34.44629
#
# Poissons Ratio (x) = 0.03358 -0.13462
# Poissons Ratio (y) = 0.08349 0.08474
# Poissons Ratio (z) = -0.26907 0.06812
#
# Static dielectric constant tensor:
#      x y z
#    x 1.718000 0.000000 0.000000 
#    y 0.000000 1.727900 0.000000 
#    z 0.000000 0.000000 1.733310 
# 
# From -- ./inp_files/13692.got.cif
#   From: 2010.05.17/outbox.cif.g08.bks.cpg/sg71_7_cif.got.tgz:13692.got - 2010.06.03 16:22:01.
