data_PCOD9523234
_publ_section_title
;
Structure prediction by ZEFSAII (Michael W. Deem and Ramdas Pophale) SiO2 
 PCOD9523234
Probable space group: I M M M
;
_chemical_formula_sum "Si O2"
_cell_formula_units_Z 64
_cell_length_a 15.010414
_cell_length_b 8.741479
_cell_length_c 26.209339
_cell_angle_alpha 90.000000
_cell_angle_beta 90.000000
_cell_angle_gamma 90.000000
_cell_volume 3439.011732
_symmetry_space_group_name_H-M "I M M M"
_symmetry_group_IT_number 71
_symmetry_cell_setting 'orthorhombic'
loop_
_space_group_symop_operation_xyz
x,y,z
-x,-y,z
x,-y,-z
-x,y,-z
-x,-y,-z
x,y,-z
-x,y,z
x,-y,z
1/2+x,1/2+y,1/2+z
1/2-x,1/2-y,1/2+z
1/2+x,1/2-y,1/2-z
1/2-x,1/2+y,1/2-z
1/2-x,1/2-y,1/2-z
1/2+x,1/2+y,1/2-z
1/2-x,1/2+y,1/2+z
1/2+x,1/2-y,1/2+z
loop_
_atom_site_type_symbol
_atom_site_label
_atom_site_fract_x
_atom_site_fract_y
_atom_site_fract_z
Si Si1 0.000000 0.181973 0.329958
Si Si2 0.893812 0.816467 0.500000
Si Si3 0.665154 0.182691 0.107773
Si Si4 0.000000 0.683005 0.781835
Si Si5 0.354482 0.182975 0.366819
Si Si6 0.500000 0.318285 0.560258
O O1 0.913893 0.252177 0.357440
O O2 0.000000 0.227495 0.270763
O O3 0.000000 0.000000 0.336599
O O4 0.850059 0.748259 0.449106
O O5 0.000000 0.780806 0.500000
O O6 0.884639 0.000000 0.500000
O O7 0.759121 0.238399 0.130158
O O8 0.661490 0.000000 0.106277
O O9 0.086583 0.718191 0.816556
O O10 0.000000 0.500000 0.772073
O O11 0.414284 0.242458 0.413636
O O12 0.344794 0.000000 0.369708
O O13 0.500000 0.500000 0.570714
O O14 0.500000 0.294969 0.500000
#
# Coordination Sequence:
#
# PCOD9523234 Si02
#       6
#     8   8  16   8  16   8
#     4  12  25  42  65  92 123 162 208 257 312 370
#     4  11  23  41  65  90 124 165 206 254 308 367
#     4  12  25  41  64  93 127 164 207 255 308 369
#     4   9  21  43  67  91 121 161 207 258 311 361
#     4  10  22  41  64  90 124 163 207 255 307 368
#     4  10  21  37  58  87 124 161 206 255 303 365
#
# _framework density 18.609998000000001
#
# number of rings (size 3 to 8) (size 9 to 14) (size 15 to 20)
#    0.000    1.250    1.250    5.625    1.750    5.500 
#    0.000    0.000    0.000    0.000    0.000    0.000 
#    0.000    0.000    0.000    0.000    0.000    0.000 
#
# Total GULP energy -178971.952790 kJ/mol
# GULP energy per Si atom -5592.873525 kJ/mol
# Density = 1.856764 g / cm^3
# Si number density = 18.609998 Si / 1000 Ang^3
#
#
#
# Elastic Constant Matrix: (Units=GPa)
#
#
# Indices 1 2 3 4 5 6 
#
# 1 178.0261 81.5304 70.4268 0.0000 0.0000 0.0000
# 2 81.5304 135.1991 82.3113 0.0000 0.0000 0.0000
# 3 70.4268 82.3113 128.1430 0.0000 0.0000 0.0000
# 4 0.0000 0.0000 0.0000 28.9237 0.0000 0.0000
# 5 0.0000 0.0000 0.0000 0.0000 41.2210 0.0000
# 6 0.0000 0.0000 0.0000 0.0000 0.0000 41.1405
#
#
#
# Elastic Compliance Matrix: (Units=1/GPa)
#
#
# Indices 1 2 3 4 5 6 
#
# 1 0.008109 -0.003575 -0.002160 0.000000 0.000000 0.000000
# 2 -0.003575 0.013722 -0.006850 0.000000 0.000000 0.000000
# 3 -0.002160 -0.006850 0.013391 0.000000 0.000000 0.000000
# 4 0.000000 0.000000 0.000000 0.034574 0.000000 0.000000
# 5 0.000000 0.000000 0.000000 0.000000 0.024259 0.000000
# 6 0.000000 0.000000 0.000000 0.000000 0.000000 0.024307
#
#
# Mechanical properties :
#
#
# Convention : Reuss Voigt Hill
#
# Bulk Modulus (GPa) = 99.47788 101.10056 100.28922
# Shear Modulus (GPa) = 34.04059 36.06369 35.05214
#
# Velocity S-wave (km/s) = 4.28150 4.40690 4.34465
# Velocity P-wave (km/s) = 8.83243 8.96316 8.89803
#
# Compressibility (1/GPa) = 0.01005249
#
# Stress axis : x y z
#
# Youngs Moduli (GPa) = 123.32092 72.87315 74.67644
#
# Poissons Ratio (x) = 0.26050 0.16134
# Poissons Ratio (y) = 0.44083 0.51152
# Poissons Ratio (z) = 0.26643 0.49917
#
# Static dielectric constant tensor:
#      x y z
#    x 1.638470 0.000000 0.000000 
#    y 0.000000 1.618390 0.000000 
#    z 0.000000 0.000000 1.614050 
# 
# From -- ./inp_files/31252.got.cif
#   From: 2010.05.17/outbox.cif.g08.bks.cpg/sg71_16_cif.got.tgz:31252.got - 2010.06.03 16:22:01.
