data_PCOD9523229
_publ_section_title
;
Structure prediction by ZEFSAII (Michael W. Deem and Ramdas Pophale) SiO2 
 PCOD9523229
Probable space group: I M M M
;
_chemical_formula_sum "Si O2"
_cell_formula_units_Z 68
_cell_length_a 8.251928
_cell_length_b 17.093011
_cell_length_c 23.332401
_cell_angle_alpha 90.000000
_cell_angle_beta 90.000000
_cell_angle_gamma 90.000000
_cell_volume 3291.042069
_symmetry_space_group_name_H-M "I M M M"
_symmetry_group_IT_number 71
_symmetry_cell_setting 'orthorhombic'
loop_
_space_group_symop_operation_xyz
x,y,z
-x,-y,z
x,-y,-z
-x,y,-z
-x,-y,-z
x,y,-z
-x,y,z
x,-y,z
1/2+x,1/2+y,1/2+z
1/2-x,1/2-y,1/2+z
1/2+x,1/2-y,1/2-z
1/2-x,1/2+y,1/2-z
1/2-x,1/2-y,1/2-z
1/2+x,1/2+y,1/2-z
1/2-x,1/2+y,1/2+z
1/2+x,1/2-y,1/2+z
loop_
_atom_site_type_symbol
_atom_site_label
_atom_site_fract_x
_atom_site_fract_y
_atom_site_fract_z
Si Si1 0.685732 0.369279 0.415372
Si Si2 0.695732 0.590505 0.830458
Si Si3 0.299369 0.000000 0.000000
Si Si4 0.686228 0.094465 0.206296
Si Si5 0.304471 0.695738 0.936867
O O1 0.500000 0.388884 0.430217
O O2 0.792394 0.431527 0.450058
O O3 0.711716 0.376627 0.347465
O O4 0.728243 0.281389 0.432419
O O5 0.500000 0.591025 0.829191
O O6 0.748110 0.500000 0.836938
O O7 0.756879 0.620728 0.769045
O O8 0.749995 0.642011 0.884201
O O9 0.500000 0.117475 0.196997
O O10 0.697097 0.000000 0.206452
O O11 0.500000 0.703897 0.932821
O O12 0.267673 0.662454 0.000000
#
# Coordination Sequence:
#
# PCOD9523229 Si02
#       5
#    16  16   4  16  16
#     4  12  23  39  61  86 118 156 197 237 284 345
#     4   9  19  38  63  87 114 153 195 237 289 346
#     4  12  25  40  61  90 119 156 199 236 277 342
#     4  10  21  37  58  87 118 151 194 244 292 339
#     4  10  22  39  58  87 122 151 190 242 292 344
#
# _framework density 20.662147999999998
#
# number of rings (size 3 to 8) (size 9 to 14) (size 15 to 20)
#    0.000    1.647    2.353    2.471    0.000    3.294 
#    0.000    4.706    0.000    0.000    0.000    4.941 
#    0.000    0.000    0.000    0.000    0.000    0.000 
#
# Total GULP energy -189498.644839 kJ/mol
# GULP energy per Si atom -5573.489554 kJ/mol
# Density = 2.061512 g / cm^3
# Si number density = 20.662148 Si / 1000 Ang^3
#
#
#
# Elastic Constant Matrix: (Units=GPa)
#
#
# Indices 1 2 3 4 5 6 
#
# 1 31.4066 7.3571 22.1771 0.0000 0.0000 0.0000
# 2 7.3571 60.1511 51.3126 0.0000 0.0000 0.0000
# 3 22.1771 51.3126 187.2590 0.0000 0.0000 0.0000
# 4 0.0000 0.0000 0.0000 48.5226 0.0000 0.0000
# 5 0.0000 0.0000 0.0000 0.0000 -6.8519 0.0000
# 6 0.0000 0.0000 0.0000 0.0000 0.0000 2.1761
#
#
#
# Elastic Compliance Matrix: (Units=1/GPa)
#
#
# Indices 1 2 3 4 5 6 
#
# 1 0.034789 -0.000966 -0.003855 0.000000 0.000000 0.000000
# 2 -0.000966 0.021723 -0.005838 0.000000 0.000000 0.000000
# 3 -0.003855 -0.005838 0.007397 0.000000 0.000000 0.000000
# 4 0.000000 0.000000 0.000000 0.020609 0.000000 0.000000
# 5 0.000000 0.000000 0.000000 0.000000 -0.145945 0.000000
# 6 0.000000 0.000000 0.000000 0.000000 0.000000 0.459541
#
#
# Mechanical properties :
#
#
# Convention : Reuss Voigt Hill
#
# Bulk Modulus (GPa) = 23.47996 48.94560 36.21278
# Shear Modulus (GPa) = 11.53058 21.96735 16.74897
#
# Velocity S-wave (km/s) = 2.36488 3.26416 2.85021
# Velocity P-wave (km/s) = 4.34112 6.16006 5.32877
#
# Compressibility (1/GPa) = 0.04258951
#
# Stress axis : x y z
#
# Youngs Moduli (GPa) = 28.74461 46.03351 135.19805
#
# Poissons Ratio (x) = 0.04448 0.52123
# Poissons Ratio (y) = 0.02777 0.78931
# Poissons Ratio (z) = 0.11082 0.26875
#
# Static dielectric constant tensor:
#      x y z
#    x 1.775980 0.000000 0.000000 
#    y 0.000000 1.694200 0.000000 
#    z 0.000000 0.000000 1.731450 
# 
# From -- ./inp_files/7625.got.cif
#   From: 2010.05.17/outbox.cif.g08.bks.cpg/sg71_4_cif.got.tgz:7625.got - 2010.06.03 16:22:01.
