data_PCOD9523369
_publ_section_title
;
Structure prediction by ZEFSAII (Michael W. Deem and Ramdas Pophale) SiO2 
 PCOD9523369
Probable space group: I M M M
;
_chemical_formula_sum "Si O2"
_cell_formula_units_Z 80
_cell_length_a 20.843820
_cell_length_b 11.705506
_cell_length_c 18.535675
_cell_angle_alpha 90.000000
_cell_angle_beta 90.000000
_cell_angle_gamma 90.000000
_cell_volume 4522.472264
_symmetry_space_group_name_H-M "I M M M"
_symmetry_group_IT_number 71
_symmetry_cell_setting 'orthorhombic'
loop_
_space_group_symop_operation_xyz
x,y,z
-x,-y,z
x,-y,-z
-x,y,-z
-x,-y,-z
x,y,-z
-x,y,z
x,-y,z
1/2+x,1/2+y,1/2+z
1/2-x,1/2-y,1/2+z
1/2+x,1/2-y,1/2-z
1/2-x,1/2+y,1/2-z
1/2-x,1/2-y,1/2-z
1/2+x,1/2+y,1/2-z
1/2-x,1/2+y,1/2+z
1/2+x,1/2-y,1/2+z
loop_
_atom_site_type_symbol
_atom_site_label
_atom_site_fract_x
_atom_site_fract_y
_atom_site_fract_z
Si Si1 0.314489 0.863339 0.821588
Si Si2 0.615574 0.500000 0.912687
Si Si3 0.926938 0.748093 0.413006
Si Si4 0.764122 0.500000 0.913718
Si Si5 0.074157 0.134091 0.086062
Si Si6 0.814335 0.727174 0.840499
O O1 0.372484 0.824070 0.873098
O O2 0.246936 0.810855 0.847944
O O3 0.323879 0.808808 0.742478
O O4 0.311171 0.000000 0.816962
O O5 0.582748 0.618692 0.891176
O O6 0.689689 0.500000 0.888593
O O7 0.615053 0.500000 0.000000
O O8 0.918604 0.740996 0.500000
O O9 0.000000 0.712936 0.396271
O O10 0.797760 0.612672 0.884000
O O11 0.764240 0.500000 0.000000
O O12 0.123465 0.211120 0.128847
O O13 0.000000 0.160743 0.102806
O O14 0.084710 0.000000 0.101893
O O15 0.082985 0.149197 0.000000
#
# Coordination Sequence:
#
# PCOD9523369 Si02
#       6
#    16   8  16   8  16  16
#     4  11  24  39  57  83 118 158 195 237 288 343
#     4   9  17  34  59  87 116 147 189 239 287 333
#     4  10  21  38  60  85 115 153 197 243 287 338
#     4  11  20  35  63  93 116 147 191 241 291 339
#     4   9  19  38  63  89 116 147 187 238 293 348
#     4  11  22  39  60  85 119 152 194 237 290 345
#
# _framework density 17.689440000000001
#
# number of rings (size 3 to 8) (size 9 to 14) (size 15 to 20)
#    0.000    1.800    3.000    2.100    0.000    3.600 
#    1.800    1.500    0.000    1.800    0.000    0.000 
#    0.000    0.000    0.000    0.000    0.000    0.000 
#
# Total GULP energy -223352.750472 kJ/mol
# GULP energy per Si atom -5583.818762 kJ/mol
# Density = 1.764918 g / cm^3
# Si number density = 17.689440 Si / 1000 Ang^3
#
#
#
# Elastic Constant Matrix: (Units=GPa)
#
#
# Indices 1 2 3 4 5 6 
#
# 1 143.5554 96.8666 64.9217 0.0000 0.0000 0.0000
# 2 96.8666 119.2008 40.2190 0.0000 0.0000 0.0000
# 3 64.9217 40.2190 51.2586 0.0000 0.0000 0.0000
# 4 0.0000 0.0000 0.0000 17.9799 0.0000 0.0000
# 5 0.0000 0.0000 0.0000 0.0000 30.4777 0.0000
# 6 0.0000 0.0000 0.0000 0.0000 0.0000 26.8877
#
#
#
# Elastic Compliance Matrix: (Units=1/GPa)
#
#
# Indices 1 2 3 4 5 6 
#
# 1 0.026837 -0.014063 -0.022956 0.000000 0.000000 0.000000
# 2 -0.014063 0.018779 0.003077 0.000000 0.000000 0.000000
# 3 -0.022956 0.003077 0.046170 0.000000 0.000000 0.000000
# 4 0.000000 0.000000 0.000000 0.055618 0.000000 0.000000
# 5 0.000000 0.000000 0.000000 0.000000 0.032811 0.000000
# 6 0.000000 0.000000 0.000000 0.000000 0.000000 0.037192
#
#
# Mechanical properties :
#
#
# Convention : Reuss Voigt Hill
#
# Bulk Modulus (GPa) = 41.83850 79.78105 60.80978
# Shear Modulus (GPa) = 17.04983 22.53622 19.79303
#
# Velocity S-wave (km/s) = 3.10795 3.57318 3.34865
# Velocity P-wave (km/s) = 6.04832 7.88811 7.02867
#
# Compressibility (1/GPa) = 0.02390143
#
# Stress axis : x y z
#
# Youngs Moduli (GPa) = 37.26196 53.25042 21.65917
#
# Poissons Ratio (x) = 0.74887 0.49721
# Poissons Ratio (y) = 0.52402 -0.06664
# Poissons Ratio (z) = 0.85539 -0.16385
#
# Static dielectric constant tensor:
#      x y z
#    x 1.583270 0.000000 0.000000 
#    y 0.000000 1.584270 0.000000 
#    z 0.000000 0.000000 1.591210 
# 
# From -- ./inp_files/23821.got.cif
#   From: 2010.05.17/outbox.cif.g08.bks.cpg/sg71_12_cif.got.tgz:23821.got - 2010.06.03 16:22:01.
