data_PCOD9523153
_publ_section_title
;
Structure prediction by ZEFSAII (Michael W. Deem and Ramdas Pophale) SiO2 
 PCOD9523153
Probable space group: I M M M
;
_chemical_formula_sum "Si O2"
_cell_formula_units_Z 96
_cell_length_a 22.025294
_cell_length_b 13.907517
_cell_length_c 12.708495
_cell_angle_alpha 90.000000
_cell_angle_beta 90.000000
_cell_angle_gamma 90.000000
_cell_volume 3892.829979
_symmetry_space_group_name_H-M "I M M M"
_symmetry_group_IT_number 71
_symmetry_cell_setting 'orthorhombic'
loop_
_space_group_symop_operation_xyz
x,y,z
-x,-y,z
x,-y,-z
-x,y,-z
-x,-y,-z
x,y,-z
-x,y,z
x,-y,z
1/2+x,1/2+y,1/2+z
1/2-x,1/2-y,1/2+z
1/2+x,1/2-y,1/2-z
1/2-x,1/2+y,1/2-z
1/2-x,1/2-y,1/2-z
1/2+x,1/2+y,1/2-z
1/2-x,1/2+y,1/2+z
1/2+x,1/2-y,1/2+z
loop_
_atom_site_type_symbol
_atom_site_label
_atom_site_fract_x
_atom_site_fract_y
_atom_site_fract_z
Si Si1 0.695342 0.895372 0.623039
Si Si2 0.386541 0.393019 0.113462
Si Si3 0.109305 0.386916 0.622750
Si Si4 0.280899 0.766455 0.879376
Si Si5 0.569720 0.603236 0.656861
Si Si6 0.430403 0.184448 0.336642
O O1 0.713318 0.896625 0.500000
O O2 0.725377 0.796662 0.667669
O O3 0.622573 0.886018 0.627308
O O4 0.713511 0.000000 0.666864
O O5 0.358372 0.500000 0.113175
O O6 0.334362 0.314036 0.122112
O O7 0.427377 0.392003 0.216354
O O8 0.417487 0.380727 0.000000
O O9 0.097936 0.361646 0.500000
O O10 0.097502 0.500000 0.634749
O O11 0.179903 0.361670 0.647369
O O12 0.071701 0.328484 0.709522
O O13 0.261622 0.787463 0.000000
O O14 0.500000 0.599846 0.623558
O O15 0.598510 0.500000 0.626114
O O16 0.591183 0.709211 0.626453
O O17 0.500000 0.168608 0.370300
#
# Coordination Sequence:
#
# PCOD9523153 Si02
#       6
#    16  16  16  16  16  16
#     4  10  22  40  62  87 113 142 184 244 302 343
#     4   9  15  25  46  75 105 139 179 222 271 328
#     4  10  21  37  56  83 122 160 192 230 275 332
#     4   9  17  33  55  79 109 144 180 224 282 340
#     4   9  18  32  49  73 108 145 181 227 278 326
#     4  11  23  39  59  83 114 153 197 239 281 337
#
# _framework density 24.660723000000001
#
# number of rings (size 3 to 8) (size 9 to 14) (size 15 to 20)
#    0.000    2.333    1.667    1.000    0.000    5.000 
#    0.000    5.833    0.000    1.500    0.000    2.333 
#    0.000    0.000    0.000    0.000    0.000    0.000 
#
# Total GULP energy -267494.074220 kJ/mol
# GULP energy per Si atom -5572.793213 kJ/mol
# Density = 2.460459 g / cm^3
# Si number density = 24.660723 Si / 1000 Ang^3
#
#
#
# Elastic Constant Matrix: (Units=GPa)
#
#
# Indices 1 2 3 4 5 6 
#
# 1 78.5857 19.0059 7.7739 0.0000 0.0000 0.0000
# 2 19.0059 145.6171 1.8730 0.0000 0.0000 0.0000
# 3 7.7739 1.8730 87.5597 0.0000 0.0000 0.0000
# 4 0.0000 0.0000 0.0000 -19.0035 0.0000 0.0000
# 5 0.0000 0.0000 0.0000 0.0000 -113.9885 0.0000
# 6 0.0000 0.0000 0.0000 0.0000 0.0000 22.9729
#
#
#
# Elastic Compliance Matrix: (Units=1/GPa)
#
#
# Indices 1 2 3 4 5 6 
#
# 1 0.013253 -0.001715 -0.001140 0.000000 0.000000 0.000000
# 2 -0.001715 0.007091 0.000001 0.000000 0.000000 0.000000
# 3 -0.001140 0.000001 0.011522 0.000000 0.000000 0.000000
# 4 0.000000 0.000000 0.000000 -0.052622 0.000000 0.000000
# 5 0.000000 0.000000 0.000000 0.000000 -0.008773 0.000000
# 6 0.000000 0.000000 0.000000 0.000000 0.000000 0.043530
#
#
# Mechanical properties :
#
#
# Convention : Reuss Voigt Hill
#
# Bulk Modulus (GPa) = 38.23088 41.00755 39.61921
# Shear Modulus (GPa) = 175.88061 -3.12986 86.37538
#
# Velocity S-wave (km/s) = 8.45429 -1.12780 5.92465
# Velocity P-wave (km/s) = 10.52788 3.86897 7.93112
#
# Compressibility (1/GPa) = 0.02615687
#
# Stress axis : x y z
#
# Youngs Moduli (GPa) = 75.45746 141.02053 86.79068
#
# Poissons Ratio (x) = 0.24186 0.09893
# Poissons Ratio (y) = 0.12941 -0.00005
# Poissons Ratio (z) = 0.08602 -0.00008
#
# Static dielectric constant tensor:
#      x y z
#    x 1.904480 0.000000 0.000000 
#    y 0.000000 2.007890 0.000000 
#    z 0.000000 0.000000 2.157550 
# 
# From -- ./inp_files/37827.got.cif
#   From: 2010.05.17/outbox.cif.g08.bks.cpg/sg71_19_cif.got.tgz:37827.got - 2010.06.03 16:22:01.
