data_PCOD9523009
_publ_section_title
;
Structure prediction by ZEFSAII (Michael W. Deem and Ramdas Pophale) SiO2 
 PCOD9523009
Probable space group: I M M M
;
_chemical_formula_sum "Si O2"
_cell_formula_units_Z 88
_cell_length_a 19.584052
_cell_length_b 24.610680
_cell_length_c 7.912034
_cell_angle_alpha 90.000000
_cell_angle_beta 90.000000
_cell_angle_gamma 90.000000
_cell_volume 3813.417121
_symmetry_space_group_name_H-M "I M M M"
_symmetry_group_IT_number 71
_symmetry_cell_setting 'orthorhombic'
loop_
_space_group_symop_operation_xyz
x,y,z
-x,-y,z
x,-y,-z
-x,y,-z
-x,-y,-z
x,y,-z
-x,y,z
x,-y,z
1/2+x,1/2+y,1/2+z
1/2-x,1/2-y,1/2+z
1/2+x,1/2-y,1/2-z
1/2-x,1/2+y,1/2-z
1/2-x,1/2-y,1/2-z
1/2+x,1/2+y,1/2-z
1/2-x,1/2+y,1/2+z
1/2+x,1/2-y,1/2+z
loop_
_atom_site_type_symbol
_atom_site_label
_atom_site_fract_x
_atom_site_fract_y
_atom_site_fract_z
Si Si1 0.926000 0.721490 0.198473
Si Si2 0.349051 0.937710 0.801195
Si Si3 0.638877 0.326101 0.199832
Si Si4 0.080042 0.060217 0.795946
Si Si5 0.500000 0.065740 0.305648
Si Si6 0.211199 0.330099 0.802408
O O1 0.914761 0.785990 0.214034
O O2 0.856950 0.696250 0.275171
O O3 0.000000 0.705933 0.270595
O O4 0.927071 0.706560 0.000000
O O5 0.427801 0.919017 0.774827
O O6 0.300604 0.894625 0.712440
O O7 0.343246 0.000000 0.739265
O O8 0.334316 0.937436 0.000000
O O9 0.620805 0.388799 0.226854
O O10 0.715148 0.314904 0.269735
O O11 0.637292 0.315010 0.000000
O O12 0.000000 0.065408 0.749514
O O13 0.103614 0.000000 0.741666
O O14 0.083824 0.061838 0.000000
O O15 0.500000 0.083410 0.500000
O O16 0.500000 0.000000 0.300078
O O17 0.213229 0.315246 0.000000
#
# Coordination Sequence:
#
# PCOD9523009 Si02
#       6
#    16  16  16  16   8  16
#     4  10  22  41  64  86 109 145 196 246 289 346
#     4  10  21  36  55  83 117 151 192 242 292 340
#     4  11  23  38  58  87 122 155 188 235 296 356
#     4   9  19  37  61  88 118 155 199 241 282 339
#     4   9  17  31  53  77 105 147 191 231 280 337
#     4  10  23  40  58  84 117 154 197 241 289 351
#
# _framework density 23.076415999999998
#
# number of rings (size 3 to 8) (size 9 to 14) (size 15 to 20)
#    0.000    2.091    0.000    3.000    1.273    8.364 
#    0.000    4.545    0.000    0.000    0.000    0.000 
#    0.000    0.000    0.000    0.000    0.000    0.000 
#
# Total GULP energy -245908.126651 kJ/mol
# GULP energy per Si atom -5588.821060 kJ/mol
# Density = 2.302389 g / cm^3
# Si number density = 23.076416 Si / 1000 Ang^3
#
#
#
# Elastic Constant Matrix: (Units=GPa)
#
#
# Indices 1 2 3 4 5 6 
#
# 1 109.9907 29.9751 7.5649 0.0000 0.0000 0.0000
# 2 29.9751 82.2936 -5.8698 0.0000 0.0000 0.0000
# 3 7.5649 -5.8698 30.6657 0.0000 0.0000 0.0000
# 4 0.0000 0.0000 0.0000 19.1488 0.0000 0.0000
# 5 0.0000 0.0000 0.0000 0.0000 17.5942 0.0000
# 6 0.0000 0.0000 0.0000 0.0000 0.0000 29.4363
#
#
#
# Elastic Compliance Matrix: (Units=1/GPa)
#
#
# Indices 1 2 3 4 5 6 
#
# 1 0.010421 -0.004034 -0.003343 0.000000 0.000000 0.000000
# 2 -0.004034 0.013882 0.003652 0.000000 0.000000 0.000000
# 3 -0.003343 0.003652 0.034134 0.000000 0.000000 0.000000
# 4 0.000000 0.000000 0.000000 0.052222 0.000000 0.000000
# 5 0.000000 0.000000 0.000000 0.000000 0.056837 0.000000
# 6 0.000000 0.000000 0.000000 0.000000 0.000000 0.033972
#
#
# Mechanical properties :
#
#
# Convention : Reuss Voigt Hill
#
# Bulk Modulus (GPa) = 19.61310 31.81003 25.71156
# Shear Modulus (GPa) = 22.13248 25.98786 24.06017
#
# Velocity S-wave (km/s) = 3.10029 3.35948 3.23248
# Velocity P-wave (km/s) = 4.61880 5.37240 5.00979
#
# Compressibility (1/GPa) = 0.05098634
#
# Stress axis : x y z
#
# Youngs Moduli (GPa) = 95.95987 72.03786 29.29672
#
# Poissons Ratio (x) = 0.29062 0.09794
# Poissons Ratio (y) = 0.38713 -0.10700
# Poissons Ratio (z) = 0.32079 -0.26310
#
# Static dielectric constant tensor:
#      x y z
#    x 1.877270 0.000000 0.000000 
#    y 0.000000 1.888910 0.000000 
#    z 0.000000 0.000000 1.832940 
# 
# From -- ./inp_files/10471.got.cif
#   From: 2010.05.17/outbox.cif.g08.bks.cpg/sg71_6_cif.got.tgz:10471.got - 2010.06.03 16:22:01.
