data_PCOD9523508
_publ_section_title
;
Structure prediction by ZEFSAII (Michael W. Deem and Ramdas Pophale) SiO2 
 PCOD9523508
Probable space group: I M M M
;
_chemical_formula_sum "Si O2"
_cell_formula_units_Z 60
_cell_length_a 17.598117
_cell_length_b 18.221435
_cell_length_c 9.845380
_cell_angle_alpha 90.000000
_cell_angle_beta 90.000000
_cell_angle_gamma 90.000000
_cell_volume 3157.048546
_symmetry_space_group_name_H-M "I M M M"
_symmetry_group_IT_number 71
_symmetry_cell_setting 'orthorhombic'
loop_
_space_group_symop_operation_xyz
x,y,z
-x,-y,z
x,-y,-z
-x,y,-z
-x,-y,-z
x,y,-z
-x,y,z
x,-y,z
1/2+x,1/2+y,1/2+z
1/2-x,1/2-y,1/2+z
1/2+x,1/2-y,1/2-z
1/2-x,1/2+y,1/2-z
1/2-x,1/2-y,1/2-z
1/2+x,1/2+y,1/2-z
1/2-x,1/2+y,1/2+z
1/2+x,1/2-y,1/2+z
loop_
_atom_site_type_symbol
_atom_site_label
_atom_site_fract_x
_atom_site_fract_y
_atom_site_fract_z
Si Si1 0.235177 0.660605 0.500000
Si Si2 0.500000 0.674243 0.000000
Si Si3 0.586921 0.088546 0.500000
Si Si4 0.500000 0.579426 0.736085
Si Si5 0.378968 0.580492 0.500000
Si Si6 0.717837 0.088789 0.289548
Si Si7 0.820037 0.174923 0.500000
O O1 0.324808 0.648445 0.500000
O O2 0.209710 0.619936 0.637956
O O3 0.218739 0.745915 0.500000
O O4 0.500000 0.636154 0.854061
O O5 0.590584 0.696460 0.000000
O O6 0.500000 0.117210 0.500000
O O7 0.640395 0.107336 0.371761
O O8 0.581434 0.000000 0.500000
O O9 0.500000 0.500000 0.804293
O O10 0.429715 0.583130 0.633718
O O11 0.339441 0.500000 0.500000
O O12 0.787674 0.127763 0.371063
O O13 0.728194 0.000000 0.291413
#
# Coordination Sequence:
#
# PCOD9523508 Si02
#       7
#     8   4   8   8   8  16   8
#     4  12  22  37  60  88 124 158 197 250 308 349
#     4  12  23  36  52  76 115 162 198 232 284 358
#     4   8  16  35  60  85 115 150 194 247 298 352
#     4   9  19  33  55  87 115 145 188 242 290 347
#     4   9  18  35  58  85 118 150 188 236 296 357
#     4  10  21  39  64  91 118 154 205 252 300 360
#     4  11  25  41  57  83 126 166 198 245 304 363
#
# _framework density 19.005092999999999
#
# number of rings (size 3 to 8) (size 9 to 14) (size 15 to 20)
#    0.000    2.000    0.000    5.800    0.000    4.267 
#    2.400    0.000   11.733    3.200    0.000    0.000 
#    0.000    0.000    0.000    0.000    0.000    0.000 
#
# Total GULP energy -167012.527475 kJ/mol
# GULP energy per Si atom -5567.084249 kJ/mol
# Density = 1.896184 g / cm^3
# Si number density = 19.005093 Si / 1000 Ang^3
#
#
#
# Elastic Constant Matrix: (Units=GPa)
#
#
# Indices 1 2 3 4 5 6 
#
# 1 110.4791 44.5452 17.5143 0.0000 0.0000 0.0000
# 2 44.5452 113.7096 41.2300 0.0000 0.0000 0.0000
# 3 17.5143 41.2300 133.5237 0.0000 0.0000 0.0000
# 4 0.0000 0.0000 0.0000 8.2242 0.0000 0.0000
# 5 0.0000 0.0000 0.0000 0.0000 25.3989 0.0000
# 6 0.0000 0.0000 0.0000 0.0000 0.0000 25.2742
#
#
#
# Elastic Compliance Matrix: (Units=1/GPa)
#
#
# Indices 1 2 3 4 5 6 
#
# 1 0.010751 -0.004167 -0.000124 0.000000 0.000000 0.000000
# 2 -0.004167 0.011518 -0.003010 0.000000 0.000000 0.000000
# 3 -0.000124 -0.003010 0.008435 0.000000 0.000000 0.000000
# 4 0.000000 0.000000 0.000000 0.121593 0.000000 0.000000
# 5 0.000000 0.000000 0.000000 0.000000 0.039372 0.000000
# 6 0.000000 0.000000 0.000000 0.000000 0.000000 0.039566
#
#
# Mechanical properties :
#
#
# Convention : Reuss Voigt Hill
#
# Bulk Modulus (GPa) = 62.09933 62.69905 62.39919
# Shear Modulus (GPa) = 19.90419 28.74100 24.32260
#
# Velocity S-wave (km/s) = 3.23973 3.89302 3.58130
# Velocity P-wave (km/s) = 6.83670 7.29861 7.07143
#
# Compressibility (1/GPa) = 0.01610323
#
# Stress axis : x y z
#
# Youngs Moduli (GPa) = 93.01310 86.81979 118.55417
#
# Poissons Ratio (x) = 0.36177 0.01465
# Poissons Ratio (y) = 0.38758 0.35685
# Poissons Ratio (z) = 0.01149 0.26133
#
# Static dielectric constant tensor:
#      x y z
#    x 1.724660 0.000000 0.000000 
#    y 0.000000 1.641150 0.000000 
#    z 0.000000 0.000000 1.674740 
# 
# From -- ./inp_files/7602.got.cif
#   From: 2010.05.17/outbox.cif.g08.bks.cpg/sg71_4_cif.got.tgz:7602.got - 2010.06.03 16:22:01.
