data_PCOD9523425
_publ_section_title
;
Structure prediction by ZEFSAII (Michael W. Deem and Ramdas Pophale) SiO2 
 PCOD9523425
Probable space group: I M M M
;
_chemical_formula_sum "Si O2"
_cell_formula_units_Z 68
_cell_length_a 7.415357
_cell_length_b 18.913902
_cell_length_c 23.847390
_cell_angle_alpha 90.000000
_cell_angle_beta 90.000000
_cell_angle_gamma 90.000000
_cell_volume 3344.675993
_symmetry_space_group_name_H-M "I M M M"
_symmetry_group_IT_number 71
_symmetry_cell_setting 'orthorhombic'
loop_
_space_group_symop_operation_xyz
x,y,z
-x,-y,z
x,-y,-z
-x,y,-z
-x,-y,-z
x,y,-z
-x,y,z
x,-y,z
1/2+x,1/2+y,1/2+z
1/2-x,1/2-y,1/2+z
1/2+x,1/2-y,1/2-z
1/2-x,1/2+y,1/2-z
1/2-x,1/2-y,1/2-z
1/2+x,1/2+y,1/2-z
1/2-x,1/2+y,1/2+z
1/2+x,1/2-y,1/2+z
loop_
_atom_site_type_symbol
_atom_site_label
_atom_site_fract_x
_atom_site_fract_y
_atom_site_fract_z
Si Si1 0.500000 0.078619 0.379162
Si Si2 0.784568 0.689775 0.377969
Si Si3 0.217985 0.169018 0.316024
Si Si4 0.787625 0.920142 0.210032
Si Si5 0.000000 0.629600 0.000000
Si Si6 0.281186 0.245101 0.000000
O O1 0.320836 0.118196 0.358710
O O2 0.500000 0.082680 0.445358
O O3 0.500000 0.000000 0.356383
O O4 0.723564 0.752603 0.335630
O O5 0.734052 0.615328 0.350654
O O6 0.728452 0.705731 0.441917
O O7 0.000000 0.692694 0.378487
O O8 0.278494 0.137194 0.255981
O O9 0.000000 0.166215 0.319722
O O10 0.000000 0.925846 0.220996
O O11 0.712960 0.000000 0.214510
O O12 0.826460 0.681484 0.000000
O O13 0.500000 0.254322 0.000000
#
# Coordination Sequence:
#
# PCOD9523425 Si02
#       6
#     8  16  16  16   4   8
#     4  12  25  38  62  94 124 163 202 241 301 363
#     4  10  21  38  63  88 115 157 204 253 301 352
#     4  10  22  41  62  88 123 162 203 247 296 359
#     4  10  22  38  58  88 126 160 195 248 310 364
#     4  12  23  40  64  86 125 160 194 260 299 338
#     4  10  22  41  62  90 117 153 209 254 297 356
#
# _framework density 20.330818000000001
#
# number of rings (size 3 to 8) (size 9 to 14) (size 15 to 20)
#    0.000    1.647    2.353    1.588    4.941    1.882 
#    0.000    0.588    0.000    5.647    0.000    0.000 
#    0.000    0.000    0.000    0.000    0.000    0.000 
#
# Total GULP energy -189665.311581 kJ/mol
# GULP energy per Si atom -5578.391517 kJ/mol
# Density = 2.028454 g / cm^3
# Si number density = 20.330818 Si / 1000 Ang^3
#
#
#
# Elastic Constant Matrix: (Units=GPa)
#
#
# Indices 1 2 3 4 5 6 
#
# 1 63.4494 6.1506 7.2573 0.0000 0.0000 0.0000
# 2 6.1506 103.8682 69.2600 0.0000 0.0000 0.0000
# 3 7.2573 69.2600 115.3214 0.0000 0.0000 0.0000
# 4 0.0000 0.0000 0.0000 117.2589 0.0000 0.0000
# 5 0.0000 0.0000 0.0000 0.0000 -5.7094 0.0000
# 6 0.0000 0.0000 0.0000 0.0000 0.0000 0.4749
#
#
#
# Elastic Compliance Matrix: (Units=1/GPa)
#
#
# Indices 1 2 3 4 5 6 
#
# 1 0.015888 -0.000457 -0.000725 0.000000 0.000000 0.000000
# 2 -0.000457 0.016072 -0.009624 0.000000 0.000000 0.000000
# 3 -0.000725 -0.009624 0.014497 0.000000 0.000000 0.000000
# 4 0.000000 0.000000 0.000000 0.008528 0.000000 0.000000
# 5 0.000000 0.000000 0.000000 0.000000 -0.175150 0.000000
# 6 0.000000 0.000000 0.000000 0.000000 0.000000 2.105587
#
#
# Mechanical properties :
#
#
# Convention : Reuss Voigt Hill
#
# Bulk Modulus (GPa) = 40.25074 49.77501 45.01288
# Shear Modulus (GPa) = 2.48100 35.73630 19.10865
#
# Velocity S-wave (km/s) = 1.10588 4.19709 3.06908
# Velocity P-wave (km/s) = 4.63373 6.92987 5.89468
#
# Compressibility (1/GPa) = 0.02484426
#
# Stress axis : x y z
#
# Youngs Moduli (GPa) = 62.94112 62.22087 68.98044
#
# Poissons Ratio (x) = 0.02845 0.05003
# Poissons Ratio (y) = 0.02878 0.66384
# Poissons Ratio (z) = 0.04565 0.59879
#
# Static dielectric constant tensor:
#      x y z
#    x 1.796610 0.000000 0.000000 
#    y 0.000000 1.702890 0.000000 
#    z 0.000000 0.000000 1.741140 
# 
# From -- ./inp_files/9658.got.cif
#   From: 2010.05.17/outbox.cif.g08.bks.cpg/sg71_5_cif.got.tgz:9658.got - 2010.06.03 16:22:01.
