data_PCOD9523634
_publ_section_title
;
Structure prediction by ZEFSAII (Michael W. Deem and Ramdas Pophale) SiO2 
 PCOD9523634
Probable space group: I M M M
;
_chemical_formula_sum "Si O2"
_cell_formula_units_Z 96
_cell_length_a 22.568223
_cell_length_b 14.970282
_cell_length_c 14.416416
_cell_angle_alpha 90.000000
_cell_angle_beta 90.000000
_cell_angle_gamma 90.000000
_cell_volume 4870.624530
_symmetry_space_group_name_H-M "I M M M"
_symmetry_group_IT_number 71
_symmetry_cell_setting 'orthorhombic'
loop_
_space_group_symop_operation_xyz
x,y,z
-x,-y,z
x,-y,-z
-x,y,-z
-x,-y,-z
x,y,-z
-x,y,z
x,-y,z
1/2+x,1/2+y,1/2+z
1/2-x,1/2-y,1/2+z
1/2+x,1/2-y,1/2-z
1/2-x,1/2+y,1/2-z
1/2-x,1/2-y,1/2-z
1/2+x,1/2+y,1/2-z
1/2-x,1/2+y,1/2+z
1/2+x,1/2-y,1/2+z
loop_
_atom_site_type_symbol
_atom_site_label
_atom_site_fract_x
_atom_site_fract_y
_atom_site_fract_z
Si Si1 0.230984 0.170414 0.181369
Si Si2 0.567327 0.891458 0.000000
Si Si3 0.565530 0.792178 0.500000
Si Si4 0.138821 0.395765 0.683219
Si Si5 0.126696 0.102424 0.695094
Si Si6 0.814810 0.106934 0.500000
Si Si7 0.696152 0.778499 0.500000
Si Si8 0.434642 0.240375 0.292029
O O1 0.250000 0.250000 0.250000
O O2 0.291860 0.118059 0.163669
O O3 0.182567 0.112376 0.235449
O O4 0.203913 0.215054 0.089669
O O5 0.602545 0.866093 0.907773
O O6 0.500000 0.858409 0.000000
O O7 0.565741 0.000000 0.000000
O O8 0.500000 0.840675 0.500000
O O9 0.632911 0.830092 0.500000
O O10 0.565598 0.740902 0.402058
O O11 0.127167 0.500000 0.702315
O O12 0.114570 0.332919 0.765135
O O13 0.149610 0.130326 0.593260
O O14 0.079166 0.171334 0.734282
O O15 0.106806 0.000000 0.691508
O O16 0.751611 0.154766 0.500000
O O17 0.806491 0.000000 0.500000
O O18 0.500000 0.204428 0.268659
#
# Coordination Sequence:
#
# PCOD9523634 Si02
#       8
#    16   8   8  16  16   8   8  16
#     4  12  21  37  60  89 123 159 201 254 308 363
#     4   9  19  36  57  86 125 163 200 244 297 364
#     4  10  22  41  61  83 117 160 205 259 305 352
#     4  11  22  38  61  92 127 162 201 249 308 374
#     4  11  23  42  63  90 124 161 204 254 311 366
#     4  10  22  37  62  96 129 158 196 248 308 379
#     4  12  19  36  65  88 119 163 206 250 310 365
#     4  11  23  42  65  89 121 163 208 253 303 361
#
# _framework density 19.709999
#
# number of rings (size 3 to 8) (size 9 to 14) (size 15 to 20)
#    0.000    1.083    5.000    1.500    0.000    2.000 
#    0.000    4.167    0.000    5.750    0.000    0.000 
#    0.000    0.000    0.000    0.000    0.000    0.000 
#
# Total GULP energy -267871.719712 kJ/mol
# GULP energy per Si atom -5580.660827 kJ/mol
# Density = 1.966514 g / cm^3
# Si number density = 19.709999 Si / 1000 Ang^3
#
#
#
# Elastic Constant Matrix: (Units=GPa)
#
#
# Indices 1 2 3 4 5 6 
#
# 1 82.3196 4.1307 27.2463 0.0000 0.0000 0.0000
# 2 4.1307 58.2061 21.6531 0.0000 0.0000 0.0000
# 3 27.2463 21.6531 136.8111 0.0000 0.0000 0.0000
# 4 0.0000 0.0000 0.0000 19.2094 0.0000 0.0000
# 5 0.0000 0.0000 0.0000 0.0000 26.1967 0.0000
# 6 0.0000 0.0000 0.0000 0.0000 0.0000 23.0468
#
#
#
# Elastic Compliance Matrix: (Units=1/GPa)
#
#
# Indices 1 2 3 4 5 6 
#
# 1 0.013005 0.000043 -0.002597 0.000000 0.000000 0.000000
# 2 0.000043 0.018255 -0.002898 0.000000 0.000000 0.000000
# 3 -0.002597 -0.002898 0.008285 0.000000 0.000000 0.000000
# 4 0.000000 0.000000 0.000000 0.052058 0.000000 0.000000
# 5 0.000000 0.000000 0.000000 0.000000 0.038173 0.000000
# 6 0.000000 0.000000 0.000000 0.000000 0.000000 0.043390
#
#
# Mechanical properties :
#
#
# Convention : Reuss Voigt Hill
#
# Bulk Modulus (GPa) = 34.91324 42.59967 38.75646
# Shear Modulus (GPa) = 25.82423 28.64437 27.23430
#
# Velocity S-wave (km/s) = 3.62361 3.81634 3.72122
# Velocity P-wave (km/s) = 5.93795 6.40932 6.17814
#
# Compressibility (1/GPa) = 0.02864243
#
# Stress axis : x y z
#
# Youngs Moduli (GPa) = 76.89280 54.77866 120.69781
#
# Poissons Ratio (x) = -0.00236 0.31343
# Poissons Ratio (y) = -0.00331 0.34976
# Poissons Ratio (z) = 0.19968 0.15874
#
# Static dielectric constant tensor:
#      x y z
#    x 1.716610 0.000000 0.000000 
#    y 0.000000 1.668930 0.000000 
#    z 0.000000 0.000000 1.704750 
# 
# From -- ./inp_files/39242.got.cif
#   From: 2010.05.17/outbox.cif.g08.bks.cpg/sg71_20_cif.got.tgz:39242.got - 2010.06.03 16:22:01.
