data_PCOD9523769
_publ_section_title
;
Structure prediction by ZEFSAII (Michael W. Deem and Ramdas Pophale) SiO2 
 PCOD9523769
Probable space group: I M M M
;
_chemical_formula_sum "Si O2"
_cell_formula_units_Z 50
_cell_length_a 11.279269
_cell_length_b 17.426837
_cell_length_c 13.504287
_cell_angle_alpha 90.000000
_cell_angle_beta 90.000000
_cell_angle_gamma 90.000000
_cell_volume 2654.429423
_symmetry_space_group_name_H-M "I M M M"
_symmetry_group_IT_number 71
_symmetry_cell_setting 'orthorhombic'
loop_
_space_group_symop_operation_xyz
x,y,z
-x,-y,z
x,-y,-z
-x,y,-z
-x,-y,-z
x,y,-z
-x,y,z
x,-y,z
1/2+x,1/2+y,1/2+z
1/2-x,1/2-y,1/2+z
1/2+x,1/2-y,1/2-z
1/2-x,1/2+y,1/2-z
1/2-x,1/2-y,1/2-z
1/2+x,1/2+y,1/2-z
1/2-x,1/2+y,1/2+z
1/2+x,1/2-y,1/2+z
loop_
_atom_site_type_symbol
_atom_site_label
_atom_site_fract_x
_atom_site_fract_y
_atom_site_fract_z
Si Si1 0.727680 0.689092 0.384576
Si Si2 0.639064 0.849056 0.695347
Si Si3 0.000000 0.912453 0.120071
Si Si4 0.500000 0.500000 0.000000
Si Si5 0.246152 0.000000 0.390455
O O1 0.754405 0.676319 0.500000
O O2 0.686386 0.776433 0.367030
O O3 0.833735 0.671017 0.309776
O O4 0.617274 0.635010 0.353154
O O5 0.500000 0.859550 0.678347
O O6 0.710762 0.924471 0.665300
O O7 0.000000 0.000000 0.156202
O O8 0.000000 0.914935 0.000000
O O9 0.606461 0.500000 0.915057
O O10 0.304725 0.000000 0.500000
#
# Coordination Sequence:
#
# PCOD9523769 Si02
#       5
#    16  16   8   2   8
#     4  10  22  40  61  91 126 166 213 267 318 374
#     4  11  23  40  62  94 127 168 214 258 321 386
#     4   9  18  35  61  87 115 160 210 262 311 365
#     4   8  24  48  62 104 122 156 210 270 316 376
#     4  10  23  44  67  91 126 163 208 263 320 377
#
# _framework density 18.836441000000001
#
# number of rings (size 3 to 8) (size 9 to 14) (size 15 to 20)
#    0.480    1.440    1.600    1.440    2.240    4.480 
#    2.880    0.000    0.000    1.920    0.000    0.000 
#    0.000    0.000    0.000    0.000    0.000    0.000 
#
# Total GULP energy -139252.481373 kJ/mol
# GULP energy per Si atom -5570.099255 kJ/mol
# Density = 1.879357 g / cm^3
# Si number density = 18.836441 Si / 1000 Ang^3
#
#
#
# Elastic Constant Matrix: (Units=GPa)
#
#
# Indices 1 2 3 4 5 6 
#
# 1 92.5831 45.0811 21.8702 0.0000 0.0000 0.0000
# 2 45.0811 154.0568 18.2486 -0.0001 0.0000 0.0000
# 3 21.8702 18.2486 87.2975 -0.0001 0.0000 0.0000
# 4 0.0000 -0.0001 -0.0001 13.3194 0.0000 0.0000
# 5 0.0000 0.0000 0.0000 0.0000 27.1506 0.0000
# 6 0.0000 0.0000 0.0000 0.0000 0.0000 0.4036
#
#
#
# Elastic Compliance Matrix: (Units=1/GPa)
#
#
# Indices 1 2 3 4 5 6 
#
# 1 0.013127 -0.003539 -0.002549 0.000000 0.000000 0.000000
# 2 -0.003539 0.007610 -0.000704 0.000000 0.000000 0.000000
# 3 -0.002549 -0.000704 0.012241 0.000000 0.000000 -0.000001
# 4 0.000000 0.000000 0.000000 0.075078 0.000000 -0.000004
# 5 0.000000 0.000000 0.000000 0.000000 0.036832 0.000001
# 6 0.000000 0.000000 -0.000001 -0.000004 0.000001 2.477879
#
#
# Mechanical properties :
#
#
# Convention : Reuss Voigt Hill
#
# Bulk Modulus (GPa) = 51.56419 56.03749 53.80084
# Shear Modulus (GPa) = 1.89192 24.75722 13.32457
#
# Velocity S-wave (km/s) = 1.00328 3.62930 2.66255
# Velocity P-wave (km/s) = 5.36435 6.88306 6.17060
#
# Compressibility (1/GPa) = 0.01939330
#
# Stress axis : x y z
#
# Youngs Moduli (GPa) = 76.18162 131.40251 81.69411
#
# Poissons Ratio (x) = 0.46507 0.20821
# Poissons Ratio (y) = 0.26963 0.05753
# Poissons Ratio (z) = 0.19416 0.09253
#
# Static dielectric constant tensor:
#      x y z
#    x 1.619280 0.000000 0.000000 
#    y 0.000000 1.646010 0.000000 
#    z 0.000000 0.000000 1.661550 
# 
# From -- ./inp_files/23073.got.cif
#   From: 2010.05.17/outbox.cif.g08.bks.cpg/sg71_12_cif.got.tgz:23073.got - 2010.06.03 16:22:01.
