data_PCOD9523309
_publ_section_title
;
Structure prediction by ZEFSAII (Michael W. Deem and Ramdas Pophale) SiO2 
 PCOD9523309
Probable space group: I M M M
;
_chemical_formula_sum "Si O2"
_cell_formula_units_Z 90
_cell_length_a 25.966016
_cell_length_b 20.283954
_cell_length_c 8.044801
_cell_angle_alpha 90.000000
_cell_angle_beta 90.000000
_cell_angle_gamma 90.000000
_cell_volume 4237.144187
_symmetry_space_group_name_H-M "I M M M"
_symmetry_group_IT_number 71
_symmetry_cell_setting 'orthorhombic'
loop_
_space_group_symop_operation_xyz
x,y,z
-x,-y,z
x,-y,-z
-x,y,-z
-x,-y,-z
x,y,-z
-x,y,z
x,-y,z
1/2+x,1/2+y,1/2+z
1/2-x,1/2-y,1/2+z
1/2+x,1/2-y,1/2-z
1/2-x,1/2+y,1/2-z
1/2-x,1/2-y,1/2-z
1/2+x,1/2+y,1/2-z
1/2-x,1/2+y,1/2+z
1/2+x,1/2-y,1/2+z
loop_
_atom_site_type_symbol
_atom_site_label
_atom_site_fract_x
_atom_site_fract_y
_atom_site_fract_z
Si Si1 0.580557 0.500000 0.684727
Si Si2 0.667699 0.927264 0.701430
Si Si3 0.942397 0.228594 0.799751
Si Si4 0.056431 0.616172 0.202002
Si Si5 0.253981 0.674197 0.695460
Si Si6 0.000000 0.000000 0.500000
Si Si7 0.362147 0.377711 0.188676
O O1 0.556250 0.500000 0.500000
O O2 0.615971 0.435366 0.697769
O O3 0.543968 0.500000 0.847541
O O4 0.667722 0.924703 0.500000
O O5 0.608535 0.918504 0.758527
O O6 0.703460 0.868226 0.762547
O O7 0.686686 0.000000 0.751904
O O8 0.939033 0.305987 0.758758
O O9 0.898030 0.185968 0.718510
O O10 0.000000 0.204984 0.751894
O O11 0.938247 0.223190 0.000000
O O12 0.000000 0.592884 0.260790
O O13 0.055603 0.610900 0.000000
O O14 0.262565 0.673066 0.500000
O O15 0.250000 0.750000 0.750000
O O16 0.303434 0.641082 0.779154
O O17 0.367627 0.399763 0.000000
#
# Coordination Sequence:
#
# PCOD9523309 Si02
#       7
#     8  16  16  16  16   2  16
#     4  12  27  47  71 100 141 191 235 296 360 424
#     4  10  21  37  61  94 130 169 212 265 323 387
#     4   9  18  33  57  88 122 167 217 269 326 389
#     4   8  15  31  56  88 126 164 209 258 314 387
#     4  12  26  45  69  95 126 170 222 283 353 421
#     4  12  26  52  68 106 140 188 250 288 356 434
#     4  12  25  43  64  94 131 171 227 285 342 416
#
# _framework density 21.240722000000002
#
# number of rings (size 3 to 8) (size 9 to 14) (size 15 to 20)
#    0.000    1.600    0.889    5.467    2.489    2.489 
#    0.000    1.778    0.000    1.600    0.000    1.244 
#    0.000    0.000    0.000    0.000    0.000    0.000 
#
# Total GULP energy -251225.897678 kJ/mol
# GULP energy per Si atom -5582.797726 kJ/mol
# Density = 2.119238 g / cm^3
# Si number density = 21.240722 Si / 1000 Ang^3
#
#
#
# Elastic Constant Matrix: (Units=GPa)
#
#
# Indices 1 2 3 4 5 6 
#
# 1 121.4242 44.9831 14.1367 0.0000 0.0000 0.0000
# 2 44.9831 88.6799 13.3372 0.0000 0.0000 0.0000
# 3 14.1367 13.3372 81.7754 0.0000 0.0000 0.0000
# 4 0.0000 0.0000 0.0000 22.2065 0.0000 0.0000
# 5 0.0000 0.0000 0.0000 0.0000 25.0932 0.0000
# 6 0.0000 0.0000 0.0000 0.0000 0.0000 76.4013
#
#
#
# Elastic Compliance Matrix: (Units=1/GPa)
#
#
# Indices 1 2 3 4 5 6 
#
# 1 0.010212 -0.005038 -0.000944 0.000000 0.000000 0.000000
# 2 -0.005038 0.014046 -0.001420 0.000000 0.000000 0.000000
# 3 -0.000944 -0.001420 0.012623 0.000000 0.000000 0.000000
# 4 0.000000 0.000000 0.000000 0.045032 0.000000 0.000000
# 5 0.000000 0.000000 0.000000 0.000000 0.039851 0.000000
# 6 0.000000 0.000000 0.000000 0.000000 0.000000 0.013089
#
#
# Mechanical properties :
#
#
# Convention : Reuss Voigt Hill
#
# Bulk Modulus (GPa) = 45.29461 48.53260 46.91361
# Shear Modulus (GPa) = 31.84402 39.36835 35.60618
#
# Velocity S-wave (km/s) = 3.87615 4.30983 4.09873
# Velocity P-wave (km/s) = 6.43455 6.90395 6.67338
#
# Compressibility (1/GPa) = 0.02207768
#
# Stress axis : x y z
#
# Youngs Moduli (GPa) = 97.92521 71.19651 79.21846
#
# Poissons Ratio (x) = 0.35869 0.07476
# Poissons Ratio (y) = 0.49335 0.11248
# Poissons Ratio (z) = 0.09241 0.10109
#
# Static dielectric constant tensor:
#      x y z
#    x 1.713980 0.000000 0.000000 
#    y 0.000000 1.606530 0.000000 
#    z 0.000000 0.000000 1.772750 
# 
# From -- ./inp_files/12630.got.cif
#   From: 2010.05.17/outbox.cif.g08.bks.cpg/sg71_7_cif.got.tgz:12630.got - 2010.06.03 16:22:01.
