data_PCOD9523813
_publ_section_title
;
Structure prediction by ZEFSAII (Michael W. Deem and Ramdas Pophale) SiO2 
 PCOD9523813
Probable space group: I M M M
;
_chemical_formula_sum "Si O2"
_cell_formula_units_Z 116
_cell_length_a 15.085937
_cell_length_b 14.326193
_cell_length_c 26.238023
_cell_angle_alpha 90.000000
_cell_angle_beta 90.000000
_cell_angle_gamma 90.000000
_cell_volume 5670.667665
_symmetry_space_group_name_H-M "I M M M"
_symmetry_group_IT_number 71
_symmetry_cell_setting 'orthorhombic'
loop_
_space_group_symop_operation_xyz
x,y,z
-x,-y,z
x,-y,-z
-x,y,-z
-x,-y,-z
x,y,-z
-x,y,z
x,-y,z
1/2+x,1/2+y,1/2+z
1/2-x,1/2-y,1/2+z
1/2+x,1/2-y,1/2-z
1/2-x,1/2+y,1/2-z
1/2-x,1/2-y,1/2-z
1/2+x,1/2+y,1/2-z
1/2-x,1/2+y,1/2+z
1/2+x,1/2-y,1/2+z
loop_
_atom_site_type_symbol
_atom_site_label
_atom_site_fract_x
_atom_site_fract_y
_atom_site_fract_z
Si Si1 0.344132 0.887544 0.077106
Si Si2 0.607893 0.713855 0.753272
Si Si3 0.601003 0.387923 0.141840
Si Si4 0.396429 0.395787 0.656486
Si Si5 0.343351 0.706003 0.443267
Si Si6 0.251128 0.608664 0.940813
Si Si7 0.000000 0.662454 0.500000
Si Si8 0.107805 0.394510 0.306238
O O1 0.252947 0.842733 0.058857
O O2 0.357009 0.870539 0.137421
O O3 0.345229 0.000000 0.069480
O O4 0.423080 0.845422 0.044335
O O5 0.500000 0.716706 0.749682
O O6 0.627866 0.655530 0.804234
O O7 0.643293 0.664902 0.702489
O O8 0.637264 0.819000 0.764796
O O9 0.500000 0.357157 0.130150
O O10 0.599802 0.500000 0.146703
O O11 0.669058 0.365336 0.096928
O O12 0.500000 0.406803 0.668885
O O13 0.356693 0.500000 0.652670
O O14 0.392103 0.342351 0.603278
O O15 0.381145 0.692636 0.500000
O O16 0.326553 0.816050 0.434165
O O17 0.226785 0.500000 0.931812
O O18 0.280098 0.616043 0.000000
O O19 0.133935 0.500000 0.293539
O O20 0.000000 0.391856 0.309668
#
# Coordination Sequence:
#
# PCOD9523813 Si02
#       8
#    16  16  16  16  16  16   4  16
#     4  11  20  32  50  80 119 158 197 232 269 322
#     4   9  17  32  54  76 103 138 184 230 278 332
#     4   9  16  28  50  79 109 146 193 236 271 312
#     4  10  22  41  64  87 108 134 171 223 289 352
#     4  11  23  38  57  84 112 144 180 226 281 336
#     4   9  19  36  53  74 110 153 190 225 270 316
#     4  12  21  32  52  80 123 172 205 226 262 326
#     4   9  17  29  47  73 111 155 194 230 268 312
#
# _framework density 20.456144999999999
#
# number of rings (size 3 to 8) (size 9 to 14) (size 15 to 20)
#    0.000    2.207    1.379    2.276    0.000    3.034 
#    1.241    5.517    0.000    4.552    0.000    1.931 
#    0.000    0.000    0.000    0.000    0.000    0.000 
#
# Total GULP energy -323395.145781 kJ/mol
# GULP energy per Si atom -5575.778376 kJ/mol
# Density = 2.040959 g / cm^3
# Si number density = 20.456145 Si / 1000 Ang^3
#
#
#
# Elastic Constant Matrix: (Units=GPa)
#
#
# Indices 1 2 3 4 5 6 
#
# 1 25.1486 7.4443 4.4646 0.0000 0.0000 0.0000
# 2 7.4443 107.2517 94.1675 0.0000 0.0000 0.0000
# 3 4.4646 94.1675 128.9019 0.0000 0.0000 0.0000
# 4 0.0000 0.0000 0.0000 9.8634 0.0000 0.0000
# 5 0.0000 0.0000 0.0000 0.0000 19.7935 0.0000
# 6 0.0000 0.0000 0.0000 0.0000 0.0000 14.0382
#
#
#
# Elastic Compliance Matrix: (Units=1/GPa)
#
#
# Indices 1 2 3 4 5 6 
#
# 1 0.040751 -0.004432 0.001826 0.000000 0.000000 0.000000
# 2 -0.004432 0.026484 -0.019194 0.000000 0.000000 0.000000
# 3 0.001826 -0.019194 0.021716 0.000000 0.000000 0.000000
# 4 0.000000 0.000000 0.000000 0.101385 0.000000 0.000000
# 5 0.000000 0.000000 0.000000 0.000000 0.050522 0.000000
# 6 0.000000 0.000000 0.000000 0.000000 0.000000 0.071234
#
#
# Mechanical properties :
#
#
# Convention : Reuss Voigt Hill
#
# Bulk Modulus (GPa) = 22.04960 52.60614 37.32787
# Shear Modulus (GPa) = 13.48404 19.08741 16.28572
#
# Velocity S-wave (km/s) = 2.57021 3.05796 2.82464
# Velocity P-wave (km/s) = 4.42836 6.18390 5.37824
#
# Compressibility (1/GPa) = 0.04535230
#
# Stress axis : x y z
#
# Youngs Moduli (GPa) = 24.53907 37.75892 46.04813
#
# Poissons Ratio (x) = 0.16735 -0.08410
# Poissons Ratio (y) = 0.10876 0.88384
# Poissons Ratio (z) = -0.04482 0.72474
#
# Static dielectric constant tensor:
#      x y z
#    x 1.746580 0.000000 0.000000 
#    y 0.000000 1.769540 0.000000 
#    z 0.000000 0.000000 1.710210 
# 
# From -- ./inp_files/60787.got.cif
#   From: 2010.05.17/outbox.cif.g08.bks.cpg/sg71_31_cif.got.tgz:60787.got - 2010.06.03 16:22:01.
