data_PCOD9523825
_publ_section_title
;
Structure prediction by ZEFSAII (Michael W. Deem and Ramdas Pophale) SiO2 
 PCOD9523825
Probable space group: I M M M
;
_chemical_formula_sum "Si O2"
_cell_formula_units_Z 64
_cell_length_a 33.714583
_cell_length_b 8.901912
_cell_length_c 10.959831
_cell_angle_alpha 90.000000
_cell_angle_beta 90.000000
_cell_angle_gamma 90.000000
_cell_volume 3289.311070
_symmetry_space_group_name_H-M "I M M M"
_symmetry_group_IT_number 71
_symmetry_cell_setting 'orthorhombic'
loop_
_space_group_symop_operation_xyz
x,y,z
-x,-y,z
x,-y,-z
-x,y,-z
-x,-y,-z
x,y,-z
-x,y,z
x,-y,z
1/2+x,1/2+y,1/2+z
1/2-x,1/2-y,1/2+z
1/2+x,1/2-y,1/2-z
1/2-x,1/2+y,1/2-z
1/2-x,1/2-y,1/2-z
1/2+x,1/2+y,1/2-z
1/2-x,1/2+y,1/2+z
1/2+x,1/2-y,1/2+z
loop_
_atom_site_type_symbol
_atom_site_label
_atom_site_fract_x
_atom_site_fract_y
_atom_site_fract_z
Si Si1 0.788354 0.680172 0.000000
Si Si2 0.805096 0.181261 0.500000
Si Si3 0.424336 0.320740 0.752622
Si Si4 0.334026 0.681550 0.730362
Si Si5 0.000000 0.666126 0.857327
Si Si6 0.047096 0.679287 0.500000
O O1 0.741580 0.716577 0.000000
O O2 0.808087 0.746070 0.877025
O O3 0.792597 0.500000 0.000000
O O4 0.823198 0.231632 0.369337
O O5 0.809905 0.000000 0.500000
O O6 0.427383 0.500000 0.759354
O O7 0.380310 0.283450 0.707176
O O8 0.460462 0.254470 0.676331
O O9 0.431581 0.249643 0.884224
O O10 0.329020 0.500000 0.725733
O O11 0.000000 0.500000 0.796376
O O12 0.000000 0.647731 0.000000
O O13 0.050060 0.500000 0.500000
O O14 0.000000 0.718737 0.500000
#
# Coordination Sequence:
#
# PCOD9523825 Si02
#       6
#     8   8  16  16   8   8
#     4  11  23  38  62  95 126 162 203 247 304 371
#     4   9  19  40  66  91 123 160 204 252 303 366
#     4  11  23  39  63  90 117 156 207 251 293 353
#     4  10  22  41  64  91 124 162 204 255 308 358
#     4  11  25  42  59  82 119 163 199 247 310 357
#     4  11  22  37  59  87 119 154 192 241 308 359
#
# _framework density 19.456962000000001
#
# number of rings (size 3 to 8) (size 9 to 14) (size 15 to 20)
#    0.000    1.500    1.250    3.375    1.750    5.500 
#    0.000    1.875    0.000    0.000    0.000    0.000 
#    0.000    0.000    0.000    0.000    0.000    0.000 
#
# Total GULP energy -178730.767974 kJ/mol
# GULP energy per Si atom -5585.336499 kJ/mol
# Density = 1.941268 g / cm^3
# Si number density = 19.456962 Si / 1000 Ang^3
#
#
#
# Elastic Constant Matrix: (Units=GPa)
#
#
# Indices 1 2 3 4 5 6 
#
# 1 138.2954 53.7829 54.8145 0.0000 0.0000 0.0000
# 2 53.7829 51.2255 23.7275 0.0000 0.0000 0.0000
# 3 54.8145 23.7275 118.6418 0.0000 0.0000 0.0000
# 4 0.0000 0.0000 0.0000 30.3005 0.0000 0.0000
# 5 0.0000 0.0000 0.0000 0.0000 131.5467 0.0000
# 6 0.0000 0.0000 0.0000 0.0000 0.0000 25.6337
#
#
#
# Elastic Compliance Matrix: (Units=1/GPa)
#
#
# Indices 1 2 3 4 5 6 
#
# 1 0.013601 -0.012531 -0.003778 0.000000 0.000000 0.000000
# 2 -0.012531 0.033058 -0.000822 0.000000 0.000000 0.000000
# 3 -0.003778 -0.000822 0.010339 0.000000 0.000000 0.000000
# 4 0.000000 0.000000 0.000000 0.033003 0.000000 0.000000
# 5 0.000000 0.000000 0.000000 0.000000 0.007602 0.000000
# 6 0.000000 0.000000 0.000000 0.000000 0.000000 0.039011
#
#
# Mechanical properties :
#
#
# Convention : Reuss Voigt Hill
#
# Bulk Modulus (GPa) = 43.98097 63.64585 53.81341
# Shear Modulus (GPa) = 28.01828 49.21872 38.61850
#
# Velocity S-wave (km/s) = 3.79887 5.03499 4.45996
# Velocity P-wave (km/s) = 6.47265 8.15988 7.36474
#
# Compressibility (1/GPa) = 0.02273711
#
# Stress axis : x y z
#
# Youngs Moduli (GPa) = 73.52134 30.24945 96.72398
#
# Poissons Ratio (x) = 0.37904 0.36543
# Poissons Ratio (y) = 0.92126 0.07952
# Poissons Ratio (z) = 0.27777 0.02487
#
# Static dielectric constant tensor:
#      x y z
#    x 1.710750 0.000000 0.000000 
#    y 0.000000 1.657550 0.000000 
#    z 0.000000 0.000000 1.752220 
# 
# From -- ./inp_files/29485.got.cif
#   From: 2010.05.17/outbox.cif.g08.bks.cpg/sg71_15_cif.got.tgz:29485.got - 2010.06.03 16:22:01.
