data_PCOD9523233
_publ_section_title
;
Structure prediction by ZEFSAII (Michael W. Deem and Ramdas Pophale) SiO2 
 PCOD9523233
Probable space group: I M M M
;
_chemical_formula_sum "Si O2"
_cell_formula_units_Z 72
_cell_length_a 27.442009
_cell_length_b 15.046032
_cell_length_c 8.682074
_cell_angle_alpha 90.000000
_cell_angle_beta 90.000000
_cell_angle_gamma 90.000000
_cell_volume 3584.770580
_symmetry_space_group_name_H-M "I M M M"
_symmetry_group_IT_number 71
_symmetry_cell_setting 'orthorhombic'
loop_
_space_group_symop_operation_xyz
x,y,z
-x,-y,z
x,-y,-z
-x,y,-z
-x,-y,-z
x,y,-z
-x,y,z
x,-y,z
1/2+x,1/2+y,1/2+z
1/2-x,1/2-y,1/2+z
1/2+x,1/2-y,1/2-z
1/2-x,1/2+y,1/2-z
1/2-x,1/2-y,1/2-z
1/2+x,1/2+y,1/2-z
1/2-x,1/2+y,1/2+z
1/2+x,1/2-y,1/2+z
loop_
_atom_site_type_symbol
_atom_site_label
_atom_site_fract_x
_atom_site_fract_y
_atom_site_fract_z
Si Si1 0.000000 0.896032 0.314948
Si Si2 0.625691 0.101568 0.815444
Si Si3 0.675894 0.596004 0.680834
Si Si4 0.770165 0.342054 0.818895
Si Si5 0.087842 0.221749 0.815568
O O1 0.953699 0.840539 0.254663
O O2 0.000000 0.895870 0.500000
O O3 0.000000 0.000000 0.264023
O O4 0.680539 0.124167 0.759751
O O5 0.590955 0.178017 0.746889
O O6 0.613943 0.000000 0.768800
O O7 0.624175 0.106613 0.000000
O O8 0.689282 0.606547 0.500000
O O9 0.650662 0.500000 0.695876
O O10 0.724293 0.596239 0.781133
O O11 0.639268 0.674315 0.723137
O O12 0.750000 0.250000 0.750000
O O13 0.779167 0.333480 0.000000
O O14 0.083032 0.222734 0.000000
#
# Coordination Sequence:
#
# PCOD9523233 Si02
#       5
#     8  16  16  16  16
#     4  11  25  45  70  99 132 167 203 250 312 379
#     4  11  24  42  64  91 127 170 213 260 315 374
#     4  10  21  37  58  87 123 162 203 252 311 370
#     4  12  23  36  57  86 123 168 215 260 309 364
#     4  11  23  41  67  95 125 163 208 260 314 373
#
# _framework density 20.084966999999999
#
# number of rings (size 3 to 8) (size 9 to 14) (size 15 to 20)
#    0.000    1.000    2.222    5.000    0.000    7.556 
#    0.000    0.556    0.000    3.333    0.000    0.000 
#    0.000    0.000    0.000    0.000    0.000    0.000 
#
# Total GULP energy -201199.445099 kJ/mol
# GULP energy per Si atom -5588.873475 kJ/mol
# Density = 2.003925 g / cm^3
# Si number density = 20.084967 Si / 1000 Ang^3
#
#
#
# Elastic Constant Matrix: (Units=GPa)
#
#
# Indices 1 2 3 4 5 6 
#
# 1 84.0062 56.4743 33.3940 0.0000 0.0000 0.0000
# 2 56.4743 199.7619 51.8550 0.0000 0.0000 0.0000
# 3 33.3940 51.8550 62.9823 0.0000 0.0000 0.0000
# 4 0.0000 0.0000 0.0000 26.3101 0.0000 0.0000
# 5 0.0000 0.0000 0.0000 0.0000 31.7714 0.0000
# 6 0.0000 0.0000 0.0000 0.0000 0.0000 29.3942
#
#
#
# Elastic Compliance Matrix: (Units=1/GPa)
#
#
# Indices 1 2 3 4 5 6 
#
# 1 0.016406 -0.003027 -0.006206 0.000000 0.000000 0.000000
# 2 -0.003027 0.006925 -0.004097 0.000000 0.000000 0.000000
# 3 -0.006206 -0.004097 0.022541 0.000000 0.000000 0.000000
# 4 0.000000 0.000000 0.000000 0.038008 0.000000 0.000000
# 5 0.000000 0.000000 0.000000 0.000000 0.031475 0.000000
# 6 0.000000 0.000000 0.000000 0.000000 0.000000 0.034020
#
#
# Mechanical properties :
#
#
# Convention : Reuss Voigt Hill
#
# Bulk Modulus (GPa) = 52.05089 70.02190 61.03640
# Shear Modulus (GPa) = 27.40625 31.16361 29.28493
#
# Velocity S-wave (km/s) = 3.69794 3.94329 3.82259
# Velocity P-wave (km/s) = 6.64866 7.46132 7.06668
#
# Compressibility (1/GPa) = 0.01921197
#
# Stress axis : x y z
#
# Youngs Moduli (GPa) = 60.95322 144.40098 44.36332
#
# Poissons Ratio (x) = 0.43710 0.27534
# Poissons Ratio (y) = 0.18451 0.18174
# Poissons Ratio (z) = 0.37830 0.59157
#
# Static dielectric constant tensor:
#      x y z
#    x 1.697850 0.000000 0.000000 
#    y 0.000000 1.802810 0.000000 
#    z 0.000000 0.000000 1.676230 
# 
# From -- ./inp_files/6025.got.cif
#   From: 2010.05.17/outbox.cif.g08.bks.cpg/sg71_4_cif.got.tgz:6025.got - 2010.06.03 16:22:01.
