data_PCOD9523784
_publ_section_title
;
Structure prediction by ZEFSAII (Michael W. Deem and Ramdas Pophale) SiO2 
 PCOD9523784
Probable space group: I M M M
;
_chemical_formula_sum "Si O2"
_cell_formula_units_Z 68
_cell_length_a 20.301308
_cell_length_b 19.972077
_cell_length_c 7.711055
_cell_angle_alpha 90.000000
_cell_angle_beta 90.000000
_cell_angle_gamma 90.000000
_cell_volume 3126.518859
_symmetry_space_group_name_H-M "I M M M"
_symmetry_group_IT_number 71
_symmetry_cell_setting 'orthorhombic'
loop_
_space_group_symop_operation_xyz
x,y,z
-x,-y,z
x,-y,-z
-x,y,-z
-x,-y,-z
x,y,-z
-x,y,z
x,-y,z
1/2+x,1/2+y,1/2+z
1/2-x,1/2-y,1/2+z
1/2+x,1/2-y,1/2-z
1/2-x,1/2+y,1/2-z
1/2-x,1/2-y,1/2-z
1/2+x,1/2+y,1/2-z
1/2-x,1/2+y,1/2+z
1/2+x,1/2-y,1/2+z
loop_
_atom_site_type_symbol
_atom_site_label
_atom_site_fract_x
_atom_site_fract_y
_atom_site_fract_z
Si Si1 0.500000 0.115681 0.301494
Si Si2 0.000000 0.500000 0.500000
Si Si3 0.744297 0.074821 0.202999
Si Si4 0.000000 0.861147 0.191005
Si Si5 0.862564 0.319343 0.287983
Si Si6 0.644620 0.671013 0.199972
Si Si7 0.500000 0.500000 0.500000
O O1 0.500000 0.090058 0.500000
O O2 0.434846 0.160220 0.273146
O O3 0.500000 0.058495 0.153891
O O4 0.688980 0.124702 0.274324
O O5 0.814133 0.111999 0.213233
O O6 0.745340 0.000000 0.278227
O O7 0.728080 0.068135 0.000000
O O8 0.933042 0.841356 0.284038
O O9 0.000000 0.940112 0.147939
O O10 0.000000 0.827445 0.000000
O O11 0.863176 0.317860 0.500000
O O12 0.841952 0.245219 0.228565
O O13 0.664530 0.669848 0.000000
#
# Coordination Sequence:
#
# PCOD9523784 Si02
#       7
#     8   2  16   8  16  16   2
#     4  12  26  42  74 105 132 182 229 269 339 402
#     4  12  26  48  68  96 160 168 212 290 340 386
#     4  10  23  40  64  89 124 176 221 263 335 399
#     4  10  22  40  64  86 120 161 212 260 313 401
#     4  10  22  43  66  93 133 176 216 277 335 392
#     4  11  23  39  63  95 130 168 212 272 339 388
#     4   8  24  40  62  86 124 160 212 258 328 372
#
# _framework density 21.749428999999999
#
# number of rings (size 3 to 8) (size 9 to 14) (size 15 to 20)
#    0.353    1.176    1.176    2.647    3.294    6.118 
#    0.000    0.588    0.000    0.000    0.000    0.000 
#    0.000    0.000    0.000    0.000    0.000    0.000 
#
# Total GULP energy -189409.668186 kJ/mol
# GULP energy per Si atom -5570.872594 kJ/mol
# Density = 2.169993 g / cm^3
# Si number density = 21.749429 Si / 1000 Ang^3
#
#
#
# Elastic Constant Matrix: (Units=GPa)
#
#
# Indices 1 2 3 4 5 6 
#
# 1 109.7477 49.1715 -19.2423 0.0000 0.0000 0.0000
# 2 49.1715 188.8466 15.7333 0.0000 0.0000 0.0000
# 3 -19.2423 15.7333 76.9734 0.0000 0.0000 0.0000
# 4 0.0000 0.0000 0.0000 17.7990 0.0000 0.0000
# 5 0.0000 0.0000 0.0000 0.0000 -48.6358 0.0000
# 6 0.0000 0.0000 0.0000 0.0000 0.0000 5.7165
#
#
#
# Elastic Compliance Matrix: (Units=1/GPa)
#
#
# Indices 1 2 3 4 5 6 
#
# 1 0.011143 -0.003188 0.003437 0.000000 0.000000 0.000000
# 2 -0.003188 0.006299 -0.002084 0.000000 0.000000 0.000000
# 3 0.003437 -0.002084 0.014277 0.000000 0.000000 0.000000
# 4 0.000000 0.000000 0.000000 0.056183 0.000000 0.000000
# 5 0.000000 0.000000 0.000000 0.000000 -0.020561 0.000000
# 6 0.000000 0.000000 0.000000 0.000000 0.000000 0.174933
#
#
# Mechanical properties :
#
#
# Convention : Reuss Voigt Hill
#
# Bulk Modulus (GPa) = 35.65261 51.87697 43.76479
# Shear Modulus (GPa) = 19.58541 16.96962 18.27751
#
# Velocity S-wave (km/s) = 3.00409 2.79630 2.90205
# Velocity P-wave (km/s) = 5.33486 5.85914 5.60314
#
# Compressibility (1/GPa) = 0.02804844
#
# Stress axis : x y z
#
# Youngs Moduli (GPa) = 89.74539 158.75661 70.04386
#
# Poissons Ratio (x) = 0.50606 -0.24075
# Poissons Ratio (y) = 0.28608 0.14600
# Poissons Ratio (z) = -0.30846 0.33091
#
# Static dielectric constant tensor:
#      x y z
#    x 1.760610 0.000000 0.000000 
#    y 0.000000 1.795120 0.000000 
#    z 0.000000 0.000000 1.824270 
# 
# From -- ./inp_files/9696.got.cif
#   From: 2010.05.17/outbox.cif.g08.bks.cpg/sg71_5_cif.got.tgz:9696.got - 2010.06.03 16:22:01.
