data_PCOD9523594
_publ_section_title
;
Structure prediction by ZEFSAII (Michael W. Deem and Ramdas Pophale) SiO2 
 PCOD9523594
Probable space group: I M M M
;
_chemical_formula_sum "Si O2"
_cell_formula_units_Z 88
_cell_length_a 28.614128
_cell_length_b 16.776124
_cell_length_c 10.197819
_cell_angle_alpha 90.000000
_cell_angle_beta 90.000000
_cell_angle_gamma 90.000000
_cell_volume 4895.301472
_symmetry_space_group_name_H-M "I M M M"
_symmetry_group_IT_number 71
_symmetry_cell_setting 'orthorhombic'
loop_
_space_group_symop_operation_xyz
x,y,z
-x,-y,z
x,-y,-z
-x,y,-z
-x,-y,-z
x,y,-z
-x,y,z
x,-y,z
1/2+x,1/2+y,1/2+z
1/2-x,1/2-y,1/2+z
1/2+x,1/2-y,1/2-z
1/2-x,1/2+y,1/2-z
1/2-x,1/2-y,1/2-z
1/2+x,1/2+y,1/2-z
1/2-x,1/2+y,1/2+z
1/2+x,1/2-y,1/2+z
loop_
_atom_site_type_symbol
_atom_site_label
_atom_site_fract_x
_atom_site_fract_y
_atom_site_fract_z
Si Si1 0.807731 0.093922 0.852222
Si Si2 0.945950 0.303262 0.744772
Si Si3 0.139474 0.788134 0.654322
Si Si4 0.556335 0.912094 0.000000
Si Si5 0.074373 0.593188 0.000000
Si Si6 0.782269 0.327328 0.269074
Si Si7 0.686689 0.091746 0.500000
O O1 0.833988 0.144191 0.739346
O O2 0.752170 0.111520 0.840841
O O3 0.816212 0.000000 0.837084
O O4 0.822407 0.119018 0.000000
O O5 0.909111 0.232126 0.727540
O O6 0.932020 0.362594 0.627603
O O7 0.941697 0.356141 0.874888
O O8 0.000000 0.278231 0.728644
O O9 0.133490 0.808179 0.500000
O O10 0.171779 0.708404 0.663027
O O11 0.500000 0.918867 0.000000
O O12 0.576980 0.000000 0.000000
O O13 0.130584 0.592119 0.000000
O O14 0.058719 0.500000 0.000000
O O15 0.750000 0.250000 0.250000
O O16 0.795852 0.363786 0.129335
O O17 0.702874 0.000000 0.500000
#
# Coordination Sequence:
#
# PCOD9523594 Si02
#       7
#    16  16  16   8   8  16   8
#     4  10  23  41  63  88 118 153 192 242 296 352
#     4  11  22  37  58  84 117 155 198 243 289 346
#     4  11  23  38  61  89 119 154 195 242 292 353
#     4   9  18  34  53  74 109 152 190 233 282 334
#     4  11  23  38  57  83 117 158 200 246 296 345
#     4  10  22  35  60  83 115 155 193 242 289 352
#     4  11  22  37  55  84 123 160 199 248 301 350
#
# _framework density 17.976420000000001
#
# number of rings (size 3 to 8) (size 9 to 14) (size 15 to 20)
#    0.000    1.545    2.727    1.909   11.455    1.818 
#    0.000    0.000    0.000    0.545    0.000    2.545 
#    0.000    0.000    0.000    0.000    0.000    0.000 
#
# Total GULP energy -245428.869923 kJ/mol
# GULP energy per Si atom -5577.928862 kJ/mol
# Density = 1.793550 g / cm^3
# Si number density = 17.976420 Si / 1000 Ang^3
#
#
#
# Elastic Constant Matrix: (Units=GPa)
#
#
# Indices 1 2 3 4 5 6 
#
# 1 102.9197 34.1985 28.2264 0.0000 0.0000 0.0000
# 2 34.1985 70.2557 41.8893 0.0000 0.0000 0.0000
# 3 28.2264 41.8893 136.9556 0.0000 0.0000 0.0000
# 4 0.0000 0.0000 0.0000 20.5514 0.0000 0.0000
# 5 0.0000 0.0000 0.0000 0.0000 28.0704 0.0000
# 6 0.0000 0.0000 0.0000 0.0000 0.0000 21.2888
#
#
#
# Elastic Compliance Matrix: (Units=1/GPa)
#
#
# Indices 1 2 3 4 5 6 
#
# 1 0.011665 -0.005192 -0.000816 0.000000 0.000000 0.000000
# 2 -0.005192 0.019719 -0.004961 0.000000 0.000000 0.000000
# 3 -0.000816 -0.004961 0.008987 0.000000 0.000000 0.000000
# 4 0.000000 0.000000 0.000000 0.048658 0.000000 0.000000
# 5 0.000000 0.000000 0.000000 0.000000 0.035625 0.000000
# 6 0.000000 0.000000 0.000000 0.000000 0.000000 0.046973
#
#
# Mechanical properties :
#
#
# Convention : Reuss Voigt Hill
#
# Bulk Modulus (GPa) = 54.24988 57.63993 55.94491
# Shear Modulus (GPa) = 25.03622 27.70324 26.36973
#
# Velocity S-wave (km/s) = 3.73597 3.92993 3.83418
# Velocity P-wave (km/s) = 6.98955 7.26128 7.12671
#
# Compressibility (1/GPa) = 0.01843322
#
# Stress axis : x y z
#
# Youngs Moduli (GPa) = 85.72454 50.71258 111.26781
#
# Poissons Ratio (x) = 0.26328 0.09083
# Poissons Ratio (y) = 0.44505 0.55203
# Poissons Ratio (z) = 0.06998 0.25160
#
# Static dielectric constant tensor:
#      x y z
#    x 1.636440 0.000000 0.000000 
#    y 0.000000 1.613150 0.000000 
#    z 0.000000 0.000000 1.625460 
# 
# From -- ./inp_files/16747.got.cif
#   From: 2010.05.17/outbox.cif.g08.bks.cpg/sg71_9_cif.got.tgz:16747.got - 2010.06.03 16:22:01.
