data_PCOD9523045
_publ_section_title
;
Structure prediction by ZEFSAII (Michael W. Deem and Ramdas Pophale) SiO2 
 PCOD9523045
Probable space group: I M M M
;
_chemical_formula_sum "Si O2"
_cell_formula_units_Z 80
_cell_length_a 15.017606
_cell_length_b 28.911184
_cell_length_c 9.527865
_cell_angle_alpha 90.000000
_cell_angle_beta 90.000000
_cell_angle_gamma 90.000000
_cell_volume 4136.777654
_symmetry_space_group_name_H-M "I M M M"
_symmetry_group_IT_number 71
_symmetry_cell_setting 'orthorhombic'
loop_
_space_group_symop_operation_xyz
x,y,z
-x,-y,z
x,-y,-z
-x,y,-z
-x,-y,-z
x,y,-z
-x,y,z
x,-y,z
1/2+x,1/2+y,1/2+z
1/2-x,1/2-y,1/2+z
1/2+x,1/2-y,1/2-z
1/2-x,1/2+y,1/2-z
1/2-x,1/2-y,1/2-z
1/2+x,1/2+y,1/2-z
1/2-x,1/2+y,1/2+z
1/2+x,1/2-y,1/2+z
loop_
_atom_site_type_symbol
_atom_site_label
_atom_site_fract_x
_atom_site_fract_y
_atom_site_fract_z
Si Si1 0.761003 0.447881 0.166882
Si Si2 0.101897 0.178346 0.349959
Si Si3 0.672072 0.775387 0.163973
Si Si4 0.393141 0.596029 0.664107
Si Si5 0.605148 0.864422 0.332650
O O1 0.792223 0.500000 0.197606
O O2 0.669302 0.437896 0.248032
O O3 0.834698 0.409128 0.201736
O O4 0.744392 0.444633 0.000000
O O5 0.148438 0.167944 0.500000
O O6 0.102353 0.233113 0.332899
O O7 0.134785 0.146957 0.223059
O O8 0.000000 0.163932 0.362243
O O9 0.750000 0.750000 0.250000
O O10 0.638942 0.820714 0.243243
O O11 0.693724 0.784444 0.000000
O O12 0.374088 0.592902 0.500000
O O13 0.500000 0.588318 0.681026
O O14 0.615014 0.854934 0.500000
O O15 0.500000 0.872237 0.306159
#
# Coordination Sequence:
#
# PCOD9523045 Si02
#       5
#    16  16  16  16  16
#     4  10  22  40  61  84 110 145 192 243 295 352
#     4   9  18  33  52  74 104 143 182 217 258 317
#     4  11  22  35  54  82 116 152 190 232 280 336
#     4  10  21  36  56  85 119 152 187 232 288 348
#     4  10  22  40  61  86 117 153 195 245 298 349
#
# _framework density 19.338723999999999
#
# number of rings (size 3 to 8) (size 9 to 14) (size 15 to 20)
#    0.000    2.000    0.000    3.000    0.000   10.800 
#    0.000    6.000    0.000    0.000    0.000    2.800 
#    0.000    0.000    0.000    0.000    0.000    0.000 
#
# Total GULP energy -222971.002777 kJ/mol
# GULP energy per Si atom -5574.275069 kJ/mol
# Density = 1.929471 g / cm^3
# Si number density = 19.338724 Si / 1000 Ang^3
#
#
#
# Elastic Constant Matrix: (Units=GPa)
#
#
# Indices 1 2 3 4 5 6 
#
# 1 93.2747 50.0147 62.5478 0.0007 0.0000 0.0000
# 2 50.0147 131.7525 60.8370 0.0018 -0.0003 -0.0003
# 3 62.5478 60.8370 84.2696 0.0044 -0.0005 -0.0008
# 4 0.0007 0.0018 0.0044 27.6746 -0.0003 -0.0004
# 5 0.0000 -0.0003 -0.0005 -0.0003 21.0881 -0.0001
# 6 0.0000 -0.0003 -0.0008 -0.0004 -0.0001 24.3386
#
#
#
# Elastic Compliance Matrix: (Units=1/GPa)
#
#
# Indices 1 2 3 4 5 6 
#
# 1 0.021468 -0.001188 -0.015077 0.000002 0.000000 0.000000
# 2 -0.001188 0.011451 -0.007385 0.000000 0.000000 0.000000
# 3 -0.015077 -0.007385 0.028389 -0.000004 0.000001 0.000001
# 4 0.000002 0.000000 -0.000004 0.036134 0.000001 0.000001
# 5 0.000000 0.000000 0.000001 0.000001 0.047420 0.000000
# 6 0.000000 0.000000 0.000001 0.000001 0.000000 0.041087
#
#
# Mechanical properties :
#
#
# Convention : Reuss Voigt Hill
#
# Bulk Modulus (GPa) = 71.38663 72.89954 72.14309
# Shear Modulus (GPa) = 21.01556 23.68007 22.34781
#
# Velocity S-wave (km/s) = 3.30010 3.50307 3.40310
# Velocity P-wave (km/s) = 7.17739 7.35799 7.26825
#
# Compressibility (1/GPa) = 0.01400823
#
# Stress axis : x y z
#
# Youngs Moduli (GPa) = 46.58062 87.32829 35.22489
#
# Poissons Ratio (x) = 0.10372 0.53108
# Poissons Ratio (y) = 0.05533 0.26015
# Poissons Ratio (z) = 0.70229 0.64495
#
# Static dielectric constant tensor:
#      x y z
#    x -17.947900 0.000000 -0.000040 
#    y 0.000000 1.680580 0.000000 
#    z -0.000040 0.000000 1.692270 
# 
# From -- ./inp_files/8330.got.cif
#   From: 2010.05.17/outbox.cif.g08.bks.cpg/sg71_5_cif.got.tgz:8330.got - 2010.06.03 16:22:01.
