data_PCOD9523827
_publ_section_title
;
Structure prediction by ZEFSAII (Michael W. Deem and Ramdas Pophale) SiO2 
 PCOD9523827
Probable space group: I M M M
;
_chemical_formula_sum "Si O2"
_cell_formula_units_Z 50
_cell_length_a 30.215999
_cell_length_b 10.409286
_cell_length_c 7.694233
_cell_angle_alpha 90.000000
_cell_angle_beta 90.000000
_cell_angle_gamma 90.000000
_cell_volume 2420.043833
_symmetry_space_group_name_H-M "I M M M"
_symmetry_group_IT_number 71
_symmetry_cell_setting 'orthorhombic'
loop_
_space_group_symop_operation_xyz
x,y,z
-x,-y,z
x,-y,-z
-x,y,-z
-x,-y,-z
x,y,-z
-x,y,z
x,-y,z
1/2+x,1/2+y,1/2+z
1/2-x,1/2-y,1/2+z
1/2+x,1/2-y,1/2-z
1/2-x,1/2+y,1/2-z
1/2-x,1/2-y,1/2-z
1/2+x,1/2+y,1/2-z
1/2-x,1/2+y,1/2+z
1/2+x,1/2-y,1/2+z
loop_
_atom_site_type_symbol
_atom_site_label
_atom_site_fract_x
_atom_site_fract_y
_atom_site_fract_z
Si Si1 0.882053 0.724749 0.207073
Si Si2 0.050022 0.500000 0.294178
Si Si3 0.000000 0.000000 0.500000
Si Si4 0.214145 0.642501 0.209201
Si Si5 0.421140 0.500000 0.712530
O O1 0.921392 0.625645 0.248887
O O2 0.834732 0.678693 0.277951
O O3 0.894240 0.870049 0.252849
O O4 0.878010 0.722008 0.000000
O O5 0.045673 0.500000 0.500000
O O6 0.000000 0.500000 0.219429
O O7 0.037977 0.000000 0.344280
O O8 0.226641 0.500000 0.272215
O O9 0.250000 0.750000 0.250000
O O10 0.211291 0.636544 0.000000
O O11 0.431221 0.500000 0.500000
#
# Coordination Sequence:
#
# PCOD9523827 Si02
#       5
#    16   8   2  16   8
#     4  10  22  44  65  89 128 172 217 265 322 394
#     4  11  25  39  62  95 129 163 214 269 326 384
#     4  12  26  44  68  96 144 172 222 282 332 378
#     4  10  22  41  64  93 127 166 212 264 324 391
#     4  10  25  43  68  97 129 179 223 268 334 395
#
# _framework density 20.660782000000001
#
# number of rings (size 3 to 8) (size 9 to 14) (size 15 to 20)
#    0.000    1.760    1.600    0.720    6.720    3.200 
#    0.000    0.000    0.000    0.000    0.000    0.000 
#    0.000    0.000    0.000    0.000    0.000    0.000 
#
# Total GULP energy -139295.171182 kJ/mol
# GULP energy per Si atom -5571.806847 kJ/mol
# Density = 2.061376 g / cm^3
# Si number density = 20.660782 Si / 1000 Ang^3
#
#
#
# Elastic Constant Matrix: (Units=GPa)
#
#
# Indices 1 2 3 4 5 6 
#
# 1 183.1909 121.3130 13.3653 0.0000 0.0000 0.0000
# 2 121.3130 230.7729 23.0846 0.0000 0.0000 0.0000
# 3 13.3653 23.0846 42.7920 0.0001 0.0000 0.0000
# 4 0.0000 0.0000 0.0001 29.5369 0.0000 0.0000
# 5 0.0000 0.0000 0.0000 0.0000 25.2469 0.0000
# 6 0.0000 0.0000 0.0000 0.0000 0.0000 -30.5391
#
#
#
# Elastic Compliance Matrix: (Units=1/GPa)
#
#
# Indices 1 2 3 4 5 6 
#
# 1 0.008377 -0.004378 -0.000255 0.000000 0.000000 0.000000
# 2 -0.004378 0.006869 -0.002338 0.000000 0.000000 0.000000
# 3 -0.000255 -0.002338 0.024710 0.000000 0.000000 0.000000
# 4 0.000000 0.000000 0.000000 0.033856 0.000000 0.000000
# 5 0.000000 0.000000 0.000000 0.000000 0.039609 0.000000
# 6 0.000000 0.000000 0.000000 0.000000 0.000000 -0.032745
#
#
# Mechanical properties :
#
#
# Convention : Reuss Voigt Hill
#
# Bulk Modulus (GPa) = 38.44105 85.80906 62.12506
# Shear Modulus (GPa) = 48.40896 24.78178 36.59537
#
# Velocity S-wave (km/s) = 4.84574 3.46708 4.21319
# Velocity P-wave (km/s) = 7.06785 7.59276 7.33500
#
# Compressibility (1/GPa) = 0.02601386
#
# Stress axis : x y z
#
# Youngs Moduli (GPa) = 119.38148 145.59175 40.47010
#
# Poissons Ratio (x) = 0.63739 0.01030
# Poissons Ratio (y) = 0.52264 0.09462
# Poissons Ratio (z) = 0.03039 0.34038
#
# Static dielectric constant tensor:
#      x y z
#    x 1.737080 0.000000 0.000000 
#    y 0.000000 1.709400 0.000000 
#    z 0.000000 0.000000 1.766850 
# 
# From -- ./inp_files/16003.got.cif
#   From: 2010.05.17/outbox.cif.g08.bks.cpg/sg71_9_cif.got.tgz:16003.got - 2010.06.03 16:22:01.
