data_PCOD9523203
_publ_section_title
;
Structure prediction by ZEFSAII (Michael W. Deem and Ramdas Pophale) SiO2 
 PCOD9523203
Probable space group: I M M M
;
_chemical_formula_sum "Si O2"
_cell_formula_units_Z 64
_cell_length_a 13.312609
_cell_length_b 27.862080
_cell_length_c 8.006305
_cell_angle_alpha 90.000000
_cell_angle_beta 90.000000
_cell_angle_gamma 90.000000
_cell_volume 2969.674447
_symmetry_space_group_name_H-M "I M M M"
_symmetry_group_IT_number 71
_symmetry_cell_setting 'orthorhombic'
loop_
_space_group_symop_operation_xyz
x,y,z
-x,-y,z
x,-y,-z
-x,y,-z
-x,-y,-z
x,y,-z
-x,y,z
x,-y,z
1/2+x,1/2+y,1/2+z
1/2-x,1/2-y,1/2+z
1/2+x,1/2-y,1/2-z
1/2-x,1/2+y,1/2-z
1/2-x,1/2-y,1/2-z
1/2+x,1/2+y,1/2-z
1/2-x,1/2+y,1/2+z
1/2+x,1/2-y,1/2+z
loop_
_atom_site_type_symbol
_atom_site_label
_atom_site_fract_x
_atom_site_fract_y
_atom_site_fract_z
Si Si1 0.880665 0.845242 0.817742
Si Si2 0.883205 0.393666 0.807729
Si Si3 0.622022 0.175340 0.000000
Si Si4 0.376983 0.285458 0.000000
Si Si5 0.185699 0.947076 0.302619
O O1 0.841731 0.814039 0.663643
O O2 0.864046 0.901569 0.784374
O O3 0.000000 0.837001 0.821849
O O4 0.839720 0.832278 0.000000
O O5 0.854548 0.354635 0.667935
O O6 0.805171 0.437162 0.788920
O O7 0.000000 0.406875 0.783566
O O8 0.872900 0.376080 0.000000
O O9 0.655336 0.230403 0.000000
O O10 0.500000 0.177936 0.000000
O O11 0.500000 0.286739 0.000000
O O12 0.160135 0.944842 0.500000
O O13 0.159381 0.000000 0.239881
#
# Coordination Sequence:
#
# PCOD9523203 Si02
#       5
#    16  16   8   8  16
#     4  10  21  37  58  82 112 148 186 230 279 333
#     4   9  19  36  57  82 115 148 184 230 274 329
#     4   9  18  34  59  85 110 147 187 227 281 331
#     4   9  18  36  59  83 112 145 185 233 279 329
#     4  10  21  37  59  83 112 150 188 231 283 333
#
# _framework density 21.551183000000002
#
# number of rings (size 3 to 8) (size 9 to 14) (size 15 to 20)
#    0.000    2.500    1.250    0.000    1.750    2.500 
#    0.000   11.250    0.000    2.250    0.000    0.000 
#    0.000    0.000    0.000    0.000    0.000    0.000 
#
# Total GULP energy -178705.458424 kJ/mol
# GULP energy per Si atom -5584.545576 kJ/mol
# Density = 2.150213 g / cm^3
# Si number density = 21.551183 Si / 1000 Ang^3
#
#
#
# Elastic Constant Matrix: (Units=GPa)
#
#
# Indices 1 2 3 4 5 6 
#
# 1 24.4376 -22.6708 4.4614 -0.0005 0.0001 -0.0001
# 2 -22.6708 114.1085 59.7154 0.0009 0.0001 -0.0002
# 3 4.4614 59.7154 123.4386 -0.0021 0.0019 0.0007
# 4 -0.0005 0.0009 -0.0021 0.6234 0.0006 0.0001
# 5 0.0001 0.0001 0.0019 0.0006 30.4396 -0.0004
# 6 -0.0001 -0.0002 0.0007 0.0001 -0.0004 20.9474
#
#
#
# Elastic Compliance Matrix: (Units=1/GPa)
#
#
# Indices 1 2 3 4 5 6 
#
# 1 0.058677 0.017096 -0.010391 -0.000008 0.000000 0.000001
# 2 0.017096 0.016715 -0.008704 -0.000038 0.000000 0.000001
# 3 -0.010391 -0.008704 0.012688 0.000046 -0.000001 -0.000001
# 4 -0.000008 -0.000038 0.000046 1.604042 -0.000031 -0.000010
# 5 0.000000 0.000000 -0.000001 -0.000031 0.032852 0.000001
# 6 0.000001 0.000001 -0.000001 -0.000010 0.000001 0.047739
#
#
# Mechanical properties :
#
#
# Convention : Reuss Voigt Hill
#
# Bulk Modulus (GPa) = 11.89328 38.33297 25.11313
# Shear Modulus (GPa) = 2.77048 25.10068 13.93558
#
# Velocity S-wave (km/s) = 1.13505 3.41647 2.54565
# Velocity P-wave (km/s) = 2.69228 5.77829 4.50760
#
# Compressibility (1/GPa) = 0.08408108
#
# Stress axis : x y z
#
# Youngs Moduli (GPa) = 17.04236 59.82580 78.81763
#
# Poissons Ratio (x) = -1.02277 0.81900
# Poissons Ratio (y) = -0.29135 0.68604
# Poissons Ratio (z) = 0.17709 0.52073
#
# Static dielectric constant tensor:
#      x y z
#    x 1.832790 0.000000 0.000000 
#    y 0.000000 1.711650 0.000000 
#    z 0.000000 0.000000 1.795390 
# 
# From -- ./inp_files/5534.got.cif
#   From: 2010.05.17/outbox.cif.g08.bks.cpg/sg71_3_cif.got.tgz:5534.got - 2010.06.03 16:22:01.
