data_PCOD9523898
_publ_section_title
;
Structure prediction by ZEFSAII (Michael W. Deem and Ramdas Pophale) SiO2 
 PCOD9523898
Probable space group: I M M M
;
_chemical_formula_sum "Si O2"
_cell_formula_units_Z 72
_cell_length_a 29.065137
_cell_length_b 12.161813
_cell_length_c 10.918752
_cell_angle_alpha 90.000000
_cell_angle_beta 90.000000
_cell_angle_gamma 90.000000
_cell_volume 3859.612441
_symmetry_space_group_name_H-M "I M M M"
_symmetry_group_IT_number 71
_symmetry_cell_setting 'orthorhombic'
loop_
_space_group_symop_operation_xyz
x,y,z
-x,-y,z
x,-y,-z
-x,y,-z
-x,-y,-z
x,y,-z
-x,y,z
x,-y,z
1/2+x,1/2+y,1/2+z
1/2-x,1/2-y,1/2+z
1/2+x,1/2-y,1/2-z
1/2-x,1/2+y,1/2-z
1/2-x,1/2-y,1/2-z
1/2+x,1/2+y,1/2-z
1/2-x,1/2+y,1/2+z
1/2+x,1/2-y,1/2+z
loop_
_atom_site_type_symbol
_atom_site_label
_atom_site_fract_x
_atom_site_fract_y
_atom_site_fract_z
Si Si1 0.943929 0.867886 0.000000
Si Si2 0.818761 0.758065 0.359317
Si Si3 0.729969 0.627862 0.367548
Si Si4 0.917809 0.261428 0.240466
Si Si5 0.500000 0.374449 0.144069
Si Si6 0.944816 0.500000 0.141616
O O1 0.920058 0.810483 0.883941
O O2 0.000000 0.844246 0.000000
O O3 0.938754 0.000000 0.000000
O O4 0.818937 0.800762 0.500000
O O5 0.784342 0.653890 0.359407
O O6 0.795051 0.830982 0.254001
O O7 0.870024 0.738634 0.312618
O O8 0.714564 0.677969 0.500000
O O9 0.721947 0.500000 0.373779
O O10 0.956330 0.197749 0.318045
O O11 0.929709 0.387112 0.206313
O O12 0.500000 0.500000 0.199057
O O13 0.500000 0.387064 0.000000
O O14 0.000000 0.500000 0.139403
O O15 0.928463 0.500000 0.000000
#
# Coordination Sequence:
#
# PCOD9523898 Si02
#       6
#     8  16  16  16   8   8
#     4  11  22  39  63  91 125 166 214 264 312 371
#     4  10  23  41  63  92 127 161 204 260 316 378
#     4   9  20  41  66  90 121 161 205 256 315 379
#     4  12  23  40  63  94 127 166 212 258 322 379
#     4  11  24  42  61  86 126 170 212 263 322 385
#     4  11  22  40  62  92 132 172 209 269 313 370
#
# _framework density 18.654724000000002
#
# number of rings (size 3 to 8) (size 9 to 14) (size 15 to 20)
#    0.000    1.444    3.333    1.333    3.111    2.222 
#    0.000    2.222    0.000    0.000    0.000    0.000 
#    0.000    0.000    0.000    0.000    0.000    0.000 
#
# Total GULP energy -200630.152431 kJ/mol
# GULP energy per Si atom -5573.059790 kJ/mol
# Density = 1.861226 g / cm^3
# Si number density = 18.654724 Si / 1000 Ang^3
#
#
#
# Elastic Constant Matrix: (Units=GPa)
#
#
# Indices 1 2 3 4 5 6 
#
# 1 115.9474 38.7903 66.3474 0.0000 0.0000 0.0000
# 2 38.7903 116.7719 53.8178 0.0000 0.0000 0.0000
# 3 66.3474 53.8178 161.1251 0.0000 0.0000 0.0000
# 4 0.0000 0.0000 0.0000 20.8822 0.0000 0.0000
# 5 0.0000 0.0000 0.0000 0.0000 42.5911 0.0000
# 6 0.0000 0.0000 0.0000 0.0000 0.0000 -3.7707
#
#
#
# Elastic Compliance Matrix: (Units=1/GPa)
#
#
# Indices 1 2 3 4 5 6 
#
# 1 0.011651 -0.001961 -0.004143 0.000000 0.000000 0.000000
# 2 -0.001961 0.010452 -0.002684 0.000000 0.000000 0.000000
# 3 -0.004143 -0.002684 0.008809 0.000000 0.000000 0.000000
# 4 0.000000 0.000000 0.000000 0.047888 0.000000 0.000000
# 5 0.000000 0.000000 0.000000 0.000000 0.023479 0.000000
# 6 0.000000 0.000000 0.000000 0.000000 0.000000 -0.265203
#
#
# Mechanical properties :
#
#
# Convention : Reuss Voigt Hill
#
# Bulk Modulus (GPa) = 74.97902 79.08394 77.03148
# Shear Modulus (GPa) = -35.48503 27.59978 -3.94263
#
# Velocity S-wave (km/s) = -4.36615 3.85061 -1.45536
# Velocity P-wave (km/s) = 3.85520 7.89019 6.20958
#
# Compressibility (1/GPa) = 0.01333706
#
# Stress axis : x y z
#
# Youngs Moduli (GPa) = 85.82812 95.67580 113.52634
#
# Poissons Ratio (x) = 0.18763 0.47030
# Poissons Ratio (y) = 0.16832 0.30465
# Poissons Ratio (z) = 0.35555 0.25675
#
# Static dielectric constant tensor:
#      x y z
#    x 1.646630 0.000000 0.000000 
#    y 0.000000 1.614090 0.000000 
#    z 0.000000 0.000000 1.701120 
# 
# From -- ./inp_files/28383.got.cif
#   From: 2010.05.17/outbox.cif.g08.bks.cpg/sg71_15_cif.got.tgz:28383.got - 2010.06.03 16:22:01.
