data_PCOD9523188
_publ_section_title
;
Structure prediction by ZEFSAII (Michael W. Deem and Ramdas Pophale) SiO2 
 PCOD9523188
Probable space group: I M M M
;
_chemical_formula_sum "Si O2"
_cell_formula_units_Z 96
_cell_length_a 24.928274
_cell_length_b 7.853591
_cell_length_c 23.220947
_cell_angle_alpha 90.000000
_cell_angle_beta 90.000000
_cell_angle_gamma 90.000000
_cell_volume 4546.114995
_symmetry_space_group_name_H-M "I M M M"
_symmetry_group_IT_number 71
_symmetry_cell_setting 'orthorhombic'
loop_
_space_group_symop_operation_xyz
x,y,z
-x,-y,z
x,-y,-z
-x,y,-z
-x,-y,-z
x,y,-z
-x,y,z
x,-y,z
1/2+x,1/2+y,1/2+z
1/2-x,1/2-y,1/2+z
1/2+x,1/2-y,1/2-z
1/2-x,1/2+y,1/2-z
1/2-x,1/2-y,1/2-z
1/2+x,1/2+y,1/2-z
1/2-x,1/2+y,1/2+z
1/2+x,1/2-y,1/2+z
loop_
_atom_site_type_symbol
_atom_site_label
_atom_site_fract_x
_atom_site_fract_y
_atom_site_fract_z
Si Si1 0.500000 0.698731 0.207992
Si Si2 0.803954 0.803214 0.907509
Si Si3 0.382519 0.202128 0.174517
Si Si4 0.807355 0.704751 0.223226
Si Si5 0.080419 0.300851 0.938163
Si Si6 0.683591 0.791456 0.935669
Si Si7 0.000000 0.706897 0.841920
O O1 0.500000 0.500000 0.197233
O O2 0.554460 0.770704 0.180797
O O3 0.500000 0.729270 0.276854
O O4 0.809890 0.788498 0.838932
O O5 0.855834 0.713563 0.932953
O O6 0.745152 0.737025 0.924522
O O7 0.806370 0.000000 0.925469
O O8 0.352285 0.266528 0.231767
O O9 0.354544 0.268588 0.116247
O O10 0.372405 0.000000 0.174352
O O11 0.812149 0.500000 0.215744
O O12 0.750000 0.750000 0.250000
O O13 0.066111 0.500000 0.939788
O O14 0.050668 0.235878 0.880986
O O15 0.064073 0.224897 0.000000
O O16 0.683794 0.000000 0.934437
O O17 0.666959 0.739744 0.000000
O O18 0.000000 0.500000 0.836512
#
# Coordination Sequence:
#
# PCOD9523188 Si02
#       7
#     8  16  16  16  16  16   8
#     4  12  26  41  60  88 116 147 187 244 301 348
#     4  11  21  35  55  86 122 157 194 236 290 347
#     4  10  21  40  62  85 114 152 194 234 284 348
#     4  11  21  35  57  87 119 153 193 239 291 344
#     4  10  21  37  57  83 115 155 202 245 287 340
#     4   9  18  35  59  85 113 147 190 235 279 337
#     4  10  21  40  62  81 109 154 199 243 289 344
#
# _framework density 21.116931000000001
#
# number of rings (size 3 to 8) (size 9 to 14) (size 15 to 20)
#    0.000    1.667    1.667    3.500    0.000    8.000 
#    0.000    0.417    0.000    6.500    0.000    0.000 
#    0.000    0.000    0.000    0.000    0.000    0.000 
#
# Total GULP energy -268190.219825 kJ/mol
# GULP energy per Si atom -5587.296246 kJ/mol
# Density = 2.106887 g / cm^3
# Si number density = 21.116931 Si / 1000 Ang^3
#
#
#
# Elastic Constant Matrix: (Units=GPa)
#
#
# Indices 1 2 3 4 5 6 
#
# 1 127.0770 -15.2996 50.5013 0.0000 0.0000 0.0000
# 2 -15.2996 23.7540 -5.1070 0.0000 0.0000 0.0000
# 3 50.5013 -5.1070 136.7840 0.0000 0.0000 0.0000
# 4 0.0000 0.0000 0.0000 5.7208 0.0000 0.0000
# 5 0.0000 0.0000 0.0000 0.0000 2.3461 0.0000
# 6 0.0000 0.0000 0.0000 0.0000 0.0000 21.6586
#
#
#
# Elastic Compliance Matrix: (Units=1/GPa)
#
#
# Indices 1 2 3 4 5 6 
#
# 1 0.009921 0.005648 -0.003452 0.000000 0.000000 0.000000
# 2 0.005648 0.045654 -0.000381 0.000000 0.000000 0.000000
# 3 -0.003452 -0.000381 0.008571 0.000000 0.000000 0.000000
# 4 0.000000 0.000000 0.000000 0.174800 0.000000 0.000000
# 5 0.000000 0.000000 0.000000 0.000000 0.426242 0.000000
# 6 0.000000 0.000000 0.000000 0.000000 0.000000 0.046171
#
#
# Mechanical properties :
#
#
# Convention : Reuss Voigt Hill
#
# Bulk Modulus (GPa) = 14.75440 38.64494 26.69967
# Shear Modulus (GPa) = 6.84630 23.11311 14.97971
#
# Velocity S-wave (km/s) = 1.80253 3.31196 2.66629
# Velocity P-wave (km/s) = 3.36665 5.74157 4.70638
#
# Compressibility (1/GPa) = 0.06777641
#
# Stress axis : x y z
#
# Youngs Moduli (GPa) = 100.79532 21.90391 116.67116
#
# Poissons Ratio (x) = -0.12371 0.40275
# Poissons Ratio (y) = -0.56928 0.04442
# Poissons Ratio (z) = 0.34795 0.00834
#
# Static dielectric constant tensor:
#      x y z
#    x 1.736640 0.000000 0.000000 
#    y 0.000000 1.769110 0.000000 
#    z 0.000000 0.000000 1.769980 
# 
# From -- ./inp_files/61568.got.cif
#   From: 2010.05.17/outbox.cif.g08.bks.cpg/sg71_31_cif.got.tgz:61568.got - 2010.06.03 16:22:01.
