data_PCOD9523852
_publ_section_title
;
Structure prediction by ZEFSAII (Michael W. Deem and Ramdas Pophale) SiO2 
 PCOD9523852
Probable space group: I M M M
;
_chemical_formula_sum "Si O2"
_cell_formula_units_Z 88
_cell_length_a 12.476368
_cell_length_b 23.305306
_cell_length_c 14.432635
_cell_angle_alpha 90.000000
_cell_angle_beta 90.000000
_cell_angle_gamma 90.000000
_cell_volume 4196.513400
_symmetry_space_group_name_H-M "I M M M"
_symmetry_group_IT_number 71
_symmetry_cell_setting 'orthorhombic'
loop_
_space_group_symop_operation_xyz
x,y,z
-x,-y,z
x,-y,-z
-x,y,-z
-x,-y,-z
x,y,-z
-x,y,z
x,-y,z
1/2+x,1/2+y,1/2+z
1/2-x,1/2-y,1/2+z
1/2+x,1/2-y,1/2-z
1/2-x,1/2+y,1/2-z
1/2-x,1/2-y,1/2-z
1/2+x,1/2+y,1/2-z
1/2-x,1/2+y,1/2+z
1/2+x,1/2-y,1/2+z
loop_
_atom_site_type_symbol
_atom_site_label
_atom_site_fract_x
_atom_site_fract_y
_atom_site_fract_z
Si Si1 0.000000 0.935473 0.111399
Si Si2 0.000000 0.433769 0.821024
Si Si3 0.274486 0.747545 0.641500
Si Si4 0.729627 0.935892 0.708525
Si Si5 0.767629 0.886161 0.105892
Si Si6 0.500000 0.189543 0.391986
Si Si7 0.378363 0.651056 0.103755
O O1 0.889407 0.903828 0.132641
O O2 0.000000 0.000000 0.149697
O O3 0.000000 0.939482 0.000000
O O4 0.123012 0.436494 0.854755
O O5 0.000000 0.362443 0.816947
O O6 0.000000 0.500000 0.772449
O O7 0.250000 0.750000 0.750000
O O8 0.262120 0.682346 0.609293
O O9 0.392713 0.772533 0.620738
O O10 0.185903 0.789733 0.600186
O O11 0.697573 0.914870 0.812446
O O12 0.813201 0.891331 0.668700
O O13 0.773159 0.000000 0.714112
O O14 0.745782 0.905655 0.000000
O O15 0.500000 0.167938 0.500000
O O16 0.500000 0.659666 0.135809
O O17 0.380354 0.626576 0.000000
#
# Coordination Sequence:
#
# PCOD9523852 Si02
#       7
#     8   8  16  16  16   8  16
#     4   9  19  35  58  92 130 164 206 264 322 379
#     4  10  22  42  64  91 128 167 216 275 326 380
#     4  12  24  41  66  95 133 172 217 269 331 391
#     4  11  24  43  67  94 127 169 217 269 329 394
#     4  11  22  39  62  94 131 171 216 264 324 391
#     4  12  23  39  67  98 127 168 225 275 321 387
#     4  11  25  45  67  95 132 171 215 270 329 391
#
# _framework density 20.96979
#
# number of rings (size 3 to 8) (size 9 to 14) (size 15 to 20)
#    0.000    1.000    3.636    2.727    2.545    2.727 
#    1.636    3.182    0.000    1.636    0.000    0.000 
#    0.000    0.000    0.000    0.000    0.000    0.000 
#
# Total GULP energy -245001.337215 kJ/mol
# GULP energy per Si atom -5568.212209 kJ/mol
# Density = 2.092206 g / cm^3
# Si number density = 20.969790 Si / 1000 Ang^3
#
#
#
# Elastic Constant Matrix: (Units=GPa)
#
#
# Indices 1 2 3 4 5 6 
#
# 1 126.4483 35.3017 16.0352 0.0000 0.0000 0.0000
# 2 35.3017 136.8405 7.0225 -0.0001 0.0000 0.0000
# 3 16.0352 7.0225 91.2818 -0.0002 0.0001 0.0000
# 4 0.0000 -0.0001 -0.0002 14.2576 0.0000 0.0000
# 5 0.0000 0.0000 0.0001 0.0000 32.1004 0.0000
# 6 0.0000 0.0000 0.0000 0.0000 0.0000 9.4552
#
#
#
# Elastic Compliance Matrix: (Units=1/GPa)
#
#
# Indices 1 2 3 4 5 6 
#
# 1 0.008687 -0.002171 -0.001359 0.000000 0.000000 0.000000
# 2 -0.002171 0.007879 -0.000225 0.000000 0.000000 0.000000
# 3 -0.001359 -0.000225 0.011211 0.000000 0.000000 0.000000
# 4 0.000000 0.000000 0.000000 0.070138 0.000000 0.000000
# 5 0.000000 0.000000 0.000000 0.000000 0.031152 0.000000
# 6 0.000000 0.000000 0.000000 0.000000 0.000000 0.105762
#
#
# Mechanical properties :
#
#
# Convention : Reuss Voigt Hill
#
# Bulk Modulus (GPa) = 49.34023 52.36551 50.85287
# Shear Modulus (GPa) = 20.07262 30.91005 25.49133
#
# Velocity S-wave (km/s) = 3.09725 3.84347 3.49036
# Velocity P-wave (km/s) = 6.03083 6.68749 6.36763
#
# Compressibility (1/GPa) = 0.02026743
#
# Stress axis : x y z
#
# Youngs Moduli (GPa) = 115.11612 126.91240 89.19732
#
# Poissons Ratio (x) = 0.27556 0.12122
# Poissons Ratio (y) = 0.24995 0.02005
# Poissons Ratio (z) = 0.15644 0.02853
#
# Static dielectric constant tensor:
#      x y z
#    x 1.738800 0.000000 0.000000 
#    y 0.000000 1.759420 0.000000 
#    z 0.000000 0.000000 1.770930 
# 
# From -- ./inp_files/32798.got.cif
#   From: 2010.05.17/outbox.cif.g08.bks.cpg/sg71_17_cif.got.tgz:32798.got - 2010.06.03 16:22:01.
