data_PCOD9523568
_publ_section_title
;
Structure prediction by ZEFSAII (Michael W. Deem and Ramdas Pophale) SiO2 
 PCOD9523568
Probable space group: I M M M
;
_chemical_formula_sum "Si O2"
_cell_formula_units_Z 52
_cell_length_a 7.730228
_cell_length_b 18.543128
_cell_length_c 18.428795
_cell_angle_alpha 90.000000
_cell_angle_beta 90.000000
_cell_angle_gamma 90.000000
_cell_volume 2641.631524
_symmetry_space_group_name_H-M "I M M M"
_symmetry_group_IT_number 71
_symmetry_cell_setting 'orthorhombic'
loop_
_space_group_symop_operation_xyz
x,y,z
-x,-y,z
x,-y,-z
-x,y,-z
-x,-y,-z
x,y,-z
-x,y,z
x,-y,z
1/2+x,1/2+y,1/2+z
1/2-x,1/2-y,1/2+z
1/2+x,1/2-y,1/2-z
1/2-x,1/2+y,1/2-z
1/2-x,1/2-y,1/2-z
1/2+x,1/2+y,1/2-z
1/2-x,1/2+y,1/2+z
1/2+x,1/2-y,1/2+z
loop_
_atom_site_type_symbol
_atom_site_label
_atom_site_fract_x
_atom_site_fract_y
_atom_site_fract_z
Si Si1 0.291810 0.294579 0.857360
Si Si2 0.191478 0.500000 0.620301
Si Si3 0.000000 0.000000 0.500000
Si Si4 0.294592 0.641170 0.703615
Si Si5 0.000000 0.000000 0.000000
Si Si6 0.193676 0.379516 0.000000
O O1 0.500000 0.298230 0.861107
O O2 0.235233 0.337362 0.784662
O O3 0.239840 0.211635 0.845363
O O4 0.215471 0.330058 0.928786
O O5 0.209475 0.570929 0.670118
O O6 0.347155 0.500000 0.563102
O O7 0.000000 0.500000 0.587041
O O8 0.152891 0.937417 0.500000
O O9 0.500000 0.628618 0.706814
O O10 0.000000 0.410683 0.000000
#
# Coordination Sequence:
#
# PCOD9523568 Si02
#       6
#    16   8   2  16   2   8
#     4  10  21  41  68  99 138 179 230 280 336 404
#     4  12  25  44  70  99 139 181 222 280 344 395
#     4  12  26  48  62  94 136 170 222 282 336 410
#     4  10  21  41  68  99 137 181 228 280 334 406
#     4  12  26  48  62  98 140 166 226 270 332 406
#     4  12  25  44  70 100 136 182 225 282 345 393
#
# _framework density 19.684805000000001
#
# number of rings (size 3 to 8) (size 9 to 14) (size 15 to 20)
#    0.000    1.231    3.077    2.308    0.000    6.154 
#    2.769    3.077    0.000    0.000    0.000    0.000 
#    0.000    0.000    0.000    0.000    0.000    0.000 
#
# Total GULP energy -144784.257124 kJ/mol
# GULP energy per Si atom -5568.625274 kJ/mol
# Density = 1.964000 g / cm^3
# Si number density = 19.684805 Si / 1000 Ang^3
#
#
#
# Elastic Constant Matrix: (Units=GPa)
#
#
# Indices 1 2 3 4 5 6 
#
# 1 150.6744 47.8159 42.8952 0.0000 0.0000 0.0000
# 2 47.8159 152.0139 94.0893 0.0000 0.0000 0.0000
# 3 42.8952 94.0893 119.4311 0.0000 0.0000 0.0000
# 4 0.0000 0.0000 0.0000 -7.6331 0.0000 0.0000
# 5 0.0000 0.0000 0.0000 0.0000 0.6091 0.0000
# 6 0.0000 0.0000 0.0000 0.0000 0.0000 35.8732
#
#
#
# Elastic Compliance Matrix: (Units=1/GPa)
#
#
# Indices 1 2 3 4 5 6 
#
# 1 0.007533 -0.001356 -0.001637 0.000000 0.000000 0.000000
# 2 -0.001356 0.013083 -0.009820 0.000000 0.000000 0.000000
# 3 -0.001637 -0.009820 0.016697 0.000000 0.000000 0.000000
# 4 0.000000 0.000000 0.000000 -0.131009 0.000000 0.000000
# 5 0.000000 0.000000 0.000000 0.000000 1.641837 0.000000
# 6 0.000000 0.000000 0.000000 0.000000 0.000000 0.027876
#
#
# Mechanical properties :
#
#
# Convention : Reuss Voigt Hill
#
# Bulk Modulus (GPa) = 85.56548 87.96893 86.76720
# Shear Modulus (GPa) = 3.11422 21.59111 12.35266
#
# Velocity S-wave (km/s) = 1.25916 3.31545 2.50776
# Velocity P-wave (km/s) = 6.75841 7.70987 7.24976
#
# Compressibility (1/GPa) = 0.01168696
#
# Stress axis : x y z
#
# Youngs Moduli (GPa) = 132.74358 76.43556 59.89027
#
# Poissons Ratio (x) = 0.10366 0.09805
# Poissons Ratio (y) = 0.18003 0.58811
# Poissons Ratio (z) = 0.21733 0.75058
#
# Static dielectric constant tensor:
#      x y z
#    x 1.701270 0.000000 0.000000 
#    y 0.000000 1.648400 0.000000 
#    z 0.000000 0.000000 1.667830 
# 
# From -- ./inp_files/41695.got.cif
#   From: 2010.05.17/outbox.cif.g08.bks.cpg/sg71_21_cif.got.tgz:41695.got - 2010.06.03 16:22:01.
