data_PCOD9523535
_publ_section_title
;
Structure prediction by ZEFSAII (Michael W. Deem and Ramdas Pophale) SiO2 
 PCOD9523535
Probable space group: I M M M
;
_chemical_formula_sum "Si O2"
_cell_formula_units_Z 64
_cell_length_a 16.452498
_cell_length_b 14.477483
_cell_length_c 13.225837
_cell_angle_alpha 90.000000
_cell_angle_beta 90.000000
_cell_angle_gamma 90.000000
_cell_volume 3150.272168
_symmetry_space_group_name_H-M "I M M M"
_symmetry_group_IT_number 71
_symmetry_cell_setting 'orthorhombic'
loop_
_space_group_symop_operation_xyz
x,y,z
-x,-y,z
x,-y,-z
-x,y,-z
-x,-y,-z
x,y,-z
-x,y,z
x,-y,z
1/2+x,1/2+y,1/2+z
1/2-x,1/2-y,1/2+z
1/2+x,1/2-y,1/2-z
1/2-x,1/2+y,1/2-z
1/2-x,1/2-y,1/2-z
1/2+x,1/2+y,1/2-z
1/2-x,1/2+y,1/2+z
1/2+x,1/2-y,1/2+z
loop_
_atom_site_type_symbol
_atom_site_label
_atom_site_fract_x
_atom_site_fract_y
_atom_site_fract_z
Si Si1 0.595253 0.387674 0.000000
Si Si2 0.593236 0.710404 0.389086
Si Si3 0.375425 0.892271 0.711587
Si Si4 0.681193 0.391104 0.792020
Si Si5 0.500000 0.111297 0.884900
O O1 0.642830 0.358688 0.101401
O O2 0.597064 0.500000 0.000000
O O3 0.500000 0.361091 0.000000
O O4 0.625854 0.687616 0.500000
O O5 0.500000 0.678974 0.382695
O O6 0.594716 0.820314 0.371515
O O7 0.642922 0.664606 0.299641
O O8 0.278315 0.882665 0.713712
O O9 0.421472 0.865391 0.816035
O O10 0.394450 0.000000 0.691521
O O11 0.661434 0.500000 0.781679
O O12 0.500000 0.000000 0.892470
O O13 0.500000 0.147177 0.000000
#
# Coordination Sequence:
#
# PCOD9523535 Si02
#       5
#     8  16  16  16   8
#     4   9  18  36  62  89 118 154 204 262 312 372
#     4  11  24  40  59  88 125 165 209 252 304 379
#     4  10  21  40  62  87 122 162 207 259 317 371
#     4  10  22  40  63  90 122 162 209 263 321 373
#     4   9  18  36  61  87 118 157 205 260 314 374
#
# _framework density 20.315705000000001
#
# number of rings (size 3 to 8) (size 9 to 14) (size 15 to 20)
#    0.000    2.000    1.250    1.500    1.750    3.500 
#    2.250    5.000    0.000    0.000    0.000    0.000 
#    0.000    0.000    0.000    0.000    0.000    0.000 
#
# Total GULP energy -178678.952479 kJ/mol
# GULP energy per Si atom -5583.717265 kJ/mol
# Density = 2.026947 g / cm^3
# Si number density = 20.315705 Si / 1000 Ang^3
#
#
#
# Elastic Constant Matrix: (Units=GPa)
#
#
# Indices 1 2 3 4 5 6 
#
# 1 118.2341 29.4817 74.7005 0.0000 0.0000 0.0000
# 2 29.4817 50.9590 39.3595 0.0000 0.0000 0.0000
# 3 74.7005 39.3595 174.6597 0.0000 0.0000 0.0000
# 4 0.0000 0.0000 0.0000 25.5252 0.0000 0.0000
# 5 0.0000 0.0000 0.0000 0.0000 -347.7864 0.0000
# 6 0.0000 0.0000 0.0000 0.0000 0.0000 -16.2474
#
#
#
# Elastic Compliance Matrix: (Units=1/GPa)
#
#
# Indices 1 2 3 4 5 6 
#
# 1 0.012123 -0.003643 -0.004364 0.000000 0.000000 0.000000
# 2 -0.003643 0.024854 -0.004043 0.000000 0.000000 0.000000
# 3 -0.004364 -0.004043 0.008503 0.000000 0.000000 0.000000
# 4 0.000000 0.000000 0.000000 0.039177 0.000000 0.000000
# 5 0.000000 0.000000 0.000000 0.000000 -0.002875 0.000000
# 6 0.000000 0.000000 0.000000 0.000000 0.000000 -0.061548
#
#
# Mechanical properties :
#
#
# Convention : Reuss Voigt Hill
#
# Bulk Modulus (GPa) = 46.77198 70.10405 58.43801
# Shear Modulus (GPa) = 97.16247 -54.34767 21.40740
#
# Velocity S-wave (km/s) = 6.92316 -5.17780 3.24965
# Velocity P-wave (km/s) = 9.32627 1.07886 6.55040
#
# Compressibility (1/GPa) = 0.02138032
#
# Stress axis : x y z
#
# Youngs Moduli (GPa) = 82.48458 40.23536 117.60645
#
# Poissons Ratio (x) = 0.14658 0.51325
# Poissons Ratio (y) = 0.30050 0.47544
# Poissons Ratio (z) = 0.35997 0.16266
#
# Static dielectric constant tensor:
#      x y z
#    x 1.608280 0.000000 0.000000 
#    y 0.000000 1.736660 0.000000 
#    z 0.000000 0.000000 1.698570 
# 
# From -- ./inp_files/23245.got.cif
#   From: 2010.05.17/outbox.cif.g08.bks.cpg/sg71_12_cif.got.tgz:23245.got - 2010.06.03 16:22:01.
