data_PCOD9523278
_publ_section_title
;
Structure prediction by ZEFSAII (Michael W. Deem and Ramdas Pophale) SiO2 
 PCOD9523278
Probable space group: I M M M
;
_chemical_formula_sum "Si O2"
_cell_formula_units_Z 88
_cell_length_a 17.977505
_cell_length_b 10.908441
_cell_length_c 23.370146
_cell_angle_alpha 90.000000
_cell_angle_beta 90.000000
_cell_angle_gamma 90.000000
_cell_volume 4583.038766
_symmetry_space_group_name_H-M "I M M M"
_symmetry_group_IT_number 71
_symmetry_cell_setting 'orthorhombic'
loop_
_space_group_symop_operation_xyz
x,y,z
-x,-y,z
x,-y,-z
-x,y,-z
-x,-y,-z
x,y,-z
-x,y,z
x,-y,z
1/2+x,1/2+y,1/2+z
1/2-x,1/2-y,1/2+z
1/2+x,1/2-y,1/2-z
1/2-x,1/2+y,1/2-z
1/2-x,1/2-y,1/2-z
1/2+x,1/2+y,1/2-z
1/2-x,1/2+y,1/2+z
1/2+x,1/2-y,1/2+z
loop_
_atom_site_type_symbol
_atom_site_label
_atom_site_fract_x
_atom_site_fract_y
_atom_site_fract_z
Si Si1 0.086476 0.237242 0.284477
Si Si2 0.418803 0.289681 0.500000
Si Si3 0.376901 0.500000 0.418812
Si Si4 0.705477 0.856662 0.715994
Si Si5 0.706417 0.000000 0.064965
Si Si6 0.263443 0.141315 0.500000
Si Si7 0.296469 0.264494 0.883315
Si Si8 0.916163 0.000000 0.794725
O O1 0.125213 0.342528 0.245837
O O2 0.134532 0.207930 0.341268
O O3 0.092510 0.118038 0.244323
O O4 0.000000 0.261055 0.296985
O O5 0.500000 0.226290 0.500000
O O6 0.415159 0.379930 0.444960
O O7 0.341935 0.214245 0.500000
O O8 0.294468 0.500000 0.442814
O O9 0.367265 0.500000 0.350964
O O10 0.750000 0.750000 0.750000
O O11 0.722821 0.809331 0.651835
O O12 0.729092 0.000000 0.720857
O O13 0.692487 0.878415 0.101654
O O14 0.673467 0.000000 0.000000
O O15 0.214394 0.173442 0.444511
O O16 0.282295 0.000000 0.500000
O O17 0.000000 0.000000 0.818534
#
# Coordination Sequence:
#
# PCOD9523278 Si02
#       8
#    16   8   8  16   8   8  16   8
#     4  10  24  41  65  96 132 170 214 268 330 387
#     4  11  22  37  61  96 129 163 205 264 325 384
#     4  11  17  37  64  95 125 158 209 264 319 379
#     4  10  23  39  63  93 127 168 212 258 316 386
#     4  12  20  39  67  96 120 161 217 273 319 381
#     4  12  25  42  63  90 125 175 217 261 318 390
#     4  11  23  42  67  92 128 165 218 268 323 389
#     4  10  21  37  59  93 129 167 207 259 323 391
#
# _framework density 19.201235
#
# number of rings (size 3 to 8) (size 9 to 14) (size 15 to 20)
#    0.000    1.273    3.636    2.727   11.455    0.545 
#    0.000    0.455    0.000    3.273    0.000    0.000 
#    0.000    0.000    0.000    0.000    0.000    0.000 
#
# Total GULP energy -245102.205762 kJ/mol
# GULP energy per Si atom -5570.504676 kJ/mol
# Density = 1.915753 g / cm^3
# Si number density = 19.201235 Si / 1000 Ang^3
#
#
#
# Elastic Constant Matrix: (Units=GPa)
#
#
# Indices 1 2 3 4 5 6 
#
# 1 99.9179 13.0083 46.3804 0.0000 0.0000 0.0000
# 2 13.0083 124.3123 30.1752 0.0000 0.0000 0.0000
# 3 46.3804 30.1752 146.5756 0.0000 0.0000 0.0000
# 4 0.0000 0.0000 0.0000 13.9668 0.0000 0.0000
# 5 0.0000 0.0000 0.0000 0.0000 -15.8625 0.0000
# 6 0.0000 0.0000 0.0000 0.0000 0.0000 22.9511
#
#
#
# Elastic Compliance Matrix: (Units=1/GPa)
#
#
# Indices 1 2 3 4 5 6 
#
# 1 0.011745 -0.000344 -0.003646 0.000000 0.000000 0.000000
# 2 -0.000344 0.008477 -0.001636 0.000000 0.000000 0.000000
# 3 -0.003646 -0.001636 0.008313 0.000000 0.000000 0.000000
# 4 0.000000 0.000000 0.000000 0.071598 0.000000 0.000000
# 5 0.000000 0.000000 0.000000 0.000000 -0.063042 0.000000
# 6 0.000000 0.000000 0.000000 0.000000 0.000000 0.043571
#
#
# Mechanical properties :
#
#
# Convention : Reuss Voigt Hill
#
# Bulk Modulus (GPa) = 57.85914 61.10373 59.48143
# Shear Modulus (GPa) = 51.18930 22.96053 37.07491
#
# Velocity S-wave (km/s) = 5.16887 3.46176 4.39892
# Velocity P-wave (km/s) = 8.11304 6.91884 7.53962
#
# Compressibility (1/GPa) = 0.01728335
#
# Stress axis : x y z
#
# Youngs Moduli (GPa) = 85.14056 117.95968 120.29524
#
# Poissons Ratio (x) = 0.04059 0.43856
# Poissons Ratio (y) = 0.02930 0.19685
# Poissons Ratio (z) = 0.31039 0.19302
#
# Static dielectric constant tensor:
#      x y z
#    x 1.718630 0.000000 0.000000 
#    y 0.000000 1.861330 0.000000 
#    z 0.000000 0.000000 1.717610 
# 
# From -- ./inp_files/53983.got.cif
#   From: 2010.05.17/outbox.cif.g08.bks.cpg/sg71_27_cif.got.tgz:53983.got - 2010.06.03 16:22:01.
