data_PCOD9523283
_publ_section_title
;
Structure prediction by ZEFSAII (Michael W. Deem and Ramdas Pophale) SiO2 
 PCOD9523283
Probable space group: I M M M
;
_chemical_formula_sum "Si O2"
_cell_formula_units_Z 66
_cell_length_a 18.771367
_cell_length_b 7.387246
_cell_length_c 22.225880
_cell_angle_alpha 90.000000
_cell_angle_beta 90.000000
_cell_angle_gamma 90.000000
_cell_volume 3082.034015
_symmetry_space_group_name_H-M "I M M M"
_symmetry_group_IT_number 71
_symmetry_cell_setting 'orthorhombic'
loop_
_space_group_symop_operation_xyz
x,y,z
-x,-y,z
x,-y,-z
-x,y,-z
-x,-y,-z
x,y,-z
-x,y,z
x,-y,z
1/2+x,1/2+y,1/2+z
1/2-x,1/2-y,1/2+z
1/2+x,1/2-y,1/2-z
1/2-x,1/2+y,1/2-z
1/2-x,1/2-y,1/2-z
1/2+x,1/2+y,1/2-z
1/2-x,1/2+y,1/2+z
1/2+x,1/2-y,1/2+z
loop_
_atom_site_type_symbol
_atom_site_label
_atom_site_fract_x
_atom_site_fract_y
_atom_site_fract_z
Si Si1 0.802649 0.281313 0.157464
Si Si2 0.000000 0.000000 0.000000
Si Si3 0.077489 0.714591 0.750869
Si Si4 0.854182 0.000000 0.935386
Si Si5 0.416507 0.278473 0.000000
Si Si6 0.355863 0.284033 0.871928
O O1 0.804741 0.500000 0.153741
O O2 0.852570 0.220178 0.213074
O O3 0.720186 0.221778 0.154939
O O4 0.835364 0.180522 0.100340
O O5 0.937255 0.000000 0.949201
O O6 0.075972 0.500000 0.761434
O O7 0.087555 0.744234 0.680009
O O8 0.000000 0.787353 0.770318
O O9 0.815858 0.000000 0.000000
O O10 0.378264 0.217540 0.938122
O O11 0.415069 0.500000 0.000000
O O12 0.500000 0.226708 0.000000
O O13 0.350527 0.500000 0.877497
#
# Coordination Sequence:
#
# PCOD9523283 Si02
#       6
#    16   2  16   8   8  16
#     4  10  23  41  64  91 125 164 208 253 313 369
#     4   8  24  44  58 100 132 142 234 250 294 384
#     4  10  22  38  58  87 123 160 203 253 313 373
#     4  10  24  42  64  94 126 160 206 263 300 365
#     4   9  18  33  55  84 119 151 197 249 304 369
#     4  10  21  37  60  88 117 160 206 254 309 370
#
# _framework density 21.414431
#
# number of rings (size 3 to 8) (size 9 to 14) (size 15 to 20)
#    0.364    1.818    0.000    1.455    6.788    1.939 
#    0.000    1.212    0.000    2.182    0.000    0.000 
#    0.000    0.000    0.000    0.000    0.000    0.000 
#
# Total GULP energy -183772.699797 kJ/mol
# GULP energy per Si atom -5568.869691 kJ/mol
# Density = 2.136569 g / cm^3
# Si number density = 21.414431 Si / 1000 Ang^3
#
#
#
# Elastic Constant Matrix: (Units=GPa)
#
#
# Indices 1 2 3 4 5 6 
#
# 1 165.9019 8.7521 60.3455 0.0000 0.0000 0.0000
# 2 8.7521 66.0827 5.5494 0.0000 0.0000 0.0000
# 3 60.3455 5.5494 147.2993 0.0000 0.0000 0.0000
# 4 0.0000 0.0000 0.0000 48.7864 0.0000 0.0000
# 5 0.0000 0.0000 0.0000 0.0000 42.7470 0.0000
# 6 0.0000 0.0000 0.0000 0.0000 0.0000 -8.7236
#
#
#
# Elastic Compliance Matrix: (Units=1/GPa)
#
#
# Indices 1 2 3 4 5 6 
#
# 1 0.007115 -0.000700 -0.002889 0.000000 0.000000 0.000000
# 2 -0.000700 0.015249 -0.000288 0.000000 0.000000 0.000000
# 3 -0.002889 -0.000288 0.007983 0.000000 0.000000 0.000000
# 4 0.000000 0.000000 0.000000 0.020498 0.000000 0.000000
# 5 0.000000 0.000000 0.000000 0.000000 0.023393 0.000000
# 6 0.000000 0.000000 0.000000 0.000000 0.000000 -0.114631
#
#
# Mechanical properties :
#
#
# Convention : Reuss Voigt Hill
#
# Bulk Modulus (GPa) = 44.25681 58.73086 51.49384
# Shear Modulus (GPa) = -199.13778 36.87110 -81.13334
#
# Velocity S-wave (km/s) = -9.65371 4.15394 -6.16194
# Velocity P-wave (km/s) = 10.17582 7.10580 5.15048
#
# Compressibility (1/GPa) = 0.02259539
#
# Stress axis : x y z
#
# Youngs Moduli (GPa) = 140.54239 65.57632 125.26382
#
# Poissons Ratio (x) = 0.04589 0.36184
# Poissons Ratio (y) = 0.09835 0.03605
# Poissons Ratio (z) = 0.40597 0.01887
#
# Static dielectric constant tensor:
#      x y z
#    x 1.809650 0.000000 0.000000 
#    y 0.000000 1.834680 0.000000 
#    z 0.000000 0.000000 1.778630 
# 
# From -- ./inp_files/53747.got.cif
#   From: 2010.05.17/outbox.cif.g08.bks.cpg/sg71_27_cif.got.tgz:53747.got - 2010.06.03 16:22:01.
