data_PCOD9523485
_publ_section_title
;
Structure prediction by ZEFSAII (Michael W. Deem and Ramdas Pophale) SiO2 
 PCOD9523485
Probable space group: I M M M
;
_chemical_formula_sum "Si O2"
_cell_formula_units_Z 100
_cell_length_a 17.694406
_cell_length_b 14.464599
_cell_length_c 22.017411
_cell_angle_alpha 90.000000
_cell_angle_beta 90.000000
_cell_angle_gamma 90.000000
_cell_volume 5635.190936
_symmetry_space_group_name_H-M "I M M M"
_symmetry_group_IT_number 71
_symmetry_cell_setting 'orthorhombic'
loop_
_space_group_symop_operation_xyz
x,y,z
-x,-y,z
x,-y,-z
-x,y,-z
-x,-y,-z
x,y,-z
-x,y,z
x,-y,z
1/2+x,1/2+y,1/2+z
1/2-x,1/2-y,1/2+z
1/2+x,1/2-y,1/2-z
1/2-x,1/2+y,1/2-z
1/2-x,1/2-y,1/2-z
1/2+x,1/2+y,1/2-z
1/2-x,1/2+y,1/2+z
1/2+x,1/2-y,1/2+z
loop_
_atom_site_type_symbol
_atom_site_label
_atom_site_fract_x
_atom_site_fract_y
_atom_site_fract_z
Si Si1 0.703541 0.894201 0.756570
Si Si2 0.415651 0.737514 0.786032
Si Si3 0.866781 0.891827 0.819062
Si Si4 0.089777 0.767587 0.071523
Si Si5 0.797541 0.392617 0.111373
Si Si6 0.129362 0.106677 0.603459
Si Si7 0.500000 0.380447 0.000000
O O1 0.642921 0.819997 0.777411
O O2 0.781038 0.882254 0.793864
O O3 0.715117 0.881404 0.684156
O O4 0.678052 0.000000 0.765425
O O5 0.500000 0.773686 0.794843
O O6 0.413190 0.671777 0.727201
O O7 0.391881 0.674693 0.842477
O O8 0.879444 0.849412 0.885512
O O9 0.886898 0.000000 0.816500
O O10 0.138262 0.676971 0.089233
O O11 0.000000 0.754471 0.082974
O O12 0.099447 0.786701 0.000000
O O13 0.817654 0.500000 0.100104
O O14 0.715237 0.373776 0.082447
O O15 0.066343 0.115223 0.552298
O O16 0.130109 0.000000 0.625703
#
# Coordination Sequence:
#
# PCOD9523485 Si02
#       7
#    16  16  16  16  16  16   4
#     4  10  21  39  63  89 119 152 194 250 303 352
#     4  12  22  34  58  90 120 153 194 244 298 354
#     4  11  22  39  62  86 115 153 197 249 302 351
#     4  11  25  42  58  84 121 159 204 251 296 354
#     4  10  21  39  63  88 117 158 200 244 301 359
#     4  11  22  37  57  86 124 161 197 241 294 357
#     4  12  25  40  56  88 135 164 195 244 294 358
#
# _framework density 17.745626999999999
#
# number of rings (size 3 to 8) (size 9 to 14) (size 15 to 20)
#    0.000    1.120    4.000    3.120    1.120    3.200 
#    0.000    3.200    0.000    0.000    0.000    0.560 
#    0.000    0.000    0.000    0.000    0.000    0.000 
#
# Total GULP energy -278803.724722 kJ/mol
# GULP energy per Si atom -5576.074494 kJ/mol
# Density = 1.770524 g / cm^3
# Si number density = 17.745627 Si / 1000 Ang^3
#
#
#
# Elastic Constant Matrix: (Units=GPa)
#
#
# Indices 1 2 3 4 5 6 
#
# 1 103.7032 62.9706 36.1990 0.0000 0.0000 0.0000
# 2 62.9706 87.9794 48.2116 0.0000 0.0000 0.0000
# 3 36.1990 48.2116 89.7200 0.0000 0.0000 0.0000
# 4 0.0000 0.0000 0.0000 -117.6655 0.0000 0.0000
# 5 0.0000 0.0000 0.0000 0.0000 34.6665 0.0000
# 6 0.0000 0.0000 0.0000 0.0000 0.0000 -51.4191
#
#
#
# Elastic Compliance Matrix: (Units=1/GPa)
#
#
# Indices 1 2 3 4 5 6 
#
# 1 0.017069 -0.011967 -0.000456 0.000000 0.000000 0.000000
# 2 -0.011967 0.024500 -0.008337 0.000000 0.000000 0.000000
# 3 -0.000456 -0.008337 0.015810 0.000000 0.000000 0.000000
# 4 0.000000 0.000000 0.000000 -0.008499 0.000000 0.000000
# 5 0.000000 0.000000 0.000000 0.000000 0.028846 0.000000
# 6 0.000000 0.000000 0.000000 0.000000 0.000000 -0.019448
#
#
# Mechanical properties :
#
#
# Convention : Reuss Voigt Hill
#
# Bulk Modulus (GPa) = 63.05793 64.01833 63.53813
# Shear Modulus (GPa) = 47.58096 -17.94887 14.81604
#
# Velocity S-wave (km/s) = 5.18372 -3.18379 2.89262
# Velocity P-wave (km/s) = 8.45219 4.75800 6.85850
#
# Compressibility (1/GPa) = 0.01585843
#
# Stress axis : x y z
#
# Youngs Moduli (GPa) = 58.58717 40.81635 63.25191
#
# Poissons Ratio (x) = 0.48844 0.02886
# Poissons Ratio (y) = 0.70110 0.52733
# Poissons Ratio (z) = 0.02673 0.34029
#
# Static dielectric constant tensor:
#      x y z
#    x 1.609730 0.000000 0.000000 
#    y 0.000000 1.591020 0.000000 
#    z 0.000000 0.000000 1.601000 
# 
# From -- ./inp_files/54131.got.cif
#   From: 2010.05.17/outbox.cif.g08.bks.cpg/sg71_28_cif.got.tgz:54131.got - 2010.06.03 16:22:01.
