data_PCOD9523556
_publ_section_title
;
Structure prediction by ZEFSAII (Michael W. Deem and Ramdas Pophale) SiO2 
 PCOD9523556
Probable space group: I M M M
;
_chemical_formula_sum "Si O2"
_cell_formula_units_Z 64
_cell_length_a 18.793589
_cell_length_b 10.619436
_cell_length_c 15.639014
_cell_angle_alpha 90.000000
_cell_angle_beta 90.000000
_cell_angle_gamma 90.000000
_cell_volume 3121.192433
_symmetry_space_group_name_H-M "I M M M"
_symmetry_group_IT_number 71
_symmetry_cell_setting 'orthorhombic'
loop_
_space_group_symop_operation_xyz
x,y,z
-x,-y,z
x,-y,-z
-x,y,-z
-x,-y,-z
x,y,-z
-x,y,z
x,-y,z
1/2+x,1/2+y,1/2+z
1/2-x,1/2-y,1/2+z
1/2+x,1/2-y,1/2-z
1/2-x,1/2+y,1/2-z
1/2-x,1/2-y,1/2-z
1/2+x,1/2+y,1/2-z
1/2-x,1/2+y,1/2+z
1/2+x,1/2-y,1/2+z
loop_
_atom_site_type_symbol
_atom_site_label
_atom_site_fract_x
_atom_site_fract_y
_atom_site_fract_z
Si Si1 0.190541 0.000000 0.220838
Si Si2 0.086066 0.359847 0.000000
Si Si3 0.419675 0.223567 0.133287
Si Si4 0.417548 0.719977 0.674941
Si Si5 0.183585 0.500000 0.408813
Si Si6 0.643948 0.500000 0.097618
O O1 0.141420 0.883960 0.192969
O O2 0.263053 0.000000 0.169928
O O3 0.199138 0.000000 0.323505
O O4 0.103306 0.290778 0.911614
O O5 0.115937 0.500000 0.000000
O O6 0.000000 0.367473 0.000000
O O7 0.500000 0.200505 0.103984
O O8 0.418187 0.203683 0.236209
O O9 0.400072 0.369655 0.112317
O O10 0.364966 0.124253 0.095563
O O11 0.500000 0.672970 0.665079
O O12 0.223095 0.500000 0.500000
O O13 0.670231 0.500000 0.000000
#
# Coordination Sequence:
#
# PCOD9523556 Si02
#       6
#     8   8  16  16   8   8
#     4  10  23  41  63  86 132 163 208 252 312 367
#     4   9  18  31  55  93 127 156 205 260 307 364
#     4  10  22  41  66  94 125 160 205 264 322 372
#     4   9  19  36  63  93 122 160 207 259 314 371
#     4  12  27  41  61  89 128 173 212 253 308 376
#     4  10  21  40  69  98 123 156 206 263 316 375
#
# _framework density 20.504984
#
# number of rings (size 3 to 8) (size 9 to 14) (size 15 to 20)
#    0.000    2.125    0.000    1.875    3.500   10.000 
#    0.000    1.875    5.500    0.000    0.000    0.000 
#    0.000    0.000    0.000    0.000    0.000    0.000 
#
# Total GULP energy -178501.526065 kJ/mol
# GULP energy per Si atom -5578.172690 kJ/mol
# Density = 2.045831 g / cm^3
# Si number density = 20.504984 Si / 1000 Ang^3
#
#
#
# Elastic Constant Matrix: (Units=GPa)
#
#
# Indices 1 2 3 4 5 6 
#
# 1 82.9699 30.1847 44.4882 0.0000 0.0000 0.0000
# 2 30.1847 71.4791 46.8927 0.0000 0.0000 0.0000
# 3 44.4882 46.8927 209.5700 0.0000 0.0000 0.0000
# 4 0.0000 0.0000 0.0000 27.2753 0.0000 0.0000
# 5 0.0000 0.0000 0.0000 0.0000 16.2897 0.0000
# 6 0.0000 0.0000 0.0000 0.0000 0.0000 16.9516
#
#
#
# Elastic Compliance Matrix: (Units=1/GPa)
#
#
# Indices 1 2 3 4 5 6 
#
# 1 0.014967 -0.004965 -0.002066 0.000000 0.000000 0.000000
# 2 -0.004965 0.018044 -0.002984 0.000000 0.000000 0.000000
# 3 -0.002066 -0.002984 0.005878 0.000000 0.000000 0.000000
# 4 0.000000 0.000000 0.000000 0.036663 0.000000 0.000000
# 5 0.000000 0.000000 0.000000 0.000000 0.061388 0.000000
# 6 0.000000 0.000000 0.000000 0.000000 0.000000 0.058992
#
#
# Mechanical properties :
#
#
# Convention : Reuss Voigt Hill
#
# Bulk Modulus (GPa) = 53.02369 67.46112 60.24240
# Shear Modulus (GPa) = 22.49746 28.26687 25.38217
#
# Velocity S-wave (km/s) = 3.31595 3.71689 3.52213
# Velocity P-wave (km/s) = 6.36991 7.16880 6.78113
#
# Compressibility (1/GPa) = 0.01885949
#
# Stress axis : x y z
#
# Youngs Moduli (GPa) = 66.81511 55.42033 170.12879
#
# Poissons Ratio (x) = 0.27514 0.35154
# Poissons Ratio (y) = 0.33172 0.50758
# Poissons Ratio (z) = 0.13806 0.16535
#
# Static dielectric constant tensor:
#      x y z
#    x 1.696720 0.000000 0.000000 
#    y 0.000000 1.740140 0.000000 
#    z 0.000000 0.000000 1.760380 
# 
# From -- ./inp_files/35850.got.cif
#   From: 2010.05.17/outbox.cif.g08.bks.cpg/sg71_18_cif.got.tgz:35850.got - 2010.06.03 16:22:01.
