data_PCOD9523654
_publ_section_title
;
Structure prediction by ZEFSAII (Michael W. Deem and Ramdas Pophale) SiO2 
 PCOD9523654
Probable space group: I M M M
;
_chemical_formula_sum "Si O2"
_cell_formula_units_Z 72
_cell_length_a 9.826114
_cell_length_b 20.085059
_cell_length_c 19.595286
_cell_angle_alpha 90.000000
_cell_angle_beta 90.000000
_cell_angle_gamma 90.000000
_cell_volume 3867.288011
_symmetry_space_group_name_H-M "I M M M"
_symmetry_group_IT_number 71
_symmetry_cell_setting 'orthorhombic'
loop_
_space_group_symop_operation_xyz
x,y,z
-x,-y,z
x,-y,-z
-x,y,-z
-x,-y,-z
x,y,-z
-x,y,z
x,-y,z
1/2+x,1/2+y,1/2+z
1/2-x,1/2-y,1/2+z
1/2+x,1/2-y,1/2-z
1/2-x,1/2+y,1/2-z
1/2-x,1/2-y,1/2-z
1/2+x,1/2+y,1/2-z
1/2-x,1/2+y,1/2+z
1/2+x,1/2-y,1/2+z
loop_
_atom_site_type_symbol
_atom_site_label
_atom_site_fract_x
_atom_site_fract_y
_atom_site_fract_z
Si Si1 0.841736 0.696572 0.078645
Si Si2 0.344485 0.080428 0.000000
Si Si3 0.342740 0.425688 0.916849
Si Si4 0.161328 0.078066 0.869158
Si Si5 0.342632 0.706417 0.701483
O O1 0.750408 0.635500 0.104870
O O2 0.829215 0.760073 0.126823
O O3 0.000000 0.675949 0.079671
O O4 0.804990 0.711509 0.000000
O O5 0.256865 0.096595 0.932910
O O6 0.500000 0.106548 0.000000
O O7 0.353546 0.000000 0.000000
O O8 0.500000 0.415972 0.896693
O O9 0.299646 0.500000 0.894705
O O10 0.338887 0.425946 0.000000
O O11 0.191857 0.128838 0.807854
O O12 0.000000 0.086688 0.886438
O O13 0.181372 0.000000 0.853164
O O14 0.500000 0.711820 0.722808
O O15 0.250000 0.750000 0.750000
#
# Coordination Sequence:
#
# PCOD9523654 Si02
#       5
#    16   8  16  16  16
#     4   9  18  32  51  75 102 135 175 217 264 319
#     4   9  17  29  49  83 119 143 170 219 278 327
#     4   8  14  26  45  70 100 131 165 210 259 302
#     4   9  18  34  57  81 106 143 188 228 271 328
#     4  10  22  38  56  77 108 145 181 223 271 326
#
# _framework density 18.617698000000001
#
# number of rings (size 3 to 8) (size 9 to 14) (size 15 to 20)
#    0.000    3.000    0.000    1.000    1.556    3.556 
#    0.000    3.333    0.000    4.000    0.000    0.000 
#    0.000    0.000    0.000    0.000    0.000    0.000 
#
# Total GULP energy -200596.806636 kJ/mol
# GULP energy per Si atom -5572.133518 kJ/mol
# Density = 1.857532 g / cm^3
# Si number density = 18.617698 Si / 1000 Ang^3
#
#
#
# Elastic Constant Matrix: (Units=GPa)
#
#
# Indices 1 2 3 4 5 6 
#
# 1 65.1682 57.6350 37.1933 0.0000 0.0000 0.0000
# 2 57.6350 100.1709 30.9089 0.0000 0.0000 0.0000
# 3 37.1933 30.9089 43.4453 0.0000 0.0000 0.0000
# 4 0.0000 0.0000 0.0000 24.5943 0.0000 0.0000
# 5 0.0000 0.0000 0.0000 0.0000 24.1834 0.0000
# 6 0.0000 0.0000 0.0000 0.0000 0.0000 25.6356
#
#
#
# Elastic Compliance Matrix: (Units=1/GPa)
#
#
# Indices 1 2 3 4 5 6 
#
# 1 0.047854 -0.019081 -0.027392 0.000000 0.000000 0.000000
# 2 -0.019081 0.020399 0.001822 0.000000 0.000000 0.000000
# 3 -0.027392 0.001822 0.045171 0.000000 0.000000 0.000000
# 4 0.000000 0.000000 0.000000 0.040660 0.000000 0.000000
# 5 0.000000 0.000000 0.000000 0.000000 0.041351 0.000000
# 6 0.000000 0.000000 0.000000 0.000000 0.000000 0.039008
#
#
# Mechanical properties :
#
#
# Convention : Reuss Voigt Hill
#
# Bulk Modulus (GPa) = 41.45544 51.13984 46.29764
# Shear Modulus (GPa) = 15.06993 20.41914 17.74453
#
# Velocity S-wave (km/s) = 2.84815 3.31533 3.09058
# Velocity P-wave (km/s) = 5.75595 6.49486 6.13654
#
# Compressibility (1/GPa) = 0.02412229
#
# Stress axis : x y z
#
# Youngs Moduli (GPa) = 20.89685 49.02100 22.13803
#
# Poissons Ratio (x) = 0.93539 0.60641
# Poissons Ratio (y) = 0.39874 -0.04035
# Poissons Ratio (z) = 0.57241 -0.08934
#
# Static dielectric constant tensor:
#      x y z
#    x 1.632570 0.000000 0.000000 
#    y 0.000000 1.664840 0.000000 
#    z 0.000000 0.000000 1.654340 
# 
# From -- ./inp_files/9908.got.cif
#   From: 2010.05.17/outbox.cif.g08.bks.cpg/sg71_5_cif.got.tgz:9908.got - 2010.06.03 16:22:01.
