data_PCOD9523035
_publ_section_title
;
Structure prediction by ZEFSAII (Michael W. Deem and Ramdas Pophale) SiO2 
 PCOD9523035
Probable space group: I M M M
;
_chemical_formula_sum "Si O2"
_cell_formula_units_Z 88
_cell_length_a 13.397811
_cell_length_b 13.461775
_cell_length_c 25.531750
_cell_angle_alpha 90.000000
_cell_angle_beta 90.000000
_cell_angle_gamma 90.000000
_cell_volume 4604.863465
_symmetry_space_group_name_H-M "I M M M"
_symmetry_group_IT_number 71
_symmetry_cell_setting 'orthorhombic'
loop_
_space_group_symop_operation_xyz
x,y,z
-x,-y,z
x,-y,-z
-x,y,-z
-x,-y,-z
x,y,-z
-x,y,z
x,-y,z
1/2+x,1/2+y,1/2+z
1/2-x,1/2-y,1/2+z
1/2+x,1/2-y,1/2-z
1/2-x,1/2+y,1/2-z
1/2-x,1/2-y,1/2-z
1/2+x,1/2+y,1/2-z
1/2-x,1/2+y,1/2+z
1/2+x,1/2-y,1/2+z
loop_
_atom_site_type_symbol
_atom_site_label
_atom_site_fract_x
_atom_site_fract_y
_atom_site_fract_z
Si Si1 0.000000 0.620026 0.134969
Si Si2 0.000000 0.383460 0.436974
Si Si3 0.000000 0.379575 0.746356
Si Si4 0.387995 0.618439 0.208987
Si Si5 0.819126 0.616346 0.940397
Si Si6 0.826774 0.745807 0.386141
Si Si7 0.721054 0.880975 0.795615
O O1 0.000000 0.657921 0.194008
O O2 0.096988 0.645107 0.101509
O O3 0.000000 0.500000 0.138484
O O4 0.905740 0.327591 0.412205
O O5 0.000000 0.500000 0.422466
O O6 0.000000 0.376099 0.500000
O O7 0.105838 0.354081 0.719601
O O8 0.000000 0.500000 0.747598
O O9 0.500000 0.639971 0.229311
O O10 0.381047 0.500000 0.200242
O O11 0.373129 0.674680 0.154393
O O12 0.299572 0.643407 0.249699
O O13 0.792494 0.500000 0.931802
O O14 0.728958 0.690199 0.929706
O O15 0.856040 0.624075 0.000000
O O16 0.757038 0.678333 0.348647
O O17 0.724630 0.000000 0.803204
#
# Coordination Sequence:
#
# PCOD9523035 Si02
#       7
#     8   8   8  16  16  16  16
#     4   9  17  33  57  83 115 151 184 222 278 341
#     4  11  25  43  62  83 110 147 195 254 308 349
#     4   9  17  31  53  82 111 142 182 225 272 331
#     4  10  21  37  55  81 120 157 188 223 277 346
#     4  10  21  37  58  85 117 152 191 240 294 346
#     4  12  21  38  58  86 112 148 197 238 286 344
#     4  10  21  36  56  84 118 154 190 233 282 339
#
# _framework density 19.110230000000001
#
# number of rings (size 3 to 8) (size 9 to 14) (size 15 to 20)
#    0.000    1.727    0.909    4.091    0.000    4.727 
#    1.636    0.000    0.000    2.182    0.000    0.000 
#    0.000    4.364    0.000    0.000    0.000    0.000 
#
# Total GULP energy -245754.558360 kJ/mol
# GULP energy per Si atom -5585.330872 kJ/mol
# Density = 1.906673 g / cm^3
# Si number density = 19.110230 Si / 1000 Ang^3
#
#
#
# Elastic Constant Matrix: (Units=GPa)
#
#
# Indices 1 2 3 4 5 6 
#
# 1 57.6250 32.1208 7.6842 0.0000 0.0000 0.0000
# 2 32.1208 85.9142 30.7405 0.0000 0.0000 0.0000
# 3 7.6842 30.7405 72.1916 0.0000 0.0000 0.0000
# 4 0.0000 0.0000 0.0000 36.4095 0.0000 0.0000
# 5 0.0000 0.0000 0.0000 0.0000 23.4710 0.0000
# 6 0.0000 0.0000 0.0000 0.0000 0.0000 30.7983
#
#
#
# Elastic Compliance Matrix: (Units=1/GPa)
#
#
# Indices 1 2 3 4 5 6 
#
# 1 0.022037 -0.008730 0.001372 0.000000 0.000000 0.000000
# 2 -0.008730 0.017190 -0.006391 0.000000 0.000000 0.000000
# 3 0.001372 -0.006391 0.016427 0.000000 0.000000 0.000000
# 4 0.000000 0.000000 0.000000 0.027465 0.000000 0.000000
# 5 0.000000 0.000000 0.000000 0.000000 0.042606 0.000000
# 6 0.000000 0.000000 0.000000 0.000000 0.000000 0.032469
#
#
# Mechanical properties :
#
#
# Convention : Reuss Voigt Hill
#
# Bulk Modulus (GPa) = 35.51563 39.64687 37.58125
# Shear Modulus (GPa) = 25.63093 27.81480 26.72286
#
# Velocity S-wave (km/s) = 3.66623 3.81923 3.74351
# Velocity P-wave (km/s) = 6.04538 6.34351 6.19624
#
# Compressibility (1/GPa) = 0.02815662
#
# Stress axis : x y z
#
# Youngs Moduli (GPa) = 45.37891 58.17390 60.87447
#
# Poissons Ratio (x) = 0.50784 -0.08350
# Poissons Ratio (y) = 0.39614 0.38902
# Poissons Ratio (z) = -0.06224 0.37176
#
# Static dielectric constant tensor:
#      x y z
#    x 1.693530 0.000000 0.000000 
#    y 0.000000 1.685180 0.000000 
#    z 0.000000 0.000000 1.636230 
# 
# From -- ./inp_files/64447.got.cif
#   From: 2010.05.17/outbox.cif.g08.bks.cpg/sg71_33_cif.got.tgz:64447.got - 2010.06.03 16:22:01.
