data_PCOD9523595
_publ_section_title
;
Structure prediction by ZEFSAII (Michael W. Deem and Ramdas Pophale) SiO2 
 PCOD9523595
Probable space group: I M M M
;
_chemical_formula_sum "Si O2"
_cell_formula_units_Z 66
_cell_length_a 12.021104
_cell_length_b 19.287412
_cell_length_c 16.492713
_cell_angle_alpha 90.000000
_cell_angle_beta 90.000000
_cell_angle_gamma 90.000000
_cell_volume 3823.934227
_symmetry_space_group_name_H-M "I M M M"
_symmetry_group_IT_number 71
_symmetry_cell_setting 'orthorhombic'
loop_
_space_group_symop_operation_xyz
x,y,z
-x,-y,z
x,-y,-z
-x,y,-z
-x,-y,-z
x,y,-z
-x,y,z
x,-y,z
1/2+x,1/2+y,1/2+z
1/2-x,1/2-y,1/2+z
1/2+x,1/2-y,1/2-z
1/2-x,1/2+y,1/2-z
1/2-x,1/2-y,1/2-z
1/2+x,1/2+y,1/2-z
1/2-x,1/2+y,1/2+z
1/2+x,1/2-y,1/2+z
loop_
_atom_site_type_symbol
_atom_site_label
_atom_site_fract_x
_atom_site_fract_y
_atom_site_fract_z
Si Si1 0.236691 0.293072 0.834024
Si Si2 0.760715 0.920422 0.771169
Si Si3 0.500000 0.243306 0.597189
Si Si4 0.000000 0.099026 0.846256
Si Si5 0.132892 0.328970 0.406555
Si Si6 0.000000 0.000000 0.000000
O O1 0.250000 0.250000 0.750000
O O2 0.257732 0.372058 0.808371
O O3 0.317356 0.248192 0.891807
O O4 0.112901 0.289829 0.869381
O O5 0.888221 0.919508 0.799471
O O6 0.690352 0.881462 0.842481
O O7 0.723809 0.000000 0.760699
O O8 0.500000 0.244794 0.500000
O O9 0.500000 0.320069 0.634044
O O10 0.000000 0.059156 0.929903
O O11 0.156732 0.349540 0.500000
O O12 0.000000 0.328555 0.394328
#
# Coordination Sequence:
#
# PCOD9523595 Si02
#       6
#    16  16   8   8  16   2
#     4  10  22  35  61  81 117 151 196 240 285 343
#     4  11  24  37  56  84 119 153 191 230 294 351
#     4  12  22  38  63  90 112 153 205 251 291 331
#     4  12  22  34  58  89 118 155 184 234 289 361
#     4  10  22  37  57  84 112 150 192 233 284 345
#     4  12  24  32  56  96 134 148 176 240 300 370
#
# _framework density 17.259710999999999
#
# number of rings (size 3 to 8) (size 9 to 14) (size 15 to 20)
#    0.000    1.212    6.667    0.727   10.182    0.970 
#    0.000    1.212    0.000    3.636    0.000    1.697 
#    0.000    0.000    0.000    0.000    0.000    0.000 
#
# Total GULP energy -183753.396847 kJ/mol
# GULP energy per Si atom -5568.284753 kJ/mol
# Density = 1.722043 g / cm^3
# Si number density = 17.259711 Si / 1000 Ang^3
#
#
#
# Elastic Constant Matrix: (Units=GPa)
#
#
# Indices 1 2 3 4 5 6 
#
# 1 98.3444 34.8948 17.8815 0.0000 0.0000 0.0000
# 2 34.8948 147.8976 29.6098 0.0000 0.0000 0.0000
# 3 17.8815 29.6098 28.2100 0.0000 0.0000 0.0000
# 4 0.0000 0.0000 0.0000 37.6482 0.0000 0.0000
# 5 0.0000 0.0000 0.0000 0.0000 52.8436 0.0000
# 6 0.0000 0.0000 0.0000 0.0000 0.0000 38.4307
#
#
#
# Elastic Compliance Matrix: (Units=1/GPa)
#
#
# Indices 1 2 3 4 5 6 
#
# 1 0.011795 -0.001628 -0.005767 0.000000 0.000000 0.000000
# 2 -0.001628 0.008785 -0.008189 0.000000 0.000000 0.000000
# 3 -0.005767 -0.008189 0.047700 0.000000 0.000000 0.000000
# 4 0.000000 0.000000 0.000000 0.026562 0.000000 0.000000
# 5 0.000000 0.000000 0.000000 0.000000 0.018924 0.000000
# 6 0.000000 0.000000 0.000000 0.000000 0.000000 0.026021
#
#
# Mechanical properties :
#
#
# Convention : Reuss Voigt Hill
#
# Bulk Modulus (GPa) = 26.94667 48.80270 37.87468
# Shear Modulus (GPa) = 27.27401 38.58889 32.93145
#
# Velocity S-wave (km/s) = 3.97950 4.73353 4.37280
# Velocity P-wave (km/s) = 6.06313 7.62968 6.89107
#
# Compressibility (1/GPa) = 0.03711034
#
# Stress axis : x y z
#
# Youngs Moduli (GPa) = 84.78371 113.82979 20.96456
#
# Poissons Ratio (x) = 0.18533 0.12091
# Poissons Ratio (y) = 0.13804 0.17168
# Poissons Ratio (z) = 0.48898 0.93214
#
# Static dielectric constant tensor:
#      x y z
#    x 1.626880 0.000000 0.000000 
#    y 0.000000 1.602460 0.000000 
#    z 0.000000 0.000000 1.579350 
# 
# From -- ./inp_files/32499.got.cif
#   From: 2010.05.17/outbox.cif.g08.bks.cpg/sg71_17_cif.got.tgz:32499.got - 2010.06.03 16:22:01.
