data_PCOD9523816
_publ_section_title
;
Structure prediction by ZEFSAII (Michael W. Deem and Ramdas Pophale) SiO2 
 PCOD9523816
Probable space group: I M M M
;
_chemical_formula_sum "Si O2"
_cell_formula_units_Z 104
_cell_length_a 8.505766
_cell_length_b 22.372929
_cell_length_c 28.123009
_cell_angle_alpha 90.000000
_cell_angle_beta 90.000000
_cell_angle_gamma 90.000000
_cell_volume 5351.777644
_symmetry_space_group_name_H-M "I M M M"
_symmetry_group_IT_number 71
_symmetry_cell_setting 'orthorhombic'
loop_
_space_group_symop_operation_xyz
x,y,z
-x,-y,z
x,-y,-z
-x,y,-z
-x,-y,-z
x,y,-z
-x,y,z
x,-y,z
1/2+x,1/2+y,1/2+z
1/2-x,1/2-y,1/2+z
1/2+x,1/2-y,1/2-z
1/2-x,1/2+y,1/2-z
1/2-x,1/2-y,1/2-z
1/2+x,1/2+y,1/2-z
1/2-x,1/2+y,1/2+z
1/2+x,1/2-y,1/2+z
loop_
_atom_site_type_symbol
_atom_site_label
_atom_site_fract_x
_atom_site_fract_y
_atom_site_fract_z
Si Si1 0.675980 0.500000 0.944313
Si Si2 0.810282 0.069394 0.814658
Si Si3 0.183375 0.607344 0.108391
Si Si4 0.812135 0.681535 0.370534
Si Si5 0.184716 0.723658 0.798114
Si Si6 0.688565 0.276298 0.945509
Si Si7 0.682343 0.595543 0.794092
O O1 0.500000 0.500000 0.922374
O O2 0.768108 0.559022 0.930151
O O3 0.658449 0.500000 0.000000
O O4 0.737234 0.115617 0.852562
O O5 0.758398 0.081829 0.759465
O O6 0.000000 0.077590 0.815140
O O7 0.775672 0.000000 0.825266
O O8 0.253948 0.670555 0.089514
O O9 0.235376 0.574654 0.157773
O O10 0.000000 0.618068 0.112406
O O11 0.716433 0.726083 0.336646
O O12 0.778427 0.710772 0.422306
O O13 0.000000 0.687427 0.362662
O O14 0.250000 0.750000 0.750000
O O15 0.290993 0.665563 0.803887
O O16 0.000000 0.708272 0.795752
O O17 0.500000 0.282055 0.947076
O O18 0.747953 0.282029 0.000000
O O19 0.500000 0.578455 0.794737
#
# Coordination Sequence:
#
# PCOD9523816 Si02
#       7
#     8  16  16  16  16  16  16
#     4  11  25  45  65  81 109 161 215 259 308 363
#     4  10  23  41  61  86 119 161 204 249 302 362
#     4  12  25  39  59  90 124 158 202 255 307 360
#     4  11  22  37  61  89 119 157 199 249 306 365
#     4  12  22  34  55  85 119 154 192 237 289 345
#     4  10  22  41  64  89 119 156 200 250 309 372
#     4  11  22  37  58  84 118 159 200 240 290 354
#
# _framework density 19.432796
#
# number of rings (size 3 to 8) (size 9 to 14) (size 15 to 20)
#    0.000    1.000    3.077    4.385    1.077    4.308 
#    0.000    0.000    0.000    0.462    0.000    3.231 
#    0.000    0.000    0.000    0.000    0.000    0.000 
#
# Total GULP energy -289891.668577 kJ/mol
# GULP energy per Si atom -5574.839780 kJ/mol
# Density = 1.938857 g / cm^3
# Si number density = 19.432796 Si / 1000 Ang^3
#
#
#
# Elastic Constant Matrix: (Units=GPa)
#
#
# Indices 1 2 3 4 5 6 
#
# 1 54.0396 14.7085 30.0758 0.0000 0.0000 0.0000
# 2 14.7085 114.9212 45.0417 0.0000 0.0000 0.0000
# 3 30.0758 45.0417 95.4078 0.0000 0.0000 0.0000
# 4 0.0000 0.0000 0.0000 61.4355 0.0000 0.0000
# 5 0.0000 0.0000 0.0000 0.0000 13.1367 0.0000
# 6 0.0000 0.0000 0.0000 0.0000 0.0000 39.8413
#
#
#
# Elastic Compliance Matrix: (Units=1/GPa)
#
#
# Indices 1 2 3 4 5 6 
#
# 1 0.022444 -0.000122 -0.007017 0.000000 0.000000 0.000000
# 2 -0.000122 0.010678 -0.005002 0.000000 0.000000 0.000000
# 3 -0.007017 -0.005002 0.015055 0.000000 0.000000 0.000000
# 4 0.000000 0.000000 0.000000 0.016277 0.000000 0.000000
# 5 0.000000 0.000000 0.000000 0.000000 0.076122 0.000000
# 6 0.000000 0.000000 0.000000 0.000000 0.000000 0.025100
#
#
# Mechanical properties :
#
#
# Convention : Reuss Voigt Hill
#
# Bulk Modulus (GPa) = 41.85379 49.33562 45.59471
# Shear Modulus (GPa) = 25.26220 34.51888 29.89054
#
# Velocity S-wave (km/s) = 3.60943 4.21921 3.92618
# Velocity P-wave (km/s) = 6.24140 7.01275 6.63829
#
# Compressibility (1/GPa) = 0.02389270
#
# Stress axis : x y z
#
# Youngs Moduli (GPa) = 44.55586 93.65141 66.42273
#
# Poissons Ratio (x) = 0.01144 0.46611
# Poissons Ratio (y) = 0.00544 0.33228
# Poissons Ratio (z) = 0.31266 0.46849
#
# Static dielectric constant tensor:
#      x y z
#    x 1.682670 0.000000 0.000000 
#    y 0.000000 1.645810 0.000000 
#    z 0.000000 0.000000 1.570580 
# 
# From -- ./inp_files/63286.got.cif
#   From: 2010.05.17/outbox.cif.g08.bks.cpg/sg71_32_cif.got.tgz:63286.got - 2010.06.03 16:22:01.
