data_PCOD9523332
_publ_section_title
;
Structure prediction by ZEFSAII (Michael W. Deem and Ramdas Pophale) SiO2 
 PCOD9523332
Probable space group: I M M M
;
_chemical_formula_sum "Si O2"
_cell_formula_units_Z 74
_cell_length_a 15.817865
_cell_length_b 8.044469
_cell_length_c 28.505387
_cell_angle_alpha 90.000000
_cell_angle_beta 90.000000
_cell_angle_gamma 90.000000
_cell_volume 3627.205728
_symmetry_space_group_name_H-M "I M M M"
_symmetry_group_IT_number 71
_symmetry_cell_setting 'orthorhombic'
loop_
_space_group_symop_operation_xyz
x,y,z
-x,-y,z
x,-y,-z
-x,y,-z
-x,-y,-z
x,y,-z
-x,y,z
x,-y,z
1/2+x,1/2+y,1/2+z
1/2-x,1/2-y,1/2+z
1/2+x,1/2-y,1/2-z
1/2-x,1/2+y,1/2-z
1/2-x,1/2-y,1/2-z
1/2+x,1/2+y,1/2-z
1/2-x,1/2+y,1/2+z
1/2+x,1/2-y,1/2+z
loop_
_atom_site_type_symbol
_atom_site_label
_atom_site_fract_x
_atom_site_fract_y
_atom_site_fract_z
Si Si1 0.676762 0.691956 0.124336
Si Si2 0.500000 0.795125 0.712889
Si Si3 0.000000 0.500000 0.500000
Si Si4 0.000000 0.812132 0.570591
Si Si5 0.175468 0.703401 0.945681
Si Si6 0.661458 0.805906 0.229748
Si Si7 0.000000 0.702523 0.103580
O O1 0.700952 0.500000 0.133670
O O2 0.586020 0.695469 0.099957
O O3 0.748336 0.758837 0.088598
O O4 0.664948 0.774195 0.174501
O O5 0.417922 0.733653 0.741512
O O6 0.500000 0.744734 0.658151
O O7 0.500000 0.000000 0.712320
O O8 0.000000 0.350952 0.539333
O O9 0.000000 0.000000 0.549469
O O10 0.177515 0.500000 0.946565
O O11 0.085342 0.753922 0.923576
O O12 0.185155 0.757534 0.000000
O O13 0.750000 0.750000 0.250000
O O14 0.654394 0.000000 0.237365
O O15 0.000000 0.500000 0.103378
#
# Coordination Sequence:
#
# PCOD9523332 Si02
#       7
#    16   8   2   8  16  16   8
#     4  10  21  38  58  83 120 159 201 249 303 362
#     4   9  19  34  55  81 111 149 186 235 298 360
#     4  12  26  40  68  90 128 166 222 256 320 370
#     4  10  24  42  64  93 128 168 210 262 314 375
#     4   9  17  29  50  79 112 148 185 233 291 350
#     4  11  22  37  59  86 118 154 200 250 307 371
#     4   9  15  27  48  77 110 142 185 233 286 352
#
# _framework density 20.401378000000001
#
# number of rings (size 3 to 8) (size 9 to 14) (size 15 to 20)
#    0.000    2.162    0.000    3.081    3.027    4.757 
#    0.000    1.622    0.000    0.000    0.000    0.000 
#    0.000    4.324    0.000    0.108    0.000    0.000 
#
# Total GULP energy -206164.133093 kJ/mol
# GULP energy per Si atom -5572.003597 kJ/mol
# Density = 2.035494 g / cm^3
# Si number density = 20.401378 Si / 1000 Ang^3
#
#
#
# Elastic Constant Matrix: (Units=GPa)
#
#
# Indices 1 2 3 4 5 6 
#
# 1 147.0084 4.2886 70.0309 0.0000 0.0000 0.0000
# 2 4.2886 51.4854 18.8196 0.0000 0.0000 0.0000
# 3 70.0309 18.8196 140.8306 0.0000 0.0000 0.0000
# 4 0.0000 0.0000 0.0000 35.2887 0.0000 0.0000
# 5 0.0000 0.0000 0.0000 0.0000 18.8391 0.0000
# 6 0.0000 0.0000 0.0000 0.0000 0.0000 0.9068
#
#
#
# Elastic Compliance Matrix: (Units=1/GPa)
#
#
# Indices 1 2 3 4 5 6 
#
# 1 0.008956 0.000927 -0.004577 0.000000 0.000000 0.000000
# 2 0.000927 0.020516 -0.003203 0.000000 0.000000 0.000000
# 3 -0.004577 -0.003203 0.009805 0.000000 0.000000 0.000000
# 4 0.000000 0.000000 0.000000 0.028338 0.000000 0.000000
# 5 0.000000 0.000000 0.000000 0.000000 0.053081 0.000000
# 6 0.000000 0.000000 0.000000 0.000000 0.000000 1.102784
#
#
# Mechanical properties :
#
#
# Convention : Reuss Voigt Hill
#
# Bulk Modulus (GPa) = 39.10628 58.40030 48.75329
# Shear Modulus (GPa) = 4.01377 27.41926 15.71652
#
# Velocity S-wave (km/s) = 1.40416 3.67002 2.77856
# Velocity P-wave (km/s) = 4.67322 6.82983 5.85173
#
# Compressibility (1/GPa) = 0.02557134
#
# Stress axis : x y z
#
# Youngs Moduli (GPa) = 111.65924 48.74135 101.98969
#
# Poissons Ratio (x) = -0.04519 0.46684
# Poissons Ratio (y) = -0.10353 0.32665
# Poissons Ratio (z) = 0.51111 0.15611
#
# Static dielectric constant tensor:
#      x y z
#    x 1.727550 0.000000 0.000000 
#    y 0.000000 1.760920 0.000000 
#    z 0.000000 0.000000 1.673360 
# 
# From -- ./inp_files/65212.got.cif
#   From: 2010.05.17/outbox.cif.g08.bks.cpg/sg71_33_cif.got.tgz:65212.got - 2010.06.03 16:22:01.
