data_PCOD9523244
_publ_section_title
;
Structure prediction by ZEFSAII (Michael W. Deem and Ramdas Pophale) SiO2 
 PCOD9523244
Probable space group: I M M M
;
_chemical_formula_sum "Si O2"
_cell_formula_units_Z 100
_cell_length_a 16.503087
_cell_length_b 16.978178
_cell_length_c 20.426158
_cell_angle_alpha 90.000000
_cell_angle_beta 90.000000
_cell_angle_gamma 90.000000
_cell_volume 5723.253184
_symmetry_space_group_name_H-M "I M M M"
_symmetry_group_IT_number 71
_symmetry_cell_setting 'orthorhombic'
loop_
_space_group_symop_operation_xyz
x,y,z
-x,-y,z
x,-y,-z
-x,y,-z
-x,-y,-z
x,y,-z
-x,y,z
x,-y,z
1/2+x,1/2+y,1/2+z
1/2-x,1/2-y,1/2+z
1/2+x,1/2-y,1/2-z
1/2-x,1/2+y,1/2-z
1/2-x,1/2-y,1/2-z
1/2+x,1/2+y,1/2-z
1/2-x,1/2+y,1/2+z
1/2+x,1/2-y,1/2+z
loop_
_atom_site_type_symbol
_atom_site_label
_atom_site_fract_x
_atom_site_fract_y
_atom_site_fract_z
Si Si1 0.090545 0.094281 0.735957
Si Si2 0.594620 0.088310 0.886255
Si Si3 0.769390 0.304751 0.574531
Si Si4 0.248623 0.813587 0.308675
Si Si5 0.877261 0.906555 0.110974
Si Si6 0.092333 0.407180 0.228724
Si Si7 0.000000 0.855350 0.000000
O O1 0.167658 0.134800 0.702489
O O2 0.097574 0.108511 0.814178
O O3 0.000000 0.120651 0.714748
O O4 0.095442 0.000000 0.726731
O O5 0.500000 0.090446 0.901799
O O6 0.641827 0.158304 0.920126
O O7 0.602386 0.098320 0.807512
O O8 0.624745 0.000000 0.903077
O O9 0.749498 0.285333 0.500000
O O10 0.757228 0.232463 0.623254
O O11 0.712916 0.375551 0.600854
O O12 0.250000 0.750000 0.250000
O O13 0.332650 0.861758 0.303273
O O14 0.930723 0.862158 0.057725
O O15 0.885938 0.000000 0.098541
O O16 0.096467 0.500000 0.212405
O O17 0.000000 0.379547 0.212953
#
# Coordination Sequence:
#
# PCOD9523244 Si02
#       7
#    16  16  16  16  16  16   4
#     4  10  21  37  59  84 109 142 188 234 272 318
#     4   9  18  34  56  81 109 145 187 223 259 316
#     4  12  25  37  49  77 116 152 183 219 278 327
#     4  12  22  36  56  85 112 147 185 227 276 327
#     4  11  20  33  53  79 113 151 186 212 250 324
#     4   9  18  36  62  86 107 137 182 233 278 320
#     4  12  21  32  52  80 118 158 183 202 249 328
#
# _framework density 17.472580000000001
#
# number of rings (size 3 to 8) (size 9 to 14) (size 15 to 20)
#    0.000    1.440    4.800    2.640    0.000    5.120 
#    1.440    0.800    0.000    1.920    0.000    2.240 
#    0.000    0.000    0.000    0.000    0.000    0.000 
#
# Total GULP energy -278511.706339 kJ/mol
# GULP energy per Si atom -5570.234127 kJ/mol
# Density = 1.743281 g / cm^3
# Si number density = 17.472580 Si / 1000 Ang^3
#
#
#
# Elastic Constant Matrix: (Units=GPa)
#
#
# Indices 1 2 3 4 5 6 
#
# 1 123.5239 48.4039 33.9169 0.0000 0.0000 0.0000
# 2 48.4039 44.8837 27.8626 0.0000 0.0000 0.0000
# 3 33.9169 27.8626 56.2187 0.0000 0.0000 0.0000
# 4 0.0000 0.0000 0.0000 10.9753 0.0000 0.0000
# 5 0.0000 0.0000 0.0000 0.0000 12.9482 0.0000
# 6 0.0000 0.0000 0.0000 0.0000 0.0000 13.3766
#
#
#
# Elastic Compliance Matrix: (Units=1/GPa)
#
#
# Indices 1 2 3 4 5 6 
#
# 1 0.014097 -0.014332 -0.001401 0.000000 0.000000 0.000000
# 2 -0.014332 0.046753 -0.014524 0.000000 0.000000 0.000000
# 3 -0.001401 -0.014524 0.025831 0.000000 0.000000 0.000000
# 4 0.000000 0.000000 0.000000 0.091113 0.000000 0.000000
# 5 0.000000 0.000000 0.000000 0.000000 0.077231 0.000000
# 6 0.000000 0.000000 0.000000 0.000000 0.000000 0.074757
#
#
# Mechanical properties :
#
#
# Convention : Reuss Voigt Hill
#
# Bulk Modulus (GPa) = 38.21932 49.44367 43.83150
# Shear Modulus (GPa) = 12.53071 15.08955 13.81013
#
# Velocity S-wave (km/s) = 2.68090 2.94192 2.81443
# Velocity P-wave (km/s) = 5.61287 6.31658 5.97509
#
# Compressibility (1/GPa) = 0.02616477
#
# Stress axis : x y z
#
# Youngs Moduli (GPa) = 70.93902 21.38921 38.71243
#
# Poissons Ratio (x) = 0.30656 0.05425
# Poissons Ratio (y) = 1.01672 0.56227
# Poissons Ratio (z) = 0.09940 0.31066
#
# Static dielectric constant tensor:
#      x y z
#    x 1.674640 0.000000 0.000000 
#    y 0.000000 1.611320 0.000000 
#    z 0.000000 0.000000 1.577880 
# 
# From -- ./inp_files/53201.got.cif
#   From: 2010.05.17/outbox.cif.g08.bks.cpg/sg71_27_cif.got.tgz:53201.got - 2010.06.03 16:22:01.
