data_PCOD9523171
_publ_section_title
;
Structure prediction by ZEFSAII (Michael W. Deem and Ramdas Pophale) SiO2 
 PCOD9523171
Probable space group: I M M M
;
_chemical_formula_sum "Si O2"
_cell_formula_units_Z 88
_cell_length_a 19.288075
_cell_length_b 8.944038
_cell_length_c 25.046530
_cell_angle_alpha 90.000000
_cell_angle_beta 90.000000
_cell_angle_gamma 90.000000
_cell_volume 4320.858936
_symmetry_space_group_name_H-M "I M M M"
_symmetry_group_IT_number 71
_symmetry_cell_setting 'orthorhombic'
loop_
_space_group_symop_operation_xyz
x,y,z
-x,-y,z
x,-y,-z
-x,y,-z
-x,-y,-z
x,y,-z
-x,y,z
x,-y,z
1/2+x,1/2+y,1/2+z
1/2-x,1/2-y,1/2+z
1/2+x,1/2-y,1/2-z
1/2-x,1/2+y,1/2-z
1/2-x,1/2-y,1/2-z
1/2+x,1/2+y,1/2-z
1/2-x,1/2+y,1/2+z
1/2+x,1/2-y,1/2+z
loop_
_atom_site_type_symbol
_atom_site_label
_atom_site_fract_x
_atom_site_fract_y
_atom_site_fract_z
Si Si1 0.000000 0.170877 0.435261
Si Si2 0.922927 0.680444 0.723693
Si Si3 0.359364 0.179324 0.665833
Si Si4 0.645338 0.822973 0.936847
Si Si5 0.704671 0.321859 0.839577
Si Si6 0.917553 0.179085 0.940693
O O1 0.069444 0.259956 0.421413
O O2 0.000000 0.162979 0.500000
O O3 0.000000 0.000000 0.415055
O O4 0.919949 0.500000 0.719268
O O5 0.910120 0.720729 0.785759
O O6 0.859257 0.748018 0.691172
O O7 0.000000 0.729345 0.706565
O O8 0.280631 0.221989 0.681256
O O9 0.380276 0.248800 0.609573
O O10 0.361085 0.000000 0.660638
O O11 0.699102 0.735231 0.900403
O O12 0.648406 0.000000 0.926690
O O13 0.655292 0.798426 0.000000
O O14 0.697896 0.500000 0.837259
O O15 0.000000 0.209964 0.936994
O O16 0.908786 0.000000 0.938431
O O17 0.894010 0.228979 0.000000
#
# Coordination Sequence:
#
# PCOD9523171 Si02
#       6
#     8  16  16  16  16  16
#     4   9  17  31  53  79 107 141 183 235 288 333
#     4  10  22  41  64  87 113 148 193 246 300 355
#     4  10  22  40  61  87 119 157 197 240 296 354
#     4  10  21  37  57  81 112 153 197 237 285 346
#     4  11  24  39  58  86 120 155 195 245 296 351
#     4   9  19  36  59  90 126 161 198 241 289 344
#
# _framework density 20.366320999999999
#
# number of rings (size 3 to 8) (size 9 to 14) (size 15 to 20)
#    0.000    2.091    0.000    3.000    1.273    6.909 
#    0.000    4.545    0.000    0.000    0.000    0.000 
#    0.000    0.000    0.000    0.000    0.000    0.000 
#
# Total GULP energy -245813.814397 kJ/mol
# GULP energy per Si atom -5586.677600 kJ/mol
# Density = 2.031997 g / cm^3
# Si number density = 20.366321 Si / 1000 Ang^3
#
#
#
# Elastic Constant Matrix: (Units=GPa)
#
#
# Indices 1 2 3 4 5 6 
#
# 1 84.7633 30.8666 37.9532 0.0000 0.0000 0.0000
# 2 30.8666 26.3935 20.8098 0.0000 0.0000 0.0000
# 3 37.9532 20.8098 92.8539 0.0000 0.0000 0.0000
# 4 0.0000 0.0000 0.0000 31.2413 0.0000 0.0000
# 5 0.0000 0.0000 0.0000 0.0000 27.4863 0.0000
# 6 0.0000 0.0000 0.0000 0.0000 0.0000 26.9763
#
#
#
# Elastic Compliance Matrix: (Units=1/GPa)
#
#
# Indices 1 2 3 4 5 6 
#
# 1 0.021626 -0.022254 -0.003852 0.000000 0.000000 0.000000
# 2 -0.022254 0.068921 -0.006350 0.000000 0.000000 0.000000
# 3 -0.003852 -0.006350 0.013767 0.000000 0.000000 0.000000
# 4 0.000000 0.000000 0.000000 0.032009 0.000000 0.000000
# 5 0.000000 0.000000 0.000000 0.000000 0.036382 0.000000
# 6 0.000000 0.000000 0.000000 0.000000 0.000000 0.037070
#
#
# Mechanical properties :
#
#
# Convention : Reuss Voigt Hill
#
# Bulk Modulus (GPa) = 25.37958 42.58554 33.98256
# Shear Modulus (GPa) = 17.37192 24.76617 21.06904
#
# Velocity S-wave (km/s) = 2.92374 3.49095 3.21986
# Velocity P-wave (km/s) = 4.88736 6.09952 5.52677
#
# Compressibility (1/GPa) = 0.03940175
#
# Stress axis : x y z
#
# Youngs Moduli (GPa) = 46.23994 14.50942 72.63668
#
# Poissons Ratio (x) = 0.32290 0.27980
# Poissons Ratio (y) = 1.02904 0.46122
# Poissons Ratio (z) = 0.17812 0.09213
#
# Static dielectric constant tensor:
#      x y z
#    x 1.732260 0.000000 0.000000 
#    y 0.000000 1.680470 0.000000 
#    z 0.000000 0.000000 1.740250 
# 
# From -- ./inp_files/12493.got.cif
#   From: 2010.05.17/outbox.cif.g08.bks.cpg/sg71_7_cif.got.tgz:12493.got - 2010.06.03 16:22:01.
