data_PCOD9523607
_publ_section_title
;
Structure prediction by ZEFSAII (Michael W. Deem and Ramdas Pophale) SiO2 
 PCOD9523607
Probable space group: I M M M
;
_chemical_formula_sum "Si O2"
_cell_formula_units_Z 90
_cell_length_a 7.871184
_cell_length_b 24.967608
_cell_length_c 26.829129
_cell_angle_alpha 90.000000
_cell_angle_beta 90.000000
_cell_angle_gamma 90.000000
_cell_volume 5272.584827
_symmetry_space_group_name_H-M "I M M M"
_symmetry_group_IT_number 71
_symmetry_cell_setting 'orthorhombic'
loop_
_space_group_symop_operation_xyz
x,y,z
-x,-y,z
x,-y,-z
-x,y,-z
-x,-y,-z
x,y,-z
-x,y,z
x,-y,z
1/2+x,1/2+y,1/2+z
1/2-x,1/2-y,1/2+z
1/2+x,1/2-y,1/2-z
1/2-x,1/2+y,1/2-z
1/2-x,1/2-y,1/2-z
1/2+x,1/2+y,1/2-z
1/2-x,1/2+y,1/2+z
1/2+x,1/2-y,1/2+z
loop_
_atom_site_type_symbol
_atom_site_label
_atom_site_fract_x
_atom_site_fract_y
_atom_site_fract_z
Si Si1 0.500000 0.564044 0.301185
Si Si2 0.297638 0.500000 0.943924
Si Si3 0.203489 0.795033 0.443438
Si Si4 0.000000 0.095861 0.916254
Si Si5 0.695667 0.175876 0.060171
Si Si6 0.798841 0.602918 0.120686
Si Si7 0.299672 0.935172 0.271548
Si Si8 0.500000 0.500000 0.500000
O O1 0.500000 0.500000 0.297711
O O2 0.500000 0.578310 0.358907
O O3 0.670986 0.581598 0.272147
O O4 0.500000 0.500000 0.947371
O O5 0.247469 0.552846 0.914035
O O6 0.226322 0.500000 0.000000
O O7 0.269047 0.805489 0.500000
O O8 0.256819 0.735828 0.425821
O O9 0.243647 0.842651 0.405953
O O10 0.000000 0.791734 0.447292
O O11 0.168609 0.131693 0.924462
O O12 0.000000 0.047307 0.955894
O O13 0.500000 0.166705 0.077410
O O14 0.689863 0.176325 0.000000
O O15 0.737755 0.591466 0.176787
O O16 0.000000 0.604068 0.124758
O O17 0.500000 0.922751 0.262328
O O18 0.290632 0.000000 0.277940
#
# Coordination Sequence:
#
# PCOD9523607 Si02
#       8
#     8   8  16   8  16  16  16   2
#     4  10  22  36  60  86 110 150 184 228 285 346
#     4  11  23  33  44  69 111 156 188 235 309 354
#     4   9  19  34  52  80 112 147 201 243 276 337
#     4  12  22  40  64  92 130 145 181 219 288 347
#     4   9  19  37  60  85 117 161 193 221 269 334
#     4  11  21  32  51  78 107 146 196 249 299 339
#     4   9  19  36  54  78 108 145 199 241 282 337
#     4  12  24  40  62 104 136 150 156 242 268 356
#
# _framework density 17.069427999999998
#
# number of rings (size 3 to 8) (size 9 to 14) (size 15 to 20)
#    0.000    2.044    2.222    2.400    3.733    3.911 
#    0.000    0.889    0.000    1.067    0.000    0.000 
#    0.000    0.000    0.000    0.000    0.000    0.000 
#
# Total GULP energy -250592.327668 kJ/mol
# GULP energy per Si atom -5568.718393 kJ/mol
# Density = 1.703058 g / cm^3
# Si number density = 17.069428 Si / 1000 Ang^3
#
#
#
# Elastic Constant Matrix: (Units=GPa)
#
#
# Indices 1 2 3 4 5 6 
#
# 1 67.2165 48.8348 46.7097 0.0000 0.0000 0.0000
# 2 48.8348 108.6150 64.6560 0.0000 0.0000 0.0000
# 3 46.7097 64.6560 135.2128 0.0000 0.0000 0.0000
# 4 0.0000 0.0000 0.0000 18.6725 0.0000 0.0000
# 5 0.0000 0.0000 0.0000 0.0000 28.0103 0.0000
# 6 0.0000 0.0000 0.0000 0.0000 0.0000 17.6684
#
#
#
# Elastic Compliance Matrix: (Units=1/GPa)
#
#
# Indices 1 2 3 4 5 6 
#
# 1 0.023785 -0.008112 -0.004338 0.000000 0.000000 0.000000
# 2 -0.008112 0.015637 -0.004675 0.000000 0.000000 0.000000
# 3 -0.004338 -0.004675 0.011130 0.000000 0.000000 0.000000
# 4 0.000000 0.000000 0.000000 0.053555 0.000000 0.000000
# 5 0.000000 0.000000 0.000000 0.000000 0.035701 0.000000
# 6 0.000000 0.000000 0.000000 0.000000 0.000000 0.056598
#
#
# Mechanical properties :
#
#
# Convention : Reuss Voigt Hill
#
# Bulk Modulus (GPa) = 61.34006 70.16060 65.75033
# Shear Modulus (GPa) = 21.17841 22.92650 22.05246
#
# Velocity S-wave (km/s) = 3.52621 3.66885 3.59824
# Velocity P-wave (km/s) = 7.25207 7.69023 7.47436
#
# Compressibility (1/GPa) = 0.01630256
#
# Stress axis : x y z
#
# Youngs Moduli (GPa) = 42.04280 63.95072 89.84975
#
# Poissons Ratio (x) = 0.51877 0.38974
# Poissons Ratio (y) = 0.34105 0.42004
# Poissons Ratio (z) = 0.18237 0.29897
#
# Static dielectric constant tensor:
#      x y z
#    x 1.606130 0.000000 0.000000 
#    y 0.000000 1.569030 0.000000 
#    z 0.000000 0.000000 1.619370 
# 
# From -- ./inp_files/55660.got.cif
#   From: 2010.05.17/outbox.cif.g08.bks.cpg/sg71_28_cif.got.tgz:55660.got - 2010.06.03 16:22:01.
