data_PCOD9523162
_publ_section_title
;
Structure prediction by ZEFSAII (Michael W. Deem and Ramdas Pophale) SiO2 
 PCOD9523162
Probable space group: I M M M
;
_chemical_formula_sum "Si O2"
_cell_formula_units_Z 80
_cell_length_a 15.538697
_cell_length_b 32.260396
_cell_length_c 8.055159
_cell_angle_alpha 90.000000
_cell_angle_beta 90.000000
_cell_angle_gamma 90.000000
_cell_volume 4037.926501
_symmetry_space_group_name_H-M "I M M M"
_symmetry_group_IT_number 71
_symmetry_cell_setting 'orthorhombic'
loop_
_space_group_symop_operation_xyz
x,y,z
-x,-y,z
x,-y,-z
-x,y,-z
-x,-y,-z
x,y,-z
-x,y,z
x,-y,z
1/2+x,1/2+y,1/2+z
1/2-x,1/2-y,1/2+z
1/2+x,1/2-y,1/2-z
1/2-x,1/2+y,1/2-z
1/2-x,1/2-y,1/2-z
1/2+x,1/2+y,1/2-z
1/2-x,1/2+y,1/2+z
1/2+x,1/2-y,1/2+z
loop_
_atom_site_type_symbol
_atom_site_label
_atom_site_fract_x
_atom_site_fract_y
_atom_site_fract_z
Si Si1 0.217768 0.044816 0.799238
Si Si2 0.168921 0.864833 0.302874
Si Si3 0.641739 0.156946 0.701739
Si Si4 0.000000 0.722195 0.797067
Si Si5 0.000000 0.184088 0.196419
Si Si6 0.407508 0.065695 0.802093
O O1 0.170874 0.086616 0.744404
O O2 0.317179 0.047864 0.738512
O O3 0.182041 0.000000 0.746971
O O4 0.219326 0.045639 0.000000
O O5 0.170727 0.862418 0.500000
O O6 0.258827 0.844488 0.241666
O O7 0.085127 0.841050 0.243506
O O8 0.639976 0.154890 0.500000
O O9 0.584481 0.196082 0.753153
O O10 0.599883 0.114777 0.769266
O O11 0.000000 0.769114 0.733753
O O12 0.000000 0.722716 0.000000
O O13 0.000000 0.188330 0.000000
O O14 0.500000 0.051099 0.735309
O O15 0.408085 0.058015 0.000000
#
# Coordination Sequence:
#
# PCOD9523162 Si02
#       6
#    16  16  16   8   8  16
#     4   9  18  33  53  77 106 141 179 217 260 315
#     4  10  21  37  57  80 108 140 175 221 271 314
#     4   9  17  32  54  77 106 145 180 211 256 311
#     4   9  18  33  55  82 109 140 181 216 251 311
#     4  11  23  39  58  78 103 138 178 224 273 321
#     4   9  16  26  44  74 110 144 178 214 254 300
#
# _framework density 19.812148000000001
#
# number of rings (size 3 to 8) (size 9 to 14) (size 15 to 20)
#    0.000    2.600    1.000    0.900    0.000    2.400 
#    0.000    4.500    0.000    3.000    0.000    5.600 
#    0.000    0.000    0.000    0.000    0.000    0.000 
#
# Total GULP energy -223059.123412 kJ/mol
# GULP energy per Si atom -5576.478085 kJ/mol
# Density = 1.976705 g / cm^3
# Si number density = 19.812148 Si / 1000 Ang^3
#
#
#
# Elastic Constant Matrix: (Units=GPa)
#
#
# Indices 1 2 3 4 5 6 
#
# 1 116.5149 83.2704 11.0733 0.0016 0.0000 -0.0032
# 2 83.2704 170.9594 10.2549 0.0011 0.0002 -0.0005
# 3 11.0733 10.2549 16.6048 0.0084 0.0045 0.0038
# 4 0.0016 0.0011 0.0084 16.2224 -0.0017 0.0028
# 5 0.0000 0.0002 0.0045 -0.0017 13.0193 0.0020
# 6 -0.0032 -0.0005 0.0038 0.0028 0.0020 12.3205
#
#
#
# Elastic Compliance Matrix: (Units=1/GPa)
#
#
# Indices 1 2 3 4 5 6 
#
# 1 0.013579 -0.006304 -0.005162 0.000002 0.000002 0.000005
# 2 -0.006304 0.009001 -0.001355 0.000001 0.000000 -0.000001
# 3 -0.005162 -0.001355 0.064503 -0.000033 -0.000022 -0.000021
# 4 0.000002 0.000001 -0.000033 0.061643 0.000008 -0.000014
# 5 0.000002 0.000000 -0.000022 0.000008 0.076809 -0.000012
# 6 0.000005 -0.000001 -0.000021 -0.000014 -0.000012 0.081165
#
#
# Mechanical properties :
#
#
# Convention : Reuss Voigt Hill
#
# Bulk Modulus (GPa) = 16.27592 57.03071 36.65332
# Shear Modulus (GPa) = 14.17144 21.61115 17.89130
#
# Velocity S-wave (km/s) = 2.67739 3.30631 3.00833
# Velocity P-wave (km/s) = 4.21792 6.58968 5.53239
#
# Compressibility (1/GPa) = 0.06144046
#
# Stress axis : x y z
#
# Youngs Moduli (GPa) = 73.64514 111.09563 15.50327
#
# Poissons Ratio (x) = 0.70037 0.08003
# Poissons Ratio (y) = 0.46427 0.02101
# Poissons Ratio (z) = 0.38014 0.15053
#
# Static dielectric constant tensor:
#      x y z
#    x 1.782980 0.000000 0.000000 
#    y 0.000000 1.699400 0.000000 
#    z 0.000000 0.000000 1.696140 
# 
# From -- ./inp_files/8420.got.cif
#   From: 2010.05.17/outbox.cif.g08.bks.cpg/sg71_5_cif.got.tgz:8420.got - 2010.06.03 16:22:01.
