data_PCOD9523351
_publ_section_title
;
Structure prediction by ZEFSAII (Michael W. Deem and Ramdas Pophale) SiO2 
 PCOD9523351
Probable space group: I M M M
;
_chemical_formula_sum "Si O2"
_cell_formula_units_Z 104
_cell_length_a 28.446765
_cell_length_b 21.530142
_cell_length_c 8.769368
_cell_angle_alpha 90.000000
_cell_angle_beta 90.000000
_cell_angle_gamma 90.000000
_cell_volume 5370.912468
_symmetry_space_group_name_H-M "I M M M"
_symmetry_group_IT_number 71
_symmetry_cell_setting 'orthorhombic'
loop_
_space_group_symop_operation_xyz
x,y,z
-x,-y,z
x,-y,-z
-x,y,-z
-x,-y,-z
x,y,-z
-x,y,z
x,-y,z
1/2+x,1/2+y,1/2+z
1/2-x,1/2-y,1/2+z
1/2+x,1/2-y,1/2-z
1/2-x,1/2+y,1/2-z
1/2-x,1/2-y,1/2-z
1/2+x,1/2+y,1/2-z
1/2-x,1/2+y,1/2+z
1/2+x,1/2-y,1/2+z
loop_
_atom_site_type_symbol
_atom_site_label
_atom_site_fract_x
_atom_site_fract_y
_atom_site_fract_z
Si Si1 0.052138 0.674710 0.815760
Si Si2 0.621466 0.072018 0.316901
Si Si3 0.123160 0.101855 0.679638
Si Si4 0.700614 0.160892 0.180083
Si Si5 0.138257 0.762573 0.182995
Si Si6 0.945079 0.000000 0.183028
Si Si7 0.230081 0.068263 0.319939
O O1 0.072395 0.606364 0.782877
O O2 0.092519 0.722493 0.766960
O O3 0.000000 0.685693 0.754690
O O4 0.049961 0.680035 0.000000
O O5 0.629829 0.078212 0.500000
O O6 0.661357 0.110536 0.231029
O O7 0.621563 0.000000 0.278171
O O8 0.113382 0.107960 0.500000
O O9 0.130278 0.169039 0.753896
O O10 0.082907 0.060020 0.755183
O O11 0.174011 0.069613 0.696025
O O12 0.683752 0.225356 0.255687
O O13 0.747847 0.127691 0.237810
O O14 0.701819 0.168940 0.000000
O O15 0.140516 0.763109 0.000000
O O16 0.000000 0.000000 0.229187
O O17 0.943133 0.000000 0.000000
O O18 0.241467 0.072897 0.500000
O O19 0.247517 0.000000 0.266341
#
# Coordination Sequence:
#
# PCOD9523351 Si02
#       7
#    16  16  16  16  16   8  16
#     4   8  15  29  50  76 105 139 185 237 284 336
#     4   9  17  30  49  74 107 147 189 237 293 348
#     4  11  23  42  66  93 121 153 193 244 303 356
#     4  11  22  35  54  83 115 154 200 244 288 345
#     4  10  21  38  59  84 117 157 195 241 299 361
#     4  11  25  45  69  97 129 165 205 247 294 359
#     4  10  21  39  61  85 117 156 194 239 297 360
#
# _framework density 19.363562000000002
#
# number of rings (size 3 to 8) (size 9 to 14) (size 15 to 20)
#    0.000    2.077    0.769    3.923    0.000    5.846 
#    0.000    3.077    0.000   11.077    0.000    4.308 
#    0.000    0.000    0.000    0.000    0.000    0.000 
#
# Total GULP energy -290252.790257 kJ/mol
# GULP energy per Si atom -5581.784428 kJ/mol
# Density = 1.931949 g / cm^3
# Si number density = 19.363562 Si / 1000 Ang^3
#
#
#
# Elastic Constant Matrix: (Units=GPa)
#
#
# Indices 1 2 3 4 5 6 
#
# 1 85.9454 42.5332 44.9606 0.0000 0.0000 0.0000
# 2 42.5332 153.3781 57.6179 0.0000 0.0000 0.0000
# 3 44.9606 57.6179 77.9529 0.0000 0.0000 0.0000
# 4 0.0000 0.0000 0.0000 26.9028 0.0000 0.0000
# 5 0.0000 0.0000 0.0000 0.0000 12.3218 0.0000
# 6 0.0000 0.0000 0.0000 0.0000 0.0000 17.6723
#
#
#
# Elastic Compliance Matrix: (Units=1/GPa)
#
#
# Indices 1 2 3 4 5 6 
#
# 1 0.016883 -0.001417 -0.008690 0.000000 0.000000 0.000000
# 2 -0.001417 0.009145 -0.005942 0.000000 0.000000 0.000000
# 3 -0.008690 -0.005942 0.022232 0.000000 0.000000 0.000000
# 4 0.000000 0.000000 0.000000 0.037171 0.000000 0.000000
# 5 0.000000 0.000000 0.000000 0.000000 0.081157 0.000000
# 6 0.000000 0.000000 0.000000 0.000000 0.000000 0.056586
#
#
# Mechanical properties :
#
#
# Convention : Reuss Voigt Hill
#
# Bulk Modulus (GPa) = 61.87458 67.49996 64.68727
# Shear Modulus (GPa) = 19.18219 22.85703 21.01961
#
# Velocity S-wave (km/s) = 3.15085 3.43944 3.29830
# Velocity P-wave (km/s) = 6.72760 7.12095 6.92707
#
# Compressibility (1/GPa) = 0.01616173
#
# Stress axis : x y z
#
# Youngs Moduli (GPa) = 59.23280 109.34911 44.98002
#
# Poissons Ratio (x) = 0.15498 0.39086
# Poissons Ratio (y) = 0.08395 0.26727
# Poissons Ratio (z) = 0.51471 0.64975
#
# Static dielectric constant tensor:
#      x y z
#    x 1.700300 0.000000 0.000000 
#    y 0.000000 1.679030 0.000000 
#    z 0.000000 0.000000 1.657350 
# 
# From -- ./inp_files/15016.got.cif
#   From: 2010.05.17/outbox.cif.g08.bks.cpg/sg71_8_cif.got.tgz:15016.got - 2010.06.03 16:22:01.
