data_PCOD9523429
_publ_section_title
;
Structure prediction by ZEFSAII (Michael W. Deem and Ramdas Pophale) SiO2 
 PCOD9523429
Probable space group: I M M M
;
_chemical_formula_sum "Si O2"
_cell_formula_units_Z 92
_cell_length_a 16.134618
_cell_length_b 14.610632
_cell_length_c 19.618736
_cell_angle_alpha 90.000000
_cell_angle_beta 90.000000
_cell_angle_gamma 90.000000
_cell_volume 4624.861303
_symmetry_space_group_name_H-M "I M M M"
_symmetry_group_IT_number 71
_symmetry_cell_setting 'orthorhombic'
loop_
_space_group_symop_operation_xyz
x,y,z
-x,-y,z
x,-y,-z
-x,y,-z
-x,-y,-z
x,y,-z
-x,y,z
x,-y,z
1/2+x,1/2+y,1/2+z
1/2-x,1/2-y,1/2+z
1/2+x,1/2-y,1/2-z
1/2-x,1/2+y,1/2-z
1/2-x,1/2-y,1/2-z
1/2+x,1/2+y,1/2-z
1/2-x,1/2+y,1/2+z
1/2+x,1/2-y,1/2+z
loop_
_atom_site_type_symbol
_atom_site_label
_atom_site_fract_x
_atom_site_fract_y
_atom_site_fract_z
Si Si1 0.227806 0.100567 0.077231
Si Si2 0.801881 0.109297 0.635438
Si Si3 0.904762 0.111269 0.500000
Si Si4 0.000000 0.295589 0.000000
Si Si5 0.091395 0.233383 0.273047
Si Si6 0.090070 0.604452 0.380664
Si Si7 0.862515 0.718882 0.878144
O O1 0.326801 0.113302 0.076195
O O2 0.185396 0.185033 0.112641
O O3 0.210742 0.000000 0.107931
O O4 0.196705 0.099574 0.000000
O O5 0.856147 0.138074 0.568788
O O6 0.839531 0.162696 0.700365
O O7 0.707893 0.140859 0.622647
O O8 0.807661 0.000000 0.643281
O O9 0.000000 0.143676 0.500000
O O10 0.906260 0.000000 0.500000
O O11 0.072551 0.294236 0.939228
O O12 0.096620 0.321655 0.321456
O O13 0.099062 0.269868 0.196596
O O14 0.000000 0.190648 0.282464
O O15 0.091094 0.500000 0.354079
O O16 0.000000 0.617110 0.414901
#
# Coordination Sequence:
#
# PCOD9523429 Si02
#       7
#    16  16   8   4  16  16  16
#     4  10  21  38  63  92 125 167 214 266 327 394
#     4  11  24  41  66  99 133 173 222 276 338 406
#     4   9  19  38  61  88 126 167 208 262 326 396
#     4  12  26  48  76  90 134 182 232 288 346 386
#     4  11  23  41  65  97 131 170 217 271 337 406
#     4   9  19  36  60  93 131 164 202 257 324 401
#     4  12  24  45  66  92 127 175 225 284 333 396
#
# _framework density 19.892489000000001
#
# number of rings (size 3 to 8) (size 9 to 14) (size 15 to 20)
#    0.000    1.478    3.478    1.565    0.000    2.783 
#    0.000    3.478    0.000    0.000    0.000    0.000 
#    0.000    0.000    0.000    0.000    0.000    0.000 
#
# Total GULP energy -256162.345611 kJ/mol
# GULP energy per Si atom -5568.746644 kJ/mol
# Density = 1.984721 g / cm^3
# Si number density = 19.892489 Si / 1000 Ang^3
#
#
#
# Elastic Constant Matrix: (Units=GPa)
#
#
# Indices 1 2 3 4 5 6 
#
# 1 121.9653 33.0354 36.6106 0.0000 0.0000 0.0000
# 2 33.0354 71.2948 29.6463 0.0000 0.0000 0.0000
# 3 36.6106 29.6463 109.5157 0.0000 0.0000 0.0000
# 4 0.0000 0.0000 0.0000 3.0177 0.0000 0.0000
# 5 0.0000 0.0000 0.0000 0.0000 30.0643 0.0000
# 6 0.0000 0.0000 0.0000 0.0000 0.0000 16.5507
#
#
#
# Elastic Compliance Matrix: (Units=1/GPa)
#
#
# Indices 1 2 3 4 5 6 
#
# 1 0.009874 -0.003609 -0.002324 0.000000 0.000000 0.000000
# 2 -0.003609 0.017124 -0.003429 0.000000 0.000000 0.000000
# 3 -0.002324 -0.003429 0.010836 0.000000 0.000000 0.000000
# 4 0.000000 0.000000 0.000000 0.331378 0.000000 0.000000
# 5 0.000000 0.000000 0.000000 0.000000 0.033262 0.000000
# 6 0.000000 0.000000 0.000000 0.000000 0.000000 0.060421
#
#
# Mechanical properties :
#
#
# Convention : Reuss Voigt Hill
#
# Bulk Modulus (GPa) = 52.32661 55.70671 54.01666
# Shear Modulus (GPa) = 10.24610 23.49211 16.86911
#
# Velocity S-wave (km/s) = 2.27199 3.44023 2.91523
# Velocity P-wave (km/s) = 5.76579 6.62155 6.20843
#
# Compressibility (1/GPa) = 0.01911074
#
# Stress axis : x y z
#
# Youngs Moduli (GPa) = 101.27461 58.39593 92.28258
#
# Poissons Ratio (x) = 0.21075 0.21446
# Poissons Ratio (y) = 0.36550 0.31646
# Poissons Ratio (z) = 0.23535 0.20025
#
# Static dielectric constant tensor:
#      x y z
#    x 1.723950 0.000000 0.000000 
#    y 0.000000 1.695830 0.000000 
#    z 0.000000 0.000000 1.698090 
# 
# From -- ./inp_files/53026.got.cif
#   From: 2010.05.17/outbox.cif.g08.bks.cpg/sg71_27_cif.got.tgz:53026.got - 2010.06.03 16:22:01.
