data_PCOD9523562
_publ_section_title
;
Structure prediction by ZEFSAII (Michael W. Deem and Ramdas Pophale) SiO2 
 PCOD9523562
Probable space group: I M M M
;
_chemical_formula_sum "Si O2"
_cell_formula_units_Z 50
_cell_length_a 30.209275
_cell_length_b 10.387351
_cell_length_c 7.882298
_cell_angle_alpha 90.000000
_cell_angle_beta 90.000000
_cell_angle_gamma 90.000000
_cell_volume 2473.420521
_symmetry_space_group_name_H-M "I M M M"
_symmetry_group_IT_number 71
_symmetry_cell_setting 'orthorhombic'
loop_
_space_group_symop_operation_xyz
x,y,z
-x,-y,z
x,-y,-z
-x,y,-z
-x,-y,-z
x,y,-z
-x,y,z
x,-y,z
1/2+x,1/2+y,1/2+z
1/2-x,1/2-y,1/2+z
1/2+x,1/2-y,1/2-z
1/2-x,1/2+y,1/2-z
1/2-x,1/2-y,1/2-z
1/2+x,1/2+y,1/2-z
1/2-x,1/2+y,1/2+z
1/2+x,1/2-y,1/2+z
loop_
_atom_site_type_symbol
_atom_site_label
_atom_site_fract_x
_atom_site_fract_y
_atom_site_fract_z
Si Si1 0.883155 0.722953 0.202146
Si Si2 0.050909 0.500000 0.207758
Si Si3 0.000000 0.000000 0.500000
Si Si4 0.215163 0.641889 0.300742
Si Si5 0.424078 0.500000 0.704787
O O1 0.921485 0.625443 0.263986
O O2 0.835146 0.684603 0.267770
O O3 0.896110 0.870140 0.233501
O O4 0.881380 0.705712 0.000000
O O5 0.000000 0.500000 0.265439
O O6 0.049617 0.500000 0.000000
O O7 0.037970 0.000000 0.346647
O O8 0.220426 0.629154 0.500000
O O9 0.222654 0.500000 0.221810
O O10 0.250000 0.750000 0.250000
O O11 0.437506 0.500000 0.500000
#
# Coordination Sequence:
#
# PCOD9523562 Si02
#       5
#    16   8   2  16   8
#     4  10  21  41  65  92 130 170 215 269 329 394
#     4   9  18  34  62  93 123 166 212 256 319 387
#     4  12  26  44  68  96 136 180 234 274 348 386
#     4  11  25  43  66  95 131 170 218 275 336 408
#     4  10  25  43  66  97 133 178 226 279 333 405
#
# _framework density 20.214921
#
# number of rings (size 3 to 8) (size 9 to 14) (size 15 to 20)
#    0.000    1.760    1.600    1.200    6.720    1.920 
#    0.000    0.000    0.000    1.920    0.000    0.000 
#    0.000    0.000    0.000    0.000    0.000    0.000 
#
# Total GULP energy -139278.277386 kJ/mol
# GULP energy per Si atom -5571.131095 kJ/mol
# Density = 2.016891 g / cm^3
# Si number density = 20.214921 Si / 1000 Ang^3
#
#
#
# Elastic Constant Matrix: (Units=GPa)
#
#
# Indices 1 2 3 4 5 6 
#
# 1 190.3920 118.3210 40.5019 0.0000 0.0000 0.0000
# 2 118.3210 206.3471 51.1804 0.0000 0.0000 0.0000
# 3 40.5019 51.1804 51.8092 0.0000 0.0000 0.0000
# 4 0.0000 0.0000 0.0000 6.8370 0.0000 0.0000
# 5 0.0000 0.0000 0.0000 0.0000 42.7021 0.0000
# 6 0.0000 0.0000 0.0000 0.0000 0.0000 13.9527
#
#
#
# Elastic Compliance Matrix: (Units=1/GPa)
#
#
# Indices 1 2 3 4 5 6 
#
# 1 0.008378 -0.004211 -0.002389 0.000000 0.000000 0.000000
# 2 -0.004211 0.008536 -0.005140 0.000000 0.000000 0.000000
# 3 -0.002389 -0.005140 0.026247 0.000000 0.000000 0.000000
# 4 0.000000 0.000000 0.000000 0.146263 0.000000 0.000000
# 5 0.000000 0.000000 0.000000 0.000000 0.023418 0.000000
# 6 0.000000 0.000000 0.000000 0.000000 0.000000 0.071671
#
#
# Mechanical properties :
#
#
# Convention : Reuss Voigt Hill
#
# Bulk Modulus (GPa) = 50.81410 96.50610 73.66010
# Shear Modulus (GPa) = 15.89557 28.60138 22.24847
#
# Velocity S-wave (km/s) = 2.80720 3.76555 3.32112
# Velocity P-wave (km/s) = 5.97483 8.17004 7.15710
#
# Compressibility (1/GPa) = 0.01967958
#
# Stress axis : x y z
#
# Youngs Moduli (GPa) = 119.36486 117.15265 38.09959
#
# Poissons Ratio (x) = 0.49336 0.09102
# Poissons Ratio (y) = 0.50268 0.19584
# Poissons Ratio (z) = 0.28518 0.60218
#
# Static dielectric constant tensor:
#      x y z
#    x 1.711890 0.000000 0.000000 
#    y 0.000000 1.733810 0.000000 
#    z 0.000000 0.000000 1.743580 
# 
# From -- ./inp_files/16001.got.cif
#   From: 2010.05.17/outbox.cif.g08.bks.cpg/sg71_9_cif.got.tgz:16001.got - 2010.06.03 16:22:01.
