data_PCOD9523987
_publ_section_title
;
Structure prediction by ZEFSAII (Michael W. Deem and Ramdas Pophale) SiO2 
 PCOD9523987
Probable space group: I M M M
;
_chemical_formula_sum "Si O2"
_cell_formula_units_Z 96
_cell_length_a 14.817276
_cell_length_b 11.687427
_cell_length_c 32.683658
_cell_angle_alpha 90.000000
_cell_angle_beta 90.000000
_cell_angle_gamma 90.000000
_cell_volume 5660.019654
_symmetry_space_group_name_H-M "I M M M"
_symmetry_group_IT_number 71
_symmetry_cell_setting 'orthorhombic'
loop_
_space_group_symop_operation_xyz
x,y,z
-x,-y,z
x,-y,-z
-x,y,-z
-x,-y,-z
x,y,-z
-x,y,z
x,-y,z
1/2+x,1/2+y,1/2+z
1/2-x,1/2-y,1/2+z
1/2+x,1/2-y,1/2-z
1/2-x,1/2+y,1/2-z
1/2-x,1/2-y,1/2-z
1/2+x,1/2+y,1/2-z
1/2-x,1/2+y,1/2+z
1/2+x,1/2-y,1/2+z
loop_
_atom_site_type_symbol
_atom_site_label
_atom_site_fract_x
_atom_site_fract_y
_atom_site_fract_z
Si Si1 0.852558 0.250367 0.263837
Si Si2 0.707435 0.283965 0.622957
Si Si3 0.393748 0.500000 0.241038
Si Si4 0.603494 0.863721 0.848253
Si Si5 0.105627 0.863716 0.951704
Si Si6 0.109771 0.000000 0.164992
Si Si7 0.100371 0.367825 0.181400
O O1 0.750000 0.250000 0.250000
O O2 0.877778 0.333242 0.300750
O O3 0.900477 0.289840 0.222104
O O4 0.869539 0.120729 0.278321
O O5 0.814070 0.305277 0.627435
O O6 0.670612 0.289858 0.576888
O O7 0.653320 0.389150 0.644349
O O8 0.674006 0.176193 0.649325
O O9 0.500000 0.500000 0.244849
O O10 0.359282 0.500000 0.287758
O O11 0.500000 0.829147 0.858076
O O12 0.610451 0.000000 0.854001
O O13 0.000000 0.843851 0.941282
O O14 0.122501 0.000000 0.945034
O O15 0.116979 0.842171 0.000000
O O16 0.000000 0.000000 0.161857
O O17 0.116496 0.500000 0.193257
O O18 0.000000 0.359309 0.162739
#
# Coordination Sequence:
#
# PCOD9523987 Si02
#       7
#    16  16   8  16  16   8  16
#     4  12  23  34  52  70 100 134 178 220 265 303
#     4  12  20  34  55  76 103 137 174 211 258 308
#     4  11  22  34  48  70  97 128 171 218 263 303
#     4  11  23  38  53  72 102 141 184 222 259 307
#     4   9  17  29  50  83 115 135 156 198 260 324
#     4  11  18  28  50  79 102 126 165 212 257 304
#     4  11  23  36  51  73 102 137 175 215 262 313
#
# _framework density 16.961072999999999
#
# number of rings (size 3 to 8) (size 9 to 14) (size 15 to 20)
#    0.000    1.000    5.000    4.000    2.333    1.333 
#    0.000    0.000    0.000    1.000    0.000    4.667 
#    0.000    0.000    0.000    1.500    0.000    0.333 
#
# Total GULP energy -267895.495804 kJ/mol
# GULP energy per Si atom -5581.156163 kJ/mol
# Density = 1.692247 g / cm^3
# Si number density = 16.961073 Si / 1000 Ang^3
#
#
#
# Elastic Constant Matrix: (Units=GPa)
#
#
# Indices 1 2 3 4 5 6 
#
# 1 122.2524 22.4237 35.1929 0.0000 0.0000 0.0000
# 2 22.4237 57.1153 1.1564 0.0000 0.0000 0.0000
# 3 35.1929 1.1564 65.8451 0.0000 0.0000 0.0000
# 4 0.0000 0.0000 0.0000 12.9475 0.0000 0.0000
# 5 0.0000 0.0000 0.0000 0.0000 22.1545 0.0000
# 6 0.0000 0.0000 0.0000 0.0000 0.0000 21.7077
#
#
#
# Elastic Compliance Matrix: (Units=1/GPa)
#
#
# Indices 1 2 3 4 5 6 
#
# 1 0.010514 -0.004015 -0.005549 0.000000 0.000000 0.000000
# 2 -0.004015 0.019048 0.001812 0.000000 0.000000 0.000000
# 3 -0.005549 0.001812 0.018121 0.000000 0.000000 0.000000
# 4 0.000000 0.000000 0.000000 0.077235 0.000000 0.000000
# 5 0.000000 0.000000 0.000000 0.000000 0.045138 0.000000
# 6 0.000000 0.000000 0.000000 0.000000 0.000000 0.046067
#
#
# Mechanical properties :
#
#
# Convention : Reuss Voigt Hill
#
# Bulk Modulus (GPa) = 31.07734 40.30654 35.69194
# Shear Modulus (GPa) = 20.63104 23.79125 22.21115
#
# Velocity S-wave (km/s) = 3.49144 3.74932 3.62268
# Velocity P-wave (km/s) = 5.88354 6.52372 6.21189
#
# Compressibility (1/GPa) = 0.03217779
#
# Stress axis : x y z
#
# Youngs Moduli (GPa) = 95.11446 52.49838 55.18438
#
# Poissons Ratio (x) = 0.21080 0.30621
# Poissons Ratio (y) = 0.38192 -0.09997
# Poissons Ratio (z) = 0.52777 -0.09511
#
# Static dielectric constant tensor:
#      x y z
#    x 1.638170 0.000000 0.000000 
#    y 0.000000 1.586480 0.000000 
#    z 0.000000 0.000000 1.575610 
# 
# From -- ./inp_files/69902.got.cif
#   From: 2010.05.17/outbox.cif.g08.bks.cpg/sg71_35_cif.got.tgz:69902.got - 2010.06.03 16:22:01.
