data_PCOD9523578
_publ_section_title
;
Structure prediction by ZEFSAII (Michael W. Deem and Ramdas Pophale) SiO2 
 PCOD9523578
Probable space group: I M M M
;
_chemical_formula_sum "Si O2"
_cell_formula_units_Z 68
_cell_length_a 7.302800
_cell_length_b 22.058342
_cell_length_c 18.265561
_cell_angle_alpha 90.000000
_cell_angle_beta 90.000000
_cell_angle_gamma 90.000000
_cell_volume 2942.356479
_symmetry_space_group_name_H-M "I M M M"
_symmetry_group_IT_number 71
_symmetry_cell_setting 'orthorhombic'
loop_
_space_group_symop_operation_xyz
x,y,z
-x,-y,z
x,-y,-z
-x,y,-z
-x,-y,-z
x,y,-z
-x,y,z
x,-y,z
1/2+x,1/2+y,1/2+z
1/2-x,1/2-y,1/2+z
1/2+x,1/2-y,1/2-z
1/2-x,1/2+y,1/2-z
1/2-x,1/2-y,1/2-z
1/2+x,1/2+y,1/2-z
1/2-x,1/2+y,1/2+z
1/2+x,1/2-y,1/2+z
loop_
_atom_site_type_symbol
_atom_site_label
_atom_site_fract_x
_atom_site_fract_y
_atom_site_fract_z
Si Si1 0.206698 0.173843 0.304865
Si Si2 0.278802 0.769600 0.919352
Si Si3 0.500000 0.000000 0.857298
Si Si4 0.714156 0.389139 0.341953
Si Si5 0.778684 0.568918 0.083909
O O1 0.290672 0.228145 0.352395
O O2 0.285411 0.147162 0.230204
O O3 0.203545 0.117771 0.360934
O O4 0.000000 0.192882 0.286111
O O5 0.500000 0.764944 0.918658
O O6 0.226972 0.839003 0.905537
O O7 0.217526 0.748754 0.000000
O O8 0.340188 0.946629 0.855763
O O9 0.500000 0.405369 0.330244
O O10 0.726176 0.500000 0.102956
O O11 0.000000 0.571666 0.087047
O O12 0.724219 0.580530 0.000000
#
# Coordination Sequence:
#
# PCOD9523578 Si02
#       5
#    16  16   4  16  16
#     4  10  22  37  61  95 132 174 220 274 334 404
#     4  10  21  42  69  97 135 182 228 282 348 405
#     4  12  26  48  73 100 141 188 216 290 356 390
#     4  11  25  44  70 104 136 176 233 281 341 414
#     4   9  19  33  50  78 119 169 222 271 325 394
#
# _framework density 23.110727000000001
#
# number of rings (size 3 to 8) (size 9 to 14) (size 15 to 20)
#    0.000    1.882    1.176    2.471    3.294    3.294 
#    0.000    2.353    0.000    1.412    0.000    0.000 
#    0.000    0.000    0.000    0.000    0.000    0.000 
#
# Total GULP energy -189570.911358 kJ/mol
# GULP energy per Si atom -5575.615040 kJ/mol
# Density = 2.305813 g / cm^3
# Si number density = 23.110727 Si / 1000 Ang^3
#
#
#
# Elastic Constant Matrix: (Units=GPa)
#
#
# Indices 1 2 3 4 5 6 
#
# 1 128.9241 2.6732 0.2157 0.0000 0.0000 0.0000
# 2 2.6732 85.2701 16.5959 0.0000 0.0000 0.0000
# 3 0.2157 16.5959 27.0241 0.0001 0.0000 0.0000
# 4 0.0000 0.0000 0.0001 17.8933 0.0000 0.0000
# 5 0.0000 0.0000 0.0000 0.0000 11.6573 0.0000
# 6 0.0000 0.0000 0.0000 0.0000 0.0000 33.5746
#
#
#
# Elastic Compliance Matrix: (Units=1/GPa)
#
#
# Indices 1 2 3 4 5 6 
#
# 1 0.007762 -0.000263 0.000099 0.000000 0.000000 0.000000
# 2 -0.000263 0.013328 -0.008183 0.000000 0.000000 0.000000
# 3 0.000099 -0.008183 0.042029 0.000000 0.000000 0.000000
# 4 0.000000 0.000000 0.000000 0.055887 0.000000 0.000000
# 5 0.000000 0.000000 0.000000 0.000000 0.085783 0.000000
# 6 0.000000 0.000000 0.000000 0.000000 0.000000 0.029784
#
#
# Mechanical properties :
#
#
# Convention : Reuss Voigt Hill
#
# Bulk Modulus (GPa) = 21.53965 31.13198 26.33581
# Shear Modulus (GPa) = 18.74478 27.40729 23.07603
#
# Velocity S-wave (km/s) = 2.85105 3.44744 3.16333
# Velocity P-wave (km/s) = 4.49204 5.41724 4.97619
#
# Compressibility (1/GPa) = 0.04642602
#
# Stress axis : x y z
#
# Youngs Moduli (GPa) = 128.83639 75.02817 23.79330
#
# Poissons Ratio (x) = 0.01971 -0.00236
# Poissons Ratio (y) = 0.03384 0.19470
# Poissons Ratio (z) = -0.01280 0.61396
#
# Static dielectric constant tensor:
#      x y z
#    x 1.875770 0.000000 0.000000 
#    y 0.000000 1.818650 0.000000 
#    z 0.000000 0.000000 1.873990 
# 
# From -- ./inp_files/41924.got.cif
#   From: 2010.05.17/outbox.cif.g08.bks.cpg/sg71_21_cif.got.tgz:41924.got - 2010.06.03 16:22:01.
