data_PCOD9523464
_publ_section_title
;
Structure prediction by ZEFSAII (Michael W. Deem and Ramdas Pophale) SiO2 
 PCOD9523464
Probable space group: I M M M
;
_chemical_formula_sum "Si O2"
_cell_formula_units_Z 88
_cell_length_a 11.304895
_cell_length_b 29.386756
_cell_length_c 13.834850
_cell_angle_alpha 90.000000
_cell_angle_beta 90.000000
_cell_angle_gamma 90.000000
_cell_volume 4596.133500
_symmetry_space_group_name_H-M "I M M M"
_symmetry_group_IT_number 71
_symmetry_cell_setting 'orthorhombic'
loop_
_space_group_symop_operation_xyz
x,y,z
-x,-y,z
x,-y,-z
-x,y,-z
-x,-y,-z
x,y,-z
-x,y,z
x,-y,z
1/2+x,1/2+y,1/2+z
1/2-x,1/2-y,1/2+z
1/2+x,1/2-y,1/2-z
1/2-x,1/2+y,1/2-z
1/2-x,1/2-y,1/2-z
1/2+x,1/2+y,1/2-z
1/2-x,1/2+y,1/2+z
1/2+x,1/2-y,1/2+z
loop_
_atom_site_type_symbol
_atom_site_label
_atom_site_fract_x
_atom_site_fract_y
_atom_site_fract_z
Si Si1 0.862948 0.445274 0.613056
Si Si2 0.639954 0.000000 0.607136
Si Si3 0.000000 0.102488 0.617983
Si Si4 0.762281 0.261543 0.385462
Si Si5 0.500000 0.706195 0.885083
Si Si6 0.251716 0.912094 0.296219
Si Si7 0.360143 0.816630 0.278809
O O1 0.847470 0.434783 0.500000
O O2 0.850096 0.500000 0.624212
O O3 0.772934 0.419121 0.681983
O O4 0.000000 0.434072 0.639119
O O5 0.677381 0.954114 0.659402
O O6 0.500000 0.000000 0.601773
O O7 0.692754 0.000000 0.500000
O O8 0.880323 0.083188 0.663484
O O9 0.000000 0.099063 0.500000
O O10 0.000000 0.155264 0.651493
O O11 0.754716 0.270450 0.500000
O O12 0.882637 0.233619 0.361973
O O13 0.661587 0.226874 0.348734
O O14 0.782968 0.305105 0.317432
O O15 0.500000 0.701697 0.000000
O O16 0.307049 0.863047 0.323058
O O17 0.500000 0.821969 0.258641
#
# Coordination Sequence:
#
# PCOD9523464 Si02
#       7
#    16   8   8  16   8  16  16
#     4   9  18  36  63  90 118 155 199 247 306 369
#     4  11  24  41  62  90 125 161 199 256 322 374
#     4  11  24  41  63  89 120 170 218 253 304 372
#     4  10  21  39  61  87 123 162 198 246 305 366
#     4   9  16  36  63  81 113 163 203 243 297 358
#     4  12  23  40  63  90 126 163 209 262 307 365
#     4  11  23  36  60  94 123 156 205 256 309 368
#
# _framework density 19.146529000000001
#
# number of rings (size 3 to 8) (size 9 to 14) (size 15 to 20)
#    0.000    1.545    3.636    2.727    0.000    2.182 
#    0.000    1.364    0.000    1.091    0.000    0.000 
#    0.000    0.000    0.000    0.000    0.000    0.000 
#
# Total GULP energy -245456.021860 kJ/mol
# GULP energy per Si atom -5578.545951 kJ/mol
# Density = 1.910295 g / cm^3
# Si number density = 19.146529 Si / 1000 Ang^3
#
#
#
# Elastic Constant Matrix: (Units=GPa)
#
#
# Indices 1 2 3 4 5 6 
#
# 1 90.8065 34.6188 36.4110 0.0000 0.0000 -0.0007
# 2 34.6188 82.8720 27.7070 0.0000 0.0000 -0.0010
# 3 36.4110 27.7070 97.7164 -0.0002 0.0001 -0.0099
# 4 0.0000 0.0000 -0.0002 15.2327 0.0000 -0.0062
# 5 0.0000 0.0000 0.0001 0.0000 29.9900 -0.0004
# 6 -0.0007 -0.0010 -0.0099 -0.0062 -0.0004 422.0734
#
#
#
# Elastic Compliance Matrix: (Units=1/GPa)
#
#
# Indices 1 2 3 4 5 6 
#
# 1 0.014415 -0.004669 -0.004048 0.000000 0.000000 0.000000
# 2 -0.004669 0.014842 -0.002469 0.000000 0.000000 0.000000
# 3 -0.004048 -0.002469 0.012442 0.000000 0.000000 0.000000
# 4 0.000000 0.000000 0.000000 0.065648 0.000000 0.000001
# 5 0.000000 0.000000 0.000000 0.000000 0.033344 0.000000
# 6 0.000000 0.000000 0.000000 0.000001 0.000000 0.002369
#
#
# Mechanical properties :
#
#
# Convention : Reuss Voigt Hill
#
# Bulk Modulus (GPa) = 51.73444 52.09649 51.91547
# Shear Modulus (GPa) = 29.09094 104.96978 67.03036
#
# Velocity S-wave (km/s) = 3.90216 7.41239 5.92327
# Velocity P-wave (km/s) = 6.88341 10.02628 8.59964
#
# Compressibility (1/GPa) = 0.01932948
#
# Stress axis : x y z
#
# Youngs Moduli (GPa) = 69.37105 67.37424 80.37306
#
# Poissons Ratio (x) = 0.31454 0.32532
# Poissons Ratio (y) = 0.32386 0.19844
# Poissons Ratio (z) = 0.28079 0.16634
#
# Static dielectric constant tensor:
#      x y z
#    x 1.685130 0.000000 0.000000 
#    y 0.000000 1.696270 0.000000 
#    z 0.000000 0.000000 1.701850 
# 
# From -- ./inp_files/33028.got.cif
#   From: 2010.05.17/outbox.cif.g08.bks.cpg/sg71_17_cif.got.tgz:33028.got - 2010.06.03 16:22:01.
