data_PCOD9523962
_publ_section_title
;
Structure prediction by ZEFSAII (Michael W. Deem and Ramdas Pophale) SiO2 
 PCOD9523962
Probable space group: I M M M
;
_chemical_formula_sum "Si O2"
_cell_formula_units_Z 58
_cell_length_a 11.046035
_cell_length_b 18.722397
_cell_length_c 15.290531
_cell_angle_alpha 90.000000
_cell_angle_beta 90.000000
_cell_angle_gamma 90.000000
_cell_volume 3162.207997
_symmetry_space_group_name_H-M "I M M M"
_symmetry_group_IT_number 71
_symmetry_cell_setting 'orthorhombic'
loop_
_space_group_symop_operation_xyz
x,y,z
-x,-y,z
x,-y,-z
-x,y,-z
-x,-y,-z
x,y,-z
-x,y,z
x,-y,z
1/2+x,1/2+y,1/2+z
1/2-x,1/2-y,1/2+z
1/2+x,1/2-y,1/2-z
1/2-x,1/2+y,1/2-z
1/2-x,1/2-y,1/2-z
1/2+x,1/2+y,1/2-z
1/2-x,1/2+y,1/2+z
1/2+x,1/2-y,1/2+z
loop_
_atom_site_type_symbol
_atom_site_label
_atom_site_fract_x
_atom_site_fract_y
_atom_site_fract_z
Si Si1 0.761909 0.161298 0.342457
Si Si2 0.000000 0.000000 0.000000
Si Si3 0.357682 0.919612 0.500000
Si Si4 0.000000 0.085067 0.396390
Si Si5 0.246001 0.420864 0.500000
Si Si6 0.353579 0.178654 0.153054
O O1 0.681283 0.124955 0.416151
O O2 0.884373 0.115590 0.346380
O O3 0.693527 0.160228 0.250224
O O4 0.801302 0.242106 0.365076
O O5 0.110044 0.061471 0.000000
O O6 0.500000 0.927077 0.500000
O O7 0.301984 0.000000 0.500000
O O8 0.000000 0.107770 0.500000
O O9 0.000000 0.000000 0.395552
O O10 0.187770 0.500000 0.500000
O O11 0.202346 0.376499 0.583976
O O12 0.500000 0.179358 0.148620
#
# Coordination Sequence:
#
# PCOD9523962 Si02
#       6
#    16   2   8   8   8  16
#     4  11  23  41  64  98 130 172 214 266 326 391
#     4   8  24  52  62 100 124 162 230 274 332 412
#     4  11  23  40  61  91 132 170 210 266 329 391
#     4  11  22  39  67  99 133 169 212 257 325 397
#     4  10  24  46  68  91 127 171 219 276 334 382
#     4  11  24  43  66  96 130 170 224 272 323 391
#
# _framework density 18.341614
#
# number of rings (size 3 to 8) (size 9 to 14) (size 15 to 20)
#    0.414    0.828    2.759    2.897    0.000    4.414 
#    9.931    0.000    0.000    0.000    0.000    0.000 
#    0.000    0.000    0.000    0.000    0.000    0.000 
#
# Total GULP energy -161623.022954 kJ/mol
# GULP energy per Si atom -5573.207688 kJ/mol
# Density = 1.829987 g / cm^3
# Si number density = 18.341614 Si / 1000 Ang^3
#
#
#
# Elastic Constant Matrix: (Units=GPa)
#
#
# Indices 1 2 3 4 5 6 
#
# 1 147.4832 74.7095 67.1108 0.0000 0.0000 0.0000
# 2 74.7095 162.2499 107.8690 0.0000 0.0000 0.0000
# 3 67.1108 107.8690 119.0636 0.0001 0.0000 0.0000
# 4 0.0000 0.0000 0.0001 9.3419 0.0000 0.0000
# 5 0.0000 0.0000 0.0000 0.0000 12.7699 0.0000
# 6 0.0000 0.0000 0.0000 0.0000 0.0000 36.9581
#
#
#
# Elastic Compliance Matrix: (Units=1/GPa)
#
#
# Indices 1 2 3 4 5 6 
#
# 1 0.009376 -0.002021 -0.003454 0.000000 0.000000 0.000000
# 2 -0.002021 0.015934 -0.013297 0.000000 0.000000 0.000000
# 3 -0.003454 -0.013297 0.022392 0.000000 0.000000 0.000000
# 4 0.000000 0.000000 0.000000 0.107044 0.000000 0.000000
# 5 0.000000 0.000000 0.000000 0.000000 0.078309 0.000000
# 6 0.000000 0.000000 0.000000 0.000000 0.000000 0.027058
#
#
# Mechanical properties :
#
#
# Convention : Reuss Voigt Hill
#
# Bulk Modulus (GPa) = 98.43465 103.13055 100.78260
# Shear Modulus (GPa) = 16.60896 23.75447 20.18171
#
# Velocity S-wave (km/s) = 3.01247 3.60267 3.32071
# Velocity P-wave (km/s) = 8.11689 8.58227 8.35282
#
# Compressibility (1/GPa) = 0.01015902
#
# Stress axis : x y z
#
# Youngs Moduli (GPa) = 106.65773 62.75882 44.65868
#
# Poissons Ratio (x) = 0.12684 0.15424
# Poissons Ratio (y) = 0.21556 0.59381
# Poissons Ratio (z) = 0.36836 0.83448
#
# Static dielectric constant tensor:
#      x y z
#    x 1.675240 0.000000 0.000000 
#    y 0.000000 1.618310 0.000000 
#    z 0.000000 0.000000 1.612340 
# 
# From -- ./inp_files/32247.got.cif
#   From: 2010.05.17/outbox.cif.g08.bks.cpg/sg71_17_cif.got.tgz:32247.got - 2010.06.03 16:22:01.
