data_PCOD9523470
_publ_section_title
;
Structure prediction by ZEFSAII (Michael W. Deem and Ramdas Pophale) SiO2 
 PCOD9523470
Probable space group: I M M M
;
_chemical_formula_sum "Si O2"
_cell_formula_units_Z 72
_cell_length_a 10.043815
_cell_length_b 26.975253
_cell_length_c 14.284883
_cell_angle_alpha 90.000000
_cell_angle_beta 90.000000
_cell_angle_gamma 90.000000
_cell_volume 3870.266929
_symmetry_space_group_name_H-M "I M M M"
_symmetry_group_IT_number 71
_symmetry_cell_setting 'orthorhombic'
loop_
_space_group_symop_operation_xyz
x,y,z
-x,-y,z
x,-y,-z
-x,y,-z
-x,-y,-z
x,y,-z
-x,y,z
x,-y,z
1/2+x,1/2+y,1/2+z
1/2-x,1/2-y,1/2+z
1/2+x,1/2-y,1/2-z
1/2-x,1/2+y,1/2-z
1/2-x,1/2-y,1/2-z
1/2+x,1/2+y,1/2-z
1/2-x,1/2+y,1/2+z
1/2+x,1/2-y,1/2+z
loop_
_atom_site_type_symbol
_atom_site_label
_atom_site_fract_x
_atom_site_fract_y
_atom_site_fract_z
Si Si1 0.000000 0.331898 0.395099
Si Si2 0.500000 0.558570 0.767281
Si Si3 0.000000 0.141376 0.115310
Si Si4 0.261164 0.059329 0.610018
Si Si5 0.500000 0.792339 0.595748
Si Si6 0.725013 0.720174 0.345933
Si Si7 0.000000 0.614106 0.213113
O O1 0.132056 0.298181 0.381541
O O2 0.000000 0.351075 0.500000
O O3 0.000000 0.378432 0.324049
O O4 0.500000 0.500000 0.746050
O O5 0.500000 0.589940 0.671810
O O6 0.373841 0.569322 0.833534
O O7 0.870774 0.171900 0.152120
O O8 0.000000 0.139218 0.000000
O O9 0.254867 0.073672 0.500000
O O10 0.374538 0.087597 0.666907
O O11 0.285659 0.000000 0.612075
O O12 0.500000 0.822835 0.500000
O O13 0.368926 0.758560 0.598453
O O14 0.500000 0.828737 0.681692
O O15 0.750000 0.750000 0.250000
#
# Coordination Sequence:
#
# PCOD9523470 Si02
#       7
#     8   8   8  16   8  16   8
#     4  12  23  38  60  83 115 156 197 240 291 347
#     4  10  22  39  64  93 123 157 203 260 302 356
#     4  11  23  41  64  86 124 172 206 244 308 367
#     4  10  21  39  62  87 118 155 192 239 307 370
#     4  11  22  37  57  82 116 152 190 243 298 352
#     4  11  21  40  59  83 116 158 202 248 293 355
#     4  12  22  37  58  87 118 149 197 244 290 358
#
# _framework density 18.603368
#
# number of rings (size 3 to 8) (size 9 to 14) (size 15 to 20)
#    0.000    1.111    2.222    6.333    0.000    2.444 
#    0.000    0.000    0.000    2.667    0.000    0.000 
#    0.000    0.000    0.000    0.000    0.000    0.000 
#
# Total GULP energy -200725.864051 kJ/mol
# GULP energy per Si atom -5575.718446 kJ/mol
# Density = 1.856103 g / cm^3
# Si number density = 18.603368 Si / 1000 Ang^3
#
#
#
# Elastic Constant Matrix: (Units=GPa)
#
#
# Indices 1 2 3 4 5 6 
#
# 1 176.6081 61.8037 61.2117 0.0000 -0.0001 0.0000
# 2 61.8037 64.3816 63.3116 0.0000 0.0000 0.0000
# 3 61.2117 63.3116 184.7753 0.0000 -0.0001 -0.0001
# 4 0.0000 0.0000 0.0000 35.3787 0.0000 0.0000
# 5 -0.0001 0.0000 -0.0001 0.0000 -197.2246 0.0000
# 6 0.0000 0.0000 -0.0001 0.0000 0.0000 23.7163
#
#
#
# Elastic Compliance Matrix: (Units=1/GPa)
#
#
# Indices 1 2 3 4 5 6 
#
# 1 0.008527 -0.008156 -0.000030 0.000000 0.000000 0.000000
# 2 -0.008156 0.031226 -0.007998 0.000000 0.000000 0.000000
# 3 -0.000030 -0.007998 0.008162 0.000000 0.000000 0.000000
# 4 0.000000 0.000000 0.000000 0.028266 0.000000 0.000000
# 5 0.000000 0.000000 0.000000 0.000000 -0.005070 0.000000
# 6 0.000000 0.000000 0.000000 0.000000 0.000000 0.042165
#
#
# Mechanical properties :
#
#
# Convention : Reuss Voigt Hill
#
# Bulk Modulus (GPa) = 64.31586 88.71322 76.51454
# Shear Modulus (GPa) = 33.15099 -11.66338 10.74381
#
# Velocity S-wave (km/s) = 4.22594 -2.50661 2.40577
# Velocity P-wave (km/s) = 7.64583 6.27795 6.99540
#
# Compressibility (1/GPa) = 0.01554826
#
# Stress axis : x y z
#
# Youngs Moduli (GPa) = 117.27754 32.02455 122.51435
#
# Poissons Ratio (x) = 0.26118 0.00371
# Poissons Ratio (y) = 0.95647 0.97982
# Poissons Ratio (z) = 0.00355 0.25612
#
# Static dielectric constant tensor:
#      x y z
#    x 1.641420 0.000000 0.000000 
#    y 0.000000 1.625630 0.000000 
#    z 0.000000 0.000000 1.700910 
# 
# From -- ./inp_files/16448.got.cif
#   From: 2010.05.17/outbox.cif.g08.bks.cpg/sg71_9_cif.got.tgz:16448.got - 2010.06.03 16:22:01.
