data_PCOD9523548
_publ_section_title
;
Structure prediction by ZEFSAII (Michael W. Deem and Ramdas Pophale) SiO2 
 PCOD9523548
Probable space group: I M M M
;
_chemical_formula_sum "Si O2"
_cell_formula_units_Z 116
_cell_length_a 26.648515
_cell_length_b 7.712544
_cell_length_c 23.915946
_cell_angle_alpha 90.000000
_cell_angle_beta 90.000000
_cell_angle_gamma 90.000000
_cell_volume 4915.392830
_symmetry_space_group_name_H-M "I M M M"
_symmetry_group_IT_number 71
_symmetry_cell_setting 'orthorhombic'
loop_
_space_group_symop_operation_xyz
x,y,z
-x,-y,z
x,-y,-z
-x,y,-z
-x,-y,-z
x,y,-z
-x,y,z
x,-y,z
1/2+x,1/2+y,1/2+z
1/2-x,1/2-y,1/2+z
1/2+x,1/2-y,1/2-z
1/2-x,1/2+y,1/2-z
1/2-x,1/2-y,1/2-z
1/2+x,1/2+y,1/2-z
1/2-x,1/2+y,1/2+z
1/2+x,1/2-y,1/2+z
loop_
_atom_site_type_symbol
_atom_site_label
_atom_site_fract_x
_atom_site_fract_y
_atom_site_fract_z
Si Si1 0.695858 0.207613 0.062759
Si Si2 0.581404 0.699126 0.938867
Si Si3 0.715009 0.295200 0.636321
Si Si4 0.879185 0.790502 0.063488
Si Si5 0.651500 0.794414 0.266835
Si Si6 0.000000 0.000000 0.286569
Si Si7 0.075744 0.696064 0.682705
Si Si8 0.944781 0.706444 0.838524
O O1 0.641872 0.295879 0.062512
O O2 0.733430 0.272843 0.110455
O O3 0.686463 0.000000 0.069674
O O4 0.718338 0.229571 0.000000
O O5 0.564172 0.500000 0.933900
O O6 0.566452 0.797836 0.883333
O O7 0.565847 0.766192 0.000000
O O8 0.717308 0.500000 0.625406
O O9 0.668570 0.225121 0.599274
O O10 0.700088 0.275980 0.701269
O O11 0.928652 0.741026 0.097891
O O12 0.876668 0.000000 0.062770
O O13 0.878408 0.728505 0.000000
O O14 0.633295 0.768046 0.203116
O O15 0.602695 0.729996 0.302250
O O16 0.656009 0.000000 0.274092
O O17 0.957261 0.152967 0.292155
O O18 0.064044 0.500000 0.702485
O O19 0.947165 0.500000 0.830519
O O20 0.000000 0.781618 0.825863
#
# Coordination Sequence:
#
# PCOD9523548 Si02
#       8
#    16  16  16  16  16   4  16  16
#     4   9  17  31  55  87 120 160 210 258 309 374
#     4  10  21  40  65  94 128 163 202 250 304 370
#     4   9  17  30  51  79 111 151 199 249 303 361
#     4   9  17  29  43  63  95 133 175 231 293 347
#     4   9  20  36  55  79 112 151 193 248 305 360
#     4  12  26  44  69 104 128 162 211 262 306 370
#     4  11  24  44  68  96 129 165 207 254 311 372
#     4   9  18  32  47  65  91 128 176 230 288 349
#
# _framework density 23.599335
#
# number of rings (size 3 to 8) (size 9 to 14) (size 15 to 20)
#    0.000    2.483    0.690    1.034    1.931    3.862 
#    0.000    2.759    0.000    3.310    0.000    0.000 
#    0.000    0.000    0.000    0.000    0.000    0.000 
#
# Total GULP energy -323189.978479 kJ/mol
# GULP energy per Si atom -5572.241008 kJ/mol
# Density = 2.354562 g / cm^3
# Si number density = 23.599335 Si / 1000 Ang^3
#
#
#
# Elastic Constant Matrix: (Units=GPa)
#
#
# Indices 1 2 3 4 5 6 
#
# 1 58.4498 12.1884 8.1707 0.0000 0.0000 0.0000
# 2 12.1884 76.8795 18.9207 0.0000 0.0000 0.0000
# 3 8.1707 18.9207 108.8242 0.0000 0.0000 0.0000
# 4 0.0000 0.0000 0.0000 -4.9722 0.0000 0.0000
# 5 0.0000 0.0000 0.0000 0.0000 -2.5005 0.0000
# 6 0.0000 0.0000 0.0000 0.0000 0.0000 24.1730
#
#
#
# Elastic Compliance Matrix: (Units=1/GPa)
#
#
# Indices 1 2 3 4 5 6 
#
# 1 0.017774 -0.002601 -0.000882 0.000000 0.000000 0.000000
# 2 -0.002601 0.013969 -0.002234 0.000000 0.000000 0.000000
# 3 -0.000882 -0.002234 0.009644 0.000000 0.000000 0.000000
# 4 0.000000 0.000000 0.000000 -0.201118 0.000000 0.000000
# 5 0.000000 0.000000 0.000000 0.000000 -0.399927 0.000000
# 6 0.000000 0.000000 0.000000 0.000000 0.000000 0.041368
#
#
# Mechanical properties :
#
#
# Convention : Reuss Voigt Hill
#
# Bulk Modulus (GPa) = 33.38428 35.85699 34.62064
# Shear Modulus (GPa) = -10.06296 16.99832 3.46768
#
# Velocity S-wave (km/s) = -2.06721 2.68673 1.21350
# Velocity P-wave (km/s) = 2.91191 4.98515 4.08234
#
# Compressibility (1/GPa) = 0.02995421
#
# Stress axis : x y z
#
# Youngs Moduli (GPa) = 56.26073 71.58515 103.69456
#
# Poissons Ratio (x) = 0.18618 0.09149
# Poissons Ratio (y) = 0.14632 0.23160
# Poissons Ratio (z) = 0.04964 0.15989
#
# Static dielectric constant tensor:
#      x y z
#    x 1.916720 0.000000 0.000000 
#    y 0.000000 1.863890 0.000000 
#    z 0.000000 0.000000 1.963240 
# 
# From -- ./inp_files/62070.got.cif
#   From: 2010.05.17/outbox.cif.g08.bks.cpg/sg71_32_cif.got.tgz:62070.got - 2010.06.03 16:22:01.
