data_PCOD9523434
_publ_section_title
;
Structure prediction by ZEFSAII (Michael W. Deem and Ramdas Pophale) SiO2 
 PCOD9523434
Probable space group: I M M M
;
_chemical_formula_sum "Si O2"
_cell_formula_units_Z 98
_cell_length_a 24.798642
_cell_length_b 15.733906
_cell_length_c 13.712197
_cell_angle_alpha 90.000000
_cell_angle_beta 90.000000
_cell_angle_gamma 90.000000
_cell_volume 5350.218199
_symmetry_space_group_name_H-M "I M M M"
_symmetry_group_IT_number 71
_symmetry_cell_setting 'orthorhombic'
loop_
_space_group_symop_operation_xyz
x,y,z
-x,-y,z
x,-y,-z
-x,y,-z
-x,-y,-z
x,y,-z
-x,y,z
x,-y,z
1/2+x,1/2+y,1/2+z
1/2-x,1/2-y,1/2+z
1/2+x,1/2-y,1/2-z
1/2-x,1/2+y,1/2-z
1/2-x,1/2-y,1/2-z
1/2+x,1/2+y,1/2-z
1/2-x,1/2+y,1/2+z
1/2+x,1/2-y,1/2+z
loop_
_atom_site_type_symbol
_atom_site_label
_atom_site_fract_x
_atom_site_fract_y
_atom_site_fract_z
Si Si1 0.440786 0.500000 0.203963
Si Si2 0.259242 0.597259 0.882620
Si Si3 0.436094 0.189482 0.117937
Si Si4 0.065175 0.500000 0.385612
Si Si5 0.632868 0.661883 0.217905
Si Si6 0.439679 0.903634 0.381806
Si Si7 0.000000 0.000000 0.500000
Si Si8 0.840155 0.717779 0.883423
O O1 0.500000 0.500000 0.251498
O O2 0.407581 0.416474 0.229905
O O3 0.453874 0.500000 0.087597
O O4 0.249373 0.500000 0.849737
O O5 0.316117 0.630280 0.843889
O O6 0.211217 0.660864 0.854084
O O7 0.260011 0.596173 0.000000
O O8 0.500000 0.203120 0.138641
O O9 0.399492 0.262484 0.163828
O O10 0.419543 0.093901 0.151841
O O11 0.431267 0.191913 0.000000
O O12 0.080899 0.500000 0.500000
O O13 0.000000 0.500000 0.382582
O O14 0.654974 0.698083 0.319790
O O15 0.441277 0.907545 0.500000
O O16 0.500000 0.879889 0.348770
O O17 0.393442 0.837280 0.360305
O O18 0.428506 0.000000 0.348256
O O19 0.838008 0.732540 0.000000
#
# Coordination Sequence:
#
# PCOD9523434 Si02
#       8
#     8  16  16   8  16  16   2  16
#     4  10  24  38  61  91 130 155 197 252 312 357
#     4  10  21  38  64  88 113 146 189 250 316 364
#     4   9  18  31  54  82 118 155 189 232 294 358
#     4   7  12  28  46  69 106 153 186 211 261 346
#     4  12  22  36  58  88 117 153 200 250 294 357
#     4   8  14  28  52  78 105 139 182 233 285 334
#     4   8  24  40  64  92 134 158 196 256 330 364
#     4  10  22  39  57  81 115 154 197 239 293 353
#
# _framework density 18.31701
#
# number of rings (size 3 to 8) (size 9 to 14) (size 15 to 20)
#    0.245    2.204    0.816    3.429    2.286    3.265 
#    2.939    0.408    0.000    0.490    0.000    0.000 
#    0.000    0.000    0.000    0.000    0.000    0.000 
#
# Total GULP energy -273121.666403 kJ/mol
# GULP energy per Si atom -5573.911559 kJ/mol
# Density = 1.827532 g / cm^3
# Si number density = 18.317010 Si / 1000 Ang^3
#
#
#
# Elastic Constant Matrix: (Units=GPa)
#
#
# Indices 1 2 3 4 5 6 
#
# 1 91.6899 62.9742 18.8662 0.0000 0.0000 0.0000
# 2 62.9742 141.5927 39.0273 0.0000 0.0000 0.0000
# 3 18.8662 39.0273 57.5650 0.0000 0.0000 0.0000
# 4 0.0000 0.0000 0.0000 21.2516 0.0000 0.0000
# 5 0.0000 0.0000 0.0000 0.0000 14.3018 0.0000
# 6 0.0000 0.0000 0.0000 0.0000 0.0000 17.5797
#
#
#
# Elastic Compliance Matrix: (Units=1/GPa)
#
#
# Indices 1 2 3 4 5 6 
#
# 1 0.015715 -0.006850 -0.000506 0.000000 0.000000 0.000000
# 2 -0.006850 0.011671 -0.005668 0.000000 0.000000 0.000000
# 3 -0.000506 -0.005668 0.021380 0.000000 0.000000 0.000000
# 4 0.000000 0.000000 0.000000 0.047055 0.000000 0.000000
# 5 0.000000 0.000000 0.000000 0.000000 0.069921 0.000000
# 6 0.000000 0.000000 0.000000 0.000000 0.000000 0.056884
#
#
# Mechanical properties :
#
#
# Convention : Reuss Voigt Hill
#
# Bulk Modulus (GPa) = 44.01710 59.17588 51.59649
# Shear Modulus (GPa) = 19.51237 21.95862 20.73550
#
# Velocity S-wave (km/s) = 3.26737 3.46614 3.36822
# Velocity P-wave (km/s) = 6.19009 6.95669 6.58455
#
# Compressibility (1/GPa) = 0.02271844
#
# Stress axis : x y z
#
# Youngs Moduli (GPa) = 63.63312 85.68097 46.77211
#
# Poissons Ratio (x) = 0.58690 0.02369
# Poissons Ratio (y) = 0.43587 0.26509
# Poissons Ratio (z) = 0.03223 0.48562
#
# Static dielectric constant tensor:
#      x y z
#    x 1.603750 0.000000 0.000000 
#    y 0.000000 1.635890 0.000000 
#    z 0.000000 0.000000 1.665400 
# 
# From -- ./inp_files/39243.got.cif
#   From: 2010.05.17/outbox.cif.g08.bks.cpg/sg71_20_cif.got.tgz:39243.got - 2010.06.03 16:22:01.
