data_PCOD9523061
_publ_section_title
;
Structure prediction by ZEFSAII (Michael W. Deem and Ramdas Pophale) SiO2 
 PCOD9523061
Probable space group: I M M M
;
_chemical_formula_sum "Si O2"
_cell_formula_units_Z 88
_cell_length_a 19.986277
_cell_length_b 11.439775
_cell_length_c 18.943318
_cell_angle_alpha 90.000000
_cell_angle_beta 90.000000
_cell_angle_gamma 90.000000
_cell_volume 4331.172039
_symmetry_space_group_name_H-M "I M M M"
_symmetry_group_IT_number 71
_symmetry_cell_setting 'orthorhombic'
loop_
_space_group_symop_operation_xyz
x,y,z
-x,-y,z
x,-y,-z
-x,y,-z
-x,-y,-z
x,y,-z
-x,y,z
x,-y,z
1/2+x,1/2+y,1/2+z
1/2-x,1/2-y,1/2+z
1/2+x,1/2-y,1/2-z
1/2-x,1/2+y,1/2-z
1/2-x,1/2-y,1/2-z
1/2+x,1/2+y,1/2-z
1/2-x,1/2+y,1/2+z
1/2+x,1/2-y,1/2+z
loop_
_atom_site_type_symbol
_atom_site_label
_atom_site_fract_x
_atom_site_fract_y
_atom_site_fract_z
Si Si1 0.000000 0.359302 0.083107
Si Si2 0.317717 0.000000 0.084400
Si Si3 0.927604 0.138591 0.272639
Si Si4 0.581734 0.000000 0.785721
Si Si5 0.372725 0.198188 0.324393
Si Si6 0.106488 0.139459 0.575410
Si Si7 0.250624 0.248592 0.580257
O O1 0.933009 0.311652 0.119737
O O2 0.000000 0.500000 0.093251
O O3 0.000000 0.334597 0.000000
O O4 0.274940 0.119205 0.096777
O O5 0.380438 0.000000 0.138630
O O6 0.335824 0.000000 0.000000
O O7 0.872913 0.181143 0.218518
O O8 0.922668 0.186920 0.351963
O O9 0.000000 0.174142 0.243797
O O10 0.925299 0.000000 0.278205
O O11 0.608375 0.892359 0.737722
O O12 0.500000 0.000000 0.790027
O O13 0.303701 0.193459 0.366258
O O14 0.081700 0.186911 0.500000
O O15 0.184652 0.168554 0.579450
O O16 0.095183 0.000000 0.574294
O O17 0.278127 0.250837 0.500000
#
# Coordination Sequence:
#
# PCOD9523061 Si02
#       7
#     8   8  16   8  16  16  16
#     4  11  22  40  65  91 119 158 200 251 315 372
#     4  10  24  45  64  89 128 168 212 252 299 375
#     4  10  21  36  57  83 118 158 194 239 293 351
#     4  12  24  41  66  98 127 159 203 265 320 366
#     4  12  22  40  60  89 125 155 198 256 307 365
#     4   9  19  36  57  85 117 150 197 247 294 354
#     4  10  23  41  61  86 119 161 204 251 302 363
#
# _framework density 20.317826
#
# number of rings (size 3 to 8) (size 9 to 14) (size 15 to 20)
#    0.000    1.545    2.727    1.636    2.545    3.455 
#    0.000    1.818    0.000    6.000    0.000    0.000 
#    0.000    0.000    0.000    0.000    0.000    0.000 
#
# Total GULP energy -245372.657608 kJ/mol
# GULP energy per Si atom -5576.651309 kJ/mol
# Density = 2.027158 g / cm^3
# Si number density = 20.317826 Si / 1000 Ang^3
#
#
#
# Elastic Constant Matrix: (Units=GPa)
#
#
# Indices 1 2 3 4 5 6 
#
# 1 88.7875 11.4804 52.8077 0.0000 0.0000 0.0000
# 2 11.4804 30.6664 30.0558 0.0000 0.0000 0.0000
# 3 52.8077 30.0558 125.7327 0.0000 0.0000 0.0000
# 4 0.0000 0.0000 0.0000 25.4883 0.0000 0.0000
# 5 0.0000 0.0000 0.0000 0.0000 32.2063 0.0000
# 6 0.0000 0.0000 0.0000 0.0000 0.0000 16.8388
#
#
#
# Elastic Compliance Matrix: (Units=1/GPa)
#
#
# Indices 1 2 3 4 5 6 
#
# 1 0.015026 0.000731 -0.006486 0.000000 0.000000 0.000000
# 2 0.000731 0.042622 -0.010496 0.000000 0.000000 0.000000
# 3 -0.006486 -0.010496 0.013186 0.000000 0.000000 0.000000
# 4 0.000000 0.000000 0.000000 0.039234 0.000000 0.000000
# 5 0.000000 0.000000 0.000000 0.000000 0.031050 0.000000
# 6 0.000000 0.000000 0.000000 0.000000 0.000000 0.059387
#
#
# Mechanical properties :
#
#
# Convention : Reuss Voigt Hill
#
# Bulk Modulus (GPa) = 26.08655 48.20826 37.14741
# Shear Modulus (GPa) = 20.34323 24.96286 22.65305
#
# Velocity S-wave (km/s) = 3.16769 3.50897 3.34269
# Velocity P-wave (km/s) = 5.12310 6.34001 5.76376
#
# Compressibility (1/GPa) = 0.03833393
#
# Stress axis : x y z
#
# Youngs Moduli (GPa) = 66.55264 23.46214 75.83633
#
# Poissons Ratio (x) = -0.01716 0.49185
# Poissons Ratio (y) = -0.04868 0.79596
# Poissons Ratio (z) = 0.43164 0.24625
#
# Static dielectric constant tensor:
#      x y z
#    x 1.731560 0.000000 0.000000 
#    y 0.000000 1.791890 0.000000 
#    z 0.000000 0.000000 1.731530 
# 
# From -- ./inp_files/47146.got.cif
#   From: 2010.05.17/outbox.cif.g08.bks.cpg/sg71_24_cif.got.tgz:47146.got - 2010.06.03 16:22:01.
