data_PCOD9523623
_publ_section_title
;
Structure prediction by ZEFSAII (Michael W. Deem and Ramdas Pophale) SiO2 
 PCOD9523623
Probable space group: I M M M
;
_chemical_formula_sum "Si O2"
_cell_formula_units_Z 104
_cell_length_a 10.037314
_cell_length_b 25.521986
_cell_length_c 21.987916
_cell_angle_alpha 90.000000
_cell_angle_beta 90.000000
_cell_angle_gamma 90.000000
_cell_volume 5632.692538
_symmetry_space_group_name_H-M "I M M M"
_symmetry_group_IT_number 71
_symmetry_cell_setting 'orthorhombic'
loop_
_space_group_symop_operation_xyz
x,y,z
-x,-y,z
x,-y,-z
-x,y,-z
-x,-y,-z
x,y,-z
-x,y,z
x,-y,z
1/2+x,1/2+y,1/2+z
1/2-x,1/2-y,1/2+z
1/2+x,1/2-y,1/2-z
1/2-x,1/2+y,1/2-z
1/2-x,1/2-y,1/2-z
1/2+x,1/2+y,1/2-z
1/2-x,1/2+y,1/2+z
1/2+x,1/2-y,1/2+z
loop_
_atom_site_type_symbol
_atom_site_label
_atom_site_fract_x
_atom_site_fract_y
_atom_site_fract_z
Si Si1 0.000000 0.436261 0.425682
Si Si2 0.149127 0.500000 0.074474
Si Si3 0.842269 0.768993 0.067715
Si Si4 0.243579 0.873108 0.119823
Si Si5 0.148703 0.807219 0.369223
Si Si6 0.341003 0.301897 0.734485
Si Si7 0.500000 0.437428 0.571902
Si Si8 0.144347 0.916640 0.427786
O O1 0.124793 0.406241 0.394798
O O2 0.000000 0.500000 0.415575
O O3 0.000000 0.429344 0.500000
O O4 0.232632 0.449935 0.095241
O O5 0.000000 0.500000 0.097027
O O6 0.143844 0.500000 0.000000
O O7 0.776364 0.825813 0.072095
O O8 0.765117 0.732740 0.114914
O O9 0.000000 0.773450 0.079661
O O10 0.825345 0.747137 0.000000
O O11 0.220640 0.840785 0.183428
O O12 0.125225 0.913244 0.106418
O O13 0.158003 0.828515 0.300865
O O14 0.158451 0.855869 0.414044
O O15 0.000000 0.782746 0.375552
O O16 0.500000 0.290367 0.720536
O O17 0.250000 0.250000 0.750000
O O18 0.500000 0.500000 0.573704
O O19 0.500000 0.421917 0.500000
O O20 0.140911 0.924804 0.500000
O O21 0.000000 0.933805 0.403287
#
# Coordination Sequence:
#
# PCOD9523623 Si02
#       8
#     8   8  16  16  16  16   8  16
#     4  11  26  46  69 100 132 166 216 276 338 399
#     4   9  17  29  51  79 107 139 179 229 286 351
#     4  11  22  35  54  88 126 158 199 253 315 379
#     4  12  23  41  64  93 130 166 210 263 320 393
#     4  10  22  37  57  83 117 159 205 250 299 360
#     4  11  23  40  62  89 122 165 214 257 303 373
#     4  11  22  40  69  98 126 166 214 270 336 399
#     4   9  17  32  53  77 107 144 189 242 299 354
#
# _framework density 18.463638
#
# number of rings (size 3 to 8) (size 9 to 14) (size 15 to 20)
#    0.000    1.462    3.077    2.538    2.154    3.692 
#    0.000    1.538    3.385    0.000    0.000    0.000 
#    0.000    0.000    0.000    0.000    0.000    0.000 
#
# Total GULP energy -289617.885880 kJ/mol
# GULP energy per Si atom -5569.574728 kJ/mol
# Density = 1.842161 g / cm^3
# Si number density = 18.463638 Si / 1000 Ang^3
#
#
#
# Elastic Constant Matrix: (Units=GPa)
#
#
# Indices 1 2 3 4 5 6 
#
# 1 172.5064 77.6191 45.7962 0.0000 0.0000 0.0000
# 2 77.6191 96.0706 34.0123 0.0000 0.0000 0.0000
# 3 45.7962 34.0123 82.9668 0.0000 0.0000 0.0000
# 4 0.0000 0.0000 0.0000 23.1372 0.0000 0.0000
# 5 0.0000 0.0000 0.0000 0.0000 21.0689 0.0000
# 6 0.0000 0.0000 0.0000 0.0000 0.0000 25.9435
#
#
#
# Elastic Compliance Matrix: (Units=1/GPa)
#
#
# Indices 1 2 3 4 5 6 
#
# 1 0.009518 -0.006820 -0.002458 0.000000 0.000000 0.000000
# 2 -0.006820 0.017063 -0.003230 0.000000 0.000000 0.000000
# 3 -0.002458 -0.003230 0.014734 0.000000 0.000000 0.000000
# 4 0.000000 0.000000 0.000000 0.043220 0.000000 0.000000
# 5 0.000000 0.000000 0.000000 0.000000 0.047463 0.000000
# 6 0.000000 0.000000 0.000000 0.000000 0.000000 0.038545
#
#
# Mechanical properties :
#
#
# Convention : Reuss Voigt Hill
#
# Bulk Modulus (GPa) = 61.35595 74.04434 67.70015
# Shear Modulus (GPa) = 24.87653 26.97101 25.92377
#
# Velocity S-wave (km/s) = 3.67458 3.82614 3.75112
# Velocity P-wave (km/s) = 7.16283 7.72716 7.45034
#
# Compressibility (1/GPa) = 0.01629834
#
# Stress axis : x y z
#
# Youngs Moduli (GPa) = 105.06475 58.60773 67.86964
#
# Poissons Ratio (x) = 0.39969 0.16682
# Poissons Ratio (y) = 0.71651 0.21925
# Poissons Ratio (z) = 0.25825 0.18933
#
# Static dielectric constant tensor:
#      x y z
#    x 1.689040 0.000000 0.000000 
#    y 0.000000 1.631770 0.000000 
#    z 0.000000 0.000000 1.670480 
# 
# From -- ./inp_files/58035.got.cif
#   From: 2010.05.17/outbox.cif.g08.bks.cpg/sg71_30_cif.got.tgz:58035.got - 2010.06.03 16:22:01.
