data_PCOD9523516
_publ_section_title
;
Structure prediction by ZEFSAII (Michael W. Deem and Ramdas Pophale) SiO2 
 PCOD9523516
Probable space group: I M M M
;
_chemical_formula_sum "Si O2"
_cell_formula_units_Z 90
_cell_length_a 25.495608
_cell_length_b 8.288352
_cell_length_c 20.588070
_cell_angle_alpha 90.000000
_cell_angle_beta 90.000000
_cell_angle_gamma 90.000000
_cell_volume 4350.600409
_symmetry_space_group_name_H-M "I M M M"
_symmetry_group_IT_number 71
_symmetry_cell_setting 'orthorhombic'
loop_
_space_group_symop_operation_xyz
x,y,z
-x,-y,z
x,-y,-z
-x,y,-z
-x,-y,-z
x,y,-z
-x,y,z
x,-y,z
1/2+x,1/2+y,1/2+z
1/2-x,1/2-y,1/2+z
1/2+x,1/2-y,1/2-z
1/2-x,1/2+y,1/2-z
1/2-x,1/2-y,1/2-z
1/2+x,1/2+y,1/2-z
1/2-x,1/2+y,1/2+z
1/2+x,1/2-y,1/2+z
loop_
_atom_site_type_symbol
_atom_site_label
_atom_site_fract_x
_atom_site_fract_y
_atom_site_fract_z
Si Si1 0.100019 0.308631 0.575016
Si Si2 0.605953 0.690623 0.644849
Si Si3 0.214834 0.809105 0.425675
Si Si4 0.500000 0.813224 0.705207
Si Si5 0.000000 0.500000 0.000000
Si Si6 0.917236 0.192138 0.000000
Si Si7 0.500000 0.312476 0.151775
Si Si8 0.284548 0.309945 0.309683
O O1 0.087534 0.263971 0.500000
O O2 0.108828 0.500000 0.577190
O O3 0.154391 0.223628 0.593351
O O4 0.051830 0.264506 0.620651
O O5 0.599372 0.500000 0.659441
O O6 0.551798 0.774972 0.663926
O O7 0.614101 0.704269 0.567471
O O8 0.656354 0.756826 0.683182
O O9 0.220896 0.751063 0.500000
O O10 0.253398 0.726169 0.375546
O O11 0.224304 0.000000 0.424076
O O12 0.500000 0.712039 0.771138
O O13 0.500000 0.000000 0.723495
O O14 0.044726 0.350127 0.000000
O O15 0.938099 0.000000 0.000000
O O16 0.500000 0.500000 0.135561
O O17 0.290409 0.500000 0.302103
O O18 0.250000 0.250000 0.250000
#
# Coordination Sequence:
#
# PCOD9523516 Si02
#       8
#    16  16  16   8   2   8   8  16
#     4  10  21  39  64  94 127 164 211 265 319 381
#     4  10  24  46  69  95 131 174 219 269 337 396
#     4  10  22  41  66  97 131 169 214 268 325 387
#     4  12  27  43  65  94 128 169 216 269 319 387
#     4  12  22  36  68 110 136 184 230 260 358 404
#     4  10  23  43  69 102 141 177 222 288 334 405
#     4  12  25  40  62  89 128 172 211 262 322 387
#     4  11  25  44  69  97 133 177 222 276 335 399
#
# _framework density 20.686800000000002
#
# number of rings (size 3 to 8) (size 9 to 14) (size 15 to 20)
#    0.000    1.422    0.000    4.133    6.222    6.044 
#    0.000    0.000    0.000    0.000    0.000    0.000 
#    0.000    0.000    0.000    0.000    0.000    0.000 
#
# Total GULP energy -251175.716656 kJ/mol
# GULP energy per Si atom -5581.682592 kJ/mol
# Density = 2.063972 g / cm^3
# Si number density = 20.686800 Si / 1000 Ang^3
#
#
#
# Elastic Constant Matrix: (Units=GPa)
#
#
# Indices 1 2 3 4 5 6 
#
# 1 127.0188 9.4538 56.6894 0.0000 0.0000 0.0000
# 2 9.4538 64.7026 0.0770 0.0000 0.0000 0.0000
# 3 56.6894 0.0770 65.1230 0.0000 0.0000 0.0000
# 4 0.0000 0.0000 0.0000 31.6487 0.0000 0.0000
# 5 0.0000 0.0000 0.0000 0.0000 22.0004 0.0000
# 6 0.0000 0.0000 0.0000 0.0000 0.0000 16.0960
#
#
#
# Elastic Compliance Matrix: (Units=1/GPa)
#
#
# Indices 1 2 3 4 5 6 
#
# 1 0.013105 -0.001901 -0.011405 0.000000 0.000000 0.000000
# 2 -0.001901 0.015731 0.001636 0.000000 0.000000 0.000000
# 3 -0.011405 0.001636 0.025282 0.000000 0.000000 0.000000
# 4 0.000000 0.000000 0.000000 0.031597 0.000000 0.000000
# 5 0.000000 0.000000 0.000000 0.000000 0.045454 0.000000
# 6 0.000000 0.000000 0.000000 0.000000 0.000000 0.062127
#
#
# Mechanical properties :
#
#
# Convention : Reuss Voigt Hill
#
# Bulk Modulus (GPa) = 32.49127 43.25386 37.87257
# Shear Modulus (GPa) = 22.03663 26.65729 24.34696
#
# Velocity S-wave (km/s) = 3.26736 3.59362 3.43437
# Velocity P-wave (km/s) = 5.47490 6.17844 5.83728
#
# Compressibility (1/GPa) = 0.03077750
#
# Stress axis : x y z
#
# Youngs Moduli (GPa) = 76.30898 63.56804 39.55402
#
# Poissons Ratio (x) = 0.12085 0.45112
# Poissons Ratio (y) = 0.14508 -0.06472
# Poissons Ratio (z) = 0.87033 -0.10402
#
# Static dielectric constant tensor:
#      x y z
#    x 1.745710 0.000000 0.000000 
#    y 0.000000 1.714730 0.000000 
#    z 0.000000 0.000000 1.736150 
# 
# From -- ./inp_files/55646.got.cif
#   From: 2010.05.17/outbox.cif.g08.bks.cpg/sg71_28_cif.got.tgz:55646.got - 2010.06.03 16:22:01.
