data_PCOD9523116
_publ_section_title
;
Structure prediction by ZEFSAII (Michael W. Deem and Ramdas Pophale) SiO2 
 PCOD9523116
Probable space group: I M M M
;
_chemical_formula_sum "Si O2"
_cell_formula_units_Z 72
_cell_length_a 15.919176
_cell_length_b 7.923996
_cell_length_c 29.873976
_cell_angle_alpha 90.000000
_cell_angle_beta 90.000000
_cell_angle_gamma 90.000000
_cell_volume 3768.407502
_symmetry_space_group_name_H-M "I M M M"
_symmetry_group_IT_number 71
_symmetry_cell_setting 'orthorhombic'
loop_
_space_group_symop_operation_xyz
x,y,z
-x,-y,z
x,-y,-z
-x,y,-z
-x,-y,-z
x,y,-z
-x,y,z
x,-y,z
1/2+x,1/2+y,1/2+z
1/2-x,1/2-y,1/2+z
1/2+x,1/2-y,1/2-z
1/2-x,1/2+y,1/2-z
1/2-x,1/2-y,1/2-z
1/2+x,1/2+y,1/2-z
1/2-x,1/2+y,1/2+z
1/2+x,1/2-y,1/2+z
loop_
_atom_site_type_symbol
_atom_site_label
_atom_site_fract_x
_atom_site_fract_y
_atom_site_fract_z
Si Si1 0.212953 0.691323 0.051423
Si Si2 0.094451 0.796383 0.709642
Si Si3 0.905384 0.794035 0.186790
Si Si4 0.264278 0.200559 0.139271
Si Si5 0.091894 0.000000 0.946420
O O1 0.180779 0.500000 0.052638
O O2 0.279917 0.715386 0.090989
O O3 0.143015 0.830780 0.063251
O O4 0.240985 0.723862 0.000000
O O5 0.108441 0.744493 0.761282
O O6 0.164764 0.734494 0.675842
O O7 0.000000 0.741882 0.696995
O O8 0.096010 0.000000 0.709350
O O9 0.825637 0.735597 0.158295
O O10 0.000000 0.739946 0.173549
O O11 0.904917 0.000000 0.185215
O O12 0.258919 0.000000 0.132856
O O13 0.000000 0.000000 0.925150
O O14 0.083418 0.000000 0.000000
#
# Coordination Sequence:
#
# PCOD9523116 Si02
#       5
#    16  16  16  16   8
#     4  10  21  37  55  77 108 146 189 232 276 330
#     4   9  18  34  54  75 105 144 184 227 276 334
#     4   8  16  31  50  75 108 146 183 220 269 327
#     4  11  20  31  53  83 108 143 185 231 280 330
#     4   9  18  34  54  76 105 141 181 227 278 326
#
# _framework density 19.106214000000001
#
# number of rings (size 3 to 8) (size 9 to 14) (size 15 to 20)
#    0.000    2.556    1.111    2.667    0.000    1.778 
#    0.000    3.333    0.000    5.333    0.000    4.667 
#    0.000    0.000    0.000    0.000    0.000    0.000 
#
# Total GULP energy -200738.860480 kJ/mol
# GULP energy per Si atom -5576.079458 kJ/mol
# Density = 1.906273 g / cm^3
# Si number density = 19.106214 Si / 1000 Ang^3
#
#
#
# Elastic Constant Matrix: (Units=GPa)
#
#
# Indices 1 2 3 4 5 6 
#
# 1 80.9780 12.3920 70.1825 0.0000 0.0000 0.0000
# 2 12.3920 58.7510 21.9463 0.0000 0.0000 0.0000
# 3 70.1825 21.9463 123.8536 0.0000 0.0000 0.0000
# 4 0.0000 0.0000 0.0000 20.1881 0.0000 0.0000
# 5 0.0000 0.0000 0.0000 0.0000 10.6428 0.0000
# 6 0.0000 0.0000 0.0000 0.0000 0.0000 11.5015
#
#
#
# Elastic Compliance Matrix: (Units=1/GPa)
#
#
# Indices 1 2 3 4 5 6 
#
# 1 0.024267 0.000019 -0.013754 0.000000 0.000000 0.000000
# 2 0.000019 0.018228 -0.003241 0.000000 0.000000 0.000000
# 3 -0.013754 -0.003241 0.016442 0.000000 0.000000 0.000000
# 4 0.000000 0.000000 0.000000 0.049534 0.000000 0.000000
# 5 0.000000 0.000000 0.000000 0.000000 0.093960 0.000000
# 6 0.000000 0.000000 0.000000 0.000000 0.000000 0.086945
#
#
# Mechanical properties :
#
#
# Convention : Reuss Voigt Hill
#
# Bulk Modulus (GPa) = 40.02390 52.51379 46.26884
# Shear Modulus (GPa) = 15.07588 19.07061 17.07325
#
# Velocity S-wave (km/s) = 2.81206 3.16276 2.99255
# Velocity P-wave (km/s) = 5.61580 6.39392 6.01745
#
# Compressibility (1/GPa) = 0.02498507
#
# Stress axis : x y z
#
# Youngs Moduli (GPa) = 41.20861 54.86212 60.81860
#
# Poissons Ratio (x) = -0.00107 0.83652
# Poissons Ratio (y) = -0.00080 0.19711
# Poissons Ratio (z) = 0.56680 0.17780
#
# Static dielectric constant tensor:
#      x y z
#    x 1.665530 0.000000 0.000000 
#    y 0.000000 1.681490 0.000000 
#    z 0.000000 0.000000 1.694470 
# 
# From -- ./inp_files/69714.got.cif
#   From: 2010.05.17/outbox.cif.g08.bks.cpg/sg71_35_cif.got.tgz:69714.got - 2010.06.03 16:22:01.
