data_PCOD9523452
_publ_section_title
;
Structure prediction by ZEFSAII (Michael W. Deem and Ramdas Pophale) SiO2 
 PCOD9523452
Probable space group: I M M M
;
_chemical_formula_sum "Si O2"
_cell_formula_units_Z 56
_cell_length_a 24.361304
_cell_length_b 9.868600
_cell_length_c 13.801968
_cell_angle_alpha 90.000000
_cell_angle_beta 90.000000
_cell_angle_gamma 90.000000
_cell_volume 3318.158243
_symmetry_space_group_name_H-M "I M M M"
_symmetry_group_IT_number 71
_symmetry_cell_setting 'orthorhombic'
loop_
_space_group_symop_operation_xyz
x,y,z
-x,-y,z
x,-y,-z
-x,y,-z
-x,-y,-z
x,y,-z
-x,y,z
x,-y,z
1/2+x,1/2+y,1/2+z
1/2-x,1/2-y,1/2+z
1/2+x,1/2-y,1/2-z
1/2-x,1/2+y,1/2-z
1/2-x,1/2-y,1/2-z
1/2+x,1/2+y,1/2-z
1/2-x,1/2+y,1/2+z
1/2+x,1/2-y,1/2+z
loop_
_atom_site_type_symbol
_atom_site_label
_atom_site_fract_x
_atom_site_fract_y
_atom_site_fract_z
Si Si1 0.698458 0.229517 0.000000
Si Si2 0.639818 0.734559 0.804621
Si Si3 0.790407 0.000000 0.786520
Si Si4 0.287914 0.500000 0.500000
Si Si5 0.830635 0.500000 0.793200
Si Si6 0.730221 0.000000 0.500000
Si Si7 0.565539 0.500000 0.115025
O O1 0.661411 0.210361 0.093512
O O2 0.748686 0.128332 0.000000
O O3 0.728070 0.374354 0.000000
O O4 0.686724 0.634099 0.764192
O O5 0.589965 0.632901 0.831056
O O6 0.636017 0.863247 0.733346
O O7 0.724797 0.000000 0.773828
O O8 0.815039 0.000000 0.895087
O O9 0.807028 0.500000 0.902898
O O10 0.500000 0.500000 0.117654
O O11 0.582807 0.500000 0.000000
#
# Coordination Sequence:
#
# PCOD9523452 Si02
#       7
#     8  16   8   4   8   4   8
#     4  12  18  30  48  75 107 150 180 209 255 303
#     4  11  21  34  53  77 109 147 178 214 262 315
#     4  11  20  32  47  74 107 152 184 210 247 308
#     4  12  22  28  46  72 114 148 186 212 242 300
#     4  12  21  34  49  81 111 148 185 212 261 309
#     4  12  22  30  52  72 114 154 184 214 242 306
#     4  10  21  39  61  81 101 132 175 220 273 332
#
# _framework density 16.876833000000001
#
# number of rings (size 3 to 8) (size 9 to 14) (size 15 to 20)
#    0.000    0.714    7.143    3.429    0.000    0.000 
#    0.000    0.714    0.000    1.714    0.000   19.000 
#    0.000    0.000    0.000    0.000    0.000    0.000 
#
# Total GULP energy -156154.179937 kJ/mol
# GULP energy per Si atom -5576.934998 kJ/mol
# Density = 1.683842 g / cm^3
# Si number density = 16.876833 Si / 1000 Ang^3
#
#
#
# Elastic Constant Matrix: (Units=GPa)
#
#
# Indices 1 2 3 4 5 6 
#
# 1 53.8222 18.2423 7.7193 0.0000 0.0000 0.0000
# 2 18.2423 88.0353 -9.7304 0.0000 0.0000 0.0000
# 3 7.7193 -9.7304 90.9892 0.0000 0.0000 0.0000
# 4 0.0000 0.0000 0.0000 23.1998 0.0000 0.0000
# 5 0.0000 0.0000 0.0000 0.0000 18.3119 0.0000
# 6 0.0000 0.0000 0.0000 0.0000 0.0000 3.2757
#
#
#
# Elastic Compliance Matrix: (Units=1/GPa)
#
#
# Indices 1 2 3 4 5 6 
#
# 1 0.020413 -0.004474 -0.002210 0.000000 0.000000 0.000000
# 2 -0.004474 0.012476 0.001714 0.000000 0.000000 0.000000
# 3 -0.002210 0.001714 0.011361 0.000000 0.000000 0.000000
# 4 0.000000 0.000000 0.000000 0.043104 0.000000 0.000000
# 5 0.000000 0.000000 0.000000 0.000000 0.054609 0.000000
# 6 0.000000 0.000000 0.000000 0.000000 0.000000 0.305278
#
#
# Mechanical properties :
#
#
# Convention : Reuss Voigt Hill
#
# Bulk Modulus (GPa) = 29.14744 29.47879 29.31312
# Shear Modulus (GPa) = 10.66966 23.39852 17.03409
#
# Velocity S-wave (km/s) = 2.51710 3.72752 3.18042
# Velocity P-wave (km/s) = 5.07503 6.00256 5.55818
#
# Compressibility (1/GPa) = 0.03430833
#
# Stress axis : x y z
#
# Youngs Moduli (GPa) = 48.98801 80.15633 88.01974
#
# Poissons Ratio (x) = 0.35864 0.19455
# Poissons Ratio (y) = 0.21918 -0.15084
# Poissons Ratio (z) = 0.10828 -0.13737
#
# Static dielectric constant tensor:
#      x y z
#    x 1.527870 0.000000 0.000000 
#    y 0.000000 1.589290 0.000000 
#    z 0.000000 0.000000 1.616240 
# 
# From -- ./inp_files/3668.got.cif
#   From: 2010.05.17/outbox.cif.g08.bks.cpg/sg71_2_cif.got.tgz:3668.got - 2010.06.03 16:22:01.
