data_PCOD9523544
_publ_section_title
;
Structure prediction by ZEFSAII (Michael W. Deem and Ramdas Pophale) SiO2 
 PCOD9523544
Probable space group: I M M M
;
_chemical_formula_sum "Si O2"
_cell_formula_units_Z 104
_cell_length_a 22.072094
_cell_length_b 26.930649
_cell_length_c 8.499416
_cell_angle_alpha 90.000000
_cell_angle_beta 90.000000
_cell_angle_gamma 90.000000
_cell_volume 5052.187299
_symmetry_space_group_name_H-M "I M M M"
_symmetry_group_IT_number 71
_symmetry_cell_setting 'orthorhombic'
loop_
_space_group_symop_operation_xyz
x,y,z
-x,-y,z
x,-y,-z
-x,y,-z
-x,-y,-z
x,y,-z
-x,y,z
x,-y,z
1/2+x,1/2+y,1/2+z
1/2-x,1/2-y,1/2+z
1/2+x,1/2-y,1/2-z
1/2-x,1/2+y,1/2-z
1/2-x,1/2-y,1/2-z
1/2+x,1/2+y,1/2-z
1/2-x,1/2+y,1/2+z
1/2+x,1/2-y,1/2+z
loop_
_atom_site_type_symbol
_atom_site_label
_atom_site_fract_x
_atom_site_fract_y
_atom_site_fract_z
Si Si1 0.394968 0.375204 0.683978
Si Si2 0.193236 0.282186 0.309759
Si Si3 0.569747 0.941598 0.687830
Si Si4 0.703024 0.555600 0.814890
Si Si5 0.431102 0.268636 0.811807
Si Si6 0.000000 0.941135 0.684792
Si Si7 0.186120 0.603895 0.314988
O O1 0.397431 0.364344 0.500000
O O2 0.331330 0.399609 0.729571
O O3 0.413642 0.325538 0.774689
O O4 0.442356 0.417401 0.732561
O O5 0.193207 0.279310 0.500000
O O6 0.250000 0.250000 0.250000
O O7 0.127086 0.262755 0.253500
O O8 0.200195 0.339759 0.265584
O O9 0.578318 0.935099 0.500000
O O10 0.500000 0.929875 0.724444
O O11 0.616565 0.908397 0.781818
O O12 0.579537 0.000000 0.722753
O O13 0.686103 0.500000 0.759624
O O14 0.773334 0.565503 0.782635
O O15 0.689217 0.558145 0.000000
O O16 0.500000 0.258517 0.751462
O O17 0.433498 0.262061 0.000000
O O18 0.000000 0.927728 0.500000
O O19 0.000000 0.000000 0.697047
O O20 0.199477 0.598400 0.500000
#
# Coordination Sequence:
#
# PCOD9523544 Si02
#       7
#    16  16  16  16  16   8  16
#     4  12  24  38  59  89 122 152 193 250 305 348
#     4  10  23  41  61  88 118 155 201 250 306 363
#     4   9  19  37  60  86 119 160 203 241 284 352
#     4  11  24  41  61  85 117 161 208 246 290 360
#     4  10  21  40  65  87 115 160 209 249 296 365
#     4  11  23  39  59  83 115 157 201 237 280 349
#     4  11  23  38  59  90 124 152 191 251 310 359
#
# _framework density 20.585142000000001
#
# number of rings (size 3 to 8) (size 9 to 14) (size 15 to 20)
#    0.000    1.462    0.769    4.846    0.000   11.077 
#    0.000    2.308    0.000    0.000    0.000    0.000 
#    0.000    0.000    0.000    0.000    0.000    0.000 
#
# Total GULP energy -290584.438421 kJ/mol
# GULP energy per Si atom -5588.162277 kJ/mol
# Density = 2.053829 g / cm^3
# Si number density = 20.585142 Si / 1000 Ang^3
#
#
#
# Elastic Constant Matrix: (Units=GPa)
#
#
# Indices 1 2 3 4 5 6 
#
# 1 100.4171 26.2310 6.1262 0.0000 0.0000 0.0000
# 2 26.2310 46.6997 3.0142 0.0000 0.0000 0.0000
# 3 6.1262 3.0142 7.3367 0.0000 0.0000 0.0000
# 4 0.0000 0.0000 0.0000 14.2986 0.0000 0.0000
# 5 0.0000 0.0000 0.0000 0.0000 -60.2458 0.0000
# 6 0.0000 0.0000 0.0000 0.0000 0.0000 52.3089
#
#
#
# Elastic Compliance Matrix: (Units=1/GPa)
#
#
# Indices 1 2 3 4 5 6 
#
# 1 0.012058 -0.006290 -0.007484 0.000000 0.000000 0.000000
# 2 -0.006290 0.025278 -0.005133 0.000000 0.000000 0.000000
# 3 -0.007484 -0.005133 0.144660 0.000000 0.000000 0.000000
# 4 0.000000 0.000000 0.000000 0.069937 0.000000 0.000000
# 5 0.000000 0.000000 0.000000 0.000000 -0.016599 0.000000
# 6 0.000000 0.000000 0.000000 0.000000 0.000000 0.019117
#
#
# Mechanical properties :
#
#
# Convention : Reuss Voigt Hill
#
# Bulk Modulus (GPa) = 6.93574 25.02182 15.97878
# Shear Modulus (GPa) = 14.69180 9.21115 11.95148
#
# Velocity S-wave (km/s) = 2.67443 2.11763 2.41215
# Velocity P-wave (km/s) = 3.59352 4.26155 3.94171
#
# Compressibility (1/GPa) = 0.14418072
#
# Stress axis : x y z
#
# Youngs Moduli (GPa) = 82.93161 39.56052 6.91278
#
# Poissons Ratio (x) = 0.24883 0.05174
# Poissons Ratio (y) = 0.52163 0.03548
# Poissons Ratio (z) = 0.62070 0.20306
#
# Static dielectric constant tensor:
#      x y z
#    x 1.783270 0.000000 0.000000 
#    y 0.000000 1.725790 0.000000 
#    z 0.000000 0.000000 1.714230 
# 
# From -- ./inp_files/11069.got.cif
#   From: 2010.05.17/outbox.cif.g08.bks.cpg/sg71_6_cif.got.tgz:11069.got - 2010.06.03 16:22:01.
