data_PCOD9523977
_publ_section_title
;
Structure prediction by ZEFSAII (Michael W. Deem and Ramdas Pophale) SiO2 
 PCOD9523977
Probable space group: I M M M
;
_chemical_formula_sum "Si O2"
_cell_formula_units_Z 50
_cell_length_a 29.868866
_cell_length_b 10.303083
_cell_length_c 8.223000
_cell_angle_alpha 90.000000
_cell_angle_beta 90.000000
_cell_angle_gamma 90.000000
_cell_volume 2530.557578
_symmetry_space_group_name_H-M "I M M M"
_symmetry_group_IT_number 71
_symmetry_cell_setting 'orthorhombic'
loop_
_space_group_symop_operation_xyz
x,y,z
-x,-y,z
x,-y,-z
-x,y,-z
-x,-y,-z
x,y,-z
-x,y,z
x,-y,z
1/2+x,1/2+y,1/2+z
1/2-x,1/2-y,1/2+z
1/2+x,1/2-y,1/2-z
1/2-x,1/2+y,1/2-z
1/2-x,1/2-y,1/2-z
1/2+x,1/2+y,1/2-z
1/2-x,1/2+y,1/2+z
1/2+x,1/2-y,1/2+z
loop_
_atom_site_type_symbol
_atom_site_label
_atom_site_fract_x
_atom_site_fract_y
_atom_site_fract_z
Si Si1 0.882909 0.722265 0.190201
Si Si2 0.050957 0.500000 0.694487
Si Si3 0.000000 0.000000 0.500000
Si Si4 0.214459 0.644860 0.308153
Si Si5 0.427969 0.500000 0.694634
O O1 0.921762 0.626337 0.251211
O O2 0.836120 0.689850 0.273998
O O3 0.898717 0.869778 0.210984
O O4 0.876480 0.697123 0.000000
O O5 0.049204 0.500000 0.500000
O O6 0.000000 0.500000 0.757579
O O7 0.038276 0.000000 0.650446
O O8 0.220094 0.635201 0.500000
O O9 0.221131 0.500000 0.236743
O O10 0.250000 0.750000 0.250000
O O11 0.444570 0.500000 0.500000
#
# Coordination Sequence:
#
# PCOD9523977 Si02
#       5
#    16   8   2  16   8
#     4  11  24  45  68  96 137 179 226 284 342 403
#     4  11  25  41  66  99 135 174 230 280 335 410
#     4  12  26  44  76  96 144 188 238 278 368 398
#     4  11  25  44  69  99 135 174 223 279 337 410
#     4  10  27  45  68 103 139 182 235 290 340 414
#
# _framework density 19.758490999999999
#
# number of rings (size 3 to 8) (size 9 to 14) (size 15 to 20)
#    0.000    1.120    1.600    2.640    8.960    3.200 
#    0.000    0.000    0.000    0.000    0.000    0.000 
#    0.000    0.000    0.000    0.000    0.000    0.000 
#
# Total GULP energy -139361.807199 kJ/mol
# GULP energy per Si atom -5574.472288 kJ/mol
# Density = 1.971352 g / cm^3
# Si number density = 19.758491 Si / 1000 Ang^3
#
#
#
# Elastic Constant Matrix: (Units=GPa)
#
#
# Indices 1 2 3 4 5 6 
#
# 1 158.1412 95.6376 35.0728 0.0000 0.0000 0.0000
# 2 95.6376 186.9936 44.3915 0.0000 0.0000 0.0000
# 3 35.0728 44.3915 97.1405 0.0000 0.0000 0.0000
# 4 0.0000 0.0000 0.0000 31.8366 0.0000 0.0000
# 5 0.0000 0.0000 0.0000 0.0000 42.2753 0.0000
# 6 0.0000 0.0000 0.0000 0.0000 0.0000 0.0597
#
#
#
# Elastic Compliance Matrix: (Units=1/GPa)
#
#
# Indices 1 2 3 4 5 6 
#
# 1 0.009306 -0.004444 -0.001329 0.000000 0.000000 0.000000
# 2 -0.004444 0.008121 -0.002107 0.000000 0.000000 0.000000
# 3 -0.001329 -0.002107 0.011737 0.000000 0.000000 0.000000
# 4 0.000000 0.000000 0.000000 0.031410 0.000000 0.000000
# 5 0.000000 0.000000 0.000000 0.000000 0.023654 0.000000
# 6 0.000000 0.000000 0.000000 0.000000 0.000000 16.745932
#
#
# Mechanical properties :
#
#
# Convention : Reuss Voigt Hill
#
# Bulk Modulus (GPa) = 74.60294 88.05323 81.32809
# Shear Modulus (GPa) = 0.29673 32.64588 16.47131
#
# Velocity S-wave (km/s) = 0.38795 4.06919 2.89040
# Velocity P-wave (km/s) = 6.16766 8.16941 7.23807
#
# Compressibility (1/GPa) = 0.01340430
#
# Stress axis : x y z
#
# Youngs Moduli (GPa) = 107.46095 123.14257 85.20158
#
# Poissons Ratio (x) = 0.54723 0.11324
# Poissons Ratio (y) = 0.47754 0.17948
# Poissons Ratio (z) = 0.14282 0.25940
#
# Static dielectric constant tensor:
#      x y z
#    x 1.671330 0.000000 0.000000 
#    y 0.000000 1.705750 0.000000 
#    z 0.000000 0.000000 1.703890 
# 
# From -- ./inp_files/16000.got.cif
#   From: 2010.05.17/outbox.cif.g08.bks.cpg/sg71_8_cif.got.tgz:16000.got - 2010.06.03 16:22:01.
