data_PCOD9523205
_publ_section_title
;
Structure prediction by ZEFSAII (Michael W. Deem and Ramdas Pophale) SiO2 
 PCOD9523205
Probable space group: I M M M
;
_chemical_formula_sum "Si O2"
_cell_formula_units_Z 96
_cell_length_a 31.396270
_cell_length_b 19.355271
_cell_length_c 8.608759
_cell_angle_alpha 90.000000
_cell_angle_beta 90.000000
_cell_angle_gamma 90.000000
_cell_volume 5231.399201
_symmetry_space_group_name_H-M "I M M M"
_symmetry_group_IT_number 71
_symmetry_cell_setting 'orthorhombic'
loop_
_space_group_symop_operation_xyz
x,y,z
-x,-y,z
x,-y,-z
-x,y,-z
-x,-y,-z
x,y,-z
-x,y,z
x,-y,z
1/2+x,1/2+y,1/2+z
1/2-x,1/2-y,1/2+z
1/2+x,1/2-y,1/2-z
1/2-x,1/2+y,1/2-z
1/2-x,1/2-y,1/2-z
1/2+x,1/2+y,1/2-z
1/2-x,1/2+y,1/2+z
1/2+x,1/2-y,1/2+z
loop_
_atom_site_type_symbol
_atom_site_label
_atom_site_fract_x
_atom_site_fract_y
_atom_site_fract_z
Si Si1 0.049060 0.420399 0.687461
Si Si2 0.124638 0.672424 0.813904
Si Si3 0.451797 0.420855 0.189178
Si Si4 0.702214 0.580060 0.314113
Si Si5 0.704539 0.079890 0.312732
Si Si6 0.626426 0.673015 0.186401
O O1 0.051305 0.416989 0.500000
O O2 0.058440 0.500000 0.733048
O O3 0.082854 0.368198 0.758003
O O4 0.000000 0.405385 0.731719
O O5 0.166301 0.629311 0.762164
O O6 0.126204 0.749581 0.749372
O O7 0.124926 0.674435 0.000000
O O8 0.500000 0.403180 0.238280
O O9 0.442659 0.500000 0.236886
O O10 0.415566 0.368511 0.241727
O O11 0.451648 0.420421 0.000000
O O12 0.699883 0.583506 0.500000
O O13 0.694344 0.500000 0.266056
O O14 0.749896 0.598129 0.259654
O O15 0.667484 0.630465 0.241647
O O16 0.708117 0.083471 0.500000
O O17 0.695010 0.000000 0.271291
O O18 0.625850 0.674731 0.000000
#
# Coordination Sequence:
#
# PCOD9523205 Si02
#       6
#    16  16  16  16  16  16
#     4   9  19  37  60  84 110 143 185 230 273 323
#     4  11  23  37  54  80 114 148 182 225 277 328
#     4   8  15  30  53  79 103 130 172 223 266 307
#     4  10  21  37  58  83 109 138 176 225 277 327
#     4   9  19  37  59  80 103 136 180 226 271 324
#     4  11  22  35  54  80 111 148 184 220 269 328
#
# _framework density 18.350731
#
# number of rings (size 3 to 8) (size 9 to 14) (size 15 to 20)
#    0.000    2.333    0.000    3.500    0.000    5.667 
#    0.000    4.167    0.000    1.500    0.000    5.833 
#    0.000    0.000    0.000    0.000    0.000    0.000 
#
# Total GULP energy -267989.473085 kJ/mol
# GULP energy per Si atom -5583.114023 kJ/mol
# Density = 1.830896 g / cm^3
# Si number density = 18.350731 Si / 1000 Ang^3
#
#
#
# Elastic Constant Matrix: (Units=GPa)
#
#
# Indices 1 2 3 4 5 6 
#
# 1 174.3802 141.7127 43.1246 0.0000 0.0000 0.0000
# 2 141.7127 160.9944 43.6773 0.0000 0.0000 0.0000
# 3 43.1246 43.6773 30.8796 0.0000 0.0000 0.0000
# 4 0.0000 0.0000 0.0000 29.3400 0.0000 0.0000
# 5 0.0000 0.0000 0.0000 0.0000 24.2234 0.0000
# 6 0.0000 0.0000 0.0000 0.0000 0.0000 -9.0787
#
#
#
# Elastic Compliance Matrix: (Units=1/GPa)
#
#
# Indices 1 2 3 4 5 6 
#
# 1 0.020623 -0.016777 -0.005070 0.000000 0.000000 0.000000
# 2 -0.016777 0.023728 -0.010132 0.000000 0.000000 0.000000
# 3 -0.005070 -0.010132 0.053795 0.000000 0.000000 0.000000
# 4 0.000000 0.000000 0.000000 0.034083 0.000000 0.000000
# 5 0.000000 0.000000 0.000000 0.000000 0.041282 0.000000
# 6 0.000000 0.000000 0.000000 0.000000 0.000000 -0.110148
#
#
# Mechanical properties :
#
#
# Convention : Reuss Voigt Hill
#
# Bulk Modulus (GPa) = 29.25024 91.47593 60.36309
# Shear Modulus (GPa) = 36.04434 18.07957 27.06196
#
# Velocity S-wave (km/s) = 4.43673 3.14223 3.84436
# Velocity P-wave (km/s) = 6.49771 7.94492 7.25748
#
# Compressibility (1/GPa) = 0.03418776
#
# Stress axis : x y z
#
# Youngs Moduli (GPa) = 48.48985 42.14394 18.58913
#
# Poissons Ratio (x) = 0.70707 0.09425
# Poissons Ratio (y) = 0.81354 0.18834
# Poissons Ratio (z) = 0.24584 0.42699
#
# Static dielectric constant tensor:
#      x y z
#    x 1.614140 0.000000 0.000000 
#    y 0.000000 1.605860 0.000000 
#    z 0.000000 0.000000 1.625570 
# 
# From -- ./inp_files/14889.got.cif
#   From: 2010.05.17/outbox.cif.g08.bks.cpg/sg71_8_cif.got.tgz:14889.got - 2010.06.03 16:22:01.
