data_PCOD9523733
_publ_section_title
;
Structure prediction by ZEFSAII (Michael W. Deem and Ramdas Pophale) SiO2 
 PCOD9523733
Probable space group: I M M M
;
_chemical_formula_sum "Si O2"
_cell_formula_units_Z 72
_cell_length_a 7.983583
_cell_length_b 18.496700
_cell_length_c 25.511120
_cell_angle_alpha 90.000000
_cell_angle_beta 90.000000
_cell_angle_gamma 90.000000
_cell_volume 3767.225551
_symmetry_space_group_name_H-M "I M M M"
_symmetry_group_IT_number 71
_symmetry_cell_setting 'orthorhombic'
loop_
_space_group_symop_operation_xyz
x,y,z
-x,-y,z
x,-y,-z
-x,y,-z
-x,-y,-z
x,y,-z
-x,y,z
x,-y,z
1/2+x,1/2+y,1/2+z
1/2-x,1/2-y,1/2+z
1/2+x,1/2-y,1/2-z
1/2-x,1/2+y,1/2-z
1/2-x,1/2-y,1/2-z
1/2+x,1/2+y,1/2-z
1/2-x,1/2+y,1/2+z
1/2+x,1/2-y,1/2+z
loop_
_atom_site_type_symbol
_atom_site_label
_atom_site_fract_x
_atom_site_fract_y
_atom_site_fract_z
Si Si1 0.702875 0.085521 0.000000
Si Si2 0.184448 0.414007 0.777104
Si Si3 0.000000 0.809609 0.443129
Si Si4 0.805747 0.296137 0.698698
Si Si5 0.690324 0.294472 0.418962
Si Si6 0.000000 0.913060 0.346645
O O1 0.769864 0.129839 0.949027
O O2 0.500000 0.090464 0.000000
O O3 0.747671 0.000000 0.000000
O O4 0.188890 0.500000 0.773052
O O5 0.204554 0.377328 0.721015
O O6 0.334690 0.391480 0.814496
O O7 0.000000 0.391778 0.797284
O O8 0.164553 0.759827 0.437565
O O9 0.000000 0.843718 0.500000
O O10 0.000000 0.870953 0.400082
O O11 0.750000 0.250000 0.750000
O O12 0.707428 0.293348 0.644381
O O13 0.000000 0.278271 0.687434
O O14 0.500000 0.273654 0.432577
O O15 0.000000 0.000000 0.352438
#
# Coordination Sequence:
#
# PCOD9523733 Si02
#       6
#     8  16   8  16  16   8
#     4  11  23  45  71  94 127 170 216 268 316 363
#     4   9  20  38  58  84 120 159 198 240 298 368
#     4  12  24  43  64  88 122 158 209 263 317 371
#     4  11  22  36  58  90 125 160 205 254 307 366
#     4  12  24  41  63  91 128 167 212 258 313 368
#     4  10  22  39  64  90 120 159 200 254 314 376
#
# _framework density 19.112207000000001
#
# number of rings (size 3 to 8) (size 9 to 14) (size 15 to 20)
#    0.000    1.222    3.333    2.333    3.111    4.667 
#    0.000    2.222    0.000    0.000    0.000    4.667 
#    0.000    0.000    0.000    0.000    0.000    0.000 
#
# Total GULP energy -200956.683374 kJ/mol
# GULP energy per Si atom -5582.130094 kJ/mol
# Density = 1.906871 g / cm^3
# Si number density = 19.112207 Si / 1000 Ang^3
#
#
#
# Elastic Constant Matrix: (Units=GPa)
#
#
# Indices 1 2 3 4 5 6 
#
# 1 139.0475 25.6711 40.6414 0.0000 0.0000 0.0000
# 2 25.6711 44.2358 33.6085 0.0000 0.0000 0.0000
# 3 40.6414 33.6085 116.8920 0.0000 0.0000 0.0000
# 4 0.0000 0.0000 0.0000 35.8235 0.0000 0.0000
# 5 0.0000 0.0000 0.0000 0.0000 19.9258 0.0000
# 6 0.0000 0.0000 0.0000 0.0000 0.0000 5.5262
#
#
#
# Elastic Compliance Matrix: (Units=1/GPa)
#
#
# Indices 1 2 3 4 5 6 
#
# 1 0.008385 -0.003392 -0.001940 0.000000 0.000000 0.000000
# 2 -0.003392 0.030297 -0.007531 0.000000 0.000000 0.000000
# 3 -0.001940 -0.007531 0.011395 0.000000 0.000000 0.000000
# 4 0.000000 0.000000 0.000000 0.027915 0.000000 0.000000
# 5 0.000000 0.000000 0.000000 0.000000 0.050186 0.000000
# 6 0.000000 0.000000 0.000000 0.000000 0.000000 0.180956
#
#
# Mechanical properties :
#
#
# Convention : Reuss Voigt Hill
#
# Bulk Modulus (GPa) = 41.06875 55.55746 48.31311
# Shear Modulus (GPa) = 14.57823 25.60539 20.09181
#
# Velocity S-wave (km/s) = 2.76483 3.66422 3.24582
# Velocity P-wave (km/s) = 5.63269 6.85815 6.27540
#
# Compressibility (1/GPa) = 0.02434942
#
# Stress axis : x y z
#
# Youngs Moduli (GPa) = 119.25927 33.00692 87.75886
#
# Poissons Ratio (x) = 0.11196 0.17026
# Poissons Ratio (y) = 0.40454 0.66095
# Poissons Ratio (z) = 0.23137 0.24859
#
# Static dielectric constant tensor:
#      x y z
#    x 1.683190 0.000000 0.000000 
#    y 0.000000 1.687140 0.000000 
#    z 0.000000 0.000000 1.668340 
# 
# From -- ./inp_files/57310.got.cif
#   From: 2010.05.17/outbox.cif.g08.bks.cpg/sg71_29_cif.got.tgz:57310.got - 2010.06.03 16:22:01.
