data_PCOD9523943
_publ_section_title
;
Structure prediction by ZEFSAII (Michael W. Deem and Ramdas Pophale) SiO2 
 PCOD9523943
Probable space group: I M M M
;
_chemical_formula_sum "Si O2"
_cell_formula_units_Z 90
_cell_length_a 17.737413
_cell_length_b 11.978167
_cell_length_c 21.970284
_cell_angle_alpha 90.000000
_cell_angle_beta 90.000000
_cell_angle_gamma 90.000000
_cell_volume 4667.843780
_symmetry_space_group_name_H-M "I M M M"
_symmetry_group_IT_number 71
_symmetry_cell_setting 'orthorhombic'
loop_
_space_group_symop_operation_xyz
x,y,z
-x,-y,z
x,-y,-z
-x,y,-z
-x,-y,-z
x,y,-z
-x,y,z
x,-y,z
1/2+x,1/2+y,1/2+z
1/2-x,1/2-y,1/2+z
1/2+x,1/2-y,1/2-z
1/2-x,1/2+y,1/2-z
1/2-x,1/2-y,1/2-z
1/2+x,1/2+y,1/2-z
1/2-x,1/2+y,1/2+z
1/2+x,1/2-y,1/2+z
loop_
_atom_site_type_symbol
_atom_site_label
_atom_site_fract_x
_atom_site_fract_y
_atom_site_fract_z
Si Si1 0.500000 0.000000 0.000000
Si Si2 0.410353 0.500000 0.927829
Si Si3 0.911927 0.866462 0.932109
Si Si4 0.342271 0.124171 0.000000
Si Si5 0.834400 0.226213 0.381344
Si Si6 0.910416 0.368413 0.276275
Si Si7 0.163958 0.302932 0.149300
Si Si8 0.089626 0.500000 0.927507
O O1 0.432081 0.904431 0.000000
O O2 0.500000 0.500000 0.918772
O O3 0.375362 0.612089 0.899986
O O4 0.394762 0.500000 0.000000
O O5 0.864830 0.813415 0.878215
O O6 0.000000 0.833000 0.926289
O O7 0.909044 0.000000 0.930394
O O8 0.886352 0.830248 0.000000
O O9 0.323164 0.195962 0.940661
O O10 0.305410 0.000000 0.000000
O O11 0.882737 0.296854 0.333286
O O12 0.753677 0.195814 0.353105
O O13 0.895245 0.500000 0.286638
O O14 0.867920 0.328675 0.215752
O O15 0.000000 0.355714 0.267628
O O16 0.128429 0.393891 0.103548
O O17 0.000000 0.500000 0.914483
O O18 0.099767 0.500000 0.000000
#
# Coordination Sequence:
#
# PCOD9523943 Si02
#       8
#     2   8  16   8  16  16  16   8
#     4   8  24  40  72 102 136 168 226 300 304 400
#     4  11  25  43  69  96 135 180 217 264 329 415
#     4   9  19  36  59  88 124 172 219 258 313 388
#     4  10  24  41  72 104 135 167 223 281 336 384
#     4  12  26  43  66 102 139 174 217 276 349 406
#     4  11  25  46  72  93 125 178 235 285 333 398
#     4  12  24  41  64  97 136 171 217 276 342 395
#     4  11  23  39  68 102 135 179 231 275 323 393
#
# _framework density 19.280851999999999
#
# number of rings (size 3 to 8) (size 9 to 14) (size 15 to 20)
#    0.267    0.889    1.778    4.800    4.978    3.556 
#    1.600    0.000    0.000    0.000    0.000    0.000 
#    0.000    0.000    0.000    0.000    0.000    0.000 
#
# Total GULP energy -251370.026758 kJ/mol
# GULP energy per Si atom -5586.000595 kJ/mol
# Density = 1.923697 g / cm^3
# Si number density = 19.280852 Si / 1000 Ang^3
#
#
#
# Elastic Constant Matrix: (Units=GPa)
#
#
# Indices 1 2 3 4 5 6 
#
# 1 100.6609 55.9384 64.0916 0.0000 0.0000 0.0000
# 2 55.9384 120.9877 79.7950 0.0000 0.0000 0.0000
# 3 64.0916 79.7950 130.2523 0.0000 0.0000 0.0000
# 4 0.0000 0.0000 0.0000 22.0021 0.0000 0.0000
# 5 0.0000 0.0000 0.0000 0.0000 49.1359 0.0000
# 6 0.0000 0.0000 0.0000 0.0000 0.0000 123.4984
#
#
#
# Elastic Compliance Matrix: (Units=1/GPa)
#
#
# Indices 1 2 3 4 5 6 
#
# 1 0.015321 -0.003543 -0.005368 0.000000 0.000000 0.000000
# 2 -0.003543 0.014688 -0.007255 0.000000 0.000000 0.000000
# 3 -0.005368 -0.007255 0.014763 0.000000 0.000000 0.000000
# 4 0.000000 0.000000 0.000000 0.045450 0.000000 0.000000
# 5 0.000000 0.000000 0.000000 0.000000 0.020352 0.000000
# 6 0.000000 0.000000 0.000000 0.000000 0.000000 0.008097
#
#
# Mechanical properties :
#
#
# Convention : Reuss Voigt Hill
#
# Bulk Modulus (GPa) = 80.38436 83.50567 81.94502
# Shear Modulus (GPa) = 32.22645 49.06567 40.64606
#
# Velocity S-wave (km/s) = 4.09274 5.05006 4.59639
# Velocity P-wave (km/s) = 8.00723 8.79820 8.41202
#
# Compressibility (1/GPa) = 0.01244023
#
# Stress axis : x y z
#
# Youngs Moduli (GPa) = 65.26795 68.08134 67.73494
#
# Poissons Ratio (x) = 0.24123 0.36363
# Poissons Ratio (y) = 0.23126 0.49141
# Poissons Ratio (z) = 0.35038 0.49392
#
# Static dielectric constant tensor:
#      x y z
#    x 1.666220 0.000000 0.000000 
#    y 0.000000 1.685050 0.000000 
#    z 0.000000 0.000000 1.642220 
# 
# From -- ./inp_files/53992.got.cif
#   From: 2010.05.17/outbox.cif.g08.bks.cpg/sg71_27_cif.got.tgz:53992.got - 2010.06.03 16:22:01.
