data_PCOD9523374
_publ_section_title
;
Structure prediction by ZEFSAII (Michael W. Deem and Ramdas Pophale) SiO2 
 PCOD9523374
Probable space group: I M M M
;
_chemical_formula_sum "Si O2"
_cell_formula_units_Z 64
_cell_length_a 8.642173
_cell_length_b 26.487648
_cell_length_c 15.070940
_cell_angle_alpha 90.000000
_cell_angle_beta 90.000000
_cell_angle_gamma 90.000000
_cell_volume 3449.901480
_symmetry_space_group_name_H-M "I M M M"
_symmetry_group_IT_number 71
_symmetry_cell_setting 'orthorhombic'
loop_
_space_group_symop_operation_xyz
x,y,z
-x,-y,z
x,-y,-z
-x,y,-z
-x,-y,-z
x,y,-z
-x,y,z
x,-y,z
1/2+x,1/2+y,1/2+z
1/2-x,1/2-y,1/2+z
1/2+x,1/2-y,1/2-z
1/2-x,1/2+y,1/2-z
1/2-x,1/2-y,1/2-z
1/2+x,1/2+y,1/2-z
1/2-x,1/2+y,1/2+z
1/2+x,1/2-y,1/2+z
loop_
_atom_site_type_symbol
_atom_site_label
_atom_site_fract_x
_atom_site_fract_y
_atom_site_fract_z
Si Si1 0.315392 0.135468 0.140481
Si Si2 0.314648 0.712305 0.500000
Si Si3 0.813799 0.890196 0.668931
Si Si4 0.188165 0.000000 0.396871
Si Si5 0.685624 0.441099 0.500000
Si Si6 0.314146 0.830606 0.500000
O O1 0.500000 0.136419 0.139209
O O2 0.251903 0.183496 0.085920
O O3 0.253452 0.131114 0.239841
O O4 0.253962 0.087381 0.085118
O O5 0.500000 0.706682 0.500000
O O6 0.275693 0.771237 0.500000
O O7 0.764239 0.948380 0.651320
O O8 0.754983 0.857623 0.586251
O O9 0.000000 0.889059 0.672191
O O10 0.239358 0.000000 0.500000
O O11 0.000000 0.000000 0.398521
O O12 0.723123 0.500000 0.500000
O O13 0.500000 0.435271 0.500000
O O14 0.500000 0.835646 0.500000
#
# Coordination Sequence:
#
# PCOD9523374 Si02
#       6
#    16   8  16   8   8   8
#     4  11  23  39  60  89 123 154 196 252 304 350
#     4  10  22  43  66  86 116 158 202 247 302 365
#     4  11  22  39  63  89 121 162 204 242 293 361
#     4   9  18  36  60  87 116 155 202 242 281 345
#     4  10  21  38  60  85 116 159 204 242 291 361
#     4  11  24  41  62  91 121 152 199 256 306 353
#
# _framework density 18.551252999999999
#
# number of rings (size 3 to 8) (size 9 to 14) (size 15 to 20)
#    0.000    1.500    1.250    5.625    1.750    4.000 
#    0.000    2.500    0.000    0.000    0.000    0.000 
#    0.000    0.000    0.000    0.000    0.000    0.000 
#
# Total GULP energy -178867.008848 kJ/mol
# GULP energy per Si atom -5589.594026 kJ/mol
# Density = 1.850903 g / cm^3
# Si number density = 18.551253 Si / 1000 Ang^3
#
#
#
# Elastic Constant Matrix: (Units=GPa)
#
#
# Indices 1 2 3 4 5 6 
#
# 1 99.0965 73.9530 61.2187 0.0000 0.0000 0.0000
# 2 73.9530 177.4799 95.2134 0.0000 0.0000 0.0000
# 3 61.2187 95.2134 193.7461 0.0000 0.0000 0.0000
# 4 0.0000 0.0000 0.0000 -0.3869 0.0000 0.0000
# 5 0.0000 0.0000 0.0000 0.0000 35.0882 0.0000
# 6 0.0000 0.0000 0.0000 0.0000 0.0000 17.1577
#
#
#
# Elastic Compliance Matrix: (Units=1/GPa)
#
#
# Indices 1 2 3 4 5 6 
#
# 1 0.015378 -0.005162 -0.002322 0.000000 0.000000 0.000000
# 2 -0.005162 0.009384 -0.002981 0.000000 0.000000 0.000000
# 3 -0.002322 -0.002981 0.007360 0.000000 0.000000 0.000000
# 4 0.000000 0.000000 0.000000 -2.584485 0.000001 0.000000
# 5 0.000000 0.000000 0.000000 0.000001 0.028500 0.000000
# 6 0.000000 0.000000 0.000000 0.000000 0.000000 0.058283
#
#
# Mechanical properties :
#
#
# Convention : Reuss Voigt Hill
#
# Bulk Modulus (GPa) = 89.34585 103.45474 96.40029
# Shear Modulus (GPa) = -2.04841 26.36763 12.15961
#
# Velocity S-wave (km/s) = -1.05194 3.77416 2.56297
# Velocity P-wave (km/s) = 6.84037 8.65334 7.79971
#
# Compressibility (1/GPa) = 0.01119246
#
# Stress axis : x y z
#
# Youngs Moduli (GPa) = 65.02785 106.55925 135.86859
#
# Poissons Ratio (x) = 0.55005 0.31553
# Poissons Ratio (y) = 0.33567 0.40500
# Poissons Ratio (z) = 0.15102 0.31763
#
# Static dielectric constant tensor:
#      x y z
#    x 1.623340 0.000000 0.000000 
#    y 0.000000 1.628510 0.000000 
#    z 0.000000 0.000000 1.624900 
# 
# From -- ./inp_files/31251.got.cif
#   From: 2010.05.17/outbox.cif.g08.bks.cpg/sg71_16_cif.got.tgz:31251.got - 2010.06.03 16:22:01.
