data_PCOD9523475
_publ_section_title
;
Structure prediction by ZEFSAII (Michael W. Deem and Ramdas Pophale) SiO2 
 PCOD9523475
Probable space group: I M M M
;
_chemical_formula_sum "Si O2"
_cell_formula_units_Z 116
_cell_length_a 25.734103
_cell_length_b 8.613699
_cell_length_c 26.514007
_cell_angle_alpha 90.000000
_cell_angle_beta 90.000000
_cell_angle_gamma 90.000000
_cell_volume 5877.249031
_symmetry_space_group_name_H-M "I M M M"
_symmetry_group_IT_number 71
_symmetry_cell_setting 'orthorhombic'
loop_
_space_group_symop_operation_xyz
x,y,z
-x,-y,z
x,-y,-z
-x,y,-z
-x,-y,-z
x,y,-z
-x,y,z
x,-y,z
1/2+x,1/2+y,1/2+z
1/2-x,1/2-y,1/2+z
1/2+x,1/2-y,1/2-z
1/2-x,1/2+y,1/2-z
1/2-x,1/2-y,1/2-z
1/2+x,1/2+y,1/2-z
1/2-x,1/2+y,1/2+z
1/2+x,1/2-y,1/2+z
loop_
_atom_site_type_symbol
_atom_site_label
_atom_site_fract_x
_atom_site_fract_y
_atom_site_fract_z
Si Si1 0.697644 0.182773 0.773222
Si Si2 0.338390 0.669984 0.604868
Si Si3 0.440976 0.814215 0.138678
Si Si4 0.353935 0.813337 0.057631
Si Si5 0.087730 0.182466 0.252585
Si Si6 0.770324 0.181185 0.376173
Si Si7 0.442764 0.815335 0.352167
Si Si8 0.664252 0.500000 0.500000
O O1 0.750000 0.250000 0.750000
O O2 0.648350 0.272138 0.751323
O O3 0.702454 0.217682 0.832572
O O4 0.692297 0.000000 0.763853
O O5 0.331179 0.500000 0.630265
O O6 0.290225 0.776617 0.620526
O O7 0.394130 0.735715 0.620575
O O8 0.336067 0.632347 0.545379
O O9 0.500000 0.784292 0.121812
O O10 0.399077 0.766595 0.096715
O O11 0.431654 0.734178 0.192374
O O12 0.435180 0.000000 0.146211
O O13 0.300785 0.729641 0.073470
O O14 0.346368 0.000000 0.061584
O O15 0.368064 0.778849 0.000000
O O16 0.061064 0.272403 0.206819
O O17 0.080007 0.000000 0.245943
O O18 0.777195 0.000000 0.364906
O O19 0.500000 0.765246 0.370871
O O20 0.438613 0.000000 0.357957
#
# Coordination Sequence:
#
# PCOD9523475 Si02
#       8
#    16  16  16  16  16  16  16   4
#     4  12  24  40  61  89 127 170 208 256 315 383
#     4  10  22  43  67  95 126 167 212 262 318 383
#     4  10  21  39  62  89 125 169 216 268 322 379
#     4  10  22  39  62  90 123 169 219 268 319 379
#     4  12  24  39  61  93 129 169 216 262 319 384
#     4  12  24  39  62  94 130 168 212 264 321 382
#     4  11  24  43  67  96 131 171 216 267 322 388
#     4   8  24  44  71  98 128 172 215 268 326 386
#
# _framework density 19.737124999999999
#
# number of rings (size 3 to 8) (size 9 to 14) (size 15 to 20)
#    0.414    0.690    1.379    5.793    0.966    3.586 
#    0.000    3.103    0.000    0.828    0.000    1.931 
#    0.000    0.000    0.000    0.000    0.000    0.000 
#
# Total GULP energy -323693.170132 kJ/mol
# GULP energy per Si atom -5580.916726 kJ/mol
# Density = 1.969220 g / cm^3
# Si number density = 19.737125 Si / 1000 Ang^3
#
#
#
# Elastic Constant Matrix: (Units=GPa)
#
#
# Indices 1 2 3 4 5 6 
#
# 1 100.4081 6.8711 -5.0660 0.0000 0.0000 0.0000
# 2 6.8711 40.9711 -3.1449 0.0000 0.0000 0.0000
# 3 -5.0660 -3.1449 39.0335 0.0000 0.0000 0.0000
# 4 0.0000 0.0000 0.0000 28.9423 0.0000 0.0000
# 5 0.0000 0.0000 0.0000 0.0000 3.3789 0.0000
# 6 0.0000 0.0000 0.0000 0.0000 0.0000 23.7651
#
#
#
# Elastic Compliance Matrix: (Units=1/GPa)
#
#
# Indices 1 2 3 4 5 6 
#
# 1 0.010129 -0.001608 0.001185 0.000000 0.000000 0.000000
# 2 -0.001608 0.024815 0.001791 0.000000 0.000000 0.000000
# 3 0.001185 0.001791 0.025917 0.000000 0.000000 0.000000
# 4 0.000000 0.000000 0.000000 0.034552 0.000000 0.000000
# 5 0.000000 0.000000 0.000000 0.000000 0.295953 0.000000
# 6 0.000000 0.000000 0.000000 0.000000 0.000000 0.042079
#
#
# Mechanical properties :
#
#
# Convention : Reuss Voigt Hill
#
# Bulk Modulus (GPa) = 15.72408 19.74812 17.73610
# Shear Modulus (GPa) = 11.06423 23.33409 17.19916
#
# Velocity S-wave (km/s) = 2.37022 3.44211 2.95517
# Velocity P-wave (km/s) = 3.93379 5.08181 4.54420
#
# Compressibility (1/GPa) = 0.06359674
#
# Stress axis : x y z
#
# Youngs Moduli (GPa) = 98.72479 40.29901 38.58453
#
# Poissons Ratio (x) = 0.06479 -0.04573
# Poissons Ratio (y) = 0.15873 -0.06909
# Poissons Ratio (z) = -0.11700 -0.07216
#
# Static dielectric constant tensor:
#      x y z
#    x 1.641550 0.000000 0.000000 
#    y 0.000000 1.671390 0.000000 
#    z 0.000000 0.000000 2.217720 
# 
# From -- ./inp_files/66922.got.cif
#   From: 2010.05.17/outbox.cif.g08.bks.cpg/sg71_34_cif.got.tgz:66922.got - 2010.06.03 16:22:01.
