data_PCOD9523003
_publ_section_title
;
Structure prediction by ZEFSAII (Michael W. Deem and Ramdas Pophale) SiO2 
 PCOD9523003
Probable space group: I M M M
;
_chemical_formula_sum "Si O2"
_cell_formula_units_Z 116
_cell_length_a 13.834090
_cell_length_b 22.726701
_cell_length_c 15.998686
_cell_angle_alpha 90.000000
_cell_angle_beta 90.000000
_cell_angle_gamma 90.000000
_cell_volume 5030.038507
_symmetry_space_group_name_H-M "I M M M"
_symmetry_group_IT_number 71
_symmetry_cell_setting 'orthorhombic'
loop_
_space_group_symop_operation_xyz
x,y,z
-x,-y,z
x,-y,-z
-x,y,-z
-x,-y,-z
x,y,-z
-x,y,z
x,-y,z
1/2+x,1/2+y,1/2+z
1/2-x,1/2-y,1/2+z
1/2+x,1/2-y,1/2-z
1/2-x,1/2+y,1/2-z
1/2-x,1/2-y,1/2-z
1/2+x,1/2+y,1/2-z
1/2-x,1/2+y,1/2+z
1/2+x,1/2-y,1/2+z
loop_
_atom_site_type_symbol
_atom_site_label
_atom_site_fract_x
_atom_site_fract_y
_atom_site_fract_z
Si Si1 0.821438 0.933253 0.409376
Si Si2 0.691267 0.777300 0.398163
Si Si3 0.894335 0.399110 0.099976
Si Si4 0.614523 0.349261 0.405342
Si Si5 0.612585 0.904254 0.149469
Si Si6 0.642296 0.000000 0.000000
Si Si7 0.892724 0.267395 0.601017
Si Si8 0.199704 0.069781 0.765675
O O1 0.842010 0.904572 0.500000
O O2 0.704910 0.935754 0.398084
O O3 0.849151 0.907257 0.320043
O O4 0.858507 0.000000 0.413229
O O5 0.690784 0.780247 0.500000
O O6 0.634119 0.834080 0.366840
O O7 0.642064 0.715906 0.375560
O O8 0.802568 0.771956 0.370212
O O9 0.000000 0.419430 0.130915
O O10 0.905889 0.392140 0.000000
O O11 0.653209 0.356417 0.500000
O O12 0.500000 0.354100 0.408446
O O13 0.655938 0.398093 0.345028
O O14 0.500000 0.912957 0.169266
O O15 0.625315 0.835748 0.124499
O O16 0.685647 0.918757 0.224225
O O17 0.636835 0.948337 0.073322
O O18 0.893650 0.264860 0.500000
O O19 0.000000 0.250621 0.631158
O O20 0.183947 0.000000 0.768993
#
# Coordination Sequence:
#
# PCOD9523003 Si02
#       8
#    16  16  16  16  16   4  16  16
#     4   9  20  40  61  83 111 142 182 238 305 361
#     4   9  16  29  52  80 114 154 198 234 274 332
#     4   9  17  31  56  87 114 147 191 236 285 346
#     4  10  21  36  55  82 120 163 199 232 273 324
#     4  11  20  29  44  71 110 153 197 237 275 327
#     4  12  21  28  44  72 111 164 209 242 274 330
#     4   9  16  26  43  69 106 154 198 229 267 321
#     4  11  23  35  55  82 110 150 195 240 288 343
#
# _framework density 23.061454000000001
#
# number of rings (size 3 to 8) (size 9 to 14) (size 15 to 20)
#    0.000    2.207    2.759    1.034    0.966    3.034 
#    0.000    4.138    0.000    1.241    0.000    3.862 
#    0.000    0.000    0.000    0.000    0.000    0.276 
#
# Total GULP energy -323199.343854 kJ/mol
# GULP energy per Si atom -5572.402480 kJ/mol
# Density = 2.300897 g / cm^3
# Si number density = 23.061454 Si / 1000 Ang^3
#
#
#
# Elastic Constant Matrix: (Units=GPa)
#
#
# Indices 1 2 3 4 5 6 
#
# 1 31.3322 -3.7992 -2.5171 0.0000 0.0000 0.0000
# 2 -3.7992 62.0416 17.2164 0.0000 0.0000 0.0000
# 3 -2.5171 17.2164 103.7475 -0.0001 0.0000 0.0000
# 4 0.0000 0.0000 -0.0001 10.2035 0.0000 0.0000
# 5 0.0000 0.0000 0.0000 0.0000 -6.2857 0.0000
# 6 0.0000 0.0000 0.0000 0.0000 0.0000 -22.3176
#
#
#
# Elastic Compliance Matrix: (Units=1/GPa)
#
#
# Indices 1 2 3 4 5 6 
#
# 1 0.032177 0.001838 0.000476 0.000000 0.000000 0.000000
# 2 0.001838 0.017001 -0.002777 0.000000 0.000000 0.000000
# 3 0.000476 -0.002777 0.010111 0.000000 0.000000 0.000000
# 4 0.000000 0.000000 0.000000 0.098005 0.000000 0.000000
# 5 0.000000 0.000000 0.000000 0.000000 -0.159092 0.000000
# 6 0.000000 0.000000 0.000000 0.000000 0.000000 -0.044808
#
#
# Mechanical properties :
#
#
# Convention : Reuss Voigt Hill
#
# Bulk Modulus (GPa) = 17.13375 24.32461 20.72918
# Shear Modulus (GPa) = -190.66114 8.73480 -90.96317
#
# Velocity S-wave (km/s) = -9.10246 1.94829 -6.28724
# Velocity P-wave (km/s) = 10.15023 3.95370 6.61043
#
# Compressibility (1/GPa) = 0.05836433
#
# Stress axis : x y z
#
# Youngs Moduli (GPa) = 31.07794 58.81895 98.90116
#
# Poissons Ratio (x) = -0.10814 -0.04704
# Poissons Ratio (y) = -0.05714 0.27462
# Poissons Ratio (z) = -0.01478 0.16332
#
# Static dielectric constant tensor:
#      x y z
#    x 1.906590 0.000000 0.000000 
#    y 0.000000 1.824240 0.000000 
#    z 0.000000 0.000000 1.911660 
# 
# From -- ./inp_files/45227.got.cif
#   From: 2010.05.17/outbox.cif.g08.bks.cpg/sg71_23_cif.got.tgz:45227.got - 2010.06.03 16:22:01.
