data_PCOD9523293
_publ_section_title
;
Structure prediction by ZEFSAII (Michael W. Deem and Ramdas Pophale) SiO2 
 PCOD9523293
Probable space group: I M M M
;
_chemical_formula_sum "Si O2"
_cell_formula_units_Z 88
_cell_length_a 20.249797
_cell_length_b 8.717828
_cell_length_c 24.545960
_cell_angle_alpha 90.000000
_cell_angle_beta 90.000000
_cell_angle_gamma 90.000000
_cell_volume 4333.202572
_symmetry_space_group_name_H-M "I M M M"
_symmetry_group_IT_number 71
_symmetry_cell_setting 'orthorhombic'
loop_
_space_group_symop_operation_xyz
x,y,z
-x,-y,z
x,-y,-z
-x,y,-z
-x,-y,-z
x,y,-z
-x,y,z
x,-y,z
1/2+x,1/2+y,1/2+z
1/2-x,1/2-y,1/2+z
1/2+x,1/2-y,1/2-z
1/2-x,1/2+y,1/2-z
1/2-x,1/2-y,1/2-z
1/2+x,1/2+y,1/2-z
1/2-x,1/2+y,1/2+z
1/2+x,1/2-y,1/2+z
loop_
_atom_site_type_symbol
_atom_site_label
_atom_site_fract_x
_atom_site_fract_y
_atom_site_fract_z
Si Si1 0.571974 0.818507 0.173206
Si Si2 0.394998 0.680203 0.938166
Si Si3 0.676189 0.683180 0.746840
Si Si4 0.876014 0.184531 0.869845
Si Si5 0.245769 0.676785 0.437111
Si Si6 0.000000 0.683908 0.936156
O O1 0.500000 0.771950 0.195888
O O2 0.572810 0.776143 0.109688
O O3 0.632131 0.734191 0.202312
O O4 0.579679 0.000000 0.180201
O O5 0.408887 0.500000 0.931452
O O6 0.316832 0.713675 0.932347
O O7 0.413361 0.724795 0.000000
O O8 0.681840 0.500000 0.744690
O O9 0.750000 0.750000 0.750000
O O10 0.636224 0.733732 0.692523
O O11 0.807001 0.218666 0.899851
O O12 0.935988 0.258303 0.902965
O O13 0.885452 0.000000 0.870757
O O14 0.267652 0.678969 0.500000
O O15 0.225405 0.500000 0.424339
O O16 0.000000 0.500000 0.936714
O O17 0.000000 0.736107 0.000000
#
# Coordination Sequence:
#
# PCOD9523293 Si02
#       6
#    16  16  16  16  16   8
#     4  11  25  43  63  88 122 165 210 256 309 368
#     4  10  21  37  60  91 124 158 198 250 312 372
#     4  11  24  42  67  97 128 163 209 263 319 381
#     4  10  22  39  61  88 119 160 207 254 309 374
#     4   9  17  32  57  87 119 156 199 249 303 364
#     4  11  25  41  59  89 127 167 212 263 318 377
#
# _framework density 20.308304
#
# number of rings (size 3 to 8) (size 9 to 14) (size 15 to 20)
#    0.000    1.727    0.000    3.545    1.273    8.000 
#    0.000    3.636    0.000    0.000    0.000    0.000 
#    0.000    0.000    0.000    0.000    0.000    0.000 
#
# Total GULP energy -245869.740898 kJ/mol
# GULP energy per Si atom -5587.948657 kJ/mol
# Density = 2.026208 g / cm^3
# Si number density = 20.308304 Si / 1000 Ang^3
#
#
#
# Elastic Constant Matrix: (Units=GPa)
#
#
# Indices 1 2 3 4 5 6 
#
# 1 97.8273 29.1304 55.3314 0.0000 0.0000 0.0000
# 2 29.1304 39.7611 25.4877 0.0000 0.0000 0.0000
# 3 55.3314 25.4877 106.5970 0.0000 0.0000 0.0000
# 4 0.0000 0.0000 0.0000 27.2161 0.0000 0.0000
# 5 0.0000 0.0000 0.0000 0.0000 30.4437 0.0000
# 6 0.0000 0.0000 0.0000 0.0000 0.0000 22.3762
#
#
#
# Elastic Compliance Matrix: (Units=1/GPa)
#
#
# Indices 1 2 3 4 5 6 
#
# 1 0.016235 -0.007667 -0.006594 0.000000 0.000000 0.000000
# 2 -0.007667 0.033324 -0.003988 0.000000 0.000000 0.000000
# 3 -0.006594 -0.003988 0.013757 0.000000 0.000000 0.000000
# 4 0.000000 0.000000 0.000000 0.036743 0.000000 0.000000
# 5 0.000000 0.000000 0.000000 0.000000 0.032848 0.000000
# 6 0.000000 0.000000 0.000000 0.000000 0.000000 0.044690
#
#
# Mechanical properties :
#
#
# Convention : Reuss Voigt Hill
#
# Bulk Modulus (GPa) = 37.28859 51.56494 44.42676
# Shear Modulus (GPa) = 22.41810 24.95624 23.68717
#
# Velocity S-wave (km/s) = 3.32609 3.50933 3.41893
# Velocity P-wave (km/s) = 5.75774 6.47045 6.12447
#
# Compressibility (1/GPa) = 0.02681786
#
# Stress axis : x y z
#
# Youngs Moduli (GPa) = 61.59670 30.00843 72.68907
#
# Poissons Ratio (x) = 0.23009 0.47928
# Poissons Ratio (y) = 0.47229 0.28988
# Poissons Ratio (z) = 0.40615 0.11967
#
# Static dielectric constant tensor:
#      x y z
#    x 1.712560 0.000000 0.000000 
#    y 0.000000 1.688670 0.000000 
#    z 0.000000 0.000000 1.730480 
# 
# From -- ./inp_files/61099.got.cif
#   From: 2010.05.17/outbox.cif.g08.bks.cpg/sg71_31_cif.got.tgz:61099.got - 2010.06.03 16:22:01.
