data_PCOD9523226
_publ_section_title
;
Structure prediction by ZEFSAII (Michael W. Deem and Ramdas Pophale) SiO2 
 PCOD9523226
Probable space group: I M M M
;
_chemical_formula_sum "Si O2"
_cell_formula_units_Z 116
_cell_length_a 26.388308
_cell_length_b 12.615770
_cell_length_c 18.757280
_cell_angle_alpha 90.000000
_cell_angle_beta 90.000000
_cell_angle_gamma 90.000000
_cell_volume 6244.464034
_symmetry_space_group_name_H-M "I M M M"
_symmetry_group_IT_number 71
_symmetry_cell_setting 'orthorhombic'
loop_
_space_group_symop_operation_xyz
x,y,z
-x,-y,z
x,-y,-z
-x,y,-z
-x,-y,-z
x,y,-z
-x,y,z
x,-y,z
1/2+x,1/2+y,1/2+z
1/2-x,1/2-y,1/2+z
1/2+x,1/2-y,1/2-z
1/2-x,1/2+y,1/2-z
1/2-x,1/2-y,1/2-z
1/2+x,1/2+y,1/2-z
1/2-x,1/2+y,1/2+z
1/2+x,1/2-y,1/2+z
loop_
_atom_site_type_symbol
_atom_site_label
_atom_site_fract_x
_atom_site_fract_y
_atom_site_fract_z
Si Si1 0.940799 0.126258 0.819832
Si Si2 0.642659 0.272219 0.415943
Si Si3 0.747646 0.616600 0.414728
Si Si4 0.730176 0.500000 0.000000
Si Si5 0.180739 0.378161 0.799854
Si Si6 0.060817 0.623485 0.583746
Si Si7 0.880245 0.227168 0.307186
Si Si8 0.283539 0.340156 0.133073
O O1 0.907784 0.181937 0.881060
O O2 0.919445 0.169936 0.745183
O O3 0.000000 0.150713 0.826954
O O4 0.934055 0.000000 0.823685
O O5 0.638632 0.256481 0.500000
O O6 0.688680 0.354779 0.401771
O O7 0.659386 0.165521 0.375381
O O8 0.754794 0.615027 0.500000
O O9 0.760575 0.500000 0.386132
O O10 0.778242 0.715343 0.384592
O O11 0.728956 0.591932 0.063249
O O12 0.167994 0.500000 0.788369
O O13 0.154274 0.303626 0.742225
O O14 0.241395 0.365558 0.807097
O O15 0.072229 0.641531 0.500000
O O16 0.073048 0.500000 0.599692
O O17 0.091108 0.703135 0.633883
O O18 0.000000 0.635911 0.592910
O O19 0.840838 0.144696 0.341635
#
# Coordination Sequence:
#
# PCOD9523226 Si02
#       8
#    16  16  16   4  16  16  16  16
#     4  10  22  39  57  79 108 146 189 237 296 351
#     4   9  19  34  57  87 115 148 189 232 282 334
#     4   9  17  31  51  80 116 146 177 221 278 331
#     4  12  24  40  58  84 117 158 199 244 288 344
#     4  10  21  37  58  85 120 159 194 231 278 345
#     4   9  19  37  61  86 112 144 183 236 297 352
#     4  11  23  38  57  84 114 147 194 238 291 341
#     4  11  23  37  57  84 116 157 195 237 284 339
#
# _framework density 18.576454999999999
#
# number of rings (size 3 to 8) (size 9 to 14) (size 15 to 20)
#    0.000    2.069    1.379    2.069    2.897    2.483 
#    0.000    2.069    0.000    3.724    0.000    6.759 
#    0.000    0.000    0.000    0.000    0.000    0.000 
#
# Total GULP energy -323369.382777 kJ/mol
# GULP energy per Si atom -5575.334186 kJ/mol
# Density = 1.853417 g / cm^3
# Si number density = 18.576455 Si / 1000 Ang^3
#
#
#
# Elastic Constant Matrix: (Units=GPa)
#
#
# Indices 1 2 3 4 5 6 
#
# 1 72.1151 7.5182 33.0870 0.0000 0.0000 0.0000
# 2 7.5182 53.1926 -1.2745 0.0000 0.0000 0.0000
# 3 33.0870 -1.2745 56.1883 0.0000 0.0000 0.0000
# 4 0.0000 0.0000 0.0000 9.8223 0.0000 0.0000
# 5 0.0000 0.0000 0.0000 0.0000 20.8206 0.0000
# 6 0.0000 0.0000 0.0000 0.0000 0.0000 -1.9853
#
#
#
# Elastic Compliance Matrix: (Units=1/GPa)
#
#
# Indices 1 2 3 4 5 6 
#
# 1 0.019476 -0.003029 -0.011537 0.000000 0.000000 0.000000
# 2 -0.003029 0.019281 0.002221 0.000000 0.000000 0.000000
# 3 -0.011537 0.002221 0.024642 0.000000 0.000000 0.000000
# 4 0.000000 0.000000 0.000000 0.101809 0.000000 0.000000
# 5 0.000000 0.000000 0.000000 0.000000 0.048029 0.000000
# 6 0.000000 0.000000 0.000000 0.000000 0.000000 -0.503697
#
#
# Mechanical properties :
#
#
# Convention : Reuss Voigt Hill
#
# Bulk Modulus (GPa) = 25.83468 28.90640 27.37054
# Shear Modulus (GPa) = -19.77325 15.20920 -2.28202
#
# Velocity S-wave (km/s) = -3.26609 2.86446 -1.10956
# Velocity P-wave (km/s) = 0.53455 5.15119 3.62277
#
# Compressibility (1/GPa) = 0.03870767
#
# Stress axis : x y z
#
# Youngs Moduli (GPa) = 51.34541 51.86462 40.58189
#
# Poissons Ratio (x) = 0.15711 0.46821
# Poissons Ratio (y) = 0.15553 -0.09014
# Poissons Ratio (z) = 0.59239 -0.11520
#
# Static dielectric constant tensor:
#      x y z
#    x 1.644870 0.000000 0.000000 
#    y 0.000000 1.634130 0.000000 
#    z 0.000000 0.000000 1.640570 
# 
# From -- ./inp_files/48919.got.cif
#   From: 2010.05.17/outbox.cif.g08.bks.cpg/sg71_25_cif.got.tgz:48919.got - 2010.06.03 16:22:01.
