data_PCOD9523246
_publ_section_title
;
Structure prediction by ZEFSAII (Michael W. Deem and Ramdas Pophale) SiO2 
 PCOD9523246
Probable space group: I M M M
;
_chemical_formula_sum "Si O2"
_cell_formula_units_Z 72
_cell_length_a 15.925708
_cell_length_b 8.450325
_cell_length_c 27.548608
_cell_angle_alpha 90.000000
_cell_angle_beta 90.000000
_cell_angle_gamma 90.000000
_cell_volume 3707.420271
_symmetry_space_group_name_H-M "I M M M"
_symmetry_group_IT_number 71
_symmetry_cell_setting 'orthorhombic'
loop_
_space_group_symop_operation_xyz
x,y,z
-x,-y,z
x,-y,-z
-x,y,-z
-x,-y,-z
x,y,-z
-x,y,z
x,-y,z
1/2+x,1/2+y,1/2+z
1/2-x,1/2-y,1/2+z
1/2+x,1/2-y,1/2-z
1/2-x,1/2+y,1/2-z
1/2-x,1/2-y,1/2-z
1/2+x,1/2+y,1/2-z
1/2-x,1/2+y,1/2+z
1/2+x,1/2-y,1/2+z
loop_
_atom_site_type_symbol
_atom_site_label
_atom_site_fract_x
_atom_site_fract_y
_atom_site_fract_z
Si Si1 0.000000 0.806918 0.555935
Si Si2 0.667780 0.810160 0.777730
Si Si3 0.500000 0.191278 0.278467
Si Si4 0.668727 0.308467 0.556132
Si Si5 0.000000 0.808663 0.111436
Si Si6 0.832488 0.189866 0.612267
O O1 0.916242 0.755784 0.584018
O O2 0.000000 0.754538 0.500000
O O3 0.000000 0.000000 0.555628
O O4 0.750000 0.750000 0.750000
O O5 0.583700 0.755907 0.749773
O O6 0.667382 0.751255 0.832866
O O7 0.668580 0.000000 0.777675
O O8 0.500000 0.250438 0.333474
O O9 0.500000 0.000000 0.279017
O O10 0.669018 0.257162 0.500000
O O11 0.669857 0.500000 0.556738
O O12 0.583845 0.256299 0.583310
O O13 0.750185 0.247603 0.584118
O O14 0.000000 0.000000 0.111598
O O15 0.832562 0.000000 0.613074
#
# Coordination Sequence:
#
# PCOD9523246 Si02
#       6
#     8  16   8  16   8  16
#     4   9  19  36  57  82 114 151 190 231 276 332
#     4  11  23  40  60  84 115 150 189 233 283 337
#     4  10  23  40  58  82 114 149 186 233 284 334
#     4  10  21  38  59  84 115 151 191 234 280 332
#     4  10  21  37  59  84 112 149 190 231 278 336
#     4  11  22  37  59  86 115 149 190 234 282 335
#
# _framework density 19.420511999999999
#
# number of rings (size 3 to 8) (size 9 to 14) (size 15 to 20)
#    0.000    1.667    0.000    4.333    0.000    8.889 
#    0.000    1.667    0.000    6.000    0.000    0.000 
#    0.000    0.000    0.000    0.000    0.000    0.000 
#
# Total GULP energy -201291.306564 kJ/mol
# GULP energy per Si atom -5591.425182 kJ/mol
# Density = 1.937631 g / cm^3
# Si number density = 19.420512 Si / 1000 Ang^3
#
#
#
# Elastic Constant Matrix: (Units=GPa)
#
#
# Indices 1 2 3 4 5 6 
#
# 1 239.1155 36.8797 143.9983 0.0000 0.0000 0.0000
# 2 36.8797 22.5788 34.4823 0.0000 0.0000 0.0000
# 3 143.9983 34.4823 236.8520 0.0000 0.0000 0.0000
# 4 0.0000 0.0000 0.0000 32.7299 0.0000 0.0000
# 5 0.0000 0.0000 0.0000 0.0000 47.7727 0.0000
# 6 0.0000 0.0000 0.0000 0.0000 0.0000 28.5163
#
#
#
# Elastic Compliance Matrix: (Units=1/GPa)
#
#
# Indices 1 2 3 4 5 6 
#
# 1 0.007292 -0.006609 -0.003471 0.000000 0.000000 0.000000
# 2 -0.006609 0.062943 -0.005145 0.000000 0.000000 0.000000
# 3 -0.003471 -0.005145 0.007081 0.000000 0.000000 0.000000
# 4 0.000000 0.000000 0.000000 0.030553 0.000000 0.000000
# 5 0.000000 0.000000 0.000000 0.000000 0.020932 0.000000
# 6 0.000000 0.000000 0.000000 0.000000 0.000000 0.035068
#
#
# Mechanical properties :
#
#
# Convention : Reuss Voigt Hill
#
# Bulk Modulus (GPa) = 21.33800 103.25189 62.29494
# Shear Modulus (GPa) = 23.81614 40.68286 32.24950
#
# Velocity S-wave (km/s) = 3.50571 4.58191 4.07945
# Velocity P-wave (km/s) = 5.23430 9.01519 7.37128
#
# Compressibility (1/GPa) = 0.04686475
#
# Stress axis : x y z
#
# Youngs Moduli (GPa) = 137.14296 15.88743 141.21697
#
# Poissons Ratio (x) = 0.10501 0.49014
# Poissons Ratio (y) = 0.90643 0.72661
# Poissons Ratio (z) = 0.47600 0.08175
#
# Static dielectric constant tensor:
#      x y z
#    x 1.655230 0.000000 0.000000 
#    y 0.000000 1.675850 0.000000 
#    z 0.000000 0.000000 1.632180 
# 
# From -- ./inp_files/6183.got.cif
#   From: 2010.05.17/outbox.cif.g08.bks.cpg/sg71_4_cif.got.tgz:6183.got - 2010.06.03 16:22:01.
