data_PCOD9523301
_publ_section_title
;
Structure prediction by ZEFSAII (Michael W. Deem and Ramdas Pophale) SiO2 
 PCOD9523301
Probable space group: I M M M
;
_chemical_formula_sum "Si O2"
_cell_formula_units_Z 120
_cell_length_a 17.521677
_cell_length_b 19.573146
_cell_length_c 18.489416
_cell_angle_alpha 90.000000
_cell_angle_beta 90.000000
_cell_angle_gamma 90.000000
_cell_volume 6341.025500
_symmetry_space_group_name_H-M "I M M M"
_symmetry_group_IT_number 71
_symmetry_cell_setting 'orthorhombic'
loop_
_space_group_symop_operation_xyz
x,y,z
-x,-y,z
x,-y,-z
-x,y,-z
-x,-y,-z
x,y,-z
-x,y,z
x,-y,z
1/2+x,1/2+y,1/2+z
1/2-x,1/2-y,1/2+z
1/2+x,1/2-y,1/2-z
1/2-x,1/2+y,1/2-z
1/2-x,1/2-y,1/2-z
1/2+x,1/2+y,1/2-z
1/2-x,1/2+y,1/2+z
1/2+x,1/2-y,1/2+z
loop_
_atom_site_type_symbol
_atom_site_label
_atom_site_fract_x
_atom_site_fract_y
_atom_site_fract_z
Si Si1 0.408092 0.289585 0.413148
Si Si2 0.411144 0.500000 0.085873
Si Si3 0.300930 0.200618 0.303698
Si Si4 0.648315 0.420110 0.331086
Si Si5 0.909729 0.758213 0.422564
Si Si6 0.408680 0.103992 0.922241
Si Si7 0.648858 0.372031 0.170105
Si Si8 0.823414 0.574256 0.713805
O O1 0.393612 0.279917 0.500000
O O2 0.500000 0.278985 0.401359
O O3 0.354251 0.242045 0.360232
O O4 0.385731 0.366850 0.388390
O O5 0.500000 0.500000 0.108001
O O6 0.371764 0.566474 0.117997
O O7 0.408111 0.500000 0.000000
O O8 0.250000 0.250000 0.250000
O O9 0.236264 0.151587 0.338238
O O10 0.344816 0.142659 0.257573
O O11 0.628403 0.500000 0.342644
O O12 0.625867 0.395087 0.250428
O O13 0.740372 0.415331 0.323481
O O14 0.882444 0.788061 0.500000
O O15 0.878904 0.682008 0.416546
O O16 0.894251 0.804808 0.354982
O O17 0.000000 0.751742 0.427652
O O18 0.500000 0.104028 0.923752
O O19 0.381151 0.068491 0.851456
O O20 0.382056 0.077303 0.000000
O O21 0.819239 0.500000 0.753032
#
# Coordination Sequence:
#
# PCOD9523301 Si02
#       8
#    16   8  16  16  16  16  16  16
#     4  11  26  46  68  96 129 167 215 274 335 391
#     4  11  24  38  54  92 142 176 208 249 310 394
#     4  11  22  43  66  94 121 158 211 269 319 377
#     4  10  22  42  62  91 124 163 212 263 314 387
#     4   9  18  31  48  78 120 161 199 240 292 356
#     4   9  19  34  52  82 124 163 200 241 293 362
#     4  11  20  35  60  86 122 167 210 259 311 369
#     4  10  21  37  61  89 124 161 204 257 311 373
#
# _framework density 18.924384
#
# number of rings (size 3 to 8) (size 9 to 14) (size 15 to 20)
#    0.000    1.800    3.333    2.400    0.933    5.333 
#    0.000    2.667    0.000    0.000    0.000    0.933 
#    0.000    0.000    0.000    0.000    0.000    0.000 
#
# Total GULP energy -334123.276545 kJ/mol
# GULP energy per Si atom -5568.721276 kJ/mol
# Density = 1.888131 g / cm^3
# Si number density = 18.924384 Si / 1000 Ang^3
#
#
#
# Elastic Constant Matrix: (Units=GPa)
#
#
# Indices 1 2 3 4 5 6 
#
# 1 44.2345 41.5186 52.9845 0.0000 0.0000 0.0000
# 2 41.5186 141.5975 71.5003 0.0000 0.0000 0.0000
# 3 52.9845 71.5003 103.4185 0.0000 0.0000 0.0000
# 4 0.0000 0.0000 0.0000 24.1987 0.0000 0.0000
# 5 0.0000 0.0000 0.0000 0.0000 37.3038 0.0000
# 6 0.0000 0.0000 0.0000 0.0000 0.0000 -22.8558
#
#
#
# Elastic Compliance Matrix: (Units=1/GPa)
#
#
# Indices 1 2 3 4 5 6 
#
# 1 0.059419 -0.003151 -0.028264 0.000000 0.000000 0.000000
# 2 -0.003151 0.011017 -0.006003 0.000000 0.000000 0.000000
# 3 -0.028264 -0.006003 0.028300 0.000000 0.000000 0.000000
# 4 0.000000 0.000000 0.000000 0.041325 0.000000 0.000000
# 5 0.000000 0.000000 0.000000 0.000000 0.026807 0.000000
# 6 0.000000 0.000000 0.000000 0.000000 0.000000 -0.043753
#
#
# Mechanical properties :
#
#
# Convention : Reuss Voigt Hill
#
# Bulk Modulus (GPa) = 41.83838 69.02859 55.43348
# Shear Modulus (GPa) = 24.28169 15.94581 20.11375
#
# Velocity S-wave (km/s) = 3.58591 2.90592 3.26367
# Velocity P-wave (km/s) = 6.26907 6.91479 6.59983
#
# Compressibility (1/GPa) = 0.02390150
#
# Stress axis : x y z
#
# Youngs Moduli (GPa) = 16.82973 90.76692 35.33555
#
# Poissons Ratio (x) = 0.28596 0.99872
# Poissons Ratio (y) = 0.05302 0.21211
# Poissons Ratio (z) = 0.47567 0.54486
#
# Static dielectric constant tensor:
#      x y z
#    x 1.718060 0.000000 0.000000 
#    y 0.000000 1.736400 0.000000 
#    z 0.000000 0.000000 2.967720 
# 
# From -- ./inp_files/46476.got.cif
#   From: 2010.05.17/outbox.cif.g08.bks.cpg/sg71_24_cif.got.tgz:46476.got - 2010.06.03 16:22:01.
