data_PCOD9523752
_publ_section_title
;
Structure prediction by ZEFSAII (Michael W. Deem and Ramdas Pophale) SiO2 
 PCOD9523752
Probable space group: I M M M
;
_chemical_formula_sum "Si O2"
_cell_formula_units_Z 96
_cell_length_a 19.487410
_cell_length_b 8.803803
_cell_length_c 30.108198
_cell_angle_alpha 90.000000
_cell_angle_beta 90.000000
_cell_angle_gamma 90.000000
_cell_volume 5165.462367
_symmetry_space_group_name_H-M "I M M M"
_symmetry_group_IT_number 71
_symmetry_cell_setting 'orthorhombic'
loop_
_space_group_symop_operation_xyz
x,y,z
-x,-y,z
x,-y,-z
-x,y,-z
-x,-y,-z
x,y,-z
-x,y,z
x,-y,z
1/2+x,1/2+y,1/2+z
1/2-x,1/2-y,1/2+z
1/2+x,1/2-y,1/2-z
1/2-x,1/2+y,1/2-z
1/2-x,1/2-y,1/2-z
1/2+x,1/2+y,1/2-z
1/2-x,1/2+y,1/2+z
1/2+x,1/2-y,1/2+z
loop_
_atom_site_type_symbol
_atom_site_label
_atom_site_fract_x
_atom_site_fract_y
_atom_site_fract_z
Si Si1 0.078263 0.826324 0.946878
Si Si2 0.079772 0.181605 0.194540
Si Si3 0.920391 0.684883 0.449774
Si Si4 0.181984 0.819277 0.726679
Si Si5 0.826578 0.323835 0.118182
Si Si6 0.320073 0.181573 0.870567
O O1 0.130282 0.709501 0.925882
O O2 0.000000 0.797265 0.932063
O O3 0.095612 0.000000 0.933279
O O4 0.079288 0.821443 0.000000
O O5 0.117351 0.209812 0.241270
O O6 0.124457 0.266313 0.157685
O O7 0.000000 0.226338 0.194251
O O8 0.083225 0.000000 0.186061
O O9 0.899754 0.732952 0.500000
O O10 0.918557 0.500000 0.449825
O O11 0.871697 0.735342 0.409499
O O12 0.000000 0.729123 0.442942
O O13 0.250000 0.750000 0.750000
O O14 0.168637 0.751770 0.678101
O O15 0.192262 0.000000 0.723280
O O16 0.810217 0.500000 0.123991
O O17 0.757118 0.228283 0.117163
O O18 0.325661 0.000000 0.867324
#
# Coordination Sequence:
#
# PCOD9523752 Si02
#       6
#    16  16  16  16  16  16
#     4   9  19  37  59  80 106 145 190 234 283 341
#     4  10  22  40  61  83 110 149 194 237 287 351
#     4   8  16  34  60  89 119 151 193 246 298 348
#     4  11  22  38  60  84 115 154 194 239 293 351
#     4  12  24  36  54  82 116 152 190 238 290 340
#     4  11  22  36  59  88 118 154 195 239 292 352
#
# _framework density 18.584976999999999
#
# number of rings (size 3 to 8) (size 9 to 14) (size 15 to 20)
#    0.000    1.833    1.667    4.000    0.000    5.000 
#    0.000    2.500    0.000    3.000    0.000    4.667 
#    0.000    0.000    0.000    0.000    0.000    0.000 
#
# Total GULP energy -268004.490694 kJ/mol
# GULP energy per Si atom -5583.426889 kJ/mol
# Density = 1.854268 g / cm^3
# Si number density = 18.584977 Si / 1000 Ang^3
#
#
#
# Elastic Constant Matrix: (Units=GPa)
#
#
# Indices 1 2 3 4 5 6 
#
# 1 106.8743 29.7524 73.4637 0.0000 0.0000 0.0000
# 2 29.7524 35.7911 34.5264 0.0000 0.0000 0.0000
# 3 73.4637 34.5264 130.9986 0.0000 0.0000 0.0000
# 4 0.0000 0.0000 0.0000 32.1776 0.0000 0.0000
# 5 0.0000 0.0000 0.0000 0.0000 38.1659 0.0000
# 6 0.0000 0.0000 0.0000 0.0000 0.0000 11.6527
#
#
#
# Elastic Compliance Matrix: (Units=1/GPa)
#
#
# Indices 1 2 3 4 5 6 
#
# 1 0.016225 -0.006316 -0.007435 0.000000 0.000000 0.000000
# 2 -0.006316 0.039924 -0.006980 0.000000 0.000000 0.000000
# 3 -0.007435 -0.006980 0.013643 0.000000 0.000000 0.000000
# 4 0.000000 0.000000 0.000000 0.031078 0.000000 0.000000
# 5 0.000000 0.000000 0.000000 0.000000 0.026201 0.000000
# 6 0.000000 0.000000 0.000000 0.000000 0.000000 0.085817
#
#
# Mechanical properties :
#
#
# Convention : Reuss Voigt Hill
#
# Bulk Modulus (GPa) = 35.29804 61.01655 48.15730
# Shear Modulus (GPa) = 18.95421 25.46068 22.20745
#
# Velocity S-wave (km/s) = 3.19700 3.70531 3.46050
# Velocity P-wave (km/s) = 5.71505 7.15599 6.47572
#
# Compressibility (1/GPa) = 0.02833019
#
# Stress axis : x y z
#
# Youngs Moduli (GPa) = 61.63147 25.04745 73.29910
#
# Poissons Ratio (x) = 0.15820 0.54494
# Poissons Ratio (y) = 0.38927 0.51166
# Poissons Ratio (z) = 0.45820 0.17484
#
# Static dielectric constant tensor:
#      x y z
#    x 1.621980 0.000000 0.000000 
#    y 0.000000 1.634120 0.000000 
#    z 0.000000 0.000000 1.653510 
# 
# From -- ./inp_files/66331.got.cif
#   From: 2010.05.17/outbox.cif.g08.bks.cpg/sg71_34_cif.got.tgz:66331.got - 2010.06.03 16:22:01.
