data_PCOD9523481
_publ_section_title
;
Structure prediction by ZEFSAII (Michael W. Deem and Ramdas Pophale) SiO2 
 PCOD9523481
Probable space group: I M M M
;
_chemical_formula_sum "Si O2"
_cell_formula_units_Z 56
_cell_length_a 11.843124
_cell_length_b 16.082595
_cell_length_c 14.738028
_cell_angle_alpha 90.000000
_cell_angle_beta 90.000000
_cell_angle_gamma 90.000000
_cell_volume 2807.125176
_symmetry_space_group_name_H-M "I M M M"
_symmetry_group_IT_number 71
_symmetry_cell_setting 'orthorhombic'
loop_
_space_group_symop_operation_xyz
x,y,z
-x,-y,z
x,-y,-z
-x,y,-z
-x,-y,-z
x,y,-z
-x,y,z
x,-y,z
1/2+x,1/2+y,1/2+z
1/2-x,1/2-y,1/2+z
1/2+x,1/2-y,1/2-z
1/2-x,1/2+y,1/2-z
1/2-x,1/2-y,1/2-z
1/2+x,1/2+y,1/2-z
1/2-x,1/2+y,1/2+z
1/2+x,1/2-y,1/2+z
loop_
_atom_site_type_symbol
_atom_site_label
_atom_site_fract_x
_atom_site_fract_y
_atom_site_fract_z
Si Si1 0.765259 0.899623 0.000000
Si Si2 0.124028 0.403272 0.676466
Si Si3 0.762146 0.825064 0.677092
Si Si4 0.128961 0.266431 0.000000
Si Si5 0.500000 0.399251 0.109853
O O1 0.692637 0.875001 0.911585
O O2 0.867174 0.834572 0.000000
O O3 0.788849 0.000000 0.000000
O O4 0.109654 0.500000 0.658402
O O5 0.194165 0.394828 0.767991
O O6 0.000000 0.363119 0.683442
O O7 0.750000 0.750000 0.750000
O O8 0.695174 0.799936 0.587315
O O9 0.887801 0.856092 0.652026
O O10 0.000000 0.294570 0.000000
O O11 0.500000 0.500000 0.126908
O O12 0.500000 0.388133 0.000000
#
# Coordination Sequence:
#
# PCOD9523481 Si02
#       5
#     8  16  16   8   8
#     4  10  21  39  62  94 133 178 223 267 330 411
#     4  10  21  39  64  95 130 168 213 268 330 398
#     4  12  25  42  68  98 131 173 224 278 337 399
#     4  12  26  43  60  95 134 168 217 281 344 401
#     4  11  26  50  74  99 137 186 237 284 338 412
#
# _framework density 19.949234000000001
#
# number of rings (size 3 to 8) (size 9 to 14) (size 15 to 20)
#    0.000    1.000    4.286    2.143    4.000    2.000 
#    2.571    0.000    0.000    3.429    0.000    0.000 
#    0.000    0.000    0.000    0.000    0.000    0.000 
#
# Total GULP energy -156150.446407 kJ/mol
# GULP energy per Si atom -5576.801657 kJ/mol
# Density = 1.990383 g / cm^3
# Si number density = 19.949234 Si / 1000 Ang^3
#
#
#
# Elastic Constant Matrix: (Units=GPa)
#
#
# Indices 1 2 3 4 5 6 
#
# 1 172.8003 52.8813 80.4467 0.0000 0.0000 0.0000
# 2 52.8813 60.4678 36.8866 0.0000 0.0000 0.0000
# 3 80.4467 36.8866 169.3924 0.0000 0.0000 0.0000
# 4 0.0000 0.0000 0.0000 37.4989 0.0000 0.0000
# 5 0.0000 0.0000 0.0000 0.0000 -49.7185 0.0000
# 6 0.0000 0.0000 0.0000 0.0000 0.0000 31.1951
#
#
#
# Elastic Compliance Matrix: (Units=1/GPa)
#
#
# Indices 1 2 3 4 5 6 
#
# 1 0.009030 -0.006090 -0.002962 0.000000 0.000000 0.000000
# 2 -0.006090 0.023178 -0.002155 0.000000 0.000000 0.000000
# 3 -0.002962 -0.002155 0.007780 0.000000 0.000000 0.000000
# 4 0.000000 0.000000 0.000000 0.026667 0.000000 0.000000
# 5 0.000000 0.000000 0.000000 0.000000 -0.020113 0.000000
# 6 0.000000 0.000000 0.000000 0.000000 0.000000 0.032056
#
#
# Mechanical properties :
#
#
# Convention : Reuss Voigt Hill
#
# Bulk Modulus (GPa) = 56.90507 82.56555 69.73531
# Shear Modulus (GPa) = 46.78586 19.29149 33.03867
#
# Velocity S-wave (km/s) = 4.84803 3.11308 4.07398
# Velocity P-wave (km/s) = 7.74110 7.37559 7.56056
#
# Compressibility (1/GPa) = 0.01757313
#
# Stress axis : x y z
#
# Youngs Moduli (GPa) = 110.74549 43.14413 128.54218
#
# Poissons Ratio (x) = 0.26274 0.38077
# Poissons Ratio (y) = 0.67442 0.27702
# Poissons Ratio (z) = 0.32805 0.09298
#
# Static dielectric constant tensor:
#      x y z
#    x 1.753610 0.000000 0.000000 
#    y 0.000000 1.854420 0.000000 
#    z 0.000000 0.000000 1.662890 
# 
# From -- ./inp_files/32243.got.cif
#   From: 2010.05.17/outbox.cif.g08.bks.cpg/sg71_17_cif.got.tgz:32243.got - 2010.06.03 16:22:01.
