data_PCOD9523455
_publ_section_title
;
Structure prediction by ZEFSAII (Michael W. Deem and Ramdas Pophale) SiO2 
 PCOD9523455
Probable space group: I M M M
;
_chemical_formula_sum "Si O2"
_cell_formula_units_Z 68
_cell_length_a 17.331393
_cell_length_b 16.713428
_cell_length_c 13.365431
_cell_angle_alpha 90.000000
_cell_angle_beta 90.000000
_cell_angle_gamma 90.000000
_cell_volume 3871.524155
_symmetry_space_group_name_H-M "I M M M"
_symmetry_group_IT_number 71
_symmetry_cell_setting 'orthorhombic'
loop_
_space_group_symop_operation_xyz
x,y,z
-x,-y,z
x,-y,-z
-x,y,-z
-x,-y,-z
x,y,-z
-x,y,z
x,-y,z
1/2+x,1/2+y,1/2+z
1/2-x,1/2-y,1/2+z
1/2+x,1/2-y,1/2-z
1/2-x,1/2+y,1/2-z
1/2-x,1/2-y,1/2-z
1/2+x,1/2+y,1/2-z
1/2-x,1/2+y,1/2+z
1/2+x,1/2-y,1/2+z
loop_
_atom_site_type_symbol
_atom_site_label
_atom_site_fract_x
_atom_site_fract_y
_atom_site_fract_z
Si Si1 0.500000 0.349851 0.613404
Si Si2 0.337125 0.500000 0.118651
Si Si3 0.862886 0.255663 0.193894
Si Si4 0.796963 0.180591 0.616757
Si Si5 0.407898 0.089023 0.611659
Si Si6 0.000000 0.000000 0.737685
O O1 0.500000 0.379821 0.500000
O O2 0.575101 0.294580 0.631475
O O3 0.500000 0.421832 0.692016
O O4 0.292999 0.584482 0.139082
O O5 0.420259 0.500000 0.174125
O O6 0.351670 0.500000 0.000000
O O7 0.856061 0.215863 0.302186
O O8 0.779996 0.267788 0.140668
O O9 0.889648 0.347274 0.195406
O O10 0.817103 0.188948 0.500000
O O11 0.379173 0.114234 0.500000
O O12 0.500000 0.085339 0.604375
O O13 0.378759 0.000000 0.630174
#
# Coordination Sequence:
#
# PCOD9523455 Si02
#       6
#     8   8  16  16  16   4
#     4  12  23  37  58  86 122 156 191 237 293 354
#     4  10  21  39  61  85 117 152 195 246 291 340
#     4  11  21  36  58  82 114 149 186 234 287 347
#     4  10  22  38  57  83 113 149 191 237 290 344
#     4   9  17  29  49  80 110 135 170 220 278 329
#     4  12  22  40  56  88 118 158 198 234 290 344
#
# _framework density 17.564140999999999
#
# number of rings (size 3 to 8) (size 9 to 14) (size 15 to 20)
#    0.000    1.647    3.529    3.176    1.647    0.000 
#    0.000    0.588    0.000    0.706    0.000    1.647 
#    0.000    0.000    0.000    0.000    0.000    0.000 
#
# Total GULP energy -189413.673934 kJ/mol
# GULP energy per Si atom -5570.990410 kJ/mol
# Density = 1.752416 g / cm^3
# Si number density = 17.564141 Si / 1000 Ang^3
#
#
#
# Elastic Constant Matrix: (Units=GPa)
#
#
# Indices 1 2 3 4 5 6 
#
# 1 50.6661 16.0233 20.1604 0.0000 0.0000 0.0000
# 2 16.0233 115.8281 56.9556 0.0000 0.0000 0.0000
# 3 20.1604 56.9556 94.0293 0.0000 0.0000 0.0000
# 4 0.0000 0.0000 0.0000 30.8555 0.0000 0.0000
# 5 0.0000 0.0000 0.0000 0.0000 16.7234 0.0000
# 6 0.0000 0.0000 0.0000 0.0000 0.0000 26.1380
#
#
#
# Elastic Compliance Matrix: (Units=1/GPa)
#
#
# Indices 1 2 3 4 5 6 
#
# 1 0.021661 -0.001015 -0.004029 0.000000 0.000000 0.000000
# 2 -0.001015 0.012343 -0.007259 0.000000 0.000000 0.000000
# 3 -0.004029 -0.007259 0.015896 0.000000 0.000000 0.000000
# 4 0.000000 0.000000 0.000000 0.032409 0.000000 0.000000
# 5 0.000000 0.000000 0.000000 0.000000 0.059796 0.000000
# 6 0.000000 0.000000 0.000000 0.000000 0.000000 0.038258
#
#
# Mechanical properties :
#
#
# Convention : Reuss Voigt Hill
#
# Bulk Modulus (GPa) = 39.53592 49.64468 44.59030
# Shear Modulus (GPa) = 23.42985 25.90233 24.66609
#
# Velocity S-wave (km/s) = 3.65630 3.84438 3.75152
# Velocity P-wave (km/s) = 6.35477 6.93050 6.64887
#
# Compressibility (1/GPa) = 0.02529345
#
# Stress axis : x y z
#
# Youngs Moduli (GPa) = 46.16494 81.01533 62.90964
#
# Poissons Ratio (x) = 0.08225 0.25349
# Poissons Ratio (y) = 0.04687 0.45666
# Poissons Ratio (z) = 0.18602 0.58809
#
# Static dielectric constant tensor:
#      x y z
#    x 1.673860 0.000000 0.000000 
#    y 0.000000 1.607890 0.000000 
#    z 0.000000 0.000000 1.577050 
# 
# From -- ./inp_files/36184.got.cif
#   From: 2010.05.17/outbox.cif.g08.bks.cpg/sg71_19_cif.got.tgz:36184.got - 2010.06.03 16:22:01.
