data_PCOD9523346
_publ_section_title
;
Structure prediction by ZEFSAII (Michael W. Deem and Ramdas Pophale) SiO2 
 PCOD9523346
Probable space group: I M M M
;
_chemical_formula_sum "Si O2"
_cell_formula_units_Z 72
_cell_length_a 29.064112
_cell_length_b 14.075971
_cell_length_c 9.047616
_cell_angle_alpha 90.000000
_cell_angle_beta 90.000000
_cell_angle_gamma 90.000000
_cell_volume 3701.430351
_symmetry_space_group_name_H-M "I M M M"
_symmetry_group_IT_number 71
_symmetry_cell_setting 'orthorhombic'
loop_
_space_group_symop_operation_xyz
x,y,z
-x,-y,z
x,-y,-z
-x,y,-z
-x,-y,-z
x,y,-z
-x,y,z
x,-y,z
1/2+x,1/2+y,1/2+z
1/2-x,1/2-y,1/2+z
1/2+x,1/2-y,1/2-z
1/2-x,1/2+y,1/2-z
1/2-x,1/2-y,1/2-z
1/2+x,1/2+y,1/2-z
1/2-x,1/2+y,1/2+z
1/2+x,1/2-y,1/2+z
loop_
_atom_site_type_symbol
_atom_site_label
_atom_site_fract_x
_atom_site_fract_y
_atom_site_fract_z
Si Si1 0.000000 0.887510 0.322958
Si Si2 0.629559 0.112382 0.824961
Si Si3 0.681663 0.612252 0.675106
Si Si4 0.774620 0.384423 0.831636
Si Si5 0.086142 0.217261 0.823271
O O1 0.955367 0.837953 0.253114
O O2 0.000000 0.876144 0.500000
O O3 0.000000 0.000000 0.289370
O O4 0.680220 0.137867 0.762884
O O5 0.592959 0.177362 0.740761
O O6 0.622612 0.000000 0.798696
O O7 0.627798 0.129595 0.000000
O O8 0.690353 0.622091 0.500000
O O9 0.675985 0.500000 0.705921
O O10 0.726453 0.647585 0.762109
O O11 0.634215 0.663982 0.711032
O O12 0.772401 0.500000 0.833926
O O13 0.780345 0.351046 0.000000
O O14 0.080176 0.218406 0.000000
#
# Coordination Sequence:
#
# PCOD9523346 Si02
#       5
#     8  16  16  16  16
#     4  11  25  45  68  93 122 153 185 228 284 345
#     4  10  21  38  59  83 116 157 197 240 290 344
#     4   9  18  33  53  80 115 153 192 235 286 344
#     4   9  17  30  51  80 114 153 196 240 285 336
#     4  11  23  39  62  89 116 150 194 243 293 346
#
# _framework density 19.45194
#
# number of rings (size 3 to 8) (size 9 to 14) (size 15 to 20)
#    0.000    2.111    0.000    3.000    0.000    8.444 
#    0.000    2.778    0.000    3.333    0.000    0.000 
#    0.000    0.000    0.000    0.000    0.000    0.000 
#
# Total GULP energy -201248.085310 kJ/mol
# GULP energy per Si atom -5590.224592 kJ/mol
# Density = 1.940767 g / cm^3
# Si number density = 19.451940 Si / 1000 Ang^3
#
#
#
# Elastic Constant Matrix: (Units=GPa)
#
#
# Indices 1 2 3 4 5 6 
#
# 1 124.7439 78.2808 80.1131 0.0000 0.0000 0.0000
# 2 78.2808 108.1396 66.9372 0.0000 0.0000 0.0000
# 3 80.1131 66.9372 96.3643 0.0000 0.0000 0.0000
# 4 0.0000 0.0000 0.0000 22.1211 0.0000 0.0000
# 5 0.0000 0.0000 0.0000 0.0000 37.6909 0.0000
# 6 0.0000 0.0000 0.0000 0.0000 0.0000 33.9148
#
#
#
# Elastic Compliance Matrix: (Units=1/GPa)
#
#
# Indices 1 2 3 4 5 6 
#
# 1 0.020067 -0.007368 -0.011565 0.000000 0.000000 0.000000
# 2 -0.007368 0.018927 -0.007022 0.000000 0.000000 0.000000
# 3 -0.011565 -0.007022 0.024870 0.000000 0.000000 0.000000
# 4 0.000000 0.000000 0.000000 0.045206 0.000000 0.000000
# 5 0.000000 0.000000 0.000000 0.000000 0.026532 0.000000
# 6 0.000000 0.000000 0.000000 0.000000 0.000000 0.029486
#
#
# Mechanical properties :
#
#
# Convention : Reuss Voigt Hill
#
# Bulk Modulus (GPa) = 83.65264 86.65665 85.15464
# Shear Modulus (GPa) = 22.62615 25.67315 24.14965
#
# Velocity S-wave (km/s) = 3.41425 3.63688 3.52732
# Velocity P-wave (km/s) = 7.65774 7.89187 7.77569
#
# Compressibility (1/GPa) = 0.01195420
#
# Stress axis : x y z
#
# Youngs Moduli (GPa) = 49.83213 52.83352 40.20893
#
# Poissons Ratio (x) = 0.38926 0.46503
# Poissons Ratio (y) = 0.36715 0.28236
# Poissons Ratio (z) = 0.57633 0.37101
#
# Static dielectric constant tensor:
#      x y z
#    x 1.633560 0.000000 0.000000 
#    y 0.000000 1.726090 0.000000 
#    z 0.000000 0.000000 1.650580 
# 
# From -- ./inp_files/6005.got.cif
#   From: 2010.05.17/outbox.cif.g08.bks.cpg/sg71_4_cif.got.tgz:6005.got - 2010.06.03 16:22:01.
