data_PCOD9523287
_publ_section_title
;
Structure prediction by ZEFSAII (Michael W. Deem and Ramdas Pophale) SiO2 
 PCOD9523287
Probable space group: I M M M
;
_chemical_formula_sum "Si O2"
_cell_formula_units_Z 112
_cell_length_a 14.578674
_cell_length_b 35.609817
_cell_length_c 11.049624
_cell_angle_alpha 90.000000
_cell_angle_beta 90.000000
_cell_angle_gamma 90.000000
_cell_volume 5736.345043
_symmetry_space_group_name_H-M "I M M M"
_symmetry_group_IT_number 71
_symmetry_cell_setting 'orthorhombic'
loop_
_space_group_symop_operation_xyz
x,y,z
-x,-y,z
x,-y,-z
-x,y,-z
-x,-y,-z
x,y,-z
-x,y,z
x,-y,z
1/2+x,1/2+y,1/2+z
1/2-x,1/2-y,1/2+z
1/2+x,1/2-y,1/2-z
1/2-x,1/2+y,1/2-z
1/2-x,1/2-y,1/2-z
1/2+x,1/2+y,1/2-z
1/2-x,1/2+y,1/2+z
1/2+x,1/2-y,1/2+z
loop_
_atom_site_type_symbol
_atom_site_label
_atom_site_fract_x
_atom_site_fract_y
_atom_site_fract_z
Si Si1 0.348748 0.800143 0.370068
Si Si2 0.346905 0.710974 0.368591
Si Si3 0.359198 0.670989 0.864105
Si Si4 0.109995 0.583723 0.636698
Si Si5 0.851107 0.329934 0.630393
Si Si6 0.399065 0.583842 0.854792
Si Si7 0.289562 0.955092 0.642017
O O1 0.393048 0.807503 0.500000
O O2 0.332648 0.755583 0.360181
O O3 0.249912 0.820847 0.371931
O O4 0.397573 0.814210 0.250248
O O5 0.391070 0.703500 0.500000
O O6 0.393595 0.696255 0.246683
O O7 0.248550 0.689978 0.372181
O O8 0.378374 0.627730 0.832757
O O9 0.394876 0.678584 0.000000
O O10 0.131079 0.568408 0.500000
O O11 0.154222 0.625232 0.642220
O O12 0.144029 0.560992 0.753881
O O13 0.000000 0.587980 0.642605
O O14 0.894375 0.321857 0.500000
O O15 0.500000 0.574026 0.805085
O O16 0.312008 0.559015 0.820089
O O17 0.404169 0.579948 0.000000
O O18 0.306507 0.942776 0.500000
O O19 0.293696 0.000000 0.641888
#
# Coordination Sequence:
#
# PCOD9523287 Si02
#       7
#    16  16  16  16  16  16  16
#     4   9  16  25  41  68 100 135 175 219 272 326
#     4   9  16  25  41  67  98 134 175 221 274 323
#     4   9  15  24  42  66  92 127 172 215 255 306
#     4  10  22  39  58  82 113 148 184 224 274 329
#     4   9  16  27  45  68  94 127 171 217 257 305
#     4   9  18  33  54  82 115 146 177 220 274 328
#     4  10  21  37  60  89 115 142 180 222 264 318
#
# _framework density 19.524626999999999
#
# number of rings (size 3 to 8) (size 9 to 14) (size 15 to 20)
#    0.000    2.714    0.000    3.429    0.000    4.571 
#    0.000    2.857    0.000    5.143    0.000   21.000 
#    0.000    0.000    0.000    0.000    0.000    0.000 
#
# Total GULP energy -311772.328936 kJ/mol
# GULP energy per Si atom -5567.363017 kJ/mol
# Density = 1.948019 g / cm^3
# Si number density = 19.524627 Si / 1000 Ang^3
#
#
#
# Elastic Constant Matrix: (Units=GPa)
#
#
# Indices 1 2 3 4 5 6 
#
# 1 73.1907 18.0617 22.3006 -0.0001 -0.0004 -0.0002
# 2 18.0617 50.5965 48.8422 -0.0004 -0.0002 0.0003
# 3 22.3006 48.8422 187.9933 0.0005 -0.0016 -0.0024
# 4 -0.0001 -0.0004 0.0005 20.4332 0.0000 0.0001
# 5 -0.0004 -0.0002 -0.0016 0.0000 1.9398 0.0007
# 6 -0.0002 0.0003 -0.0024 0.0001 0.0007 -42.4088
#
#
#
# Elastic Compliance Matrix: (Units=1/GPa)
#
#
# Indices 1 2 3 4 5 6 
#
# 1 0.015021 -0.004861 -0.000519 0.000000 0.000002 0.000000
# 2 -0.004861 0.027954 -0.006686 0.000001 -0.000004 0.000001
# 3 -0.000519 -0.006686 0.007118 0.000000 0.000005 0.000000
# 4 0.000000 0.000001 0.000000 0.048940 0.000001 0.000000
# 5 0.000002 -0.000004 0.000005 0.000001 0.515508 0.000009
# 6 0.000000 0.000001 0.000000 0.000000 0.000009 -0.023580
#
#
# Mechanical properties :
#
#
# Convention : Reuss Voigt Hill
#
# Bulk Modulus (GPa) = 38.52022 54.46549 46.49286
# Shear Modulus (GPa) = 8.01609 10.83124 9.42366
#
# Velocity S-wave (km/s) = 2.02843 2.35786 2.19932
# Velocity P-wave (km/s) = 5.02573 5.94719 5.50577
#
# Compressibility (1/GPa) = 0.02596039
#
# Stress axis : x y z
#
# Youngs Moduli (GPa) = 66.57505 35.77348 140.48984
#
# Poissons Ratio (x) = 0.17390 0.07289
# Poissons Ratio (y) = 0.32363 0.93931
# Poissons Ratio (z) = 0.03454 0.23918
#
# Static dielectric constant tensor:
#      x y z
#    x 1.676230 0.000000 0.000000 
#    y 0.000000 1.646180 0.000000 
#    z 0.000000 0.000000 1.765180 
# 
# From -- ./inp_files/22676.got.cif
#   From: 2010.05.17/outbox.cif.g08.bks.cpg/sg71_12_cif.got.tgz:22676.got - 2010.06.03 16:22:01.
