data_PCOD9523208
_publ_section_title
;
Structure prediction by ZEFSAII (Michael W. Deem and Ramdas Pophale) SiO2 
 PCOD9523208
Probable space group: I M M M
;
_chemical_formula_sum "Si O2"
_cell_formula_units_Z 72
_cell_length_a 8.439542
_cell_length_b 15.907918
_cell_length_c 27.592057
_cell_angle_alpha 90.000000
_cell_angle_beta 90.000000
_cell_angle_gamma 90.000000
_cell_volume 3704.386570
_symmetry_space_group_name_H-M "I M M M"
_symmetry_group_IT_number 71
_symmetry_cell_setting 'orthorhombic'
loop_
_space_group_symop_operation_xyz
x,y,z
-x,-y,z
x,-y,-z
-x,y,-z
-x,-y,-z
x,y,-z
-x,y,z
x,-y,z
1/2+x,1/2+y,1/2+z
1/2-x,1/2-y,1/2+z
1/2+x,1/2-y,1/2-z
1/2-x,1/2+y,1/2-z
1/2-x,1/2-y,1/2-z
1/2+x,1/2+y,1/2-z
1/2-x,1/2+y,1/2+z
1/2+x,1/2-y,1/2+z
loop_
_atom_site_type_symbol
_atom_site_label
_atom_site_fract_x
_atom_site_fract_y
_atom_site_fract_z
Si Si1 0.688573 0.500000 0.276059
Si Si2 0.191983 0.500000 0.386102
Si Si3 0.806532 0.500000 0.944150
Si Si4 0.190261 0.667069 0.222795
Si Si5 0.191658 0.331285 0.889217
Si Si6 0.308466 0.166169 0.055858
O O1 0.500000 0.500000 0.275160
O O2 0.746395 0.500000 0.331493
O O3 0.750540 0.416759 0.249212
O O4 0.243480 0.583322 0.414956
O O5 0.000000 0.500000 0.384656
O O6 0.755257 0.583985 0.916365
O O7 0.000000 0.500000 0.944068
O O8 0.754989 0.500000 0.000000
O O9 0.250000 0.750000 0.250000
O O10 0.243454 0.668583 0.166744
O O11 0.000000 0.666683 0.223468
O O12 0.250843 0.249459 0.917222
O O13 0.000000 0.330557 0.889658
O O14 0.500000 0.166023 0.055567
O O15 0.254503 0.164277 0.000000
#
# Coordination Sequence:
#
# PCOD9523208 Si02
#       6
#     8   8   8  16  16  16
#     4  12  25  40  60  88 120 155 198 245 298 357
#     4  10  21  39  61  82 112 155 196 236 287 346
#     4   9  17  32  55  80 106 139 178 218 267 329
#     4  11  23  40  61  86 118 155 197 244 294 349
#     4  10  21  37  58  83 111 146 188 234 283 338
#     4  10  21  37  58  85 116 150 189 234 287 347
#
# _framework density 19.436415
#
# number of rings (size 3 to 8) (size 9 to 14) (size 15 to 20)
#    0.000    1.667    0.000    4.667    0.000   10.667 
#    0.000    0.556    0.000    4.000    0.000    0.000 
#    0.000    0.000    0.000    0.000    0.000    0.000 
#
# Total GULP energy -201285.497578 kJ/mol
# GULP energy per Si atom -5591.263822 kJ/mol
# Density = 1.939218 g / cm^3
# Si number density = 19.436415 Si / 1000 Ang^3
#
#
#
# Elastic Constant Matrix: (Units=GPa)
#
#
# Indices 1 2 3 4 5 6 
#
# 1 26.8491 30.3698 34.5254 0.0000 0.0000 0.0000
# 2 30.3698 217.5823 125.0018 0.0000 0.0000 0.0000
# 3 34.5254 125.0018 222.3107 0.0000 0.0000 0.0000
# 4 0.0000 0.0000 0.0000 46.7432 0.0000 0.0000
# 5 0.0000 0.0000 0.0000 0.0000 26.5476 0.0000
# 6 0.0000 0.0000 0.0000 0.0000 0.0000 35.8951
#
#
#
# Elastic Compliance Matrix: (Units=1/GPa)
#
#
# Indices 1 2 3 4 5 6 
#
# 1 0.048374 -0.003598 -0.005489 0.000000 0.000000 0.000000
# 2 -0.003598 0.007057 -0.003409 0.000000 0.000000 0.000000
# 3 -0.005489 -0.003409 0.007268 0.000000 0.000000 0.000000
# 4 0.000000 0.000000 0.000000 0.021394 0.000000 0.000000
# 5 0.000000 0.000000 0.000000 0.000000 0.037668 0.000000
# 6 0.000000 0.000000 0.000000 0.000000 0.000000 0.027859
#
#
# Mechanical properties :
#
#
# Convention : Reuss Voigt Hill
#
# Bulk Modulus (GPa) = 26.52166 94.05956 60.29061
# Shear Modulus (GPa) = 26.71211 40.29350 33.50281
#
# Velocity S-wave (km/s) = 3.71122 4.55806 4.15627
# Velocity P-wave (km/s) = 5.66032 8.72925 7.35659
#
# Compressibility (1/GPa) = 0.03770503
#
# Stress axis : x y z
#
# Youngs Moduli (GPa) = 20.67218 141.70872 137.59756
#
# Poissons Ratio (x) = 0.50992 0.75532
# Poissons Ratio (y) = 0.07439 0.46908
# Poissons Ratio (z) = 0.11348 0.48309
#
# Static dielectric constant tensor:
#      x y z
#    x 1.676300 0.000000 0.000000 
#    y 0.000000 1.613900 0.000000 
#    z 0.000000 0.000000 1.656130 
# 
# From -- ./inp_files/6184.got.cif
#   From: 2010.05.17/outbox.cif.g08.bks.cpg/sg71_4_cif.got.tgz:6184.got - 2010.06.03 16:22:01.
