data_PCOD9523314
_publ_section_title
;
Structure prediction by ZEFSAII (Michael W. Deem and Ramdas Pophale) SiO2 
 PCOD9523314
Probable space group: I M M M
;
_chemical_formula_sum "Si O2"
_cell_formula_units_Z 42
_cell_length_a 9.496913
_cell_length_b 22.964685
_cell_length_c 10.428221
_cell_angle_alpha 90.000000
_cell_angle_beta 90.000000
_cell_angle_gamma 90.000000
_cell_volume 2274.328421
_symmetry_space_group_name_H-M "I M M M"
_symmetry_group_IT_number 71
_symmetry_cell_setting 'orthorhombic'
loop_
_space_group_symop_operation_xyz
x,y,z
-x,-y,z
x,-y,-z
-x,y,-z
-x,-y,-z
x,y,-z
-x,y,z
x,-y,z
1/2+x,1/2+y,1/2+z
1/2-x,1/2-y,1/2+z
1/2+x,1/2-y,1/2-z
1/2-x,1/2+y,1/2-z
1/2-x,1/2-y,1/2-z
1/2+x,1/2+y,1/2-z
1/2-x,1/2+y,1/2+z
1/2+x,1/2-y,1/2+z
loop_
_atom_site_type_symbol
_atom_site_label
_atom_site_fract_x
_atom_site_fract_y
_atom_site_fract_z
Si Si1 0.169433 0.830768 0.000000
Si Si2 0.330338 0.193849 0.500000
Si Si3 0.210678 0.500000 0.856565
Si Si4 0.835992 0.374025 0.254458
Si Si5 0.500000 0.500000 0.000000
O O1 0.204666 0.761772 0.000000
O O2 0.239682 0.858769 0.874764
O O3 0.000000 0.836854 0.000000
O O4 0.500000 0.188733 0.500000
O O5 0.283076 0.161317 0.371049
O O6 0.170527 0.441784 0.782247
O O7 0.146273 0.500000 0.000000
O O8 0.375941 0.500000 0.889543
O O9 0.000000 0.358204 0.279459
#
# Coordination Sequence:
#
# PCOD9523314 Si02
#       5
#     8   8   8  16   2
#     4  11  25  39  58  89 128 164 202 244 305 357
#     4   9  19  39  64  90 117 158 206 252 294 356
#     4  10  21  37  65  92 120 150 202 242 308 356
#     4  11  22  40  65  90 123 158 203 252 300 357
#     4   8  20  36  58  94 128 144 194 246 304 354
#
# _framework density 18.466989999999999
#
# number of rings (size 3 to 8) (size 9 to 14) (size 15 to 20)
#    0.571    1.143    1.905    2.286    2.667    1.524 
#    0.000    4.762    0.000    0.000    0.000    0.000 
#    0.000    0.000    0.000    0.000    0.000    0.000 
#
# Total GULP energy -116925.055825 kJ/mol
# GULP energy per Si atom -5567.859801 kJ/mol
# Density = 1.842496 g / cm^3
# Si number density = 18.466990 Si / 1000 Ang^3
#
#
#
# Elastic Constant Matrix: (Units=GPa)
#
#
# Indices 1 2 3 4 5 6 
#
# 1 112.3057 27.4764 57.6470 0.0000 0.0000 0.0000
# 2 27.4764 144.1679 97.1106 0.0001 0.0000 0.0000
# 3 57.6470 97.1106 186.4934 0.0003 0.0001 0.0002
# 4 0.0000 0.0001 0.0003 -1.5436 0.0000 0.0001
# 5 0.0000 0.0000 0.0001 0.0000 10.3812 0.0000
# 6 0.0000 0.0000 0.0002 0.0001 0.0000 26.2833
#
#
#
# Elastic Compliance Matrix: (Units=1/GPa)
#
#
# Indices 1 2 3 4 5 6 
#
# 1 0.010591 0.000288 -0.003424 -0.000001 0.000000 0.000000
# 2 0.000288 0.010692 -0.005656 -0.000001 0.000000 0.000000
# 3 -0.003424 -0.005656 0.009366 0.000002 0.000000 0.000000
# 4 -0.000001 -0.000001 0.000002 -0.647851 -0.000002 0.000002
# 5 0.000000 0.000000 0.000000 -0.000002 0.096328 0.000000
# 6 0.000000 0.000000 0.000000 0.000002 0.000000 0.038047
#
#
# Mechanical properties :
#
#
# Convention : Reuss Voigt Hill
#
# Bulk Modulus (GPa) = 76.54599 89.71499 83.13049
# Shear Modulus (GPa) = -10.84861 24.40639 6.77889
#
# Velocity S-wave (km/s) = -2.42639 3.63936 1.91802
# Velocity P-wave (km/s) = 5.80434 8.14534 7.07238
#
# Compressibility (1/GPa) = 0.01306404
#
# Stress axis : x y z
#
# Youngs Moduli (GPa) = 94.41743 93.53217 106.77298
#
# Poissons Ratio (x) = -0.02690 0.36555
# Poissons Ratio (y) = -0.02715 0.60393
# Poissons Ratio (z) = 0.32325 0.52903
#
# Static dielectric constant tensor:
#      x y z
#    x 1.622130 0.000000 0.000000 
#    y 0.000000 1.628560 0.000000 
#    z 0.000000 0.000000 1.619110 
# 
# From -- ./inp_files/18080.got.cif
#   From: 2010.05.17/outbox.cif.g08.bks.cpg/sg71_10_cif.got.tgz:18080.got - 2010.06.03 16:22:01.
