data_PCOD9523652
_publ_section_title
;
Structure prediction by ZEFSAII (Michael W. Deem and Ramdas Pophale) SiO2 
 PCOD9523652
Probable space group: I M M M
;
_chemical_formula_sum "Si O2"
_cell_formula_units_Z 116
_cell_length_a 29.295097
_cell_length_b 7.461993
_cell_length_c 28.163643
_cell_angle_alpha 90.000000
_cell_angle_beta 90.000000
_cell_angle_gamma 90.000000
_cell_volume 6156.566973
_symmetry_space_group_name_H-M "I M M M"
_symmetry_group_IT_number 71
_symmetry_cell_setting 'orthorhombic'
loop_
_space_group_symop_operation_xyz
x,y,z
-x,-y,z
x,-y,-z
-x,y,-z
-x,-y,-z
x,y,-z
-x,y,z
x,-y,z
1/2+x,1/2+y,1/2+z
1/2-x,1/2-y,1/2+z
1/2+x,1/2-y,1/2-z
1/2-x,1/2+y,1/2-z
1/2-x,1/2-y,1/2-z
1/2+x,1/2+y,1/2-z
1/2-x,1/2+y,1/2+z
1/2+x,1/2-y,1/2+z
loop_
_atom_site_type_symbol
_atom_site_label
_atom_site_fract_x
_atom_site_fract_y
_atom_site_fract_z
Si Si1 0.188805 0.717307 0.920742
Si Si2 0.701646 0.697359 0.228409
Si Si3 0.145569 0.220582 0.640003
Si Si4 0.050769 0.216296 0.208605
Si Si5 0.148643 0.294378 0.818990
Si Si6 0.449295 0.718236 0.818927
Si Si7 0.706646 0.283167 0.946098
Si Si8 0.660597 0.500000 0.500000
O O1 0.182741 0.500000 0.927749
O O2 0.172008 0.762944 0.867783
O O3 0.242572 0.758305 0.927475
O O4 0.163483 0.841289 0.958645
O O5 0.710589 0.500000 0.209760
O O6 0.750000 0.750000 0.250000
O O7 0.677360 0.787533 0.183562
O O8 0.666419 0.696353 0.272115
O O9 0.093818 0.277981 0.650498
O O10 0.168453 0.277580 0.590886
O O11 0.144463 0.000000 0.640315
O O12 0.094004 0.280680 0.179076
O O13 0.056870 0.271530 0.263725
O O14 0.000000 0.274049 0.193295
O O15 0.051449 0.000000 0.207680
O O16 0.162068 0.500000 0.811183
O O17 0.500000 0.775700 0.834237
O O18 0.449315 0.500000 0.818957
O O19 0.704180 0.500000 0.947662
O O20 0.701845 0.217098 0.000000
#
# Coordination Sequence:
#
# PCOD9523652 Si02
#       8
#    16  16  16  16  16  16  16   4
#     4  10  22  38  55  82 113 144 182 233 277 326
#     4  11  21  33  48  70 105 144 183 222 266 337
#     4   9  16  27  46  70  96 138 180 217 272 324
#     4   9  17  31  52  77 107 141 179 223 267 321
#     4  11  22  35  53  78 113 145 176 219 278 334
#     4   8  13  24  44  70  98 132 176 223 266 316
#     4   9  16  30  49  68 100 139 180 228 277 322
#     4  12  22  36  64  82 105 146 195 228 274 322
#
# _framework density 18.841670000000001
#
# number of rings (size 3 to 8) (size 9 to 14) (size 15 to 20)
#    0.000    2.345    2.069    2.690    1.931    2.483 
#    0.000    0.000    0.000    0.414    0.000    3.862 
#    0.000    2.207    0.000    0.621    0.000    1.517 
#
# Total GULP energy -322934.671699 kJ/mol
# GULP energy per Si atom -5567.839167 kJ/mol
# Density = 1.879879 g / cm^3
# Si number density = 18.841670 Si / 1000 Ang^3
#
#
#
# Elastic Constant Matrix: (Units=GPa)
#
#
# Indices 1 2 3 4 5 6 
#
# 1 133.8232 4.6359 81.0076 0.0000 0.0000 0.0000
# 2 4.6359 55.6050 6.5469 0.0000 0.0000 0.0000
# 3 81.0076 6.5469 129.8240 0.0000 0.0000 0.0000
# 4 0.0000 0.0000 0.0000 13.5764 0.0000 0.0000
# 5 0.0000 0.0000 0.0000 0.0000 8.4562 0.0000
# 6 0.0000 0.0000 0.0000 0.0000 0.0000 11.5999
#
#
#
# Elastic Compliance Matrix: (Units=1/GPa)
#
#
# Indices 1 2 3 4 5 6 
#
# 1 0.012009 -0.000120 -0.007487 0.000000 0.000000 0.000000
# 2 -0.000120 0.018093 -0.000838 0.000000 0.000000 0.000000
# 3 -0.007487 -0.000838 0.012417 0.000000 0.000000 0.000000
# 4 0.000000 0.000000 0.000000 0.073657 0.000000 0.000000
# 5 0.000000 0.000000 0.000000 0.000000 0.118256 0.000000
# 6 0.000000 0.000000 0.000000 0.000000 0.000000 0.086208
#
#
# Mechanical properties :
#
#
# Convention : Reuss Voigt Hill
#
# Bulk Modulus (GPa) = 39.01818 55.95923 47.48871
# Shear Modulus (GPa) = 14.44784 21.86395 18.15590
#
# Velocity S-wave (km/s) = 2.77212 3.41017 3.10756
# Velocity P-wave (km/s) = 5.56773 6.72829 6.17533
#
# Compressibility (1/GPa) = 0.02562908
#
# Stress axis : x y z
#
# Youngs Moduli (GPa) = 83.27060 55.27121 80.53505
#
# Poissons Ratio (x) = 0.00661 0.60300
# Poissons Ratio (y) = 0.00996 0.06747
# Poissons Ratio (z) = 0.62348 0.04630
#
# Static dielectric constant tensor:
#      x y z
#    x 1.666560 0.000000 0.000000 
#    y 0.000000 1.772850 0.000000 
#    z 0.000000 0.000000 1.634560 
# 
# From -- ./inp_files/67198.got.cif
#   From: 2010.05.17/outbox.cif.g08.bks.cpg/sg71_34_cif.got.tgz:67198.got - 2010.06.03 16:22:01.
