data_PCOD9523230
_publ_section_title
;
Structure prediction by ZEFSAII (Michael W. Deem and Ramdas Pophale) SiO2 
 PCOD9523230
Probable space group: I M M M
;
_chemical_formula_sum "Si O2"
_cell_formula_units_Z 42
_cell_length_a 9.942798
_cell_length_b 7.308514
_cell_length_c 25.573114
_cell_angle_alpha 90.000000
_cell_angle_beta 90.000000
_cell_angle_gamma 90.000000
_cell_volume 1858.323480
_symmetry_space_group_name_H-M "I M M M"
_symmetry_group_IT_number 71
_symmetry_cell_setting 'orthorhombic'
loop_
_space_group_symop_operation_xyz
x,y,z
-x,-y,z
x,-y,-z
-x,y,-z
-x,-y,-z
x,y,-z
-x,y,z
x,-y,z
1/2+x,1/2+y,1/2+z
1/2-x,1/2-y,1/2+z
1/2+x,1/2-y,1/2-z
1/2-x,1/2+y,1/2-z
1/2-x,1/2-y,1/2-z
1/2+x,1/2+y,1/2-z
1/2-x,1/2+y,1/2+z
1/2+x,1/2-y,1/2+z
loop_
_atom_site_type_symbol
_atom_site_label
_atom_site_fract_x
_atom_site_fract_y
_atom_site_fract_z
Si Si1 0.147251 0.221540 0.386295
Si Si2 0.500000 0.500000 0.500000
Si Si3 0.749956 0.220446 0.500000
Si Si4 0.652224 0.218235 0.701070
O O1 0.170470 0.263840 0.446862
O O2 0.269018 0.287938 0.350088
O O3 0.000000 0.284818 0.368242
O O4 0.146781 0.000000 0.382307
O O5 0.616755 0.339859 0.500000
O O6 0.723712 0.000000 0.500000
O O7 0.500000 0.289305 0.707453
O O8 0.750000 0.250000 0.750000
O O9 0.640823 0.000000 0.695421
#
# Coordination Sequence:
#
# PCOD9523230 Si02
#       4
#    16   2   8  16
#     4   9  18  36  64  90 116 156 207 254 312 376
#     4  12  26  40  58  98 136 160 220 248 312 380
#     4  10  22  41  65  91 128 169 206 260 312 370
#     4  10  21  37  58  87 119 156 204 254 305 368
#
# _framework density 22.601018
#
# number of rings (size 3 to 8) (size 9 to 14) (size 15 to 20)
#    0.000    2.286    0.000    2.000    2.667    4.571 
#    3.429    1.905    0.000    0.000    0.000    0.000 
#    0.000    0.000    0.000    0.000    0.000    0.000 
#
# Total GULP energy -117079.413034 kJ/mol
# GULP energy per Si atom -5575.210144 kJ/mol
# Density = 2.254958 g / cm^3
# Si number density = 22.601018 Si / 1000 Ang^3
#
#
#
# Elastic Constant Matrix: (Units=GPa)
#
#
# Indices 1 2 3 4 5 6 
#
# 1 241.9541 18.4041 88.7994 0.0000 0.0000 0.0000
# 2 18.4041 99.6464 -1.3329 0.0000 0.0000 0.0000
# 3 88.7994 -1.3329 149.2739 0.0000 0.0000 0.0000
# 4 0.0000 0.0000 0.0000 8.2527 0.0000 0.0000
# 5 0.0000 0.0000 0.0000 0.0000 -52.3127 0.0000
# 6 0.0000 0.0000 0.0000 0.0000 0.0000 -0.9243
#
#
#
# Elastic Compliance Matrix: (Units=1/GPa)
#
#
# Indices 1 2 3 4 5 6 
#
# 1 0.005393 -0.001039 -0.003217 0.000000 0.000000 0.000000
# 2 -0.001039 0.010237 0.000710 0.000000 0.000000 0.000000
# 3 -0.003217 0.000710 0.008619 0.000000 0.000000 0.000000
# 4 0.000000 0.000000 0.000000 0.121173 0.000000 0.000000
# 5 0.000000 0.000000 0.000000 0.000000 -0.019116 0.000000
# 6 0.000000 0.000000 0.000000 0.000000 0.000000 -1.081952
#
#
# Mechanical properties :
#
#
# Convention : Reuss Voigt Hill
#
# Bulk Modulus (GPa) = 58.29102 78.06839 68.17971
# Shear Modulus (GPa) = -5.30316 16.67006 5.68345
#
# Velocity S-wave (km/s) = -1.53347 2.71879 1.58750
# Velocity P-wave (km/s) = 4.76571 6.66879 5.79589
#
# Compressibility (1/GPa) = 0.01715530
#
# Stress axis : x y z
#
# Youngs Moduli (GPa) = 185.43070 97.68594 116.01799
#
# Poissons Ratio (x) = 0.10150 0.37327
# Poissons Ratio (y) = 0.19267 -0.08232
# Poissons Ratio (z) = 0.59660 -0.06931
#
# Static dielectric constant tensor:
#      x y z
#    x 1.808760 0.000000 0.000000 
#    y 0.000000 1.907980 0.000000 
#    z 0.000000 0.000000 1.810260 
# 
# From -- ./inp_files/1984.got.cif
#   From: 2010.05.17/outbox.cif.g08.bks.cpg/sg71_1_cif.got.tgz:1984.got - 2010.06.03 16:22:01.
