data_PCOD9523811
_publ_section_title
;
Structure prediction by ZEFSAII (Michael W. Deem and Ramdas Pophale) SiO2 
 PCOD9523811
Probable space group: I M M M
;
_chemical_formula_sum "Si O2"
_cell_formula_units_Z 104
_cell_length_a 21.196274
_cell_length_b 8.678281
_cell_length_c 30.532252
_cell_angle_alpha 90.000000
_cell_angle_beta 90.000000
_cell_angle_gamma 90.000000
_cell_volume 5616.322935
_symmetry_space_group_name_H-M "I M M M"
_symmetry_group_IT_number 71
_symmetry_cell_setting 'orthorhombic'
loop_
_space_group_symop_operation_xyz
x,y,z
-x,-y,z
x,-y,-z
-x,y,-z
-x,-y,-z
x,y,-z
-x,y,z
x,-y,z
1/2+x,1/2+y,1/2+z
1/2-x,1/2-y,1/2+z
1/2+x,1/2-y,1/2-z
1/2-x,1/2+y,1/2-z
1/2-x,1/2-y,1/2-z
1/2+x,1/2+y,1/2-z
1/2-x,1/2+y,1/2+z
1/2+x,1/2-y,1/2+z
loop_
_atom_site_type_symbol
_atom_site_label
_atom_site_fract_x
_atom_site_fract_y
_atom_site_fract_z
Si Si1 0.721621 0.684341 0.867355
Si Si2 0.139104 0.820025 0.132012
Si Si3 0.500000 0.324128 0.946937
Si Si4 0.811377 0.684871 0.724799
Si Si5 0.638769 0.688647 0.949606
Si Si6 0.071381 0.314020 0.215108
Si Si7 0.075581 0.679676 0.949636
O O1 0.717695 0.500000 0.864847
O O2 0.794130 0.734831 0.865188
O O3 0.688714 0.755622 0.824764
O O4 0.689148 0.734304 0.912980
O O5 0.092139 0.753201 0.168484
O O6 0.109747 0.787045 0.084696
O O7 0.148793 0.000000 0.139710
O O8 0.500000 0.500000 0.929943
O O9 0.431653 0.255576 0.936050
O O10 0.500000 0.332138 0.000000
O O11 0.807332 0.500000 0.725326
O O12 0.750000 0.750000 0.750000
O O13 0.874829 0.732526 0.750343
O O14 0.636398 0.500000 0.950283
O O15 0.652107 0.735966 0.000000
O O16 0.072590 0.500000 0.212214
O O17 0.000000 0.266914 0.226416
O O18 0.091060 0.500000 0.940143
O O19 0.000000 0.695035 0.945985
O O20 0.092966 0.710688 0.000000
#
# Coordination Sequence:
#
# PCOD9523811 Si02
#       7
#    16  16   8  16  16  16  16
#     4  11  22  36  56  83 115 151 191 233 281 337
#     4  12  24  36  55  83 114 149 189 236 288 338
#     4   7  10  22  46  74 105 139 177 225 277 323
#     4  11  22  39  63  86 114 151 191 233 284 343
#     4   8  15  29  51  79 110 145 185 228 276 331
#     4  10  22  41  64  86 110 146 191 235 284 347
#     4   9  19  37  59  81 109 148 190 231 280 340
#
# _framework density 18.517454000000001
#
# number of rings (size 3 to 8) (size 9 to 14) (size 15 to 20)
#    0.000    2.077    1.538    4.154    0.000    4.000 
#    1.385    2.308    0.000    1.385    0.000    0.000 
#    0.000    7.385    0.000    0.000    0.000    0.000 
#
# Total GULP energy -290174.183916 kJ/mol
# GULP energy per Si atom -5580.272768 kJ/mol
# Density = 1.847531 g / cm^3
# Si number density = 18.517454 Si / 1000 Ang^3
#
#
#
# Elastic Constant Matrix: (Units=GPa)
#
#
# Indices 1 2 3 4 5 6 
#
# 1 116.3599 31.0311 54.8099 0.0000 0.0000 0.0000
# 2 31.0311 24.4169 25.6963 0.0000 0.0000 0.0000
# 3 54.8099 25.6963 98.3588 0.0000 0.0000 0.0000
# 4 0.0000 0.0000 0.0000 27.2235 0.0000 0.0000
# 5 0.0000 0.0000 0.0000 0.0000 36.6263 0.0000
# 6 0.0000 0.0000 0.0000 0.0000 0.0000 13.2422
#
#
#
# Elastic Compliance Matrix: (Units=1/GPa)
#
#
# Indices 1 2 3 4 5 6 
#
# 1 0.014277 -0.013477 -0.004435 0.000000 0.000000 0.000000
# 2 -0.013477 0.069208 -0.010570 0.000000 0.000000 0.000000
# 3 -0.004435 -0.010570 0.015400 0.000000 0.000000 0.000000
# 4 0.000000 0.000000 0.000000 0.036733 0.000000 0.000000
# 5 0.000000 0.000000 0.000000 0.000000 0.027303 0.000000
# 6 0.000000 0.000000 0.000000 0.000000 0.000000 0.075516
#
#
# Mechanical properties :
#
#
# Convention : Reuss Voigt Hill
#
# Bulk Modulus (GPa) = 23.85531 51.35670 37.60601
# Shear Modulus (GPa) = 16.16159 23.92495 20.04327
#
# Velocity S-wave (km/s) = 2.95748 3.59837 3.29355
# Velocity P-wave (km/s) = 4.95710 6.71258 5.90049
#
# Compressibility (1/GPa) = 0.04191938
#
# Stress axis : x y z
#
# Youngs Moduli (GPa) = 70.04154 14.44920 64.93630
#
# Poissons Ratio (x) = 0.19474 0.28799
# Poissons Ratio (y) = 0.94398 0.68640
# Poissons Ratio (z) = 0.31063 0.15273
#
# Static dielectric constant tensor:
#      x y z
#    x 1.645100 0.000000 0.000000 
#    y 0.000000 1.638300 0.000000 
#    z 0.000000 0.000000 1.624270 
# 
# From -- ./inp_files/70725.got.cif
#   From: 2010.05.17/outbox.cif.g08.bks.cpg/sg71_36_cif.got.tgz:70725.got - 2010.06.03 16:22:01.
