data_PCOD9523882
_publ_section_title
;
Structure prediction by ZEFSAII (Michael W. Deem and Ramdas Pophale) SiO2 
 PCOD9523882
Probable space group: I M M M
;
_chemical_formula_sum "Si O2"
_cell_formula_units_Z 64
_cell_length_a 25.905486
_cell_length_b 10.190212
_cell_length_c 12.457103
_cell_angle_alpha 90.000000
_cell_angle_beta 90.000000
_cell_angle_gamma 90.000000
_cell_volume 3288.455876
_symmetry_space_group_name_H-M "I M M M"
_symmetry_group_IT_number 71
_symmetry_cell_setting 'orthorhombic'
loop_
_space_group_symop_operation_xyz
x,y,z
-x,-y,z
x,-y,-z
-x,y,-z
-x,-y,-z
x,y,-z
-x,y,z
x,-y,z
1/2+x,1/2+y,1/2+z
1/2-x,1/2-y,1/2+z
1/2+x,1/2-y,1/2-z
1/2-x,1/2+y,1/2-z
1/2-x,1/2-y,1/2-z
1/2+x,1/2+y,1/2-z
1/2-x,1/2+y,1/2+z
1/2+x,1/2-y,1/2+z
loop_
_atom_site_type_symbol
_atom_site_label
_atom_site_fract_x
_atom_site_fract_y
_atom_site_fract_z
Si Si1 0.057141 0.207732 0.370495
Si Si2 0.365633 0.280522 0.693744
Si Si3 0.215168 0.000000 0.872659
Si Si4 0.560722 0.658746 0.500000
Si Si5 0.073132 0.500000 0.621292
Si Si6 0.826584 0.500000 0.268644
O O1 0.065157 0.199225 0.500000
O O2 0.106099 0.163387 0.301296
O O3 0.055090 0.361273 0.335114
O O4 0.000000 0.151430 0.347938
O O5 0.319603 0.374730 0.657162
O O6 0.409945 0.286053 0.603659
O O7 0.342876 0.134282 0.709118
O O8 0.267961 0.000000 0.805934
O O9 0.225624 0.000000 0.000000
O O10 0.566880 0.500000 0.500000
O O11 0.500000 0.688111 0.500000
O O12 0.055856 0.500000 0.500000
O O13 0.134872 0.500000 0.629427
#
# Coordination Sequence:
#
# PCOD9523882 Si02
#       6
#    16  16   8   8   8   8
#     4   9  17  30  53  84 119 155 191 243 308 370
#     4  11  21  41  61  93 125 159 210 264 303 382
#     4  12  23  44  65  84 118 169 220 260 302 380
#     4  11  22  41  69  95 127 179 217 249 304 382
#     4   8  14  28  49  79 113 146 189 234 289 372
#     4  10  23  36  63  88 121 151 201 264 334 344
#
# _framework density 19.462019999999999
#
# number of rings (size 3 to 8) (size 9 to 14) (size 15 to 20)
#    0.000    1.875    2.500    2.250    0.000    3.000 
#    0.000    3.125    2.750    1.500    0.000    0.000 
#    0.000    0.000    0.000    0.000    0.000    0.000 
#
# Total GULP energy -178344.611172 kJ/mol
# GULP energy per Si atom -5573.269099 kJ/mol
# Density = 1.941772 g / cm^3
# Si number density = 19.462020 Si / 1000 Ang^3
#
#
#
# Elastic Constant Matrix: (Units=GPa)
#
#
# Indices 1 2 3 4 5 6 
#
# 1 178.7753 61.8239 68.0400 0.0000 0.0000 0.0000
# 2 61.8239 123.9267 43.4704 0.0000 0.0000 0.0000
# 3 68.0400 43.4704 96.4212 0.0000 0.0000 0.0000
# 4 0.0000 0.0000 0.0000 26.7882 0.0000 0.0000
# 5 0.0000 0.0000 0.0000 0.0000 21.3176 0.0000
# 6 0.0000 0.0000 0.0000 0.0000 0.0000 6.1600
#
#
#
# Elastic Compliance Matrix: (Units=1/GPa)
#
#
# Indices 1 2 3 4 5 6 
#
# 1 0.008233 -0.002458 -0.004701 0.000000 0.000000 0.000000
# 2 -0.002458 0.010319 -0.002918 0.000000 0.000000 0.000000
# 3 -0.004701 -0.002918 0.015004 0.000000 0.000000 0.000000
# 4 0.000000 0.000000 0.000000 0.037330 0.000000 0.000000
# 5 0.000000 0.000000 0.000000 0.000000 0.046910 0.000000
# 6 0.000000 0.000000 0.000000 0.000000 0.000000 0.162337
#
#
# Mechanical properties :
#
#
# Convention : Reuss Voigt Hill
#
# Bulk Modulus (GPa) = 74.61692 82.86576 78.74134
# Shear Modulus (GPa) = 16.40669 25.90577 21.15623
#
# Velocity S-wave (km/s) = 2.90661 3.65237 3.30062
# Velocity P-wave (km/s) = 7.04894 7.77541 7.42107
#
# Compressibility (1/GPa) = 0.01340179
#
# Stress axis : x y z
#
# Youngs Moduli (GPa) = 121.46269 96.90857 66.64831
#
# Poissons Ratio (x) = 0.23821 0.31334
# Poissons Ratio (y) = 0.29857 0.19446
# Poissons Ratio (z) = 0.57105 0.28275
#
# Static dielectric constant tensor:
#      x y z
#    x 1.682110 0.000000 0.000000 
#    y 0.000000 1.743720 0.000000 
#    z 0.000000 0.000000 1.691820 
# 
# From -- ./inp_files/26910.got.cif
#   From: 2010.05.17/outbox.cif.g08.bks.cpg/sg71_14_cif.got.tgz:26910.got - 2010.06.03 16:22:01.
