data_PCOD9523865
_publ_section_title
;
Structure prediction by ZEFSAII (Michael W. Deem and Ramdas Pophale) SiO2 
 PCOD9523865
Probable space group: I M M M
;
_chemical_formula_sum "Si O2"
_cell_formula_units_Z 88
_cell_length_a 22.045460
_cell_length_b 11.500650
_cell_length_c 17.811954
_cell_angle_alpha 90.000000
_cell_angle_beta 90.000000
_cell_angle_gamma 90.000000
_cell_volume 4515.991511
_symmetry_space_group_name_H-M "I M M M"
_symmetry_group_IT_number 71
_symmetry_cell_setting 'orthorhombic'
loop_
_space_group_symop_operation_xyz
x,y,z
-x,-y,z
x,-y,-z
-x,y,-z
-x,-y,-z
x,y,-z
-x,y,z
x,-y,z
1/2+x,1/2+y,1/2+z
1/2-x,1/2-y,1/2+z
1/2+x,1/2-y,1/2-z
1/2-x,1/2+y,1/2-z
1/2-x,1/2-y,1/2-z
1/2+x,1/2+y,1/2-z
1/2-x,1/2+y,1/2+z
1/2+x,1/2-y,1/2+z
loop_
_atom_site_type_symbol
_atom_site_label
_atom_site_fract_x
_atom_site_fract_y
_atom_site_fract_z
Si Si1 0.928418 0.000000 0.682999
Si Si2 0.933473 0.638056 0.233671
Si Si3 0.634539 0.736239 0.140892
Si Si4 0.071873 0.639747 0.500000
Si Si5 0.572894 0.500000 0.363004
Si Si6 0.890507 0.746951 0.914088
Si Si7 0.257895 0.135844 0.588919
O O1 0.899122 0.113143 0.646822
O O2 0.917378 0.000000 0.773007
O O3 0.000000 0.000000 0.671761
O O4 0.929033 0.500000 0.237541
O O5 0.881548 0.696488 0.282903
O O6 0.929001 0.680751 0.148601
O O7 0.000000 0.673901 0.264293
O O8 0.605701 0.808740 0.072645
O O9 0.704813 0.706407 0.129509
O O10 0.076020 0.500000 0.500000
O O11 0.000000 0.670057 0.500000
O O12 0.500000 0.500000 0.376099
O O13 0.601414 0.616413 0.397589
O O14 0.822180 0.699846 0.903443
O O15 0.908401 0.722837 0.000000
O O16 0.242905 0.134620 0.500000
O O17 0.261614 0.000000 0.613299
#
# Coordination Sequence:
#
# PCOD9523865 Si02
#       7
#     8  16  16   8   8  16  16
#     4  11  22  38  66  98 133 169 215 274 332 391
#     4  11  24  42  64  94 131 169 216 274 333 393
#     4  12  22  41  65  96 129 177 220 269 330 391
#     4  11  24  41  63  95 133 176 225 278 331 384
#     4  11  23  44  68 100 138 167 208 272 335 390
#     4  11  24  43  67  96 126 171 215 267 329 395
#     4  10  22  43  65  92 133 172 219 274 323 382
#
# _framework density 19.486307
#
# number of rings (size 3 to 8) (size 9 to 14) (size 15 to 20)
#    0.000    1.000    3.636    3.545    0.000    5.455 
#    3.273    1.818    0.000    0.000    0.000    0.000 
#    0.000    0.000    0.000    0.000    0.000    0.000 
#
# Total GULP energy -246003.039191 kJ/mol
# GULP energy per Si atom -5590.978163 kJ/mol
# Density = 1.944196 g / cm^3
# Si number density = 19.486307 Si / 1000 Ang^3
#
#
#
# Elastic Constant Matrix: (Units=GPa)
#
#
# Indices 1 2 3 4 5 6 
#
# 1 87.4998 50.8712 36.0452 0.0000 0.0000 0.0000
# 2 50.8712 110.1488 34.9047 0.0000 0.0000 0.0000
# 3 36.0452 34.9047 80.3653 0.0000 0.0000 0.0000
# 4 0.0000 0.0000 0.0000 31.4918 0.0000 0.0000
# 5 0.0000 0.0000 0.0000 0.0000 17.8637 0.0000
# 6 0.0000 0.0000 0.0000 0.0000 0.0000 46.2848
#
#
#
# Elastic Compliance Matrix: (Units=1/GPa)
#
#
# Indices 1 2 3 4 5 6 
#
# 1 0.017159 -0.006362 -0.004933 0.000000 0.000000 0.000000
# 2 -0.006362 0.012886 -0.002743 0.000000 0.000000 0.000000
# 3 -0.004933 -0.002743 0.015847 0.000000 0.000000 0.000000
# 4 0.000000 0.000000 0.000000 0.031754 0.000000 0.000000
# 5 0.000000 0.000000 0.000000 0.000000 0.055980 0.000000
# 6 0.000000 0.000000 0.000000 0.000000 0.000000 0.021605
#
#
# Mechanical properties :
#
#
# Convention : Reuss Voigt Hill
#
# Bulk Modulus (GPa) = 56.12882 57.96180 57.04531
# Shear Modulus (GPa) = 26.42044 29.54091 27.98067
#
# Velocity S-wave (km/s) = 3.68618 3.89779 3.79346
# Velocity P-wave (km/s) = 6.85448 7.07576 6.96600
#
# Compressibility (1/GPa) = 0.01781616
#
# Stress axis : x y z
#
# Youngs Moduli (GPa) = 58.27707 77.60334 63.10187
#
# Poissons Ratio (x) = 0.49368 0.31130
# Poissons Ratio (y) = 0.37074 0.17312
# Poissons Ratio (z) = 0.28750 0.21290
#
# Static dielectric constant tensor:
#      x y z
#    x 1.662090 0.000000 0.000000 
#    y 0.000000 1.624270 0.000000 
#    z 0.000000 0.000000 1.684480 
# 
# From -- ./inp_files/47129.got.cif
#   From: 2010.05.17/outbox.cif.g08.bks.cpg/sg71_24_cif.got.tgz:47129.got - 2010.06.03 16:22:01.
