data_PCOD9523342
_publ_section_title
;
Structure prediction by ZEFSAII (Michael W. Deem and Ramdas Pophale) SiO2 
 PCOD9523342
Probable space group: I M M M
;
_chemical_formula_sum "Si O2"
_cell_formula_units_Z 88
_cell_length_a 8.148316
_cell_length_b 29.605220
_cell_length_c 19.166161
_cell_angle_alpha 90.000000
_cell_angle_beta 90.000000
_cell_angle_gamma 90.000000
_cell_volume 4623.504533
_symmetry_space_group_name_H-M "I M M M"
_symmetry_group_IT_number 71
_symmetry_cell_setting 'orthorhombic'
loop_
_space_group_symop_operation_xyz
x,y,z
-x,-y,z
x,-y,-z
-x,y,-z
-x,-y,-z
x,y,-z
-x,y,z
x,-y,z
1/2+x,1/2+y,1/2+z
1/2-x,1/2-y,1/2+z
1/2+x,1/2-y,1/2-z
1/2-x,1/2+y,1/2-z
1/2-x,1/2-y,1/2-z
1/2+x,1/2+y,1/2-z
1/2-x,1/2+y,1/2+z
1/2+x,1/2-y,1/2+z
loop_
_atom_site_type_symbol
_atom_site_label
_atom_site_fract_x
_atom_site_fract_y
_atom_site_fract_z
Si Si1 0.299331 0.145591 0.920432
Si Si2 0.691340 0.889073 0.223153
Si Si3 0.697275 0.296216 0.786771
Si Si4 0.300359 0.750458 0.922297
Si Si5 0.194814 0.552004 0.000000
Si Si6 0.194464 0.051141 0.351342
O O1 0.500000 0.145286 0.919377
O O2 0.242297 0.114214 0.856468
O O3 0.248207 0.197813 0.906493
O O4 0.249878 0.134035 0.000000
O O5 0.500000 0.900222 0.218525
O O6 0.715502 0.838710 0.253026
O O7 0.765871 0.921787 0.281199
O O8 0.500000 0.302260 0.782258
O O9 0.750000 0.250000 0.750000
O O10 0.747839 0.286681 0.866400
O O11 0.500000 0.751837 0.921393
O O12 0.245385 0.739663 0.000000
O O13 0.247169 0.572045 0.925266
O O14 0.261997 0.500000 0.000000
O O15 0.000000 0.550063 0.000000
O O16 0.000000 0.048480 0.356540
O O17 0.263884 0.000000 0.346629
#
# Coordination Sequence:
#
# PCOD9523342 Si02
#       6
#    16  16  16  16   8  16
#     4   8  14  27  49  75 100 131 175 222 264 311
#     4  11  21  34  54  80 107 137 177 224 275 322
#     4  11  20  32  50  73 104 139 176 218 267 321
#     4   8  14  27  47  68  92 129 176 217 254 301
#     4   9  17  33  59  87 111 137 173 219 265 307
#     4  10  21  38  59  82 109 142 178 215 261 322
#
# _framework density 19.033180999999999
#
# number of rings (size 3 to 8) (size 9 to 14) (size 15 to 20)
#    0.000    2.455    1.818    3.000    0.000    2.182 
#    1.636    0.000    0.000    5.455    0.000    3.818 
#    0.000    0.000    0.000    0.000    0.000    0.000 
#
# Total GULP energy -245164.930204 kJ/mol
# GULP energy per Si atom -5571.930232 kJ/mol
# Density = 1.898986 g / cm^3
# Si number density = 19.033181 Si / 1000 Ang^3
#
#
#
# Elastic Constant Matrix: (Units=GPa)
#
#
# Indices 1 2 3 4 5 6 
#
# 1 23.8804 -3.9620 11.2244 0.0000 0.0000 0.0000
# 2 -3.9620 36.9321 36.5076 0.0000 0.0000 0.0000
# 3 11.2244 36.5076 171.1580 0.0000 0.0000 0.0000
# 4 0.0000 0.0000 0.0000 25.5316 0.0000 0.0000
# 5 0.0000 0.0000 0.0000 0.0000 15.4241 0.0000
# 6 0.0000 0.0000 0.0000 0.0000 0.0000 21.4851
#
#
#
# Elastic Compliance Matrix: (Units=1/GPa)
#
#
# Indices 1 2 3 4 5 6 
#
# 1 0.045960 0.010023 -0.005152 0.000000 0.000000 0.000000
# 2 0.010023 0.036497 -0.008442 0.000000 0.000000 0.000000
# 3 -0.005152 -0.008442 0.007981 0.000000 0.000000 0.000000
# 4 0.000000 0.000000 0.000000 0.039167 0.000000 0.000000
# 5 0.000000 0.000000 0.000000 0.000000 0.064833 0.000000
# 6 0.000000 0.000000 0.000000 0.000000 0.000000 0.046544
#
#
# Mechanical properties :
#
#
# Convention : Reuss Voigt Hill
#
# Bulk Modulus (GPa) = 12.00530 35.50116 23.75323
# Shear Modulus (GPa) = 18.12320 25.03486 21.57903
#
# Velocity S-wave (km/s) = 3.08910 3.63068 3.37079
# Velocity P-wave (km/s) = 4.36402 6.02233 5.25895
#
# Compressibility (1/GPa) = 0.08329653
#
# Stress axis : x y z
#
# Youngs Moduli (GPa) = 21.75809 27.39950 125.29622
#
# Poissons Ratio (x) = -0.27463 0.64552
# Poissons Ratio (y) = -0.21809 1.05776
# Poissons Ratio (z) = 0.11210 0.23131
#
# Static dielectric constant tensor:
#      x y z
#    x 1.673540 0.000000 0.000000 
#    y 0.000000 1.644420 0.000000 
#    z 0.000000 0.000000 1.734060 
# 
# From -- ./inp_files/42501.got.cif
#   From: 2010.05.17/outbox.cif.g08.bks.cpg/sg71_22_cif.got.tgz:42501.got - 2010.06.03 16:22:01.
