data_PCOD9523692
_publ_section_title
;
Structure prediction by ZEFSAII (Michael W. Deem and Ramdas Pophale) SiO2 
 PCOD9523692
Probable space group: I M M M
;
_chemical_formula_sum "Si O2"
_cell_formula_units_Z 88
_cell_length_a 18.222323
_cell_length_b 30.023008
_cell_length_c 8.344089
_cell_angle_alpha 90.000000
_cell_angle_beta 90.000000
_cell_angle_gamma 90.000000
_cell_volume 4564.958883
_symmetry_space_group_name_H-M "I M M M"
_symmetry_group_IT_number 71
_symmetry_cell_setting 'orthorhombic'
loop_
_space_group_symop_operation_xyz
x,y,z
-x,-y,z
x,-y,-z
-x,y,-z
-x,-y,-z
x,y,-z
-x,y,z
x,-y,z
1/2+x,1/2+y,1/2+z
1/2-x,1/2-y,1/2+z
1/2+x,1/2-y,1/2-z
1/2-x,1/2+y,1/2-z
1/2-x,1/2-y,1/2-z
1/2+x,1/2+y,1/2-z
1/2-x,1/2+y,1/2+z
1/2+x,1/2-y,1/2+z
loop_
_atom_site_type_symbol
_atom_site_label
_atom_site_fract_x
_atom_site_fract_y
_atom_site_fract_z
Si Si1 0.916884 0.610337 0.191491
Si Si2 0.500000 0.551254 0.695498
Si Si3 0.585228 0.696811 0.806102
Si Si4 0.855954 0.894839 0.191911
Si Si5 0.284321 0.949130 0.693848
Si Si6 0.910819 0.294209 0.314923
O O1 0.859146 0.574210 0.252299
O O2 0.889868 0.660517 0.227030
O O3 0.000000 0.605485 0.256143
O O4 0.921017 0.605501 0.000000
O O5 0.500000 0.500000 0.748458
O O6 0.500000 0.551148 0.500000
O O7 0.572622 0.577335 0.748122
O O8 0.500000 0.690053 0.753744
O O9 0.633278 0.655674 0.748951
O O10 0.611830 0.745719 0.750455
O O11 0.584556 0.698185 0.000000
O O12 0.783824 0.919032 0.254685
O O13 0.855103 0.895476 0.000000
O O14 0.286398 0.949990 0.500000
O O15 0.276735 0.000000 0.750650
O O16 0.887793 0.298106 0.500000
O O17 0.000000 0.292422 0.312253
#
# Coordination Sequence:
#
# PCOD9523692 Si02
#       6
#    16   8  16  16  16  16
#     4   9  18  34  57  83 107 134 172 219 267 318
#     4   9  18  32  49  71 101 135 173 219 264 305
#     4   9  17  31  52  78 110 145 179 216 260 312
#     4  11  21  34  53  78 108 142 181 223 267 311
#     4  10  22  39  56  76 106 141 176 218 270 323
#     4   8  15  29  51  79 109 141 173 210 261 316
#
# _framework density 19.277282
#
# number of rings (size 3 to 8) (size 9 to 14) (size 15 to 20)
#    0.000    2.636    0.909    2.182    0.000    2.909 
#    0.000    4.545    0.000    2.182    0.000    3.818 
#    0.000    0.000    0.000    0.000    0.000    0.000 
#
# Total GULP energy -245380.478741 kJ/mol
# GULP energy per Si atom -5576.829062 kJ/mol
# Density = 1.923341 g / cm^3
# Si number density = 19.277282 Si / 1000 Ang^3
#
#
#
# Elastic Constant Matrix: (Units=GPa)
#
#
# Indices 1 2 3 4 5 6 
#
# 1 92.5444 60.4770 12.2402 0.0002 0.0004 0.0005
# 2 60.4770 102.6535 12.0468 -0.0001 0.0004 -0.0006
# 3 12.2402 12.0468 8.3424 -0.0048 0.0023 0.0012
# 4 0.0002 -0.0001 -0.0048 21.4714 0.0007 -0.0007
# 5 0.0004 0.0004 0.0023 0.0007 15.4468 0.0024
# 6 0.0005 -0.0006 0.0012 -0.0007 0.0024 70.6782
#
#
#
# Elastic Compliance Matrix: (Units=1/GPa)
#
#
# Indices 1 2 3 4 5 6 
#
# 1 0.018833 -0.009455 -0.013979 -0.000003 0.000002 0.000000
# 2 -0.009455 0.016476 -0.009919 -0.000002 0.000001 0.000000
# 3 -0.013979 -0.009919 0.154705 0.000035 -0.000023 -0.000003
# 4 -0.000003 -0.000002 0.000035 0.046574 -0.000002 0.000000
# 5 0.000002 0.000001 -0.000023 -0.000002 0.064738 -0.000002
# 6 0.000000 0.000000 -0.000003 0.000000 -0.000002 0.014149
#
#
# Mechanical properties :
#
#
# Convention : Reuss Voigt Hill
#
# Bulk Modulus (GPa) = 8.10989 41.45203 24.78096
# Shear Modulus (GPa) = 11.81241 29.43770 20.62506
#
# Velocity S-wave (km/s) = 2.47809 3.91201 3.27450
# Velocity P-wave (km/s) = 3.52193 6.47725 5.21339
#
# Compressibility (1/GPa) = 0.12330620
#
# Stress axis : x y z
#
# Youngs Moduli (GPa) = 53.09764 60.69523 6.46393
#
# Poissons Ratio (x) = 0.57386 0.09036
# Poissons Ratio (y) = 0.50203 0.06412
# Poissons Ratio (z) = 0.74228 0.60206
#
# Static dielectric constant tensor:
#      x y z
#    x 1.667970 0.000000 0.000000 
#    y 0.000000 1.679220 0.000000 
#    z 0.000000 0.000000 1.672220 
# 
# From -- ./inp_files/8732.got.cif
#   From: 2010.05.17/outbox.cif.g08.bks.cpg/sg71_5_cif.got.tgz:8732.got - 2010.06.03 16:22:01.
