data_PCOD9523836
_publ_section_title
;
Structure prediction by ZEFSAII (Michael W. Deem and Ramdas Pophale) SiO2 
 PCOD9523836
Probable space group: I M M M
;
_chemical_formula_sum "Si O2"
_cell_formula_units_Z 104
_cell_length_a 30.350196
_cell_length_b 8.747792
_cell_length_c 20.974539
_cell_angle_alpha 90.000000
_cell_angle_beta 90.000000
_cell_angle_gamma 90.000000
_cell_volume 5568.681413
_symmetry_space_group_name_H-M "I M M M"
_symmetry_group_IT_number 71
_symmetry_cell_setting 'orthorhombic'
loop_
_space_group_symop_operation_xyz
x,y,z
-x,-y,z
x,-y,-z
-x,y,-z
-x,-y,-z
x,y,-z
-x,y,z
x,-y,z
1/2+x,1/2+y,1/2+z
1/2-x,1/2-y,1/2+z
1/2+x,1/2-y,1/2-z
1/2-x,1/2+y,1/2-z
1/2-x,1/2-y,1/2-z
1/2+x,1/2+y,1/2-z
1/2-x,1/2+y,1/2+z
1/2+x,1/2-y,1/2+z
loop_
_atom_site_type_symbol
_atom_site_label
_atom_site_fract_x
_atom_site_fract_y
_atom_site_fract_z
Si Si1 0.449717 0.821755 0.076447
Si Si2 0.948624 0.814184 0.859251
Si Si3 0.131155 0.177969 0.643130
Si Si4 0.130979 0.680584 0.219442
Si Si5 0.778530 0.183235 0.573117
Si Si6 0.223934 0.818086 0.811114
Si Si7 0.553385 0.324988 0.500000
O O1 0.500000 0.788403 0.095503
O O2 0.414685 0.713981 0.109319
O O3 0.440512 0.000000 0.092185
O O4 0.447050 0.807691 0.000000
O O5 0.913945 0.749401 0.809264
O O6 0.000000 0.772258 0.847490
O O7 0.947006 0.000000 0.859414
O O8 0.935279 0.758469 0.930831
O O9 0.134440 0.279521 0.705985
O O10 0.171156 0.211063 0.594989
O O11 0.134364 0.000000 0.661852
O O12 0.131813 0.500000 0.209541
O O13 0.174136 0.756670 0.188698
O O14 0.771603 0.230928 0.500000
O O15 0.748125 0.265587 0.624614
O O16 0.771209 0.000000 0.577112
O O17 0.250000 0.750000 0.750000
O O18 0.224096 0.000000 0.805188
O O19 0.569825 0.500000 0.500000
O O20 0.500000 0.331677 0.500000
#
# Coordination Sequence:
#
# PCOD9523836 Si02
#       7
#    16  16  16  16  16  16   8
#     4   9  19  36  56  80 115 157 198 243 294 348
#     4   9  18  36  62  90 120 155 197 247 299 357
#     4  11  22  37  60  87 116 154 198 246 297 355
#     4  12  25  40  60  87 120 160 200 245 299 353
#     4  10  22  41  65  93 124 156 195 249 306 360
#     4  12  24  42  67  92 121 161 205 248 302 363
#     4   7  12  28  57  87 113 147 191 239 293 349
#
# _framework density 18.675875000000001
#
# number of rings (size 3 to 8) (size 9 to 14) (size 15 to 20)
#    0.000    1.769    1.538    5.077    0.000    3.077 
#    1.385    1.154    0.000    1.385    0.000    0.000 
#    0.000    0.000    0.000    0.000    0.000    0.000 
#
# Total GULP energy -290350.585488 kJ/mol
# GULP energy per Si atom -5583.665106 kJ/mol
# Density = 1.863337 g / cm^3
# Si number density = 18.675875 Si / 1000 Ang^3
#
#
#
# Elastic Constant Matrix: (Units=GPa)
#
#
# Indices 1 2 3 4 5 6 
#
# 1 105.2520 51.9760 49.2626 0.0000 0.0000 0.0000
# 2 51.9760 75.6394 49.3337 0.0000 0.0000 0.0000
# 3 49.2626 49.3337 103.1529 0.0000 0.0000 0.0000
# 4 0.0000 0.0000 0.0000 8.5135 0.0000 0.0000
# 5 0.0000 0.0000 0.0000 0.0000 35.1898 0.0000
# 6 0.0000 0.0000 0.0000 0.0000 0.0000 25.8609
#
#
#
# Elastic Compliance Matrix: (Units=1/GPa)
#
#
# Indices 1 2 3 4 5 6 
#
# 1 0.015103 -0.008246 -0.003269 0.000000 0.000000 0.000000
# 2 -0.008246 0.023716 -0.007404 0.000000 0.000000 0.000000
# 3 -0.003269 -0.007404 0.014797 0.000000 0.000000 0.000000
# 4 0.000000 0.000000 0.000000 0.117460 0.000000 0.000000
# 5 0.000000 0.000000 0.000000 0.000000 0.028417 0.000000
# 6 0.000000 0.000000 0.000000 0.000000 0.000000 0.038668
#
#
# Mechanical properties :
#
#
# Convention : Reuss Voigt Hill
#
# Bulk Modulus (GPa) = 63.38294 65.02097 64.20196
# Shear Modulus (GPa) = 17.77711 22.81098 20.29405
#
# Velocity S-wave (km/s) = 3.08860 3.49867 3.30001
# Velocity P-wave (km/s) = 6.83603 7.15625 6.99797
#
# Compressibility (1/GPa) = 0.01577712
#
# Stress axis : x y z
#
# Youngs Moduli (GPa) = 66.21124 42.16509 67.58229
#
# Poissons Ratio (x) = 0.34770 0.22093
# Poissons Ratio (y) = 0.54598 0.50041
# Poissons Ratio (z) = 0.21645 0.31221
#
# Static dielectric constant tensor:
#      x y z
#    x 1.625420 0.000000 0.000000 
#    y 0.000000 1.638010 0.000000 
#    z 0.000000 0.000000 1.646090 
# 
# From -- ./inp_files/56280.got.cif
#   From: 2010.05.17/outbox.cif.g08.bks.cpg/sg71_29_cif.got.tgz:56280.got - 2010.06.03 16:22:01.
