data_PCOD9523488
_publ_section_title
;
Structure prediction by ZEFSAII (Michael W. Deem and Ramdas Pophale) SiO2 
 PCOD9523488
Probable space group: I M M M
;
_chemical_formula_sum "Si O2"
_cell_formula_units_Z 88
_cell_length_a 27.717338
_cell_length_b 19.728303
_cell_length_c 8.886684
_cell_angle_alpha 90.000000
_cell_angle_beta 90.000000
_cell_angle_gamma 90.000000
_cell_volume 4859.381375
_symmetry_space_group_name_H-M "I M M M"
_symmetry_group_IT_number 71
_symmetry_cell_setting 'orthorhombic'
loop_
_space_group_symop_operation_xyz
x,y,z
-x,-y,z
x,-y,-z
-x,y,-z
-x,-y,-z
x,y,-z
-x,y,z
x,-y,z
1/2+x,1/2+y,1/2+z
1/2-x,1/2-y,1/2+z
1/2+x,1/2-y,1/2-z
1/2-x,1/2+y,1/2-z
1/2-x,1/2-y,1/2-z
1/2+x,1/2+y,1/2-z
1/2-x,1/2+y,1/2+z
1/2+x,1/2-y,1/2+z
loop_
_atom_site_type_symbol
_atom_site_label
_atom_site_fract_x
_atom_site_fract_y
_atom_site_fract_z
Si Si1 0.729069 0.318679 0.180601
Si Si2 0.000000 0.420034 0.819248
Si Si3 0.405664 0.848869 0.817960
Si Si4 0.056933 0.075067 0.180336
Si Si5 0.617867 0.305002 0.180930
Si Si6 0.195538 0.579395 0.680775
O O1 0.750000 0.250000 0.250000
O O2 0.672948 0.320649 0.225428
O O3 0.761327 0.380126 0.241031
O O4 0.731665 0.315909 0.000000
O O5 0.952291 0.383684 0.754484
O O6 0.000000 0.500000 0.777919
O O7 0.000000 0.415231 0.000000
O O8 0.398610 0.770381 0.771529
O O9 0.356232 0.888150 0.778265
O O10 0.410618 0.851246 0.000000
O O11 0.084352 0.136508 0.255473
O O12 0.000000 0.079428 0.212804
O O13 0.073904 0.000000 0.229372
O O14 0.062547 0.078690 0.000000
O O15 0.616032 0.305396 0.000000
O O16 0.200547 0.586915 0.500000
O O17 0.196177 0.500000 0.717583
#
# Coordination Sequence:
#
# PCOD9523488 Si02
#       6
#    16   8  16  16  16  16
#     4  11  22  39  60  84 118 154 193 240 290 343
#     4  11  25  41  57  85 122 153 192 245 293 342
#     4  10  21  40  62  85 116 156 198 237 285 347
#     4   9  20  39  60  84 116 152 190 233 284 342
#     4  10  22  38  59  87 117 149 192 240 283 340
#     4  10  21  39  63  89 118 154 197 240 286 346
#
# _framework density 18.109300999999999
#
# number of rings (size 3 to 8) (size 9 to 14) (size 15 to 20)
#    0.000    1.909    1.818    1.909    1.273    6.182 
#    0.000    4.545    0.000    0.000    0.000    0.000 
#    0.000    0.000    0.000    0.000    0.000    0.000 
#
# Total GULP energy -245717.233783 kJ/mol
# GULP energy per Si atom -5584.482586 kJ/mol
# Density = 1.806808 g / cm^3
# Si number density = 18.109301 Si / 1000 Ang^3
#
#
#
# Elastic Constant Matrix: (Units=GPa)
#
#
# Indices 1 2 3 4 5 6 
#
# 1 136.6995 111.0524 46.8375 0.0000 0.0000 0.0000
# 2 111.0524 199.6318 53.5083 0.0000 0.0000 0.0000
# 3 46.8375 53.5083 23.0598 0.0000 0.0000 0.0000
# 4 0.0000 0.0000 0.0000 34.4256 0.0000 0.0000
# 5 0.0000 0.0000 0.0000 0.0000 34.8691 0.0000
# 6 0.0000 0.0000 0.0000 0.0000 0.0000 39.7185
#
#
#
# Elastic Compliance Matrix: (Units=1/GPa)
#
#
# Indices 1 2 3 4 5 6 
#
# 1 0.024101 -0.000757 -0.047196 0.000000 0.000000 0.000000
# 2 -0.000757 0.013274 -0.029264 0.000000 0.000000 0.000000
# 3 -0.047196 -0.029264 0.207129 0.000000 0.000000 0.000000
# 4 0.000000 0.000000 0.000000 0.029048 0.000000 0.000000
# 5 0.000000 0.000000 0.000000 0.000000 0.028679 0.000000
# 6 0.000000 0.000000 0.000000 0.000000 0.000000 0.025177
#
#
# Mechanical properties :
#
#
# Convention : Reuss Voigt Hill
#
# Bulk Modulus (GPa) = 11.10226 86.90972 49.00599
# Shear Modulus (GPa) = 9.76822 31.66886 20.71854
#
# Velocity S-wave (km/s) = 2.32503 4.18636 3.38610
# Velocity P-wave (km/s) = 3.65399 8.45360 6.51211
#
# Compressibility (1/GPa) = 0.09007177
#
# Stress axis : x y z
#
# Youngs Moduli (GPa) = 41.49222 75.33548 4.82791
#
# Poissons Ratio (x) = 0.05702 0.22786
# Poissons Ratio (y) = 0.03141 0.14128
# Poissons Ratio (z) = 1.95825 2.20459
#
# Static dielectric constant tensor:
#      x y z
#    x 1.447080 0.000000 0.000000 
#    y 0.000000 1.597360 0.000000 
#    z 0.000000 0.000000 1.610910 
# 
# From -- ./inp_files/10465.got.cif
#   From: 2010.05.17/outbox.cif.g08.bks.cpg/sg71_6_cif.got.tgz:10465.got - 2010.06.03 16:22:01.
