data_PCOD9523777
_publ_section_title
;
Structure prediction by ZEFSAII (Michael W. Deem and Ramdas Pophale) SiO2 
 PCOD9523777
Probable space group: I M M M
;
_chemical_formula_sum "Si O2"
_cell_formula_units_Z 64
_cell_length_a 13.681075
_cell_length_b 17.967817
_cell_length_c 12.567097
_cell_angle_alpha 90.000000
_cell_angle_beta 90.000000
_cell_angle_gamma 90.000000
_cell_volume 3089.231870
_symmetry_space_group_name_H-M "I M M M"
_symmetry_group_IT_number 71
_symmetry_cell_setting 'orthorhombic'
loop_
_space_group_symop_operation_xyz
x,y,z
-x,-y,z
x,-y,-z
-x,y,-z
-x,-y,-z
x,y,-z
-x,y,z
x,-y,z
1/2+x,1/2+y,1/2+z
1/2-x,1/2-y,1/2+z
1/2+x,1/2-y,1/2-z
1/2-x,1/2+y,1/2-z
1/2-x,1/2-y,1/2-z
1/2+x,1/2+y,1/2-z
1/2-x,1/2+y,1/2+z
1/2+x,1/2-y,1/2+z
loop_
_atom_site_type_symbol
_atom_site_label
_atom_site_fract_x
_atom_site_fract_y
_atom_site_fract_z
Si Si1 0.000000 0.410136 0.117527
Si Si2 0.115889 0.720826 0.618189
Si Si3 0.816274 0.415208 0.261656
Si Si4 0.114433 0.862140 0.236748
Si Si5 0.115224 0.915366 0.000000
O O1 0.900345 0.391453 0.178492
O O2 0.000000 0.500000 0.110698
O O3 0.000000 0.377512 0.000000
O O4 0.143484 0.748568 0.500000
O O5 0.169006 0.644300 0.645159
O O6 0.131300 0.781719 0.710319
O O7 0.000000 0.705972 0.616925
O O8 0.836004 0.500000 0.294139
O O9 0.705334 0.410124 0.219021
O O10 0.129473 0.871045 0.109850
O O11 0.000000 0.882866 0.259215
O O12 0.000000 0.927677 0.000000
O O13 0.160322 0.000000 0.000000
#
# Coordination Sequence:
#
# PCOD9523777 Si02
#       5
#     8  16  16  16   8
#     4   9  20  40  61  87 123 165 212 264 323 384
#     4  10  22  41  62  89 129 172 217 270 324 392
#     4  11  22  39  63  91 126 169 218 273 328 378
#     4  10  22  40  62  95 131 169 215 265 332 392
#     4   9  18  36  62  93 130 166 208 268 321 377
#
# _framework density 20.717126
#
# number of rings (size 3 to 8) (size 9 to 14) (size 15 to 20)
#    0.000    2.000    1.250    1.500    1.750    3.000 
#    2.250    1.250    0.000    2.250    0.000   19.250 
#    0.000    0.000    0.000    0.000    0.000    0.000 
#
# Total GULP energy -178190.633745 kJ/mol
# GULP energy per Si atom -5568.457305 kJ/mol
# Density = 2.066997 g / cm^3
# Si number density = 20.717126 Si / 1000 Ang^3
#
#
#
# Elastic Constant Matrix: (Units=GPa)
#
#
# Indices 1 2 3 4 5 6 
#
# 1 131.4574 27.0495 57.3838 0.0000 0.0000 0.0000
# 2 27.0495 107.7324 60.6472 0.0000 0.0000 0.0000
# 3 57.3838 60.6472 113.0423 0.0000 0.0000 0.0000
# 4 0.0000 0.0000 0.0000 14.0785 0.0000 0.0000
# 5 0.0000 0.0000 0.0000 0.0000 2.3203 0.0000
# 6 0.0000 0.0000 0.0000 0.0000 0.0000 23.4842
#
#
#
# Elastic Compliance Matrix: (Units=1/GPa)
#
#
# Indices 1 2 3 4 5 6 
#
# 1 0.009790 0.000487 -0.005231 0.000000 0.000000 0.000000
# 2 0.000487 0.013323 -0.007395 0.000000 0.000000 0.000000
# 3 -0.005231 -0.007395 0.015469 0.000000 0.000000 0.000000
# 4 0.000000 0.000000 0.000000 0.071030 0.000000 0.000000
# 5 0.000000 0.000000 0.000000 0.000000 0.430985 0.000000
# 6 0.000000 0.000000 0.000000 0.000000 0.000000 0.042582
#
#
# Mechanical properties :
#
#
# Convention : Reuss Voigt Hill
#
# Bulk Modulus (GPa) = 69.91079 71.37699 70.64389
# Shear Modulus (GPa) = 8.16693 21.78669 14.97681
#
# Velocity S-wave (km/s) = 1.98763 3.24640 2.69163
# Velocity P-wave (km/s) = 6.25190 6.96994 6.62066
#
# Compressibility (1/GPa) = 0.01430394
#
# Stress axis : x y z
#
# Youngs Moduli (GPa) = 102.14189 75.05868 64.64594
#
# Poissons Ratio (x) = -0.03652 0.33816
# Poissons Ratio (y) = -0.04970 0.47804
# Poissons Ratio (z) = 0.53429 0.55504
#
# Static dielectric constant tensor:
#      x y z
#    x 1.797820 0.000000 0.000000 
#    y 0.000000 1.745110 0.000000 
#    z 0.000000 0.000000 1.782620 
# 
# From -- ./inp_files/21294.got.cif
#   From: 2010.05.17/outbox.cif.g08.bks.cpg/sg71_11_cif.got.tgz:21294.got - 2010.06.03 16:22:01.
