data_PCOD9523632
_publ_section_title
;
Structure prediction by ZEFSAII (Michael W. Deem and Ramdas Pophale) SiO2 
 PCOD9523632
Probable space group: I M M M
;
_chemical_formula_sum "Si O2"
_cell_formula_units_Z 80
_cell_length_a 7.869895
_cell_length_b 19.425226
_cell_length_c 26.790531
_cell_angle_alpha 90.000000
_cell_angle_beta 90.000000
_cell_angle_gamma 90.000000
_cell_volume 4095.588736
_symmetry_space_group_name_H-M "I M M M"
_symmetry_group_IT_number 71
_symmetry_cell_setting 'orthorhombic'
loop_
_space_group_symop_operation_xyz
x,y,z
-x,-y,z
x,-y,-z
-x,y,-z
-x,-y,-z
x,y,-z
-x,y,z
x,-y,z
1/2+x,1/2+y,1/2+z
1/2-x,1/2-y,1/2+z
1/2+x,1/2-y,1/2-z
1/2-x,1/2+y,1/2-z
1/2-x,1/2-y,1/2-z
1/2+x,1/2+y,1/2-z
1/2-x,1/2+y,1/2+z
1/2+x,1/2-y,1/2+z
loop_
_atom_site_type_symbol
_atom_site_label
_atom_site_fract_x
_atom_site_fract_y
_atom_site_fract_z
Si Si1 0.500000 0.271277 0.442450
Si Si2 0.300614 0.675209 0.059871
Si Si3 0.500000 0.423969 0.410643
Si Si4 0.798174 0.328919 0.759083
Si Si5 0.302843 0.921685 0.168058
Si Si6 0.797066 0.077301 0.647325
O O1 0.500000 0.251705 0.500000
O O2 0.327215 0.235983 0.422881
O O3 0.500000 0.353068 0.440040
O O4 0.500000 0.691720 0.069602
O O5 0.250641 0.609703 0.093604
O O6 0.287196 0.663166 0.000000
O O7 0.500000 0.500000 0.435196
O O8 0.330134 0.420288 0.376899
O O9 0.750000 0.250000 0.750000
O O10 0.737631 0.372227 0.711385
O O11 0.743266 0.367319 0.809590
O O12 0.000000 0.333055 0.758660
O O13 0.500000 0.905224 0.154286
O O14 0.303682 0.000000 0.187657
O O15 0.000000 0.071274 0.647089
O O16 0.726540 0.000000 0.655834
#
# Coordination Sequence:
#
# PCOD9523632 Si02
#       6
#     8  16   8  16  16  16
#     4  10  22  39  61  88 120 149 187 241 293 352
#     4   9  20  39  61  86 116 153 194 237 292 349
#     4  10  22  37  62  87 111 154 193 237 293 340
#     4  11  24  37  54  81 114 152 192 238 288 340
#     4   9  20  38  56  78 110 149 191 231 277 339
#     4  10  22  38  58  85 116 152 193 241 294 346
#
# _framework density 19.533211999999999
#
# number of rings (size 3 to 8) (size 9 to 14) (size 15 to 20)
#    0.000    2.200    0.000    1.200    7.000    2.600 
#    0.000    2.000    0.000    1.800    0.000    5.600 
#    0.000    0.000    0.000    0.000    0.000    0.000 
#
# Total GULP energy -222881.795517 kJ/mol
# GULP energy per Si atom -5572.044888 kJ/mol
# Density = 1.948875 g / cm^3
# Si number density = 19.533212 Si / 1000 Ang^3
#
#
#
# Elastic Constant Matrix: (Units=GPa)
#
#
# Indices 1 2 3 4 5 6 
#
# 1 58.5643 37.0151 23.9700 0.0000 0.0000 0.0000
# 2 37.0151 133.5564 37.2189 0.0000 0.0000 0.0000
# 3 23.9700 37.2189 37.2014 0.0000 0.0000 0.0000
# 4 0.0000 0.0000 0.0000 31.7812 0.0000 0.0000
# 5 0.0000 0.0000 0.0000 0.0000 10.2430 0.0000
# 6 0.0000 0.0000 0.0000 0.0000 0.0000 34.8176
#
#
#
# Elastic Compliance Matrix: (Units=1/GPa)
#
#
# Indices 1 2 3 4 5 6 
#
# 1 0.024180 -0.003272 -0.012307 0.000000 0.000000 0.000000
# 2 -0.003272 0.010825 -0.008722 0.000000 0.000000 0.000000
# 3 -0.012307 -0.008722 0.043536 0.000000 0.000000 0.000000
# 4 0.000000 0.000000 0.000000 0.031465 0.000000 0.000000
# 5 0.000000 0.000000 0.000000 0.000000 0.097628 0.000000
# 6 0.000000 0.000000 0.000000 0.000000 0.000000 0.028721
#
#
# Mechanical properties :
#
#
# Convention : Reuss Voigt Hill
#
# Bulk Modulus (GPa) = 33.39941 47.30333 40.35137
# Shear Modulus (GPa) = 16.95282 24.10956 20.53119
#
# Velocity S-wave (km/s) = 2.94921 3.51705 3.24557
# Velocity P-wave (km/s) = 5.36032 6.38454 5.89471
#
# Compressibility (1/GPa) = 0.02994064
#
# Stress axis : x y z
#
# Youngs Moduli (GPa) = 41.35592 92.38028 22.96950
#
# Poissons Ratio (x) = 0.30227 0.28268
# Poissons Ratio (y) = 0.13532 0.20033
# Poissons Ratio (z) = 0.50895 0.80571
#
# Static dielectric constant tensor:
#      x y z
#    x 1.699080 0.000000 0.000000 
#    y 0.000000 1.704470 0.000000 
#    z 0.000000 0.000000 1.693480 
# 
# From -- ./inp_files/48645.got.cif
#   From: 2010.05.17/outbox.cif.g08.bks.cpg/sg71_25_cif.got.tgz:48645.got - 2010.06.03 16:22:01.
