data_PCOD9523306
_publ_section_title
;
Structure prediction by ZEFSAII (Michael W. Deem and Ramdas Pophale) SiO2 
 PCOD9523306
Probable space group: I M M M
;
_chemical_formula_sum "Si O2"
_cell_formula_units_Z 116
_cell_length_a 21.583815
_cell_length_b 31.890828
_cell_length_c 7.599241
_cell_angle_alpha 90.000000
_cell_angle_beta 90.000000
_cell_angle_gamma 90.000000
_cell_volume 5230.753122
_symmetry_space_group_name_H-M "I M M M"
_symmetry_group_IT_number 71
_symmetry_cell_setting 'orthorhombic'
loop_
_space_group_symop_operation_xyz
x,y,z
-x,-y,z
x,-y,-z
-x,y,-z
-x,-y,-z
x,y,-z
-x,y,z
x,-y,z
1/2+x,1/2+y,1/2+z
1/2-x,1/2-y,1/2+z
1/2+x,1/2-y,1/2-z
1/2-x,1/2+y,1/2-z
1/2-x,1/2-y,1/2-z
1/2+x,1/2+y,1/2-z
1/2-x,1/2+y,1/2+z
1/2+x,1/2-y,1/2+z
loop_
_atom_site_type_symbol
_atom_site_label
_atom_site_fract_x
_atom_site_fract_y
_atom_site_fract_z
Si Si1 0.859350 0.174294 0.213007
Si Si2 0.696482 0.453599 0.791056
Si Si3 0.118728 0.500000 0.000000
Si Si4 0.396971 0.155079 0.197957
Si Si5 0.235671 0.371417 0.204251
Si Si6 0.931615 0.747015 0.205391
Si Si7 0.428579 0.937375 0.210679
Si Si8 0.930439 0.090734 0.787878
O O1 0.793456 0.159971 0.285373
O O2 0.883046 0.219270 0.277192
O O3 0.908280 0.137642 0.261366
O O4 0.853395 0.173704 0.000000
O O5 0.707770 0.500000 0.718396
O O6 0.738749 0.415683 0.721537
O O7 0.624763 0.440083 0.769498
O O8 0.708853 0.455241 0.000000
O O9 0.113277 0.463831 0.156856
O O10 0.323734 0.146651 0.200859
O O11 0.411991 0.198754 0.288003
O O12 0.425255 0.111501 0.263439
O O13 0.420053 0.160225 0.000000
O O14 0.218525 0.377034 0.000000
O O15 0.000000 0.751777 0.284121
O O16 0.936335 0.758336 0.000000
O O17 0.500000 0.951621 0.232477
O O18 0.413322 0.940742 0.000000
O O19 0.000000 0.081568 0.724046
O O20 0.931716 0.089069 0.000000
#
# Coordination Sequence:
#
# PCOD9523306 Si02
#       8
#    16  16   4  16  16  16  16  16
#     4   9  18  35  58  83 114 150 188 235 287 337
#     4   9  19  36  54  75 106 142 182 232 286 336
#     4  12  23  38  68  94 118 164 206 246 313 370
#     4  11  24  41  59  83 119 156 190 236 294 349
#     4  10  21  38  59  82 109 147 196 243 287 343
#     4  10  21  37  61  91 118 148 190 234 281 348
#     4  10  22  40  61  90 125 157 199 254 306 367
#     4   9  17  30  51  79 111 146 184 228 278 332
#
# _framework density 22.176539999999999
#
# number of rings (size 3 to 8) (size 9 to 14) (size 15 to 20)
#    0.000    2.207    0.000    2.483    1.931    5.517 
#    1.241    1.379    0.000    2.483    0.000    0.000 
#    0.000    0.000    0.000    0.000    0.000    0.000 
#
# Total GULP energy -323419.640049 kJ/mol
# GULP energy per Si atom -5576.200690 kJ/mol
# Density = 2.212606 g / cm^3
# Si number density = 22.176540 Si / 1000 Ang^3
#
#
#
# Elastic Constant Matrix: (Units=GPa)
#
#
# Indices 1 2 3 4 5 6 
#
# 1 71.3665 20.9666 -1.3265 0.0000 0.0000 0.0000
# 2 20.9666 130.7615 16.3086 0.0000 0.0000 0.0000
# 3 -1.3265 16.3086 65.4315 0.0000 0.0000 0.0000
# 4 0.0000 0.0000 0.0000 18.0370 0.0000 0.0000
# 5 0.0000 0.0000 0.0000 0.0000 -1.3215 0.0000
# 6 0.0000 0.0000 0.0000 0.0000 0.0000 -54.0812
#
#
#
# Elastic Compliance Matrix: (Units=1/GPa)
#
#
# Indices 1 2 3 4 5 6 
#
# 1 0.014758 -0.002481 0.000918 0.000000 0.000000 0.000000
# 2 -0.002481 0.008310 -0.002122 0.000000 0.000000 0.000000
# 3 0.000918 -0.002122 0.015831 0.000000 0.000000 0.000000
# 4 0.000000 0.000000 0.000000 0.055441 0.000000 0.000000
# 5 0.000000 0.000000 0.000000 0.000000 -0.756716 0.000000
# 6 0.000000 0.000000 0.000000 0.000000 0.000000 -0.018491
#
#
# Mechanical properties :
#
#
# Convention : Reuss Voigt Hill
#
# Bulk Modulus (GPa) = 31.71688 37.71743 34.71715
# Shear Modulus (GPa) = -7.54162 7.96760 0.21299
#
# Velocity S-wave (km/s) = -1.84610 1.89753 0.31025
# Velocity P-wave (km/s) = 3.12872 4.67392 3.97709
#
# Compressibility (1/GPa) = 0.03152895
#
# Stress axis : x y z
#
# Youngs Moduli (GPa) = 67.75963 120.33872 63.16906
#
# Poissons Ratio (x) = 0.29853 -0.05796
# Poissons Ratio (y) = 0.16810 0.13401
# Poissons Ratio (z) = -0.06217 0.25530
#
# Static dielectric constant tensor:
#      x y z
#    x 1.819370 0.000000 0.000000 
#    y 0.000000 1.813060 0.000000 
#    z 0.000000 0.000000 1.845580 
# 
# From -- ./inp_files/13728.got.cif
#   From: 2010.05.17/outbox.cif.g08.bks.cpg/sg71_7_cif.got.tgz:13728.got - 2010.06.03 16:22:01.
