data_PCOD9523465
_publ_section_title
;
Structure prediction by ZEFSAII (Michael W. Deem and Ramdas Pophale) SiO2 
 PCOD9523465
Probable space group: I M M M
;
_chemical_formula_sum "Si O2"
_cell_formula_units_Z 116
_cell_length_a 27.052650
_cell_length_b 7.890360
_cell_length_c 24.351068
_cell_angle_alpha 90.000000
_cell_angle_beta 90.000000
_cell_angle_gamma 90.000000
_cell_volume 5197.860811
_symmetry_space_group_name_H-M "I M M M"
_symmetry_group_IT_number 71
_symmetry_cell_setting 'orthorhombic'
loop_
_space_group_symop_operation_xyz
x,y,z
-x,-y,z
x,-y,-z
-x,y,-z
-x,-y,-z
x,y,-z
-x,y,z
x,-y,z
1/2+x,1/2+y,1/2+z
1/2-x,1/2-y,1/2+z
1/2+x,1/2-y,1/2-z
1/2-x,1/2+y,1/2-z
1/2-x,1/2-y,1/2-z
1/2+x,1/2+y,1/2-z
1/2-x,1/2+y,1/2+z
1/2+x,1/2-y,1/2+z
loop_
_atom_site_type_symbol
_atom_site_label
_atom_site_fract_x
_atom_site_fract_y
_atom_site_fract_z
Si Si1 0.611548 0.195521 0.440621
Si Si2 0.199601 0.307937 0.222861
Si Si3 0.189811 0.797181 0.562609
Si Si4 0.000000 0.500000 0.571981
Si Si5 0.941873 0.300320 0.166545
Si Si6 0.707227 0.688050 0.395442
Si Si7 0.104450 0.194192 0.721722
Si Si8 0.922444 0.205626 0.399236
O O1 0.600207 0.272352 0.500000
O O2 0.586222 0.271366 0.386562
O O3 0.670251 0.197071 0.430152
O O4 0.594632 0.000000 0.442004
O O5 0.204215 0.500000 0.203585
O O6 0.250000 0.250000 0.250000
O O7 0.191358 0.201178 0.167998
O O8 0.154655 0.293359 0.265272
O O9 0.195176 0.734755 0.500000
O O10 0.235060 0.728985 0.598511
O O11 0.134501 0.763493 0.583619
O O12 0.194846 0.000000 0.562310
O O13 0.957349 0.653856 0.573209
O O14 0.927759 0.500000 0.173212
O O15 0.927889 0.213869 0.223684
O O16 0.000000 0.290905 0.157095
O O17 0.698657 0.500000 0.416265
O O18 0.075576 0.240653 0.666461
O O19 0.119824 0.000000 0.713862
O O20 0.933064 0.000000 0.408654
#
# Coordination Sequence:
#
# PCOD9523465 Si02
#       8
#    16  16  16   4  16  16  16  16
#     4  10  21  39  61  87 124 170 217 267 325 385
#     4  12  24  39  62  91 129 170 212 261 322 394
#     4  10  22  44  71  96 131 176 222 277 337 401
#     4  12  26  44  77 100 136 184 225 282 338 402
#     4  10  22  38  61  91 123 166 220 271 320 384
#     4  12  24  38  61  95 132 171 217 267 326 395
#     4  11  23  40  63  92 131 171 213 269 326 389
#     4  10  25  45  68 103 138 175 226 279 339 406
#
# _framework density 22.316873000000001
#
# number of rings (size 3 to 8) (size 9 to 14) (size 15 to 20)
#    0.000    1.241    1.379    4.345    3.862    3.862 
#    0.000    2.069    0.000    1.655    0.000    1.931 
#    0.000    0.000    0.000    0.000    0.000    0.000 
#
# Total GULP energy -323583.118954 kJ/mol
# GULP energy per Si atom -5579.019292 kJ/mol
# Density = 2.226608 g / cm^3
# Si number density = 22.316873 Si / 1000 Ang^3
#
#
#
# Elastic Constant Matrix: (Units=GPa)
#
#
# Indices 1 2 3 4 5 6 
#
# 1 68.8447 18.6423 -4.1155 0.0000 0.0000 0.0000
# 2 18.6423 72.1115 3.8081 0.0000 0.0000 0.0000
# 3 -4.1155 3.8081 57.8275 0.0000 0.0000 0.0000
# 4 0.0000 0.0000 0.0000 8.9841 0.0000 0.0000
# 5 0.0000 0.0000 0.0000 0.0000 -8.9699 0.0000
# 6 0.0000 0.0000 0.0000 0.0000 0.0000 0.2933
#
#
#
# Elastic Compliance Matrix: (Units=1/GPa)
#
#
# Indices 1 2 3 4 5 6 
#
# 1 0.015730 -0.004140 0.001392 0.000000 0.000000 0.000000
# 2 -0.004140 0.015005 -0.001283 0.000000 0.000000 0.000000
# 3 0.001392 -0.001283 0.017476 0.000000 0.000000 0.000000
# 4 0.000000 0.000000 0.000000 0.111308 0.000000 0.000000
# 5 0.000000 0.000000 0.000000 0.000000 -0.111484 0.000000
# 6 0.000000 0.000000 0.000000 0.000000 0.000000 3.410033
#
#
# Mechanical properties :
#
#
# Convention : Reuss Voigt Hill
#
# Bulk Modulus (GPa) = 24.90650 26.16151 25.53401
# Shear Modulus (GPa) = 1.43698 12.09141 6.76420
#
# Velocity S-wave (km/s) = 0.80330 2.33020 1.74286
# Velocity P-wave (km/s) = 3.47059 4.35752 3.93910
#
# Compressibility (1/GPa) = 0.04015016
#
# Stress axis : x y z
#
# Youngs Moduli (GPa) = 63.57393 66.64254 57.22013
#
# Poissons Ratio (x) = 0.27590 -0.07966
# Poissons Ratio (y) = 0.26319 0.07340
# Poissons Ratio (z) = -0.08850 0.08549
#
# Static dielectric constant tensor:
#      x y z
#    x 1.790620 0.000000 0.000000 
#    y 0.000000 1.824750 0.000000 
#    z 0.000000 0.000000 1.844150 
# 
# From -- ./inp_files/13405.got.cif
#   From: 2010.05.17/outbox.cif.g08.bks.cpg/sg71_7_cif.got.tgz:13405.got - 2010.06.03 16:22:01.
