data_PCOD9523372
_publ_section_title
;
Structure prediction by ZEFSAII (Michael W. Deem and Ramdas Pophale) SiO2 
 PCOD9523372
Probable space group: I M M M
;
_chemical_formula_sum "Si O2"
_cell_formula_units_Z 72
_cell_length_a 29.221196
_cell_length_b 8.948915
_cell_length_c 13.985713
_cell_angle_alpha 90.000000
_cell_angle_beta 90.000000
_cell_angle_gamma 90.000000
_cell_volume 3657.235967
_symmetry_space_group_name_H-M "I M M M"
_symmetry_group_IT_number 71
_symmetry_cell_setting 'orthorhombic'
loop_
_space_group_symop_operation_xyz
x,y,z
-x,-y,z
x,-y,-z
-x,y,-z
-x,-y,-z
x,y,-z
-x,y,z
x,-y,z
1/2+x,1/2+y,1/2+z
1/2-x,1/2-y,1/2+z
1/2+x,1/2-y,1/2-z
1/2-x,1/2+y,1/2-z
1/2-x,1/2-y,1/2-z
1/2+x,1/2+y,1/2-z
1/2-x,1/2+y,1/2+z
1/2+x,1/2-y,1/2+z
loop_
_atom_site_type_symbol
_atom_site_label
_atom_site_fract_x
_atom_site_fract_y
_atom_site_fract_z
Si Si1 0.587637 0.822991 0.213070
Si Si2 0.871326 0.176360 0.887362
Si Si3 0.000000 0.178931 0.387355
Si Si4 0.276665 0.828041 0.616409
Si Si5 0.674647 0.322999 0.885041
O O1 0.593827 0.766041 0.321366
O O2 0.544870 0.745781 0.162090
O O3 0.633975 0.769559 0.160751
O O4 0.583110 0.000000 0.209135
O O5 0.819825 0.226460 0.859130
O O6 0.876474 0.000000 0.872025
O O7 0.876964 0.208016 0.000000
O O8 0.000000 0.215776 0.500000
O O9 0.000000 0.000000 0.378018
O O10 0.275079 0.831670 0.500000
O O11 0.225953 0.777021 0.646266
O O12 0.284107 0.000000 0.647922
O O13 0.669432 0.500000 0.863059
O O14 0.672125 0.308630 0.000000
#
# Coordination Sequence:
#
# PCOD9523372 Si02
#       5
#    16  16   8  16  16
#     4  12  25  39  60  89 119 152 192 240 292 348
#     4  10  21  38  60  85 116 156 200 244 289 341
#     4  11  25  47  72  93 118 151 185 230 288 345
#     4   8  15  30  53  81 115 155 197 242 291 340
#     4   9  18  34  56  83 118 159 200 242 290 346
#
# _framework density 19.686997999999999
#
# number of rings (size 3 to 8) (size 9 to 14) (size 15 to 20)
#    0.000    2.111    0.000    5.000    0.000    7.111 
#    0.000    2.778    0.000    3.333    0.000    0.000 
#    0.000    0.000    0.000    0.000    0.000    0.000 
#
# Total GULP energy -201235.060288 kJ/mol
# GULP energy per Si atom -5589.862786 kJ/mol
# Density = 1.964219 g / cm^3
# Si number density = 19.686998 Si / 1000 Ang^3
#
#
#
# Elastic Constant Matrix: (Units=GPa)
#
#
# Indices 1 2 3 4 5 6 
#
# 1 123.7230 69.4678 67.5148 0.0000 0.0000 0.0000
# 2 69.4678 98.1004 56.0530 0.0000 0.0000 0.0000
# 3 67.5148 56.0530 97.8568 0.0000 0.0000 0.0000
# 4 0.0000 0.0000 0.0000 25.0081 0.0000 0.0000
# 5 0.0000 0.0000 0.0000 0.0000 33.7533 0.0000
# 6 0.0000 0.0000 0.0000 0.0000 0.0000 31.8771
#
#
#
# Elastic Compliance Matrix: (Units=1/GPa)
#
#
# Indices 1 2 3 4 5 6 
#
# 1 0.015931 -0.007434 -0.006733 0.000000 0.000000 0.000000
# 2 -0.007434 0.018622 -0.005538 0.000000 0.000000 0.000000
# 3 -0.006733 -0.005538 0.018036 0.000000 0.000000 0.000000
# 4 0.000000 0.000000 0.000000 0.039987 0.000000 0.000000
# 5 0.000000 0.000000 0.000000 0.000000 0.029627 0.000000
# 6 0.000000 0.000000 0.000000 0.000000 0.000000 0.031370
#
#
# Mechanical properties :
#
#
# Convention : Reuss Voigt Hill
#
# Bulk Modulus (GPa) = 75.87442 78.41681 77.14561
# Shear Modulus (GPa) = 25.33234 26.57068 25.95151
#
# Velocity S-wave (km/s) = 3.59103 3.67775 3.63465
# Velocity P-wave (km/s) = 7.47115 7.61267 7.54224
#
# Compressibility (1/GPa) = 0.01317967
#
# Stress axis : x y z
#
# Youngs Moduli (GPa) = 62.77212 53.69968 55.44323
#
# Poissons Ratio (x) = 0.39920 0.37330
# Poissons Ratio (y) = 0.46664 0.30704
# Poissons Ratio (z) = 0.42264 0.29739
#
# Static dielectric constant tensor:
#      x y z
#    x 1.662620 0.000000 0.000000 
#    y 0.000000 1.655180 0.000000 
#    z 0.000000 0.000000 1.735660 
# 
# From -- ./inp_files/6030.got.cif
#   From: 2010.05.17/outbox.cif.g08.bks.cpg/sg71_4_cif.got.tgz:6030.got - 2010.06.03 16:22:01.
