data_PCOD9523353
_publ_section_title
;
Structure prediction by ZEFSAII (Michael W. Deem and Ramdas Pophale) SiO2 
 PCOD9523353
Probable space group: I M M M
;
_chemical_formula_sum "Si O2"
_cell_formula_units_Z 72
_cell_length_a 8.697453
_cell_length_b 30.484749
_cell_length_c 14.858648
_cell_angle_alpha 90.000000
_cell_angle_beta 90.000000
_cell_angle_gamma 90.000000
_cell_volume 3939.617052
_symmetry_space_group_name_H-M "I M M M"
_symmetry_group_IT_number 71
_symmetry_cell_setting 'orthorhombic'
loop_
_space_group_symop_operation_xyz
x,y,z
-x,-y,z
x,-y,-z
-x,y,-z
-x,-y,-z
x,y,-z
-x,y,z
x,-y,z
1/2+x,1/2+y,1/2+z
1/2-x,1/2-y,1/2+z
1/2+x,1/2-y,1/2-z
1/2-x,1/2+y,1/2-z
1/2-x,1/2-y,1/2-z
1/2+x,1/2+y,1/2-z
1/2-x,1/2+y,1/2+z
1/2+x,1/2-y,1/2+z
loop_
_atom_site_type_symbol
_atom_site_label
_atom_site_fract_x
_atom_site_fract_y
_atom_site_fract_z
Si Si1 0.816420 0.551355 0.809367
Si Si2 0.184521 0.873201 0.193695
Si Si3 0.186839 0.263215 0.000000
Si Si4 0.312867 0.661453 0.500000
Si Si5 0.685322 0.208215 0.303782
Si Si6 0.177582 0.053338 0.500000
O O1 0.774376 0.500000 0.800015
O O2 0.742817 0.580876 0.732298
O O3 0.758564 0.567140 0.907569
O O4 0.000000 0.554875 0.806704
O O5 0.235239 0.862359 0.091746
O O6 0.250750 0.835244 0.257617
O O7 0.000000 0.871745 0.196328
O O8 0.238002 0.212310 0.000000
O O9 0.233978 0.286555 0.907852
O O10 0.000000 0.262297 0.000000
O O11 0.500000 0.662208 0.500000
O O12 0.500000 0.208501 0.299747
O O13 0.750000 0.250000 0.250000
O O14 0.000000 0.066834 0.500000
O O15 0.183390 0.000000 0.500000
#
# Coordination Sequence:
#
# PCOD9523353 Si02
#       6
#    16  16   8   8  16   8
#     4  10  21  38  59  85 119 155 190 234 291 348
#     4  11  22  38  60  84 113 149 195 244 289 346
#     4   9  18  35  57  79 112 152 188 226 281 342
#     4   9  18  36  58  80 108 150 194 235 289 344
#     4  11  21  36  57  82 112 148 188 233 286 344
#     4   9  17  32  57  86 113 146 188 230 276 335
#
# _framework density 18.275887000000001
#
# number of rings (size 3 to 8) (size 9 to 14) (size 15 to 20)
#    0.000    1.889    2.222    2.333    0.000    3.556 
#    0.000    9.444    0.000    3.333    0.000    0.000 
#    0.000    0.000    0.000    0.000    0.000    0.000 
#
# Total GULP energy -201026.388075 kJ/mol
# GULP energy per Si atom -5584.066335 kJ/mol
# Density = 1.823429 g / cm^3
# Si number density = 18.275887 Si / 1000 Ang^3
#
#
#
# Elastic Constant Matrix: (Units=GPa)
#
#
# Indices 1 2 3 4 5 6 
#
# 1 51.9808 38.2055 45.5549 0.0000 0.0000 0.0000
# 2 38.2055 87.9399 78.7229 0.0001 0.0000 0.0000
# 3 45.5549 78.7229 197.3336 0.0002 0.0000 0.0000
# 4 0.0000 0.0001 0.0002 25.3053 0.0000 0.0000
# 5 0.0000 0.0000 0.0000 0.0000 25.4252 0.0000
# 6 0.0000 0.0000 0.0000 0.0000 0.0000 31.9109
#
#
#
# Elastic Compliance Matrix: (Units=1/GPa)
#
#
# Indices 1 2 3 4 5 6 
#
# 1 0.029098 -0.010310 -0.002604 0.000000 0.000000 0.000000
# 2 -0.010310 0.021342 -0.006134 0.000000 0.000000 0.000000
# 3 -0.002604 -0.006134 0.008116 0.000000 0.000000 0.000000
# 4 0.000000 0.000000 0.000000 0.039517 0.000000 0.000000
# 5 0.000000 0.000000 0.000000 0.000000 0.039331 0.000000
# 6 0.000000 0.000000 0.000000 0.000000 0.000000 0.031337
#
#
# Mechanical properties :
#
#
# Convention : Reuss Voigt Hill
#
# Bulk Modulus (GPa) = 48.87870 73.58010 61.22940
# Shear Modulus (GPa) = 23.40193 28.17968 25.79080
#
# Velocity S-wave (km/s) = 3.58226 3.93097 3.76066
# Velocity P-wave (km/s) = 6.62670 7.80715 7.24102
#
# Compressibility (1/GPa) = 0.02045881
#
# Stress axis : x y z
#
# Youngs Moduli (GPa) = 34.36632 46.85686 123.21842
#
# Poissons Ratio (x) = 0.48312 0.32089
# Poissons Ratio (y) = 0.35433 0.75578
# Poissons Ratio (z) = 0.08950 0.28740
#
# Static dielectric constant tensor:
#      x y z
#    x 1.617750 0.000000 0.000000 
#    y 0.000000 1.620040 0.000000 
#    z 0.000000 0.000000 1.622540 
# 
# From -- ./inp_files/6197.got.cif
#   From: 2010.05.17/outbox.cif.g08.bks.cpg/sg71_4_cif.got.tgz:6197.got - 2010.06.03 16:22:01.
