data_PCOD9523402
_publ_section_title
;
Structure prediction by ZEFSAII (Michael W. Deem and Ramdas Pophale) SiO2 
 PCOD9523402
Probable space group: I M M M
;
_chemical_formula_sum "Si O2"
_cell_formula_units_Z 72
_cell_length_a 24.351007
_cell_length_b 8.482685
_cell_length_c 18.195149
_cell_angle_alpha 90.000000
_cell_angle_beta 90.000000
_cell_angle_gamma 90.000000
_cell_volume 3758.424945
_symmetry_space_group_name_H-M "I M M M"
_symmetry_group_IT_number 71
_symmetry_cell_setting 'orthorhombic'
loop_
_space_group_symop_operation_xyz
x,y,z
-x,-y,z
x,-y,-z
-x,y,-z
-x,-y,-z
x,y,-z
-x,y,z
x,-y,z
1/2+x,1/2+y,1/2+z
1/2-x,1/2-y,1/2+z
1/2+x,1/2-y,1/2-z
1/2-x,1/2+y,1/2-z
1/2-x,1/2-y,1/2-z
1/2+x,1/2+y,1/2-z
1/2-x,1/2+y,1/2+z
1/2+x,1/2-y,1/2+z
loop_
_atom_site_type_symbol
_atom_site_label
_atom_site_fract_x
_atom_site_fract_y
_atom_site_fract_z
Si Si1 0.628249 0.810523 0.644149
Si Si2 0.752011 0.812414 0.833355
Si Si3 0.436397 0.690879 0.787124
Si Si4 0.355727 0.309466 0.084129
Si Si5 0.562276 0.192155 0.500000
O O1 0.689223 0.742846 0.637047
O O2 0.598403 0.753158 0.718159
O O3 0.593126 0.759318 0.573745
O O4 0.631319 0.000000 0.646006
O O5 0.750000 0.750000 0.750000
O O6 0.701309 0.746065 0.880026
O O7 0.748717 0.000000 0.832394
O O8 0.500000 0.742414 0.784320
O O9 0.435769 0.500000 0.784459
O O10 0.405085 0.740211 0.861694
O O11 0.355446 0.500000 0.083341
O O12 0.361431 0.254511 0.000000
O O13 0.500000 0.248426 0.500000
O O14 0.561555 0.000000 0.500000
#
# Coordination Sequence:
#
# PCOD9523402 Si02
#       5
#    16  16  16  16   8
#     4  11  22  38  62  90 119 160 205 250 304 362
#     4  12  24  40  62  89 120 156 200 251 307 362
#     4  10  21  38  61  89 121 159 203 251 301 359
#     4  10  22  40  62  89 124 165 205 247 299 360
#     4   9  20  38  59  87 123 161 202 245 292 355
#
# _framework density 19.156960999999999
#
# number of rings (size 3 to 8) (size 9 to 14) (size 15 to 20)
#    0.000    1.444    2.222    3.333    1.556    2.222 
#    0.000    3.889    0.000    4.000    0.000    3.111 
#    0.000    0.000    0.000    0.000    0.000    0.000 
#
# Total GULP energy -201214.597417 kJ/mol
# GULP energy per Si atom -5589.294373 kJ/mol
# Density = 1.911336 g / cm^3
# Si number density = 19.156961 Si / 1000 Ang^3
#
#
#
# Elastic Constant Matrix: (Units=GPa)
#
#
# Indices 1 2 3 4 5 6 
#
# 1 108.9417 9.3697 28.3671 0.0000 0.0000 0.0000
# 2 9.3697 24.3153 15.2587 0.0000 0.0000 0.0000
# 3 28.3671 15.2587 123.9438 0.0000 0.0000 0.0000
# 4 0.0000 0.0000 0.0000 22.3780 0.0000 0.0000
# 5 0.0000 0.0000 0.0000 0.0000 32.9341 0.0000
# 6 0.0000 0.0000 0.0000 0.0000 0.0000 27.1983
#
#
#
# Elastic Compliance Matrix: (Units=1/GPa)
#
#
# Indices 1 2 3 4 5 6 
#
# 1 0.009910 -0.002596 -0.001948 0.000000 0.000000 0.000000
# 2 -0.002596 0.045250 -0.004977 0.000000 0.000000 0.000000
# 3 -0.001948 -0.004977 0.009127 0.000000 0.000000 0.000000
# 4 0.000000 0.000000 0.000000 0.044687 0.000000 0.000000
# 5 0.000000 0.000000 0.000000 0.000000 0.030364 0.000000
# 6 0.000000 0.000000 0.000000 0.000000 0.000000 0.036767
#
#
# Mechanical properties :
#
#
# Convention : Reuss Voigt Hill
#
# Bulk Modulus (GPa) = 22.10220 40.35464 31.22842
# Shear Modulus (GPa) = 23.78382 30.11578 26.94980
#
# Velocity S-wave (km/s) = 3.52735 3.96922 3.75479
# Velocity P-wave (km/s) = 5.30585 6.48978 5.92745
#
# Compressibility (1/GPa) = 0.04524436
#
# Stress axis : x y z
#
# Youngs Moduli (GPa) = 100.90965 22.09962 109.56765
#
# Poissons Ratio (x) = 0.05737 0.21349
# Poissons Ratio (y) = 0.26196 0.54527
# Poissons Ratio (z) = 0.19662 0.10998
#
# Static dielectric constant tensor:
#      x y z
#    x 1.654870 0.000000 0.000000 
#    y 0.000000 1.660650 0.000000 
#    z 0.000000 0.000000 1.641080 
# 
# From -- ./inp_files/7935.got.cif
#   From: 2010.05.17/outbox.cif.g08.bks.cpg/sg71_4_cif.got.tgz:7935.got - 2010.06.03 16:22:01.
