data_PCOD9523091
_publ_section_title
;
Structure prediction by ZEFSAII (Michael W. Deem and Ramdas Pophale) SiO2 
 PCOD9523091
Probable space group: I M M M
;
_chemical_formula_sum "Si O2"
_cell_formula_units_Z 68
_cell_length_a 28.978123
_cell_length_b 7.657417
_cell_length_c 16.066944
_cell_angle_alpha 90.000000
_cell_angle_beta 90.000000
_cell_angle_gamma 90.000000
_cell_volume 3565.215858
_symmetry_space_group_name_H-M "I M M M"
_symmetry_group_IT_number 71
_symmetry_cell_setting 'orthorhombic'
loop_
_space_group_symop_operation_xyz
x,y,z
-x,-y,z
x,-y,-z
-x,y,-z
-x,-y,-z
x,y,-z
-x,y,z
x,-y,z
1/2+x,1/2+y,1/2+z
1/2-x,1/2-y,1/2+z
1/2+x,1/2-y,1/2-z
1/2-x,1/2+y,1/2-z
1/2-x,1/2-y,1/2-z
1/2+x,1/2+y,1/2-z
1/2-x,1/2+y,1/2+z
1/2+x,1/2-y,1/2+z
loop_
_atom_site_type_symbol
_atom_site_label
_atom_site_fract_x
_atom_site_fract_y
_atom_site_fract_z
Si Si1 0.552794 0.792964 0.214792
Si Si2 0.052479 0.000000 0.853348
Si Si3 0.132773 0.706195 0.593224
Si Si4 0.374352 0.500000 0.500000
Si Si5 0.703961 0.787242 0.500000
Si Si6 0.732719 0.293093 0.842534
O O1 0.500000 0.775744 0.183973
O O2 0.557006 0.671161 0.295321
O O3 0.590207 0.728835 0.148045
O O4 0.560394 0.000000 0.232881
O O5 0.092167 0.000000 0.920956
O O6 0.000000 0.000000 0.887656
O O7 0.135860 0.781318 0.500000
O O8 0.124479 0.500000 0.585208
O O9 0.181388 0.726551 0.639474
O O10 0.342024 0.328224 0.500000
O O11 0.733262 0.737062 0.582624
O O12 0.696857 0.000000 0.500000
O O13 0.730395 0.500000 0.849101
O O14 0.750000 0.250000 0.750000
#
# Coordination Sequence:
#
# PCOD9523091 Si02
#       6
#    16   8  16   4   8  16
#     4   9  20  39  62  90 126 161 200 253 307 364
#     4  10  23  44  65  94 123 157 208 256 311 376
#     4  10  21  36  59  88 119 158 203 246 298 368
#     4  12  27  40  72  86 124 166 201 262 318 362
#     4  10  26  45  59  93 129 161 207 260 305 371
#     4  11  24  40  60  84 120 162 204 255 309 367
#
# _framework density 19.073177999999999
#
# number of rings (size 3 to 8) (size 9 to 14) (size 15 to 20)
#    0.000    1.882    1.176    0.882    8.235    1.412 
#    0.000    2.353    0.000    5.647    0.000    0.000 
#    0.000    0.000    0.000    0.000    0.000    0.000 
#
# Total GULP energy -189761.415629 kJ/mol
# GULP energy per Si atom -5581.218107 kJ/mol
# Density = 1.902977 g / cm^3
# Si number density = 19.073178 Si / 1000 Ang^3
#
#
#
# Elastic Constant Matrix: (Units=GPa)
#
#
# Indices 1 2 3 4 5 6 
#
# 1 173.2345 40.7549 101.9399 0.0000 0.0000 0.0000
# 2 40.7549 61.8382 28.7435 0.0000 0.0000 0.0000
# 3 101.9399 28.7435 140.1560 0.0000 0.0000 0.0000
# 4 0.0000 0.0000 0.0000 19.3061 0.0000 0.0000
# 5 0.0000 0.0000 0.0000 0.0000 40.4011 0.0000
# 6 0.0000 0.0000 0.0000 0.0000 0.0000 29.3746
#
#
#
# Elastic Compliance Matrix: (Units=1/GPa)
#
#
# Indices 1 2 3 4 5 6 
#
# 1 0.010864 -0.003855 -0.007111 0.000000 0.000000 0.000000
# 2 -0.003855 0.019243 -0.001143 0.000000 0.000000 0.000000
# 3 -0.007111 -0.001143 0.012541 0.000000 0.000000 0.000000
# 4 0.000000 0.000000 0.000000 0.051797 0.000000 0.000000
# 5 0.000000 0.000000 0.000000 0.000000 0.024752 0.000000
# 6 0.000000 0.000000 0.000000 0.000000 0.000000 0.034043
#
#
# Mechanical properties :
#
#
# Convention : Reuss Voigt Hill
#
# Bulk Modulus (GPa) = 54.25616 79.78950 67.02283
# Shear Modulus (GPa) = 27.23301 31.40239 29.31770
#
# Velocity S-wave (km/s) = 3.78275 4.06201 3.92486
# Velocity P-wave (km/s) = 6.89833 7.99525 7.46696
#
# Compressibility (1/GPa) = 0.01843109
#
# Stress axis : x y z
#
# Youngs Moduli (GPa) = 92.04797 51.96751 79.73560
#
# Poissons Ratio (x) = 0.20031 0.56701
# Poissons Ratio (y) = 0.35480 0.09112
# Poissons Ratio (z) = 0.65457 0.05939
#
# Static dielectric constant tensor:
#      x y z
#    x 1.620620 0.000000 0.000000 
#    y 0.000000 1.661950 0.000000 
#    z 0.000000 0.000000 1.676080 
# 
# From -- ./inp_files/46872.got.cif
#   From: 2010.05.17/outbox.cif.g08.bks.cpg/sg71_24_cif.got.tgz:46872.got - 2010.06.03 16:22:01.
