data_PCOD9523536
_publ_section_title
;
Structure prediction by ZEFSAII (Michael W. Deem and Ramdas Pophale) SiO2 
 PCOD9523536
Probable space group: I M M M
;
_chemical_formula_sum "Si O2"
_cell_formula_units_Z 90
_cell_length_a 8.843649
_cell_length_b 24.348014
_cell_length_c 23.322307
_cell_angle_alpha 90.000000
_cell_angle_beta 90.000000
_cell_angle_gamma 90.000000
_cell_volume 5021.882510
_symmetry_space_group_name_H-M "I M M M"
_symmetry_group_IT_number 71
_symmetry_cell_setting 'orthorhombic'
loop_
_space_group_symop_operation_xyz
x,y,z
-x,-y,z
x,-y,-z
-x,y,-z
-x,-y,-z
x,y,-z
-x,y,z
x,-y,z
1/2+x,1/2+y,1/2+z
1/2-x,1/2-y,1/2+z
1/2+x,1/2-y,1/2-z
1/2-x,1/2+y,1/2-z
1/2-x,1/2-y,1/2-z
1/2+x,1/2+y,1/2-z
1/2-x,1/2+y,1/2+z
1/2+x,1/2-y,1/2+z
loop_
_atom_site_type_symbol
_atom_site_label
_atom_site_fract_x
_atom_site_fract_y
_atom_site_fract_z
Si Si1 0.682442 0.859198 0.379475
Si Si2 0.500000 0.500000 0.000000
Si Si3 0.819097 0.751857 0.813536
Si Si4 0.679197 0.866641 0.834872
Si Si5 0.333922 0.385466 0.000000
Si Si6 0.315882 0.936974 0.723628
Si Si7 0.822853 0.065534 0.066145
O O1 0.500000 0.860158 0.382590
O O2 0.727226 0.801166 0.350759
O O3 0.748851 0.868832 0.442114
O O4 0.730835 0.907024 0.335016
O O5 0.370523 0.549392 0.000000
O O6 0.750000 0.750000 0.750000
O O7 0.763228 0.808880 0.839808
O O8 0.000000 0.750683 0.809020
O O9 0.500000 0.857175 0.829565
O O10 0.730081 0.899955 0.777937
O O11 0.718293 0.903415 0.889436
O O12 0.500000 0.358187 0.000000
O O13 0.500000 0.937976 0.724248
O O14 0.263454 0.000000 0.727737
O O15 0.000000 0.078067 0.077555
O O16 0.804560 0.000000 0.071991
O O17 0.791203 0.079926 0.000000
#
# Coordination Sequence:
#
# PCOD9523536 Si02
#       7
#    16   2  16  16   8  16  16
#     4  10  21  40  63  86 115 158 207 246 290 361
#     4   8  24  44  62  88 136 156 190 252 320 380
#     4  11  22  39  62  87 117 154 198 245 298 355
#     4  11  21  36  57  86 121 154 197 244 295 358
#     4  10  23  41  61  87 123 156 193 248 306 358
#     4   9  18  32  54  85 118 149 185 236 289 344
#     4   9  19  37  59  83 116 157 198 240 292 353
#
# _framework density 17.921565999999999
#
# number of rings (size 3 to 8) (size 9 to 14) (size 15 to 20)
#    0.267    1.778    1.778    2.400    1.244    2.844 
#    1.600    1.333    0.000    1.067    0.000    0.000 
#    0.000    0.000    0.000    0.000    0.000    0.000 
#
# Total GULP energy -250821.262109 kJ/mol
# GULP energy per Si atom -5573.805825 kJ/mol
# Density = 1.788078 g / cm^3
# Si number density = 17.921566 Si / 1000 Ang^3
#
#
#
# Elastic Constant Matrix: (Units=GPa)
#
#
# Indices 1 2 3 4 5 6 
#
# 1 32.8178 32.7234 33.0264 0.0000 0.0000 0.0000
# 2 32.7234 121.6174 61.3081 0.0000 0.0000 0.0000
# 3 33.0264 61.3081 103.5846 0.0000 0.0000 0.0000
# 4 0.0000 0.0000 0.0000 20.0030 0.0000 0.0000
# 5 0.0000 0.0000 0.0000 0.0000 29.6814 0.0000
# 6 0.0000 0.0000 0.0000 0.0000 0.0000 28.6493
#
#
#
# Elastic Compliance Matrix: (Units=1/GPa)
#
#
# Indices 1 2 3 4 5 6 
#
# 1 0.049375 -0.007624 -0.011230 0.000000 0.000000 0.000000
# 2 -0.007624 0.012896 -0.005202 0.000000 0.000000 0.000000
# 3 -0.011230 -0.005202 0.016313 0.000000 0.000000 0.000000
# 4 0.000000 0.000000 0.000000 0.049993 0.000000 0.000000
# 5 0.000000 0.000000 0.000000 0.000000 0.033691 0.000000
# 6 0.000000 0.000000 0.000000 0.000000 0.000000 0.034905
#
#
# Mechanical properties :
#
#
# Convention : Reuss Voigt Hill
#
# Bulk Modulus (GPa) = 32.81679 56.90395 44.86037
# Shear Modulus (GPa) = 19.57387 24.39753 21.98570
#
# Velocity S-wave (km/s) = 3.30842 3.69365 3.50633
# Velocity P-wave (km/s) = 5.73980 7.07187 6.44037
#
# Compressibility (1/GPa) = 0.03047221
#
# Stress axis : x y z
#
# Youngs Moduli (GPa) = 20.25325 77.54171 61.29938
#
# Poissons Ratio (x) = 0.59118 0.68839
# Poissons Ratio (y) = 0.15441 0.31888
# Poissons Ratio (z) = 0.22744 0.40337
#
# Static dielectric constant tensor:
#      x y z
#    x 1.618740 0.000000 0.000000 
#    y 0.000000 1.613840 0.000000 
#    z 0.000000 0.000000 1.599950 
# 
# From -- ./inp_files/57622.got.cif
#   From: 2010.05.17/outbox.cif.g08.bks.cpg/sg71_29_cif.got.tgz:57622.got - 2010.06.03 16:22:01.
