data_PCOD9523053
_publ_section_title
;
Structure prediction by ZEFSAII (Michael W. Deem and Ramdas Pophale) SiO2 
 PCOD9523053
Probable space group: I M M M
;
_chemical_formula_sum "Si O2"
_cell_formula_units_Z 90
_cell_length_a 24.987816
_cell_length_b 23.021414
_cell_length_c 7.656523
_cell_angle_alpha 90.000000
_cell_angle_beta 90.000000
_cell_angle_gamma 90.000000
_cell_volume 4404.452044
_symmetry_space_group_name_H-M "I M M M"
_symmetry_group_IT_number 71
_symmetry_cell_setting 'orthorhombic'
loop_
_space_group_symop_operation_xyz
x,y,z
-x,-y,z
x,-y,-z
-x,y,-z
-x,-y,-z
x,y,-z
-x,y,z
x,-y,z
1/2+x,1/2+y,1/2+z
1/2-x,1/2-y,1/2+z
1/2+x,1/2-y,1/2-z
1/2-x,1/2+y,1/2-z
1/2-x,1/2-y,1/2-z
1/2+x,1/2+y,1/2-z
1/2-x,1/2+y,1/2+z
1/2+x,1/2-y,1/2+z
loop_
_atom_site_type_symbol
_atom_site_label
_atom_site_fract_x
_atom_site_fract_y
_atom_site_fract_z
Si Si1 0.000000 0.210119 0.708437
Si Si2 0.500000 0.156778 0.208213
Si Si3 0.595756 0.500000 0.289175
Si Si4 0.701492 0.935256 0.293435
Si Si5 0.000000 0.000000 0.500000
Si Si6 0.116869 0.656762 0.207774
Si Si7 0.679389 0.602914 0.290114
Si Si8 0.116815 0.788917 0.207532
O O1 0.943073 0.185518 0.765981
O O2 0.000000 0.210314 0.500000
O O3 0.000000 0.276594 0.776965
O O4 0.443010 0.132107 0.265055
O O5 0.500000 0.158774 0.000000
O O6 0.582392 0.500000 0.500000
O O7 0.633650 0.555670 0.253561
O O8 0.546693 0.500000 0.155854
O O9 0.689726 0.938720 0.500000
O O10 0.661647 0.886404 0.219923
O O11 0.762986 0.916601 0.275658
O O12 0.694322 0.000000 0.218999
O O13 0.119008 0.723054 0.279854
O O14 0.124919 0.662014 0.000000
O O15 0.683810 0.606043 0.500000
O O16 0.659727 0.665507 0.222363
O O17 0.124739 0.784941 0.000000
#
# Coordination Sequence:
#
# PCOD9523053 Si02
#       8
#     8   8   8  16   2  16  16  16
#     4   9  17  30  48  76 107 138 175 216 267 325
#     4   9  17  31  53  79 111 142 170 216 270 326
#     4  10  23  43  61  86 121 158 207 252 301 353
#     4  10  21  36  57  80 106 141 188 232 276 337
#     4  12  26  40  68  90 120 164 206 262 306 342
#     4   9  18  34  55  81 109 143 181 223 276 341
#     4  10  21  37  57  78 108 148 188 236 285 339
#     4   9  18  33  53  76 106 142 180 222 280 340
#
# _framework density 20.433869999999999
#
# number of rings (size 3 to 8) (size 9 to 14) (size 15 to 20)
#    0.000    2.489    0.889    0.667    1.244    4.978 
#    1.600    3.111    0.000    2.667    0.000    0.000 
#    0.000    0.000    0.000    0.000    0.000    0.000 
#
# Total GULP energy -250668.854557 kJ/mol
# GULP energy per Si atom -5570.418990 kJ/mol
# Density = 2.038736 g / cm^3
# Si number density = 20.433870 Si / 1000 Ang^3
#
#
#
# Elastic Constant Matrix: (Units=GPa)
#
#
# Indices 1 2 3 4 5 6 
#
# 1 105.0862 70.7597 18.3170 0.0000 0.0000 0.0000
# 2 70.7597 114.0503 18.5771 0.0000 0.0000 0.0000
# 3 18.3170 18.5771 52.0982 0.0000 0.0000 0.0000
# 4 0.0000 0.0000 0.0000 5.5448 0.0000 0.0000
# 5 0.0000 0.0000 0.0000 0.0000 19.6704 0.0000
# 6 0.0000 0.0000 0.0000 0.0000 0.0000 -3.2413
#
#
#
# Elastic Compliance Matrix: (Units=1/GPa)
#
#
# Indices 1 2 3 4 5 6 
#
# 1 0.016599 -0.009924 -0.002297 0.000000 0.000000 0.000000
# 2 -0.009924 0.015242 -0.001946 0.000000 0.000000 0.000000
# 3 -0.002297 -0.001946 0.020696 0.000000 0.000000 0.000000
# 4 0.000000 0.000000 0.000000 0.180349 0.000000 0.000000
# 5 0.000000 0.000000 0.000000 0.000000 0.050838 0.000000
# 6 0.000000 0.000000 0.000000 0.000000 0.000000 -0.308517
#
#
# Mechanical properties :
#
#
# Convention : Reuss Voigt Hill
#
# Bulk Modulus (GPa) = 41.31769 54.06026 47.68898
# Shear Modulus (GPa) = 430.67885 15.30017 222.98951
#
# Velocity S-wave (km/s) = 14.53357 2.73933 10.45774
# Velocity P-wave (km/s) = 17.37518 6.04308 13.00800
#
# Compressibility (1/GPa) = 0.02420271
#
# Stress axis : x y z
#
# Youngs Moduli (GPa) = 60.24522 65.60725 48.31842
#
# Poissons Ratio (x) = 0.65110 0.11099
# Poissons Ratio (y) = 0.59788 0.09402
# Poissons Ratio (z) = 0.13839 0.12766
#
# Static dielectric constant tensor:
#      x y z
#    x 1.715780 0.000000 0.000000 
#    y 0.000000 1.769660 0.000000 
#    z 0.000000 0.000000 1.744970 
# 
# From -- ./inp_files/12664.got.cif
#   From: 2010.05.17/outbox.cif.g08.bks.cpg/sg71_7_cif.got.tgz:12664.got - 2010.06.03 16:22:01.
