data_PCOD9523627
_publ_section_title
;
Structure prediction by ZEFSAII (Michael W. Deem and Ramdas Pophale) SiO2 
 PCOD9523627
Probable space group: I M M M
;
_chemical_formula_sum "Si O2"
_cell_formula_units_Z 58
_cell_length_a 17.358147
_cell_length_b 16.844150
_cell_length_c 11.656528
_cell_angle_alpha 90.000000
_cell_angle_beta 90.000000
_cell_angle_gamma 90.000000
_cell_volume 3408.173328
_symmetry_space_group_name_H-M "I M M M"
_symmetry_group_IT_number 71
_symmetry_cell_setting 'orthorhombic'
loop_
_space_group_symop_operation_xyz
x,y,z
-x,-y,z
x,-y,-z
-x,y,-z
-x,-y,-z
x,y,-z
-x,y,z
x,-y,z
1/2+x,1/2+y,1/2+z
1/2-x,1/2-y,1/2+z
1/2+x,1/2-y,1/2-z
1/2-x,1/2+y,1/2-z
1/2-x,1/2-y,1/2-z
1/2+x,1/2+y,1/2-z
1/2-x,1/2+y,1/2+z
1/2+x,1/2-y,1/2+z
loop_
_atom_site_type_symbol
_atom_site_label
_atom_site_fract_x
_atom_site_fract_y
_atom_site_fract_z
Si Si1 0.911502 0.094350 0.000000
Si Si2 0.000000 0.000000 0.500000
Si Si3 0.000000 0.835192 0.625602
Si Si4 0.800682 0.647449 0.861956
Si Si5 0.910783 0.500000 0.138986
Si Si6 0.850254 0.821470 0.777116
O O1 0.870407 0.125702 0.113418
O O2 0.000000 0.123988 0.000000
O O3 0.912584 0.000000 0.000000
O O4 0.000000 0.929227 0.597853
O O5 0.075778 0.815045 0.696038
O O6 0.000000 0.795461 0.500000
O O7 0.861421 0.578362 0.829454
O O8 0.830314 0.734097 0.824699
O O9 0.719604 0.640811 0.795819
O O10 0.789641 0.644246 0.000000
O O11 0.000000 0.500000 0.179870
O O12 0.914330 0.500000 0.000000
#
# Coordination Sequence:
#
# PCOD9523627 Si02
#       6
#     8   2   8  16   8  16
#     4  11  24  36  57  87 120 161 201 235 303 378
#     4   8  24  36  52  90 120 138 214 228 294 360
#     4  10  22  37  58  85 116 163 186 248 299 364
#     4  10  22  39  59  90 117 155 206 258 299 359
#     4   9  20  37  61  87 113 151 204 254 299 343
#     4  11  22  38  60  85 124 160 197 247 307 363
#
# _framework density 17.017914999999999
#
# number of rings (size 3 to 8) (size 9 to 14) (size 15 to 20)
#    0.414    1.379    2.759    0.828    5.793    0.000 
#    2.483    0.000    0.000    0.000    0.000    1.931 
#    0.000    0.000    0.000    0.000    0.000    0.000 
#
# Total GULP energy -161446.341744 kJ/mol
# GULP energy per Si atom -5567.115233 kJ/mol
# Density = 1.697918 g / cm^3
# Si number density = 17.017915 Si / 1000 Ang^3
#
#
#
# Elastic Constant Matrix: (Units=GPa)
#
#
# Indices 1 2 3 4 5 6 
#
# 1 167.1585 56.2061 79.6205 0.0000 0.0000 0.0000
# 2 56.2061 70.5016 35.0339 0.0000 0.0000 0.0000
# 3 79.6205 35.0339 128.3609 0.0000 0.0000 0.0000
# 4 0.0000 0.0000 0.0000 21.4474 0.0000 0.0000
# 5 0.0000 0.0000 0.0000 0.0000 7.2010 0.0000
# 6 0.0000 0.0000 0.0000 0.0000 0.0000 14.0687
#
#
#
# Elastic Compliance Matrix: (Units=1/GPa)
#
#
# Indices 1 2 3 4 5 6 
#
# 1 0.010176 -0.005757 -0.004741 0.000000 0.000000 0.000000
# 2 -0.005757 0.019667 -0.001797 0.000000 0.000000 0.000000
# 3 -0.004741 -0.001797 0.011222 0.000000 0.000000 0.000000
# 4 0.000000 0.000000 0.000000 0.046626 0.000000 0.000000
# 5 0.000000 0.000000 0.000000 0.000000 0.138870 0.000000
# 6 0.000000 0.000000 0.000000 0.000000 0.000000 0.071080
#
#
# Mechanical properties :
#
#
# Convention : Reuss Voigt Hill
#
# Bulk Modulus (GPa) = 60.69699 78.63800 69.66749
# Shear Modulus (GPa) = 15.25686 21.55410 18.40548
#
# Velocity S-wave (km/s) = 2.99744 3.56273 3.29224
# Velocity P-wave (km/s) = 6.90822 7.95194 7.44838
#
# Compressibility (1/GPa) = 0.01647528
#
# Stress axis : x y z
#
# Youngs Moduli (GPa) = 98.26774 50.84785 89.11350
#
# Poissons Ratio (x) = 0.29273 0.42248
# Poissons Ratio (y) = 0.56572 0.16011
# Poissons Ratio (z) = 0.46588 0.09136
#
# Static dielectric constant tensor:
#      x y z
#    x 1.584570 0.000000 0.000000 
#    y 0.000000 1.553980 0.000000 
#    z 0.000000 0.000000 1.561370 
# 
# From -- ./inp_files/23184.got.cif
#   From: 2010.05.17/outbox.cif.g08.bks.cpg/sg71_12_cif.got.tgz:23184.got - 2010.06.03 16:22:01.
