data_PCOD9523195
_publ_section_title
;
Structure prediction by ZEFSAII (Michael W. Deem and Ramdas Pophale) SiO2 
 PCOD9523195
Probable space group: I M M M
;
_chemical_formula_sum "Si O2"
_cell_formula_units_Z 96
_cell_length_a 13.579046
_cell_length_b 22.250668
_cell_length_c 13.915405
_cell_angle_alpha 90.000000
_cell_angle_beta 90.000000
_cell_angle_gamma 90.000000
_cell_volume 4204.440046
_symmetry_space_group_name_H-M "I M M M"
_symmetry_group_IT_number 71
_symmetry_cell_setting 'orthorhombic'
loop_
_space_group_symop_operation_xyz
x,y,z
-x,-y,z
x,-y,-z
-x,y,-z
-x,-y,-z
x,y,-z
-x,y,z
x,-y,z
1/2+x,1/2+y,1/2+z
1/2-x,1/2-y,1/2+z
1/2+x,1/2-y,1/2-z
1/2-x,1/2+y,1/2-z
1/2-x,1/2-y,1/2-z
1/2+x,1/2+y,1/2-z
1/2-x,1/2+y,1/2+z
1/2+x,1/2-y,1/2+z
loop_
_atom_site_type_symbol
_atom_site_label
_atom_site_fract_x
_atom_site_fract_y
_atom_site_fract_z
Si Si1 0.117738 0.565078 0.670832
Si Si2 0.881480 0.879909 0.109276
Si Si3 0.619710 0.760831 0.608353
Si Si4 0.289434 0.434475 0.205012
Si Si5 0.888689 0.178077 0.613062
Si Si6 0.118999 0.305430 0.314009
O O1 0.142828 0.500000 0.624314
O O2 0.173157 0.564425 0.773191
O O3 0.146872 0.631891 0.634607
O O4 0.000000 0.565956 0.678772
O O5 0.855902 0.809516 0.128226
O O6 0.835182 0.922592 0.189044
O O7 0.000000 0.884119 0.114555
O O8 0.852643 0.894530 0.000000
O O9 0.654373 0.777193 0.500000
O O10 0.500000 0.762499 0.604372
O O11 0.645714 0.800761 0.701102
O O12 0.320033 0.500000 0.168386
O O13 0.327112 0.379104 0.144477
O O14 0.897612 0.177940 0.500000
O O15 0.846055 0.242951 0.641352
O O16 0.000000 0.172626 0.655846
O O17 0.000000 0.303138 0.320874
#
# Coordination Sequence:
#
# PCOD9523195 Si02
#       6
#    16  16  16  16  16  16
#     4   9  20  39  62  86 112 149 197 248 298 341
#     4   9  17  31  52  82 121 153 179 222 281 346
#     4   8  13  24  47  79 112 144 175 211 266 337
#     4  11  22  36  57  82 115 158 198 236 282 341
#     4  10  21  37  57  85 120 154 192 236 283 343
#     4   9  16  32  59  82 109 149 187 233 291 343
#
# _framework density 22.833005
#
# number of rings (size 3 to 8) (size 9 to 14) (size 15 to 20)
#    0.000    2.667    1.667    1.500    0.000    2.667 
#    0.000    3.333    0.000    6.000    0.000   16.333 
#    0.000    0.000    0.000    0.000    0.000    0.000 
#
# Total GULP energy -267841.601078 kJ/mol
# GULP energy per Si atom -5580.033356 kJ/mol
# Density = 2.278104 g / cm^3
# Si number density = 22.833005 Si / 1000 Ang^3
#
#
#
# Elastic Constant Matrix: (Units=GPa)
#
#
# Indices 1 2 3 4 5 6 
#
# 1 55.5103 15.7974 -6.8065 0.0000 0.0000 0.0000
# 2 15.7974 184.5693 36.0212 0.0002 0.0000 0.0000
# 3 -6.8065 36.0212 76.3210 0.0003 0.0001 0.0000
# 4 0.0000 0.0002 0.0003 -2.0991 0.0000 0.0000
# 5 0.0000 0.0000 0.0001 0.0000 4.8974 0.0000
# 6 0.0000 0.0000 0.0000 0.0000 0.0000 22.5216
#
#
#
# Elastic Compliance Matrix: (Units=1/GPa)
#
#
# Indices 1 2 3 4 5 6 
#
# 1 0.018959 -0.002151 0.002706 0.000001 0.000000 0.000000
# 2 -0.002151 0.006212 -0.003124 0.000000 0.000000 0.000000
# 3 0.002706 -0.003124 0.014818 0.000002 0.000000 0.000000
# 4 0.000001 0.000000 0.000002 -0.476397 0.000005 0.000000
# 5 0.000000 0.000000 0.000000 0.000005 0.204190 0.000000
# 6 0.000000 0.000000 0.000000 0.000000 0.000000 0.044402
#
#
# Mechanical properties :
#
#
# Convention : Reuss Voigt Hill
#
# Bulk Modulus (GPa) = 28.69321 45.15831 36.92576
# Shear Modulus (GPa) = -29.22888 23.15655 -3.03617
#
# Velocity S-wave (km/s) = -3.58175 3.18806 -1.15439
# Velocity P-wave (km/s) = 2.12401 5.77687 3.79874
#
# Compressibility (1/GPa) = 0.03485145
#
# Stress axis : x y z
#
# Youngs Moduli (GPa) = 52.74671 160.98632 67.48504
#
# Poissons Ratio (x) = 0.34624 -0.18261
# Poissons Ratio (y) = 0.11345 0.21079
# Poissons Ratio (z) = -0.14273 0.50285
#
# Static dielectric constant tensor:
#      x y z
#    x 1.963140 0.000000 0.000000 
#    y 0.000000 1.873470 0.000000 
#    z 0.000000 0.000000 1.805950 
# 
# From -- ./inp_files/34531.got.cif
#   From: 2010.05.17/outbox.cif.g08.bks.cpg/sg71_18_cif.got.tgz:34531.got - 2010.06.03 16:22:01.
