data_PCOD9523106
_publ_section_title
;
Structure prediction by ZEFSAII (Michael W. Deem and Ramdas Pophale) SiO2 
 PCOD9523106
Probable space group: I M M M
;
_chemical_formula_sum "Si O2"
_cell_formula_units_Z 120
_cell_length_a 7.778967
_cell_length_b 29.191586
_cell_length_c 28.644523
_cell_angle_alpha 90.000000
_cell_angle_beta 90.000000
_cell_angle_gamma 90.000000
_cell_volume 6504.609287
_symmetry_space_group_name_H-M "I M M M"
_symmetry_group_IT_number 71
_symmetry_cell_setting 'orthorhombic'
loop_
_space_group_symop_operation_xyz
x,y,z
-x,-y,z
x,-y,-z
-x,y,-z
-x,-y,-z
x,y,-z
-x,y,z
x,-y,z
1/2+x,1/2+y,1/2+z
1/2-x,1/2-y,1/2+z
1/2+x,1/2-y,1/2-z
1/2-x,1/2+y,1/2-z
1/2-x,1/2-y,1/2-z
1/2+x,1/2+y,1/2-z
1/2-x,1/2+y,1/2+z
1/2+x,1/2-y,1/2+z
loop_
_atom_site_type_symbol
_atom_site_label
_atom_site_fract_x
_atom_site_fract_y
_atom_site_fract_z
Si Si1 0.295958 0.551601 0.281732
Si Si2 0.205132 0.796019 0.649934
Si Si3 0.701332 0.635818 0.770980
Si Si4 0.203586 0.415520 0.616481
Si Si5 0.710325 0.000000 0.946746
Si Si6 0.292890 0.772833 0.448520
Si Si7 0.792862 0.832448 0.052309
Si Si8 0.204914 0.284874 0.291934
O O1 0.500000 0.548294 0.273028
O O2 0.224409 0.500000 0.281686
O O3 0.222503 0.587006 0.243533
O O4 0.276776 0.574011 0.332721
O O5 0.274770 0.834480 0.685736
O O6 0.237940 0.802514 0.595631
O O7 0.269279 0.744906 0.664275
O O8 0.000000 0.794340 0.657899
O O9 0.500000 0.629257 0.781412
O O10 0.714611 0.667898 0.724883
O O11 0.267025 0.454827 0.580951
O O12 0.237026 0.366491 0.593026
O O13 0.000000 0.420807 0.621186
O O14 0.500000 0.000000 0.947285
O O15 0.769006 0.000000 0.000000
O O16 0.235423 0.788228 0.500000
O O17 0.500000 0.771816 0.448744
O O18 0.232839 0.720055 0.442306
O O19 0.000000 0.831828 0.052231
O O20 0.737191 0.848222 0.000000
O O21 0.250000 0.250000 0.250000
O O22 0.000000 0.292225 0.295200
#
# Coordination Sequence:
#
# PCOD9523106 Si02
#       8
#    16  16  16  16   8  16  16  16
#     4  10  21  37  54  70  93 125 162 201 247 301
#     4   9  18  31  47  70  98 124 156 195 233 280
#     4   9  19  34  50  70  95 125 160 199 242 289
#     4  11  21  33  49  68  92 120 155 201 250 297
#     4   9  18  32  47  63  85 113 147 195 254 301
#     4   9  19  34  50  69  96 129 160 190 229 279
#     4   9  19  35  50  66  90 121 159 199 238 284
#     4   9  17  29  45  69  98 125 157 194 233 278
#
# _framework density 18.448457000000001
#
# number of rings (size 3 to 8) (size 9 to 14) (size 15 to 20)
#    0.000    2.600    0.667    2.800    1.867    4.800 
#    0.000    1.333    0.000    1.600    0.000    0.000 
#    0.000    0.533    0.000    6.667    0.000    1.067 
#
# Total GULP energy -334499.939248 kJ/mol
# GULP energy per Si atom -5574.998987 kJ/mol
# Density = 1.840647 g / cm^3
# Si number density = 18.448457 Si / 1000 Ang^3
#
#
#
# Elastic Constant Matrix: (Units=GPa)
#
#
# Indices 1 2 3 4 5 6 
#
# 1 23.5433 2.0991 -2.6615 0.0000 0.0000 0.0000
# 2 2.0991 88.6573 60.2670 0.0000 0.0000 0.0000
# 3 -2.6615 60.2670 122.8358 0.0000 0.0000 0.0000
# 4 0.0000 0.0000 0.0000 26.4964 0.0000 0.0000
# 5 0.0000 0.0000 0.0000 0.0000 14.5974 0.0000
# 6 0.0000 0.0000 0.0000 0.0000 0.0000 8.8455
#
#
#
# Elastic Compliance Matrix: (Units=1/GPa)
#
#
# Indices 1 2 3 4 5 6 
#
# 1 0.042938 -0.002474 0.002144 0.000000 0.000000 0.000000
# 2 -0.002474 0.017066 -0.008427 0.000000 0.000000 0.000000
# 3 0.002144 -0.008427 0.012322 0.000000 0.000000 0.000000
# 4 0.000000 0.000000 0.000000 0.037741 0.000000 0.000000
# 5 0.000000 0.000000 0.000000 0.000000 0.068505 0.000000
# 6 0.000000 0.000000 0.000000 0.000000 0.000000 0.113052
#
#
# Mechanical properties :
#
#
# Convention : Reuss Voigt Hill
#
# Bulk Modulus (GPa) = 18.24405 39.38284 28.81345
# Shear Modulus (GPa) = 15.27141 21.67665 18.47403
#
# Velocity S-wave (km/s) = 2.88025 3.43152 3.16790
# Velocity P-wave (km/s) = 4.57950 6.09051 5.38823
#
# Compressibility (1/GPa) = 0.05481238
#
# Stress axis : x y z
#
# Youngs Moduli (GPa) = 23.28947 58.59479 81.15629
#
# Poissons Ratio (x) = 0.14498 -0.17402
# Poissons Ratio (y) = 0.05762 0.68390
# Poissons Ratio (z) = -0.04994 0.49377
#
# Static dielectric constant tensor:
#      x y z
#    x 1.681520 0.000000 0.000000 
#    y 0.000000 1.661020 0.000000 
#    z 0.000000 0.000000 1.660570 
# 
# From -- ./inp_files/63829.got.cif
#   From: 2010.05.17/outbox.cif.g08.bks.cpg/sg71_32_cif.got.tgz:63829.got - 2010.06.03 16:22:01.
