data_PCOD9523138
_publ_section_title
;
Structure prediction by ZEFSAII (Michael W. Deem and Ramdas Pophale) SiO2 
 PCOD9523138
Probable space group: I M M M
;
_chemical_formula_sum "Si O2"
_cell_formula_units_Z 96
_cell_length_a 30.526038
_cell_length_b 17.947666
_cell_length_c 7.842081
_cell_angle_alpha 90.000000
_cell_angle_beta 90.000000
_cell_angle_gamma 90.000000
_cell_volume 4296.449813
_symmetry_space_group_name_H-M "I M M M"
_symmetry_group_IT_number 71
_symmetry_cell_setting 'orthorhombic'
loop_
_space_group_symop_operation_xyz
x,y,z
-x,-y,z
x,-y,-z
-x,y,-z
-x,-y,-z
x,y,-z
-x,y,z
x,-y,z
1/2+x,1/2+y,1/2+z
1/2-x,1/2-y,1/2+z
1/2+x,1/2-y,1/2-z
1/2-x,1/2+y,1/2-z
1/2-x,1/2-y,1/2-z
1/2+x,1/2+y,1/2-z
1/2-x,1/2+y,1/2+z
1/2+x,1/2-y,1/2+z
loop_
_atom_site_type_symbol
_atom_site_label
_atom_site_fract_x
_atom_site_fract_y
_atom_site_fract_z
Si Si1 0.144062 0.082073 0.796224
Si Si2 0.951041 0.131600 0.293736
Si Si3 0.875693 0.586257 0.706509
Si Si4 0.286591 0.691228 0.685644
Si Si5 0.780246 0.411843 0.807337
Si Si6 0.048630 0.695723 0.707872
O O1 0.092143 0.089889 0.767383
O O2 0.170283 0.155105 0.726029
O O3 0.158220 0.000000 0.729809
O O4 0.151737 0.082708 0.000000
O O5 0.950974 0.128604 0.500000
O O6 0.945860 0.218324 0.241131
O O7 0.000000 0.106603 0.238443
O O8 0.875192 0.585892 0.500000
O O9 0.881266 0.500000 0.761836
O O10 0.828823 0.616431 0.767033
O O11 0.914095 0.639891 0.767662
O O12 0.300181 0.718717 0.500000
O O13 0.250000 0.750000 0.750000
O O14 0.255915 0.618517 0.682401
O O15 0.783171 0.500000 0.793894
O O16 0.767270 0.392004 0.000000
O O17 0.049802 0.695284 0.500000
O O18 0.000000 0.671217 0.759620
#
# Coordination Sequence:
#
# PCOD9523138 Si02
#       6
#    16  16  16  16  16  16
#     4  10  23  42  62  86 117 151 188 236 290 343
#     4   9  19  36  58  85 117 153 194 239 287 341
#     4   9  17  29  49  78 108 144 190 236 285 338
#     4  11  24  41  61  87 117 150 190 235 287 346
#     4  10  21  37  56  79 111 150 190 233 281 334
#     4   8  15  29  49  75 108 144 184 234 287 337
#
# _framework density 22.34403
#
# number of rings (size 3 to 8) (size 9 to 14) (size 15 to 20)
#    0.000    2.500    0.000    2.500    2.333    4.333 
#    0.000    3.333    0.000    1.500    0.000    2.333 
#    0.000    0.000    0.000    0.000    0.000    0.000 
#
# Total GULP energy -267624.822019 kJ/mol
# GULP energy per Si atom -5575.517125 kJ/mol
# Density = 2.229317 g / cm^3
# Si number density = 22.344030 Si / 1000 Ang^3
#
#
#
# Elastic Constant Matrix: (Units=GPa)
#
#
# Indices 1 2 3 4 5 6 
#
# 1 123.7458 39.0788 4.9300 0.0000 0.0000 0.0000
# 2 39.0788 52.3241 8.0354 0.0000 0.0000 0.0000
# 3 4.9300 8.0354 31.9953 0.0000 0.0000 0.0000
# 4 0.0000 0.0000 0.0000 8.2636 0.0000 0.0000
# 5 0.0000 0.0000 0.0000 0.0000 22.6424 0.0000
# 6 0.0000 0.0000 0.0000 0.0000 0.0000 44.1615
#
#
#
# Elastic Compliance Matrix: (Units=1/GPa)
#
#
# Indices 1 2 3 4 5 6 
#
# 1 0.010580 -0.007958 0.000368 0.000000 0.000000 0.000000
# 2 -0.007958 0.025864 -0.005269 0.000000 0.000000 0.000000
# 3 0.000368 -0.005269 0.032521 0.000000 0.000000 0.000000
# 4 0.000000 0.000000 0.000000 0.121013 0.000000 0.000000
# 5 0.000000 0.000000 0.000000 0.000000 0.044165 0.000000
# 6 0.000000 0.000000 0.000000 0.000000 0.000000 0.022644
#
#
# Mechanical properties :
#
#
# Convention : Reuss Voigt Hill
#
# Bulk Modulus (GPa) = 23.12291 34.68372 28.90331
# Shear Modulus (GPa) = 16.83950 25.41491 21.12721
#
# Velocity S-wave (km/s) = 2.74824 3.37625 3.07830
# Velocity P-wave (km/s) = 4.52123 5.54572 5.05947
#
# Compressibility (1/GPa) = 0.04324715
#
# Stress axis : x y z
#
# Youngs Moduli (GPa) = 94.52213 38.66315 30.74912
#
# Poissons Ratio (x) = 0.30768 -0.01133
# Poissons Ratio (y) = 0.75221 0.16203
# Poissons Ratio (z) = -0.03483 0.20373
#
# Static dielectric constant tensor:
#      x y z
#    x 1.831630 0.000000 0.000000 
#    y 0.000000 1.866490 0.000000 
#    z 0.000000 0.000000 1.889280 
# 
# From -- ./inp_files/14846.got.cif
#   From: 2010.05.17/outbox.cif.g08.bks.cpg/sg71_8_cif.got.tgz:14846.got - 2010.06.03 16:22:01.
