data_PCOD9523785
_publ_section_title
;
Structure prediction by ZEFSAII (Michael W. Deem and Ramdas Pophale) SiO2 
 PCOD9523785
Probable space group: I M M M
;
_chemical_formula_sum "Si O2"
_cell_formula_units_Z 66
_cell_length_a 7.843965
_cell_length_b 22.855386
_cell_length_c 17.994334
_cell_angle_alpha 90.000000
_cell_angle_beta 90.000000
_cell_angle_gamma 90.000000
_cell_volume 3225.967479
_symmetry_space_group_name_H-M "I M M M"
_symmetry_group_IT_number 71
_symmetry_cell_setting 'orthorhombic'
loop_
_space_group_symop_operation_xyz
x,y,z
-x,-y,z
x,-y,-z
-x,y,-z
-x,-y,-z
x,y,-z
-x,y,z
x,-y,z
1/2+x,1/2+y,1/2+z
1/2-x,1/2-y,1/2+z
1/2+x,1/2-y,1/2-z
1/2-x,1/2+y,1/2-z
1/2-x,1/2-y,1/2-z
1/2+x,1/2+y,1/2-z
1/2-x,1/2+y,1/2+z
1/2+x,1/2-y,1/2+z
loop_
_atom_site_type_symbol
_atom_site_label
_atom_site_fract_x
_atom_site_fract_y
_atom_site_fract_z
Si Si1 0.296362 0.376186 0.205857
Si Si2 0.299543 0.435059 0.500000
Si Si3 0.294344 0.500000 0.129122
Si Si4 0.699063 0.153627 0.127413
Si Si5 0.000000 0.500000 0.000000
Si Si6 0.790988 0.217584 0.415433
O O1 0.500000 0.368813 0.210921
O O2 0.265529 0.441727 0.177712
O O3 0.226997 0.362220 0.287100
O O4 0.232411 0.330347 0.143965
O O5 0.219743 0.500000 0.500000
O O6 0.500000 0.442067 0.500000
O O7 0.258762 0.397059 0.427438
O O8 0.500000 0.500000 0.106712
O O9 0.154034 0.500000 0.064266
O O10 0.500000 0.159216 0.113047
O O11 0.771294 0.217667 0.107015
O O12 0.739652 0.203976 0.500000
O O13 0.000000 0.216856 0.414323
#
# Coordination Sequence:
#
# PCOD9523785 Si02
#       6
#    16   8   8  16   2  16
#     4  10  22  40  64  91 128 171 214 257 315 385
#     4  11  25  43  64  89 121 163 208 256 315 385
#     4  10  25  45  69  99 130 180 220 266 332 390
#     4  11  22  39  65  93 127 161 208 263 322 381
#     4  12  26  44  72  90 144 158 226 280 318 386
#     4   9  18  36  62  91 124 165 209 259 315 378
#
# _framework density 20.458978999999999
#
# number of rings (size 3 to 8) (size 9 to 14) (size 15 to 20)
#    0.000    1.818    1.212    2.000    5.091    0.970 
#    0.000    1.212    2.667    0.000    0.000    0.000 
#    0.000    0.000    0.000    0.000    0.000    0.000 
#
# Total GULP energy -184023.975969 kJ/mol
# GULP energy per Si atom -5576.484120 kJ/mol
# Density = 2.041241 g / cm^3
# Si number density = 20.458979 Si / 1000 Ang^3
#
#
#
# Elastic Constant Matrix: (Units=GPa)
#
#
# Indices 1 2 3 4 5 6 
#
# 1 40.5772 20.3446 22.5919 0.0000 0.0000 0.0000
# 2 20.3446 181.9948 93.2953 0.0000 0.0000 0.0000
# 3 22.5919 93.2953 169.0666 0.0002 0.0000 0.0000
# 4 0.0000 0.0000 0.0002 -15.6521 0.0001 0.0000
# 5 0.0000 0.0000 0.0000 0.0001 -25.5417 0.0000
# 6 0.0000 0.0000 0.0000 0.0000 0.0000 438.0871
#
#
#
# Elastic Compliance Matrix: (Units=1/GPa)
#
#
# Indices 1 2 3 4 5 6 
#
# 1 0.026967 -0.001628 -0.002705 0.000000 0.000000 0.000000
# 2 -0.001628 0.007760 -0.004065 0.000000 0.000000 0.000000
# 3 -0.002705 -0.004065 0.008519 0.000000 0.000000 0.000000
# 4 0.000000 0.000000 0.000000 -0.063889 0.000000 0.000000
# 5 0.000000 0.000000 0.000000 0.000000 -0.039152 0.000000
# 6 0.000000 0.000000 0.000000 0.000000 0.000000 0.002283
#
#
# Mechanical properties :
#
#
# Convention : Reuss Voigt Hill
#
# Bulk Modulus (GPa) = 37.80608 73.78914 55.79761
# Shear Modulus (GPa) = -156.74326 96.40579 -30.16874
#
# Velocity S-wave (km/s) = -8.76241 6.87196 -3.84421
# Velocity P-wave (km/s) = 9.15718 9.95541 2.76191
#
# Compressibility (1/GPa) = 0.02645077
#
# Stress axis : x y z
#
# Youngs Moduli (GPa) = 37.08279 128.85965 117.37879
#
# Poissons Ratio (x) = 0.20975 0.31754
# Poissons Ratio (y) = 0.06036 0.47713
# Poissons Ratio (z) = 0.10032 0.52380
#
# Static dielectric constant tensor:
#      x y z
#    x 1.746040 0.000000 0.000000 
#    y 0.000000 1.792710 0.000000 
#    z 0.000000 0.000000 1.663270 
# 
# From -- ./inp_files/41957.got.cif
#   From: 2010.05.17/outbox.cif.g08.bks.cpg/sg71_21_cif.got.tgz:41957.got - 2010.06.03 16:22:01.
