data_PCOD9523877
_publ_section_title
;
Structure prediction by ZEFSAII (Michael W. Deem and Ramdas Pophale) SiO2 
 PCOD9523877
Probable space group: I M M M
;
_chemical_formula_sum "Si O2"
_cell_formula_units_Z 72
_cell_length_a 9.922484
_cell_length_b 26.899313
_cell_length_c 14.994641
_cell_angle_alpha 90.000000
_cell_angle_beta 90.000000
_cell_angle_gamma 90.000000
_cell_volume 4002.189683
_symmetry_space_group_name_H-M "I M M M"
_symmetry_group_IT_number 71
_symmetry_cell_setting 'orthorhombic'
loop_
_space_group_symop_operation_xyz
x,y,z
-x,-y,z
x,-y,-z
-x,y,-z
-x,-y,-z
x,y,-z
-x,y,z
x,-y,z
1/2+x,1/2+y,1/2+z
1/2-x,1/2-y,1/2+z
1/2+x,1/2-y,1/2-z
1/2-x,1/2+y,1/2-z
1/2-x,1/2-y,1/2-z
1/2+x,1/2+y,1/2-z
1/2-x,1/2+y,1/2+z
1/2+x,1/2-y,1/2+z
loop_
_atom_site_type_symbol
_atom_site_label
_atom_site_fract_x
_atom_site_fract_y
_atom_site_fract_z
Si Si1 0.847312 0.214618 0.500000
Si Si2 0.662258 0.689907 0.500000
Si Si3 0.260066 0.381209 0.664044
Si Si4 0.500000 0.941600 0.892196
Si Si5 0.000000 0.941990 0.899891
Si Si6 0.164162 0.560232 0.000000
Si Si7 0.161019 0.125416 0.363384
O O1 0.737215 0.257391 0.500000
O O2 0.833426 0.177078 0.582871
O O3 0.000000 0.235704 0.500000
O O4 0.500000 0.694714 0.500000
O O5 0.709771 0.660142 0.588750
O O6 0.371937 0.422985 0.650226
O O7 0.280438 0.364713 0.765276
O O8 0.124648 0.410250 0.643520
O O9 0.500000 0.000000 0.865524
O O10 0.500000 0.940895 0.000000
O O11 0.000000 0.000000 0.906685
O O12 0.000000 0.920588 0.000000
O O13 0.244504 0.585559 0.083813
O O14 0.178421 0.500000 0.000000
O O15 0.000000 0.570724 0.000000
O O16 0.000000 0.110934 0.361538
#
# Coordination Sequence:
#
# PCOD9523877 Si02
#       7
#     8   8  16   8   8   8  16
#     4   9  23  43  66  89 118 162 203 260 320 373
#     4  12  23  41  65  95 127 156 208 258 312 378
#     4  12  22  40  62  92 126 165 206 257 306 368
#     4  11  24  40  58  88 132 174 210 247 304 371
#     4  11  20  36  60  88 126 166 202 243 302 367
#     4  10  23  41  62  91 127 164 207 260 308 360
#     4  10  22  44  66  90 125 163 209 257 311 372
#
# _framework density 17.990151999999998
#
# number of rings (size 3 to 8) (size 9 to 14) (size 15 to 20)
#    0.000    1.222    4.444    1.667    3.111    7.111 
#    0.000    0.000    0.000    0.000    0.000    0.000 
#    0.000    0.000    0.000    0.000    0.000    0.000 
#
# Total GULP energy -200734.959061 kJ/mol
# GULP energy per Si atom -5575.971085 kJ/mol
# Density = 1.794921 g / cm^3
# Si number density = 17.990152 Si / 1000 Ang^3
#
#
#
# Elastic Constant Matrix: (Units=GPa)
#
#
# Indices 1 2 3 4 5 6 
#
# 1 188.2414 80.9832 58.6307 0.0000 0.0000 0.0000
# 2 80.9832 112.7224 55.1543 0.0000 0.0000 0.0000
# 3 58.6307 55.1543 159.5960 -0.0001 0.0000 0.0001
# 4 0.0000 0.0000 -0.0001 2.8056 0.0000 0.0000
# 5 0.0000 0.0000 0.0000 0.0000 28.6634 0.0000
# 6 0.0000 0.0000 0.0001 0.0000 0.0000 91.8061
#
#
#
# Elastic Compliance Matrix: (Units=1/GPa)
#
#
# Indices 1 2 3 4 5 6 
#
# 1 0.007853 -0.005091 -0.001126 0.000000 0.000000 0.000000
# 2 -0.005091 0.013977 -0.002960 0.000000 0.000000 0.000000
# 3 -0.001126 -0.002960 0.007702 0.000000 0.000000 0.000000
# 4 0.000000 0.000000 0.000000 0.356435 0.000000 0.000000
# 5 0.000000 0.000000 0.000000 0.000000 0.034888 0.000000
# 6 0.000000 0.000000 0.000000 0.000000 0.000000 0.010893
#
#
# Mechanical properties :
#
#
# Convention : Reuss Voigt Hill
#
# Bulk Modulus (GPa) = 89.45205 94.45513 91.95359
# Shear Modulus (GPa) = 11.01738 42.37444 26.69591
#
# Velocity S-wave (km/s) = 2.47738 4.85854 3.85634
# Velocity P-wave (km/s) = 7.61669 9.17015 8.42928
#
# Compressibility (1/GPa) = 0.01117917
#
# Stress axis : x y z
#
# Youngs Moduli (GPa) = 127.33653 71.54414 129.83198
#
# Poissons Ratio (x) = 0.36425 0.14613
# Poissons Ratio (y) = 0.64830 0.38431
# Poissons Ratio (z) = 0.14332 0.21177
#
# Static dielectric constant tensor:
#      x y z
#    x 1.576990 0.000000 0.000000 
#    y 0.000000 1.580540 0.000000 
#    z 0.000000 0.000000 2.138350 
# 
# From -- ./inp_files/14403.got.cif
#   From: 2010.05.17/outbox.cif.g08.bks.cpg/sg71_8_cif.got.tgz:14403.got - 2010.06.03 16:22:01.
