data_PCOD9523422
_publ_section_title
;
Structure prediction by ZEFSAII (Michael W. Deem and Ramdas Pophale) SiO2 
 PCOD9523422
Probable space group: I M M M
;
_chemical_formula_sum "Si O2"
_cell_formula_units_Z 72
_cell_length_a 8.664683
_cell_length_b 15.099756
_cell_length_c 29.039750
_cell_angle_alpha 90.000000
_cell_angle_beta 90.000000
_cell_angle_gamma 90.000000
_cell_volume 3799.404050
_symmetry_space_group_name_H-M "I M M M"
_symmetry_group_IT_number 71
_symmetry_cell_setting 'orthorhombic'
loop_
_space_group_symop_operation_xyz
x,y,z
-x,-y,z
x,-y,-z
-x,y,-z
-x,-y,-z
x,y,-z
-x,y,z
x,-y,z
1/2+x,1/2+y,1/2+z
1/2-x,1/2-y,1/2+z
1/2+x,1/2-y,1/2-z
1/2-x,1/2+y,1/2-z
1/2-x,1/2-y,1/2-z
1/2+x,1/2+y,1/2-z
1/2-x,1/2+y,1/2+z
1/2+x,1/2-y,1/2+z
loop_
_atom_site_type_symbol
_atom_site_label
_atom_site_fract_x
_atom_site_fract_y
_atom_site_fract_z
Si Si1 0.677930 0.161840 0.639600
Si Si2 0.682641 0.500000 0.803315
Si Si3 0.684080 0.000000 0.201420
Si Si4 0.172630 0.893703 0.551653
Si Si5 0.186135 0.135471 0.129332
Si Si6 0.313978 0.000000 0.945355
O O1 0.500000 0.159665 0.654517
O O2 0.697438 0.133789 0.586693
O O3 0.733482 0.263142 0.638337
O O4 0.768728 0.088244 0.668701
O O5 0.500000 0.500000 0.797012
O O6 0.765844 0.500000 0.754189
O O7 0.754754 0.917914 0.173526
O O8 0.500000 0.000000 0.197303
O O9 0.196140 0.860240 0.500000
O O10 0.000000 0.865530 0.567332
O O11 0.169784 0.000000 0.550087
O O12 0.000000 0.131922 0.126183
O O13 0.252735 0.085097 0.084030
O O14 0.500000 0.000000 0.943207
O O15 0.269921 0.000000 0.000000
#
# Coordination Sequence:
#
# PCOD9523422 Si02
#       6
#    16   8   8  16  16   8
#     4  11  23  38  58  88 121 153 196 245 292 345
#     4  12  25  41  63  86 116 156 194 238 294 354
#     4  11  23  42  66  89 114 147 192 245 296 350
#     4   9  18  33  53  78 111 153 195 233 280 337
#     4  10  22  40  62  88 121 157 193 240 296 352
#     4  10  21  38  62  92 123 158 201 246 290 341
#
# _framework density 18.950340000000001
#
# number of rings (size 3 to 8) (size 9 to 14) (size 15 to 20)
#    0.000    1.667    1.111    5.667    0.000    6.667 
#    0.000    5.556    0.000    0.000    0.000    0.000 
#    0.000    0.000    0.000    0.000    0.000    0.000 
#
# Total GULP energy -200822.420827 kJ/mol
# GULP energy per Si atom -5578.400579 kJ/mol
# Density = 1.890721 g / cm^3
# Si number density = 18.950340 Si / 1000 Ang^3
#
#
#
# Elastic Constant Matrix: (Units=GPa)
#
#
# Indices 1 2 3 4 5 6 
#
# 1 51.0079 34.7248 24.8250 0.0000 0.0000 0.0000
# 2 34.7248 131.5670 56.6287 0.0000 0.0000 0.0000
# 3 24.8250 56.6287 110.9212 0.0000 0.0000 0.0000
# 4 0.0000 0.0000 0.0000 -16.3408 0.0000 0.0000
# 5 0.0000 0.0000 0.0000 0.0000 34.9827 0.0000
# 6 0.0000 0.0000 0.0000 0.0000 0.0000 -11.8046
#
#
#
# Elastic Compliance Matrix: (Units=1/GPa)
#
#
# Indices 1 2 3 4 5 6 
#
# 1 0.024561 -0.005276 -0.002803 0.000000 0.000000 0.000000
# 2 -0.005276 0.010874 -0.004371 0.000000 0.000000 0.000000
# 3 -0.002803 -0.004371 0.011874 0.000000 0.000000 0.000000
# 4 0.000000 0.000000 0.000000 -0.061196 0.000000 0.000000
# 5 0.000000 0.000000 0.000000 0.000000 0.028586 0.000000
# 6 0.000000 0.000000 0.000000 0.000000 0.000000 -0.084713
#
#
# Mechanical properties :
#
#
# Convention : Reuss Voigt Hill
#
# Bulk Modulus (GPa) = 44.62444 58.42812 51.52628
# Shear Modulus (GPa) = -132.82307 13.18864 -59.81721
#
# Velocity S-wave (km/s) = -8.38106 2.64096 -5.62439
# Velocity P-wave (km/s) = 8.37001 6.34025 3.86383
#
# Compressibility (1/GPa) = 0.02240925
#
# Stress axis : x y z
#
# Youngs Moduli (GPa) = 40.71531 91.95833 84.21489
#
# Poissons Ratio (x) = 0.48515 0.23609
# Poissons Ratio (y) = 0.21480 0.36810
# Poissons Ratio (z) = 0.11414 0.40195
#
# Static dielectric constant tensor:
#      x y z
#    x 1.665760 0.000000 0.000000 
#    y 0.000000 1.558980 0.000000 
#    z 0.000000 0.000000 1.644780 
# 
# From -- ./inp_files/62909.got.cif
#   From: 2010.05.17/outbox.cif.g08.bks.cpg/sg71_32_cif.got.tgz:62909.got - 2010.06.03 16:22:01.
