data_PCOD9523561
_publ_section_title
;
Structure prediction by ZEFSAII (Michael W. Deem and Ramdas Pophale) SiO2 
 PCOD9523561
Probable space group: I M M M
;
_chemical_formula_sum "Si O2"
_cell_formula_units_Z 64
_cell_length_a 24.624642
_cell_length_b 15.869091
_cell_length_c 8.564308
_cell_angle_alpha 90.000000
_cell_angle_beta 90.000000
_cell_angle_gamma 90.000000
_cell_volume 3346.680501
_symmetry_space_group_name_H-M "I M M M"
_symmetry_group_IT_number 71
_symmetry_cell_setting 'orthorhombic'
loop_
_space_group_symop_operation_xyz
x,y,z
-x,-y,z
x,-y,-z
-x,y,-z
-x,-y,-z
x,y,-z
-x,y,z
x,-y,z
1/2+x,1/2+y,1/2+z
1/2-x,1/2-y,1/2+z
1/2+x,1/2-y,1/2-z
1/2-x,1/2+y,1/2-z
1/2-x,1/2-y,1/2-z
1/2+x,1/2+y,1/2-z
1/2-x,1/2+y,1/2+z
1/2+x,1/2-y,1/2+z
loop_
_atom_site_type_symbol
_atom_site_label
_atom_site_fract_x
_atom_site_fract_y
_atom_site_fract_z
Si Si1 0.000000 0.636422 0.188831
Si Si2 0.412302 0.000000 0.689735
Si Si3 0.724809 0.336149 0.314141
Si Si4 0.212642 0.500000 0.811837
Si Si5 0.385462 0.402213 0.188894
Si Si6 0.500000 0.325138 0.188132
O O1 0.052723 0.581755 0.237039
O O2 0.000000 0.729049 0.257203
O O3 0.000000 0.641026 0.000000
O O4 0.411942 0.000000 0.500000
O O5 0.350207 0.000000 0.741307
O O6 0.727779 0.336512 0.500000
O O7 0.750000 0.250000 0.250000
O O8 0.757267 0.416627 0.247966
O O9 0.662648 0.347279 0.260231
O O10 0.214290 0.500000 0.000000
O O11 0.377486 0.500000 0.232304
O O12 0.444823 0.370988 0.239787
O O13 0.382492 0.397031 0.000000
O O14 0.500000 0.327826 0.000000
#
# Coordination Sequence:
#
# PCOD9523561 Si02
#       6
#     8   8  16   8  16   8
#     4   9  18  37  59  86 118 158 200 245 295 357
#     4   8  18  36  60  84 117 159 200 239 296 363
#     4  12  26  43  64  93 127 167 213 261 313 373
#     4  11  22  41  66  95 127 166 208 256 318 379
#     4  10  21  41  65  88 122 163 202 250 311 374
#     4  10  22  37  59  93 122 154 200 251 309 368
#
# _framework density 19.123428000000001
#
# number of rings (size 3 to 8) (size 9 to 14) (size 15 to 20)
#    0.000    1.750    1.250    3.750    3.500    2.500 
#    0.000    2.500    0.000    2.250    0.000    0.000 
#    0.000    0.000    0.000    0.000    0.000    0.000 
#
# Total GULP energy -178830.368504 kJ/mol
# GULP energy per Si atom -5588.449016 kJ/mol
# Density = 1.907990 g / cm^3
# Si number density = 19.123428 Si / 1000 Ang^3
#
#
#
# Elastic Constant Matrix: (Units=GPa)
#
#
# Indices 1 2 3 4 5 6 
#
# 1 187.6963 80.9318 48.4393 0.0000 0.0000 0.0000
# 2 80.9318 147.3025 40.8773 0.0000 0.0000 0.0000
# 3 48.4393 40.8773 54.0784 0.0000 0.0000 0.0000
# 4 0.0000 0.0000 0.0000 34.0495 0.0000 0.0000
# 5 0.0000 0.0000 0.0000 0.0000 21.3198 0.0000
# 6 0.0000 0.0000 0.0000 0.0000 0.0000 5.1268
#
#
#
# Elastic Compliance Matrix: (Units=1/GPa)
#
#
# Indices 1 2 3 4 5 6 
#
# 1 0.007847 -0.002988 -0.004771 0.000000 0.000000 0.000000
# 2 -0.002988 0.009728 -0.004677 0.000000 0.000000 0.000000
# 3 -0.004771 -0.004677 0.026300 0.000000 0.000000 0.000000
# 4 0.000000 0.000000 0.000000 0.029369 0.000000 0.000000
# 5 0.000000 0.000000 0.000000 0.000000 0.046905 0.000000
# 6 0.000000 0.000000 0.000000 0.000000 0.000000 0.195052
#
#
# Mechanical properties :
#
#
# Convention : Reuss Voigt Hill
#
# Bulk Modulus (GPa) = 52.61885 81.06378 66.84132
# Shear Modulus (GPa) = 14.43388 26.68783 20.56086
#
# Velocity S-wave (km/s) = 2.75030 3.73977 3.28253
# Velocity P-wave (km/s) = 6.13683 7.81854 7.02817
#
# Compressibility (1/GPa) = 0.01900459
#
# Stress axis : x y z
#
# Youngs Moduli (GPa) = 127.43580 102.79406 38.02224
#
# Poissons Ratio (x) = 0.30710 0.18139
# Poissons Ratio (y) = 0.38072 0.17785
# Poissons Ratio (z) = 0.60794 0.48081
#
# Static dielectric constant tensor:
#      x y z
#    x 1.665530 0.000000 0.000000 
#    y 0.000000 1.639080 0.000000 
#    z 0.000000 0.000000 1.650260 
# 
# From -- ./inp_files/12029.got.cif
#   From: 2010.05.17/outbox.cif.g08.bks.cpg/sg71_7_cif.got.tgz:12029.got - 2010.06.03 16:22:01.
