data_PCOD9523123
_publ_section_title
;
Structure prediction by ZEFSAII (Michael W. Deem and Ramdas Pophale) SiO2 
 PCOD9523123
Probable space group: I M M M
;
_chemical_formula_sum "Si O2"
_cell_formula_units_Z 120
_cell_length_a 30.781975
_cell_length_b 25.147055
_cell_length_c 8.452264
_cell_angle_alpha 90.000000
_cell_angle_beta 90.000000
_cell_angle_gamma 90.000000
_cell_volume 6542.694863
_symmetry_space_group_name_H-M "I M M M"
_symmetry_group_IT_number 71
_symmetry_cell_setting 'orthorhombic'
loop_
_space_group_symop_operation_xyz
x,y,z
-x,-y,z
x,-y,-z
-x,y,-z
-x,-y,-z
x,y,-z
-x,y,z
x,-y,z
1/2+x,1/2+y,1/2+z
1/2-x,1/2-y,1/2+z
1/2+x,1/2-y,1/2-z
1/2-x,1/2+y,1/2-z
1/2-x,1/2-y,1/2-z
1/2+x,1/2+y,1/2-z
1/2-x,1/2+y,1/2+z
1/2+x,1/2-y,1/2+z
loop_
_atom_site_type_symbol
_atom_site_label
_atom_site_fract_x
_atom_site_fract_y
_atom_site_fract_z
Si Si1 0.000000 0.438074 0.310069
Si Si2 0.920479 0.631575 0.810275
Si Si3 0.374397 0.329047 0.306311
Si Si4 0.201229 0.247791 0.813468
Si Si5 0.254907 0.938413 0.311289
Si Si6 0.549651 0.749630 0.307133
Si Si7 0.657008 0.440485 0.308815
Si Si8 0.672418 0.859385 0.814156
O O1 0.042103 0.408282 0.243102
O O2 0.000000 0.500000 0.265572
O O3 0.000000 0.434151 0.500000
O O4 0.934095 0.691564 0.760929
O O5 0.874237 0.617917 0.734859
O O6 0.916665 0.631060 0.000000
O O7 0.374459 0.327894 0.500000
O O8 0.330567 0.298615 0.252163
O O9 0.416130 0.295087 0.254437
O O10 0.371971 0.390509 0.256871
O O11 0.250000 0.250000 0.750000
O O12 0.178790 0.303854 0.776258
O O13 0.204412 0.240277 0.000000
O O14 0.255212 0.930629 0.500000
O O15 0.206249 0.930317 0.247364
O O16 0.288944 0.898806 0.233142
O O17 0.266474 0.000000 0.277989
O O18 0.549427 0.749028 0.500000
O O19 0.500000 0.741268 0.254605
O O20 0.657037 0.440980 0.500000
O O21 0.644401 0.500000 0.254354
O O22 0.674004 0.848863 0.000000
#
# Coordination Sequence:
#
# PCOD9523123 Si02
#       8
#     8  16  16  16  16  16  16  16
#     4  11  25  43  61  85 117 149 182 229 290 350
#     4  11  21  38  62  83 106 142 189 238 284 333
#     4   9  17  30  50  77 109 142 180 226 272 326
#     4  11  21  34  52  77 112 150 191 237 286 340
#     4  10  21  37  56  77 103 141 190 238 278 324
#     4   9  16  30  55  83 105 135 180 229 278 326
#     4   9  17  31  53  80 111 147 183 221 270 329
#     4  12  24  37  54  79 112 149 185 229 291 347
#
# _framework density 18.341066999999999
#
# number of rings (size 3 to 8) (size 9 to 14) (size 15 to 20)
#    0.000    1.800    2.000    3.400    0.000    2.933 
#    0.000    0.667    0.000    0.400    0.000    2.800 
#    0.000    0.000    0.000    3.333    0.000    3.467 
#
# Total GULP energy -335047.657447 kJ/mol
# GULP energy per Si atom -5584.127624 kJ/mol
# Density = 1.829932 g / cm^3
# Si number density = 18.341067 Si / 1000 Ang^3
#
#
#
# Elastic Constant Matrix: (Units=GPa)
#
#
# Indices 1 2 3 4 5 6 
#
# 1 75.5463 50.2580 7.1165 0.0000 0.0000 0.0000
# 2 50.2580 113.3725 3.9318 0.0000 0.0000 0.0000
# 3 7.1165 3.9318 9.8020 0.0000 0.0000 0.0000
# 4 0.0000 0.0000 0.0000 16.4415 0.0000 0.0000
# 5 0.0000 0.0000 0.0000 0.0000 23.2477 0.0000
# 6 0.0000 0.0000 0.0000 0.0000 0.0000 24.2725
#
#
#
# Elastic Compliance Matrix: (Units=1/GPa)
#
#
# Indices 1 2 3 4 5 6 
#
# 1 0.019889 -0.008433 -0.011057 0.000000 0.000000 0.000000
# 2 -0.008433 0.012521 0.001100 0.000000 0.000000 0.000000
# 3 -0.011057 0.001100 0.109606 0.000000 0.000000 0.000000
# 4 0.000000 0.000000 0.000000 0.060822 0.000000 0.000000
# 5 0.000000 0.000000 0.000000 0.000000 0.043015 0.000000
# 6 0.000000 0.000000 0.000000 0.000000 0.000000 0.041199
#
#
# Mechanical properties :
#
#
# Convention : Reuss Voigt Hill
#
# Bulk Modulus (GPa) = 9.50248 35.70370 22.60309
# Shear Modulus (GPa) = 13.93112 21.95332 17.94222
#
# Velocity S-wave (km/s) = 2.75900 3.46345 3.13110
# Velocity P-wave (km/s) = 3.91684 5.95842 5.04204
#
# Compressibility (1/GPa) = 0.10523567
#
# Stress axis : x y z
#
# Youngs Moduli (GPa) = 50.27959 79.86731 9.12362
#
# Poissons Ratio (x) = 0.67354 0.10088
# Poissons Ratio (y) = 0.42402 -0.01004
# Poissons Ratio (z) = 0.55594 -0.08789
#
# Static dielectric constant tensor:
#      x y z
#    x 1.526850 0.000000 0.000000 
#    y 0.000000 1.642230 0.000000 
#    z 0.000000 0.000000 1.631860 
# 
# From -- ./inp_files/15638.got.cif
#   From: 2010.05.17/outbox.cif.g08.bks.cpg/sg71_8_cif.got.tgz:15638.got - 2010.06.03 16:22:01.
