data_PCOD9523102
_publ_section_title
;
Structure prediction by ZEFSAII (Michael W. Deem and Ramdas Pophale) SiO2 
 PCOD9523102
Probable space group: I M M M
;
_chemical_formula_sum "Si O2"
_cell_formula_units_Z 62
_cell_length_a 15.588176
_cell_length_b 15.980885
_cell_length_c 11.805878
_cell_angle_alpha 90.000000
_cell_angle_beta 90.000000
_cell_angle_gamma 90.000000
_cell_volume 2940.995892
_symmetry_space_group_name_H-M "I M M M"
_symmetry_group_IT_number 71
_symmetry_cell_setting 'orthorhombic'
loop_
_space_group_symop_operation_xyz
x,y,z
-x,-y,z
x,-y,-z
-x,y,-z
-x,-y,-z
x,y,-z
-x,y,z
x,-y,z
1/2+x,1/2+y,1/2+z
1/2-x,1/2-y,1/2+z
1/2+x,1/2-y,1/2-z
1/2-x,1/2+y,1/2-z
1/2-x,1/2-y,1/2-z
1/2+x,1/2+y,1/2-z
1/2-x,1/2+y,1/2+z
1/2+x,1/2-y,1/2+z
loop_
_atom_site_type_symbol
_atom_site_label
_atom_site_fract_x
_atom_site_fract_y
_atom_site_fract_z
Si Si1 0.500000 0.500000 0.000000
Si Si2 0.000000 0.861275 0.699412
Si Si3 0.316483 0.101367 0.748044
Si Si4 0.000000 0.682403 0.255918
Si Si5 0.149569 0.898798 0.874701
Si Si6 0.500000 0.156918 0.500000
Si Si7 0.310692 0.904129 0.500000
O O1 0.500000 0.573012 0.900949
O O2 0.917290 0.873989 0.779123
O O3 0.000000 0.764243 0.667606
O O4 0.412011 0.132250 0.773084
O O5 0.244921 0.127229 0.837771
O O6 0.287154 0.132407 0.622354
O O7 0.318318 0.000000 0.742753
O O8 0.000000 0.704590 0.120029
O O9 0.148287 0.000000 0.878694
O O10 0.127478 0.866929 0.000000
O O11 0.585558 0.100597 0.500000
O O12 0.279295 0.000000 0.500000
#
# Coordination Sequence:
#
# PCOD9523102 Si02
#       7
#     2   8  16   8  16   4   8
#     4  12  28  52  66  96 114 162 212 266 340 392
#     4  12  25  44  69  88 121 161 215 276 317 381
#     4   9  18  35  60  96 135 173 209 256 311 384
#     4  10  21  36  62  98 133 173 211 260 321 368
#     4  10  21  40  66  93 119 163 216 264 317 381
#     4   8  15  28  50  87 128 160 212 248 284 365
#     4   8  13  25  50  84 125 172 205 239 290 343
#
# _framework density 21.081294
#
# number of rings (size 3 to 8) (size 9 to 14) (size 15 to 20)
#    0.000    2.323    1.290    0.968    1.806    6.194 
#    4.645    0.000    0.000    3.097    0.000    0.000 
#    0.000    0.000    0.000    0.000    0.000    0.000 
#
# Total GULP energy -172703.748436 kJ/mol
# GULP energy per Si atom -5571.088659 kJ/mol
# Density = 2.103331 g / cm^3
# Si number density = 21.081294 Si / 1000 Ang^3
#
#
#
# Elastic Constant Matrix: (Units=GPa)
#
#
# Indices 1 2 3 4 5 6 
#
# 1 103.1064 19.3799 45.1253 0.0000 0.0000 0.0000
# 2 19.3799 52.3554 34.2156 0.0000 0.0000 0.0000
# 3 45.1253 34.2156 98.5298 0.0000 0.0000 0.0000
# 4 0.0000 0.0000 0.0000 8.6490 0.0000 0.0000
# 5 0.0000 0.0000 0.0000 0.0000 13.8517 0.0000
# 6 0.0000 0.0000 0.0000 0.0000 0.0000 -19.9912
#
#
#
# Elastic Compliance Matrix: (Units=1/GPa)
#
#
# Indices 1 2 3 4 5 6 
#
# 1 0.012180 -0.001116 -0.005191 0.000000 0.000000 0.000000
# 2 -0.001116 0.024810 -0.008104 0.000000 0.000000 0.000000
# 3 -0.005191 -0.008104 0.015341 0.000000 0.000000 0.000000
# 4 0.000000 0.000000 0.000000 0.115620 0.000000 0.000000
# 5 0.000000 0.000000 0.000000 0.000000 0.072193 0.000000
# 6 0.000000 0.000000 0.000000 0.000000 0.000000 -0.050022
#
#
# Mechanical properties :
#
#
# Convention : Reuss Voigt Hill
#
# Bulk Modulus (GPa) = 42.53827 50.15923 46.34875
# Shear Modulus (GPa) = 22.04771 10.85329 16.45050
#
# Velocity S-wave (km/s) = 3.23746 2.27145 2.79648
# Velocity P-wave (km/s) = 5.84781 5.54294 5.69741
#
# Compressibility (1/GPa) = 0.02350824
#
# Stress axis : x y z
#
# Youngs Moduli (GPa) = 82.09956 40.30669 65.18574
#
# Poissons Ratio (x) = 0.04500 0.33836
# Poissons Ratio (y) = 0.09166 0.52828
# Poissons Ratio (z) = 0.42616 0.32665
#
# Static dielectric constant tensor:
#      x y z
#    x 1.738910 0.000000 0.000000 
#    y 0.000000 1.779200 0.000000 
#    z 0.000000 0.000000 1.788120 
# 
# From -- ./inp_files/21331.got.cif
#   From: 2010.05.17/outbox.cif.g08.bks.cpg/sg71_11_cif.got.tgz:21331.got - 2010.06.03 16:22:01.
