data_PCOD9523276
_publ_section_title
;
Structure prediction by ZEFSAII (Michael W. Deem and Ramdas Pophale) SiO2 
 PCOD9523276
Probable space group: I M M M
;
_chemical_formula_sum "Si O2"
_cell_formula_units_Z 72
_cell_length_a 34.635998
_cell_length_b 13.353215
_cell_length_c 8.824030
_cell_angle_alpha 90.000000
_cell_angle_beta 90.000000
_cell_angle_gamma 90.000000
_cell_volume 4081.130888
_symmetry_space_group_name_H-M "I M M M"
_symmetry_group_IT_number 71
_symmetry_cell_setting 'orthorhombic'
loop_
_space_group_symop_operation_xyz
x,y,z
-x,-y,z
x,-y,-z
-x,y,-z
-x,-y,-z
x,y,-z
-x,y,z
x,-y,z
1/2+x,1/2+y,1/2+z
1/2-x,1/2-y,1/2+z
1/2+x,1/2-y,1/2-z
1/2-x,1/2+y,1/2-z
1/2-x,1/2-y,1/2-z
1/2+x,1/2+y,1/2-z
1/2-x,1/2+y,1/2+z
1/2+x,1/2-y,1/2+z
loop_
_atom_site_type_symbol
_atom_site_label
_atom_site_fract_x
_atom_site_fract_y
_atom_site_fract_z
Si Si1 0.249122 0.000000 0.824496
Si Si2 0.000000 0.120151 0.328116
Si Si3 0.417558 0.382062 0.318091
Si Si4 0.782174 0.183895 0.673406
Si Si5 0.163940 0.500000 0.181959
Si Si6 0.364138 0.792191 0.175282
O O1 0.221145 0.910668 0.778899
O O2 0.290889 0.000000 0.739016
O O3 0.259273 0.000000 0.000000
O O4 0.960738 0.143310 0.239407
O O5 0.000000 0.161195 0.500000
O O6 0.000000 0.000000 0.340102
O O7 0.415770 0.379989 0.500000
O O8 0.408905 0.500000 0.271887
O O9 0.390689 0.293810 0.251236
O O10 0.772602 0.157121 0.500000
O O11 0.750000 0.250000 0.750000
O O12 0.821939 0.242070 0.673946
O O13 0.142345 0.399556 0.243038
O O14 0.164143 0.500000 0.000000
O O15 0.376224 0.808301 0.000000
#
# Coordination Sequence:
#
# PCOD9523276 Si02
#       6
#     8   8  16  16   8  16
#     4  12  24  38  56  78 109 146 191 242 294 350
#     4   9  17  33  59  88 119 156 191 227 280 343
#     4  10  21  37  59  90 124 155 190 234 285 341
#     4  11  23  38  57  80 109 147 193 242 293 344
#     4  12  24  40  62  81 109 150 199 245 292 346
#     4  11  24  40  59  84 116 152 195 242 291 344
#
# _framework density 17.642168999999999
#
# number of rings (size 3 to 8) (size 9 to 14) (size 15 to 20)
#    0.000    1.222    2.222    4.333    1.556    5.333 
#    0.000    0.000    0.000    0.667    0.000    4.667 
#    0.000    0.000    0.000    0.000    0.000    0.000 
#
# Total GULP energy -200618.125814 kJ/mol
# GULP energy per Si atom -5572.725717 kJ/mol
# Density = 1.760201 g / cm^3
# Si number density = 17.642169 Si / 1000 Ang^3
#
#
#
# Elastic Constant Matrix: (Units=GPa)
#
#
# Indices 1 2 3 4 5 6 
#
# 1 75.7370 33.7573 46.2571 0.0000 0.0000 0.0000
# 2 33.7573 129.7792 60.9811 0.0000 0.0000 0.0000
# 3 46.2571 60.9811 145.5567 0.0000 0.0000 0.0000
# 4 0.0000 0.0000 0.0000 27.4510 0.0000 0.0000
# 5 0.0000 0.0000 0.0000 0.0000 30.8256 0.0000
# 6 0.0000 0.0000 0.0000 0.0000 0.0000 28.2873
#
#
#
# Elastic Compliance Matrix: (Units=1/GPa)
#
#
# Indices 1 2 3 4 5 6 
#
# 1 0.016934 -0.002336 -0.004403 0.000000 0.000000 0.000000
# 2 -0.002336 0.009916 -0.003412 0.000000 0.000000 0.000000
# 3 -0.004403 -0.003412 0.009699 0.000000 0.000000 0.000000
# 4 0.000000 0.000000 0.000000 0.036429 0.000000 0.000000
# 5 0.000000 0.000000 0.000000 0.000000 0.032441 0.000000
# 6 0.000000 0.000000 0.000000 0.000000 0.000000 0.035352
#
#
# Mechanical properties :
#
#
# Convention : Reuss Voigt Hill
#
# Bulk Modulus (GPa) = 61.54866 70.34041 65.94454
# Shear Modulus (GPa) = 30.03236 31.31794 30.67515
#
# Velocity S-wave (km/s) = 4.13038 4.21785 4.17434
# Velocity P-wave (km/s) = 7.59669 7.97982 7.79061
#
# Compressibility (1/GPa) = 0.01624731
#
# Stress axis : x y z
#
# Youngs Moduli (GPa) = 59.05343 100.84423 103.10469
#
# Poissons Ratio (x) = 0.23556 0.45395
# Poissons Ratio (y) = 0.13794 0.35180
# Poissons Ratio (z) = 0.26000 0.34409
#
# Static dielectric constant tensor:
#      x y z
#    x 1.567570 0.000000 0.000000 
#    y 0.000000 1.568760 0.000000 
#    z 0.000000 0.000000 1.606580 
# 
# From -- ./inp_files/14382.got.cif
#   From: 2010.05.17/outbox.cif.g08.bks.cpg/sg71_8_cif.got.tgz:14382.got - 2010.06.03 16:22:01.
