data_PCOD9523418
_publ_section_title
;
Structure prediction by ZEFSAII (Michael W. Deem and Ramdas Pophale) SiO2 
 PCOD9523418
Probable space group: I M M M
;
_chemical_formula_sum "Si O2"
_cell_formula_units_Z 100
_cell_length_a 7.983291
_cell_length_b 22.532983
_cell_length_c 24.808157
_cell_angle_alpha 90.000000
_cell_angle_beta 90.000000
_cell_angle_gamma 90.000000
_cell_volume 4462.673879
_symmetry_space_group_name_H-M "I M M M"
_symmetry_group_IT_number 71
_symmetry_cell_setting 'orthorhombic'
loop_
_space_group_symop_operation_xyz
x,y,z
-x,-y,z
x,-y,-z
-x,y,-z
-x,-y,-z
x,y,-z
-x,y,z
x,-y,z
1/2+x,1/2+y,1/2+z
1/2-x,1/2-y,1/2+z
1/2+x,1/2-y,1/2-z
1/2-x,1/2+y,1/2-z
1/2-x,1/2-y,1/2-z
1/2+x,1/2+y,1/2-z
1/2-x,1/2+y,1/2+z
1/2+x,1/2-y,1/2+z
loop_
_atom_site_type_symbol
_atom_site_label
_atom_site_fract_x
_atom_site_fract_y
_atom_site_fract_z
Si Si1 0.302615 0.564914 0.085407
Si Si2 0.813755 0.075485 0.713215
Si Si3 0.313680 0.814995 0.243231
Si Si4 0.000000 0.500000 0.751582
Si Si5 0.799304 0.566159 0.435702
Si Si6 0.192598 0.817252 0.873057
Si Si7 0.201126 0.800721 0.437519
O O1 0.500000 0.565371 0.069869
O O2 0.234056 0.500000 0.066270
O O3 0.293417 0.562099 0.150243
O O4 0.235719 0.630800 0.070661
O O5 0.804643 0.144710 0.721454
O O6 0.652347 0.049909 0.744130
O O7 0.000000 0.057701 0.730903
O O8 0.500000 0.820877 0.264079
O O9 0.250000 0.750000 0.250000
O O10 0.301714 0.828579 0.179983
O O11 0.772050 0.567191 0.500000
O O12 0.743924 0.500000 0.415961
O O13 0.719654 0.624959 0.410523
O O14 0.000000 0.569169 0.426430
O O15 0.233085 0.754041 0.901458
O O16 0.000000 0.815367 0.855683
O O17 0.233604 0.785446 0.500000
O O18 0.000000 0.802887 0.428956
#
# Coordination Sequence:
#
# PCOD9523418 Si02
#       7
#    16  16  16   4  16  16  16
#     4   9  18  35  60  89 125 164 205 259 316 375
#     4  11  22  41  65  95 131 170 220 265 316 386
#     4  12  25  44  67  94 126 164 211 265 328 388
#     4  12  22  40  64  98 129 174 219 260 322 376
#     4   9  19  39  66  93 121 157 202 254 314 380
#     4  12  25  41  61  88 124 166 208 256 313 377
#     4  10  21  38  62  90 120 161 212 264 318 377
#
# _framework density 22.408089
#
# number of rings (size 3 to 8) (size 9 to 14) (size 15 to 20)
#    0.000    1.440    1.600    5.040    0.000    4.480 
#    2.880    2.400    0.000    0.000    0.000    1.680 
#    0.000    0.000    0.000    0.000    0.000    0.000 
#
# Total GULP energy -278463.623498 kJ/mol
# GULP energy per Si atom -5569.272470 kJ/mol
# Density = 2.235709 g / cm^3
# Si number density = 22.408089 Si / 1000 Ang^3
#
#
#
# Elastic Constant Matrix: (Units=GPa)
#
#
# Indices 1 2 3 4 5 6 
#
# 1 100.2105 21.5543 2.5557 0.0000 0.0000 0.0000
# 2 21.5543 151.3216 23.5294 0.0000 0.0000 0.0000
# 3 2.5557 23.5294 36.4991 0.0000 0.0000 0.0000
# 4 0.0000 0.0000 0.0000 58.0750 0.0000 0.0000
# 5 0.0000 0.0000 0.0000 0.0000 9.7129 0.0000
# 6 0.0000 0.0000 0.0000 0.0000 0.0000 66.6379
#
#
#
# Elastic Compliance Matrix: (Units=1/GPa)
#
#
# Indices 1 2 3 4 5 6 
#
# 1 0.010296 -0.001505 0.000250 0.000000 0.000000 0.000000
# 2 -0.001505 0.007565 -0.004771 0.000000 0.000000 0.000000
# 3 0.000250 -0.004771 0.030456 0.000000 0.000000 0.000000
# 4 0.000000 0.000000 0.000000 0.017219 0.000000 0.000000
# 5 0.000000 0.000000 0.000000 0.000000 0.102956 0.000000
# 6 0.000000 0.000000 0.000000 0.000000 0.000000 0.015006
#
#
# Mechanical properties :
#
#
# Convention : Reuss Voigt Hill
#
# Bulk Modulus (GPa) = 27.57620 42.59001 35.08310
# Shear Modulus (GPa) = 24.07998 42.91127 33.49563
#
# Velocity S-wave (km/s) = 3.28168 4.38081 3.87046
# Velocity P-wave (km/s) = 5.16646 6.68105 5.97197
#
# Compressibility (1/GPa) = 0.03626316
#
# Stress axis : x y z
#
# Youngs Moduli (GPa) = 97.12098 132.19166 32.83389
#
# Poissons Ratio (x) = 0.19900 -0.00819
# Poissons Ratio (y) = 0.14621 0.15666
# Poissons Ratio (z) = -0.02423 0.63072
#
# Static dielectric constant tensor:
#      x y z
#    x 1.807860 0.000000 0.000000 
#    y 0.000000 2.982390 0.000000 
#    z 0.000000 0.000000 1.785530 
# 
# From -- ./inp_files/63321.got.cif
#   From: 2010.05.17/outbox.cif.g08.bks.cpg/sg71_32_cif.got.tgz:63321.got - 2010.06.03 16:22:01.
