data_PCOD9523949
_publ_section_title
;
Structure prediction by ZEFSAII (Michael W. Deem and Ramdas Pophale) SiO2 
 PCOD9523949
Probable space group: I M M M
;
_chemical_formula_sum "Si O2"
_cell_formula_units_Z 72
_cell_length_a 11.786511
_cell_length_b 17.421541
_cell_length_c 18.355379
_cell_angle_alpha 90.000000
_cell_angle_beta 90.000000
_cell_angle_gamma 90.000000
_cell_volume 3769.078557
_symmetry_space_group_name_H-M "I M M M"
_symmetry_group_IT_number 71
_symmetry_cell_setting 'orthorhombic'
loop_
_space_group_symop_operation_xyz
x,y,z
-x,-y,z
x,-y,-z
-x,y,-z
-x,-y,-z
x,y,-z
-x,y,z
x,-y,z
1/2+x,1/2+y,1/2+z
1/2-x,1/2-y,1/2+z
1/2+x,1/2-y,1/2-z
1/2-x,1/2+y,1/2-z
1/2-x,1/2-y,1/2-z
1/2+x,1/2+y,1/2-z
1/2-x,1/2+y,1/2+z
1/2+x,1/2-y,1/2+z
loop_
_atom_site_type_symbol
_atom_site_label
_atom_site_fract_x
_atom_site_fract_y
_atom_site_fract_z
Si Si1 0.786034 0.141864 0.319347
Si Si2 0.637985 0.500000 0.084734
Si Si3 0.500000 0.350876 0.579519
Si Si4 0.864600 0.590090 0.691480
Si Si5 0.249131 0.708002 0.584943
Si Si6 0.000000 0.910594 0.766873
O O1 0.808980 0.073596 0.376064
O O2 0.678695 0.127246 0.267220
O O3 0.782445 0.219872 0.364593
O O4 0.891660 0.133692 0.264264
O O5 0.500000 0.500000 0.089905
O O6 0.666165 0.500000 0.000000
O O7 0.500000 0.388595 0.500000
O O8 0.614833 0.301758 0.585108
O O9 0.500000 0.407783 0.646723
O O10 0.831580 0.500000 0.692166
O O11 0.806439 0.634412 0.624344
O O12 0.000000 0.595738 0.685635
O O13 0.213470 0.715960 0.500000
O O14 0.000000 0.000000 0.744236
#
# Coordination Sequence:
#
# PCOD9523949 Si02
#       6
#    16   8   8  16  16   8
#     4  12  22  41  65  94 131 167 213 266 317 377
#     4  11  22  38  63  97 135 170 210 265 324 378
#     4  10  24  43  64  95 128 165 213 270 322 378
#     4  11  25  43  67  96 126 168 218 262 316 382
#     4  11  26  43  65  94 129 170 214 263 324 383
#     4  12  22  39  68 100 122 164 220 265 323 378
#
# _framework density 19.102810999999999
#
# number of rings (size 3 to 8) (size 9 to 14) (size 15 to 20)
#    0.000    0.778    5.556    1.333    3.111    1.111 
#    0.000    3.333    0.000    0.667    0.000    0.000 
#    0.000    0.000    0.000    0.000    0.000    0.000 
#
# Total GULP energy -201129.549932 kJ/mol
# GULP energy per Si atom -5586.931943 kJ/mol
# Density = 1.905933 g / cm^3
# Si number density = 19.102811 Si / 1000 Ang^3
#
#
#
# Elastic Constant Matrix: (Units=GPa)
#
#
# Indices 1 2 3 4 5 6 
#
# 1 72.3191 25.0720 38.1468 0.0000 0.0000 0.0000
# 2 25.0720 98.6053 64.2673 0.0000 0.0000 0.0000
# 3 38.1468 64.2673 179.9059 0.0000 0.0000 0.0000
# 4 0.0000 0.0000 0.0000 -8.9176 0.0000 0.0000
# 5 0.0000 0.0000 0.0000 0.0000 17.4152 0.0000
# 6 0.0000 0.0000 0.0000 0.0000 0.0000 -2.6614
#
#
#
# Elastic Compliance Matrix: (Units=1/GPa)
#
#
# Indices 1 2 3 4 5 6 
#
# 1 0.016000 -0.002421 -0.002528 0.000000 0.000000 0.000000
# 2 -0.002421 0.013585 -0.004340 0.000000 0.000000 0.000000
# 3 -0.002528 -0.004340 0.007645 0.000000 0.000000 0.000000
# 4 0.000000 0.000000 0.000000 -0.112138 0.000000 0.000000
# 5 0.000000 0.000000 0.000000 0.000000 0.057421 0.000000
# 6 0.000000 0.000000 0.000000 0.000000 0.000000 -0.375744
#
#
# Mechanical properties :
#
#
# Convention : Reuss Voigt Hill
#
# Bulk Modulus (GPa) = 53.60895 67.31138 60.46017
# Shear Modulus (GPa) = -13.57088 16.05686 1.24299
#
# Velocity S-wave (km/s) = -2.66825 2.90237 0.80753
# Velocity P-wave (km/s) = 4.31643 6.82236 5.70859
#
# Compressibility (1/GPa) = 0.01865360
#
# Stress axis : x y z
#
# Youngs Moduli (GPa) = 62.49905 73.60795 130.80836
#
# Poissons Ratio (x) = 0.17819 0.33067
# Poissons Ratio (y) = 0.15129 0.56768
# Poissons Ratio (z) = 0.15799 0.31945
#
# Static dielectric constant tensor:
#      x y z
#    x 1.676310 0.000000 0.000000 
#    y 0.000000 1.650000 0.000000 
#    z 0.000000 0.000000 1.661580 
# 
# From -- ./inp_files/51687.got.cif
#   From: 2010.05.17/outbox.cif.g08.bks.cpg/sg71_26_cif.got.tgz:51687.got - 2010.06.03 16:22:01.
