data_PCOD9523256
_publ_section_title
;
Structure prediction by ZEFSAII (Michael W. Deem and Ramdas Pophale) SiO2 
 PCOD9523256
Probable space group: I M M M
;
_chemical_formula_sum "Si O2"
_cell_formula_units_Z 80
_cell_length_a 28.456919
_cell_length_b 15.759264
_cell_length_c 9.239391
_cell_angle_alpha 90.000000
_cell_angle_beta 90.000000
_cell_angle_gamma 90.000000
_cell_volume 4143.498204
_symmetry_space_group_name_H-M "I M M M"
_symmetry_group_IT_number 71
_symmetry_cell_setting 'orthorhombic'
loop_
_space_group_symop_operation_xyz
x,y,z
-x,-y,z
x,-y,-z
-x,y,-z
-x,-y,-z
x,y,-z
-x,y,z
x,-y,z
1/2+x,1/2+y,1/2+z
1/2-x,1/2-y,1/2+z
1/2+x,1/2-y,1/2-z
1/2-x,1/2+y,1/2-z
1/2-x,1/2-y,1/2-z
1/2+x,1/2+y,1/2-z
1/2-x,1/2+y,1/2+z
1/2+x,1/2-y,1/2+z
loop_
_atom_site_type_symbol
_atom_site_label
_atom_site_fract_x
_atom_site_fract_y
_atom_site_fract_z
Si Si1 0.811185 0.159640 0.171054
Si Si2 0.448177 0.000000 0.329513
Si Si3 0.289989 0.835125 0.168963
Si Si4 0.405301 0.338111 0.169343
Si Si5 0.392995 0.134566 0.837709
Si Si6 0.000000 0.102033 0.169585
O O1 0.759576 0.119147 0.197641
O O2 0.799551 0.255689 0.224945
O O3 0.856978 0.128613 0.257154
O O4 0.821293 0.157145 0.000000
O O5 0.421831 0.083087 0.276828
O O6 0.500000 0.000000 0.265408
O O7 0.450526 0.000000 0.500000
O O8 0.337903 0.886973 0.177637
O O9 0.287590 0.804000 0.000000
O O10 0.400194 0.235621 0.176551
O O11 0.452575 0.365592 0.251711
O O12 0.407617 0.362014 0.000000
O O13 0.407851 0.110888 0.000000
O O14 0.000000 0.000000 0.176244
O O15 0.000000 0.127498 0.000000
#
# Coordination Sequence:
#
# PCOD9523256 Si02
#       6
#    16   8  16  16  16   8
#     4   9  15  26  49  81 113 144 180 224 275 326
#     4  11  25  39  51  75 111 149 191 242 289 324
#     4   8  15  28  48  77 111 144 183 227 274 329
#     4  10  21  37  59  87 115 146 187 229 275 335
#     4   9  19  36  57  81 110 148 191 229 272 331
#     4  11  25  43  63  86 113 144 181 227 282 337
#
# _framework density 19.307355999999999
#
# number of rings (size 3 to 8) (size 9 to 14) (size 15 to 20)
#    0.000    2.600    0.000    3.000    1.400    6.400 
#    0.000    0.000    2.200    0.000    0.000    0.000 
#    0.000    0.000    0.000    0.000    0.000    0.000 
#
# Total GULP energy -222858.524877 kJ/mol
# GULP energy per Si atom -5571.463122 kJ/mol
# Density = 1.926341 g / cm^3
# Si number density = 19.307356 Si / 1000 Ang^3
#
#
#
# Elastic Constant Matrix: (Units=GPa)
#
#
# Indices 1 2 3 4 5 6 
#
# 1 189.9565 23.1928 94.0663 0.0000 0.0000 0.0000
# 2 23.1928 21.2489 20.7434 0.0000 0.0000 0.0000
# 3 94.0663 20.7434 115.8693 0.0000 0.0000 0.0000
# 4 0.0000 0.0000 0.0000 17.0345 0.0000 0.0000
# 5 0.0000 0.0000 0.0000 0.0000 36.9652 0.0000
# 6 0.0000 0.0000 0.0000 0.0000 0.0000 154.6550
#
#
#
# Elastic Compliance Matrix: (Units=1/GPa)
#
#
# Indices 1 2 3 4 5 6 
#
# 1 0.008986 -0.003255 -0.006712 0.000000 0.000000 0.000000
# 2 -0.003255 0.058207 -0.007778 0.000000 0.000000 0.000000
# 3 -0.006712 -0.007778 0.015472 0.000000 0.000000 0.000000
# 4 0.000000 0.000000 0.000000 0.058704 0.000000 0.000000
# 5 0.000000 0.000000 0.000000 0.000000 0.027052 0.000000
# 6 0.000000 0.000000 0.000000 0.000000 0.000000 0.006466
#
#
# Mechanical properties :
#
#
# Convention : Reuss Voigt Hill
#
# Bulk Modulus (GPa) = 21.19794 67.00885 44.10340
# Shear Modulus (GPa) = 22.11392 54.33576 38.22484
#
# Velocity S-wave (km/s) = 3.38799 5.31071 4.45433
# Velocity P-wave (km/s) = 5.12910 8.50803 7.02475
#
# Compressibility (1/GPa) = 0.04717440
#
# Stress axis : x y z
#
# Youngs Moduli (GPa) = 111.28906 17.18008 64.63355
#
# Poissons Ratio (x) = 0.05593 0.43382
# Poissons Ratio (y) = 0.36228 0.50270
# Poissons Ratio (z) = 0.74698 0.13362
#
# Static dielectric constant tensor:
#      x y z
#    x 1.715680 0.000000 0.000000 
#    y 0.000000 1.811910 0.000000 
#    z 0.000000 0.000000 1.667220 
# 
# From -- ./inp_files/14610.got.cif
#   From: 2010.05.17/outbox.cif.g08.bks.cpg/sg71_8_cif.got.tgz:14610.got - 2010.06.03 16:22:01.
