data_PCOD9524039
_publ_section_title
;
Structure prediction by ZEFSAII (Michael W. Deem and Ramdas Pophale) SiO2 
 PCOD9524039
Probable space group: I M M M
;
_chemical_formula_sum "Si O2"
_cell_formula_units_Z 104
_cell_length_a 32.447689
_cell_length_b 7.804488
_cell_length_c 24.341979
_cell_angle_alpha 90.000000
_cell_angle_beta 90.000000
_cell_angle_gamma 90.000000
_cell_volume 6164.304327
_symmetry_space_group_name_H-M "I M M M"
_symmetry_group_IT_number 71
_symmetry_cell_setting 'orthorhombic'
loop_
_space_group_symop_operation_xyz
x,y,z
-x,-y,z
x,-y,-z
-x,y,-z
-x,-y,-z
x,y,-z
-x,y,z
x,-y,z
1/2+x,1/2+y,1/2+z
1/2-x,1/2-y,1/2+z
1/2+x,1/2-y,1/2-z
1/2-x,1/2+y,1/2-z
1/2-x,1/2-y,1/2-z
1/2+x,1/2+y,1/2-z
1/2-x,1/2+y,1/2+z
1/2+x,1/2-y,1/2+z
loop_
_atom_site_type_symbol
_atom_site_label
_atom_site_fract_x
_atom_site_fract_y
_atom_site_fract_z
Si Si1 0.339076 0.795623 0.938099
Si Si2 0.047450 0.791088 0.255792
Si Si3 0.500000 0.795016 0.937244
Si Si4 0.811441 0.500000 0.066814
Si Si5 0.248127 0.197304 0.933099
Si Si6 0.418455 0.296993 0.868830
Si Si7 0.592875 0.000000 0.565879
Si Si8 0.049748 0.798931 0.868509
O O1 0.294030 0.737274 0.917969
O O2 0.377451 0.763328 0.899056
O O3 0.334547 0.000000 0.942760
O O4 0.347018 0.727731 0.000000
O O5 0.073901 0.728184 0.307269
O O6 0.060688 0.746070 0.194188
O O7 0.000000 0.735721 0.263907
O O8 0.046930 0.000000 0.256714
O O9 0.541007 0.741175 0.904944
O O10 0.500000 0.000000 0.939570
O O11 0.500000 0.729132 0.000000
O O12 0.786700 0.330387 0.084861
O O13 0.859090 0.500000 0.082722
O O14 0.810456 0.500000 0.000000
O O15 0.241721 0.000000 0.914977
O O16 0.248276 0.194231 0.000000
O O17 0.415124 0.500000 0.864286
O O18 0.570954 0.168596 0.590081
O O19 0.590333 0.000000 0.500000
O O20 0.000000 0.787154 0.872606
O O21 0.060562 0.000000 0.876888
#
# Coordination Sequence:
#
# PCOD9524039 Si02
#       8
#    16  16   8   8  16  16   8  16
#     4   9  18  31  44  64  99 134 168 214 267 320
#     4   8  15  32  52  69  95 128 171 226 261 287
#     4  11  23  35  41  55  97 145 175 210 269 332
#     4   9  18  31  50  75 106 135 164 203 252 305
#     4   8  15  29  48  68  95 133 172 210 253 305
#     4  11  20  30  47  70  93 124 174 228 269 310
#     4  11  23  36  53  88 122 138 163 206 247 309
#     4   9  19  37  58  78 108 149 181 209 249 290
#
# _framework density 16.871327000000001
#
# number of rings (size 3 to 8) (size 9 to 14) (size 15 to 20)
#    0.000    2.692    0.769    3.231    1.077    4.308 
#    2.769    2.308    0.000    0.000    0.000    1.077 
#    0.000    0.000    0.000    0.000    0.000    0.000 
#
# Total GULP energy -289782.476740 kJ/mol
# GULP energy per Si atom -5572.739937 kJ/mol
# Density = 1.683293 g / cm^3
# Si number density = 16.871327 Si / 1000 Ang^3
#
#
#
# Elastic Constant Matrix: (Units=GPa)
#
#
# Indices 1 2 3 4 5 6 
#
# 1 99.1291 47.8167 55.2775 0.0000 0.0000 0.0000
# 2 47.8167 65.7690 33.5003 0.0000 0.0000 0.0000
# 3 55.2775 33.5003 89.9324 0.0000 0.0000 0.0000
# 4 0.0000 0.0000 0.0000 30.3936 0.0000 0.0000
# 5 0.0000 0.0000 0.0000 0.0000 1.5619 0.0000
# 6 0.0000 0.0000 0.0000 0.0000 0.0000 23.0005
#
#
#
# Elastic Compliance Matrix: (Units=1/GPa)
#
#
# Indices 1 2 3 4 5 6 
#
# 1 0.019515 -0.009970 -0.008281 0.000000 0.000000 0.000000
# 2 -0.009970 0.023859 -0.002759 0.000000 0.000000 0.000000
# 3 -0.008281 -0.002759 0.017237 0.000000 0.000000 0.000000
# 4 0.000000 0.000000 0.000000 0.032902 0.000000 0.000000
# 5 0.000000 0.000000 0.000000 0.000000 0.640247 0.000000
# 6 0.000000 0.000000 0.000000 0.000000 0.000000 0.043477
#
#
# Mechanical properties :
#
#
# Convention : Reuss Voigt Hill
#
# Bulk Modulus (GPa) = 53.79200 58.66882 56.23041
# Shear Modulus (GPa) = 6.05727 18.87360 12.46544
#
# Velocity S-wave (km/s) = 1.89686 3.34829 2.72113
# Velocity P-wave (km/s) = 6.06220 7.05676 6.57831
#
# Compressibility (1/GPa) = 0.01859013
#
# Stress axis : x y z
#
# Youngs Moduli (GPa) = 51.24309 41.91314 58.01358
#
# Poissons Ratio (x) = 0.41787 0.48041
# Poissons Ratio (y) = 0.51089 0.16008
# Poissons Ratio (z) = 0.42435 0.11566
#
# Static dielectric constant tensor:
#      x y z
#    x 1.538750 0.000000 0.000000 
#    y 0.000000 1.602140 0.000000 
#    z 0.000000 0.000000 1.579090 
# 
# From -- ./inp_files/62347.got.cif
#   From: 2010.05.17/outbox.cif.g08.bks.cpg/sg71_32_cif.got.tgz:62347.got - 2010.06.03 16:22:01.
