data_PCOD9524421
_publ_section_title
;
Structure prediction by ZEFSAII (Michael W. Deem and Ramdas Pophale) SiO2 
 PCOD9524421
Probable space group: I M M M
;
_chemical_formula_sum "Si O2"
_cell_formula_units_Z 80
_cell_length_a 25.861766
_cell_length_b 20.781686
_cell_length_c 8.813312
_cell_angle_alpha 90.000000
_cell_angle_beta 90.000000
_cell_angle_gamma 90.000000
_cell_volume 4736.724233
_symmetry_space_group_name_H-M "I M M M"
_symmetry_group_IT_number 71
_symmetry_cell_setting 'orthorhombic'
loop_
_space_group_symop_operation_xyz
x,y,z
-x,-y,z
x,-y,-z
-x,y,-z
-x,-y,-z
x,y,-z
-x,y,z
x,-y,z
1/2+x,1/2+y,1/2+z
1/2-x,1/2-y,1/2+z
1/2+x,1/2-y,1/2-z
1/2-x,1/2+y,1/2-z
1/2-x,1/2-y,1/2-z
1/2+x,1/2+y,1/2-z
1/2-x,1/2+y,1/2+z
1/2+x,1/2-y,1/2+z
loop_
_atom_site_type_symbol
_atom_site_label
_atom_site_fract_x
_atom_site_fract_y
_atom_site_fract_z
Si Si1 0.112732 0.264299 0.317702
Si Si2 0.000000 0.105765 0.320852
Si Si3 0.500000 0.238487 0.820294
Si Si4 0.717757 0.809148 0.680357
Si Si5 0.113396 0.109780 0.317707
Si Si6 0.778701 0.927318 0.179932
O O1 0.115764 0.273789 0.500000
O O2 0.159324 0.300422 0.237677
O O3 0.117299 0.187098 0.293388
O O4 0.055470 0.284059 0.261037
O O5 0.056665 0.086098 0.262442
O O6 0.000000 0.089588 0.500000
O O7 0.000000 0.183665 0.309826
O O8 0.500000 0.224282 0.000000
O O9 0.720371 0.805454 0.500000
O O10 0.750000 0.750000 0.750000
O O11 0.744037 0.874506 0.737243
O O12 0.116021 0.099382 0.500000
O O13 0.162426 0.079063 0.237760
O O14 0.760690 0.000000 0.209233
O O15 0.777450 0.915225 0.000000
#
# Coordination Sequence:
#
# PCOD9524421 Si02
#       6
#    16   8   8  16  16  16
#     4   9  16  29  51  79 107 137 170 209 252 302
#     4   7  12  24  44  72  99 129 172 213 250 295
#     4   7  12  24  45  74 107 136 165 201 249 301
#     4  12  23  35  54  79 106 137 174 217 261 311
#     4   9  16  29  51  74 100 135 174 215 255 302
#     4  11  24  39  53  72 102 138 176 220 266 312
#
# _framework density 16.889309000000001
#
# number of rings (size 3 to 8) (size 9 to 14) (size 15 to 20)
#    0.000    2.400    2.000    4.800    0.000    1.600 
#    0.000    1.500    0.000    6.600    0.000    0.700 
#    0.000    5.600    0.000    0.000    0.000    0.000 
#
# Total GULP energy -223007.746798 kJ/mol
# GULP energy per Si atom -5575.193670 kJ/mol
# Density = 1.685087 g / cm^3
# Si number density = 16.889309 Si / 1000 Ang^3
#
#
#
# Elastic Constant Matrix: (Units=GPa)
#
#
# Indices 1 2 3 4 5 6 
#
# 1 149.5733 56.3815 46.8454 0.0000 0.0000 0.0000
# 2 56.3815 63.1214 49.6817 0.0000 0.0000 0.0000
# 3 46.8454 49.6817 57.0871 0.0000 0.0000 0.0000
# 4 0.0000 0.0000 0.0000 17.3268 0.0000 0.0000
# 5 0.0000 0.0000 0.0000 0.0000 26.6923 0.0000
# 6 0.0000 0.0000 0.0000 0.0000 0.0000 8.9419
#
#
#
# Elastic Compliance Matrix: (Units=1/GPa)
#
#
# Indices 1 2 3 4 5 6 
#
# 1 0.010114 -0.007941 -0.001388 0.000000 0.000000 0.000000
# 2 -0.007941 0.056526 -0.042677 0.000000 0.000000 0.000000
# 3 -0.001388 -0.042677 0.055797 0.000000 0.000000 0.000000
# 4 0.000000 0.000000 0.000000 0.057714 0.000000 0.000000
# 5 0.000000 0.000000 0.000000 0.000000 0.037464 0.000000
# 6 0.000000 0.000000 0.000000 0.000000 0.000000 0.111833
#
#
# Mechanical properties :
#
#
# Convention : Reuss Voigt Hill
#
# Bulk Modulus (GPa) = 54.27651 63.95546 59.11598
# Shear Modulus (GPa) = 11.37391 18.38373 14.87882
#
# Velocity S-wave (km/s) = 2.59789 3.30280 2.97132
# Velocity P-wave (km/s) = 6.41912 7.24529 6.84468
#
# Compressibility (1/GPa) = 0.01842418
#
# Stress axis : x y z
#
# Youngs Moduli (GPa) = 98.87312 17.69095 17.92207
#
# Poissons Ratio (x) = 0.14049 0.02488
# Poissons Ratio (y) = 0.78518 0.76486
# Poissons Ratio (z) = 0.13727 0.75499
#
# Static dielectric constant tensor:
#      x y z
#    x 1.609570 0.000000 0.000000 
#    y 0.000000 1.557240 0.000000 
#    z 0.000000 0.000000 1.565470 
# 
# From -- ./inp_files/14623.got.cif
#   From: 2010.05.17/outbox.cif.g08.bks.cpg/sg71_8_cif.got.tgz:14623.got - 2010.06.03 16:22:01.
