data_PCOD9524963
_publ_section_title
;
Structure prediction by ZEFSAII (Michael W. Deem and Ramdas Pophale) SiO2 
 PCOD9524963
Probable space group: I B A M
;
_chemical_formula_sum "Si O2"
_cell_formula_units_Z 104
_cell_length_a 16.038128
_cell_length_b 23.572384
_cell_length_c 15.157821
_cell_angle_alpha 90.000000
_cell_angle_beta 90.000000
_cell_angle_gamma 90.000000
_cell_volume 5730.518998
_symmetry_space_group_name_H-M "I B A M"
_symmetry_group_IT_number 72
_symmetry_cell_setting 'orthorhombic'
loop_
_space_group_symop_operation_xyz
x,y,z
-x,-y,z
x,-y,1/2-z
-x,y,1/2-z
-x,-y,-z
x,y,-z
-x,y,1/2+z
x,-y,1/2+z
1/2+x,1/2+y,1/2+z
1/2-x,1/2-y,1/2+z
1/2+x,1/2-y,-z
1/2-x,1/2+y,-z
1/2-x,1/2-y,1/2-z
1/2+x,1/2+y,1/2-z
1/2-x,1/2+y,z
1/2+x,1/2-y,z
loop_
_atom_site_type_symbol
_atom_site_label
_atom_site_fract_x
_atom_site_fract_y
_atom_site_fract_z
Si Si1 0.149374 0.424445 0.597220
Si Si2 0.233140 0.500000 0.250000
Si Si3 0.471179 0.076795 0.652226
Si Si4 0.717944 0.923474 0.399866
Si Si5 0.301733 0.791557 0.138466
Si Si6 0.483146 0.794531 0.897431
Si Si7 0.160400 0.293346 0.345274
O O1 0.184890 0.437038 0.500000
O O2 0.187640 0.456413 0.681849
O O3 0.051120 0.439139 0.595359
O O4 0.157884 0.356771 0.614965
O O5 0.269673 0.455921 0.176562
O O6 0.500000 0.060281 0.750000
O O7 0.379417 0.059944 0.620808
O O8 0.468984 0.145085 0.649275
O O9 0.739182 0.939161 0.500000
O O10 0.718069 0.855131 0.394300
O O11 0.391509 0.767833 0.107103
O O12 0.228020 0.748831 0.113656
O O13 0.312723 0.797602 0.243690
O O14 0.566248 0.769168 0.854585
O O15 0.502638 0.804667 0.000000
#
# Coordination Sequence:
#
# PCOD9524963 Si02
#       7
#    16   8  16  16  16  16  16
#     4  11  21  33  49  67  93 129 167 207 249 295
#     4  12  22  37  44  66  94 129 170 214 244 295
#     4  10  16  30  45  62  95 127 162 209 243 288
#     4  11  21  33  49  67  93 129 167 207 249 295
#     4  10  19  34  54  75 103 136 169 210 256 306
#     4  10  18  28  46  73 103 133 168 206 250 306
#     4  10  19  34  54  75 103 136 169 210 256 306
#
# _framework density 18.148444000000001
#
# number of rings (size 3 to 8) (size 9 to 14) (size 15 to 20)
#    0.000    1.538    3.077    7.846    0.000    3.692 
#    0.000    1.538    0.000    0.000    0.000    0.000 
#    0.000    2.462    0.000    4.462    0.000    0.154 
#
# Total GULP energy -289654.360576 kJ/mol
# GULP energy per Si atom -5570.276165 kJ/mol
# Density = 1.810714 g / cm^3
# Si number density = 18.148444 Si / 1000 Ang^3
#
#
#
# Elastic Constant Matrix: (Units=GPa)
#
#
# Indices 1 2 3 4 5 6 
#
# 1 61.8005 37.4057 -2.2842 0.0000 0.0000 0.0000
# 2 37.4057 82.5624 17.8152 0.0000 0.0000 0.0000
# 3 -2.2842 17.8152 130.3766 -0.0002 0.0000 0.0000
# 4 0.0000 0.0000 -0.0002 -21.9912 0.0001 0.0000
# 5 0.0000 0.0000 0.0000 0.0001 1.7872 0.0000
# 6 0.0000 0.0000 0.0000 0.0000 0.0000 15.8093
#
#
#
# Elastic Compliance Matrix: (Units=1/GPa)
#
#
# Indices 1 2 3 4 5 6 
#
# 1 0.022724 -0.010697 0.001860 0.000000 0.000000 0.000000
# 2 -0.010697 0.017515 -0.002581 0.000000 0.000000 0.000000
# 3 0.001860 -0.002581 0.008055 0.000000 0.000000 0.000000
# 4 0.000000 0.000000 0.000000 -0.045473 0.000001 0.000000
# 5 0.000000 0.000000 0.000000 0.000001 0.559534 0.000000
# 6 0.000000 0.000000 0.000000 0.000000 0.000000 0.063254
#
#
# Mechanical properties :
#
#
# Convention : Reuss Voigt Hill
#
# Bulk Modulus (GPa) = 39.27840 42.29032 40.78436
# Shear Modulus (GPa) = 7.61114 13.90792 10.75953
#
# Velocity S-wave (km/s) = 2.05010 2.77129 2.43752
# Velocity P-wave (km/s) = 5.22434 5.79596 5.51756
#
# Compressibility (1/GPa) = 0.02545928
#
# Stress axis : x y z
#
# Youngs Moduli (GPa) = 44.00605 57.09344 124.14161
#
# Poissons Ratio (x) = 0.61071 -0.23087
# Poissons Ratio (y) = 0.47072 0.32038
# Poissons Ratio (z) = -0.08184 0.14734
#
# Static dielectric constant tensor:
#      x y z
#    x 1.633260 0.000000 0.000000 
#    y 0.000000 1.683660 0.000000 
#    z 0.000000 0.000000 1.704080 
# 
# From -- ./inp_files/23364.got.cif
#   From: 2010.05.17/outbox.cif.g08.bks.cpg/sg72_12_cif.got.tgz:23364.got - 2010.06.03 17:03:01.
