data_PCOD9524153
_publ_section_title
;
Structure prediction by ZEFSAII (Michael W. Deem and Ramdas Pophale) SiO2 
 PCOD9524153
Probable space group: I M M M
;
_chemical_formula_sum "Si O2"
_cell_formula_units_Z 96
_cell_length_a 26.073504
_cell_length_b 16.662384
_cell_length_c 12.070091
_cell_angle_alpha 90.000000
_cell_angle_beta 90.000000
_cell_angle_gamma 90.000000
_cell_volume 5243.811637
_symmetry_space_group_name_H-M "I M M M"
_symmetry_group_IT_number 71
_symmetry_cell_setting 'orthorhombic'
loop_
_space_group_symop_operation_xyz
x,y,z
-x,-y,z
x,-y,-z
-x,y,-z
-x,-y,-z
x,y,-z
-x,y,z
x,-y,z
1/2+x,1/2+y,1/2+z
1/2-x,1/2-y,1/2+z
1/2+x,1/2-y,1/2-z
1/2-x,1/2+y,1/2-z
1/2-x,1/2-y,1/2-z
1/2+x,1/2+y,1/2-z
1/2-x,1/2+y,1/2+z
1/2+x,1/2-y,1/2+z
loop_
_atom_site_type_symbol
_atom_site_label
_atom_site_fract_x
_atom_site_fract_y
_atom_site_fract_z
Si Si1 0.659281 0.361764 0.234051
Si Si2 0.744308 0.907405 0.128765
Si Si3 0.058168 0.124499 0.371971
Si Si4 0.154786 0.326093 0.767747
Si Si5 0.327028 0.093267 0.500000
Si Si6 0.942742 0.679997 0.372273
Si Si7 0.703957 0.405730 0.000000
O O1 0.699507 0.402828 0.316002
O O2 0.602956 0.399100 0.212785
O O3 0.655069 0.270149 0.272986
O O4 0.683268 0.364526 0.110617
O O5 0.704851 0.854972 0.200207
O O6 0.727102 0.000000 0.134390
O O7 0.745528 0.882313 0.000000
O O8 0.069010 0.100062 0.500000
O O9 0.058855 0.222231 0.371732
O O10 0.000000 0.099378 0.345310
O O11 0.154861 0.363902 0.888756
O O12 0.103773 0.350422 0.701130
O O13 0.265203 0.097296 0.500000
O O14 0.341815 0.000000 0.500000
O O15 0.936020 0.655464 0.500000
O O16 0.000000 0.656535 0.335512
O O17 0.689045 0.500000 0.000000
#
# Coordination Sequence:
#
# PCOD9524153 Si02
#       7
#    16  16  16  16   8  16   8
#     4  11  21  33  58  84 112 143 187 230 267 325
#     4  11  24  38  53  76 111 148 179 224 282 331
#     4   8  14  27  49  80 111 137 171 223 279 316
#     4  11  22  34  59  84 109 141 191 234 270 328
#     4  11  24  40  55  77 115 157 184 222 290 344
#     4   8  15  30  53  82 113 140 174 227 285 329
#     4  11  22  36  55  81 117 157 184 216 282 344
#
# _framework density 18.307293000000001
#
# number of rings (size 3 to 8) (size 9 to 14) (size 15 to 20)
#    0.000    2.000    2.500    3.000    3.500    0.000 
#    0.000    0.417    0.000    5.500    0.000    7.000 
#    0.000    0.000    0.000    0.000    0.000    0.000 
#
# Total GULP energy -267894.589077 kJ/mol
# GULP energy per Si atom -5581.137272 kJ/mol
# Density = 1.826562 g / cm^3
# Si number density = 18.307293 Si / 1000 Ang^3
#
#
#
# Elastic Constant Matrix: (Units=GPa)
#
#
# Indices 1 2 3 4 5 6 
#
# 1 125.2274 22.2931 47.8991 0.0000 0.0000 0.0000
# 2 22.2931 59.9855 33.8939 0.0000 0.0000 0.0000
# 3 47.8991 33.8939 107.7832 0.0000 0.0000 0.0000
# 4 0.0000 0.0000 0.0000 12.8216 0.0000 0.0000
# 5 0.0000 0.0000 0.0000 0.0000 94.3394 0.0000
# 6 0.0000 0.0000 0.0000 0.0000 0.0000 -24.7291
#
#
#
# Elastic Compliance Matrix: (Units=1/GPa)
#
#
# Indices 1 2 3 4 5 6 
#
# 1 0.009720 -0.001425 -0.003872 0.000000 0.000000 0.000000
# 2 -0.001425 0.020482 -0.005808 0.000000 0.000000 0.000000
# 3 -0.003872 -0.005808 0.012825 0.000000 0.000000 0.000000
# 4 0.000000 0.000000 0.000000 0.077994 0.000000 0.000000
# 5 0.000000 0.000000 0.000000 0.000000 0.010600 0.000000
# 6 0.000000 0.000000 0.000000 0.000000 0.000000 -0.040438
#
#
# Mechanical properties :
#
#
# Convention : Reuss Voigt Hill
#
# Bulk Modulus (GPa) = 48.03410 55.68537 51.85973
# Shear Modulus (GPa) = 41.55272 29.08037 35.31654
#
# Velocity S-wave (km/s) = 4.76934 3.98987 4.39691
# Velocity P-wave (km/s) = 7.52486 7.19086 7.35975
#
# Compressibility (1/GPa) = 0.02081854
#
# Stress axis : x y z
#
# Youngs Moduli (GPa) = 102.88107 48.82409 77.97468
#
# Poissons Ratio (x) = 0.06956 0.30188
# Poissons Ratio (y) = 0.14658 0.45284
# Poissons Ratio (z) = 0.39831 0.28355
#
# Static dielectric constant tensor:
#      x y z
#    x 1.655880 0.000000 0.000000 
#    y 0.000000 1.628220 0.000000 
#    z 0.000000 0.000000 1.599690 
# 
# From -- ./inp_files/28827.got.cif
#   From: 2010.05.17/outbox.cif.g08.bks.cpg/sg71_15_cif.got.tgz:28827.got - 2010.06.03 16:22:01.
