data_PCOD9524447
_publ_section_title
;
Structure prediction by ZEFSAII (Michael W. Deem and Ramdas Pophale) SiO2 
 PCOD9524447
Probable space group: I M M M
;
_chemical_formula_sum "Si O2"
_cell_formula_units_Z 64
_cell_length_a 16.505675
_cell_length_b 9.281050
_cell_length_c 23.101857
_cell_angle_alpha 90.000000
_cell_angle_beta 90.000000
_cell_angle_gamma 90.000000
_cell_volume 3538.973357
_symmetry_space_group_name_H-M "I M M M"
_symmetry_group_IT_number 71
_symmetry_cell_setting 'orthorhombic'
loop_
_space_group_symop_operation_xyz
x,y,z
-x,-y,z
x,-y,-z
-x,y,-z
-x,-y,-z
x,y,-z
-x,y,z
x,-y,z
1/2+x,1/2+y,1/2+z
1/2-x,1/2-y,1/2+z
1/2+x,1/2-y,1/2-z
1/2-x,1/2+y,1/2-z
1/2-x,1/2-y,1/2-z
1/2+x,1/2+y,1/2-z
1/2-x,1/2+y,1/2+z
1/2+x,1/2-y,1/2+z
loop_
_atom_site_type_symbol
_atom_site_label
_atom_site_fract_x
_atom_site_fract_y
_atom_site_fract_z
Si Si1 0.365737 0.668254 0.363063
Si Si2 0.165365 0.828658 0.264779
Si Si3 0.593655 0.175166 0.000000
Si Si4 0.000000 0.328490 0.933512
Si Si5 0.826869 0.671965 0.621462
O O1 0.381280 0.500000 0.375626
O O2 0.383588 0.691472 0.294786
O O3 0.421642 0.766733 0.401626
O O4 0.270356 0.694227 0.375359
O O5 0.250000 0.750000 0.250000
O O6 0.135502 0.756967 0.324073
O O7 0.177738 0.000000 0.272247
O O8 0.638027 0.218600 0.940564
O O9 0.500000 0.221283 0.000000
O O10 0.594856 0.000000 0.000000
O O11 0.000000 0.500000 0.931200
O O12 0.000000 0.281350 0.000000
O O13 0.840735 0.500000 0.628608
#
# Coordination Sequence:
#
# PCOD9524447 Si02
#       5
#    16  16   8   8  16
#     4   9  19  35  56  79 105 144 185 220 263 322
#     4   9  17  32  55  82 109 138 177 224 268 317
#     4   9  18  34  55  82 115 144 178 223 265 317
#     4  11  25  39  51  77 113 142 177 230 277 317
#     4   9  18  33  57  84 110 144 184 221 265 321
#
# _framework density 18.084340000000001
#
# number of rings (size 3 to 8) (size 9 to 14) (size 15 to 20)
#    0.000    2.750    0.000    2.625    1.750    6.000 
#    2.250    0.625    0.000    0.750    0.000    0.000 
#    0.000    0.000    0.000    0.000    0.000    0.000 
#
# Total GULP energy -178345.317548 kJ/mol
# GULP energy per Si atom -5573.291173 kJ/mol
# Density = 1.804318 g / cm^3
# Si number density = 18.084340 Si / 1000 Ang^3
#
#
#
# Elastic Constant Matrix: (Units=GPa)
#
#
# Indices 1 2 3 4 5 6 
#
# 1 45.0861 34.5447 60.0055 0.0000 0.0000 0.0000
# 2 34.5447 56.0344 75.0612 0.0000 0.0000 0.0000
# 3 60.0055 75.0612 197.9524 0.0000 0.0000 0.0000
# 4 0.0000 0.0000 0.0000 34.0845 0.0000 0.0000
# 5 0.0000 0.0000 0.0000 0.0000 7.6432 0.0000
# 6 0.0000 0.0000 0.0000 0.0000 0.0000 17.4202
#
#
#
# Elastic Compliance Matrix: (Units=1/GPa)
#
#
# Indices 1 2 3 4 5 6 
#
# 1 0.045758 -0.019569 -0.006451 0.000000 0.000000 0.000000
# 2 -0.019569 0.044637 -0.010994 0.000000 0.000000 0.000000
# 3 -0.006451 -0.010994 0.011176 0.000000 0.000000 0.000000
# 4 0.000000 0.000000 0.000000 0.029339 0.000000 0.000000
# 5 0.000000 0.000000 0.000000 0.000000 0.130836 0.000000
# 6 0.000000 0.000000 0.000000 0.000000 0.000000 0.057405
#
#
# Mechanical properties :
#
#
# Convention : Reuss Voigt Hill
#
# Bulk Modulus (GPa) = 36.30446 70.92177 53.61311
# Shear Modulus (GPa) = 12.42672 20.46033 16.44352
#
# Velocity S-wave (km/s) = 2.62420 3.36725 3.01868
# Velocity P-wave (km/s) = 5.41300 7.37701 6.46996
#
# Compressibility (1/GPa) = 0.02754483
#
# Stress axis : x y z
#
# Youngs Moduli (GPa) = 21.85394 22.40280 89.47847
#
# Poissons Ratio (x) = 0.43840 0.57718
# Poissons Ratio (y) = 0.42766 0.98373
# Poissons Ratio (z) = 0.14097 0.24630
#
# Static dielectric constant tensor:
#      x y z
#    x 1.625600 0.000000 0.000000 
#    y 0.000000 1.599070 0.000000 
#    z 0.000000 0.000000 1.642200 
# 
# From -- ./inp_files/7549.got.cif
#   From: 2010.05.17/outbox.cif.g08.bks.cpg/sg71_4_cif.got.tgz:7549.got - 2010.06.03 16:22:01.
