data_PCOD9524527
_publ_section_title
;
Structure prediction by ZEFSAII (Michael W. Deem and Ramdas Pophale) SiO2 
 PCOD9524527
Probable space group: I M M M
;
_chemical_formula_sum "Si O2"
_cell_formula_units_Z 112
_cell_length_a 26.023003
_cell_length_b 24.161436
_cell_length_c 7.290568
_cell_angle_alpha 90.000000
_cell_angle_beta 90.000000
_cell_angle_gamma 90.000000
_cell_volume 4583.967388
_symmetry_space_group_name_H-M "I M M M"
_symmetry_group_IT_number 71
_symmetry_cell_setting 'orthorhombic'
loop_
_space_group_symop_operation_xyz
x,y,z
-x,-y,z
x,-y,-z
-x,y,-z
-x,-y,-z
x,y,-z
-x,y,z
x,-y,z
1/2+x,1/2+y,1/2+z
1/2-x,1/2-y,1/2+z
1/2+x,1/2-y,1/2-z
1/2-x,1/2+y,1/2-z
1/2-x,1/2-y,1/2-z
1/2+x,1/2+y,1/2-z
1/2-x,1/2+y,1/2+z
1/2+x,1/2-y,1/2+z
loop_
_atom_site_type_symbol
_atom_site_label
_atom_site_fract_x
_atom_site_fract_y
_atom_site_fract_z
Si Si1 0.864363 0.438471 0.776468
Si Si2 0.444075 0.320031 0.275954
Si Si3 0.082496 0.940348 0.223159
Si Si4 0.943279 0.354055 0.221622
Si Si5 0.782329 0.348216 0.217464
Si Si6 0.201765 0.060965 0.781196
Si Si7 0.141531 0.738906 0.779209
O O1 0.856087 0.500000 0.711109
O O2 0.919013 0.412620 0.724690
O O3 0.821160 0.395774 0.713475
O O4 0.862106 0.439015 0.000000
O O5 0.443301 0.316744 0.500000
O O6 0.500000 0.295238 0.222244
O O7 0.443387 0.383816 0.219322
O O8 0.390382 0.292268 0.213937
O O9 0.142487 0.937538 0.275656
O O10 0.062046 0.000000 0.282938
O O11 0.080434 0.940210 0.000000
O O12 0.900942 0.308145 0.263914
O O13 0.000000 0.344122 0.292104
O O14 0.945899 0.353224 0.000000
O O15 0.728526 0.379975 0.240250
O O16 0.804431 0.288728 0.286660
O O17 0.789239 0.343981 0.000000
O O18 0.223287 0.000000 0.715126
O O19 0.203097 0.057821 0.000000
O O20 0.146633 0.746121 0.000000
#
# Coordination Sequence:
#
# PCOD9524527 Si02
#       7
#    16  16  16  16  16  16  16
#     4   8  13  19  27  43  67  94 126 164 203 240
#     4   9  15  23  39  61  85 116 148 176 215 271
#     4   8  15  27  40  57  84 115 146 182 223 264
#     4   8  12  17  25  38  62  96 125 151 192 247
#     4   9  16  26  41  60  84 114 146 181 218 257
#     4   9  17  29  44  61  85 118 151 184 225 268
#     4   8  14  23  34  53  81 108 136 174 218 258
#
# _framework density 24.432983
#
# number of rings (size 3 to 8) (size 9 to 14) (size 15 to 20)
#    0.000    3.571    0.000    3.429    0.000    3.143 
#    0.000    3.571    0.000    0.000    0.000    0.000 
#    0.000   16.000    0.000   49.000    0.000   40.286 
#
# Total GULP energy -311938.972968 kJ/mol
# GULP energy per Si atom -5570.338803 kJ/mol
# Density = 2.437737 g / cm^3
# Si number density = 24.432983 Si / 1000 Ang^3
#
#
#
# Elastic Constant Matrix: (Units=GPa)
#
#
# Indices 1 2 3 4 5 6 
#
# 1 89.9483 41.9437 -4.3768 0.0000 0.0000 0.0000
# 2 41.9437 120.3743 2.3230 0.0000 0.0000 0.0000
# 3 -4.3768 2.3230 99.3284 0.0000 0.0000 0.0000
# 4 0.0000 0.0000 0.0000 -8.2222 0.0000 0.0000
# 5 0.0000 0.0000 0.0000 0.0000 -3.0436 0.0000
# 6 0.0000 0.0000 0.0000 0.0000 0.0000 7.4497
#
#
#
# Elastic Compliance Matrix: (Units=1/GPa)
#
#
# Indices 1 2 3 4 5 6 
#
# 1 0.013322 -0.004655 0.000696 0.000000 0.000000 0.000000
# 2 -0.004655 0.009938 -0.000438 0.000000 0.000000 0.000000
# 3 0.000696 -0.000438 0.010109 0.000000 0.000000 0.000000
# 4 0.000000 0.000000 0.000000 -0.121622 0.000000 0.000000
# 5 0.000000 0.000000 0.000000 0.000000 -0.328554 0.000000
# 6 0.000000 0.000000 0.000000 0.000000 0.000000 0.134234
#
#
# Mechanical properties :
#
#
# Convention : Reuss Voigt Hill
#
# Bulk Modulus (GPa) = 40.69256 43.27011 41.98133
# Shear Modulus (GPa) = -18.82617 17.22084 -0.80266
#
# Velocity S-wave (km/s) = -2.77884 2.65772 -0.57379
# Velocity P-wave (km/s) = 2.52883 5.21212 4.09641
#
# Compressibility (1/GPa) = 0.02457452
#
# Stress axis : x y z
#
# Youngs Moduli (GPa) = 75.06236 100.62344 98.92653
#
# Poissons Ratio (x) = 0.46845 -0.06884
# Poissons Ratio (y) = 0.34945 0.04329
# Poissons Ratio (z) = -0.05224 0.04403
#
# Static dielectric constant tensor:
#      x y z
#    x 1.968380 0.000000 0.000000 
#    y 0.000000 1.977360 0.000000 
#    z 0.000000 0.000000 2.001810 
# 
# From -- ./inp_files/29235.got.cif
#   From: 2010.05.17/outbox.cif.g08.bks.cpg/sg71_15_cif.got.tgz:29235.got - 2010.06.03 16:22:01.
