data_PCOD9524144
_publ_section_title
;
Structure prediction by ZEFSAII (Michael W. Deem and Ramdas Pophale) SiO2 
 PCOD9524144
Probable space group: I M M M
;
_chemical_formula_sum "Si O2"
_cell_formula_units_Z 72
_cell_length_a 8.559882
_cell_length_b 22.910679
_cell_length_c 16.925682
_cell_angle_alpha 90.000000
_cell_angle_beta 90.000000
_cell_angle_gamma 90.000000
_cell_volume 3319.341345
_symmetry_space_group_name_H-M "I M M M"
_symmetry_group_IT_number 71
_symmetry_cell_setting 'orthorhombic'
loop_
_space_group_symop_operation_xyz
x,y,z
-x,-y,z
x,-y,-z
-x,y,-z
-x,-y,-z
x,y,-z
-x,y,z
x,-y,z
1/2+x,1/2+y,1/2+z
1/2-x,1/2-y,1/2+z
1/2+x,1/2-y,1/2-z
1/2-x,1/2+y,1/2-z
1/2-x,1/2-y,1/2-z
1/2+x,1/2+y,1/2-z
1/2-x,1/2+y,1/2+z
1/2+x,1/2-y,1/2+z
loop_
_atom_site_type_symbol
_atom_site_label
_atom_site_fract_x
_atom_site_fract_y
_atom_site_fract_z
Si Si1 0.325979 0.933039 0.656184
Si Si2 0.319463 0.227749 0.000000
Si Si3 0.185487 0.598133 0.665849
Si Si4 0.181781 0.226236 0.168311
Si Si5 0.500000 0.568935 0.093952
Si Si6 0.681162 0.085150 0.000000
O O1 0.500000 0.907243 0.639257
O O2 0.307591 0.933844 0.750962
O O3 0.165676 0.905480 0.623608
O O4 0.330914 0.000000 0.626552
O O5 0.248305 0.247607 0.083676
O O6 0.307336 0.156350 0.000000
O O7 0.500000 0.243406 0.000000
O O8 0.280763 0.657558 0.671958
O O9 0.242528 0.567106 0.585695
O O10 0.000000 0.612635 0.654125
O O11 0.250000 0.250000 0.250000
O O12 0.000000 0.238213 0.168005
O O13 0.500000 0.500000 0.119385
O O14 0.500000 0.570785 0.000000
O O15 0.500000 0.067645 0.000000
#
# Coordination Sequence:
#
# PCOD9524144 Si02
#       6
#    16   8  16  16   8   8
#     4   9  18  32  52  77 105 136 169 211 260 306
#     4   9  17  33  53  74 102 131 169 217 257 303
#     4   9  17  31  51  74 103 134 170 209 249 298
#     4  11  21  33  53  78 103 136 175 212 260 311
#     4   9  18  32  52  75  99 131 173 216 258 310
#     4   7  12  25  46  71  96 129 165 202 240 284
#
# _framework density 21.691051999999999
#
# number of rings (size 3 to 8) (size 9 to 14) (size 15 to 20)
#    0.000    2.778    0.000    3.667    1.556    0.444 
#    0.000    2.778    2.444    3.333    0.000    2.333 
#    0.000    0.000    0.000    0.000    0.000    0.000 
#
# Total GULP energy -200535.675108 kJ/mol
# GULP energy per Si atom -5570.435420 kJ/mol
# Density = 2.164168 g / cm^3
# Si number density = 21.691052 Si / 1000 Ang^3
#
#
#
# Elastic Constant Matrix: (Units=GPa)
#
#
# Indices 1 2 3 4 5 6 
#
# 1 185.5264 11.0582 97.8228 0.0000 0.0000 0.0000
# 2 11.0582 26.8563 26.9073 0.0000 0.0000 0.0000
# 3 97.8228 26.9073 140.3451 -0.0002 0.0000 0.0000
# 4 0.0000 0.0000 -0.0002 -49.7750 0.0000 0.0000
# 5 0.0000 0.0000 0.0000 0.0000 41.3886 0.0000
# 6 0.0000 0.0000 0.0000 0.0000 0.0000 -5.9074
#
#
#
# Elastic Compliance Matrix: (Units=1/GPa)
#
#
# Indices 1 2 3 4 5 6 
#
# 1 0.008725 0.003095 -0.006675 0.000000 0.000000 0.000000
# 2 0.003095 0.047186 -0.011204 0.000000 0.000000 0.000000
# 3 -0.006675 -0.011204 0.013926 0.000000 0.000000 0.000000
# 4 0.000000 0.000000 0.000000 -0.020090 0.000000 0.000000
# 5 0.000000 0.000000 0.000000 0.000000 0.024161 0.000000
# 6 0.000000 0.000000 0.000000 0.000000 0.000000 -0.169280
#
#
# Mechanical properties :
#
#
# Convention : Reuss Voigt Hill
#
# Bulk Modulus (GPa) = 24.83284 69.36718 47.10001
# Shear Modulus (GPa) = -95.45222 11.60389 -41.92417
#
# Velocity S-wave (km/s) = -6.64085 2.31543 -4.40112
# Velocity P-wave (km/s) = 6.87953 6.26078 2.01625
#
# Compressibility (1/GPa) = 0.04026925
#
# Stress axis : x y z
#
# Youngs Moduli (GPa) = 114.61227 21.19279 71.80909
#
# Poissons Ratio (x) = -0.06559 0.47932
# Poissons Ratio (y) = -0.35472 0.80454
# Poissons Ratio (z) = 0.76502 0.23744
#
# Static dielectric constant tensor:
#      x y z
#    x 1.803150 0.000000 0.000000 
#    y 0.000000 1.833990 0.000000 
#    z 0.000000 0.000000 1.735790 
# 
# From -- ./inp_files/31480.got.cif
#   From: 2010.05.17/outbox.cif.g08.bks.cpg/sg71_16_cif.got.tgz:31480.got - 2010.06.03 16:22:01.
