data_PCOD9524457
_publ_section_title
;
Structure prediction by ZEFSAII (Michael W. Deem and Ramdas Pophale) SiO2 
 PCOD9524457
Probable space group: I M M M
;
_chemical_formula_sum "Si O2"
_cell_formula_units_Z 112
_cell_length_a 14.253632
_cell_length_b 26.168003
_cell_length_c 15.753279
_cell_angle_alpha 90.000000
_cell_angle_beta 90.000000
_cell_angle_gamma 90.000000
_cell_volume 5875.801119
_symmetry_space_group_name_H-M "I M M M"
_symmetry_group_IT_number 71
_symmetry_cell_setting 'orthorhombic'
loop_
_space_group_symop_operation_xyz
x,y,z
-x,-y,z
x,-y,-z
-x,y,-z
-x,-y,-z
x,y,-z
-x,y,z
x,-y,z
1/2+x,1/2+y,1/2+z
1/2-x,1/2-y,1/2+z
1/2+x,1/2-y,1/2-z
1/2-x,1/2+y,1/2-z
1/2-x,1/2-y,1/2-z
1/2+x,1/2+y,1/2-z
1/2-x,1/2+y,1/2+z
1/2+x,1/2-y,1/2+z
loop_
_atom_site_type_symbol
_atom_site_label
_atom_site_fract_x
_atom_site_fract_y
_atom_site_fract_z
Si Si1 0.390881 0.561114 0.750000
Si Si2 0.108018 0.334929 0.852918
Si Si3 0.112603 0.781250 0.849472
Si Si4 0.387397 0.718750 0.150527
Si Si5 0.206672 0.883260 0.593735
Si Si6 0.206671 0.116741 0.093735
Si Si7 0.391982 0.834929 0.147079
O O1 0.500000 0.577816 0.750000
O O2 0.387702 0.500000 0.749999
O O3 0.339802 0.583452 0.832633
O O4 0.339801 0.583452 0.667367
O O5 0.134093 0.276556 0.877515
O O6 0.183322 0.373796 0.889482
O O7 0.112104 0.336369 0.749999
O O8 0.000000 0.344125 0.877791
O O9 0.140213 0.786208 0.749999
O O10 0.160543 0.826991 0.898656
O O11 0.000000 0.786369 0.853782
O O12 0.500000 0.713630 0.146216
O O13 0.339456 0.673008 0.101343
O O14 0.365907 0.776555 0.122482
O O15 0.190250 0.904272 0.500000
O O16 0.316678 0.126205 0.110515
O O17 0.190247 0.095729 0.000000
O O18 0.500000 0.844124 0.122206
#
# Coordination Sequence:
#
# PCOD9524457 Si02
#       7
#    16  16  16  16  16  16  16
#     4  11  26  48  68  85 111 145 186 246 308 353
#     4   9  18  34  57  86 124 167 202 232 272 330
#     4   9  17  31  53  83 122 164 201 235 274 331
#     4   9  17  31  53  83 122 164 201 235 274 331
#     4  12  23  36  61  91 118 154 197 239 290 350
#     4  12  23  36  61  91 118 154 197 239 290 350
#     4   9  18  34  57  86 124 167 202 232 272 330
#
# _framework density 19.061230999999999
#
# number of rings (size 3 to 8) (size 9 to 14) (size 15 to 20)
#    0.000    1.857    2.857    3.429    0.000    8.000 
#    0.000    4.286    0.000    1.714    0.000    2.000 
#    0.000    0.000    0.000    0.000    0.000    0.000 
#
# Total GULP energy -312987.883303 kJ/mol
# GULP energy per Si atom -5589.069345 kJ/mol
# Density = 1.901785 g / cm^3
# Si number density = 19.061231 Si / 1000 Ang^3
#
#
#
# Elastic Constant Matrix: (Units=GPa)
#
#
# Indices 1 2 3 4 5 6 
#
# 1 86.8790 47.4667 48.8485 -0.0001 0.0000 0.0000
# 2 47.4667 50.7513 41.4336 0.0005 -0.0001 -0.0001
# 3 48.8485 41.4336 116.2576 0.0002 0.0000 0.0000
# 4 -0.0001 0.0005 0.0002 -8.8853 -0.0001 -0.0001
# 5 0.0000 -0.0001 0.0000 -0.0001 -30.8814 0.0001
# 6 0.0000 -0.0001 0.0000 -0.0001 0.0001 25.6447
#
#
#
# Elastic Compliance Matrix: (Units=1/GPa)
#
#
# Indices 1 2 3 4 5 6 
#
# 1 0.024244 -0.020250 -0.002969 -0.000002 0.000000 0.000000
# 2 -0.020250 0.044705 -0.007424 0.000003 0.000000 0.000000
# 3 -0.002969 -0.007424 0.012495 0.000000 0.000000 0.000000
# 4 -0.000002 0.000003 0.000000 -0.112545 0.000000 0.000000
# 5 0.000000 0.000000 0.000000 0.000000 -0.032382 0.000000
# 6 0.000000 0.000000 0.000000 0.000000 0.000000 0.038994
#
#
# Mechanical properties :
#
#
# Convention : Reuss Voigt Hill
#
# Bulk Modulus (GPa) = 49.61280 58.82061 54.21671
# Shear Modulus (GPa) = 114.89855 4.91822 59.90838
#
# Velocity S-wave (km/s) = 7.77236 1.60805 5.61228
# Velocity P-wave (km/s) = 10.32621 5.86289 8.39655
#
# Compressibility (1/GPa) = 0.02015609
#
# Stress axis : x y z
#
# Youngs Moduli (GPa) = 41.24763 22.36908 80.03156
#
# Poissons Ratio (x) = 0.45298 0.23765
# Poissons Ratio (y) = 0.83528 0.59413
# Poissons Ratio (z) = 0.12248 0.16606
#
# Static dielectric constant tensor:
#      x y z
#    x 1.686800 0.000000 0.000000 
#    y 0.000000 1.623370 0.000000 
#    z 0.000000 0.000000 1.686630 
# 
# From -- ./inp_files/35124.got.cif
#   From: 2010.05.17/outbox.cif.g08.bks.cpg/sg71_18_cif.got.tgz:35124.got - 2010.06.03 16:22:01.
