data_PCOD9524070
_publ_section_title
;
Structure prediction by ZEFSAII (Michael W. Deem and Ramdas Pophale) SiO2 
 PCOD9524070
Probable space group: I M M M
;
_chemical_formula_sum "Si O2"
_cell_formula_units_Z 58
_cell_length_a 13.472134
_cell_length_b 25.273493
_cell_length_c 9.958445
_cell_angle_alpha 90.000000
_cell_angle_beta 90.000000
_cell_angle_gamma 90.000000
_cell_volume 3390.729869
_symmetry_space_group_name_H-M "I M M M"
_symmetry_group_IT_number 71
_symmetry_cell_setting 'orthorhombic'
loop_
_space_group_symop_operation_xyz
x,y,z
-x,-y,z
x,-y,-z
-x,y,-z
-x,-y,-z
x,y,-z
-x,y,z
x,-y,z
1/2+x,1/2+y,1/2+z
1/2-x,1/2-y,1/2+z
1/2+x,1/2-y,1/2-z
1/2-x,1/2+y,1/2-z
1/2-x,1/2-y,1/2-z
1/2+x,1/2+y,1/2-z
1/2-x,1/2+y,1/2+z
1/2+x,1/2-y,1/2+z
loop_
_atom_site_type_symbol
_atom_site_label
_atom_site_fract_x
_atom_site_fract_y
_atom_site_fract_z
Si Si1 0.000000 0.743188 0.000000
Si Si2 0.000000 0.260408 0.500000
Si Si3 0.798462 0.672142 0.500000
Si Si4 0.282423 0.638912 0.222708
Si Si5 0.788949 0.284007 0.000000
Si Si6 0.500000 0.000000 0.500000
Si Si7 0.000000 0.178559 0.747585
Si Si8 0.208710 0.558195 0.000000
O O1 0.904973 0.705814 0.000000
O O2 0.000000 0.782337 0.873913
O O3 0.904538 0.298653 0.500000
O O4 0.000000 0.219930 0.375730
O O5 0.775507 0.640912 0.636490
O O6 0.722818 0.721452 0.500000
O O7 0.257921 0.690825 0.132744
O O8 0.400596 0.643083 0.245140
O O9 0.244772 0.591228 0.129264
O O10 0.590577 0.045490 0.500000
O O11 0.256576 0.500000 0.000000
#
# Coordination Sequence:
#
# PCOD9524070 Si02
#       8
#     4   4   8  16   8   2   8   8
#     4  12  22  31  54  74 122 170 196 213 268 330
#     4  12  22  30  52  78 126 158 192 238 272 300
#     4  12  21  35  51  89 122 156 188 234 268 338
#     4  11  22  36  59  81 118 150 197 230 285 325
#     4  11  20  35  51  82 119 167 196 222 256 340
#     4   8  20  46  76  76 108 132 188 232 308 334
#     4  12  20  34  52  83 116 162 187 227 276 327
#     4   9  22  44  67  82 101 141 182 245 287 351
#
# _framework density 17.105461999999999
#
# number of rings (size 3 to 8) (size 9 to 14) (size 15 to 20)
#    0.414    0.552    5.517    3.310    0.000    3.310 
#    0.000    2.069    0.000    0.828    0.000    2.897 
#    0.000    0.000    0.000    0.000    0.000    0.000 
#
# Total GULP energy -161467.161939 kJ/mol
# GULP energy per Si atom -5567.833170 kJ/mol
# Density = 1.706653 g / cm^3
# Si number density = 17.105462 Si / 1000 Ang^3
#
#
#
# Elastic Constant Matrix: (Units=GPa)
#
#
# Indices 1 2 3 4 5 6 
#
# 1 113.7891 2.0027 12.2000 -0.0001 0.0000 0.0000
# 2 2.0027 71.3275 38.9353 -0.0002 0.0000 0.0000
# 3 12.2000 38.9353 147.2008 -0.0003 -0.0006 -0.0002
# 4 -0.0001 -0.0002 -0.0003 3.3360 0.0002 0.0001
# 5 0.0000 0.0000 -0.0006 0.0002 22.1186 0.0001
# 6 0.0000 0.0000 -0.0002 0.0001 0.0001 26.1925
#
#
#
# Elastic Compliance Matrix: (Units=1/GPa)
#
#
# Indices 1 2 3 4 5 6 
#
# 1 0.008869 0.000178 -0.000782 0.000000 0.000000 0.000000
# 2 0.000178 0.016389 -0.004350 0.000000 0.000000 0.000000
# 3 -0.000782 -0.004350 0.008009 0.000001 0.000000 0.000000
# 4 0.000000 0.000000 0.000001 0.299763 -0.000002 -0.000001
# 5 0.000000 0.000000 0.000000 -0.000002 0.045211 0.000000
# 6 0.000000 0.000000 0.000000 -0.000001 0.000000 0.038179
#
#
# Mechanical properties :
#
#
# Convention : Reuss Voigt Hill
#
# Bulk Modulus (GPa) = 42.81004 48.73259 45.77131
# Shear Modulus (GPa) = 11.51771 28.94136 20.22954
#
# Velocity S-wave (km/s) = 2.59769 4.11778 3.44268
# Velocity P-wave (km/s) = 5.83770 7.15258 6.52833
#
# Compressibility (1/GPa) = 0.02335901
#
# Stress axis : x y z
#
# Youngs Moduli (GPa) = 112.75338 61.01562 124.86268
#
# Poissons Ratio (x) = -0.01086 0.09766
# Poissons Ratio (y) = -0.02006 0.54312
# Poissons Ratio (z) = 0.08819 0.26540
#
# Static dielectric constant tensor:
#      x y z
#    x 1.624810 0.000000 0.000000 
#    y 0.000000 1.548500 0.000000 
#    z 0.000000 0.000000 1.570310 
# 
# From -- ./inp_files/3470.got.cif
#   From: 2010.05.17/outbox.cif.g08.bks.cpg/sg71_2_cif.got.tgz:3470.got - 2010.06.03 16:22:01.
