data_PCOD9524692
_publ_section_title
;
Structure prediction by ZEFSAII (Michael W. Deem and Ramdas Pophale) SiO2 
 PCOD9524692
Probable space group: I M M M
;
_chemical_formula_sum "Si O2"
_cell_formula_units_Z 40
_cell_length_a 18.000000
_cell_length_b 27.000000
_cell_length_c 9.000000
_cell_angle_alpha 90.000000
_cell_angle_beta 90.000000
_cell_angle_gamma 90.000000
_cell_volume 4374.000000
_symmetry_space_group_name_H-M "I M M M"
_symmetry_group_IT_number 71
_symmetry_cell_setting 'orthorhombic'
loop_
_space_group_symop_operation_xyz
x,y,z
-x,-y,z
x,-y,-z
-x,y,-z
-x,-y,-z
x,y,-z
-x,y,z
x,-y,z
1/2+x,1/2+y,1/2+z
1/2-x,1/2-y,1/2+z
1/2+x,1/2-y,1/2-z
1/2-x,1/2+y,1/2-z
1/2-x,1/2-y,1/2-z
1/2+x,1/2+y,1/2-z
1/2-x,1/2+y,1/2+z
1/2+x,1/2-y,1/2+z
loop_
_atom_site_type_symbol
_atom_site_label
_atom_site_fract_x
_atom_site_fract_y
_atom_site_fract_z
Si Si1 0.716622 0.156319 0.178529
Si Si2 0.581409 0.422842 0.822879
Si Si3 0.419530 0.780571 0.823666
Si Si4 0.265428 0.447810 0.321076
Si Si5 0.615238 0.679769 0.675991
O O1 0.647157 0.186264 0.235634
O O2 0.723604 0.100498 0.235556
O O3 0.796062 0.181463 0.204648
O O4 0.707443 0.153683 0.000000
O O5 0.500000 0.442678 0.783438
O O6 0.651480 0.446349 0.742014
O O7 0.584613 0.366059 0.769174
O O8 0.590176 0.426509 0.000000
O O9 0.500000 0.805091 0.809946
O O10 0.418563 0.730052 0.733630
O O11 0.408200 0.769744 0.000000
O O12 0.270759 0.444200 0.500000
O O13 0.229685 0.500000 0.282184
O O14 0.603693 0.671553 0.500000
#
# Coordination Sequence:
#
# PCOD9524692 Si02
#       5
#    16  16  16  16  16
#     4   8  16  31  48  67  91 120 154 189 227 272
#     4  10  20  32  46  67  97 128 155 186 225 270
#     4  10  19  30  46  68  95 125 154 187 229 275
#     4   9  18  33  52  70  88 116 155 196 234 271
#     4  10  19  31  48  68  93 126 160 191 222 262
#
# _framework density 9.1449470000000002
#
# number of rings (size 3 to 8) (size 9 to 14) (size 15 to 20)
#    0.000    2.600    0.000    3.600    0.000    5.200 
#    0.000    6.000    0.000    0.600    0.000    4.200 
#    0.000    0.000    0.000    9.000    0.000   10.000 
#
# Total GULP energy -222812.810335 kJ/mol
# GULP energy per Si atom -5570.320258 kJ/mol
# Density = 0.912413 g / cm^3
# Si number density = 9.144947 Si / 1000 Ang^3
#
#
#
# Elastic Constant Matrix: (Units=GPa)
#
#
# Indices 1 2 3 4 5 6 
#
# 1 44.1492 56.4545 5.2843 0.0000 0.0000 0.0000
# 2 56.4545 97.4096 1.9425 0.0000 0.0000 0.0000
# 3 5.2843 1.9425 -2.9192 0.0000 0.0000 0.0001
# 4 0.0000 0.0000 0.0000 6.7931 0.0000 0.0000
# 5 0.0000 0.0000 0.0000 0.0000 6.4556 0.0000
# 6 0.0000 0.0000 0.0001 0.0000 0.0000 -31.6652
#
#
#
# Elastic Compliance Matrix: (Units=1/GPa)
#
#
# Indices 1 2 3 4 5 6 
#
# 1 0.057881 -0.035168 0.081374 0.000000 0.000000 0.000000
# 2 -0.035168 0.031499 -0.042700 0.000000 0.000000 0.000000
# 3 0.081374 -0.042700 -0.223674 0.000000 -0.000001 0.000000
# 4 0.000000 0.000000 0.000000 0.147208 0.000000 0.000000
# 5 0.000000 0.000000 -0.000001 0.000000 0.154904 0.000000
# 6 0.000000 0.000000 0.000000 0.000000 0.000000 -0.031580
#
#
# Mechanical properties :
#
#
# Convention : Reuss Voigt Hill
#
# Bulk Modulus (GPa) = -7.85651 29.55582 10.84966
# Shear Modulus (GPa) = 57.60416 1.31393 29.45904
#
# Velocity S-wave (km/s) = 5.61814 0.84850 4.01767
# Velocity P-wave (km/s) = 6.14652 4.14182 5.24092
#
# Compressibility (1/GPa) = -0.12728301
#
# Stress axis : x y z
#
# Youngs Moduli (GPa) = 17.27690 31.74671 -4.47079
#
# Poissons Ratio (x) = 1.11647 0.36381
# Poissons Ratio (y) = 0.60759 -0.19090
# Poissons Ratio (z) = -1.40589 1.35560
#
# Static dielectric constant tensor:
#      x y z
#    x 1.667290 0.000000 0.000000 
#    y 0.000000 1.687460 0.000000 
#    z 0.000000 0.000000 1.600660 
# 
# From -- ./inp_files/8268.got.cif
#   From: 2010.05.17/outbox.ucp.g08.bks.cvg/sg71_5_cif.got.tgz:8268.got - 2010.06.11 16:29:00.
