data_PCOD9524420
_publ_section_title
;
Structure prediction by ZEFSAII (Michael W. Deem and Ramdas Pophale) SiO2 
 PCOD9524420
Probable space group: I M M M
;
_chemical_formula_sum "Si O2"
_cell_formula_units_Z 88
_cell_length_a 15.103371
_cell_length_b 15.431965
_cell_length_c 19.130839
_cell_angle_alpha 90.000000
_cell_angle_beta 90.000000
_cell_angle_gamma 90.000000
_cell_volume 4458.914420
_symmetry_space_group_name_H-M "I M M M"
_symmetry_group_IT_number 71
_symmetry_cell_setting 'orthorhombic'
loop_
_space_group_symop_operation_xyz
x,y,z
-x,-y,z
x,-y,-z
-x,y,-z
-x,-y,-z
x,y,-z
-x,y,z
x,-y,z
1/2+x,1/2+y,1/2+z
1/2-x,1/2-y,1/2+z
1/2+x,1/2-y,1/2-z
1/2-x,1/2+y,1/2-z
1/2-x,1/2-y,1/2-z
1/2+x,1/2+y,1/2-z
1/2-x,1/2+y,1/2+z
1/2+x,1/2-y,1/2+z
loop_
_atom_site_type_symbol
_atom_site_label
_atom_site_fract_x
_atom_site_fract_y
_atom_site_fract_z
Si Si1 0.903001 0.602441 0.923104
Si Si2 0.246214 0.659713 0.822228
Si Si3 0.273755 0.639570 0.332765
Si Si4 0.395465 0.603577 0.080041
Si Si5 0.401544 0.104906 0.080540
Si Si6 0.607541 0.500000 0.414990
O O1 0.911846 0.500000 0.930571
O O2 0.827428 0.613964 0.867833
O O3 0.000000 0.637689 0.902987
O O4 0.879655 0.638749 0.000000
O O5 0.260427 0.613338 0.747984
O O6 0.209668 0.758190 0.821703
O O7 0.337563 0.654944 0.864813
O O8 0.180575 0.632067 0.372876
O O9 0.345060 0.582682 0.376420
O O10 0.500000 0.618911 0.087954
O O11 0.380379 0.500000 0.088924
O O12 0.370593 0.625131 0.000000
O O13 0.500000 0.133521 0.103799
O O14 0.401863 0.000000 0.080237
O O15 0.389653 0.133323 0.000000
O O16 0.500000 0.500000 0.406018
O O17 0.625112 0.500000 0.500000
#
# Coordination Sequence:
#
# PCOD9524420 Si02
#       6
#    16  16  16  16  16   8
#     4   9  19  36  59  88 119 154 199 244 291 360
#     4  11  24  38  57  89 127 163 199 251 318 374
#     4  11  25  41  58  89 126 158 205 261 311 372
#     4   9  19  36  59  89 122 158 203 248 295 364
#     4   9  18  35  61  88 113 146 190 244 303 359
#     4  11  26  48  71  91 118 169 231 277 313 364
#
# _framework density 19.735744
#
# number of rings (size 3 to 8) (size 9 to 14) (size 15 to 20)
#    0.000    2.091    0.909    3.273    2.545    7.273 
#    0.000    9.091    0.000    0.000    0.000    0.000 
#    0.000    0.000    0.000    0.000    0.000    0.000 
#
# Total GULP energy -245251.136773 kJ/mol
# GULP energy per Si atom -5573.889472 kJ/mol
# Density = 1.969082 g / cm^3
# Si number density = 19.735744 Si / 1000 Ang^3
#
#
#
# Elastic Constant Matrix: (Units=GPa)
#
#
# Indices 1 2 3 4 5 6 
#
# 1 112.5843 19.0537 77.8573 0.0000 0.0000 0.0000
# 2 19.0537 47.5562 22.5757 0.0000 0.0000 0.0000
# 3 77.8573 22.5757 127.7377 0.0000 0.0000 0.0000
# 4 0.0000 0.0000 0.0000 38.7983 0.0000 0.0000
# 5 0.0000 0.0000 0.0000 0.0000 11.7075 0.0000
# 6 0.0000 0.0000 0.0000 0.0000 0.0000 86.0776
#
#
#
# Elastic Compliance Matrix: (Units=1/GPa)
#
#
# Indices 1 2 3 4 5 6 
#
# 1 0.015507 -0.001884 -0.009119 0.000000 0.000000 0.000000
# 2 -0.001884 0.023182 -0.002949 0.000000 0.000000 0.000000
# 3 -0.009119 -0.002949 0.013908 0.000000 0.000000 0.000000
# 4 0.000000 0.000000 0.000000 0.025774 0.000000 0.000000
# 5 0.000000 0.000000 0.000000 0.000000 0.085415 0.000000
# 6 0.000000 0.000000 0.000000 0.000000 0.000000 0.011617
#
#
# Mechanical properties :
#
#
# Convention : Reuss Voigt Hill
#
# Bulk Modulus (GPa) = 40.49578 58.53908 49.51743
# Shear Modulus (GPa) = 23.63632 38.54279 31.08955
#
# Velocity S-wave (km/s) = 3.46445 4.42401 3.97330
# Velocity P-wave (km/s) = 6.04704 7.47139 6.79663
#
# Compressibility (1/GPa) = 0.02469393
#
# Stress axis : x y z
#
# Youngs Moduli (GPa) = 64.48633 43.13602 71.90289
#
# Poissons Ratio (x) = 0.08128 0.65566
# Poissons Ratio (y) = 0.12151 0.21202
# Poissons Ratio (z) = 0.58803 0.12719
#
# Static dielectric constant tensor:
#      x y z
#    x 1.683150 0.000000 0.000000 
#    y 0.000000 1.746300 0.000000 
#    z 0.000000 0.000000 1.710260 
# 
# From -- ./inp_files/52895.got.cif
#   From: 2010.05.17/outbox.cif.g08.bks.cpg/sg71_27_cif.got.tgz:52895.got - 2010.06.03 16:22:01.
