data_PCOD9524844
_publ_section_title
;
Structure prediction by ZEFSAII (Michael W. Deem and Ramdas Pophale) SiO2 
 PCOD9524844
Probable space group: I M M M
;
_chemical_formula_sum "Si O2"
_cell_formula_units_Z 48
_cell_length_a 21.000000
_cell_length_b 9.000000
_cell_length_c 27.000000
_cell_angle_alpha 90.000000
_cell_angle_beta 90.000000
_cell_angle_gamma 90.000000
_cell_volume 5103.000000
_symmetry_space_group_name_H-M "I M M M"
_symmetry_group_IT_number 71
_symmetry_cell_setting 'orthorhombic'
loop_
_space_group_symop_operation_xyz
x,y,z
-x,-y,z
x,-y,-z
-x,y,-z
-x,-y,-z
x,y,-z
-x,y,z
x,-y,z
1/2+x,1/2+y,1/2+z
1/2-x,1/2-y,1/2+z
1/2+x,1/2-y,1/2-z
1/2-x,1/2+y,1/2-z
1/2-x,1/2-y,1/2-z
1/2+x,1/2+y,1/2-z
1/2-x,1/2+y,1/2+z
1/2+x,1/2-y,1/2+z
loop_
_atom_site_type_symbol
_atom_site_label
_atom_site_fract_x
_atom_site_fract_y
_atom_site_fract_z
Si Si1 0.926968 0.677225 0.368477
Si Si2 0.303364 0.822703 0.395261
Si Si3 0.328823 0.678284 0.055938
Si Si4 0.928569 0.177738 0.738839
Si Si5 0.202700 0.821865 0.789899
Si Si6 0.071979 0.176527 0.059438
O O1 0.920669 0.500000 0.366879
O O2 0.875683 0.745571 0.405331
O O3 0.918084 0.742649 0.313546
O O4 0.000000 0.713597 0.383515
O O5 0.244978 0.788393 0.432172
O O6 0.285694 0.746698 0.343483
O O7 0.370539 0.761252 0.414621
O O8 0.306906 0.000000 0.389340
O O9 0.336125 0.500000 0.060053
O O10 0.344174 0.723759 0.000000
O O11 0.870297 0.213440 0.774755
O O12 0.000000 0.216118 0.756928
O O13 0.927054 0.000000 0.730687
O O14 0.250000 0.750000 0.750000
O O15 0.210491 0.000000 0.790312
O O16 0.000000 0.222071 0.074385
O O17 0.077872 0.000000 0.069601
O O18 0.076527 0.196274 0.000000
#
# Coordination Sequence:
#
# PCOD9524844 Si02
#       6
#    16  16  16  16  16  16
#     4  10  21  36  56  84 114 141 174 222 276 326
#     4  11  23  38  57  83 114 147 186 233 281 330
#     4  10  22  39  57  78 107 145 187 227 268 321
#     4   9  19  37  59  80 105 142 184 221 262 318
#     4  11  23  38  57  82 112 146 185 231 280 332
#     4   9  19  37  60  85 114 149 188 229 276 333
#
# _framework density 9.4062319999999993
#
# number of rings (size 3 to 8) (size 9 to 14) (size 15 to 20)
#    0.000    2.000    0.000    3.500    0.000   10.333 
#    0.000    4.167    0.000    0.000    0.000    0.000 
#    0.000    0.000    0.000    0.000    0.000    0.000 
#
# Total GULP energy -268114.645740 kJ/mol
# GULP energy per Si atom -5585.721786 kJ/mol
# Density = 0.938482 g / cm^3
# Si number density = 9.406232 Si / 1000 Ang^3
#
#
#
# Elastic Constant Matrix: (Units=GPa)
#
#
# Indices 1 2 3 4 5 6 
#
# 1 43.1130 20.1089 -1.9352 0.0000 0.0000 0.0000
# 2 20.1089 26.8542 12.8184 0.0000 0.0000 0.0000
# 3 -1.9352 12.8184 26.8897 0.0000 0.0000 0.0000
# 4 0.0000 0.0000 0.0000 25.7342 0.0000 0.0000
# 5 0.0000 0.0000 0.0000 0.0000 37.2606 0.0000
# 6 0.0000 0.0000 0.0000 0.0000 0.0000 37.2657
#
#
#
# Elastic Compliance Matrix: (Units=1/GPa)
#
#
# Indices 1 2 3 4 5 6 
#
# 1 0.046188 -0.046829 0.025648 0.000000 0.000000 0.000000
# 2 -0.046829 0.095687 -0.048984 0.000000 0.000000 0.000000
# 3 0.025648 -0.048984 0.062386 0.000000 0.000000 0.000000
# 4 0.000000 0.000000 0.000000 0.038859 0.000000 0.000000
# 5 0.000000 0.000000 0.000000 0.000000 0.026838 0.000000
# 6 0.000000 0.000000 0.000000 0.000000 0.000000 0.026834
#
#
# Mechanical properties :
#
#
# Convention : Reuss Voigt Hill
#
# Bulk Modulus (GPa) = 15.64233 17.64900 16.64566
# Shear Modulus (GPa) = 10.90672 24.44307 17.67489
#
# Velocity S-wave (km/s) = 2.41043 3.60849 3.06850
# Velocity P-wave (km/s) = 4.00997 5.17335 4.62836
#
# Compressibility (1/GPa) = 0.06392911
#
# Stress axis : x y z
#
# Youngs Moduli (GPa) = 21.65046 10.45078 16.02932
#
# Poissons Ratio (x) = 0.48940 -0.41112
# Poissons Ratio (y) = 1.01388 0.78518
# Poissons Ratio (z) = -0.55529 0.51192
#
# Static dielectric constant tensor:
#      x y z
#    x 1.653010 0.000000 0.000000 
#    y 0.000000 1.624790 0.000000 
#    z 0.000000 0.000000 1.621110 
# 
# From -- ./inp_files/10850.got.cif
#   From: 2010.05.17/outbox.ucp.g08.bks.cvg/sg71_6_cif.got.tgz:10850.got - 2010.06.11 16:29:00.
