data_PCOD9524981
_publ_section_title
;
Structure prediction by ZEFSAII (Michael W. Deem and Ramdas Pophale) SiO2 
 PCOD9524981
Probable space group: I B A M
;
_chemical_formula_sum "Si O2"
_cell_formula_units_Z 104
_cell_length_a 12.501247
_cell_length_b 25.886637
_cell_length_c 17.750794
_cell_angle_alpha 90.000000
_cell_angle_beta 90.000000
_cell_angle_gamma 90.000000
_cell_volume 5744.427516
_symmetry_space_group_name_H-M "I B A M"
_symmetry_group_IT_number 72
_symmetry_cell_setting 'orthorhombic'
loop_
_space_group_symop_operation_xyz
x,y,z
-x,-y,z
x,-y,1/2-z
-x,y,1/2-z
-x,-y,-z
x,y,-z
-x,y,1/2+z
x,-y,1/2+z
1/2+x,1/2+y,1/2+z
1/2-x,1/2-y,1/2+z
1/2+x,1/2-y,-z
1/2-x,1/2+y,-z
1/2-x,1/2-y,1/2-z
1/2+x,1/2+y,1/2-z
1/2-x,1/2+y,z
1/2+x,1/2-y,z
loop_
_atom_site_type_symbol
_atom_site_label
_atom_site_fract_x
_atom_site_fract_y
_atom_site_fract_z
Si Si1 0.376925 0.844071 0.737235
Si Si2 0.400064 0.617324 0.143057
Si Si3 0.000000 0.796712 0.250000
Si Si4 0.702543 0.710443 0.156044
Si Si5 0.632714 0.601201 0.912531
Si Si6 0.243069 0.059024 0.734135
Si Si7 0.718653 0.182977 0.582702
O O1 0.500000 0.832851 0.750000
O O2 0.292343 0.809586 0.785431
O O3 0.343145 0.902295 0.759482
O O4 0.355067 0.837721 0.649098
O O5 0.436880 0.665377 0.194381
O O6 0.506039 0.595854 0.104037
O O7 0.340995 0.579107 0.201684
O O8 0.318366 0.643898 0.085788
O O9 0.905425 0.771680 0.299371
O O10 0.666940 0.660555 0.107196
O O11 0.745312 0.758222 0.107410
O O12 0.691797 0.567558 0.848550
O O13 0.656094 0.589880 0.000000
O O14 0.268557 0.000000 0.750000
O O15 0.670417 0.183817 0.500000
#
# Coordination Sequence:
#
# PCOD9524981 Si02
#       7
#    16  16   8  16  16  16  16
#     4  10  22  39  59  79 110 153 193 231 274 336
#     4  10  18  35  53  79 114 149 180 221 281 344
#     4  10  16  34  57  78 106 146 187 226 272 326
#     4  10  20  35  56  82 111 153 192 224 270 335
#     4  10  19  34  55  84 115 141 179 234 289 332
#     4  10  20  38  59  79 105 143 189 233 282 345
#     4  11  22  35  53  85 118 151 190 233 277 323
#
# _framework density 18.104502
#
# number of rings (size 3 to 8) (size 9 to 14) (size 15 to 20)
#    0.000    1.846    6.154    1.385    1.077    2.769 
#    0.000   11.538    0.000    0.000    0.000    8.615 
#    0.000    0.000    0.000    0.000    0.000    0.000 
#
# Total GULP energy -289921.955352 kJ/mol
# GULP energy per Si atom -5575.422218 kJ/mol
# Density = 1.806330 g / cm^3
# Si number density = 18.104502 Si / 1000 Ang^3
#
#
#
# Elastic Constant Matrix: (Units=GPa)
#
#
# Indices 1 2 3 4 5 6 
#
# 1 90.3880 14.5594 32.1163 0.0000 0.0000 0.0000
# 2 14.5594 61.6459 23.0445 0.0000 0.0000 0.0000
# 3 32.1163 23.0445 127.3290 0.0000 0.0000 0.0000
# 4 0.0000 0.0000 0.0000 5.8166 0.0000 0.0000
# 5 0.0000 0.0000 0.0000 0.0000 8.7164 0.0000
# 6 0.0000 0.0000 0.0000 0.0000 0.0000 16.2053
#
#
#
# Elastic Compliance Matrix: (Units=1/GPa)
#
#
# Indices 1 2 3 4 5 6 
#
# 1 0.012352 -0.001880 -0.002775 0.000000 0.000000 0.000000
# 2 -0.001880 0.017685 -0.002727 0.000000 0.000000 0.000000
# 3 -0.002775 -0.002727 0.009047 0.000000 0.000000 0.000000
# 4 0.000000 0.000000 0.000000 0.171922 0.000000 0.000000
# 5 0.000000 0.000000 0.000000 0.000000 0.114726 0.000000
# 6 0.000000 0.000000 0.000000 0.000000 0.000000 0.061708
#
#
# Mechanical properties :
#
#
# Convention : Reuss Voigt Hill
#
# Bulk Modulus (GPa) = 41.11700 46.53369 43.82535
# Shear Modulus (GPa) = 12.18587 20.12384 16.15486
#
# Velocity S-wave (km/s) = 2.59720 3.33759 2.99040
# Velocity P-wave (km/s) = 5.63508 6.37270 6.01521
#
# Compressibility (1/GPa) = 0.02432084
#
# Stress axis : x y z
#
# Youngs Moduli (GPa) = 80.95612 56.54550 110.53176
#
# Poissons Ratio (x) = 0.10630 0.30677
# Poissons Ratio (y) = 0.15218 0.30137
# Poissons Ratio (z) = 0.22469 0.15417
#
# Static dielectric constant tensor:
#      x y z
#    x 1.768400 0.000000 0.000000 
#    y 0.000000 1.642480 0.000000 
#    z 0.000000 0.000000 1.994430 
# 
# From -- ./inp_files/29665.got.cif
#   From: 2010.05.17/outbox.cif.g08.bks.cpg/sg72_15_cif.got.tgz:29665.got - 2010.06.03 17:03:01.
