data_PCOD9524623
_publ_section_title
;
Structure prediction by ZEFSAII (Michael W. Deem and Ramdas Pophale) SiO2 
 PCOD9524623
Probable space group: I M M M
;
_chemical_formula_sum "Si O2"
_cell_formula_units_Z 120
_cell_length_a 28.014654
_cell_length_b 30.217693
_cell_length_c 7.458721
_cell_angle_alpha 90.000000
_cell_angle_beta 90.000000
_cell_angle_gamma 90.000000
_cell_volume 6314.092355
_symmetry_space_group_name_H-M "I M M M"
_symmetry_group_IT_number 71
_symmetry_cell_setting 'orthorhombic'
loop_
_space_group_symop_operation_xyz
x,y,z
-x,-y,z
x,-y,-z
-x,y,-z
-x,-y,-z
x,y,-z
-x,y,z
x,-y,z
1/2+x,1/2+y,1/2+z
1/2-x,1/2-y,1/2+z
1/2+x,1/2-y,1/2-z
1/2-x,1/2+y,1/2-z
1/2-x,1/2-y,1/2-z
1/2+x,1/2+y,1/2-z
1/2-x,1/2+y,1/2+z
1/2+x,1/2-y,1/2+z
loop_
_atom_site_type_symbol
_atom_site_label
_atom_site_fract_x
_atom_site_fract_y
_atom_site_fract_z
Si Si1 0.000000 0.450855 0.281567
Si Si2 0.157180 0.185696 0.791038
Si Si3 0.947720 0.208816 0.207339
Si Si4 0.693025 0.219485 0.797476
Si Si5 0.193392 0.448458 0.718787
Si Si6 0.245806 0.135380 0.220001
Si Si7 0.581710 0.804258 0.796905
Si Si8 0.405423 0.901530 0.219698
O O1 0.049036 0.429233 0.227330
O O2 0.000000 0.500000 0.217800
O O3 0.000000 0.449877 0.500000
O O4 0.103556 0.192425 0.713913
O O5 0.188009 0.231468 0.783125
O O6 0.192353 0.147819 0.719814
O O7 0.150000 0.176449 0.000000
O O8 0.942734 0.262147 0.209186
O O9 0.000000 0.197142 0.286001
O O10 0.948779 0.194650 0.000000
O O11 0.721111 0.177166 0.721191
O O12 0.637973 0.205552 0.805102
O O13 0.710932 0.226367 0.000000
O O14 0.193499 0.449673 0.500000
O O15 0.197968 0.500000 0.776845
O O16 0.233404 0.412326 0.773983
O O17 0.143354 0.425556 0.774381
O O18 0.247341 0.135792 0.000000
O O19 0.582024 0.852526 0.713780
O O20 0.562495 0.806549 0.000000
O O21 0.402167 0.898127 0.000000
#
# Coordination Sequence:
#
# PCOD9524623 Si02
#       8
#     8  16  16  16  16  16  16  16
#     4   9  16  22  28  42  67  97 125 155 189 225
#     4   9  17  27  40  57  78 102 129 160 192 228
#     4   9  18  30  40  52  75 104 133 162 191 225
#     4   9  15  25  39  56  80 103 124 153 188 229
#     4   9  15  23  36  53  76 105 130 154 194 241
#     4   9  15  24  37  55  78 102 127 157 193 231
#     4   9  16  25  39  58  77  99 127 157 191 228
#     4   9  15  23  33  48  72 100 127 155 191 231
#
# _framework density 19.005106999999999
#
# number of rings (size 3 to 8) (size 9 to 14) (size 15 to 20)
#    0.000    3.000    1.333    0.800    0.933    1.867 
#    0.000    0.000    0.000    0.000    0.000    0.000 
#    0.000    7.467    0.000    7.467    0.000    0.000 
#
# Total GULP energy -334069.169339 kJ/mol
# GULP energy per Si atom -5567.819489 kJ/mol
# Density = 1.896185 g / cm^3
# Si number density = 19.005107 Si / 1000 Ang^3
#
#
#
# Elastic Constant Matrix: (Units=GPa)
#
#
# Indices 1 2 3 4 5 6 
#
# 1 133.4334 68.8588 8.8066 0.0000 0.0000 0.0000
# 2 68.8588 84.6542 -0.2309 0.0000 0.0000 0.0000
# 3 8.8066 -0.2309 51.9645 0.0000 0.0000 0.0000
# 4 0.0000 0.0000 0.0000 10.9074 0.0000 0.0000
# 5 0.0000 0.0000 0.0000 0.0000 1.2314 0.0000
# 6 0.0000 0.0000 0.0000 0.0000 0.0000 4.5404
#
#
#
# Elastic Compliance Matrix: (Units=1/GPa)
#
#
# Indices 1 2 3 4 5 6 
#
# 1 0.013181 -0.010728 -0.002282 0.000000 0.000000 0.000000
# 2 -0.010728 0.020544 0.001909 0.000000 0.000000 0.000000
# 3 -0.002282 0.001909 0.019639 0.000000 0.000000 0.000000
# 4 0.000000 0.000000 0.000000 0.091681 0.000000 0.000000
# 5 0.000000 0.000000 0.000000 0.000000 0.812067 0.000000
# 6 0.000000 0.000000 0.000000 0.000000 0.000000 0.220243
#
#
# Mechanical properties :
#
#
# Convention : Reuss Voigt Hill
#
# Bulk Modulus (GPa) = 32.08804 47.21345 39.65074
# Shear Modulus (GPa) = 4.13243 16.17703 10.15473
#
# Velocity S-wave (km/s) = 1.47618 2.92069 2.31403
# Velocity P-wave (km/s) = 4.45264 6.02249 5.29605
#
# Compressibility (1/GPa) = 0.03116426
#
# Stress axis : x y z
#
# Youngs Moduli (GPa) = 75.86598 48.67555 50.91898
#
# Poissons Ratio (x) = 0.52219 0.11617
# Poissons Ratio (y) = 0.81388 -0.09722
# Poissons Ratio (z) = 0.17309 -0.09294
#
# Static dielectric constant tensor:
#      x y z
#    x 1.691870 0.000000 0.000000 
#    y 0.000000 1.670220 0.000000 
#    z 0.000000 0.000000 1.831740 
# 
# From -- ./inp_files/30367.got.cif
#   From: 2010.05.17/outbox.cif.g08.bks.cpg/sg71_16_cif.got.tgz:30367.got - 2010.06.03 16:22:01.
