data_PCOD9524361
_publ_section_title
;
Structure prediction by ZEFSAII (Michael W. Deem and Ramdas Pophale) SiO2 
 PCOD9524361
Probable space group: I M M M
;
_chemical_formula_sum "Si O2"
_cell_formula_units_Z 88
_cell_length_a 29.236689
_cell_length_b 15.845377
_cell_length_c 9.714812
_cell_angle_alpha 90.000000
_cell_angle_beta 90.000000
_cell_angle_gamma 90.000000
_cell_volume 4500.545588
_symmetry_space_group_name_H-M "I M M M"
_symmetry_group_IT_number 71
_symmetry_cell_setting 'orthorhombic'
loop_
_space_group_symop_operation_xyz
x,y,z
-x,-y,z
x,-y,-z
-x,y,-z
-x,-y,-z
x,y,-z
-x,y,z
x,-y,z
1/2+x,1/2+y,1/2+z
1/2-x,1/2-y,1/2+z
1/2+x,1/2-y,1/2-z
1/2-x,1/2+y,1/2-z
1/2-x,1/2-y,1/2-z
1/2+x,1/2+y,1/2-z
1/2-x,1/2+y,1/2+z
1/2+x,1/2-y,1/2+z
loop_
_atom_site_type_symbol
_atom_site_label
_atom_site_fract_x
_atom_site_fract_y
_atom_site_fract_z
Si Si1 0.415520 0.102922 0.340686
Si Si2 0.050789 0.103015 0.660314
Si Si3 0.363595 0.601900 0.340006
Si Si4 0.737840 0.666989 0.335308
Si Si5 0.500000 0.103619 0.842311
Si Si6 0.813984 0.401055 0.846290
O O1 0.425343 0.124136 0.500000
O O2 0.454822 0.132531 0.238413
O O3 0.364117 0.134400 0.308657
O O4 0.416096 0.000000 0.332518
O O5 0.055932 0.125754 0.500000
O O6 0.093952 0.132166 0.748695
O O7 0.000000 0.130311 0.707418
O O8 0.050925 0.000000 0.666765
O O9 0.372661 0.620910 0.500000
O O10 0.360048 0.500000 0.326451
O O11 0.314065 0.639434 0.304416
O O12 0.742597 0.673457 0.500000
O O13 0.750000 0.750000 0.250000
O O14 0.775706 0.606599 0.269004
O O15 0.500000 0.000000 0.841546
O O16 0.500000 0.131053 0.000000
O O17 0.821482 0.500000 0.863364
O O18 0.800952 0.367459 0.000000
#
# Coordination Sequence:
#
# PCOD9524361 Si02
#       6
#    16  16  16  16   8  16
#     4   8  14  25  41  62  90 123 155 189 234 288
#     4   8  14  25  43  71 105 135 163 198 242 294
#     4   9  18  32  50  74 103 134 169 209 253 302
#     4  11  23  37  52  72 100 135 174 215 259 305
#     4   9  15  21  33  59  93 123 153 191 234 281
#     4   9  18  33  53  76 100 128 165 207 252 304
#
# _framework density 19.553184000000002
#
# number of rings (size 3 to 8) (size 9 to 14) (size 15 to 20)
#    0.000    3.000    0.000    3.000    0.000    4.727 
#    0.000    5.455    0.000    0.000    2.364    0.000 
#    0.000    0.000    0.000    0.000    0.000    0.000 
#
# Total GULP energy -245159.471837 kJ/mol
# GULP energy per Si atom -5571.806178 kJ/mol
# Density = 1.950868 g / cm^3
# Si number density = 19.553184 Si / 1000 Ang^3
#
#
#
# Elastic Constant Matrix: (Units=GPa)
#
#
# Indices 1 2 3 4 5 6 
#
# 1 216.5617 23.1589 136.9391 0.0000 0.0000 0.0000
# 2 23.1589 7.4460 15.8993 0.0000 0.0000 0.0000
# 3 136.9391 15.8993 120.6316 0.0000 0.0000 0.0000
# 4 0.0000 0.0000 0.0000 12.9754 0.0000 0.0000
# 5 0.0000 0.0000 0.0000 0.0000 31.8510 0.0000
# 6 0.0000 0.0000 0.0000 0.0000 0.0000 -2.7108
#
#
#
# Elastic Compliance Matrix: (Units=1/GPa)
#
#
# Indices 1 2 3 4 5 6 
#
# 1 0.017784 -0.016986 -0.017950 0.000000 0.000000 0.000000
# 2 -0.016986 0.203125 -0.007490 0.000000 0.000000 0.000000
# 3 -0.017950 -0.007490 0.029653 0.000000 0.000000 0.000000
# 4 0.000000 0.000000 0.000000 0.077069 0.000000 0.000000
# 5 0.000000 0.000000 0.000000 0.000000 0.031396 0.000000
# 6 0.000000 0.000000 0.000000 0.000000 0.000000 -0.368892
#
#
# Mechanical properties :
#
#
# Convention : Reuss Voigt Hill
#
# Bulk Modulus (GPa) = 6.03458 77.40377 41.71917
# Shear Modulus (GPa) = 38.39583 19.66592 29.03087
#
# Velocity S-wave (km/s) = 4.43613 3.17482 3.85738
# Velocity P-wave (km/s) = 5.41590 7.28777 6.42041
#
# Compressibility (1/GPa) = 0.16571155
#
# Stress axis : x y z
#
# Youngs Moduli (GPa) = 56.22969 4.92307 33.72348
#
# Poissons Ratio (x) = 0.08362 0.60532
# Poissons Ratio (y) = 0.95512 0.25258
# Poissons Ratio (z) = 1.00930 0.03687
#
# Static dielectric constant tensor:
#      x y z
#    x 1.759360 0.000000 0.000000 
#    y 0.000000 1.812950 0.000000 
#    z 0.000000 0.000000 1.833700 
# 
# From -- ./inp_files/8838.got.cif
#   From: 2010.05.17/outbox.cif.g08.bks.cpg/sg71_5_cif.got.tgz:8838.got - 2010.06.03 16:22:01.
