data_PCOD9524014
_publ_section_title
;
Structure prediction by ZEFSAII (Michael W. Deem and Ramdas Pophale) SiO2 
 PCOD9524014
Probable space group: I M M M
;
_chemical_formula_sum "Si O2"
_cell_formula_units_Z 88
_cell_length_a 17.811103
_cell_length_b 20.653224
_cell_length_c 13.771955
_cell_angle_alpha 90.000000
_cell_angle_beta 90.000000
_cell_angle_gamma 90.000000
_cell_volume 5066.105918
_symmetry_space_group_name_H-M "I M M M"
_symmetry_group_IT_number 71
_symmetry_cell_setting 'orthorhombic'
loop_
_space_group_symop_operation_xyz
x,y,z
-x,-y,z
x,-y,-z
-x,y,-z
-x,-y,-z
x,y,-z
-x,y,z
x,-y,z
1/2+x,1/2+y,1/2+z
1/2-x,1/2-y,1/2+z
1/2+x,1/2-y,1/2-z
1/2-x,1/2+y,1/2-z
1/2-x,1/2-y,1/2-z
1/2+x,1/2+y,1/2-z
1/2-x,1/2+y,1/2+z
1/2+x,1/2-y,1/2+z
loop_
_atom_site_type_symbol
_atom_site_label
_atom_site_fract_x
_atom_site_fract_y
_atom_site_fract_z
Si Si1 0.412464 0.137778 0.694750
Si Si2 0.000000 0.922898 0.616455
Si Si3 0.640596 0.658123 0.804313
Si Si4 0.728363 0.926086 0.384714
Si Si5 0.089520 0.781681 0.110723
Si Si6 0.910212 0.707714 0.389597
O O1 0.500000 0.120154 0.686397
O O2 0.356052 0.086590 0.650145
O O3 0.401192 0.206161 0.638614
O O4 0.394851 0.154563 0.807200
O O5 0.926917 0.888443 0.660988
O O6 0.000000 0.912821 0.500000
O O7 0.000000 0.000000 0.634384
O O8 0.717703 0.623592 0.830038
O O9 0.631061 0.676082 0.691444
O O10 0.631102 0.725948 0.861378
O O11 0.734383 0.915125 0.500000
O O12 0.751249 0.000000 0.365226
O O13 0.000000 0.794696 0.119349
O O14 0.112820 0.792949 0.000000
O O15 0.893841 0.688572 0.500000
O O16 0.000000 0.721755 0.382021
#
# Coordination Sequence:
#
# PCOD9524014 Si02
#       6
#    16   8  16  16  16  16
#     4   9  19  36  56  79 104 136 175 216 269 320
#     4  11  20  30  49  73 101 143 181 204 242 304
#     4  11  19  33  51  78 109 140 172 212 258 306
#     4  11  24  38  52  74 105 138 175 223 266 306
#     4   9  17  32  56  83 109 137 172 216 261 310
#     4   9  16  29  54  85 112 134 163 211 263 314
#
# _framework density 17.370342999999998
#
# number of rings (size 3 to 8) (size 9 to 14) (size 15 to 20)
#    0.000    2.091    1.818    3.818    0.000    5.818 
#    0.000    3.636    0.000    4.364    0.000    2.545 
#    0.000    0.000    0.000    0.000    0.000    0.000 
#
# Total GULP energy -245613.993728 kJ/mol
# GULP energy per Si atom -5582.136221 kJ/mol
# Density = 1.733081 g / cm^3
# Si number density = 17.370343 Si / 1000 Ang^3
#
#
#
# Elastic Constant Matrix: (Units=GPa)
#
#
# Indices 1 2 3 4 5 6 
#
# 1 37.1905 1.3235 10.6173 0.0000 0.0000 0.0000
# 2 1.3235 10.4916 11.9708 0.0000 0.0000 0.0000
# 3 10.6173 11.9708 113.4931 0.0000 0.0000 0.0000
# 4 0.0000 0.0000 0.0000 18.7048 0.0000 0.0000
# 5 0.0000 0.0000 0.0000 0.0000 23.6599 0.0000
# 6 0.0000 0.0000 0.0000 0.0000 0.0000 6.3515
#
#
#
# Elastic Compliance Matrix: (Units=1/GPa)
#
#
# Indices 1 2 3 4 5 6 
#
# 1 0.027630 -0.000610 -0.002520 0.000000 0.000000 0.000000
# 2 -0.000610 0.108367 -0.011373 0.000000 0.000000 0.000000
# 3 -0.002520 -0.011373 0.010246 0.000000 0.000000 0.000000
# 4 0.000000 0.000000 0.000000 0.053462 0.000000 0.000000
# 5 0.000000 0.000000 0.000000 0.000000 0.042266 0.000000
# 6 0.000000 0.000000 0.000000 0.000000 0.000000 0.157444
#
#
# Mechanical properties :
#
#
# Convention : Reuss Voigt Hill
#
# Bulk Modulus (GPa) = 8.52971 23.22204 15.87588
# Shear Modulus (GPa) = 10.69517 18.89416 14.79467
#
# Velocity S-wave (km/s) = 2.48405 3.30165 2.92159
# Velocity P-wave (km/s) = 3.62609 5.28510 4.53215
#
# Compressibility (1/GPa) = 0.11723722
#
# Stress axis : x y z
#
# Youngs Moduli (GPa) = 36.19278 9.22787 97.59448
#
# Poissons Ratio (x) = 0.00563 0.24598
# Poissons Ratio (y) = 0.02207 1.10995
# Poissons Ratio (z) = 0.09122 0.10495
#
# Static dielectric constant tensor:
#      x y z
#    x 1.603140 0.000000 0.000000 
#    y 0.000000 1.565120 0.000000 
#    z 0.000000 0.000000 1.590710 
# 
# From -- ./inp_files/34372.got.cif
#   From: 2010.05.17/outbox.cif.g08.bks.cpg/sg71_18_cif.got.tgz:34372.got - 2010.06.03 16:22:01.
