data_PCOD9524726
_publ_section_title
;
Structure prediction by ZEFSAII (Michael W. Deem and Ramdas Pophale) SiO2 
 PCOD9524726
Probable space group: I M M M
;
_chemical_formula_sum "Si O2"
_cell_formula_units_Z 48
_cell_length_a 24.000000
_cell_length_b 24.000000
_cell_length_c 9.000000
_cell_angle_alpha 90.000000
_cell_angle_beta 90.000000
_cell_angle_gamma 90.000000
_cell_volume 5184.000000
_symmetry_space_group_name_H-M "I M M M"
_symmetry_group_IT_number 71
_symmetry_cell_setting 'orthorhombic'
loop_
_space_group_symop_operation_xyz
x,y,z
-x,-y,z
x,-y,-z
-x,y,-z
-x,-y,-z
x,y,-z
-x,y,z
x,-y,z
1/2+x,1/2+y,1/2+z
1/2-x,1/2-y,1/2+z
1/2+x,1/2-y,1/2-z
1/2-x,1/2+y,1/2-z
1/2-x,1/2-y,1/2-z
1/2+x,1/2+y,1/2-z
1/2-x,1/2+y,1/2+z
1/2+x,1/2-y,1/2+z
loop_
_atom_site_type_symbol
_atom_site_label
_atom_site_fract_x
_atom_site_fract_y
_atom_site_fract_z
Si Si1 0.748478 0.563751 0.325857
Si Si2 0.190022 0.758544 0.824147
Si Si3 0.650172 0.850069 0.823012
Si Si4 0.435636 0.060347 0.180706
Si Si5 0.653722 0.371171 0.827830
Si Si6 0.933493 0.064281 0.831616
O O1 0.732257 0.566873 0.500000
O O2 0.766365 0.500000 0.297934
O O3 0.796745 0.609274 0.303612
O O4 0.697513 0.582027 0.224298
O O5 0.250000 0.750000 0.750000
O O6 0.155018 0.706200 0.767355
O O7 0.165637 0.816300 0.766756
O O8 0.195692 0.759140 0.000000
O O9 0.598805 0.887121 0.769635
O O10 0.646034 0.838102 0.000000
O O11 0.500000 0.063797 0.221589
O O12 0.413387 0.000000 0.229819
O O13 0.432450 0.060327 0.000000
O O14 0.594051 0.395745 0.786663
O O15 0.660366 0.358556 0.000000
O O16 0.000000 0.066658 0.827146
O O17 0.916980 0.000000 0.806597
O O18 0.915554 0.079330 0.000000
#
# Coordination Sequence:
#
# PCOD9524726 Si02
#       6
#    16  16  16  16  16  16
#     4  10  20  33  52  79 112 148 184 227 281 341
#     4  12  24  40  59  79 107 147 190 236 287 343
#     4  10  19  33  55  82 112 147 188 231 278 334
#     4   8  14  27  51  84 118 149 183 224 269 319
#     4  12  24  37  56  83 114 149 189 234 282 334
#     4   9  19  38  63  88 116 152 190 229 280 340
#
# _framework density 9.2592590000000001
#
# number of rings (size 3 to 8) (size 9 to 14) (size 15 to 20)
#    0.000    1.833    1.667    5.000    0.000    5.000 
#    0.000    1.667    0.000    5.000    0.000    1.167 
#    0.000    0.000    0.000    0.000    0.000    0.000 
#
# Total GULP energy -267861.628905 kJ/mol
# GULP energy per Si atom -5580.450602 kJ/mol
# Density = 0.923818 g / cm^3
# Si number density = 9.259259 Si / 1000 Ang^3
#
#
#
# Elastic Constant Matrix: (Units=GPa)
#
#
# Indices 1 2 3 4 5 6 
#
# 1 46.3178 28.6842 25.5816 0.0000 0.0000 0.0000
# 2 28.6842 68.8447 40.3521 0.0000 0.0000 0.0000
# 3 25.5816 40.3521 76.5859 0.0000 0.0000 0.0000
# 4 0.0000 0.0000 0.0000 28.2914 0.0000 0.0000
# 5 0.0000 0.0000 0.0000 0.0000 13.3151 0.0000
# 6 0.0000 0.0000 0.0000 0.0000 0.0000 44.6378
#
#
#
# Elastic Compliance Matrix: (Units=1/GPa)
#
#
# Indices 1 2 3 4 5 6 
#
# 1 0.030382 -0.009709 -0.005033 0.000000 0.000000 0.000000
# 2 -0.009709 0.024118 -0.009465 0.000000 0.000000 0.000000
# 3 -0.005033 -0.009465 0.019725 0.000000 0.000000 0.000000
# 4 0.000000 0.000000 0.000000 0.035346 0.000000 0.000000
# 5 0.000000 0.000000 0.000000 0.000000 0.075103 0.000000
# 6 0.000000 0.000000 0.000000 0.000000 0.000000 0.022403
#
#
# Mechanical properties :
#
#
# Convention : Reuss Voigt Hill
#
# Bulk Modulus (GPa) = 38.74041 42.33159 40.53600
# Shear Modulus (GPa) = 18.93264 23.72422 21.32843
#
# Velocity S-wave (km/s) = 3.20091 3.58314 3.39740
# Velocity P-wave (km/s) = 5.88441 6.32671 6.10956
#
# Compressibility (1/GPa) = 0.02581284
#
# Stress axis : x y z
#
# Youngs Moduli (GPa) = 32.91390 41.46265 50.69681
#
# Poissons Ratio (x) = 0.40255 0.25516
# Poissons Ratio (y) = 0.31956 0.47982
# Poissons Ratio (z) = 0.16566 0.39242
#
# Static dielectric constant tensor:
#      x y z
#    x 1.670370 0.000000 0.000000 
#    y 0.000000 1.588050 0.000000 
#    z 0.000000 0.000000 1.628160 
# 
# From -- ./inp_files/10878.got.cif
#   From: 2010.05.17/outbox.ucp.g08.bks.cvg/sg71_6_cif.got.tgz:10878.got - 2010.06.11 16:29:00.
