data_PCOD9524710
_publ_section_title
;
Structure prediction by ZEFSAII (Michael W. Deem and Ramdas Pophale) SiO2 
 PCOD9524710
Probable space group: I M M M
;
_chemical_formula_sum "Si O2"
_cell_formula_units_Z 52
_cell_length_a 9.000000
_cell_length_b 24.000000
_cell_length_c 27.000000
_cell_angle_alpha 90.000000
_cell_angle_beta 90.000000
_cell_angle_gamma 90.000000
_cell_volume 5832.000000
_symmetry_space_group_name_H-M "I M M M"
_symmetry_group_IT_number 71
_symmetry_cell_setting 'orthorhombic'
loop_
_space_group_symop_operation_xyz
x,y,z
-x,-y,z
x,-y,-z
-x,y,-z
-x,-y,-z
x,y,-z
-x,y,z
x,-y,z
1/2+x,1/2+y,1/2+z
1/2-x,1/2-y,1/2+z
1/2+x,1/2-y,1/2-z
1/2-x,1/2+y,1/2-z
1/2-x,1/2-y,1/2-z
1/2+x,1/2+y,1/2-z
1/2-x,1/2+y,1/2+z
1/2+x,1/2-y,1/2+z
loop_
_atom_site_type_symbol
_atom_site_label
_atom_site_fract_x
_atom_site_fract_y
_atom_site_fract_z
Si Si1 0.821159 0.564603 0.762227
Si Si2 0.823536 0.114096 0.556285
Si Si3 0.834526 0.500000 0.940342
Si Si4 0.331911 0.268243 0.700898
Si Si5 0.669895 0.149914 0.350152
Si Si6 0.819446 0.112968 0.837710
Si Si7 0.319985 0.565766 0.555362
O O1 0.789002 0.500000 0.775332
O O2 0.777036 0.607880 0.806231
O O3 0.746083 0.579376 0.709409
O O4 0.000000 0.570433 0.756700
O O5 0.772590 0.127363 0.500000
O O6 0.756311 0.054634 0.571680
O O7 0.765520 0.151698 0.600230
O O8 0.000000 0.111503 0.555381
O O9 0.000000 0.500000 0.918827
O O10 0.846976 0.500000 0.000000
O O11 0.500000 0.282639 0.715289
O O12 0.250000 0.250000 0.750000
O O13 0.333208 0.212730 0.668851
O O14 0.274512 0.322929 0.672993
O O15 0.500000 0.132575 0.362159
O O16 0.769847 0.093923 0.892913
O O17 0.000000 0.107705 0.836952
O O18 0.269433 0.585453 0.500000
O O19 0.500000 0.570696 0.554904
O O20 0.284810 0.500000 0.558512
#
# Coordination Sequence:
#
# PCOD9524710 Si02
#       7
#    16  16   8  16  16  16  16
#     4  10  21  35  51  75 108 142 172 210 263 318
#     4  10  21  36  53  76 105 135 173 221 268 314
#     4   9  17  31  53  77 101 135 173 207 254 315
#     4  10  20  35  54  76 102 136 178 220 265 317
#     4  10  21  36  53  74 102 137 180 220 264 325
#     4  10  19  32  54  81 105 132 176 224 263 310
#     4   8  14  26  46  74 108 140 166 201 256 315
#
# _framework density 8.9163239999999995
#
# number of rings (size 3 to 8) (size 9 to 14) (size 15 to 20)
#    0.000    2.385    1.538    1.615    1.077    4.000 
#    0.000    0.769    0.000    3.231    0.000    2.154 
#    0.000    0.000    0.000    0.000    0.000    0.000 
#
# Total GULP energy -289533.191117 kJ/mol
# GULP energy per Si atom -5567.945983 kJ/mol
# Density = 0.889603 g / cm^3
# Si number density = 8.916324 Si / 1000 Ang^3
#
#
#
# Elastic Constant Matrix: (Units=GPa)
#
#
# Indices 1 2 3 4 5 6 
#
# 1 28.6584 14.9786 37.6021 0.0000 0.0000 0.0000
# 2 14.9786 78.5627 42.4512 0.0000 0.0000 0.0000
# 3 37.6021 42.4512 131.5269 0.0000 0.0000 0.0000
# 4 0.0000 0.0000 0.0000 20.0588 0.0000 0.0000
# 5 0.0000 0.0000 0.0000 0.0000 29.3041 0.0000
# 6 0.0000 0.0000 0.0000 0.0000 0.0000 15.9042
#
#
#
# Elastic Compliance Matrix: (Units=1/GPa)
#
#
# Indices 1 2 3 4 5 6 
#
# 1 0.056231 -0.002464 -0.015281 0.000000 0.000000 0.000000
# 2 -0.002464 0.015525 -0.004307 0.000000 0.000000 0.000000
# 3 -0.015281 -0.004307 0.013362 0.000000 0.000000 0.000000
# 4 0.000000 0.000000 0.000000 0.049854 0.000000 0.000000
# 5 0.000000 0.000000 0.000000 0.000000 0.034125 0.000000
# 6 0.000000 0.000000 0.000000 0.000000 0.000000 0.062877
#
#
# Mechanical properties :
#
#
# Convention : Reuss Voigt Hill
#
# Bulk Modulus (GPa) = 24.38089 47.64577 36.01333
# Shear Modulus (GPa) = 17.25643 22.63448 19.94546
#
# Velocity S-wave (km/s) = 3.11414 3.56655 3.34800
# Velocity P-wave (km/s) = 5.16064 6.61337 5.93165
#
# Compressibility (1/GPa) = 0.04101574
#
# Stress axis : x y z
#
# Youngs Moduli (GPa) = 17.78381 64.41020 74.84184
#
# Poissons Ratio (x) = 0.15871 1.14362
# Poissons Ratio (y) = 0.04382 0.32231
# Poissons Ratio (z) = 0.27175 0.27738
#
# Static dielectric constant tensor:
#      x y z
#    x 1.634900 0.000000 0.000000 
#    y 0.000000 1.651820 0.000000 
#    z 0.000000 0.000000 1.621490 
# 
# From -- ./inp_files/63540.got.cif
#   From: 2010.05.17/outbox.ucp.g08.bks.cvg/sg71_32_cif.got.tgz:63540.got - 2010.06.11 16:29:00.
