data_PCOD9524783
_publ_section_title
;
Structure prediction by ZEFSAII (Michael W. Deem and Ramdas Pophale) SiO2 
 PCOD9524783
Probable space group: I M M M
;
_chemical_formula_sum "Si O2"
_cell_formula_units_Z 48
_cell_length_a 27.000000
_cell_length_b 9.000000
_cell_length_c 21.000000
_cell_angle_alpha 90.000000
_cell_angle_beta 90.000000
_cell_angle_gamma 90.000000
_cell_volume 5103.000000
_symmetry_space_group_name_H-M "I M M M"
_symmetry_group_IT_number 71
_symmetry_cell_setting 'orthorhombic'
loop_
_space_group_symop_operation_xyz
x,y,z
-x,-y,z
x,-y,-z
-x,y,-z
-x,-y,-z
x,y,-z
-x,y,z
x,-y,z
1/2+x,1/2+y,1/2+z
1/2-x,1/2-y,1/2+z
1/2+x,1/2-y,1/2-z
1/2-x,1/2+y,1/2-z
1/2-x,1/2-y,1/2-z
1/2+x,1/2+y,1/2-z
1/2-x,1/2+y,1/2+z
1/2+x,1/2-y,1/2+z
loop_
_atom_site_type_symbol
_atom_site_label
_atom_site_fract_x
_atom_site_fract_y
_atom_site_fract_z
Si Si1 0.266367 0.821890 0.816227
Si Si2 0.406358 0.323063 0.428633
Si Si3 0.444599 0.175743 0.693375
Si Si4 0.618635 0.819846 0.189126
Si Si5 0.201913 0.323046 0.073097
Si Si6 0.442517 0.819002 0.069471
O O1 0.250000 0.750000 0.750000
O O2 0.324382 0.786982 0.821268
O O3 0.236491 0.753134 0.874905
O O4 0.259816 0.000000 0.814830
O O5 0.424937 0.289373 0.500000
O O6 0.400694 0.500000 0.423328
O O7 0.439823 0.260996 0.372549
O O8 0.352905 0.245507 0.421448
O O9 0.500000 0.191278 0.720601
O O10 0.404464 0.231577 0.744238
O O11 0.436407 0.000000 0.681615
O O12 0.587618 0.763064 0.129371
O O13 0.613647 0.000000 0.190771
O O14 0.199653 0.500000 0.083809
O O15 0.218652 0.296957 0.000000
O O16 0.500000 0.778403 0.074602
O O17 0.440595 0.000000 0.070390
O O18 0.423616 0.771624 0.000000
#
# Coordination Sequence:
#
# PCOD9524783 Si02
#       6
#    16  16  16  16  16  16
#     4  11  22  35  54  79 109 145 184 227 273 323
#     4  10  21  37  57  80 106 137 175 221 272 326
#     4  10  20  34  54  79 108 143 181 221 266 319
#     4   9  18  31  47  71 103 137 174 216 259 305
#     4  10  21  38  59  81 108 142 180 225 278 336
#     4   8  13  23  42  68  98 131 164 200 246 298
#
# _framework density 9.4062319999999993
#
# number of rings (size 3 to 8) (size 9 to 14) (size 15 to 20)
#    0.000    2.333    0.000    3.500    0.000    6.667 
#    0.000    4.167    0.000    0.000    0.000    0.000 
#    0.000    0.000    0.000   14.333    0.000   12.667 
#
# Total GULP energy -267783.199766 kJ/mol
# GULP energy per Si atom -5578.816662 kJ/mol
# Density = 0.938482 g / cm^3
# Si number density = 9.406232 Si / 1000 Ang^3
#
#
#
# Elastic Constant Matrix: (Units=GPa)
#
#
# Indices 1 2 3 4 5 6 
#
# 1 42.0328 20.4594 43.1674 0.0000 0.0000 0.0000
# 2 20.4594 35.2102 26.5188 0.0000 0.0000 0.0000
# 3 43.1674 26.5188 104.0197 0.0000 0.0000 0.0000
# 4 0.0000 0.0000 0.0000 24.7369 0.0000 0.0000
# 5 0.0000 0.0000 0.0000 0.0000 32.8619 0.0000
# 6 0.0000 0.0000 0.0000 0.0000 0.0000 19.0690
#
#
#
# Elastic Compliance Matrix: (Units=1/GPa)
#
#
# Indices 1 2 3 4 5 6 
#
# 1 0.047672 -0.015842 -0.015745 0.000000 0.000000 0.000000
# 2 -0.015842 0.040415 -0.003729 0.000000 0.000000 0.000000
# 3 -0.015745 -0.003729 0.017098 0.000000 0.000000 0.000000
# 4 0.000000 0.000000 0.000000 0.040425 0.000000 0.000000
# 5 0.000000 0.000000 0.000000 0.000000 0.030430 0.000000
# 6 0.000000 0.000000 0.000000 0.000000 0.000000 0.052441
#
#
# Mechanical properties :
#
#
# Convention : Reuss Voigt Hill
#
# Bulk Modulus (GPa) = 28.94100 40.17265 34.55682
# Shear Modulus (GPa) = 16.09627 21.40804 18.75216
#
# Velocity S-wave (km/s) = 2.92827 3.37704 3.16063
# Velocity P-wave (km/s) = 5.18173 6.05033 5.63280
#
# Compressibility (1/GPa) = 0.03455306
#
# Stress axis : x y z
#
# Youngs Moduli (GPa) = 20.97675 24.74341 58.48597
#
# Poissons Ratio (x) = 0.39199 0.92084
# Poissons Ratio (y) = 0.33232 0.21809
# Poissons Ratio (z) = 0.33027 0.09227
#
# Static dielectric constant tensor:
#      x y z
#    x 1.646110 0.000000 0.000000 
#    y 0.000000 1.627400 0.000000 
#    z 0.000000 0.000000 1.651400 
# 
# From -- ./inp_files/10948.got.cif
#   From: 2010.05.17/outbox.ucp.g08.bks.cvg/sg71_6_cif.got.tgz:10948.got - 2010.06.11 16:29:00.
