data_PCOD9524998
_publ_section_title
;
Structure prediction by ZEFSAII (Michael W. Deem and Ramdas Pophale) SiO2 
 PCOD9524998
Probable space group: I B A M
;
_chemical_formula_sum "Si O2"
_cell_formula_units_Z 64
_cell_length_a 5.351953
_cell_length_b 33.256456
_cell_length_c 14.559459
_cell_angle_alpha 90.000000
_cell_angle_beta 90.000000
_cell_angle_gamma 90.000000
_cell_volume 2591.394276
_symmetry_space_group_name_H-M "I B A M"
_symmetry_group_IT_number 72
_symmetry_cell_setting 'orthorhombic'
loop_
_space_group_symop_operation_xyz
x,y,z
-x,-y,z
x,-y,1/2-z
-x,y,1/2-z
-x,-y,-z
x,y,-z
-x,y,1/2+z
x,-y,1/2+z
1/2+x,1/2+y,1/2+z
1/2-x,1/2-y,1/2+z
1/2+x,1/2-y,-z
1/2-x,1/2+y,-z
1/2-x,1/2-y,1/2-z
1/2+x,1/2+y,1/2-z
1/2-x,1/2+y,z
1/2+x,1/2-y,z
loop_
_atom_site_type_symbol
_atom_site_label
_atom_site_fract_x
_atom_site_fract_y
_atom_site_fract_z
Si Si1 0.252874 0.524554 0.610126
Si Si2 0.268980 0.733638 0.144578
Si Si3 0.434094 0.888201 0.852507
Si Si4 0.562406 0.641812 0.356308
O O1 0.500000 0.500000 0.640386
O O2 0.278360 0.530575 0.500000
O O3 0.192591 0.567997 0.652027
O O4 0.000000 0.500000 0.627188
O O5 0.250000 0.750000 0.250000
O O6 0.499911 0.757818 0.103492
O O7 0.338066 0.687029 0.140827
O O8 0.500000 0.873047 0.750000
O O9 0.713693 0.886255 0.894250
O O10 0.215068 0.862054 0.897618
O O11 0.500000 0.631381 0.250000
#
# Coordination Sequence:
#
# PCOD9524998 Si02
#       4
#    16  16  16  16
#     4  10  21  39  61  80 102 137 186 233 267 317
#     4  10  17  24  41  64  96 145 173 210 244 312
#     4  10  21  33  50  77 109 141 164 218 271 331
#     4  10  18  29  44  69 109 143 168 206 267 314
#
# _framework density 24.697130000000001
#
# number of rings (size 3 to 8) (size 9 to 14) (size 15 to 20)
#    0.000    2.000    2.500    3.000    7.000    0.500 
#    0.000    1.250    0.000    0.000    0.000    0.000 
#    0.000   20.000    0.000    0.000    0.000    0.000 
#
# Total GULP energy -178621.518174 kJ/mol
# GULP energy per Si atom -5581.922443 kJ/mol
# Density = 2.464092 g / cm^3
# Si number density = 24.697130 Si / 1000 Ang^3
#
#
#
# Elastic Constant Matrix: (Units=GPa)
#
#
# Indices 1 2 3 4 5 6 
#
# 1 295.5886 74.9987 19.8345 0.0000 0.0000 0.0000
# 2 74.9987 130.6871 -1.1835 0.0000 0.0000 0.0000
# 3 19.8345 -1.1835 89.1234 0.0000 0.0000 0.0000
# 4 0.0000 0.0000 0.0000 -0.9076 0.0000 0.0000
# 5 0.0000 0.0000 0.0000 0.0000 -30.9004 0.0000
# 6 0.0000 0.0000 0.0000 0.0000 0.0000 24.3207
#
#
#
# Elastic Compliance Matrix: (Units=1/GPa)
#
#
# Indices 1 2 3 4 5 6 
#
# 1 0.004035 -0.002324 -0.000929 0.000000 0.000000 0.000000
# 2 -0.002324 0.008991 0.000637 0.000000 0.000000 0.000000
# 3 -0.000929 0.000637 0.011436 0.000000 0.000000 0.000000
# 4 0.000000 0.000000 0.000000 -1.101759 0.000000 -0.000001
# 5 0.000000 0.000000 0.000000 0.000000 -0.032362 0.000000
# 6 0.000000 0.000000 0.000000 -0.000001 0.000000 0.041117
#
#
# Mechanical properties :
#
#
# Convention : Reuss Voigt Hill
#
# Bulk Modulus (GPa) = 52.00375 78.07763 65.04069
# Shear Modulus (GPa) = -4.73082 26.61915 10.94417
#
# Velocity S-wave (km/s) = -1.38553 3.28658 2.10736
# Velocity P-wave (km/s) = 4.30613 6.78858 5.68452
#
# Compressibility (1/GPa) = 0.01922938
#
# Stress axis : x y z
#
# Youngs Moduli (GPa) = 247.82609 111.21785 87.44643
#
# Poissons Ratio (x) = 0.25848 0.08123
# Poissons Ratio (y) = 0.57596 -0.05567
# Poissons Ratio (z) = 0.23020 -0.07080
#
# Static dielectric constant tensor:
#      x y z
#    x 2.082440 0.000000 0.000000 
#    y 0.000000 1.846730 0.000000 
#    z 0.000000 0.000000 1.953880 
# 
# From -- ./inp_files/27013.got.cif
#   From: 2010.05.17/outbox.cif.g08.bks.cpg/sg72_14_cif.got.tgz:27013.got - 2010.06.03 17:03:01.
