data_PCOD9524417
_publ_section_title
;
Structure prediction by ZEFSAII (Michael W. Deem and Ramdas Pophale) SiO2 
 PCOD9524417
Probable space group: I M M M
;
_chemical_formula_sum "Si O2"
_cell_formula_units_Z 64
_cell_length_a 24.364891
_cell_length_b 10.411803
_cell_length_c 14.353915
_cell_angle_alpha 90.000000
_cell_angle_beta 90.000000
_cell_angle_gamma 90.000000
_cell_volume 3641.336256
_symmetry_space_group_name_H-M "I M M M"
_symmetry_group_IT_number 71
_symmetry_cell_setting 'orthorhombic'
loop_
_space_group_symop_operation_xyz
x,y,z
-x,-y,z
x,-y,-z
-x,y,-z
-x,-y,-z
x,y,-z
-x,y,z
x,-y,z
1/2+x,1/2+y,1/2+z
1/2-x,1/2-y,1/2+z
1/2+x,1/2-y,1/2-z
1/2-x,1/2+y,1/2-z
1/2-x,1/2-y,1/2-z
1/2+x,1/2+y,1/2-z
1/2-x,1/2+y,1/2+z
1/2+x,1/2-y,1/2+z
loop_
_atom_site_type_symbol
_atom_site_label
_atom_site_fract_x
_atom_site_fract_y
_atom_site_fract_z
Si Si1 0.619180 0.749747 0.798786
Si Si2 0.064825 0.000000 0.611279
Si Si3 0.777075 0.348979 0.391326
Si Si4 0.353101 0.346129 0.606475
Si Si5 0.434172 0.000000 0.109555
O O1 0.592930 0.625478 0.846295
O O2 0.682759 0.764882 0.829078
O O3 0.616829 0.730510 0.687839
O O4 0.589214 0.874628 0.839434
O O5 0.071125 0.000000 0.500000
O O6 0.000000 0.000000 0.632628
O O7 0.792127 0.330969 0.500000
O O8 0.785195 0.500000 0.368951
O O9 0.712370 0.322615 0.383679
O O10 0.368656 0.314506 0.500000
O O11 0.361237 0.500000 0.619192
O O12 0.500000 0.000000 0.112971
O O13 0.417830 0.000000 0.000000
#
# Coordination Sequence:
#
# PCOD9524417 Si02
#       5
#    16   8  16  16   8
#     4  12  20  36  60  84 110 150 192 225 277 338
#     4  11  24  38  54  81 115 143 180 240 292 329
#     4   9  17  31  54  84 117 149 182 221 273 338
#     4   9  19  36  56  83 117 151 187 227 272 328
#     4  11  24  40  60  85 113 147 186 230 284 343
#
# _framework density 17.575966000000001
#
# number of rings (size 3 to 8) (size 9 to 14) (size 15 to 20)
#    0.000    1.750    2.500    5.250    0.000    2.000 
#    0.000    0.625    0.000    7.500    0.000    0.000 
#    0.000    0.000    0.000    0.000    0.000    0.000 
#
# Total GULP energy -178642.942766 kJ/mol
# GULP energy per Si atom -5582.591961 kJ/mol
# Density = 1.753596 g / cm^3
# Si number density = 17.575966 Si / 1000 Ang^3
#
#
#
# Elastic Constant Matrix: (Units=GPa)
#
#
# Indices 1 2 3 4 5 6 
#
# 1 36.5437 37.3585 50.8168 0.0000 0.0000 0.0000
# 2 37.3585 117.2325 75.7792 0.0000 0.0000 0.0000
# 3 50.8168 75.7792 154.8634 0.0000 0.0000 0.0000
# 4 0.0000 0.0000 0.0000 29.8331 0.0000 0.0000
# 5 0.0000 0.0000 0.0000 0.0000 19.1674 0.0000
# 6 0.0000 0.0000 0.0000 0.0000 0.0000 4.7550
#
#
#
# Elastic Compliance Matrix: (Units=1/GPa)
#
#
# Indices 1 2 3 4 5 6 
#
# 1 0.055799 -0.008697 -0.014054 0.000000 0.000000 0.000000
# 2 -0.008697 0.013832 -0.003915 0.000000 0.000000 0.000000
# 3 -0.014054 -0.003915 0.012985 0.000000 0.000000 0.000000
# 4 0.000000 0.000000 0.000000 0.033520 0.000000 0.000000
# 5 0.000000 0.000000 0.000000 0.000000 0.052172 0.000000
# 6 0.000000 0.000000 0.000000 0.000000 0.000000 0.210304
#
#
# Mechanical properties :
#
#
# Convention : Reuss Voigt Hill
#
# Bulk Modulus (GPa) = 34.14832 70.72762 52.43797
# Shear Modulus (GPa) = 11.31983 20.39678 15.85831
#
# Velocity S-wave (km/s) = 2.54057 3.41030 3.00704
# Velocity P-wave (km/s) = 5.29879 7.47230 6.47736
#
# Compressibility (1/GPa) = 0.02928402
#
# Stress axis : x y z
#
# Youngs Moduli (GPa) = 17.92162 72.29701 77.01475
#
# Poissons Ratio (x) = 0.62875 1.08237
# Poissons Ratio (y) = 0.15586 0.30148
# Poissons Ratio (z) = 0.25187 0.28301
#
# Static dielectric constant tensor:
#      x y z
#    x 1.605520 0.000000 0.000000 
#    y 0.000000 1.572400 0.000000 
#    z 0.000000 0.000000 1.597240 
# 
# From -- ./inp_files/5562.got.cif
#   From: 2010.05.17/outbox.cif.g08.bks.cpg/sg71_3_cif.got.tgz:5562.got - 2010.06.03 16:22:01.
