data_PCOD9524450
_publ_section_title
;
Structure prediction by ZEFSAII (Michael W. Deem and Ramdas Pophale) SiO2 
 PCOD9524450
Probable space group: I M M M
;
_chemical_formula_sum "Si O2"
_cell_formula_units_Z 64
_cell_length_a 16.914534
_cell_length_b 23.415325
_cell_length_c 8.514931
_cell_angle_alpha 90.000000
_cell_angle_beta 90.000000
_cell_angle_gamma 90.000000
_cell_volume 3372.417704
_symmetry_space_group_name_H-M "I M M M"
_symmetry_group_IT_number 71
_symmetry_cell_setting 'orthorhombic'
loop_
_space_group_symop_operation_xyz
x,y,z
-x,-y,z
x,-y,-z
-x,y,-z
-x,-y,-z
x,y,-z
-x,y,z
x,-y,z
1/2+x,1/2+y,1/2+z
1/2-x,1/2-y,1/2+z
1/2+x,1/2-y,1/2-z
1/2-x,1/2+y,1/2-z
1/2-x,1/2-y,1/2-z
1/2+x,1/2+y,1/2-z
1/2-x,1/2+y,1/2+z
1/2+x,1/2-y,1/2+z
loop_
_atom_site_type_symbol
_atom_site_label
_atom_site_fract_x
_atom_site_fract_y
_atom_site_fract_z
Si Si1 0.356591 0.642106 0.189176
Si Si2 0.091581 0.500000 0.311983
Si Si3 0.000000 0.064364 0.692006
Si Si4 0.823573 0.614068 0.189818
Si Si5 0.338983 0.760750 0.687997
O O1 0.421601 0.597183 0.241564
O O2 0.268492 0.622314 0.238712
O O3 0.381641 0.704765 0.248377
O O4 0.354353 0.644636 0.000000
O O5 0.091470 0.500000 0.500000
O O6 0.135808 0.442539 0.255273
O O7 0.000000 0.500000 0.256721
O O8 0.000000 0.064161 0.500000
O O9 0.000000 0.000000 0.747321
O O10 0.863389 0.675036 0.235674
O O11 0.825188 0.610201 0.000000
O O12 0.338177 0.759510 0.500000
O O13 0.250000 0.750000 0.750000
#
# Coordination Sequence:
#
# PCOD9524450 Si02
#       5
#    16   8   8  16  16
#     4   9  18  33  56  85 113 145 184 221 263 313
#     4  11  25  41  55  78 107 136 176 229 281 327
#     4   9  18  32  53  81 115 152 187 222 255 305
#     4   9  19  35  58  82 105 141 182 220 266 326
#     4   9  17  32  55  82 109 139 178 223 268 318
#
# _framework density 18.977482999999999
#
# number of rings (size 3 to 8) (size 9 to 14) (size 15 to 20)
#    0.000    2.750    0.000    2.625    1.750    6.000 
#    2.250    0.625    0.000    0.750    0.000    0.000 
#    0.000    0.000    0.000    0.000    0.000    0.000 
#
# Total GULP energy -178290.093739 kJ/mol
# GULP energy per Si atom -5571.565429 kJ/mol
# Density = 1.893429 g / cm^3
# Si number density = 18.977483 Si / 1000 Ang^3
#
#
#
# Elastic Constant Matrix: (Units=GPa)
#
#
# Indices 1 2 3 4 5 6 
#
# 1 84.3465 91.8440 19.9027 0.0000 0.0000 0.0000
# 2 91.8440 243.0275 34.5499 0.0000 0.0000 0.0000
# 3 19.9027 34.5499 17.2603 0.0000 0.0000 0.0000
# 4 0.0000 0.0000 0.0000 35.6315 0.0000 0.0000
# 5 0.0000 0.0000 0.0000 0.0000 16.0763 0.0000
# 6 0.0000 0.0000 0.0000 0.0000 0.0000 29.4010
#
#
#
# Elastic Compliance Matrix: (Units=1/GPa)
#
#
# Indices 1 2 3 4 5 6 
#
# 1 0.021814 -0.006525 -0.012093 0.000000 0.000000 0.000000
# 2 -0.006525 0.007703 -0.007895 0.000000 0.000000 0.000000
# 3 -0.012093 -0.007895 0.087685 0.000000 0.000000 0.000000
# 4 0.000000 0.000000 0.000000 0.028065 0.000000 0.000000
# 5 0.000000 0.000000 0.000000 0.000000 0.062203 0.000000
# 6 0.000000 0.000000 0.000000 0.000000 0.000000 0.034012
#
#
# Mechanical properties :
#
#
# Convention : Reuss Voigt Hill
#
# Bulk Modulus (GPa) = 15.58225 70.80308 43.19266
# Shear Modulus (GPa) = 15.82770 29.44428 22.63599
#
# Velocity S-wave (km/s) = 2.89108 3.94323 3.45741
# Velocity P-wave (km/s) = 4.40150 7.62378 6.22476
#
# Compressibility (1/GPa) = 0.06417559
#
# Stress axis : x y z
#
# Youngs Moduli (GPa) = 45.84202 129.81974 11.40441
#
# Poissons Ratio (x) = 0.84703 0.13792
# Poissons Ratio (y) = 0.29910 0.09004
# Poissons Ratio (z) = 0.55438 1.02499
#
# Static dielectric constant tensor:
#      x y z
#    x 1.654170 0.000000 0.000000 
#    y 0.000000 1.681170 0.000000 
#    z 0.000000 0.000000 1.654320 
# 
# From -- ./inp_files/7548.got.cif
#   From: 2010.05.17/outbox.cif.g08.bks.cpg/sg71_4_cif.got.tgz:7548.got - 2010.06.03 16:22:01.
