data_PCOD9524480
_publ_section_title
;
Structure prediction by ZEFSAII (Michael W. Deem and Ramdas Pophale) SiO2 
 PCOD9524480
Probable space group: I M M M
;
_chemical_formula_sum "Si O2"
_cell_formula_units_Z 64
_cell_length_a 8.553211
_cell_length_b 24.988087
_cell_length_c 14.220736
_cell_angle_alpha 90.000000
_cell_angle_beta 90.000000
_cell_angle_gamma 90.000000
_cell_volume 3039.374876
_symmetry_space_group_name_H-M "I M M M"
_symmetry_group_IT_number 71
_symmetry_cell_setting 'orthorhombic'
loop_
_space_group_symop_operation_xyz
x,y,z
-x,-y,z
x,-y,-z
-x,y,-z
-x,-y,-z
x,y,-z
-x,y,z
x,-y,z
1/2+x,1/2+y,1/2+z
1/2-x,1/2-y,1/2+z
1/2+x,1/2-y,1/2-z
1/2-x,1/2+y,1/2-z
1/2-x,1/2-y,1/2-z
1/2+x,1/2+y,1/2-z
1/2-x,1/2+y,1/2+z
1/2+x,1/2-y,1/2+z
loop_
_atom_site_type_symbol
_atom_site_label
_atom_site_fract_x
_atom_site_fract_y
_atom_site_fract_z
Si Si1 0.332539 0.000000 0.688824
Si Si2 0.000000 0.788817 0.115762
Si Si3 0.312986 0.394127 0.892904
Si Si4 0.500000 0.407772 0.609241
Si Si5 0.749017 0.000000 0.892019
Si Si6 0.317377 0.726346 0.884769
O O1 0.245899 0.945731 0.661154
O O2 0.500000 0.000000 0.640328
O O3 0.351835 0.000000 0.800274
O O4 0.000000 0.849759 0.155052
O O5 0.832789 0.762197 0.143904
O O6 0.000000 0.785633 0.000000
O O7 0.500000 0.397005 0.895818
O O8 0.277162 0.334729 0.856049
O O9 0.253094 0.397355 0.000000
O O10 0.500000 0.394051 0.500000
O O11 0.354151 0.446921 0.621330
O O12 0.690750 0.000000 0.000000
O O13 0.500000 0.739216 0.856496
O O14 0.321761 0.726921 0.000000
#
# Coordination Sequence:
#
# PCOD9524480 Si02
#       6
#     8   8  16   8   8  16
#     4  12  25  34  53  87 110 150 194 237 289 347
#     4   9  15  26  53  87 112 141 186 230 282 343
#     4   9  19  35  54  81 119 160 194 223 267 331
#     4   8  16  33  60  88 101 130 188 240 296 354
#     4   9  20  40  60  78 107 140 187 250 301 342
#     4   8  15  28  47  77 117 155 186 220 266 329
#
# _framework density 21.056961999999999
#
# number of rings (size 3 to 8) (size 9 to 14) (size 15 to 20)
#    0.000    3.000    0.000    3.000    5.250    2.250 
#    0.000    1.250    0.000    6.000    0.000    0.000 
#    0.000    0.000    0.000    0.000    0.000    0.000 
#
# Total GULP energy -178205.109744 kJ/mol
# GULP energy per Si atom -5568.909680 kJ/mol
# Density = 2.100904 g / cm^3
# Si number density = 21.056962 Si / 1000 Ang^3
#
#
#
# Elastic Constant Matrix: (Units=GPa)
#
#
# Indices 1 2 3 4 5 6 
#
# 1 103.9511 95.3531 22.6463 0.0000 0.0000 0.0000
# 2 95.3531 189.3103 35.4158 0.0000 0.0000 0.0000
# 3 22.6463 35.4158 61.4236 0.0001 -0.0001 0.0000
# 4 0.0000 0.0000 0.0001 -5.1160 0.0000 0.0000
# 5 0.0000 0.0000 -0.0001 0.0000 -12.2492 0.0000
# 6 0.0000 0.0000 0.0000 0.0000 0.0000 -8.3764
#
#
#
# Elastic Compliance Matrix: (Units=1/GPa)
#
#
# Indices 1 2 3 4 5 6 
#
# 1 0.018018 -0.008779 -0.001581 0.000000 0.000000 0.000000
# 2 -0.008779 0.010199 -0.002644 0.000000 0.000000 0.000000
# 3 -0.001581 -0.002644 0.018388 0.000000 0.000000 0.000000
# 4 0.000000 0.000000 0.000000 -0.195464 0.000001 0.000000
# 5 0.000000 0.000000 0.000000 0.000001 -0.081638 0.000000
# 6 0.000000 0.000000 0.000000 0.000000 0.000000 -0.119383
#
#
# Mechanical properties :
#
#
# Convention : Reuss Voigt Hill
#
# Bulk Modulus (GPa) = 48.55271 73.50173 61.02722
# Shear Modulus (GPa) = -15.77247 8.26966 -3.75140
#
# Velocity S-wave (km/s) = -2.73983 1.98389 -1.33620
# Velocity P-wave (km/s) = 3.61925 6.34269 5.16375
#
# Compressibility (1/GPa) = 0.02059617
#
# Stress axis : x y z
#
# Youngs Moduli (GPa) = 55.50122 98.04862 54.38477
#
# Poissons Ratio (x) = 0.86082 0.08597
# Poissons Ratio (y) = 0.48727 0.14377
# Poissons Ratio (z) = 0.08774 0.25921
#
# Static dielectric constant tensor:
#      x y z
#    x 1.705090 0.000000 0.000000 
#    y 0.000000 1.839780 0.000000 
#    z 0.000000 0.000000 1.798910 
# 
# From -- ./inp_files/31224.got.cif
#   From: 2010.05.17/outbox.cif.g08.bks.cpg/sg71_16_cif.got.tgz:31224.got - 2010.06.03 16:22:01.
