data_PCOD9524460
_publ_section_title
;
Structure prediction by ZEFSAII (Michael W. Deem and Ramdas Pophale) SiO2 
 PCOD9524460
Probable space group: I M M M
;
_chemical_formula_sum "Si O2"
_cell_formula_units_Z 58
_cell_length_a 7.924937
_cell_length_b 30.585645
_cell_length_c 10.832861
_cell_angle_alpha 90.000000
_cell_angle_beta 90.000000
_cell_angle_gamma 90.000000
_cell_volume 2625.769700
_symmetry_space_group_name_H-M "I M M M"
_symmetry_group_IT_number 71
_symmetry_cell_setting 'orthorhombic'
loop_
_space_group_symop_operation_xyz
x,y,z
-x,-y,z
x,-y,-z
-x,y,-z
-x,-y,-z
x,y,-z
-x,y,z
x,-y,z
1/2+x,1/2+y,1/2+z
1/2-x,1/2-y,1/2+z
1/2+x,1/2-y,1/2-z
1/2-x,1/2+y,1/2-z
1/2-x,1/2-y,1/2-z
1/2+x,1/2+y,1/2-z
1/2-x,1/2+y,1/2+z
1/2+x,1/2-y,1/2+z
loop_
_atom_site_type_symbol
_atom_site_label
_atom_site_fract_x
_atom_site_fract_y
_atom_site_fract_z
Si Si1 0.687298 0.371678 0.771664
Si Si2 0.304427 0.952935 0.146803
Si Si3 0.800299 0.716617 0.358975
Si Si4 0.500000 0.500000 0.000000
Si Si5 0.309040 0.075016 0.500000
O O1 0.500000 0.360023 0.814866
O O2 0.687985 0.413553 0.683250
O O3 0.757398 0.331165 0.694685
O O4 0.789751 0.391875 0.884873
O O5 0.500000 0.945812 0.184766
O O6 0.248710 0.000000 0.198848
O O7 0.306589 0.955761 0.000000
O O8 0.730299 0.723085 0.500000
O O9 0.750000 0.750000 0.250000
O O10 0.000000 0.720103 0.370115
O O11 0.654321 0.460650 0.000000
O O12 0.500000 0.055964 0.500000
#
# Coordination Sequence:
#
# PCOD9524460 Si02
#       5
#    16  16  16   2   8
#     4  12  25  43  66  99 141 184 247 307 368 455
#     4   9  19  36  59  89 126 173 227 283 351 429
#     4  11  26  48  76 109 146 193 250 318 398 481
#     4  12  26  52  68 114 150 200 282 312 398 470
#     4  12  27  47  73 104 151 207 254 329 388 457
#
# _framework density 22.088763
#
# number of rings (size 3 to 8) (size 9 to 14) (size 15 to 20)
#    0.000    1.103    1.379    5.172    3.862    6.621 
#    0.000    1.379    0.000    0.000    0.000    0.000 
#    0.000    0.000    0.000    0.000    0.000    0.000 
#
# Total GULP energy -161549.612239 kJ/mol
# GULP energy per Si atom -5570.676284 kJ/mol
# Density = 2.203849 g / cm^3
# Si number density = 22.088763 Si / 1000 Ang^3
#
#
#
# Elastic Constant Matrix: (Units=GPa)
#
#
# Indices 1 2 3 4 5 6 
#
# 1 119.2594 40.9668 39.4539 0.0000 -0.0035 0.0000
# 2 40.9668 148.8451 78.0117 0.0002 -0.0151 0.0001
# 3 39.4539 78.0117 146.6196 0.0005 -0.0321 0.0002
# 4 0.0000 0.0002 0.0005 31.2137 -0.0341 0.0003
# 5 -0.0035 -0.0151 -0.0321 -0.0341 441.5161 -0.0137
# 6 0.0000 0.0001 0.0002 0.0003 -0.0137 18.5155
#
#
#
# Elastic Compliance Matrix: (Units=1/GPa)
#
#
# Indices 1 2 3 4 5 6 
#
# 1 0.009531 -0.001774 -0.001621 0.000000 0.000000 0.000000
# 2 -0.001774 0.009646 -0.004655 0.000000 0.000000 0.000000
# 3 -0.001621 -0.004655 0.009734 0.000000 0.000001 0.000000
# 4 0.000000 0.000000 0.000000 0.032037 0.000002 0.000000
# 5 0.000000 0.000000 0.000001 0.000002 0.002265 0.000002
# 6 0.000000 0.000000 0.000000 0.000000 0.000002 0.054009
#
#
# Mechanical properties :
#
#
# Convention : Reuss Voigt Hill
#
# Bulk Modulus (GPa) = 78.05861 81.28767 79.67314
# Shear Modulus (GPa) = 36.33947 115.33517 75.83732
#
# Velocity S-wave (km/s) = 4.06045 7.23379 5.86579
# Velocity P-wave (km/s) = 7.57617 10.32718 9.05674
#
# Compressibility (1/GPa) = 0.01281089
#
# Stress axis : x y z
#
# Youngs Moduli (GPa) = 104.92568 103.66505 102.73795
#
# Poissons Ratio (x) = 0.18386 0.16653
# Poissons Ratio (y) = 0.18609 0.47828
# Poissons Ratio (z) = 0.17008 0.48259
#
# Static dielectric constant tensor:
#      x y z
#    x 1.895250 0.000000 0.000000 
#    y 0.000000 1.795970 0.000000 
#    z 0.000000 0.000000 2.023450 
# 
# From -- ./inp_files/18293.got.cif
#   From: 2010.05.17/outbox.cif.g08.bks.cpg/sg71_10_cif.got.tgz:18293.got - 2010.06.03 16:22:01.
