data_PCOD9524644
_publ_section_title
;
Structure prediction by ZEFSAII (Michael W. Deem and Ramdas Pophale) SiO2 
 PCOD9524644
Probable space group: I M M M
;
_chemical_formula_sum "Si O2"
_cell_formula_units_Z 120
_cell_length_a 16.276569
_cell_length_b 27.394728
_cell_length_c 14.221091
_cell_angle_alpha 90.000000
_cell_angle_beta 90.000000
_cell_angle_gamma 90.000000
_cell_volume 6341.073275
_symmetry_space_group_name_H-M "I M M M"
_symmetry_group_IT_number 71
_symmetry_cell_setting 'orthorhombic'
loop_
_space_group_symop_operation_xyz
x,y,z
-x,-y,z
x,-y,-z
-x,y,-z
-x,-y,-z
x,y,-z
-x,y,z
x,-y,z
1/2+x,1/2+y,1/2+z
1/2-x,1/2-y,1/2+z
1/2+x,1/2-y,1/2-z
1/2-x,1/2+y,1/2-z
1/2-x,1/2-y,1/2-z
1/2+x,1/2+y,1/2-z
1/2-x,1/2+y,1/2+z
1/2+x,1/2-y,1/2+z
loop_
_atom_site_type_symbol
_atom_site_label
_atom_site_fract_x
_atom_site_fract_y
_atom_site_fract_z
Si Si1 0.592249 0.912433 0.205355
Si Si2 0.092380 0.297487 0.252194
Si Si3 0.590861 0.707091 0.112855
Si Si4 0.754567 0.058698 0.895706
Si Si5 0.000000 0.939828 0.607179
Si Si6 0.825229 0.425520 0.894943
Si Si7 0.274340 0.813134 0.393711
Si Si8 0.339861 0.443768 0.788865
O O1 0.500000 0.924822 0.177542
O O2 0.599824 0.853633 0.214654
O O3 0.661415 0.930363 0.134238
O O4 0.612813 0.934364 0.308953
O O5 0.096362 0.260144 0.338541
O O6 0.165828 0.286419 0.179457
O O7 0.000000 0.293007 0.209752
O O8 0.500000 0.686995 0.140888
O O9 0.678835 0.682652 0.136960
O O10 0.589838 0.710140 0.000000
O O11 0.809723 0.078618 0.809589
O O12 0.763640 0.000000 0.896741
O O13 0.773732 0.077249 0.000000
O O14 0.081189 0.922596 0.660289
O O15 0.000000 0.922688 0.500000
O O16 0.000000 0.000000 0.603796
O O17 0.811874 0.367319 0.898939
O O18 0.736945 0.444407 0.859895
O O19 0.846858 0.442292 0.000000
O O20 0.276378 0.792389 0.500000
O O21 0.361479 0.500000 0.768094
#
# Coordination Sequence:
#
# PCOD9524644 Si02
#       8
#    16  16  16  16   8  16  16  16
#     4   9  18  30  44  65  89 112 145 187 223 261
#     4   9  17  29  46  66  87 113 145 182 223 263
#     4   9  17  29  44  63  88 115 143 177 218 262
#     4   9  18  32  48  64  86 118 150 182 223 265
#     4   9  16  26  43  67  91 113 140 178 221 259
#     4   9  17  29  44  63  88 118 148 177 216 266
#     4   9  17  29  44  63  89 117 146 179 215 263
#     4   9  17  30  46  65  90 116 147 185 220 259
#
# _framework density 18.924240000000001
#
# number of rings (size 3 to 8) (size 9 to 14) (size 15 to 20)
#    0.000    3.000    0.000    0.800    0.000    2.400 
#    1.200    5.000    0.000    2.000    0.000    3.733 
#    0.000    0.000    0.000    0.000    0.000    0.000 
#
# Total GULP energy -334108.871890 kJ/mol
# GULP energy per Si atom -5568.481198 kJ/mol
# Density = 1.888117 g / cm^3
# Si number density = 18.924240 Si / 1000 Ang^3
#
#
#
# Elastic Constant Matrix: (Units=GPa)
#
#
# Indices 1 2 3 4 5 6 
#
# 1 81.9130 -7.9363 18.9854 0.0000 0.0000 0.0000
# 2 -7.9363 15.3061 -1.5174 0.0000 0.0000 0.0000
# 3 18.9854 -1.5174 73.8638 0.0000 0.0000 0.0000
# 4 0.0000 0.0000 0.0000 7.9254 0.0000 0.0000
# 5 0.0000 0.0000 0.0000 0.0000 14.7474 0.0000
# 6 0.0000 0.0000 0.0000 0.0000 0.0000 16.7537
#
#
#
# Elastic Compliance Matrix: (Units=1/GPa)
#
#
# Indices 1 2 3 4 5 6 
#
# 1 0.013642 0.006739 -0.003368 0.000000 0.000000 0.000000
# 2 0.006739 0.068796 -0.000319 0.000000 0.000000 0.000000
# 3 -0.003368 -0.000319 0.014398 0.000000 0.000000 0.000000
# 4 0.000000 0.000000 0.000000 0.126177 0.000000 0.000000
# 5 0.000000 0.000000 0.000000 0.000000 0.067809 0.000000
# 6 0.000000 0.000000 0.000000 0.000000 0.000000 0.059688
#
#
# Mechanical properties :
#
#
# Convention : Reuss Voigt Hill
#
# Bulk Modulus (GPa) = 9.71435 21.12737 15.42086
# Shear Modulus (GPa) = 13.20245 18.65537 15.92891
#
# Velocity S-wave (km/s) = 2.64417 3.14314 2.90439
# Velocity P-wave (km/s) = 3.80350 4.93567 4.40610
#
# Compressibility (1/GPa) = 0.10294055
#
# Stress axis : x y z
#
# Youngs Moduli (GPa) = 73.30509 14.53567 69.45628
#
# Poissons Ratio (x) = -0.09796 0.23392
# Poissons Ratio (y) = -0.49403 0.02215
# Poissons Ratio (z) = 0.24688 0.00464
#
# Static dielectric constant tensor:
#      x y z
#    x 1.672480 0.000000 0.000000 
#    y 0.000000 1.690440 0.000000 
#    z 0.000000 0.000000 1.666440 
# 
# From -- ./inp_files/35428.got.cif
#   From: 2010.05.17/outbox.cif.g08.bks.cpg/sg71_18_cif.got.tgz:35428.got - 2010.06.03 16:22:01.
