data_PCOD9524149
_publ_section_title
;
Structure prediction by ZEFSAII (Michael W. Deem and Ramdas Pophale) SiO2 
 PCOD9524149
Probable space group: I M M M
;
_chemical_formula_sum "Si O2"
_cell_formula_units_Z 104
_cell_length_a 23.580618
_cell_length_b 8.737432
_cell_length_c 27.072925
_cell_angle_alpha 90.000000
_cell_angle_beta 90.000000
_cell_angle_gamma 90.000000
_cell_volume 5577.944283
_symmetry_space_group_name_H-M "I M M M"
_symmetry_group_IT_number 71
_symmetry_cell_setting 'orthorhombic'
loop_
_space_group_symop_operation_xyz
x,y,z
-x,-y,z
x,-y,-z
-x,y,-z
-x,-y,-z
x,y,-z
-x,y,z
x,-y,z
1/2+x,1/2+y,1/2+z
1/2-x,1/2-y,1/2+z
1/2+x,1/2-y,1/2-z
1/2-x,1/2+y,1/2-z
1/2-x,1/2-y,1/2-z
1/2+x,1/2+y,1/2-z
1/2-x,1/2+y,1/2+z
1/2+x,1/2-y,1/2+z
loop_
_atom_site_type_symbol
_atom_site_label
_atom_site_fract_x
_atom_site_fract_y
_atom_site_fract_z
Si Si1 0.936138 0.813906 0.291042
Si Si2 0.742666 0.816802 0.057244
Si Si3 0.064792 0.815704 0.175441
Si Si4 0.636351 0.181916 0.410954
Si Si5 0.067530 0.178037 0.000000
Si Si6 0.567603 0.829766 0.056856
Si Si7 0.146237 0.176108 0.625776
O O1 0.928982 0.776705 0.233330
O O2 0.883191 0.760764 0.324225
O O3 0.000000 0.761786 0.306593
O O4 0.936704 0.000000 0.294932
O O5 0.803400 0.754015 0.074500
O O6 0.696614 0.760855 0.097194
O O7 0.743453 0.000000 0.056887
O O8 0.731388 0.766391 0.000000
O O9 0.111203 0.738088 0.141079
O O10 0.000000 0.774016 0.160657
O O11 0.069336 0.000000 0.170787
O O12 0.592484 0.240357 0.452132
O O13 0.640964 0.000000 0.411869
O O14 0.000000 0.183106 0.000000
O O15 0.085714 0.000000 0.000000
O O16 0.500000 0.824609 0.058214
O O17 0.594240 0.695145 0.087837
O O18 0.585297 0.000000 0.075231
O O19 0.585782 0.820278 0.000000
O O20 0.162606 0.000000 0.633382
#
# Coordination Sequence:
#
# PCOD9524149 Si02
#       7
#    16  16  16  16   8  16  16
#     4   8  16  33  57  85 116 151 190 234 285 342
#     4  11  24  42  61  78 107 154 202 239 282 348
#     4   9  18  36  62  87 115 154 193 225 272 346
#     4  12  24  38  59  88 120 148 185 239 291 332
#     4  11  23  39  61  89 121 157 192 221 266 343
#     4   9  18  32  48  69 102 143 185 229 282 347
#     4  11  21  33  54  83 112 142 187 243 295 341
#
# _framework density 18.644860999999999
#
# number of rings (size 3 to 8) (size 9 to 14) (size 15 to 20)
#    0.000    1.923    0.769    5.308    0.000    6.769 
#    0.000    3.077    0.000    1.846    0.000    0.000 
#    0.000    0.000    0.000    0.000    0.000    0.000 
#
# Total GULP energy -290118.029985 kJ/mol
# GULP energy per Si atom -5579.192884 kJ/mol
# Density = 1.860242 g / cm^3
# Si number density = 18.644861 Si / 1000 Ang^3
#
#
#
# Elastic Constant Matrix: (Units=GPa)
#
#
# Indices 1 2 3 4 5 6 
#
# 1 103.7042 35.4392 64.5041 0.0000 0.0000 0.0000
# 2 35.4392 51.5635 31.6580 0.0000 0.0000 0.0000
# 3 64.5041 31.6580 98.7361 0.0000 0.0000 0.0000
# 4 0.0000 0.0000 0.0000 9.3296 0.0000 0.0000
# 5 0.0000 0.0000 0.0000 0.0000 64.8227 0.0000
# 6 0.0000 0.0000 0.0000 0.0000 0.0000 29.1889
#
#
#
# Elastic Compliance Matrix: (Units=1/GPa)
#
#
# Indices 1 2 3 4 5 6 
#
# 1 0.017760 -0.006329 -0.009574 0.000000 0.000000 0.000000
# 2 -0.006329 0.026402 -0.004331 0.000000 0.000000 0.000000
# 3 -0.009574 -0.004331 0.017771 0.000000 0.000000 0.000000
# 4 0.000000 0.000000 0.000000 0.107186 0.000000 0.000000
# 5 0.000000 0.000000 0.000000 0.000000 0.015427 0.000000
# 6 0.000000 0.000000 0.000000 0.000000 0.000000 0.034260
#
#
# Mechanical properties :
#
#
# Convention : Reuss Voigt Hill
#
# Bulk Modulus (GPa) = 46.58264 57.46736 52.02500
# Shear Modulus (GPa) = 18.76680 28.82840 23.79760
#
# Velocity S-wave (km/s) = 3.17604 3.93642 3.57650
# Velocity P-wave (km/s) = 6.20388 7.17980 6.70961
#
# Compressibility (1/GPa) = 0.02146723
#
# Stress axis : x y z
#
# Youngs Moduli (GPa) = 56.30526 37.87560 56.27137
#
# Poissons Ratio (x) = 0.23970 0.53872
# Poissons Ratio (y) = 0.35634 0.24370
# Poissons Ratio (z) = 0.53904 0.16403
#
# Static dielectric constant tensor:
#      x y z
#    x 1.647430 0.000000 0.000000 
#    y 0.000000 1.652290 0.000000 
#    z 0.000000 0.000000 1.644160 
# 
# From -- ./inp_files/66801.got.cif
#   From: 2010.05.17/outbox.cif.g08.bks.cpg/sg71_34_cif.got.tgz:66801.got - 2010.06.03 16:22:01.
