data_PCOD9524493
_publ_section_title
;
Structure prediction by ZEFSAII (Michael W. Deem and Ramdas Pophale) SiO2 
 PCOD9524493
Probable space group: I M M M
;
_chemical_formula_sum "Si O2"
_cell_formula_units_Z 72
_cell_length_a 13.702471
_cell_length_b 31.839217
_cell_length_c 7.295884
_cell_angle_alpha 90.000000
_cell_angle_beta 90.000000
_cell_angle_gamma 90.000000
_cell_volume 3183.018706
_symmetry_space_group_name_H-M "I M M M"
_symmetry_group_IT_number 71
_symmetry_cell_setting 'orthorhombic'
loop_
_space_group_symop_operation_xyz
x,y,z
-x,-y,z
x,-y,-z
-x,y,-z
-x,-y,-z
x,y,-z
-x,y,z
x,-y,z
1/2+x,1/2+y,1/2+z
1/2-x,1/2-y,1/2+z
1/2+x,1/2-y,1/2-z
1/2-x,1/2+y,1/2-z
1/2-x,1/2-y,1/2-z
1/2+x,1/2+y,1/2-z
1/2-x,1/2+y,1/2+z
1/2+x,1/2-y,1/2+z
loop_
_atom_site_type_symbol
_atom_site_label
_atom_site_fract_x
_atom_site_fract_y
_atom_site_fract_z
Si Si1 0.607119 0.787411 0.288295
Si Si2 0.392881 0.604145 0.776719
Si Si3 0.500000 0.051121 0.715334
Si Si4 0.711455 0.048727 0.724036
Si Si5 0.321889 0.694746 0.777636
O O1 0.604058 0.801087 0.500000
O O2 0.500000 0.796878 0.208955
O O3 0.624987 0.737154 0.283591
O O4 0.709018 0.805260 0.212604
O O5 0.500000 0.589703 0.718563
O O6 0.302879 0.575869 0.715349
O O7 0.374873 0.652263 0.722702
O O8 0.391594 0.603334 0.000000
O O9 0.500000 0.061764 0.500000
O O10 0.605191 0.064900 0.787621
O O11 0.500000 0.000000 0.728444
O O12 0.709380 0.049539 0.500000
O O13 0.721929 0.000000 0.776416
O O14 0.320372 0.696595 0.000000
#
# Coordination Sequence:
#
# PCOD9524493 Si02
#       5
#    16  16   8  16  16
#     4   9  17  29  44  61  81 105 137 174 206 241
#     4   9  16  24  34  51  74 100 132 164 194 236
#     4   7  10  18  30  42  60  90 127 157 183 227
#     4   8  13  21  32  47  69  98 129 159 193 233
#     4   9  17  29  43  60  83 110 137 166 206 250
#
# _framework density 22.620038000000001
#
# number of rings (size 3 to 8) (size 9 to 14) (size 15 to 20)
#    0.000    3.444    0.000    2.000    0.000    1.778 
#    2.000    2.222    0.000    0.000    0.000    0.000 
#    0.000    0.889    0.000    4.667    0.000   10.667 
#
# Total GULP energy -200849.314805 kJ/mol
# GULP energy per Si atom -5579.147633 kJ/mol
# Density = 2.256855 g / cm^3
# Si number density = 22.620038 Si / 1000 Ang^3
#
#
#
# Elastic Constant Matrix: (Units=GPa)
#
#
# Indices 1 2 3 4 5 6 
#
# 1 212.2655 42.6359 3.9771 -0.0354 0.0057 -0.0035
# 2 42.6359 31.8403 -8.3038 -0.0005 0.0015 -0.0009
# 3 3.9771 -8.3038 92.9582 0.0600 0.0262 -0.0162
# 4 -0.0354 -0.0005 0.0600 171.4330 -0.0359 0.0338
# 5 0.0057 0.0015 0.0262 -0.0359 -12.2408 0.0051
# 6 -0.0035 -0.0009 -0.0162 0.0338 0.0051 9.6354
#
#
#
# Elastic Compliance Matrix: (Units=1/GPa)
#
#
# Indices 1 2 3 4 5 6 
#
# 1 0.006550 -0.009055 -0.001089 0.000002 0.000000 0.000000
# 2 -0.009055 0.044674 0.004378 -0.000003 0.000010 0.000008
# 3 -0.001089 0.004378 0.011195 -0.000004 0.000024 0.000019
# 4 0.000002 -0.000003 -0.000004 0.005833 -0.000017 -0.000020
# 5 0.000000 0.000010 0.000024 -0.000017 -0.081694 0.000043
# 6 0.000000 0.000008 0.000019 -0.000020 0.000043 0.103785
#
#
# Mechanical properties :
#
#
# Convention : Reuss Voigt Hill
#
# Bulk Modulus (GPa) = 19.65145 45.96471 32.80808
# Shear Modulus (GPa) = 42.07398 53.68252 47.87825
#
# Velocity S-wave (km/s) = 4.31749 4.87686 4.60568
# Velocity P-wave (km/s) = 5.79316 7.21638 6.54358
#
# Compressibility (1/GPa) = 0.05088684
#
# Stress axis : x y z
#
# Youngs Moduli (GPa) = 152.66377 22.38439 89.32395
#
# Poissons Ratio (x) = 0.20270 0.09729
# Poissons Ratio (y) = 1.38242 -0.39107
# Poissons Ratio (z) = 0.16627 -0.09800
#
# Static dielectric constant tensor:
#      x y z
#    x 1.856630 0.000000 0.000000 
#    y 0.000000 1.767960 -0.000010 
#    z 0.000000 -0.000010 1.862230 
# 
# From -- ./inp_files/6430.got.cif
#   From: 2010.05.17/outbox.cif.g08.bks.cpg/sg71_4_cif.got.tgz:6430.got - 2010.06.03 16:22:01.
