data_PCOD9524929
_publ_section_title
;
Structure prediction by ZEFSAII (Michael W. Deem and Ramdas Pophale) SiO2 
 PCOD9524929
Probable space group: I B A M
;
_chemical_formula_sum "Si O2"
_cell_formula_units_Z 96
_cell_length_a 21.016199
_cell_length_b 14.322877
_cell_length_c 16.777087
_cell_angle_alpha 90.000000
_cell_angle_beta 90.000000
_cell_angle_gamma 90.000000
_cell_volume 5050.111781
_symmetry_space_group_name_H-M "I B A M"
_symmetry_group_IT_number 72
_symmetry_cell_setting 'orthorhombic'
loop_
_space_group_symop_operation_xyz
x,y,z
-x,-y,z
x,-y,1/2-z
-x,y,1/2-z
-x,-y,-z
x,y,-z
-x,y,1/2+z
x,-y,1/2+z
1/2+x,1/2+y,1/2+z
1/2-x,1/2-y,1/2+z
1/2+x,1/2-y,-z
1/2-x,1/2+y,-z
1/2-x,1/2-y,1/2-z
1/2+x,1/2+y,1/2-z
1/2-x,1/2+y,z
1/2+x,1/2-y,z
loop_
_atom_site_type_symbol
_atom_site_label
_atom_site_fract_x
_atom_site_fract_y
_atom_site_fract_z
Si Si1 0.200984 0.660726 0.250454
Si Si2 0.068845 0.238265 0.259330
Si Si3 0.740668 0.637673 0.409763
Si Si4 0.403758 0.621177 0.410660
Si Si5 0.750394 0.138257 0.086854
Si Si6 0.114689 0.941768 0.328875
O O1 0.250000 0.750000 0.250000
O O2 0.129745 0.698451 0.257857
O O3 0.211581 0.616674 0.163316
O O4 0.220245 0.604706 0.329995
O O5 0.074794 0.198325 0.348431
O O6 0.075274 0.146397 0.203008
O O7 0.000000 0.282922 0.250000
O O8 0.755704 0.606600 0.500000
O O9 0.737506 0.750381 0.414327
O O10 0.673766 0.596300 0.379776
O O11 0.425005 0.639068 0.500000
O O12 0.326299 0.623162 0.408722
O O13 0.422121 0.518323 0.380473
O O14 0.728555 0.102421 0.000000
O O15 0.136436 0.000000 0.250000
#
# Coordination Sequence:
#
# PCOD9524929 Si02
#       6
#    16  16  16  16  16  16
#     4  10  15  31  51  69  85 121 163 205 251 281
#     4  11  21  33  47  66  97 133 170 200 233 283
#     4  10  17  28  51  73  89 120 168 209 244 284
#     4  10  19  32  48  69  97 129 165 197 237 287
#     4   9  16  28  51  72  87 119 163 208 249 287
#     4  10  19  31  46  69  99 135 164 197 236 280
#
# _framework density 19.00948
#
# number of rings (size 3 to 8) (size 9 to 14) (size 15 to 20)
#    0.000    2.000    6.667    1.500    0.000    3.000 
#    0.000    3.333    0.000    0.000    0.000    0.000 
#    0.000    6.000    0.000   10.000    0.000    0.000 
#
# Total GULP energy -267593.896951 kJ/mol
# GULP energy per Si atom -5574.872853 kJ/mol
# Density = 1.896621 g / cm^3
# Si number density = 19.009480 Si / 1000 Ang^3
#
#
#
# Elastic Constant Matrix: (Units=GPa)
#
#
# Indices 1 2 3 4 5 6 
#
# 1 94.9336 5.5791 34.4380 0.0000 0.0000 0.0000
# 2 5.5791 45.5744 2.7172 0.0000 0.0000 0.0000
# 3 34.4380 2.7172 171.4068 0.0000 0.0000 0.0000
# 4 0.0000 0.0000 0.0000 -8.3162 0.0000 0.0000
# 5 0.0000 0.0000 0.0000 0.0000 8.5280 0.0000
# 6 0.0000 0.0000 0.0000 0.0000 0.0000 4.4019
#
#
#
# Elastic Compliance Matrix: (Units=1/GPa)
#
#
# Indices 1 2 3 4 5 6 
#
# 1 0.011434 -0.001264 -0.002277 0.000000 0.000000 0.000000
# 2 -0.001264 0.022103 -0.000096 0.000000 0.000000 0.000000
# 3 -0.002277 -0.000096 0.006293 0.000000 0.000000 0.000000
# 4 0.000000 0.000000 0.000000 -0.120247 0.000000 0.000000
# 5 0.000000 0.000000 0.000000 0.000000 0.117261 0.000000
# 6 0.000000 0.000000 0.000000 0.000000 0.000000 0.227174
#
#
# Mechanical properties :
#
#
# Convention : Reuss Voigt Hill
#
# Bulk Modulus (GPa) = 30.71765 44.15371 37.43568
# Shear Modulus (GPa) = 17.72142 18.86811 18.29477
#
# Velocity S-wave (km/s) = 3.05658 3.15391 3.10563
# Velocity P-wave (km/s) = 5.35267 6.04488 5.70927
#
# Compressibility (1/GPa) = 0.03255458
#
# Stress axis : x y z
#
# Youngs Moduli (GPa) = 87.45818 45.24350 158.90354
#
# Poissons Ratio (x) = 0.05719 0.36186
# Poissons Ratio (y) = 0.11054 0.01532
# Poissons Ratio (z) = 0.19916 0.00436
#
# Static dielectric constant tensor:
#      x y z
#    x 1.654240 0.000000 0.000000 
#    y 0.000000 1.682750 0.000000 
#    z 0.000000 0.000000 1.738520 
# 
# From -- ./inp_files/31605.got.cif
#   From: 2010.05.17/outbox.cif.g08.bks.cpg/sg72_16_cif.got.tgz:31605.got - 2010.06.03 17:03:01.
