data_PCOD9524781
_publ_section_title
;
Structure prediction by ZEFSAII (Michael W. Deem and Ramdas Pophale) SiO2 
 PCOD9524781
Probable space group: I M M M
;
_chemical_formula_sum "Si O2"
_cell_formula_units_Z 56
_cell_length_a 15.000000
_cell_length_b 27.000000
_cell_length_c 15.000000
_cell_angle_alpha 90.000000
_cell_angle_beta 90.000000
_cell_angle_gamma 90.000000
_cell_volume 6075.000000
_symmetry_space_group_name_H-M "I M M M"
_symmetry_group_IT_number 71
_symmetry_cell_setting 'orthorhombic'
loop_
_space_group_symop_operation_xyz
x,y,z
-x,-y,z
x,-y,-z
-x,y,-z
-x,-y,-z
x,y,-z
-x,y,z
x,-y,z
1/2+x,1/2+y,1/2+z
1/2-x,1/2-y,1/2+z
1/2+x,1/2-y,1/2-z
1/2-x,1/2+y,1/2-z
1/2-x,1/2-y,1/2-z
1/2+x,1/2+y,1/2-z
1/2-x,1/2+y,1/2+z
1/2+x,1/2-y,1/2+z
loop_
_atom_site_type_symbol
_atom_site_label
_atom_site_fract_x
_atom_site_fract_y
_atom_site_fract_z
Si Si1 0.201046 0.690104 0.095727
Si Si2 0.801853 0.555997 0.288079
Si Si3 0.606934 0.147054 0.894622
Si Si4 0.392897 0.916188 0.397673
Si Si5 0.399767 0.663171 0.142220
Si Si6 0.897273 0.735540 0.256537
Si Si7 0.100619 0.056406 0.266636
O O1 0.140808 0.640616 0.103106
O O2 0.304779 0.673871 0.096456
O O3 0.171751 0.723491 0.178360
O O4 0.182480 0.714165 0.000000
O O5 0.824266 0.500000 0.319882
O O6 0.844417 0.601016 0.345031
O O7 0.839891 0.560241 0.186026
O O8 0.693633 0.560395 0.287481
O O9 0.500000 0.138565 0.889978
O O10 0.623432 0.198406 0.839901
O O11 0.630766 0.150905 0.000000
O O12 0.375088 0.934632 0.500000
O O13 0.500000 0.919692 0.383261
O O14 0.500000 0.670081 0.101374
O O15 0.396726 0.706680 0.216885
O O16 0.396712 0.605706 0.172415
O O17 0.000000 0.723599 0.229378
O O18 0.000000 0.058604 0.224317
O O19 0.104988 0.000000 0.306759
#
# Coordination Sequence:
#
# PCOD9524781 Si02
#       7
#    16  16  16  16  16  16  16
#     4  11  21  34  55  84 118 155 190 231 284 342
#     4  11  21  35  58  84 112 149 194 241 285 336
#     4  10  21  37  56  81 116 154 190 232 289 350
#     4  10  20  34  53  79 112 150 190 229 276 339
#     4  10  20  35  57  83 112 148 195 245 285 330
#     4  10  20  36  59  85 115 151 192 238 286 341
#     4   9  18  35  59  84 111 146 187 233 288 341
#
# _framework density 9.2181069999999998
#
# number of rings (size 3 to 8) (size 9 to 14) (size 15 to 20)
#    0.000    1.857    2.857    1.286    0.000    3.429 
#    0.000    2.857    0.000    1.286    0.000    8.000 
#    0.000    0.000    0.000    0.000    0.000    0.000 
#
# Total GULP energy -311833.801558 kJ/mol
# GULP energy per Si atom -5568.460742 kJ/mol
# Density = 0.919713 g / cm^3
# Si number density = 9.218107 Si / 1000 Ang^3
#
#
#
# Elastic Constant Matrix: (Units=GPa)
#
#
# Indices 1 2 3 4 5 6 
#
# 1 106.7833 21.1552 38.6917 0.0000 0.0000 0.0000
# 2 21.1552 103.8215 44.0577 0.0001 0.0000 0.0000
# 3 38.6917 44.0577 102.2969 0.0001 0.0000 0.0000
# 4 0.0000 0.0001 0.0001 4.5355 0.0000 0.0000
# 5 0.0000 0.0000 0.0000 0.0000 14.3690 0.0000
# 6 0.0000 0.0000 0.0000 0.0000 0.0000 33.0328
#
#
#
# Elastic Compliance Matrix: (Units=1/GPa)
#
#
# Indices 1 2 3 4 5 6 
#
# 1 0.010880 -0.000576 -0.003867 0.000000 0.000000 0.000000
# 2 -0.000576 0.011816 -0.004871 0.000000 0.000000 0.000000
# 3 -0.003867 -0.004871 0.013336 0.000000 0.000000 0.000000
# 4 0.000000 0.000000 0.000000 0.220482 0.000000 0.000000
# 5 0.000000 0.000000 0.000000 0.000000 0.069594 0.000000
# 6 0.000000 0.000000 0.000000 0.000000 0.000000 0.030273
#
#
# Mechanical properties :
#
#
# Convention : Reuss Voigt Hill
#
# Bulk Modulus (GPa) = 57.45837 57.85677 57.65757
# Shear Modulus (GPa) = 13.12983 24.32060 18.72521
#
# Velocity S-wave (km/s) = 2.67156 3.63599 3.19042
# Velocity P-wave (km/s) = 6.38357 7.00553 6.70177
#
# Compressibility (1/GPa) = 0.01740390
#
# Stress axis : x y z
#
# Youngs Moduli (GPa) = 91.91116 84.62762 74.98427
#
# Poissons Ratio (x) = 0.04874 0.28997
# Poissons Ratio (y) = 0.05293 0.36527
# Poissons Ratio (z) = 0.35543 0.41225
#
# Static dielectric constant tensor:
#      x y z
#    x 1.661560 0.000000 0.000000 
#    y 0.000000 1.638280 0.000000 
#    z 0.000000 0.000000 1.642620 
# 
# From -- ./inp_files/34847.got.cif
#   From: 2010.05.17/outbox.ucp.g08.bks.cvg/sg71_18_cif.got.tgz:34847.got - 2010.06.11 16:29:00.
