data_PCOD9524978
_publ_section_title
;
Structure prediction by ZEFSAII (Michael W. Deem and Ramdas Pophale) SiO2 
 PCOD9524978
Probable space group: I B A M
;
_chemical_formula_sum "Si O2"
_cell_formula_units_Z 88
_cell_length_a 15.490005
_cell_length_b 14.864309
_cell_length_c 20.368756
_cell_angle_alpha 90.000000
_cell_angle_beta 90.000000
_cell_angle_gamma 90.000000
_cell_volume 4689.869828
_symmetry_space_group_name_H-M "I B A M"
_symmetry_group_IT_number 72
_symmetry_cell_setting 'orthorhombic'
loop_
_space_group_symop_operation_xyz
x,y,z
-x,-y,z
x,-y,1/2-z
-x,y,1/2-z
-x,-y,-z
x,y,-z
-x,y,1/2+z
x,-y,1/2+z
1/2+x,1/2+y,1/2+z
1/2-x,1/2-y,1/2+z
1/2+x,1/2-y,-z
1/2-x,1/2+y,-z
1/2-x,1/2-y,1/2-z
1/2+x,1/2+y,1/2-z
1/2-x,1/2+y,z
1/2+x,1/2-y,z
loop_
_atom_site_type_symbol
_atom_site_label
_atom_site_fract_x
_atom_site_fract_y
_atom_site_fract_z
Si Si1 0.289674 0.251761 0.356155
Si Si2 0.120380 0.194399 0.720194
Si Si3 0.716699 0.060538 0.637317
Si Si4 0.610983 0.097149 0.075159
Si Si5 0.347835 0.500000 0.250000
Si Si6 0.535362 0.133712 0.319426
O O1 0.204758 0.203942 0.326148
O O2 0.349507 0.267579 0.291497
O O3 0.261676 0.347382 0.387106
O O4 0.336841 0.187210 0.406616
O O5 0.049101 0.258129 0.686908
O O6 0.100784 0.090005 0.731573
O O7 0.784356 0.020634 0.688995
O O8 0.631288 0.095759 0.674000
O O9 0.676615 0.985312 0.589960
O O10 0.528197 0.101394 0.123426
O O11 0.583151 0.094137 0.000000
O O12 0.500000 0.103150 0.250000
#
# Coordination Sequence:
#
# PCOD9524978 Si02
#       6
#    16  16  16  16   8  16
#     4   9  18  36  56  85 113 150 192 243 284 342
#     4   9  17  33  59  86 112 142 196 244 286 337
#     4  10  21  34  59  86 114 148 195 239 286 348
#     4  12  24  38  56  85 123 159 190 234 302 361
#     4  10  16  32  64  88 110 142 192 252 290 330
#     4  11  21  36  57  86 122 151 188 239 294 347
#
# _framework density 18.763846999999998
#
# number of rings (size 3 to 8) (size 9 to 14) (size 15 to 20)
#    0.000    1.818    3.636    2.727    0.000    2.909 
#    0.000    3.182    0.000    0.000    0.000    5.091 
#    0.000    0.000    0.000    0.000    0.000    0.000 
#
# Total GULP energy -245484.309463 kJ/mol
# GULP energy per Si atom -5579.188851 kJ/mol
# Density = 1.872114 g / cm^3
# Si number density = 18.763847 Si / 1000 Ang^3
#
#
#
# Elastic Constant Matrix: (Units=GPa)
#
#
# Indices 1 2 3 4 5 6 
#
# 1 72.8263 29.0770 22.6174 0.0000 0.0000 0.0000
# 2 29.0770 145.5819 33.8872 0.0000 0.0000 0.0000
# 3 22.6174 33.8872 93.8374 0.0000 0.0000 0.0000
# 4 0.0000 0.0000 0.0000 13.0491 0.0000 0.0000
# 5 0.0000 0.0000 0.0000 0.0000 20.5670 0.0000
# 6 0.0000 0.0000 0.0000 0.0000 0.0000 19.6911
#
#
#
# Elastic Compliance Matrix: (Units=1/GPa)
#
#
# Indices 1 2 3 4 5 6 
#
# 1 0.015602 -0.002446 -0.002877 0.000000 0.000000 0.000000
# 2 -0.002446 0.007883 -0.002257 0.000000 0.000000 0.000000
# 3 -0.002877 -0.002257 0.012165 0.000000 0.000000 0.000000
# 4 0.000000 0.000000 0.000000 0.076634 0.000000 0.000000
# 5 0.000000 0.000000 0.000000 0.000000 0.048622 0.000000
# 6 0.000000 0.000000 0.000000 0.000000 0.000000 0.050784
#
#
# Mechanical properties :
#
#
# Convention : Reuss Voigt Hill
#
# Bulk Modulus (GPa) = 48.80700 53.71210 51.25955
# Shear Modulus (GPa) = 21.39680 25.77239 23.58460
#
# Velocity S-wave (km/s) = 3.38053 3.71011 3.54915
# Velocity P-wave (km/s) = 6.42689 6.85862 6.64626
#
# Compressibility (1/GPa) = 0.02048887
#
# Stress axis : x y z
#
# Youngs Moduli (GPa) = 64.09621 126.85536 82.20136
#
# Poissons Ratio (x) = 0.31034 0.23649
# Poissons Ratio (y) = 0.15681 0.18554
# Poissons Ratio (z) = 0.18440 0.28633
#
# Static dielectric constant tensor:
#      x y z
#    x 1.652370 0.000000 0.000000 
#    y 0.000000 1.731890 0.000000 
#    z 0.000000 0.000000 1.629100 
# 
# From -- ./inp_files/31489.got.cif
#   From: 2010.05.17/outbox.cif.g08.bks.cpg/sg72_16_cif.got.tgz:31489.got - 2010.06.03 17:03:01.
