data_PCOD9524299
_publ_section_title
;
Structure prediction by ZEFSAII (Michael W. Deem and Ramdas Pophale) SiO2 
 PCOD9524299
Probable space group: I M M M
;
_chemical_formula_sum "Si O2"
_cell_formula_units_Z 72
_cell_length_a 10.875602
_cell_length_b 27.808142
_cell_length_c 13.370480
_cell_angle_alpha 90.000000
_cell_angle_beta 90.000000
_cell_angle_gamma 90.000000
_cell_volume 4043.638074
_symmetry_space_group_name_H-M "I M M M"
_symmetry_group_IT_number 71
_symmetry_cell_setting 'orthorhombic'
loop_
_space_group_symop_operation_xyz
x,y,z
-x,-y,z
x,-y,-z
-x,y,-z
-x,-y,-z
x,y,-z
-x,y,z
x,-y,z
1/2+x,1/2+y,1/2+z
1/2-x,1/2-y,1/2+z
1/2+x,1/2-y,1/2-z
1/2-x,1/2+y,1/2-z
1/2-x,1/2-y,1/2-z
1/2+x,1/2+y,1/2-z
1/2-x,1/2+y,1/2+z
1/2+x,1/2-y,1/2+z
loop_
_atom_site_type_symbol
_atom_site_label
_atom_site_fract_x
_atom_site_fract_y
_atom_site_fract_z
Si Si1 0.271789 0.888386 0.798518
Si Si2 0.144425 0.286926 0.216336
Si Si3 0.645105 0.758106 0.500000
Si Si4 0.500000 0.057104 0.114438
Si Si5 0.851878 0.943431 0.614338
Si Si6 0.352657 0.352077 0.500000
O O1 0.331462 0.837778 0.766727
O O2 0.379828 0.923890 0.830689
O O3 0.201653 0.911063 0.703475
O O4 0.191838 0.877619 0.898055
O O5 0.250000 0.250000 0.250000
O O6 0.169474 0.288387 0.098206
O O7 0.000000 0.272247 0.232178
O O8 0.500000 0.749240 0.500000
O O9 0.697276 0.703537 0.500000
O O10 0.500000 0.000000 0.112140
O O11 0.500000 0.075616 0.000000
O O12 0.813375 0.930277 0.500000
O O13 0.000000 0.940168 0.617273
O O14 0.819787 0.000000 0.629414
O O15 0.500000 0.351888 0.500000
#
# Coordination Sequence:
#
# PCOD9524299 Si02
#       6
#    16  16   8   8  16   8
#     4  12  22  38  63  91 120 161 209 253 308 378
#     4  11  23  39  62  87 121 163 205 253 305 372
#     4   9  20  38  54  80 121 163 194 241 312 363
#     4  11  24  42  61  87 125 165 206 261 320 367
#     4   9  20  40  63  87 120 160 203 256 312 365
#     4  11  22  37  61  90 125 161 199 252 312 373
#
# _framework density 17.805747
#
# number of rings (size 3 to 8) (size 9 to 14) (size 15 to 20)
#    0.000    1.444    4.444    2.000    1.556    0.889 
#    0.000    2.222    0.000    4.667    0.000    0.000 
#    0.000    0.000    0.000    0.000    0.000    0.000 
#
# Total GULP energy -200650.642795 kJ/mol
# GULP energy per Si atom -5573.628967 kJ/mol
# Density = 1.776522 g / cm^3
# Si number density = 17.805747 Si / 1000 Ang^3
#
#
#
# Elastic Constant Matrix: (Units=GPa)
#
#
# Indices 1 2 3 4 5 6 
#
# 1 84.9457 33.5524 54.3777 0.0000 0.0000 0.0000
# 2 33.5524 69.8629 43.8965 0.0000 0.0000 0.0000
# 3 54.3777 43.8965 151.2676 0.0001 0.0000 0.0000
# 4 0.0000 0.0000 0.0001 37.6348 0.0000 0.0000
# 5 0.0000 0.0000 0.0000 0.0000 32.1115 0.0000
# 6 0.0000 0.0000 0.0000 0.0000 0.0000 22.5813
#
#
#
# Elastic Compliance Matrix: (Units=1/GPa)
#
#
# Indices 1 2 3 4 5 6 
#
# 1 0.016703 -0.005197 -0.004496 0.000000 0.000000 0.000000
# 2 -0.005197 0.019122 -0.003681 0.000000 0.000000 0.000000
# 3 -0.004496 -0.003681 0.009295 0.000000 0.000000 0.000000
# 4 0.000000 0.000000 0.000000 0.026571 0.000000 0.000000
# 5 0.000000 0.000000 0.000000 0.000000 0.031142 0.000000
# 6 0.000000 0.000000 0.000000 0.000000 0.000000 0.044284
#
#
# Mechanical properties :
#
#
# Convention : Reuss Voigt Hill
#
# Bulk Modulus (GPa) = 54.42867 63.30327 58.86597
# Shear Modulus (GPa) = 27.77921 30.08215 28.93068
#
# Velocity S-wave (km/s) = 3.95413 4.11477 4.03525
# Velocity P-wave (km/s) = 7.17504 7.62918 7.40559
#
# Compressibility (1/GPa) = 0.01837267
#
# Stress axis : x y z
#
# Youngs Moduli (GPa) = 59.86868 52.29467 107.58024
#
# Poissons Ratio (x) = 0.27176 0.48373
# Poissons Ratio (y) = 0.31112 0.39601
# Poissons Ratio (z) = 0.26920 0.19250
#
# Static dielectric constant tensor:
#      x y z
#    x 1.594040 0.000000 0.000000 
#    y 0.000000 1.602250 0.000000 
#    z 0.000000 0.000000 1.743300 
# 
# From -- ./inp_files/31516.got.cif
#   From: 2010.05.17/outbox.cif.g08.bks.cpg/sg71_16_cif.got.tgz:31516.got - 2010.06.03 16:22:01.
