data_PCOD9524825
_publ_section_title
;
Structure prediction by ZEFSAII (Michael W. Deem and Ramdas Pophale) SiO2 
 PCOD9524825
Probable space group: I M M M
;
_chemical_formula_sum "Si O2"
_cell_formula_units_Z 32
_cell_length_a 24.000000
_cell_length_b 15.000000
_cell_length_c 9.000000
_cell_angle_alpha 90.000000
_cell_angle_beta 90.000000
_cell_angle_gamma 90.000000
_cell_volume 3240.000000
_symmetry_space_group_name_H-M "I M M M"
_symmetry_group_IT_number 71
_symmetry_cell_setting 'orthorhombic'
loop_
_space_group_symop_operation_xyz
x,y,z
-x,-y,z
x,-y,-z
-x,y,-z
-x,-y,-z
x,y,-z
-x,y,z
x,-y,z
1/2+x,1/2+y,1/2+z
1/2-x,1/2-y,1/2+z
1/2+x,1/2-y,1/2-z
1/2-x,1/2+y,1/2-z
1/2-x,1/2-y,1/2-z
1/2+x,1/2+y,1/2-z
1/2-x,1/2+y,1/2+z
1/2+x,1/2-y,1/2+z
loop_
_atom_site_type_symbol
_atom_site_label
_atom_site_fract_x
_atom_site_fract_y
_atom_site_fract_z
Si Si1 0.718040 0.671194 0.324053
Si Si2 0.500000 0.686121 0.168846
Si Si3 0.500000 0.131280 0.324295
Si Si4 0.585401 0.000000 0.820326
Si Si5 0.786096 0.500000 0.680296
Si Si6 0.618152 0.399272 0.173304
O O1 0.720195 0.675700 0.500000
O O2 0.750000 0.750000 0.250000
O O3 0.751190 0.584430 0.270694
O O4 0.655290 0.666032 0.268790
O O5 0.500000 0.765525 0.284940
O O6 0.445825 0.626172 0.183923
O O7 0.500000 0.724474 0.000000
O O8 0.500000 0.114772 0.500000
O O9 0.446926 0.084369 0.247396
O O10 0.649759 0.000000 0.774755
O O11 0.581036 0.000000 0.000000
O O12 0.786651 0.500000 0.500000
O O13 0.627118 0.500000 0.225275
O O14 0.634340 0.393030 0.000000
#
# Coordination Sequence:
#
# PCOD9524825 Si02
#       6
#    16   8   8   8   8  16
#     4  11  23  41  62  91 125 162 202 249 302 361
#     4  10  22  39  62  87 117 157 200 243 294 359
#     4  11  23  39  56  88 124 151 191 250 301 350
#     4  10  20  39  64  84 111 159 203 239 294 358
#     4   9  21  40  63  87 119 158 202 245 294 359
#     4  10  21  40  64  90 118 154 200 250 298 353
#
# _framework density 9.8765429999999999
#
# number of rings (size 3 to 8) (size 9 to 14) (size 15 to 20)
#    0.000    1.750    1.250    3.375    3.500    2.500 
#    0.000    3.750    0.000    2.250    0.000    0.000 
#    0.000    0.000    0.000    0.000    0.000    0.000 
#
# Total GULP energy -178587.655018 kJ/mol
# GULP energy per Si atom -5580.864219 kJ/mol
# Density = 0.985406 g / cm^3
# Si number density = 9.876543 Si / 1000 Ang^3
#
#
#
# Elastic Constant Matrix: (Units=GPa)
#
#
# Indices 1 2 3 4 5 6 
#
# 1 118.0233 25.3416 48.9160 0.0000 0.0000 0.0000
# 2 25.3416 81.8602 33.8482 0.0000 0.0000 0.0000
# 3 48.9160 33.8482 63.9699 0.0000 0.0000 0.0000
# 4 0.0000 0.0000 0.0000 19.6396 0.0000 0.0000
# 5 0.0000 0.0000 0.0000 0.0000 6.8611 0.0000
# 6 0.0000 0.0000 0.0000 0.0000 0.0000 -66.8829
#
#
#
# Elastic Compliance Matrix: (Units=1/GPa)
#
#
# Indices 1 2 3 4 5 6 
#
# 1 0.012405 0.000105 -0.009541 0.000000 0.000000 0.000000
# 2 0.000105 0.015638 -0.008355 0.000000 0.000000 0.000000
# 3 -0.009541 -0.008355 0.027349 0.000000 0.000000 0.000000
# 4 0.000000 0.000000 0.000000 0.050918 0.000000 0.000000
# 5 0.000000 0.000000 0.000000 0.000000 0.145749 0.000000
# 6 0.000000 0.000000 0.000000 0.000000 0.000000 -0.014951
#
#
# Mechanical properties :
#
#
# Convention : Reuss Voigt Hill
#
# Bulk Modulus (GPa) = 50.47987 53.34056 51.91022
# Shear Modulus (GPa) = 17.90238 2.30671 10.10454
#
# Velocity S-wave (km/s) = 3.01376 1.08181 2.26418
# Velocity P-wave (km/s) = 6.14176 5.35002 5.75951
#
# Compressibility (1/GPa) = 0.01980987
#
# Stress axis : x y z
#
# Youngs Moduli (GPa) = 80.61396 63.94649 36.56440
#
# Poissons Ratio (x) = -0.00671 0.34887
# Poissons Ratio (y) = -0.00846 0.30549
# Poissons Ratio (z) = 0.76915 0.53426
#
# Static dielectric constant tensor:
#      x y z
#    x 1.680280 0.000000 0.000000 
#    y 0.000000 1.680600 0.000000 
#    z 0.000000 0.000000 1.663900 
# 
# From -- ./inp_files/12034.got.cif
#   From: 2010.05.17/outbox.ucp.g08.bks.cvg/sg71_7_cif.got.tgz:12034.got - 2010.06.11 16:29:00.
