data_PCOD9524811
_publ_section_title
;
Structure prediction by ZEFSAII (Michael W. Deem and Ramdas Pophale) SiO2 
 PCOD9524811
Probable space group: I M M M
;
_chemical_formula_sum "Si O2"
_cell_formula_units_Z 44
_cell_length_a 9.000000
_cell_length_b 21.000000
_cell_length_c 24.000000
_cell_angle_alpha 90.000000
_cell_angle_beta 90.000000
_cell_angle_gamma 90.000000
_cell_volume 4536.000000
_symmetry_space_group_name_H-M "I M M M"
_symmetry_group_IT_number 71
_symmetry_cell_setting 'orthorhombic'
loop_
_space_group_symop_operation_xyz
x,y,z
-x,-y,z
x,-y,-z
-x,y,-z
-x,-y,-z
x,y,-z
-x,y,z
x,-y,z
1/2+x,1/2+y,1/2+z
1/2-x,1/2-y,1/2+z
1/2+x,1/2-y,1/2-z
1/2-x,1/2+y,1/2-z
1/2-x,1/2-y,1/2-z
1/2+x,1/2+y,1/2-z
1/2-x,1/2+y,1/2+z
1/2+x,1/2-y,1/2+z
loop_
_atom_site_type_symbol
_atom_site_label
_atom_site_fract_x
_atom_site_fract_y
_atom_site_fract_z
Si Si1 0.821295 0.334563 0.096881
Si Si2 0.835491 0.801028 0.063847
Si Si3 0.175543 0.069313 0.793539
Si Si4 0.676956 0.931159 0.913525
Si Si5 0.179944 0.077026 0.500000
Si Si6 0.677569 0.183672 0.271937
O O1 0.762414 0.262295 0.087779
O O2 0.804127 0.338296 0.163511
O O3 0.000000 0.335188 0.084622
O O4 0.745181 0.385447 0.054850
O O5 0.749094 0.866850 0.064841
O O6 0.000000 0.809978 0.090075
O O7 0.854353 0.784060 0.000000
O O8 0.268289 0.067179 0.850195
O O9 0.240147 0.128126 0.760899
O O10 0.000000 0.076784 0.805050
O O11 0.194410 0.000000 0.765232
O O12 0.500000 0.927223 0.918152
O O13 0.723833 0.000000 0.937794
O O14 0.000000 0.082337 0.500000
O O15 0.215568 0.000000 0.500000
O O16 0.500000 0.186817 0.261383
O O17 0.750000 0.250000 0.250000
#
# Coordination Sequence:
#
# PCOD9524811 Si02
#       6
#    16  16  16  16   8  16
#     4  10  22  42  64  88 120 159 203 250 304 368
#     4  10  20  36  59  83 111 149 195 243 290 348
#     4  10  21  38  59  82 114 156 198 242 295 354
#     4  10  21  36  55  82 117 155 196 243 292 347
#     4  11  25  43  65  95 126 159 206 263 319 376
#     4  11  23  38  62  94 126 161 204 254 308 372
#
# _framework density 9.7001760000000008
#
# number of rings (size 3 to 8) (size 9 to 14) (size 15 to 20)
#    0.000    1.727    0.909    3.000    0.000    8.000 
#    0.000    5.455    0.000    0.000    0.000    0.000 
#    0.000    0.000    0.000    0.000    0.000    0.000 
#
# Total GULP energy -245055.637870 kJ/mol
# GULP energy per Si atom -5569.446315 kJ/mol
# Density = 0.967810 g / cm^3
# Si number density = 9.700176 Si / 1000 Ang^3
#
#
#
# Elastic Constant Matrix: (Units=GPa)
#
#
# Indices 1 2 3 4 5 6 
#
# 1 32.3877 22.5013 -9.4058 0.0000 0.0000 0.0000
# 2 22.5013 137.6578 37.5379 0.0000 0.0000 0.0000
# 3 -9.4058 37.5379 49.0636 0.0000 0.0000 0.0000
# 4 0.0000 0.0000 0.0000 48.9979 0.0000 0.0000
# 5 0.0000 0.0000 0.0000 0.0000 25.2366 0.0000
# 6 0.0000 0.0000 0.0000 0.0000 0.0000 34.7298
#
#
#
# Elastic Compliance Matrix: (Units=1/GPa)
#
#
# Indices 1 2 3 4 5 6 
#
# 1 0.044467 -0.012122 0.017799 0.000000 0.000000 0.000000
# 2 -0.012122 0.012484 -0.011875 0.000000 0.000000 0.000000
# 3 0.017799 -0.011875 0.032879 0.000000 0.000000 0.000000
# 4 0.000000 0.000000 0.000000 0.020409 0.000000 0.000000
# 5 0.000000 0.000000 0.000000 0.000000 0.039625 0.000000
# 6 0.000000 0.000000 0.000000 0.000000 0.000000 0.028794
#
#
# Mechanical properties :
#
#
# Convention : Reuss Voigt Hill
#
# Bulk Modulus (GPa) = 12.91430 35.59733 24.25582
# Shear Modulus (GPa) = 23.05570 33.02457 28.04014
#
# Velocity S-wave (km/s) = 3.45108 4.13033 3.80589
# Velocity P-wave (km/s) = 4.74880 6.41364 5.64296
#
# Compressibility (1/GPa) = 0.07743354
#
# Stress axis : x y z
#
# Youngs Moduli (GPa) = 22.48870 80.10182 30.41413
#
# Poissons Ratio (x) = 0.97100 -0.54134
# Poissons Ratio (y) = 0.27261 0.36118
# Poissons Ratio (z) = -0.40028 0.95123
#
# Static dielectric constant tensor:
#      x y z
#    x 1.691070 0.000000 0.000000 
#    y 0.000000 1.730940 0.000000 
#    z 0.000000 0.000000 1.463310 
# 
# From -- ./inp_files/10486.got.cif
#   From: 2010.05.17/outbox.ucp.g08.bks.cvg/sg71_6_cif.got.tgz:10486.got - 2010.06.11 16:29:00.
