data_PCOD9524723
_publ_section_title
;
Structure prediction by ZEFSAII (Michael W. Deem and Ramdas Pophale) SiO2 
 PCOD9524723
Probable space group: I M M M
;
_chemical_formula_sum "Si O2"
_cell_formula_units_Z 44
_cell_length_a 30.000000
_cell_length_b 18.000000
_cell_length_c 9.000000
_cell_angle_alpha 90.000000
_cell_angle_beta 90.000000
_cell_angle_gamma 90.000000
_cell_volume 4860.000000
_symmetry_space_group_name_H-M "I M M M"
_symmetry_group_IT_number 71
_symmetry_cell_setting 'orthorhombic'
loop_
_space_group_symop_operation_xyz
x,y,z
-x,-y,z
x,-y,-z
-x,y,-z
-x,-y,-z
x,y,-z
-x,y,z
x,-y,z
1/2+x,1/2+y,1/2+z
1/2-x,1/2-y,1/2+z
1/2+x,1/2-y,1/2-z
1/2-x,1/2+y,1/2-z
1/2-x,1/2-y,1/2-z
1/2+x,1/2+y,1/2-z
1/2-x,1/2+y,1/2+z
1/2+x,1/2-y,1/2+z
loop_
_atom_site_type_symbol
_atom_site_label
_atom_site_fract_x
_atom_site_fract_y
_atom_site_fract_z
Si Si1 0.116038 0.863873 0.178618
Si Si2 0.051825 0.000000 0.819340
Si Si3 0.791306 0.851159 0.329557
Si Si4 0.392645 0.796707 0.822875
Si Si5 0.203199 0.329801 0.328769
Si Si6 0.946664 0.582791 0.170229
O O1 0.080405 0.927026 0.224066
O O2 0.166037 0.879752 0.238599
O O3 0.103747 0.783164 0.244650
O O4 0.117070 0.860309 0.000000
O O5 0.000000 0.000000 0.768747
O O6 0.050598 0.000000 0.000000
O O7 0.794945 0.874681 0.500000
O O8 0.792909 0.760580 0.325766
O O9 0.742881 0.867194 0.261854
O O10 0.347136 0.838839 0.773860
O O11 0.431213 0.852070 0.776683
O O12 0.389600 0.784951 0.000000
O O13 0.207075 0.352936 0.500000
O O14 0.931099 0.500000 0.214367
O O15 0.000000 0.581019 0.168025
O O16 0.931757 0.597142 0.000000
#
# Coordination Sequence:
#
# PCOD9524723 Si02
#       6
#    16   8  16  16  16  16
#     4  10  19  33  55  78 103 138 178 221 271 321
#     4   9  20  38  57  77 101 135 183 233 276 321
#     4   9  16  27  46  73 103 132 167 211 256 309
#     4  10  20  33  52  81 112 139 174 219 266 317
#     4   8  15  27  44  70 103 136 169 204 249 306
#     4   9  19  36  56  77 103 138 177 214 256 310
#
# _framework density 9.0534979999999994
#
# number of rings (size 3 to 8) (size 9 to 14) (size 15 to 20)
#    0.000    2.818    0.000    3.273    0.000    6.545 
#    0.000    4.545    2.000    3.818    0.000    0.000 
#    0.000    0.000    0.000    0.000    0.000    0.000 
#
# Total GULP energy -245058.232533 kJ/mol
# GULP energy per Si atom -5569.505285 kJ/mol
# Density = 0.903289 g / cm^3
# Si number density = 9.053498 Si / 1000 Ang^3
#
#
#
# Elastic Constant Matrix: (Units=GPa)
#
#
# Indices 1 2 3 4 5 6 
#
# 1 108.9673 55.2262 46.7119 0.0000 0.0000 0.0000
# 2 55.2262 67.3159 40.0700 0.0000 0.0000 0.0000
# 3 46.7119 40.0700 69.4855 0.0000 0.0000 0.0000
# 4 0.0000 0.0000 0.0000 3.4977 0.0000 0.0000
# 5 0.0000 0.0000 0.0000 0.0000 28.0185 0.0000
# 6 0.0000 0.0000 0.0000 0.0000 0.0000 14.7590
#
#
#
# Elastic Compliance Matrix: (Units=1/GPa)
#
#
# Indices 1 2 3 4 5 6 
#
# 1 0.016817 -0.010761 -0.005100 0.000000 0.000000 0.000000
# 2 -0.010761 0.029506 -0.009781 0.000000 0.000000 0.000000
# 3 -0.005100 -0.009781 0.023460 0.000000 0.000000 0.000000
# 4 0.000000 0.000000 0.000000 0.285904 0.000000 0.000000
# 5 0.000000 0.000000 0.000000 0.000000 0.035691 0.000000
# 6 0.000000 0.000000 0.000000 0.000000 0.000000 0.067755
#
#
# Mechanical properties :
#
#
# Convention : Reuss Voigt Hill
#
# Bulk Modulus (GPa) = 54.05526 58.86498 56.46012
# Shear Modulus (GPa) = 9.67897 16.17240 12.92568
#
# Velocity S-wave (km/s) = 2.31453 2.99182 2.67470
# Velocity P-wave (km/s) = 6.08776 6.67194 6.38653
#
# Compressibility (1/GPa) = 0.01849959
#
# Stress axis : x y z
#
# Youngs Moduli (GPa) = 59.46310 33.89146 42.62550
#
# Poissons Ratio (x) = 0.36471 0.21738
# Poissons Ratio (y) = 0.63989 0.41691
# Poissons Ratio (z) = 0.30325 0.33149
#
# Static dielectric constant tensor:
#      x y z
#    x 1.660660 0.000000 0.000000 
#    y 0.000000 1.605070 0.000000 
#    z 0.000000 0.000000 1.615300 
# 
# From -- ./inp_files/16673.got.cif
#   From: 2010.05.17/outbox.ucp.g08.bks.cvg/sg71_9_cif.got.tgz:16673.got - 2010.06.11 16:29:00.
