data_PCOD9524077
_publ_section_title
;
Structure prediction by ZEFSAII (Michael W. Deem and Ramdas Pophale) SiO2 
 PCOD9524077
Probable space group: I M M M
;
_chemical_formula_sum "Si O2"
_cell_formula_units_Z 72
_cell_length_a 10.260309
_cell_length_b 18.269206
_cell_length_c 22.465124
_cell_angle_alpha 90.000000
_cell_angle_beta 90.000000
_cell_angle_gamma 90.000000
_cell_volume 4211.035796
_symmetry_space_group_name_H-M "I M M M"
_symmetry_group_IT_number 71
_symmetry_cell_setting 'orthorhombic'
loop_
_space_group_symop_operation_xyz
x,y,z
-x,-y,z
x,-y,-z
-x,y,-z
-x,-y,-z
x,y,-z
-x,y,z
x,-y,z
1/2+x,1/2+y,1/2+z
1/2-x,1/2-y,1/2+z
1/2+x,1/2-y,1/2-z
1/2-x,1/2+y,1/2-z
1/2-x,1/2-y,1/2-z
1/2+x,1/2+y,1/2-z
1/2-x,1/2+y,1/2+z
1/2+x,1/2-y,1/2+z
loop_
_atom_site_type_symbol
_atom_site_label
_atom_site_fract_x
_atom_site_fract_y
_atom_site_fract_z
Si Si1 0.658469 0.415346 0.500000
Si Si2 0.746005 0.345013 0.126532
Si Si3 0.000000 0.082150 0.429912
Si Si4 0.344198 0.679205 0.747571
Si Si5 0.000000 0.587367 0.068755
Si Si6 0.344621 0.319478 0.614512
O O1 0.702858 0.500000 0.500000
O O2 0.500000 0.417082 0.500000
O O3 0.696653 0.371000 0.440195
O O4 0.626148 0.373574 0.088875
O O5 0.707221 0.363234 0.194756
O O6 0.874608 0.384430 0.103612
O O7 0.771005 0.258304 0.116833
O O8 0.000000 0.075044 0.500000
O O9 0.000000 0.000000 0.403520
O O10 0.500000 0.695724 0.755008
O O11 0.250000 0.750000 0.750000
O O12 0.329487 0.646977 0.681042
O O13 0.000000 0.500000 0.066903
O O14 0.000000 0.614438 0.000000
O O15 0.500000 0.304228 0.607132
#
# Coordination Sequence:
#
# PCOD9524077 Si02
#       6
#     8  16   8  16   8  16
#     4   9  18  32  52  83 116 137 173 233 289 333
#     4  11  20  36  58  81 111 147 199 237 275 347
#     4  11  24  38  51  76 120 153 182 233 291 339
#     4   9  18  33  53  83 114 145 182 237 285 328
#     4  11  24  38  55  80 112 153 194 239 295 339
#     4   9  18  32  56  83 109 143 185 231 280 330
#
# _framework density 17.097930999999999
#
# number of rings (size 3 to 8) (size 9 to 14) (size 15 to 20)
#    0.000    2.111    2.222    1.333    4.667    1.778 
#    0.000    2.222    0.000    0.000    0.000    1.556 
#    0.000    0.000    0.000    0.000    0.000    0.000 
#
# Total GULP energy -200449.936801 kJ/mol
# GULP energy per Si atom -5568.053800 kJ/mol
# Density = 1.705902 g / cm^3
# Si number density = 17.097931 Si / 1000 Ang^3
#
#
#
# Elastic Constant Matrix: (Units=GPa)
#
#
# Indices 1 2 3 4 5 6 
#
# 1 117.2301 32.9299 60.7680 0.0000 0.0000 0.0000
# 2 32.9299 78.9358 62.2516 0.0000 0.0000 0.0000
# 3 60.7680 62.2516 169.7056 0.0000 0.0000 0.0000
# 4 0.0000 0.0000 0.0000 -0.6379 0.0000 0.0000
# 5 0.0000 0.0000 0.0000 0.0000 -3.8703 0.0000
# 6 0.0000 0.0000 0.0000 0.0000 0.0000 2.9054
#
#
#
# Elastic Compliance Matrix: (Units=1/GPa)
#
#
# Indices 1 2 3 4 5 6 
#
# 1 0.010701 -0.002029 -0.003087 0.000000 0.000000 0.000000
# 2 -0.002029 0.018210 -0.005953 0.000000 0.000000 0.000000
# 3 -0.003087 -0.005953 0.009182 0.000000 0.000000 0.000000
# 4 0.000000 0.000000 0.000000 -1.567664 0.000000 0.000000
# 5 0.000000 0.000000 0.000000 0.000000 -0.258377 0.000000
# 6 0.000000 0.000000 0.000000 0.000000 0.000000 0.344183
#
#
# Mechanical properties :
#
#
# Convention : Reuss Voigt Hill
#
# Bulk Modulus (GPa) = 62.68440 75.30783 68.99612
# Shear Modulus (GPa) = -3.53031 13.67424 5.07197
#
# Velocity S-wave (km/s) = -1.43848 2.83107 1.72420
# Velocity P-wave (km/s) = 5.82946 7.40454 6.66370
#
# Compressibility (1/GPa) = 0.01595293
#
# Stress axis : x y z
#
# Youngs Moduli (GPa) = 93.45273 54.91507 108.91124
#
# Poissons Ratio (x) = 0.11144 0.33624
# Poissons Ratio (y) = 0.18964 0.64836
# Poissons Ratio (z) = 0.28852 0.32692
#
# Static dielectric constant tensor:
#      x y z
#    x 1.502900 0.000000 0.000000 
#    y 0.000000 1.576480 0.000000 
#    z 0.000000 0.000000 1.655150 
# 
# From -- ./inp_files/50241.got.cif
#   From: 2010.05.17/outbox.cif.g08.bks.cpg/sg71_26_cif.got.tgz:50241.got - 2010.06.03 16:22:01.
