data_PCOD9524172
_publ_section_title
;
Structure prediction by ZEFSAII (Michael W. Deem and Ramdas Pophale) SiO2 
 PCOD9524172
Probable space group: I M M M
;
_chemical_formula_sum "Si O2"
_cell_formula_units_Z 88
_cell_length_a 28.698842
_cell_length_b 19.692998
_cell_length_c 8.252534
_cell_angle_alpha 90.000000
_cell_angle_beta 90.000000
_cell_angle_gamma 90.000000
_cell_volume 4664.053596
_symmetry_space_group_name_H-M "I M M M"
_symmetry_group_IT_number 71
_symmetry_cell_setting 'orthorhombic'
loop_
_space_group_symop_operation_xyz
x,y,z
-x,-y,z
x,-y,-z
-x,y,-z
-x,-y,-z
x,y,-z
-x,y,z
x,-y,z
1/2+x,1/2+y,1/2+z
1/2-x,1/2-y,1/2+z
1/2+x,1/2-y,1/2-z
1/2-x,1/2+y,1/2-z
1/2-x,1/2-y,1/2-z
1/2+x,1/2+y,1/2-z
1/2-x,1/2+y,1/2+z
1/2+x,1/2-y,1/2+z
loop_
_atom_site_type_symbol
_atom_site_label
_atom_site_fract_x
_atom_site_fract_y
_atom_site_fract_z
Si Si1 0.616210 0.578120 0.303458
Si Si2 0.819379 0.421921 0.695793
Si Si3 0.091359 0.659803 0.806587
Si Si4 0.218029 0.917430 0.813142
Si Si5 0.000000 0.421768 0.197968
Si Si6 0.053261 0.199365 0.693644
O O1 0.618094 0.578270 0.500000
O O2 0.608116 0.500000 0.252916
O O3 0.667698 0.600942 0.241935
O O4 0.576971 0.629527 0.247296
O O5 0.816264 0.423762 0.500000
O O6 0.828047 0.500000 0.750047
O O7 0.861350 0.373591 0.743838
O O8 0.768292 0.398782 0.758697
O O9 0.083023 0.737159 0.756374
O O10 0.046461 0.616946 0.746951
O O11 0.091867 0.655753 0.000000
O O12 0.218181 0.000000 0.817134
O O13 0.217800 0.893505 0.000000
O O14 0.000000 0.500000 0.249365
O O15 0.000000 0.420833 0.000000
O O16 0.052246 0.202091 0.500000
O O17 0.000000 0.205155 0.754706
#
# Coordination Sequence:
#
# PCOD9524172 Si02
#       6
#    16  16  16  16   8  16
#     4   9  18  35  61  88 109 134 175 221 263 317
#     4   9  17  31  53  81 113 146 178 215 263 317
#     4  11  21  35  54  76 106 143 184 226 268 315
#     4   7  12  27  52  80 109 140 172 211 261 313
#     4   9  18  32  51  75 102 133 172 221 269 308
#     4  11  24  40  56  75 106 144 179 220 274 329
#
# _framework density 18.867705999999998
#
# number of rings (size 3 to 8) (size 9 to 14) (size 15 to 20)
#    0.000    2.636    0.909    3.818    0.000    2.909 
#    0.000    3.636    0.000    5.455    0.000    0.000 
#    0.000    0.000    0.000    0.000    0.000    0.000 
#
# Total GULP energy -245287.812814 kJ/mol
# GULP energy per Si atom -5574.723018 kJ/mol
# Density = 1.882476 g / cm^3
# Si number density = 18.867706 Si / 1000 Ang^3
#
#
#
# Elastic Constant Matrix: (Units=GPa)
#
#
# Indices 1 2 3 4 5 6 
#
# 1 91.6622 38.5195 8.7271 0.0000 0.0000 0.0000
# 2 38.5195 79.7897 6.0232 0.0000 0.0000 0.0000
# 3 8.7271 6.0232 15.3685 0.0000 0.0000 0.0000
# 4 0.0000 0.0000 0.0000 20.8161 0.0000 0.0000
# 5 0.0000 0.0000 0.0000 0.0000 16.7537 0.0000
# 6 0.0000 0.0000 0.0000 0.0000 0.0000 -28.6258
#
#
#
# Elastic Compliance Matrix: (Units=1/GPa)
#
#
# Indices 1 2 3 4 5 6 
#
# 1 0.014125 -0.006403 -0.005512 0.000000 0.000000 0.000000
# 2 -0.006403 0.015818 -0.002563 0.000000 0.000000 0.000000
# 3 -0.005512 -0.002563 0.069203 0.000000 0.000000 0.000000
# 4 0.000000 0.000000 0.000000 0.048040 0.000000 0.000000
# 5 0.000000 0.000000 0.000000 0.000000 0.059688 0.000000
# 6 0.000000 0.000000 0.000000 0.000000 0.000000 -0.034934
#
#
# Mechanical properties :
#
#
# Convention : Reuss Voigt Hill
#
# Bulk Modulus (GPa) = 14.24712 32.59557 23.42134
# Shear Modulus (GPa) = 22.29236 10.69217 16.49226
#
# Velocity S-wave (km/s) = 3.44104 2.38311 2.95973
# Velocity P-wave (km/s) = 4.83271 4.98855 4.91125
#
# Compressibility (1/GPa) = 0.07018962
#
# Stress axis : x y z
#
# Youngs Moduli (GPa) = 70.79566 63.22073 14.45032
#
# Poissons Ratio (x) = 0.40480 0.07964
# Poissons Ratio (y) = 0.45331 0.03704
# Poissons Ratio (z) = 0.39020 0.16205
#
# Static dielectric constant tensor:
#      x y z
#    x 1.689540 0.000000 0.000000 
#    y 0.000000 1.620510 0.000000 
#    z 0.000000 0.000000 1.670040 
# 
# From -- ./inp_files/16640.got.cif
#   From: 2010.05.17/outbox.cif.g08.bks.cpg/sg71_9_cif.got.tgz:16640.got - 2010.06.03 16:22:01.
