data_PCOD9524156
_publ_section_title
;
Structure prediction by ZEFSAII (Michael W. Deem and Ramdas Pophale) SiO2 
 PCOD9524156
Probable space group: I M M M
;
_chemical_formula_sum "Si O2"
_cell_formula_units_Z 72
_cell_length_a 16.291057
_cell_length_b 29.019152
_cell_length_c 8.700684
_cell_angle_alpha 90.000000
_cell_angle_beta 90.000000
_cell_angle_gamma 90.000000
_cell_volume 4113.271499
_symmetry_space_group_name_H-M "I M M M"
_symmetry_group_IT_number 71
_symmetry_cell_setting 'orthorhombic'
loop_
_space_group_symop_operation_xyz
x,y,z
-x,-y,z
x,-y,-z
-x,y,-z
-x,-y,-z
x,y,-z
-x,y,z
x,-y,z
1/2+x,1/2+y,1/2+z
1/2-x,1/2-y,1/2+z
1/2+x,1/2-y,1/2-z
1/2-x,1/2+y,1/2-z
1/2-x,1/2-y,1/2-z
1/2+x,1/2+y,1/2-z
1/2-x,1/2+y,1/2+z
1/2+x,1/2-y,1/2+z
loop_
_atom_site_type_symbol
_atom_site_label
_atom_site_fract_x
_atom_site_fract_y
_atom_site_fract_z
Si Si1 0.322910 0.382986 0.812182
Si Si2 0.671784 0.053141 0.315033
Si Si3 0.500000 0.610504 0.822795
Si Si4 0.324731 0.720185 0.316247
Si Si5 0.500000 0.944145 0.821467
Si Si6 0.500000 0.722735 0.177905
O O1 0.247747 0.415370 0.767225
O O2 0.411356 0.402618 0.757778
O O3 0.313930 0.331924 0.745302
O O4 0.325439 0.379680 0.000000
O O5 0.669371 0.052758 0.500000
O O6 0.584531 0.071384 0.255443
O O7 0.682200 0.000000 0.263266
O O8 0.500000 0.666538 0.820362
O O9 0.500000 0.594969 0.000000
O O10 0.323587 0.720923 0.500000
O O11 0.250000 0.750000 0.250000
O O12 0.414670 0.736735 0.257745
O O13 0.500000 0.000000 0.806120
O O14 0.500000 0.932386 0.000000
O O15 0.500000 0.737105 0.000000
#
# Coordination Sequence:
#
# PCOD9524156 Si02
#       6
#    16  16   8  16   8   8
#     4   9  17  31  50  72  99 131 166 203 244 290
#     4   9  17  30  49  72  98 129 165 203 243 290
#     4   7  12  25  46  68  92 124 157 190 230 279
#     4  11  21  34  53  77 103 133 169 207 250 298
#     4   9  17  29  46  67  92 125 164 204 248 297
#     4   9  17  33  54  75 100 131 167 206 248 297
#
# _framework density 17.504314999999998
#
# number of rings (size 3 to 8) (size 9 to 14) (size 15 to 20)
#    0.000    2.778    0.000    4.000    0.000    2.222 
#    0.000    1.667    0.000    7.333    0.000    0.000 
#    0.000    8.889    0.000    0.000    0.000    0.000 
#
# Total GULP energy -200529.912694 kJ/mol
# GULP energy per Si atom -5570.275353 kJ/mol
# Density = 1.746447 g / cm^3
# Si number density = 17.504315 Si / 1000 Ang^3
#
#
#
# Elastic Constant Matrix: (Units=GPa)
#
#
# Indices 1 2 3 4 5 6 
#
# 1 231.3006 73.2208 56.2432 -0.0004 0.0002 -0.0002
# 2 73.2208 42.4108 21.2602 -0.0006 0.0004 0.0000
# 3 56.2432 21.2602 58.3916 -0.0070 0.0019 -0.0016
# 4 -0.0004 -0.0006 -0.0070 16.2885 0.0007 -0.0001
# 5 0.0002 0.0004 0.0019 0.0007 21.1964 0.0002
# 6 -0.0002 0.0000 -0.0016 -0.0001 0.0002 34.1648
#
#
#
# Elastic Compliance Matrix: (Units=1/GPa)
#
#
# Indices 1 2 3 4 5 6 
#
# 1 0.010321 -0.015701 -0.004225 -0.000002 0.000001 0.000000
# 2 -0.015701 0.052729 -0.004075 0.000000 0.000000 0.000000
# 3 -0.004225 -0.004075 0.022679 0.000009 -0.000002 0.000001
# 4 -0.000002 0.000000 0.000009 0.061393 -0.000002 0.000000
# 5 0.000001 0.000000 -0.000002 -0.000002 0.047178 0.000000
# 6 0.000000 0.000000 0.000001 0.000000 0.000000 0.029270
#
#
# Mechanical properties :
#
#
# Convention : Reuss Voigt Hill
#
# Bulk Modulus (GPa) = 26.50612 70.39460 48.45036
# Shear Modulus (GPa) = 17.59657 26.42188 22.00922
#
# Velocity S-wave (km/s) = 3.17404 3.88938 3.54977
# Velocity P-wave (km/s) = 5.34866 7.77641 6.67386
#
# Compressibility (1/GPa) = 0.03772714
#
# Stress axis : x y z
#
# Youngs Moduli (GPa) = 96.89037 18.96490 44.09448
#
# Poissons Ratio (x) = 0.29777 0.18628
# Poissons Ratio (y) = 1.52128 0.17969
# Poissons Ratio (z) = 0.40931 0.07728
#
# Static dielectric constant tensor:
#      x y z
#    x 1.623660 0.000000 0.000000 
#    y 0.000000 1.575560 0.000000 
#    z 0.000000 0.000000 1.593780 
# 
# From -- ./inp_files/6546.got.cif
#   From: 2010.05.17/outbox.cif.g08.bks.cpg/sg71_4_cif.got.tgz:6546.got - 2010.06.03 16:22:01.
