data_PCOD9524771
_publ_section_title
;
Structure prediction by ZEFSAII (Michael W. Deem and Ramdas Pophale) SiO2 
 PCOD9524771
Probable space group: I M M M
;
_chemical_formula_sum "Si O2"
_cell_formula_units_Z 52
_cell_length_a 21.000000
_cell_length_b 9.000000
_cell_length_c 27.000000
_cell_angle_alpha 90.000000
_cell_angle_beta 90.000000
_cell_angle_gamma 90.000000
_cell_volume 5103.000000
_symmetry_space_group_name_H-M "I M M M"
_symmetry_group_IT_number 71
_symmetry_cell_setting 'orthorhombic'
loop_
_space_group_symop_operation_xyz
x,y,z
-x,-y,z
x,-y,-z
-x,y,-z
-x,-y,-z
x,y,-z
-x,y,z
x,-y,z
1/2+x,1/2+y,1/2+z
1/2-x,1/2-y,1/2+z
1/2+x,1/2-y,1/2-z
1/2-x,1/2+y,1/2-z
1/2-x,1/2-y,1/2-z
1/2+x,1/2+y,1/2-z
1/2-x,1/2+y,1/2+z
1/2+x,1/2-y,1/2+z
loop_
_atom_site_type_symbol
_atom_site_label
_atom_site_fract_x
_atom_site_fract_y
_atom_site_fract_z
Si Si1 0.926042 0.821498 0.764809
Si Si2 0.924750 0.332975 0.337962
Si Si3 0.251285 0.322401 0.404894
Si Si4 0.883558 0.680772 0.554513
Si Si5 0.375618 0.165724 0.559310
Si Si6 0.500000 0.668287 0.560741
Si Si7 0.212598 0.820364 0.796020
O O1 0.907769 0.765056 0.709457
O O2 0.863148 0.777677 0.796678
O O3 0.000000 0.770965 0.776332
O O4 0.928559 0.000000 0.765407
O O5 0.895076 0.500000 0.334795
O O6 0.913590 0.271072 0.393221
O O7 0.000000 0.349698 0.333881
O O8 0.253568 0.500000 0.405517
O O9 0.190030 0.279108 0.436716
O O10 0.313887 0.258262 0.428980
O O11 0.252579 0.276373 0.347271
O O12 0.905705 0.732492 0.500000
O O13 0.890293 0.500000 0.553929
O O14 0.382699 0.156975 0.500000
O O15 0.437813 0.247869 0.578487
O O16 0.370453 0.000000 0.579305
O O17 0.500000 0.500000 0.577957
O O18 0.500000 0.666470 0.500000
O O19 0.250000 0.750000 0.750000
O O20 0.214864 0.000000 0.792032
#
# Coordination Sequence:
#
# PCOD9524771 Si02
#       7
#    16  16  16  16  16   8  16
#     4   9  18  34  54  75 103 138 173 211 261 319
#     4   9  17  30  51  78 104 131 168 213 257 307
#     4  10  20  34  51  74 101 134 179 221 261 314
#     4   9  17  29  47  72 103 137 170 211 260 308
#     4  10  20  34  52  75 105 137 170 213 263 311
#     4   9  17  31  53  77  99 131 173 209 247 301
#     4  10  21  36  55  79 105 137 178 223 272 322
#
# _framework density 10.190084000000001
#
# number of rings (size 3 to 8) (size 9 to 14) (size 15 to 20)
#    0.000    2.538    0.000    2.077    0.000    5.231 
#    1.385    2.308    0.000    1.385    0.000    2.154 
#    0.000    0.000    0.000    0.000    0.000    0.000 
#
# Total GULP energy -289752.381437 kJ/mol
# GULP energy per Si atom -5572.161181 kJ/mol
# Density = 1.016689 g / cm^3
# Si number density = 10.190084 Si / 1000 Ang^3
#
#
#
# Elastic Constant Matrix: (Units=GPa)
#
#
# Indices 1 2 3 4 5 6 
#
# 1 39.0406 12.9856 -16.8861 0.0000 0.0000 0.0000
# 2 12.9856 -35.8496 17.2158 0.0000 0.0000 0.0000
# 3 -16.8861 17.2158 24.0542 0.0000 0.0000 0.0000
# 4 0.0000 0.0000 0.0000 21.1674 0.0000 0.0000
# 5 0.0000 0.0000 0.0000 0.0000 -3.2353 0.0000
# 6 0.0000 0.0000 0.0000 0.0000 0.0000 10.7578
#
#
#
# Elastic Compliance Matrix: (Units=1/GPa)
#
#
# Indices 1 2 3 4 5 6 
#
# 1 0.024854 0.012936 0.008190 0.000000 0.000000 0.000000
# 2 0.012936 -0.014027 0.019120 0.000000 0.000000 0.000000
# 3 0.008190 0.019120 0.033638 0.000000 0.000000 0.000000
# 4 0.000000 0.000000 0.000000 0.047242 0.000000 0.000000
# 5 0.000000 0.000000 0.000000 0.000000 -0.309088 0.000000
# 6 0.000000 0.000000 0.000000 0.000000 0.000000 0.092956
#
#
# Mechanical properties :
#
#
# Convention : Reuss Voigt Hill
#
# Bulk Modulus (GPa) = 8.00290 5.98619 6.99454
# Shear Modulus (GPa) = -30.62535 6.66664 -11.97935
#
# Velocity S-wave (km/s) = -3.88068 1.81059 -2.42708
# Velocity P-wave (km/s) = 4.01799 2.70456 2.10114
#
# Compressibility (1/GPa) = 0.12495466
#
# Stress axis : x y z
#
# Youngs Moduli (GPa) = 40.23499 -71.29146 29.72864
#
# Poissons Ratio (x) = 0.92219 -0.24346
# Poissons Ratio (y) = -0.52046 -0.56841
# Poissons Ratio (z) = -0.32951 1.36309
#
# Static dielectric constant tensor:
#      x y z
#    x 1.750440 0.000000 0.000000 
#    y 0.000000 1.706630 0.000000 
#    z 0.000000 0.000000 1.767430 
# 
# From -- ./inp_files/66426.got.cif
#   From: 2010.05.17/outbox.ucp.g08.bks.cvg/sg71_34_cif.got.tgz:66426.got - 2010.06.11 16:29:00.
