data_PCOD9524059
_publ_section_title
;
Structure prediction by ZEFSAII (Michael W. Deem and Ramdas Pophale) SiO2 
 PCOD9524059
Probable space group: I M M M
;
_chemical_formula_sum "Si O2"
_cell_formula_units_Z 96
_cell_length_a 27.121590
_cell_length_b 15.669659
_cell_length_c 13.760179
_cell_angle_alpha 90.000000
_cell_angle_beta 90.000000
_cell_angle_gamma 90.000000
_cell_volume 5847.884352
_symmetry_space_group_name_H-M "I M M M"
_symmetry_group_IT_number 71
_symmetry_cell_setting 'orthorhombic'
loop_
_space_group_symop_operation_xyz
x,y,z
-x,-y,z
x,-y,-z
-x,y,-z
-x,-y,-z
x,y,-z
-x,y,z
x,-y,z
1/2+x,1/2+y,1/2+z
1/2-x,1/2-y,1/2+z
1/2+x,1/2-y,1/2-z
1/2-x,1/2+y,1/2-z
1/2-x,1/2-y,1/2-z
1/2+x,1/2+y,1/2-z
1/2-x,1/2+y,1/2+z
1/2+x,1/2-y,1/2+z
loop_
_atom_site_type_symbol
_atom_site_label
_atom_site_fract_x
_atom_site_fract_y
_atom_site_fract_z
Si Si1 0.226346 0.396530 0.609351
Si Si2 0.558697 0.000000 0.884750
Si Si3 0.056408 0.000000 0.617988
Si Si4 0.878833 0.344535 0.695247
Si Si5 0.830743 0.397104 0.110972
Si Si6 0.119980 0.164473 0.616754
Si Si7 0.223670 0.102760 0.305663
O O1 0.239751 0.370886 0.500000
O O2 0.222586 0.500000 0.612675
O O3 0.172695 0.361516 0.638074
O O4 0.264390 0.372003 0.694252
O O5 0.583545 0.082536 0.836856
O O6 0.500000 0.000000 0.872549
O O7 0.569932 0.000000 0.000000
O O8 0.086337 0.084390 0.646568
O O9 0.055529 0.000000 0.500000
O O10 0.000000 0.000000 0.652032
O O11 0.864533 0.353554 0.808117
O O12 0.897332 0.251981 0.664887
O O13 0.835592 0.500000 0.123517
O O14 0.773569 0.377344 0.135174
O O15 0.842165 0.375449 0.000000
O O16 0.118941 0.171827 0.500000
O O17 0.175757 0.146559 0.651184
O O18 0.216666 0.000000 0.310066
#
# Coordination Sequence:
#
# PCOD9524059 Si02
#       7
#    16   8   8  16  16  16  16
#     4   9  16  28  48  71 106 144 168 199 246 307
#     4  11  22  36  54  75 103 133 164 208 258 309
#     4   9  20  38  55  72  97 131 169 213 265 308
#     4  11  20  34  51  78 104 136 173 206 252 309
#     4   9  17  31  53  76 106 143 174 204 242 297
#     4  11  21  32  52  76 103 136 171 213 255 304
#     4   9  17  30  47  73 101 135 180 213 245 292
#
# _framework density 16.416193
#
# number of rings (size 3 to 8) (size 9 to 14) (size 15 to 20)
#    0.000    2.167    2.500    3.000    0.000    4.000 
#    0.000    4.167    0.000    1.000    0.000    0.000 
#    0.000    4.667    0.000    0.000    0.000    0.000 
#
# Total GULP energy -267909.031904 kJ/mol
# GULP energy per Si atom -5581.438165 kJ/mol
# Density = 1.637883 g / cm^3
# Si number density = 16.416193 Si / 1000 Ang^3
#
#
#
# Elastic Constant Matrix: (Units=GPa)
#
#
# Indices 1 2 3 4 5 6 
#
# 1 72.4426 52.2390 39.2410 0.0000 0.0000 0.0000
# 2 52.2390 106.4022 50.8244 0.0000 0.0000 0.0000
# 3 39.2410 50.8244 119.0381 0.0000 0.0000 0.0000
# 4 0.0000 0.0000 0.0000 21.0765 0.0000 0.0000
# 5 0.0000 0.0000 0.0000 0.0000 16.3180 0.0000
# 6 0.0000 0.0000 0.0000 0.0000 0.0000 -4.4266
#
#
#
# Elastic Compliance Matrix: (Units=1/GPa)
#
#
# Indices 1 2 3 4 5 6 
#
# 1 0.022401 -0.009385 -0.003378 0.000000 0.000000 0.000000
# 2 -0.009385 0.015738 -0.003626 0.000000 0.000000 0.000000
# 3 -0.003378 -0.003626 0.011062 0.000000 0.000000 0.000000
# 4 0.000000 0.000000 0.000000 0.047446 0.000000 0.000000
# 5 0.000000 0.000000 0.000000 0.000000 0.061282 0.000000
# 6 0.000000 0.000000 0.000000 0.000000 0.000000 -0.225909
#
#
# Mechanical properties :
#
#
# Convention : Reuss Voigt Hill
#
# Bulk Modulus (GPa) = 60.88326 64.72131 62.80229
# Shear Modulus (GPa) = -168.18558 16.96546 -75.61006
#
# Velocity S-wave (km/s) = -10.13279 3.21823 -6.79398
# Velocity P-wave (km/s) = 9.98649 7.30207 4.81715
#
# Compressibility (1/GPa) = 0.01642488
#
# Stress axis : x y z
#
# Youngs Moduli (GPa) = 44.64093 63.54215 90.39833
#
# Poissons Ratio (x) = 0.59631 0.30534
# Poissons Ratio (y) = 0.41894 0.32776
# Poissons Ratio (z) = 0.15078 0.23038
#
# Static dielectric constant tensor:
#      x y z
#    x 1.516660 0.000000 0.000000 
#    y 0.000000 1.577550 0.000000 
#    z 0.000000 0.000000 1.551990 
# 
# From -- ./inp_files/39220.got.cif
#   From: 2010.05.17/outbox.cif.g08.bks.cpg/sg71_20_cif.got.tgz:39220.got - 2010.06.03 16:22:01.
