data_PCOD9524854
_publ_section_title
;
Structure prediction by ZEFSAII (Michael W. Deem and Ramdas Pophale) SiO2 
 PCOD9524854
Probable space group: I M M M
;
_chemical_formula_sum "Si O2"
_cell_formula_units_Z 52
_cell_length_a 9.000000
_cell_length_b 27.000000
_cell_length_c 21.000000
_cell_angle_alpha 90.000000
_cell_angle_beta 90.000000
_cell_angle_gamma 90.000000
_cell_volume 5103.000000
_symmetry_space_group_name_H-M "I M M M"
_symmetry_group_IT_number 71
_symmetry_cell_setting 'orthorhombic'
loop_
_space_group_symop_operation_xyz
x,y,z
-x,-y,z
x,-y,-z
-x,y,-z
-x,-y,-z
x,y,-z
-x,y,z
x,-y,z
1/2+x,1/2+y,1/2+z
1/2-x,1/2-y,1/2+z
1/2+x,1/2-y,1/2-z
1/2-x,1/2+y,1/2-z
1/2-x,1/2-y,1/2-z
1/2+x,1/2+y,1/2-z
1/2-x,1/2+y,1/2+z
1/2+x,1/2-y,1/2+z
loop_
_atom_site_type_symbol
_atom_site_label
_atom_site_fract_x
_atom_site_fract_y
_atom_site_fract_z
Si Si1 0.670770 0.000000 0.925058
Si Si2 0.825839 0.214416 0.798923
Si Si3 0.822078 0.443541 0.820664
Si Si4 0.820743 0.735690 0.071336
Si Si5 0.322054 0.372705 0.073586
Si Si6 0.175428 0.102969 0.925498
Si Si7 0.827140 0.620088 0.702505
O O1 0.777526 0.046244 0.914710
O O2 0.500000 0.000000 0.895651
O O3 0.643275 0.000000 0.000000
O O4 0.750000 0.250000 0.750000
O O5 0.777216 0.228550 0.870824
O O6 0.781426 0.161484 0.771796
O O7 0.000000 0.220417 0.798353
O O8 0.773995 0.500000 0.829638
O O9 0.744428 0.408145 0.872102
O O10 0.798568 0.427482 0.746651
O O11 0.000000 0.440244 0.830893
O O12 0.747386 0.682082 0.080697
O O13 0.000000 0.730372 0.072798
O O14 0.781474 0.753909 0.000000
O O15 0.500000 0.370280 0.079505
O O16 0.287807 0.388718 0.000000
O O17 0.284104 0.123496 0.871732
O O18 0.000000 0.112628 0.912503
O O19 0.201532 0.115493 0.000000
O O20 0.000000 0.632444 0.709832
#
# Coordination Sequence:
#
# PCOD9524854 Si02
#       7
#     8  16  16  16  16  16  16
#     4   9  17  31  53  79 107 143 186 231 280 333
#     4  11  23  39  60  86 118 154 195 242 295 356
#     4  10  23  42  61  83 114 155 202 248 293 348
#     4   9  19  37  61  87 116 154 196 235 282 345
#     4  10  21  37  60  92 125 153 186 235 293 352
#     4  10  21  37  57  83 115 151 194 242 291 347
#     4  11  24  40  60  86 117 154 199 250 304 355
#
# _framework density 10.190084000000001
#
# number of rings (size 3 to 8) (size 9 to 14) (size 15 to 20)
#    0.000    1.923    0.000    3.000    1.077   10.154 
#    0.000    3.077    0.000    0.000    0.000    0.000 
#    0.000    0.000    0.000    0.000    0.000    0.000 
#
# Total GULP energy -289572.684882 kJ/mol
# GULP energy per Si atom -5568.705479 kJ/mol
# Density = 1.016689 g / cm^3
# Si number density = 10.190084 Si / 1000 Ang^3
#
#
#
# Elastic Constant Matrix: (Units=GPa)
#
#
# Indices 1 2 3 4 5 6 
#
# 1 34.7020 14.8411 44.9138 0.0000 0.0000 0.0000
# 2 14.8411 76.2708 43.1223 0.0000 0.0000 0.0000
# 3 44.9138 43.1223 92.1973 0.0001 0.0000 0.0000
# 4 0.0000 0.0000 0.0001 -23.1874 0.0000 0.0000
# 5 0.0000 0.0000 0.0000 0.0000 38.1176 0.0000
# 6 0.0000 0.0000 0.0000 0.0000 0.0000 21.6147
#
#
#
# Elastic Compliance Matrix: (Units=1/GPa)
#
#
# Indices 1 2 3 4 5 6 
#
# 1 0.082341 0.009050 -0.044345 0.000000 0.000000 0.000000
# 2 0.009050 0.018819 -0.013211 0.000000 0.000000 0.000000
# 3 -0.044345 -0.013211 0.038628 0.000000 0.000000 0.000000
# 4 0.000000 0.000000 0.000000 -0.043127 0.000000 0.000000
# 5 0.000000 0.000000 0.000000 0.000000 0.026235 0.000000
# 6 0.000000 0.000000 0.000000 0.000000 0.000000 0.046265
#
#
# Mechanical properties :
#
#
# Convention : Reuss Voigt Hill
#
# Bulk Modulus (GPa) = 23.37755 45.43608 34.40681
# Shear Modulus (GPa) = 17.82967 13.99518 15.91243
#
# Velocity S-wave (km/s) = 2.96100 2.62335 2.79728
# Velocity P-wave (km/s) = 4.81515 5.61414 5.22993
#
# Compressibility (1/GPa) = 0.04277609
#
# Stress axis : x y z
#
# Youngs Moduli (GPa) = 12.14464 53.13672 25.88806
#
# Poissons Ratio (x) = -0.48087 1.14801
# Poissons Ratio (y) = -0.10991 0.34200
# Poissons Ratio (z) = 0.53855 0.70198
#
# Static dielectric constant tensor:
#      x y z
#    x 1.679440 0.000000 0.000000 
#    y 0.000000 1.211970 0.000000 
#    z 0.000000 0.000000 1.744690 
# 
# From -- ./inp_files/50878.got.cif
#   From: 2010.05.17/outbox.ucp.g08.bks.cvg/sg71_26_cif.got.tgz:50878.got - 2010.06.11 16:29:00.
