data_PCOD9524774
_publ_section_title
;
Structure prediction by ZEFSAII (Michael W. Deem and Ramdas Pophale) SiO2 
 PCOD9524774
Probable space group: I M M M
;
_chemical_formula_sum "Si O2"
_cell_formula_units_Z 44
_cell_length_a 30.000000
_cell_length_b 9.000000
_cell_length_c 18.000000
_cell_angle_alpha 90.000000
_cell_angle_beta 90.000000
_cell_angle_gamma 90.000000
_cell_volume 4860.000000
_symmetry_space_group_name_H-M "I M M M"
_symmetry_group_IT_number 71
_symmetry_cell_setting 'orthorhombic'
loop_
_space_group_symop_operation_xyz
x,y,z
-x,-y,z
x,-y,-z
-x,y,-z
-x,-y,-z
x,y,-z
-x,y,z
x,-y,z
1/2+x,1/2+y,1/2+z
1/2-x,1/2-y,1/2+z
1/2+x,1/2-y,1/2-z
1/2-x,1/2+y,1/2-z
1/2-x,1/2-y,1/2-z
1/2+x,1/2+y,1/2-z
1/2-x,1/2+y,1/2+z
1/2+x,1/2-y,1/2+z
loop_
_atom_site_type_symbol
_atom_site_label
_atom_site_fract_x
_atom_site_fract_y
_atom_site_fract_z
Si Si1 0.292115 0.325649 0.290105
Si Si2 0.880886 0.677202 0.730710
Si Si3 0.842962 0.675183 0.415979
Si Si4 0.948780 0.678488 0.148848
Si Si5 0.249451 0.667867 0.087594
Si Si6 0.054317 0.172901 0.000000
O O1 0.291245 0.500000 0.279903
O O2 0.250000 0.250000 0.250000
O O3 0.337168 0.255671 0.260994
O O4 0.284851 0.278532 0.374859
O O5 0.875949 0.500000 0.741021
O O6 0.881183 0.705751 0.643205
O O7 0.922515 0.725972 0.778497
O O8 0.856592 0.703439 0.500000
O O9 0.830328 0.500000 0.409660
O O10 0.799413 0.772291 0.398925
O O11 0.947270 0.500000 0.141761
O O12 0.000000 0.723450 0.155197
O O13 0.929137 0.749221 0.074491
O O14 0.244202 0.500000 0.116464
O O15 0.243477 0.665538 0.000000
O O16 0.000000 0.190134 0.000000
O O17 0.064504 0.000000 0.000000
#
# Coordination Sequence:
#
# PCOD9524774 Si02
#       6
#    16  16  16  16  16   8
#     4  12  23  35  52  74 104 139 174 215 262 310
#     4  10  20  34  53  77 104 136 174 217 262 310
#     4   9  17  30  50  74 100 134 175 216 256 302
#     4   9  18  34  56  79 104 137 175 213 258 313
#     4  10  20  34  52  73  99 134 175 216 256 304
#     4   9  17  31  53  79 105 133 169 215 263 309
#
# _framework density 9.0534979999999994
#
# number of rings (size 3 to 8) (size 9 to 14) (size 15 to 20)
#    0.000    2.091    1.818    2.455    0.000    2.909 
#    1.636    0.000    0.000    0.545    0.000    3.818 
#    0.000    0.000    0.000   10.727    0.000   11.273 
#
# Total GULP energy -245187.191518 kJ/mol
# GULP energy per Si atom -5572.436171 kJ/mol
# Density = 0.903289 g / cm^3
# Si number density = 9.053498 Si / 1000 Ang^3
#
#
#
# Elastic Constant Matrix: (Units=GPa)
#
#
# Indices 1 2 3 4 5 6 
#
# 1 45.9087 19.6814 49.5068 0.0000 0.0000 0.0000
# 2 19.6814 -17.7275 23.2556 0.0000 0.0000 0.0000
# 3 49.5068 23.2556 102.3812 0.0000 0.0000 0.0000
# 4 0.0000 0.0000 0.0000 11.7865 0.0000 0.0000
# 5 0.0000 0.0000 0.0000 0.0000 22.5961 0.0000
# 6 0.0000 0.0000 0.0000 0.0000 0.0000 13.6814
#
#
#
# Elastic Compliance Matrix: (Units=1/GPa)
#
#
# Indices 1 2 3 4 5 6 
#
# 1 0.039900 0.014629 -0.022617 0.000000 0.000000 0.000000
# 2 0.014629 -0.038096 0.001580 0.000000 0.000000 0.000000
# 3 -0.022617 0.001580 0.020345 0.000000 0.000000 0.000000
# 4 0.000000 0.000000 0.000000 0.084843 0.000000 0.000000
# 5 0.000000 0.000000 0.000000 0.000000 0.044255 0.000000
# 6 0.000000 0.000000 0.000000 0.000000 0.000000 0.073092
#
#
# Mechanical properties :
#
#
# Convention : Reuss Voigt Hill
#
# Bulk Modulus (GPa) = 107.15494 35.04999 71.10247
# Shear Modulus (GPa) = 20.81017 12.15403 16.48210
#
# Velocity S-wave (km/s) = 3.39379 2.59363 3.02033
# Velocity P-wave (km/s) = 8.64085 5.32620 7.17749
#
# Compressibility (1/GPa) = 0.00933228
#
# Stress axis : x y z
#
# Youngs Moduli (GPa) = 25.06243 -26.24934 49.15207
#
# Poissons Ratio (x) = 0.38399 1.11166
# Poissons Ratio (y) = -0.36663 -0.07765
# Poissons Ratio (z) = 0.56683 0.04147
#
# Static dielectric constant tensor:
#      x y z
#    x 1.593290 0.000000 0.000000 
#    y 0.000000 1.625380 0.000000 
#    z 0.000000 0.000000 1.714110 
# 
# From -- ./inp_files/8766.got.cif
#   From: 2010.05.17/outbox.ucp.g08.bks.cvg/sg71_5_cif.got.tgz:8766.got - 2010.06.11 16:29:00.
