data_PCOD9524284
_publ_section_title
;
Structure prediction by ZEFSAII (Michael W. Deem and Ramdas Pophale) SiO2 
 PCOD9524284
Probable space group: I M M M
;
_chemical_formula_sum "Si O2"
_cell_formula_units_Z 72
_cell_length_a 9.765744
_cell_length_b 24.860999
_cell_length_c 15.297234
_cell_angle_alpha 90.000000
_cell_angle_beta 90.000000
_cell_angle_gamma 90.000000
_cell_volume 3713.956576
_symmetry_space_group_name_H-M "I M M M"
_symmetry_group_IT_number 71
_symmetry_cell_setting 'orthorhombic'
loop_
_space_group_symop_operation_xyz
x,y,z
-x,-y,z
x,-y,-z
-x,y,-z
-x,-y,-z
x,y,-z
-x,y,z
x,-y,z
1/2+x,1/2+y,1/2+z
1/2-x,1/2-y,1/2+z
1/2+x,1/2-y,1/2-z
1/2-x,1/2+y,1/2-z
1/2-x,1/2-y,1/2-z
1/2+x,1/2+y,1/2-z
1/2-x,1/2+y,1/2+z
1/2+x,1/2-y,1/2+z
loop_
_atom_site_type_symbol
_atom_site_label
_atom_site_fract_x
_atom_site_fract_y
_atom_site_fract_z
Si Si1 0.334149 0.711283 0.500000
Si Si2 0.000000 0.440803 0.397701
Si Si3 0.833846 0.620617 0.845830
Si Si4 0.248101 0.131521 0.844015
Si Si5 0.164261 0.500000 0.898636
Si Si6 0.000000 0.936286 0.103586
Si Si7 0.832005 0.177666 0.500000
O O1 0.500000 0.721644 0.500000
O O2 0.293999 0.677411 0.586996
O O3 0.237447 0.763422 0.500000
O O4 0.872812 0.404197 0.376391
O O5 0.000000 0.500000 0.354176
O O6 0.000000 0.448880 0.500000
O O7 0.790493 0.646822 0.753758
O O8 0.803350 0.556222 0.850445
O O9 0.737191 0.647406 0.917964
O O10 0.000000 0.627234 0.860357
O O11 0.126129 0.089285 0.847260
O O12 0.000000 0.500000 0.905476
O O13 0.216685 0.500000 0.000000
O O14 0.000000 0.000000 0.105187
O O15 0.000000 0.920006 0.000000
O O16 0.000000 0.178105 0.500000
#
# Coordination Sequence:
#
# PCOD9524284 Si02
#       7
#     8   8  16  16   8   8   8
#     4  12  26  50  72  92 133 184 225 283 344 399
#     4  11  22  36  60 100 148 186 222 271 322 396
#     4  11  24  44  70 104 139 178 220 273 335 404
#     4  12  23  40  67 101 139 179 232 268 336 404
#     4   9  18  38  70  97 134 179 221 260 322 398
#     4  11  22  40  62  94 146 194 224 269 332 400
#     4  12  30  49  73  97 126 168 233 291 340 397
#
# _framework density 19.386333
#
# number of rings (size 3 to 8) (size 9 to 14) (size 15 to 20)
#    0.000    0.778    5.556    1.667    6.222    2.667 
#    0.000    1.111    0.000    0.000    0.000    0.000 
#    0.000    0.000    0.000    0.000    0.000    0.000 
#
# Total GULP energy -200763.482916 kJ/mol
# GULP energy per Si atom -5576.763414 kJ/mol
# Density = 1.934221 g / cm^3
# Si number density = 19.386333 Si / 1000 Ang^3
#
#
#
# Elastic Constant Matrix: (Units=GPa)
#
#
# Indices 1 2 3 4 5 6 
#
# 1 189.2084 59.0558 51.9881 0.0000 0.0000 0.0000
# 2 59.0558 109.0565 42.9953 0.0001 0.0000 0.0000
# 3 51.9881 42.9953 127.6485 0.0000 -0.0001 0.0002
# 4 0.0000 0.0001 0.0000 -84.3195 0.0001 0.0002
# 5 0.0000 0.0000 -0.0001 0.0001 80.4379 -0.0001
# 6 0.0000 0.0000 0.0002 0.0002 -0.0001 15.4485
#
#
#
# Elastic Compliance Matrix: (Units=1/GPa)
#
#
# Indices 1 2 3 4 5 6 
#
# 1 0.006676 -0.002933 -0.001731 0.000000 0.000000 0.000000
# 2 -0.002933 0.011862 -0.002801 0.000000 0.000000 0.000000
# 3 -0.001731 -0.002801 0.009483 0.000000 0.000000 0.000000
# 4 0.000000 0.000000 0.000000 -0.011860 0.000000 0.000000
# 5 0.000000 0.000000 0.000000 0.000000 0.012432 0.000000
# 6 0.000000 0.000000 0.000000 0.000000 0.000000 0.064731
#
#
# Mechanical properties :
#
#
# Convention : Reuss Voigt Hill
#
# Bulk Modulus (GPa) = 76.38945 81.55463 78.97204
# Shear Modulus (GPa) = 44.39800 20.43834 32.41817
#
# Velocity S-wave (km/s) = 4.79076 3.25047 4.09371
# Velocity P-wave (km/s) = 8.37205 7.49979 7.94789
#
# Compressibility (1/GPa) = 0.01309081
#
# Stress axis : x y z
#
# Youngs Moduli (GPa) = 149.78500 84.30307 105.45689
#
# Poissons Ratio (x) = 0.24724 0.18257
# Poissons Ratio (y) = 0.43928 0.29538
# Poissons Ratio (z) = 0.25931 0.23613
#
# Static dielectric constant tensor:
#      x y z
#    x 1.560790 0.000000 0.000000 
#    y 0.000000 1.718660 0.000000 
#    z 0.000000 0.000000 1.602600 
# 
# From -- ./inp_files/31527.got.cif
#   From: 2010.05.17/outbox.cif.g08.bks.cpg/sg71_16_cif.got.tgz:31527.got - 2010.06.03 16:22:01.
