data_PCOD9524615
_publ_section_title
;
Structure prediction by ZEFSAII (Michael W. Deem and Ramdas Pophale) SiO2 
 PCOD9524615
Probable space group: I M M M
;
_chemical_formula_sum "Si O2"
_cell_formula_units_Z 104
_cell_length_a 34.123408
_cell_length_b 9.024354
_cell_length_c 19.704741
_cell_angle_alpha 90.000000
_cell_angle_beta 90.000000
_cell_angle_gamma 90.000000
_cell_volume 6067.911707
_symmetry_space_group_name_H-M "I M M M"
_symmetry_group_IT_number 71
_symmetry_cell_setting 'orthorhombic'
loop_
_space_group_symop_operation_xyz
x,y,z
-x,-y,z
x,-y,-z
-x,y,-z
-x,-y,-z
x,y,-z
-x,y,z
x,-y,z
1/2+x,1/2+y,1/2+z
1/2-x,1/2-y,1/2+z
1/2+x,1/2-y,1/2-z
1/2-x,1/2+y,1/2-z
1/2-x,1/2-y,1/2-z
1/2+x,1/2+y,1/2-z
1/2-x,1/2+y,1/2+z
1/2+x,1/2-y,1/2+z
loop_
_atom_site_type_symbol
_atom_site_label
_atom_site_fract_x
_atom_site_fract_y
_atom_site_fract_z
Si Si1 0.045245 0.319288 0.693580
Si Si2 0.265533 0.329668 0.582612
Si Si3 0.813883 0.829524 0.582647
Si Si4 0.604924 0.821347 0.921375
Si Si5 0.000000 0.680788 0.077582
Si Si6 0.076493 0.319332 0.161210
Si Si7 0.653016 0.178592 0.579604
O O1 0.044290 0.500000 0.694175
O O2 0.069690 0.274181 0.627522
O O3 0.067916 0.272710 0.761798
O O4 0.000000 0.269905 0.694182
O O5 0.264544 0.327446 0.500000
O O6 0.265912 0.500000 0.604341
O O7 0.225941 0.249228 0.606129
O O8 0.305667 0.247871 0.601411
O O9 0.813043 0.826627 0.500000
O O10 0.853688 0.745994 0.602050
O O11 0.814771 0.000000 0.604050
O O12 0.607865 0.000000 0.919047
O O13 0.598252 0.778884 0.000000
O O14 0.039172 0.727221 0.116444
O O15 0.000000 0.500000 0.077783
O O16 0.000000 0.729805 0.000000
O O17 0.077082 0.500000 0.160730
O O18 0.116888 0.271554 0.126330
O O19 0.645775 0.216470 0.500000
O O20 0.655834 0.000000 0.582875
#
# Coordination Sequence:
#
# PCOD9524615 Si02
#       7
#    16  16  16  16   8  16  16
#     4   9  16  27  43  63  89 121 154 187 227 273
#     4   9  16  26  42  65  93 123 152 183 222 268
#     4   9  16  27  45  68  93 119 147 183 228 274
#     4   9  17  28  44  68  94 118 148 187 227 268
#     4   9  14  20  34  58  88 120 152 189 231 267
#     4   9  15  24  38  59  89 122 153 187 227 270
#     4   9  16  25  39  63  93 121 151 188 227 264
#
# _framework density 17.139340000000001
#
# number of rings (size 3 to 8) (size 9 to 14) (size 15 to 20)
#    0.000    3.000    0.769    1.385    0.000    5.846 
#    0.000    1.538    0.000    2.308    0.000    2.692 
#    0.000    3.077    0.000    0.000    0.000    0.000 
#
# Total GULP energy -289629.618153 kJ/mol
# GULP energy per Si atom -5569.800349 kJ/mol
# Density = 1.710033 g / cm^3
# Si number density = 17.139340 Si / 1000 Ang^3
#
#
#
# Elastic Constant Matrix: (Units=GPa)
#
#
# Indices 1 2 3 4 5 6 
#
# 1 159.3579 33.6709 73.6380 0.0000 0.0000 0.0000
# 2 33.6709 22.0988 20.6247 0.0000 0.0000 0.0000
# 3 73.6380 20.6247 79.9786 0.0000 0.0000 0.0000
# 4 0.0000 0.0000 0.0000 4.7232 0.0000 0.0000
# 5 0.0000 0.0000 0.0000 0.0000 -6.3916 0.0000
# 6 0.0000 0.0000 0.0000 0.0000 0.0000 18.9842
#
#
#
# Elastic Compliance Matrix: (Units=1/GPa)
#
#
# Indices 1 2 3 4 5 6 
#
# 1 0.012704 -0.011115 -0.008831 0.000000 0.000000 0.000000
# 2 -0.011115 0.069320 -0.007642 0.000000 0.000000 0.000000
# 3 -0.008831 -0.007642 0.022605 0.000000 0.000000 0.000000
# 4 0.000000 0.000000 0.000000 0.211720 0.000000 0.000000
# 5 0.000000 0.000000 0.000000 0.000000 -0.156454 0.000000
# 6 0.000000 0.000000 0.000000 0.000000 0.000000 0.052675
#
#
# Mechanical properties :
#
#
# Convention : Reuss Voigt Hill
#
# Bulk Modulus (GPa) = 20.22136 57.47805 38.84970
# Shear Modulus (GPa) = 17.59137 12.36327 14.97732
#
# Velocity S-wave (km/s) = 3.20718 2.68869 2.95931
# Velocity P-wave (km/s) = 5.05357 6.57627 5.86455
#
# Compressibility (1/GPa) = 0.04945267
#
# Stress axis : x y z
#
# Youngs Moduli (GPa) = 78.71278 14.42594 44.23856
#
# Poissons Ratio (x) = 0.16035 0.39066
# Poissons Ratio (y) = 0.87492 0.33806
# Poissons Ratio (z) = 0.69510 0.11024
#
# Static dielectric constant tensor:
#      x y z
#    x 1.567700 0.000000 0.000000 
#    y 0.000000 1.577950 0.000000 
#    z 0.000000 0.000000 1.577870 
# 
# From -- ./inp_files/56720.got.cif
#   From: 2010.05.17/outbox.cif.g08.bks.cpg/sg71_29_cif.got.tgz:56720.got - 2010.06.03 16:22:01.
