data_PCOD9524443
_publ_section_title
;
Structure prediction by ZEFSAII (Michael W. Deem and Ramdas Pophale) SiO2 
 PCOD9524443
Probable space group: I M M M
;
_chemical_formula_sum "Si O2"
_cell_formula_units_Z 52
_cell_length_a 11.000820
_cell_length_b 7.247712
_cell_length_c 28.993146
_cell_angle_alpha 90.000000
_cell_angle_beta 90.000000
_cell_angle_gamma 90.000000
_cell_volume 2311.646004
_symmetry_space_group_name_H-M "I M M M"
_symmetry_group_IT_number 71
_symmetry_cell_setting 'orthorhombic'
loop_
_space_group_symop_operation_xyz
x,y,z
-x,-y,z
x,-y,-z
-x,y,-z
-x,-y,-z
x,y,-z
-x,y,z
x,-y,z
1/2+x,1/2+y,1/2+z
1/2-x,1/2-y,1/2+z
1/2+x,1/2-y,1/2-z
1/2-x,1/2+y,1/2-z
1/2-x,1/2-y,1/2-z
1/2+x,1/2+y,1/2-z
1/2-x,1/2+y,1/2+z
1/2+x,1/2-y,1/2+z
loop_
_atom_site_type_symbol
_atom_site_label
_atom_site_fract_x
_atom_site_fract_y
_atom_site_fract_z
Si Si1 0.717536 0.716179 0.803102
Si Si2 0.132892 0.776146 0.553982
Si Si3 0.000000 0.500000 0.677222
Si Si4 0.634093 0.777386 0.610934
O O1 0.689522 0.500000 0.809908
O O2 0.750000 0.750000 0.750000
O O3 0.832030 0.759664 0.836093
O O4 0.606430 0.840432 0.818743
O O5 0.140574 0.727742 0.500000
O O6 0.251257 0.711379 0.580988
O O7 0.000000 0.712592 0.571748
O O8 0.131692 0.000000 0.556425
O O9 0.500000 0.709813 0.598394
O O10 0.631409 0.000000 0.605306
#
# Coordination Sequence:
#
# PCOD9524443 Si02
#       4
#    16  16   4  16
#     4  11  24  42  66  94 128 171 215 268 321 385
#     4   8  14  26  46  77 119 163 207 258 316 379
#     4  12  26  44  66  94 125 176 217 270 318 384
#     4   9  19  33  54  85 123 165 210 264 320 379
#
# _framework density 22.494793999999999
#
# number of rings (size 3 to 8) (size 9 to 14) (size 15 to 20)
#    0.000    2.462    1.538    1.385    4.308    0.615 
#    0.000    3.846    0.000    0.000    0.000    2.154 
#    0.000    2.462    0.000    0.308    0.000    0.000 
#
# Total GULP energy -144796.605482 kJ/mol
# GULP energy per Si atom -5569.100211 kJ/mol
# Density = 2.244360 g / cm^3
# Si number density = 22.494794 Si / 1000 Ang^3
#
#
#
# Elastic Constant Matrix: (Units=GPa)
#
#
# Indices 1 2 3 4 5 6 
#
# 1 243.3838 29.8059 83.2915 0.0000 0.0000 0.0000
# 2 29.8059 136.5426 -6.0006 0.0000 0.0000 0.0000
# 3 83.2915 -6.0006 98.7935 0.0000 0.0000 0.0000
# 4 0.0000 0.0000 0.0000 -1.3033 0.0000 0.0000
# 5 0.0000 0.0000 0.0000 0.0000 12.8468 0.0000
# 6 0.0000 0.0000 0.0000 0.0000 0.0000 13.8602
#
#
#
# Elastic Compliance Matrix: (Units=1/GPa)
#
#
# Indices 1 2 3 4 5 6 
#
# 1 0.006089 -0.001559 -0.005228 0.000000 0.000000 0.000000
# 2 -0.001559 0.007742 0.001785 0.000000 0.000000 0.000000
# 3 -0.005228 0.001785 0.014638 0.000000 0.000000 0.000000
# 4 0.000000 0.000000 0.000000 -0.767259 0.000000 0.000000
# 5 0.000000 0.000000 0.000000 0.000000 0.077840 0.000000
# 6 0.000000 0.000000 0.000000 0.000000 0.000000 0.072149
#
#
# Mechanical properties :
#
#
# Convention : Reuss Voigt Hill
#
# Bulk Modulus (GPa) = 54.15756 76.99038 65.57397
# Shear Modulus (GPa) = -8.73148 29.85561 10.56207
#
# Velocity S-wave (km/s) = -1.97230 3.64706 2.16922
# Velocity P-wave (km/s) = 4.35215 7.21352 5.95719
#
# Compressibility (1/GPa) = 0.01846464
#
# Stress axis : x y z
#
# Youngs Moduli (GPa) = 164.23548 129.15831 68.31418
#
# Poissons Ratio (x) = 0.20134 0.35715
# Poissons Ratio (y) = 0.25602 -0.12191
# Poissons Ratio (z) = 0.85864 -0.23049
#
# Static dielectric constant tensor:
#      x y z
#    x 1.795830 0.000000 0.000000 
#    y 0.000000 1.880710 0.000000 
#    z 0.000000 0.000000 1.831520 
# 
# From -- ./inp_files/62618.got.cif
#   From: 2010.05.17/outbox.cif.g08.bks.cpg/sg71_32_cif.got.tgz:62618.got - 2010.06.03 16:22:01.
