data_PCOD9524081
_publ_section_title
;
Structure prediction by ZEFSAII (Michael W. Deem and Ramdas Pophale) SiO2 
 PCOD9524081
Probable space group: I M M M
;
_chemical_formula_sum "Si O2"
_cell_formula_units_Z 84
_cell_length_a 15.775164
_cell_length_b 11.488069
_cell_length_c 23.375158
_cell_angle_alpha 90.000000
_cell_angle_beta 90.000000
_cell_angle_gamma 90.000000
_cell_volume 4236.190416
_symmetry_space_group_name_H-M "I M M M"
_symmetry_group_IT_number 71
_symmetry_cell_setting 'orthorhombic'
loop_
_space_group_symop_operation_xyz
x,y,z
-x,-y,z
x,-y,-z
-x,y,-z
-x,-y,-z
x,y,-z
-x,y,z
x,-y,z
1/2+x,1/2+y,1/2+z
1/2-x,1/2-y,1/2+z
1/2+x,1/2-y,1/2-z
1/2-x,1/2+y,1/2-z
1/2-x,1/2-y,1/2-z
1/2+x,1/2+y,1/2-z
1/2-x,1/2+y,1/2+z
1/2+x,1/2-y,1/2+z
loop_
_atom_site_type_symbol
_atom_site_label
_atom_site_fract_x
_atom_site_fract_y
_atom_site_fract_z
Si Si1 0.500000 0.230202 0.500000
Si Si2 0.602489 0.500000 0.749867
Si Si3 0.354746 0.739295 0.701123
Si Si4 0.595978 0.500000 0.113881
Si Si5 0.281861 0.287634 0.111573
Si Si6 0.813972 0.360113 0.000000
Si Si7 0.095058 0.637986 0.319128
Si Si8 0.000000 0.857680 0.880866
O O1 0.584938 0.153780 0.500000
O O2 0.500000 0.312235 0.444864
O O3 0.500000 0.500000 0.732314
O O4 0.655082 0.388592 0.729017
O O5 0.595161 0.500000 0.817417
O O6 0.279217 0.801379 0.667027
O O7 0.384379 0.814300 0.755473
O O8 0.422021 0.702217 0.652611
O O9 0.500000 0.500000 0.092138
O O10 0.650039 0.612484 0.098927
O O11 0.223438 0.293732 0.055585
O O12 0.338440 0.179511 0.133025
O O13 0.793381 0.500000 0.000000
O O14 0.094376 0.500000 0.316897
O O15 0.000000 0.682233 0.333185
O O16 0.000000 0.000000 0.881297
#
# Coordination Sequence:
#
# PCOD9524081 Si02
#       8
#     4   8  16   8  16   8  16   8
#     4  12  26  52  68  94 150 194 216 280 344 414
#     4  11  20  36  65  98 138 179 221 271 341 410
#     4  12  22  38  67 101 140 177 227 281 338 403
#     4  11  24  43  70  97 132 178 217 283 362 411
#     4  12  26  42  69  97 137 169 234 288 337 409
#     4  12  27  49  71 103 130 174 234 287 345 411
#     4  11  25  43  65 100 142 181 220 273 353 423
#     4  12  23  41  69 104 141 190 243 280 329 405
#
# _framework density 19.829136999999999
#
# number of rings (size 3 to 8) (size 9 to 14) (size 15 to 20)
#    0.000    0.381    7.619    1.429    2.667    0.000 
#    0.000    2.857    0.000    1.143    0.000    0.000 
#    0.000    0.000    0.000    0.000    0.000    0.000 
#
# Total GULP energy -234140.772776 kJ/mol
# GULP energy per Si atom -5574.780304 kJ/mol
# Density = 1.978401 g / cm^3
# Si number density = 19.829137 Si / 1000 Ang^3
#
#
#
# Elastic Constant Matrix: (Units=GPa)
#
#
# Indices 1 2 3 4 5 6 
#
# 1 125.0564 37.3603 49.8282 0.0000 0.0000 0.0000
# 2 37.3603 78.1353 31.2830 0.0000 0.0000 0.0000
# 3 49.8282 31.2830 113.3155 0.0000 0.0000 0.0000
# 4 0.0000 0.0000 0.0000 15.4921 0.0000 0.0000
# 5 0.0000 0.0000 0.0000 0.0000 32.9986 0.0000
# 6 0.0000 0.0000 0.0000 0.0000 0.0000 25.7994
#
#
#
# Elastic Compliance Matrix: (Units=1/GPa)
#
#
# Indices 1 2 3 4 5 6 
#
# 1 0.010512 -0.003570 -0.003637 0.000000 0.000000 0.000000
# 2 -0.003570 0.015601 -0.002737 0.000000 0.000000 0.000000
# 3 -0.003637 -0.002737 0.011180 0.000000 0.000000 0.000000
# 4 0.000000 0.000000 0.000000 0.064549 0.000000 0.000000
# 5 0.000000 0.000000 0.000000 0.000000 0.030304 0.000000
# 6 0.000000 0.000000 0.000000 0.000000 0.000000 0.038761
#
#
# Mechanical properties :
#
#
# Convention : Reuss Voigt Hill
#
# Bulk Modulus (GPa) = 57.45555 61.49445 59.47500
# Shear Modulus (GPa) = 25.43273 28.06040 26.74657
#
# Velocity S-wave (km/s) = 3.58522 3.76588 3.67666
# Velocity P-wave (km/s) = 6.79534 7.07026 6.93416
#
# Compressibility (1/GPa) = 0.01740476
#
# Stress axis : x y z
#
# Youngs Moduli (GPa) = 95.12865 64.09734 89.44727
#
# Poissons Ratio (x) = 0.22884 0.32531
# Poissons Ratio (y) = 0.33963 0.24483
# Poissons Ratio (z) = 0.34597 0.17544
#
# Static dielectric constant tensor:
#      x y z
#    x 1.838540 0.000000 0.000000 
#    y 0.000000 1.686620 0.000000 
#    z 0.000000 0.000000 1.681700 
# 
# From -- ./inp_files/59722.got.cif
#   From: 2010.05.17/outbox.cif.g08.bks.cpg/sg71_30_cif.got.tgz:59722.got - 2010.06.03 16:22:01.
