data_PCOD9524824
_publ_section_title
;
Structure prediction by ZEFSAII (Michael W. Deem and Ramdas Pophale) SiO2 
 PCOD9524824
Probable space group: I M M M
;
_chemical_formula_sum "Si O2"
_cell_formula_units_Z 52
_cell_length_a 21.000000
_cell_length_b 15.000000
_cell_length_c 18.000000
_cell_angle_alpha 90.000000
_cell_angle_beta 90.000000
_cell_angle_gamma 90.000000
_cell_volume 5670.000000
_symmetry_space_group_name_H-M "I M M M"
_symmetry_group_IT_number 71
_symmetry_cell_setting 'orthorhombic'
loop_
_space_group_symop_operation_xyz
x,y,z
-x,-y,z
x,-y,-z
-x,y,-z
-x,-y,-z
x,y,-z
-x,y,z
x,-y,z
1/2+x,1/2+y,1/2+z
1/2-x,1/2-y,1/2+z
1/2+x,1/2-y,1/2-z
1/2-x,1/2+y,1/2-z
1/2-x,1/2-y,1/2-z
1/2+x,1/2+y,1/2-z
1/2-x,1/2+y,1/2+z
1/2+x,1/2-y,1/2+z
loop_
_atom_site_type_symbol
_atom_site_label
_atom_site_fract_x
_atom_site_fract_y
_atom_site_fract_z
Si Si1 0.123739 0.099578 0.088418
Si Si2 0.500000 0.606551 0.081321
Si Si3 0.233321 0.398803 0.650349
Si Si4 0.329972 0.893328 0.312225
Si Si5 0.574758 0.737084 0.696665
Si Si6 0.230116 0.797285 0.411335
Si Si7 0.377218 0.606007 0.178481
O O1 0.191947 0.099667 0.130052
O O2 0.083977 0.182541 0.119660
O O3 0.095062 0.000000 0.101545
O O4 0.134714 0.108184 0.000000
O O5 0.500000 0.500000 0.073254
O O6 0.438105 0.626059 0.127925
O O7 0.500000 0.648314 0.000000
O O8 0.209902 0.500000 0.627919
O O9 0.213412 0.389411 0.736943
O O10 0.213194 0.305102 0.611790
O O11 0.394151 0.835445 0.299592
O O12 0.295619 0.834198 0.375881
O O13 0.337811 0.000000 0.328801
O O14 0.500000 0.739823 0.714941
O O15 0.613255 0.671887 0.752626
O O16 0.230082 0.803667 0.500000
O O17 0.181237 0.864520 0.371985
O O18 0.374678 0.500000 0.197607
#
# Coordination Sequence:
#
# PCOD9524824 Si02
#       7
#    16   8  16  16  16  16  16
#     4  10  21  37  59  90 124 152 185 239 303 362
#     4   9  18  34  54  80 120 160 192 231 282 346
#     4  10  20  38  64  90 119 156 196 241 298 358
#     4  11  24  42  62  86 119 157 201 252 298 351
#     4  12  24  40  62  85 113 158 210 250 295 351
#     4  12  23  38  63  94 126 157 194 243 303 364
#     4  11  22  37  58  89 123 159 199 238 290 360
#
# _framework density 9.1710759999999993
#
# number of rings (size 3 to 8) (size 9 to 14) (size 15 to 20)
#    0.000    1.154    3.846    3.231    0.000    5.538 
#    0.000    0.769    0.000    0.000    0.000    2.154 
#    0.000    4.923    0.000    0.000    0.000    0.000 
#
# Total GULP energy -289882.316781 kJ/mol
# GULP energy per Si atom -5574.659938 kJ/mol
# Density = 0.915020 g / cm^3
# Si number density = 9.171076 Si / 1000 Ang^3
#
#
#
# Elastic Constant Matrix: (Units=GPa)
#
#
# Indices 1 2 3 4 5 6 
#
# 1 37.6392 24.1636 27.6528 0.0000 0.0000 0.0000
# 2 24.1636 132.1360 39.0838 0.0000 0.0000 0.0000
# 3 27.6528 39.0838 98.0068 0.0000 0.0000 0.0000
# 4 0.0000 0.0000 0.0000 25.2520 0.0000 0.0000
# 5 0.0000 0.0000 0.0000 0.0000 777.2805 0.0000
# 6 0.0000 0.0000 0.0000 0.0000 0.0000 31.6450
#
#
#
# Elastic Compliance Matrix: (Units=1/GPa)
#
#
# Indices 1 2 3 4 5 6 
#
# 1 0.035265 -0.003975 -0.008365 0.000000 0.000000 0.000000
# 2 -0.003975 0.009028 -0.002479 0.000000 0.000000 0.000000
# 3 -0.008365 -0.002479 0.013552 0.000000 0.000000 0.000000
# 4 0.000000 0.000000 0.000000 0.039601 0.000000 0.000000
# 5 0.000000 0.000000 0.000000 0.000000 0.001287 0.000000
# 6 0.000000 0.000000 0.000000 0.000000 0.000000 0.031601
#
#
# Mechanical properties :
#
#
# Convention : Reuss Voigt Hill
#
# Bulk Modulus (GPa) = 35.45058 49.95361 42.70209
# Shear Modulus (GPa) = 29.52058 178.62763 104.07411
#
# Velocity S-wave (km/s) = 4.01613 9.87916 7.54079
# Velocity P-wave (km/s) = 6.39337 12.54687 9.95738
#
# Compressibility (1/GPa) = 0.02820829
#
# Stress axis : x y z
#
# Youngs Moduli (GPa) = 28.35642 110.76669 73.78917
#
# Poissons Ratio (x) = 0.44026 0.61726
# Poissons Ratio (y) = 0.11271 0.18291
# Poissons Ratio (z) = 0.23721 0.27457
#
# Static dielectric constant tensor:
#      x y z
#    x 1.540090 0.000000 0.000000 
#    y 0.000000 1.637210 0.000000 
#    z 0.000000 0.000000 1.670340 
# 
# From -- ./inp_files/47320.got.cif
#   From: 2010.05.17/outbox.ucp.g08.bks.cvg/sg71_24_cif.got.tgz:47320.got - 2010.06.11 16:29:00.
