data_PCOD9524524
_publ_section_title
;
Structure prediction by ZEFSAII (Michael W. Deem and Ramdas Pophale) SiO2 
 PCOD9524524
Probable space group: I M M M
;
_chemical_formula_sum "Si O2"
_cell_formula_units_Z 104
_cell_length_a 33.063779
_cell_length_b 7.289966
_cell_length_c 21.673533
_cell_angle_alpha 90.000000
_cell_angle_beta 90.000000
_cell_angle_gamma 90.000000
_cell_volume 5224.054555
_symmetry_space_group_name_H-M "I M M M"
_symmetry_group_IT_number 71
_symmetry_cell_setting 'orthorhombic'
loop_
_space_group_symop_operation_xyz
x,y,z
-x,-y,z
x,-y,-z
-x,y,-z
-x,-y,-z
x,y,-z
-x,y,z
x,-y,z
1/2+x,1/2+y,1/2+z
1/2-x,1/2-y,1/2+z
1/2+x,1/2-y,1/2-z
1/2-x,1/2+y,1/2-z
1/2-x,1/2-y,1/2-z
1/2+x,1/2+y,1/2-z
1/2-x,1/2+y,1/2+z
1/2+x,1/2-y,1/2+z
loop_
_atom_site_type_symbol
_atom_site_label
_atom_site_fract_x
_atom_site_fract_y
_atom_site_fract_z
Si Si1 0.932795 0.722346 0.161016
Si Si2 0.864211 0.276091 0.318717
Si Si3 0.657750 0.777002 0.319170
Si Si4 0.000000 0.275698 0.930889
Si Si5 0.455460 0.777219 0.798595
Si Si6 0.786279 0.716142 0.069623
Si Si7 0.808907 0.279533 0.568749
O O1 0.932923 0.500000 0.161617
O O2 0.886465 0.776744 0.156379
O O3 0.951502 0.775505 0.226687
O O4 0.960709 0.784213 0.106033
O O5 0.864650 0.500000 0.317529
O O6 0.844200 0.219504 0.253023
O O7 0.911503 0.219734 0.324763
O O8 0.837375 0.214376 0.376174
O O9 0.690356 0.712595 0.369686
O O10 0.660566 0.000000 0.317028
O O11 0.000000 0.500000 0.930685
O O12 0.000000 0.213165 0.000000
O O13 0.500000 0.717086 0.821960
O O14 0.455745 0.000000 0.802079
O O15 0.795802 0.500000 0.066928
O O16 0.738218 0.735739 0.078832
O O17 0.795578 0.789166 0.000000
O O18 0.820033 0.214042 0.500000
O O19 0.812048 0.500000 0.568227
#
# Coordination Sequence:
#
# PCOD9524524 Si02
#       7
#    16  16  16   8  16  16  16
#     4   8  12  18  26  39  62  92 123 153 183 215
#     4   8  14  23  36  55  74  97 129 158 189 230
#     4   8  14  23  35  51  72  97 127 162 192 222
#     4   9  14  16  20  34  58  90 126 156 180 213
#     4   8  11  17  31  47  66  92 121 152 182 218
#     4   9  17  28  41  57  77 103 133 160 190 229
#     4   9  17  29  43  57  76 102 129 159 196 235
#
# _framework density 19.907907000000002
#
# number of rings (size 3 to 8) (size 9 to 14) (size 15 to 20)
#    0.000    3.615    0.769    1.846    0.000    1.231 
#    0.000    3.077    0.000    0.462    0.000    3.231 
#    0.000    0.615    0.000    5.000    0.000   13.000 
#
# Total GULP energy -289613.685381 kJ/mol
# GULP energy per Si atom -5569.493950 kJ/mol
# Density = 1.986260 g / cm^3
# Si number density = 19.907907 Si / 1000 Ang^3
#
#
#
# Elastic Constant Matrix: (Units=GPa)
#
#
# Indices 1 2 3 4 5 6 
#
# 1 142.6236 -0.3561 120.3047 0.0000 0.0000 0.0000
# 2 -0.3561 82.5841 5.9077 0.0000 0.0000 0.0000
# 3 120.3047 5.9077 164.5924 0.0000 0.0000 0.0000
# 4 0.0000 0.0000 0.0000 -13.6795 0.0000 0.0000
# 5 0.0000 0.0000 0.0000 0.0000 13.8278 0.0000
# 6 0.0000 0.0000 0.0000 0.0000 0.0000 63.1520
#
#
#
# Elastic Compliance Matrix: (Units=1/GPa)
#
#
# Indices 1 2 3 4 5 6 
#
# 1 0.018374 0.001043 -0.013467 0.000000 0.000000 0.000000
# 2 0.001043 0.012199 -0.001200 0.000000 0.000000 0.000000
# 3 -0.013467 -0.001200 0.015962 0.000000 0.000000 0.000000
# 4 0.000000 0.000000 0.000000 -0.073102 0.000000 0.000000
# 5 0.000000 0.000000 0.000000 0.000000 0.072318 0.000000
# 6 0.000000 0.000000 0.000000 0.000000 0.000000 0.015835
#
#
# Mechanical properties :
#
#
# Convention : Reuss Voigt Hill
#
# Bulk Modulus (GPa) = 51.85092 71.27919 61.56506
# Shear Modulus (GPa) = 52.48525 30.25631 41.37078
#
# Velocity S-wave (km/s) = 5.14016 3.90271 4.56357
# Velocity P-wave (km/s) = 7.83136 7.49602 7.66553
#
# Compressibility (1/GPa) = 0.01928606
#
# Stress axis : x y z
#
# Youngs Moduli (GPa) = 54.42462 81.97255 62.64725
#
# Poissons Ratio (x) = -0.08547 0.84370
# Poissons Ratio (y) = -0.05674 0.07517
# Poissons Ratio (z) = 0.73296 0.09836
#
# Static dielectric constant tensor:
#      x y z
#    x 1.684370 0.000000 0.000000 
#    y 0.000000 1.858750 0.000000 
#    z 0.000000 0.000000 1.683630 
# 
# From -- ./inp_files/52433.got.cif
#   From: 2010.05.17/outbox.cif.g08.bks.cpg/sg71_27_cif.got.tgz:52433.got - 2010.06.03 16:22:01.
