data_PCOD9524055
_publ_section_title
;
Structure prediction by ZEFSAII (Michael W. Deem and Ramdas Pophale) SiO2 
 PCOD9524055
Probable space group: I M M M
;
_chemical_formula_sum "Si O2"
_cell_formula_units_Z 72
_cell_length_a 20.637315
_cell_length_b 8.471149
_cell_length_c 22.242328
_cell_angle_alpha 90.000000
_cell_angle_beta 90.000000
_cell_angle_gamma 90.000000
_cell_volume 3888.443157
_symmetry_space_group_name_H-M "I M M M"
_symmetry_group_IT_number 71
_symmetry_cell_setting 'orthorhombic'
loop_
_space_group_symop_operation_xyz
x,y,z
-x,-y,z
x,-y,-z
-x,y,-z
-x,-y,-z
x,y,-z
-x,y,z
x,-y,z
1/2+x,1/2+y,1/2+z
1/2-x,1/2-y,1/2+z
1/2+x,1/2-y,1/2-z
1/2-x,1/2+y,1/2-z
1/2-x,1/2-y,1/2-z
1/2+x,1/2+y,1/2-z
1/2-x,1/2+y,1/2+z
1/2+x,1/2-y,1/2+z
loop_
_atom_site_type_symbol
_atom_site_label
_atom_site_fract_x
_atom_site_fract_y
_atom_site_fract_z
Si Si1 0.387525 0.309639 0.568083
Si Si2 0.500000 0.811697 0.347270
Si Si3 0.000000 0.310825 0.290282
Si Si4 0.423588 0.678975 0.000000
Si Si5 0.762732 0.690399 0.569891
Si Si6 0.883620 0.810344 0.627927
O O1 0.404866 0.258537 0.500000
O O2 0.390853 0.500000 0.569008
O O3 0.437071 0.244525 0.616436
O O4 0.312526 0.266276 0.579002
O O5 0.500000 0.753502 0.278569
O O6 0.500000 0.000000 0.345599
O O7 0.065642 0.253767 0.323606
O O8 0.000000 0.500000 0.291365
O O9 0.406362 0.755615 0.937100
O O10 0.395483 0.500000 0.000000
O O11 0.500000 0.663100 0.000000
O O12 0.779087 0.738812 0.500000
O O13 0.767919 0.500000 0.571620
O O14 0.808365 0.762373 0.621784
O O15 0.889342 0.000000 0.629396
#
# Coordination Sequence:
#
# PCOD9524055 Si02
#       6
#    16   8   8   8  16  16
#     4   9  19  37  62  89 115 142 175 218 273 337
#     4  11  24  40  58  81 110 142 184 236 279 322
#     4  11  25  41  53  73 109 151 193 234 273 319
#     4   9  16  28  46  74 110 137 170 225 272 310
#     4   9  18  33  54  84 118 147 175 215 272 332
#     4  11  20  33  54  81 112 146 185 229 273 318
#
# _framework density 18.516407999999998
#
# number of rings (size 3 to 8) (size 9 to 14) (size 15 to 20)
#    0.000    2.111    2.222    3.000    0.000    4.444 
#    0.000    3.889    0.000    0.000    0.000    0.000 
#    0.000    0.000    0.000    0.000    0.000    0.000 
#
# Total GULP energy -200587.645782 kJ/mol
# GULP energy per Si atom -5571.879050 kJ/mol
# Density = 1.847426 g / cm^3
# Si number density = 18.516408 Si / 1000 Ang^3
#
#
#
# Elastic Constant Matrix: (Units=GPa)
#
#
# Indices 1 2 3 4 5 6 
#
# 1 133.8805 35.4185 95.0709 0.0000 0.0000 0.0000
# 2 35.4185 35.2379 32.0263 0.0000 0.0000 0.0000
# 3 95.0709 32.0263 148.1632 0.0000 0.0000 0.0000
# 4 0.0000 0.0000 0.0000 26.7570 0.0000 0.0000
# 5 0.0000 0.0000 0.0000 0.0000 -12.0641 0.0000
# 6 0.0000 0.0000 0.0000 0.0000 0.0000 26.9672
#
#
#
# Elastic Compliance Matrix: (Units=1/GPa)
#
#
# Indices 1 2 3 4 5 6 
#
# 1 0.015368 -0.008070 -0.008117 0.000000 0.000000 0.000000
# 2 -0.008070 0.039554 -0.003372 0.000000 0.000000 0.000000
# 3 -0.008117 -0.003372 0.012686 0.000000 0.000000 0.000000
# 4 0.000000 0.000000 0.000000 0.037373 0.000000 0.000000
# 5 0.000000 0.000000 0.000000 0.000000 -0.082891 0.000000
# 6 0.000000 0.000000 0.000000 0.000000 0.000000 0.037082
#
#
# Mechanical properties :
#
#
# Convention : Reuss Voigt Hill
#
# Bulk Modulus (GPa) = 35.09765 71.36811 53.23288
# Shear Modulus (GPa) = 46.38750 18.64977 32.51863
#
# Velocity S-wave (km/s) = 5.01064 3.17709 4.19526
# Velocity P-wave (km/s) = 7.24371 7.21702 7.23038
#
# Compressibility (1/GPa) = 0.02849193
#
# Stress axis : x y z
#
# Youngs Moduli (GPa) = 65.06965 25.28174 78.82455
#
# Poissons Ratio (x) = 0.20402 0.63981
# Poissons Ratio (y) = 0.52510 0.26578
# Poissons Ratio (z) = 0.52816 0.08524
#
# Static dielectric constant tensor:
#      x y z
#    x 1.690310 0.000000 0.000000 
#    y 0.000000 1.650950 0.000000 
#    z 0.000000 0.000000 1.640480 
# 
# From -- ./inp_files/54700.got.cif
#   From: 2010.05.17/outbox.cif.g08.bks.cpg/sg71_28_cif.got.tgz:54700.got - 2010.06.03 16:22:01.
