data_PCOD9524796
_publ_section_title
;
Structure prediction by ZEFSAII (Michael W. Deem and Ramdas Pophale) SiO2 
 PCOD9524796
Probable space group: I M M M
;
_chemical_formula_sum "Si O2"
_cell_formula_units_Z 52
_cell_length_a 21.000000
_cell_length_b 9.000000
_cell_length_c 30.000000
_cell_angle_alpha 90.000000
_cell_angle_beta 90.000000
_cell_angle_gamma 90.000000
_cell_volume 5670.000000
_symmetry_space_group_name_H-M "I M M M"
_symmetry_group_IT_number 71
_symmetry_cell_setting 'orthorhombic'
loop_
_space_group_symop_operation_xyz
x,y,z
-x,-y,z
x,-y,-z
-x,y,-z
-x,-y,-z
x,y,-z
-x,y,z
x,-y,z
1/2+x,1/2+y,1/2+z
1/2-x,1/2-y,1/2+z
1/2+x,1/2-y,1/2-z
1/2-x,1/2+y,1/2-z
1/2-x,1/2-y,1/2-z
1/2+x,1/2+y,1/2-z
1/2-x,1/2+y,1/2+z
1/2+x,1/2-y,1/2+z
loop_
_atom_site_type_symbol
_atom_site_label
_atom_site_fract_x
_atom_site_fract_y
_atom_site_fract_z
Si Si1 0.573874 0.678297 0.840784
Si Si2 0.071730 0.679428 0.500000
Si Si3 0.206128 0.322755 0.092116
Si Si4 0.213779 0.171829 0.185534
Si Si5 0.840007 0.320876 0.417100
Si Si6 0.570246 0.179818 0.447424
Si Si7 0.850965 0.326448 0.265725
O O1 0.500000 0.711491 0.852816
O O2 0.581019 0.500000 0.838766
O O3 0.625073 0.746664 0.875006
O O4 0.592818 0.753883 0.794174
O O5 0.067115 0.500000 0.500000
O O6 0.112848 0.718680 0.457231
O O7 0.000000 0.739855 0.500000
O O8 0.211543 0.500000 0.084908
O O9 0.208708 0.280406 0.143920
O O10 0.269387 0.241661 0.073689
O O11 0.137105 0.270611 0.073967
O O12 0.164952 0.229235 0.222593
O O13 0.285037 0.179324 0.205819
O O14 0.202363 0.000000 0.172972
O O15 0.836801 0.500000 0.411300
O O16 0.572777 0.213705 0.500000
O O17 0.500000 0.231735 0.430660
O O18 0.569862 0.000000 0.442977
O O19 0.862846 0.500000 0.255633
#
# Coordination Sequence:
#
# PCOD9524796 Si02
#       7
#    16   8  16  16  16  16  16
#     4  11  23  38  57  83 116 152 191 239 289 334
#     4   9  20  38  57  77 106 149 196 238 283 337
#     4  11  21  33  56  87 117 147 186 237 287 338
#     4  10  20  35  56  81 112 147 184 228 280 336
#     4  11  22  37  57  82 112 151 195 238 284 340
#     4   8  16  33  56  82 112 147 186 227 276 334
#     4  10  20  35  57  82 109 146 189 230 277 333
#
# _framework density 9.1710759999999993
#
# number of rings (size 3 to 8) (size 9 to 14) (size 15 to 20)
#    0.000    1.923    1.538    3.231    1.077    3.077 
#    0.000    1.923    0.000    7.385    0.000    4.308 
#    0.000    0.000    0.000    0.000    0.000    0.000 
#
# Total GULP energy -289980.766153 kJ/mol
# GULP energy per Si atom -5576.553195 kJ/mol
# Density = 0.915020 g / cm^3
# Si number density = 9.171076 Si / 1000 Ang^3
#
#
#
# Elastic Constant Matrix: (Units=GPa)
#
#
# Indices 1 2 3 4 5 6 
#
# 1 143.4173 33.2174 27.4215 0.0000 0.0000 0.0000
# 2 33.2174 61.2580 0.4943 0.0000 0.0000 0.0000
# 3 27.4215 0.4943 38.2065 0.0000 0.0000 0.0000
# 4 0.0000 0.0000 0.0000 15.5325 0.0000 0.0000
# 5 0.0000 0.0000 0.0000 0.0000 75.2181 0.0000
# 6 0.0000 0.0000 0.0000 0.0000 0.0000 26.0777
#
#
#
# Elastic Compliance Matrix: (Units=1/GPa)
#
#
# Indices 1 2 3 4 5 6 
#
# 1 0.009425 -0.005056 -0.006699 0.000000 0.000000 0.000000
# 2 -0.005056 0.019039 0.003383 0.000000 0.000000 0.000000
# 3 -0.006699 0.003383 0.030938 0.000000 0.000000 0.000000
# 4 0.000000 0.000000 0.000000 0.064381 0.000000 0.000000
# 5 0.000000 0.000000 0.000000 0.000000 0.013295 0.000000
# 6 0.000000 0.000000 0.000000 0.000000 0.000000 0.038347
#
#
# Mechanical properties :
#
#
# Convention : Reuss Voigt Hill
#
# Bulk Modulus (GPa) = 23.44316 40.57200 32.00758
# Shear Modulus (GPa) = 24.22625 35.48223 29.85424
#
# Velocity S-wave (km/s) = 3.63822 4.40303 4.03877
# Velocity P-wave (km/s) = 5.51884 6.92939 6.26395
#
# Compressibility (1/GPa) = 0.04265637
#
# Stress axis : x y z
#
# Youngs Moduli (GPa) = 106.10495 52.52372 32.32306
#
# Poissons Ratio (x) = 0.26559 0.21653
# Poissons Ratio (y) = 0.53652 -0.10934
# Poissons Ratio (z) = 0.71078 -0.17768
#
# Static dielectric constant tensor:
#      x y z
#    x 1.635610 0.000000 0.000000 
#    y 0.000000 1.608350 0.000000 
#    z 0.000000 0.000000 1.670550 
# 
# From -- ./inp_files/70759.got.cif
#   From: 2010.05.17/outbox.ucp.g08.bks.cvg/sg71_36_cif.got.tgz:70759.got - 2010.06.11 16:29:00.
