data_PCOD9524830
_publ_section_title
;
Structure prediction by ZEFSAII (Michael W. Deem and Ramdas Pophale) SiO2 
 PCOD9524830
Probable space group: I M M M
;
_chemical_formula_sum "Si O2"
_cell_formula_units_Z 48
_cell_length_a 24.000000
_cell_length_b 24.000000
_cell_length_c 9.000000
_cell_angle_alpha 90.000000
_cell_angle_beta 90.000000
_cell_angle_gamma 90.000000
_cell_volume 5184.000000
_symmetry_space_group_name_H-M "I M M M"
_symmetry_group_IT_number 71
_symmetry_cell_setting 'orthorhombic'
loop_
_space_group_symop_operation_xyz
x,y,z
-x,-y,z
x,-y,-z
-x,y,-z
-x,-y,-z
x,y,-z
-x,y,z
x,-y,z
1/2+x,1/2+y,1/2+z
1/2-x,1/2-y,1/2+z
1/2+x,1/2-y,1/2-z
1/2-x,1/2+y,1/2-z
1/2-x,1/2-y,1/2-z
1/2+x,1/2+y,1/2-z
1/2-x,1/2+y,1/2+z
1/2+x,1/2-y,1/2+z
loop_
_atom_site_type_symbol
_atom_site_label
_atom_site_fract_x
_atom_site_fract_y
_atom_site_fract_z
Si Si1 0.646734 0.437734 0.326201
Si Si2 0.101184 0.438083 0.319411
Si Si3 0.227596 0.413848 0.321640
Si Si4 0.399661 0.332814 0.825647
Si Si5 0.000000 0.765527 0.177830
Si Si6 0.770426 0.194899 0.675034
Si Si7 0.000000 0.357282 0.319056
O O1 0.647283 0.420102 0.500000
O O2 0.624779 0.500000 0.316869
O O3 0.712104 0.439386 0.276244
O O4 0.609617 0.395295 0.233767
O O5 0.102552 0.435787 0.500000
O O6 0.081639 0.500000 0.277058
O O7 0.165978 0.432199 0.269411
O O8 0.055841 0.391797 0.274578
O O9 0.226024 0.419355 0.500000
O O10 0.237566 0.352250 0.263819
O O11 0.445686 0.298807 0.735799
O O12 0.337094 0.309017 0.806621
O O13 0.413773 0.331745 0.000000
O O14 0.000000 0.703752 0.248097
O O15 0.000000 0.762619 0.000000
O O16 0.758651 0.190910 0.500000
O O17 0.750000 0.250000 0.750000
O O18 0.000000 0.352737 0.500000
#
# Coordination Sequence:
#
# PCOD9524830 Si02
#       7
#    16  16  16  16   8  16   8
#     4   9  17  32  56  86 119 151 184 227 280 338
#     4   9  17  31  54  83 113 148 192 237 277 324
#     4   9  17  30  51  81 114 149 189 229 276 332
#     4  10  22  40  60  83 112 148 189 236 285 334
#     4  12  26  43  62  82 110 148 191 239 289 346
#     4  10  21  35  54  80 112 147 186 232 282 336
#     4  10  21  36  56  81 111 148 193 242 285 331
#
# _framework density 9.2592590000000001
#
# number of rings (size 3 to 8) (size 9 to 14) (size 15 to 20)
#    0.000    2.333    0.000    2.500    2.333    5.333 
#    0.000    0.417    0.000    6.000    0.000    0.000 
#    0.000    0.000    0.000    0.000    0.000    0.000 
#
# Total GULP energy -267373.993142 kJ/mol
# GULP energy per Si atom -5570.291524 kJ/mol
# Density = 0.923818 g / cm^3
# Si number density = 9.259259 Si / 1000 Ang^3
#
#
#
# Elastic Constant Matrix: (Units=GPa)
#
#
# Indices 1 2 3 4 5 6 
#
# 1 86.1730 52.5937 26.2625 0.0000 0.0000 0.0000
# 2 52.5937 124.9064 24.8644 0.0000 0.0000 0.0000
# 3 26.2625 24.8644 9.2077 0.0000 0.0000 0.0000
# 4 0.0000 0.0000 0.0000 2.6579 0.0000 0.0000
# 5 0.0000 0.0000 0.0000 0.0000 22.6108 0.0000
# 6 0.0000 0.0000 0.0000 0.0000 0.0000 -85.4486
#
#
#
# Elastic Compliance Matrix: (Units=1/GPa)
#
#
# Indices 1 2 3 4 5 6 
#
# 1 0.183402 0.058184 -0.680224 0.000000 0.000000 0.000000
# 2 0.058184 0.035771 -0.262552 0.000000 0.000000 0.000000
# 3 -0.680224 -0.262552 2.757751 0.000000 0.000000 0.000000
# 4 0.000000 0.000000 0.000000 0.376236 0.000000 0.000000
# 5 0.000000 0.000000 0.000000 0.000000 0.044227 0.000000
# 6 0.000000 0.000000 0.000000 0.000000 0.000000 -0.011703
#
#
# Mechanical properties :
#
#
# Convention : Reuss Voigt Hill
#
# Bulk Modulus (GPa) = 0.82799 47.52539 24.17669
# Shear Modulus (GPa) = 0.89969 -4.26486 -1.68259
#
# Velocity S-wave (km/s) = 0.69777 -1.51922 -0.95424
# Velocity P-wave (km/s) = 1.04751 4.75837 3.44524
#
# Compressibility (1/GPa) = 1.20774054
#
# Stress axis : x y z
#
# Youngs Moduli (GPa) = 5.45251 27.95537 0.36261
#
# Poissons Ratio (x) = -1.62657 0.24666
# Poissons Ratio (y) = -0.31725 0.09521
# Poissons Ratio (z) = 3.70893 7.33973
#
# Static dielectric constant tensor:
#      x y z
#    x 1.637870 0.000000 0.000000 
#    y 0.000000 1.307450 0.000000 
#    z 0.000000 0.000000 1.630950 
# 
# From -- ./inp_files/12880.got.cif
#   From: 2010.05.17/outbox.ucp.g08.bks.cvg/sg71_7_cif.got.tgz:12880.got - 2010.06.11 16:29:00.
