data_PCOD9524232
_publ_section_title
;
Structure prediction by ZEFSAII (Michael W. Deem and Ramdas Pophale) SiO2 
 PCOD9524232
Probable space group: I M M M
;
_chemical_formula_sum "Si O2"
_cell_formula_units_Z 120
_cell_length_a 28.972970
_cell_length_b 7.668908
_cell_length_c 27.598856
_cell_angle_alpha 90.000000
_cell_angle_beta 90.000000
_cell_angle_gamma 90.000000
_cell_volume 6132.218557
_symmetry_space_group_name_H-M "I M M M"
_symmetry_group_IT_number 71
_symmetry_cell_setting 'orthorhombic'
loop_
_space_group_symop_operation_xyz
x,y,z
-x,-y,z
x,-y,-z
-x,y,-z
-x,-y,-z
x,y,-z
-x,y,z
x,-y,z
1/2+x,1/2+y,1/2+z
1/2-x,1/2-y,1/2+z
1/2+x,1/2-y,1/2-z
1/2-x,1/2+y,1/2-z
1/2-x,1/2-y,1/2-z
1/2+x,1/2+y,1/2-z
1/2-x,1/2+y,1/2+z
1/2+x,1/2-y,1/2+z
loop_
_atom_site_type_symbol
_atom_site_label
_atom_site_fract_x
_atom_site_fract_y
_atom_site_fract_z
Si Si1 0.948052 0.290343 0.211442
Si Si2 0.445526 0.786777 0.500000
Si Si3 0.217223 0.707941 0.447743
Si Si4 0.310156 0.791881 0.655531
Si Si5 0.294776 0.291539 0.156346
Si Si6 0.443754 0.794845 0.605163
Si Si7 0.142746 0.793289 0.256691
Si Si8 0.675441 0.797272 0.447175
O O1 0.949880 0.500000 0.206624
O O2 0.932327 0.221471 0.158218
O O3 0.911035 0.250207 0.252330
O O4 0.000000 0.228245 0.221005
O O5 0.500000 0.740990 0.500000
O O6 0.427089 0.727027 0.552631
O O7 0.443526 0.000000 0.500000
O O8 0.196509 0.756274 0.500000
O O9 0.223963 0.500000 0.447025
O O10 0.190837 0.757707 0.399024
O O11 0.268333 0.791123 0.445869
O O12 0.257787 0.722306 0.660643
O O13 0.335357 0.765515 0.705965
O O14 0.335022 0.723481 0.606477
O O15 0.307361 0.000000 0.647708
O O16 0.291901 0.500000 0.162599
O O17 0.328799 0.221475 0.197583
O O18 0.500000 0.787316 0.603583
O O19 0.431183 0.000000 0.605992
O O20 0.146758 0.000000 0.258364
O O21 0.662878 0.719827 0.500000
O O22 0.660945 0.000000 0.448980
#
# Coordination Sequence:
#
# PCOD9524232 Si02
#       8
#    16   8  16  16  16  16  16  16
#     4   9  18  33  51  68  87 115 152 193 238 286
#     4   7   8  12  28  56  83  99 117 159 219 269
#     4   9  16  25  41  68  97 123 153 187 224 267
#     4   9  17  30  48  68  92 123 158 195 236 278
#     4   9  19  33  47  67  95 128 162 193 227 271
#     4   7  10  18  35  59  82 101 126 167 219 270
#     4  11  22  33  47  68  94 123 158 196 236 282
#     4   8  14  26  44  64  88 121 159 197 235 276
#
# _framework density 19.568773
#
# number of rings (size 3 to 8) (size 9 to 14) (size 15 to 20)
#    0.000    3.267    0.000    3.600    0.000    4.267 
#    0.000    0.000    1.467    0.000    0.000    0.000 
#    0.000    3.200    0.000    5.867    0.000    4.400 
#
# Total GULP energy -334454.748119 kJ/mol
# GULP energy per Si atom -5574.245802 kJ/mol
# Density = 1.952423 g / cm^3
# Si number density = 19.568773 Si / 1000 Ang^3
#
#
#
# Elastic Constant Matrix: (Units=GPa)
#
#
# Indices 1 2 3 4 5 6 
#
# 1 80.0814 5.0299 81.2508 0.0000 0.0000 0.0000
# 2 5.0299 35.7060 -0.4154 0.0000 0.0000 0.0000
# 3 81.2508 -0.4154 157.9866 0.0000 0.0000 0.0000
# 4 0.0000 0.0000 0.0000 11.8651 0.0000 0.0000
# 5 0.0000 0.0000 0.0000 0.0000 35.9362 0.0000
# 6 0.0000 0.0000 0.0000 0.0000 0.0000 9.2539
#
#
#
# Elastic Compliance Matrix: (Units=1/GPa)
#
#
# Indices 1 2 3 4 5 6 
#
# 1 0.026649 -0.003914 -0.013716 0.000000 0.000000 0.000000
# 2 -0.003914 0.028582 0.002088 0.000000 0.000000 0.000000
# 3 -0.013716 0.002088 0.013389 0.000000 0.000000 0.000000
# 4 0.000000 0.000000 0.000000 0.084281 0.000000 0.000000
# 5 0.000000 0.000000 0.000000 0.000000 0.027827 0.000000
# 6 0.000000 0.000000 0.000000 0.000000 0.000000 0.108062
#
#
# Mechanical properties :
#
#
# Convention : Reuss Voigt Hill
#
# Bulk Modulus (GPa) = 26.64013 49.50051 38.07032
# Shear Modulus (GPa) = 15.04280 23.93830 19.49055
#
# Velocity S-wave (km/s) = 2.77558 3.50135 3.15937
# Velocity P-wave (km/s) = 4.89029 6.45729 5.72763
#
# Compressibility (1/GPa) = 0.03753735
#
# Stress axis : x y z
#
# Youngs Moduli (GPa) = 37.52497 34.98695 74.68884
#
# Poissons Ratio (x) = 0.13693 1.02440
# Poissons Ratio (y) = 0.14686 -0.15594
# Poissons Ratio (z) = 0.51467 -0.07305
#
# Static dielectric constant tensor:
#      x y z
#    x 1.715920 0.000000 0.000000 
#    y 0.000000 1.787930 0.000000 
#    z 0.000000 0.000000 1.755780 
# 
# From -- ./inp_files/67173.got.cif
#   From: 2010.05.17/outbox.cif.g08.bks.cpg/sg71_34_cif.got.tgz:67173.got - 2010.06.03 16:22:01.
