data_PCOD9524016
_publ_section_title
;
Structure prediction by ZEFSAII (Michael W. Deem and Ramdas Pophale) SiO2 
 PCOD9524016
Probable space group: I M M M
;
_chemical_formula_sum "Si O2"
_cell_formula_units_Z 96
_cell_length_a 27.297520
_cell_length_b 15.447685
_cell_length_c 13.508032
_cell_angle_alpha 90.000000
_cell_angle_beta 90.000000
_cell_angle_gamma 90.000000
_cell_volume 5696.114080
_symmetry_space_group_name_H-M "I M M M"
_symmetry_group_IT_number 71
_symmetry_cell_setting 'orthorhombic'
loop_
_space_group_symop_operation_xyz
x,y,z
-x,-y,z
x,-y,-z
-x,y,-z
-x,-y,-z
x,y,-z
-x,y,z
x,-y,z
1/2+x,1/2+y,1/2+z
1/2-x,1/2-y,1/2+z
1/2+x,1/2-y,1/2-z
1/2-x,1/2+y,1/2-z
1/2-x,1/2-y,1/2-z
1/2+x,1/2+y,1/2-z
1/2-x,1/2+y,1/2+z
1/2+x,1/2-y,1/2+z
loop_
_atom_site_type_symbol
_atom_site_label
_atom_site_fract_x
_atom_site_fract_y
_atom_site_fract_z
Si Si1 0.413565 0.907396 0.882318
Si Si2 0.350723 0.338299 0.230648
Si Si3 0.690709 0.000000 0.614366
Si Si4 0.691983 0.500000 0.888366
Si Si5 0.684478 0.140978 0.219102
Si Si6 0.055985 0.217022 0.381913
Si Si7 0.714274 0.396421 0.388950
O O1 0.356392 0.897497 0.854962
O O2 0.439756 0.818652 0.852376
O O3 0.431360 0.000000 0.841598
O O4 0.418994 0.910402 0.000000
O O5 0.325251 0.413183 0.166044
O O6 0.327557 0.242577 0.222644
O O7 0.405510 0.331275 0.188216
O O8 0.336776 0.365770 0.341693
O O9 0.749515 0.000000 0.609867
O O10 0.677850 0.085456 0.679734
O O11 0.672592 0.000000 0.500000
O O12 0.672778 0.500000 0.000000
O O13 0.739274 0.129902 0.177998
O O14 0.069352 0.210058 0.500000
O O15 0.000000 0.188285 0.371729
O O16 0.721165 0.362950 0.500000
O O17 0.714387 0.500000 0.390560
#
# Coordination Sequence:
#
# PCOD9524016 Si02
#       7
#    16  16   8   8  16  16  16
#     4   9  16  27  49  76 106 140 170 204 252 308
#     4  11  21  36  55  76 104 142 177 218 266 315
#     4  11  22  34  50  77 115 149 177 216 254 305
#     4  11  22  36  51  74 107 143 181 218 263 314
#     4  11  19  34  51  76 112 146 177 207 251 312
#     4   9  19  34  52  77 104 131 169 216 266 321
#     4  11  21  34  53  76 104 136 175 218 255 301
#
# _framework density 16.853596
#
# number of rings (size 3 to 8) (size 9 to 14) (size 15 to 20)
#    0.000    1.667    4.167    1.500    0.000    4.333 
#    0.000    2.083    0.000    2.000    0.000    1.167 
#    0.000    3.333    0.000    0.000    0.000    0.000 
#
# Total GULP energy -267325.488054 kJ/mol
# GULP energy per Si atom -5569.281001 kJ/mol
# Density = 1.681524 g / cm^3
# Si number density = 16.853596 Si / 1000 Ang^3
#
#
#
# Elastic Constant Matrix: (Units=GPa)
#
#
# Indices 1 2 3 4 5 6 
#
# 1 70.8450 7.1811 17.3044 0.0000 0.0000 0.0000
# 2 7.1811 79.2089 18.4915 0.0000 0.0000 0.0000
# 3 17.3044 18.4915 66.6877 0.0000 0.0000 0.0000
# 4 0.0000 0.0000 0.0000 20.2188 0.0000 0.0000
# 5 0.0000 0.0000 0.0000 0.0000 21.0232 0.0000
# 6 0.0000 0.0000 0.0000 0.0000 0.0000 84.7373
#
#
#
# Elastic Compliance Matrix: (Units=1/GPa)
#
#
# Indices 1 2 3 4 5 6 
#
# 1 0.015088 -0.000485 -0.003781 0.000000 0.000000 0.000000
# 2 -0.000485 0.013514 -0.003621 0.000000 0.000000 0.000000
# 3 -0.003781 -0.003621 0.016980 0.000000 0.000000 0.000000
# 4 0.000000 0.000000 0.000000 0.049459 0.000000 0.000000
# 5 0.000000 0.000000 0.000000 0.000000 0.047566 0.000000
# 6 0.000000 0.000000 0.000000 0.000000 0.000000 0.011801
#
#
# Mechanical properties :
#
#
# Convention : Reuss Voigt Hill
#
# Bulk Modulus (GPa) = 33.54781 33.63285 33.59033
# Shear Modulus (GPa) = 27.75933 36.78017 32.26975
#
# Velocity S-wave (km/s) = 4.06283 4.67661 4.38049
# Velocity P-wave (km/s) = 6.47746 7.01143 6.74973
#
# Compressibility (1/GPa) = 0.02980821
#
# Stress axis : x y z
#
# Youngs Moduli (GPa) = 66.27817 73.99589 58.89142
#
# Poissons Ratio (x) = 0.03591 0.22264
# Poissons Ratio (y) = 0.03217 0.21327
# Poissons Ratio (z) = 0.25057 0.26797
#
# Static dielectric constant tensor:
#      x y z
#    x 1.566100 0.000000 0.000000 
#    y 0.000000 1.642040 0.000000 
#    z 0.000000 0.000000 1.598000 
# 
# From -- ./inp_files/40300.got.cif
#   From: 2010.05.17/outbox.cif.g08.bks.cpg/sg71_21_cif.got.tgz:40300.got - 2010.06.03 16:22:01.
