data_PCOD9524117
_publ_section_title
;
Structure prediction by ZEFSAII (Michael W. Deem and Ramdas Pophale) SiO2 
 PCOD9524117
Probable space group: I M M M
;
_chemical_formula_sum "Si O2"
_cell_formula_units_Z 104
_cell_length_a 24.427306
_cell_length_b 29.134465
_cell_length_c 9.162388
_cell_angle_alpha 90.000000
_cell_angle_beta 90.000000
_cell_angle_gamma 90.000000
_cell_volume 6520.656147
_symmetry_space_group_name_H-M "I M M M"
_symmetry_group_IT_number 71
_symmetry_cell_setting 'orthorhombic'
loop_
_space_group_symop_operation_xyz
x,y,z
-x,-y,z
x,-y,-z
-x,y,-z
-x,-y,-z
x,y,-z
-x,y,z
x,-y,z
1/2+x,1/2+y,1/2+z
1/2-x,1/2-y,1/2+z
1/2+x,1/2-y,1/2-z
1/2-x,1/2+y,1/2-z
1/2-x,1/2-y,1/2-z
1/2+x,1/2+y,1/2-z
1/2-x,1/2+y,1/2+z
1/2+x,1/2-y,1/2+z
loop_
_atom_site_type_symbol
_atom_site_label
_atom_site_fract_x
_atom_site_fract_y
_atom_site_fract_z
Si Si1 0.565616 0.500000 0.327715
Si Si2 0.935960 0.626519 0.823524
Si Si3 0.566506 0.228620 0.668369
Si Si4 0.436312 0.678947 0.174943
Si Si5 0.875230 0.085609 0.675165
Si Si6 0.730979 0.554836 0.672112
Si Si7 0.142274 0.553318 0.675383
O O1 0.500000 0.500000 0.313254
O O2 0.579632 0.500000 0.500000
O O3 0.590897 0.455228 0.251239
O O4 0.917365 0.677921 0.777776
O O5 0.898719 0.587625 0.753877
O O6 0.000000 0.620552 0.783630
O O7 0.933063 0.625149 0.000000
O O8 0.583435 0.233512 0.500000
O O9 0.500000 0.227916 0.670735
O O10 0.583834 0.273189 0.757646
O O11 0.500000 0.672083 0.219145
O O12 0.401412 0.634500 0.216663
O O13 0.435255 0.682655 0.000000
O O14 0.878073 0.080643 0.500000
O O15 0.813326 0.080776 0.731475
O O16 0.722924 0.564743 0.500000
O O17 0.722509 0.500000 0.690829
O O18 0.794220 0.564299 0.709730
O O19 0.136427 0.556638 0.500000
O O20 0.132373 0.500000 0.715556
#
# Coordination Sequence:
#
# PCOD9524117 Si02
#       7
#     8  16  16  16  16  16  16
#     4  11  23  35  47  67  97 133 168 201 244 297
#     4   9  18  32  50  75 105 132 158 194 241 288
#     4   8  15  29  48  69  94 125 161 197 234 284
#     4   9  18  31  46  68  98 127 156 196 246 293
#     4  11  21  32  49  72  97 126 162 206 251 295
#     4   9  18  34  52  68  92 126 166 207 244 287
#     4   9  19  34  51  73 100 131 164 200 239 282
#
# _framework density 15.949315
#
# number of rings (size 3 to 8) (size 9 to 14) (size 15 to 20)
#    0.000    2.692    0.769    3.000    0.000    4.615 
#    0.000    6.154    0.000    0.923    0.000    0.000 
#    0.000    0.000    0.000    0.000    0.000    0.000 
#
# Total GULP energy -289825.544479 kJ/mol
# GULP energy per Si atom -5573.568163 kJ/mol
# Density = 1.591301 g / cm^3
# Si number density = 15.949315 Si / 1000 Ang^3
#
#
#
# Elastic Constant Matrix: (Units=GPa)
#
#
# Indices 1 2 3 4 5 6 
#
# 1 85.1518 82.5968 44.7086 0.0000 0.0000 0.0000
# 2 82.5968 154.2004 58.9781 0.0000 0.0000 0.0000
# 3 44.7086 58.9781 42.1291 0.0000 0.0000 0.0000
# 4 0.0000 0.0000 0.0000 31.3610 0.0000 0.0000
# 5 0.0000 0.0000 0.0000 0.0000 27.2153 0.0000
# 6 0.0000 0.0000 0.0000 0.0000 0.0000 7.2185
#
#
#
# Elastic Compliance Matrix: (Units=1/GPa)
#
#
# Indices 1 2 3 4 5 6 
#
# 1 0.031135 -0.008696 -0.020868 0.000000 0.000000 0.000000
# 2 -0.008696 0.016389 -0.013714 0.000000 0.000000 0.000000
# 3 -0.020868 -0.013714 0.065081 0.000000 0.000000 0.000000
# 4 0.000000 0.000000 0.000000 0.031887 0.000000 0.000000
# 5 0.000000 0.000000 0.000000 0.000000 0.036744 0.000000
# 6 0.000000 0.000000 0.000000 0.000000 0.000000 0.138532
#
#
# Mechanical properties :
#
#
# Convention : Reuss Voigt Hill
#
# Bulk Modulus (GPa) = 38.38961 72.67202 55.53082
# Shear Modulus (GPa) = 12.04798 19.50549 15.77674
#
# Velocity S-wave (km/s) = 2.75142 3.50089 3.14853
# Velocity P-wave (km/s) = 5.84942 7.87432 6.93616
#
# Compressibility (1/GPa) = 0.02604871
#
# Stress axis : x y z
#
# Youngs Moduli (GPa) = 32.11774 61.01837 15.36545
#
# Poissons Ratio (x) = 0.53062 0.32064
# Poissons Ratio (y) = 0.27930 0.21073
# Poissons Ratio (z) = 0.67022 0.83682
#
# Static dielectric constant tensor:
#      x y z
#    x 1.523250 0.000000 0.000000 
#    y 0.000000 1.524490 0.000000 
#    z 0.000000 0.000000 1.532280 
# 
# From -- ./inp_files/15530.got.cif
#   From: 2010.05.17/outbox.cif.g08.bks.cpg/sg71_8_cif.got.tgz:15530.got - 2010.06.03 16:22:01.
