data_PCOD9524616
_publ_section_title
;
Structure prediction by ZEFSAII (Michael W. Deem and Ramdas Pophale) SiO2 
 PCOD9524616
Probable space group: I M M M
;
_chemical_formula_sum "Si O2"
_cell_formula_units_Z 72
_cell_length_a 24.041903
_cell_length_b 18.600861
_cell_length_c 7.345420
_cell_angle_alpha 90.000000
_cell_angle_beta 90.000000
_cell_angle_gamma 90.000000
_cell_volume 3284.872528
_symmetry_space_group_name_H-M "I M M M"
_symmetry_group_IT_number 71
_symmetry_cell_setting 'orthorhombic'
loop_
_space_group_symop_operation_xyz
x,y,z
-x,-y,z
x,-y,-z
-x,y,-z
-x,-y,-z
x,y,-z
-x,y,z
x,-y,z
1/2+x,1/2+y,1/2+z
1/2-x,1/2-y,1/2+z
1/2+x,1/2-y,1/2-z
1/2-x,1/2+y,1/2-z
1/2-x,1/2-y,1/2-z
1/2+x,1/2+y,1/2-z
1/2-x,1/2+y,1/2+z
1/2+x,1/2-y,1/2+z
loop_
_atom_site_type_symbol
_atom_site_label
_atom_site_fract_x
_atom_site_fract_y
_atom_site_fract_z
Si Si1 0.064196 0.500000 0.778114
Si Si2 0.874867 0.919115 0.787023
Si Si3 0.632724 0.141351 0.722113
Si Si4 0.248118 0.582746 0.780781
Si Si5 0.436373 0.720693 0.277289
O O1 0.097010 0.428383 0.722262
O O2 0.000000 0.500000 0.719885
O O3 0.064085 0.500000 0.000000
O O4 0.810194 0.896416 0.774950
O O5 0.913197 0.855981 0.712736
O O6 0.879702 0.000000 0.709456
O O7 0.888644 0.924815 0.000000
O O8 0.632788 0.141576 0.500000
O O9 0.696445 0.130592 0.781183
O O10 0.603125 0.214202 0.781486
O O11 0.239016 0.500000 0.721370
O O12 0.247483 0.582513 0.000000
O O13 0.435226 0.720329 0.500000
O O14 0.500000 0.732579 0.223253
#
# Coordination Sequence:
#
# PCOD9524616 Si02
#       5
#     8  16  16  16  16
#     4   9  14  20  34  58  89 121 146 171 212 264
#     4   9  18  31  46  65  89 117 150 186 221 260
#     4   9  15  24  39  62  90 118 145 176 217 264
#     4   9  16  28  46  67  92 118 145 179 219 263
#     4   9  17  28  42  62  88 116 147 185 225 262
#
# _framework density 21.918658000000001
#
# number of rings (size 3 to 8) (size 9 to 14) (size 15 to 20)
#    0.000    3.000    1.111    0.667    0.000    4.000 
#    0.000    2.222    0.000    0.667    0.000    3.111 
#    0.000    3.556    0.000    0.000    0.000    0.000 
#
# Total GULP energy -201021.713745 kJ/mol
# GULP energy per Si atom -5583.936493 kJ/mol
# Density = 2.186877 g / cm^3
# Si number density = 21.918658 Si / 1000 Ang^3
#
#
#
# Elastic Constant Matrix: (Units=GPa)
#
#
# Indices 1 2 3 4 5 6 
#
# 1 28.3954 33.2247 -7.5975 0.0000 0.0000 0.0000
# 2 33.2247 106.5056 3.3071 0.0000 0.0000 0.0000
# 3 -7.5975 3.3071 81.8592 0.0000 0.0000 0.0000
# 4 0.0000 0.0000 0.0000 -34.8021 0.0000 0.0000
# 5 0.0000 0.0000 0.0000 0.0000 10.6176 0.0000
# 6 0.0000 0.0000 0.0000 0.0000 0.0000 38.7683
#
#
#
# Elastic Compliance Matrix: (Units=1/GPa)
#
#
# Indices 1 2 3 4 5 6 
#
# 1 0.058411 -0.018413 0.006165 0.000000 0.000000 0.000000
# 2 -0.018413 0.015205 -0.002323 0.000000 0.000000 0.000000
# 3 0.006165 -0.002323 0.012882 0.000000 0.000000 0.000000
# 4 0.000000 0.000000 0.000000 -0.028734 0.000000 0.000000
# 5 0.000000 0.000000 0.000000 0.000000 0.094184 0.000000
# 6 0.000000 0.000000 0.000000 0.000000 0.000000 0.025794
#
#
# Mechanical properties :
#
#
# Convention : Reuss Voigt Hill
#
# Bulk Modulus (GPa) = 17.43482 30.51430 23.97456
# Shear Modulus (GPa) = 22.12357 15.43849 18.78103
#
# Velocity S-wave (km/s) = 3.18047 2.65685 2.93038
# Velocity P-wave (km/s) = 4.63236 4.83359 4.73405
#
# Compressibility (1/GPa) = 0.05735650
#
# Stress axis : x y z
#
# Youngs Moduli (GPa) = 17.12005 65.76669 77.62676
#
# Poissons Ratio (x) = 1.21096 -0.47858
# Poissons Ratio (y) = 0.31523 0.18035
# Poissons Ratio (z) = -0.10555 0.15279
#
# Static dielectric constant tensor:
#      x y z
#    x 1.751490 0.000000 0.000000 
#    y 0.000000 1.769010 0.000000 
#    z 0.000000 0.000000 1.887930 
# 
# From -- ./inp_files/7932.got.cif
#   From: 2010.05.17/outbox.cif.g08.bks.cpg/sg71_4_cif.got.tgz:7932.got - 2010.06.03 16:22:01.
