data_PCOD9524458
_publ_section_title
;
Structure prediction by ZEFSAII (Michael W. Deem and Ramdas Pophale) SiO2 
 PCOD9524458
Probable space group: I M M M
;
_chemical_formula_sum "Si O2"
_cell_formula_units_Z 108
_cell_length_a 14.465003
_cell_length_b 15.285621
_cell_length_c 23.776690
_cell_angle_alpha 90.000000
_cell_angle_beta 90.000000
_cell_angle_gamma 90.000000
_cell_volume 5257.181982
_symmetry_space_group_name_H-M "I M M M"
_symmetry_group_IT_number 71
_symmetry_cell_setting 'orthorhombic'
loop_
_space_group_symop_operation_xyz
x,y,z
-x,-y,z
x,-y,-z
-x,y,-z
-x,-y,-z
x,y,-z
-x,y,z
x,-y,z
1/2+x,1/2+y,1/2+z
1/2-x,1/2-y,1/2+z
1/2+x,1/2-y,1/2-z
1/2-x,1/2+y,1/2-z
1/2-x,1/2-y,1/2-z
1/2+x,1/2+y,1/2-z
1/2-x,1/2+y,1/2+z
1/2+x,1/2-y,1/2+z
loop_
_atom_site_type_symbol
_atom_site_label
_atom_site_fract_x
_atom_site_fract_y
_atom_site_fract_z
Si Si1 0.892108 0.605856 0.665402
Si Si2 0.610924 0.603454 0.273555
Si Si3 0.668330 0.000000 0.500000
Si Si4 0.290235 0.145752 0.406362
Si Si5 0.895388 0.000000 0.933348
Si Si6 0.396047 0.105280 0.706844
Si Si7 0.293243 0.335203 0.382410
Si Si8 0.895531 0.894115 0.355039
O O1 0.882106 0.500000 0.661613
O O2 0.871171 0.633159 0.729999
O O3 0.816031 0.649736 0.626177
O O4 0.000000 0.626224 0.654298
O O5 0.500000 0.607499 0.280755
O O6 0.638448 0.500000 0.280205
O O7 0.661651 0.661337 0.319911
O O8 0.629723 0.630639 0.209181
O O9 0.671928 0.076813 0.549224
O O10 0.330125 0.126776 0.344280
O O11 0.312733 0.246724 0.415755
O O12 0.179959 0.135352 0.399584
O O13 0.840663 0.084050 0.912755
O O14 0.000000 0.000000 0.909862
O O15 0.900491 0.000000 0.000000
O O16 0.500000 0.137952 0.694679
O O17 0.399898 0.000000 0.709912
O O18 0.000000 0.864169 0.366446
O O19 0.895903 0.000000 0.355157
#
# Coordination Sequence:
#
# PCOD9524458 Si02
#       8
#    16  16   4  16   8  16  16  16
#     4   9  18  35  62  98 137 170 196 237 310 396
#     4   9  17  32  59  96 135 164 195 247 319 398
#     4  12  28  52  64  80 124 170 222 296 310 336
#     4  12  25  41  64  87 120 167 225 274 319 359
#     4  11  26  48  68  90 124 158 197 257 314 373
#     4   9  18  36  61  89 126 169 208 251 312 384
#     4  12  23  37  67  97 124 166 208 252 317 384
#     4   9  18  36  62  92 128 170 208 256 323 388
#
# _framework density 20.543326
#
# number of rings (size 3 to 8) (size 9 to 14) (size 15 to 20)
#    0.000    1.852    2.963    3.111    1.037    6.519 
#    0.000    4.444    0.000    0.889    0.000    0.000 
#    0.000    0.000    0.000    0.000    0.000    0.000 
#
# Total GULP energy -301206.042053 kJ/mol
# GULP energy per Si atom -5577.889668 kJ/mol
# Density = 2.049657 g / cm^3
# Si number density = 20.543326 Si / 1000 Ang^3
#
#
#
# Elastic Constant Matrix: (Units=GPa)
#
#
# Indices 1 2 3 4 5 6 
#
# 1 68.4399 23.5801 26.4326 0.0000 0.0000 0.0000
# 2 23.5801 111.6246 26.6493 0.0000 0.0000 0.0000
# 3 26.4326 26.6493 31.0754 0.0000 0.0000 0.0000
# 4 0.0000 0.0000 0.0000 -9.0208 0.0000 0.0000
# 5 0.0000 0.0000 0.0000 0.0000 4.9125 0.0000
# 6 0.0000 0.0000 0.0000 0.0000 0.0000 491.7941
#
#
#
# Elastic Compliance Matrix: (Units=1/GPa)
#
#
# Indices 1 2 3 4 5 6 
#
# 1 0.021764 -0.000224 -0.018321 0.000000 0.000000 0.000000
# 2 -0.000224 0.011267 -0.009472 0.000000 0.000000 0.000000
# 3 -0.018321 -0.009472 0.055886 0.000000 0.000000 0.000000
# 4 0.000000 0.000000 0.000000 -0.110855 0.000000 0.000000
# 5 0.000000 0.000000 0.000000 0.000000 0.203562 0.000000
# 6 0.000000 0.000000 0.000000 0.000000 0.000000 0.002033
#
#
# Mechanical properties :
#
#
# Convention : Reuss Voigt Hill
#
# Bulk Modulus (GPa) = 30.40935 40.49600 35.45267
# Shear Modulus (GPa) = 19.94790 106.50234 63.22512
#
# Velocity S-wave (km/s) = 3.11949 7.20801 5.55367
# Velocity P-wave (km/s) = 5.27349 9.43552 7.64326
#
# Compressibility (1/GPa) = 0.03288463
#
# Stress axis : x y z
#
# Youngs Moduli (GPa) = 45.94702 88.75288 17.89347
#
# Poissons Ratio (x) = 0.01985 0.32782
# Poissons Ratio (y) = 0.01028 0.16949
# Poissons Ratio (z) = 0.84178 0.84068
#
# Static dielectric constant tensor:
#      x y z
#    x 1.763530 0.000000 0.000000 
#    y 0.000000 1.802290 0.000000 
#    z 0.000000 0.000000 1.705950 
# 
# From -- ./inp_files/59960.got.cif
#   From: 2010.05.17/outbox.cif.g08.bks.cpg/sg71_30_cif.got.tgz:59960.got - 2010.06.03 16:22:01.
