data_PCOD9524058
_publ_section_title
;
Structure prediction by ZEFSAII (Michael W. Deem and Ramdas Pophale) SiO2 
 PCOD9524058
Probable space group: I M M M
;
_chemical_formula_sum "Si O2"
_cell_formula_units_Z 104
_cell_length_a 28.498080
_cell_length_b 16.904826
_cell_length_c 13.810083
_cell_angle_alpha 90.000000
_cell_angle_beta 90.000000
_cell_angle_gamma 90.000000
_cell_volume 6653.077692
_symmetry_space_group_name_H-M "I M M M"
_symmetry_group_IT_number 71
_symmetry_cell_setting 'orthorhombic'
loop_
_space_group_symop_operation_xyz
x,y,z
-x,-y,z
x,-y,-z
-x,y,-z
-x,-y,-z
x,y,-z
-x,y,z
x,-y,z
1/2+x,1/2+y,1/2+z
1/2-x,1/2-y,1/2+z
1/2+x,1/2-y,1/2-z
1/2-x,1/2+y,1/2-z
1/2-x,1/2-y,1/2-z
1/2+x,1/2+y,1/2-z
1/2-x,1/2+y,1/2+z
1/2+x,1/2-y,1/2+z
loop_
_atom_site_type_symbol
_atom_site_label
_atom_site_fract_x
_atom_site_fract_y
_atom_site_fract_z
Si Si1 0.669398 0.404999 0.891576
Si Si2 0.639103 0.192255 0.616506
Si Si3 0.269932 0.592238 0.606349
Si Si4 0.551015 0.091269 0.382428
Si Si5 0.444005 0.500000 0.616947
Si Si6 0.871291 0.870052 0.188895
Si Si7 0.727755 0.904002 0.693723
O O1 0.663584 0.500000 0.889730
O O2 0.637975 0.372976 0.803977
O O3 0.724069 0.390764 0.865533
O O4 0.658818 0.376414 0.000000
O O5 0.640737 0.193947 0.500000
O O6 0.595102 0.140284 0.650587
O O7 0.629408 0.280155 0.653662
O O8 0.685891 0.148747 0.653056
O O9 0.264091 0.629422 0.500000
O O10 0.257552 0.500000 0.599328
O O11 0.324211 0.595140 0.638635
O O12 0.239549 0.622602 0.696228
O O13 0.551535 0.092293 0.500000
O O14 0.500000 0.122165 0.351686
O O15 0.554906 0.000000 0.353168
O O16 0.500000 0.500000 0.640420
O O17 0.439946 0.500000 0.500000
O O18 0.415610 0.423477 0.657654
O O19 0.718304 0.000000 0.690429
#
# Coordination Sequence:
#
# PCOD9524058 Si02
#       7
#    16  16  16  16   8  16  16
#     4   9  17  32  54  72  93 129 167 201 236 287
#     4  11  21  29  44  70 102 131 157 201 247 289
#     4   9  16  29  50  68  93 133 168 198 235 291
#     4   8  15  29  47  65  88 124 163 191 228 286
#     4  11  22  36  55  75  97 127 164 206 248 293
#     4  11  20  34  49  72  97 126 162 198 244 300
#     4   9  18  31  46  71  99 129 168 204 240 284
#
# _framework density 15.631862999999999
#
# number of rings (size 3 to 8) (size 9 to 14) (size 15 to 20)
#    0.000    2.385    1.538    3.692    0.000    4.615 
#    0.000    3.846    0.000    0.923    0.000    0.000 
#    0.000    1.846    0.000   10.923    0.000    0.615 
#
# Total GULP energy -289596.417935 kJ/mol
# GULP energy per Si atom -5569.161883 kJ/mol
# Density = 1.559628 g / cm^3
# Si number density = 15.631863 Si / 1000 Ang^3
#
#
#
# Elastic Constant Matrix: (Units=GPa)
#
#
# Indices 1 2 3 4 5 6 
#
# 1 112.6012 55.4329 50.7668 0.0000 0.0000 0.0000
# 2 55.4329 58.6435 32.1570 0.0000 0.0000 0.0000
# 3 50.7668 32.1570 117.5214 0.0000 0.0000 0.0000
# 4 0.0000 0.0000 0.0000 20.3899 0.0000 0.0000
# 5 0.0000 0.0000 0.0000 0.0000 12.3723 0.0000
# 6 0.0000 0.0000 0.0000 0.0000 0.0000 3.8921
#
#
#
# Elastic Compliance Matrix: (Units=1/GPa)
#
#
# Indices 1 2 3 4 5 6 
#
# 1 0.017842 -0.014870 -0.003638 0.000000 0.000000 0.000000
# 2 -0.014870 0.032455 -0.002457 0.000000 0.000000 0.000000
# 3 -0.003638 -0.002457 0.010753 0.000000 0.000000 0.000000
# 4 0.000000 0.000000 0.000000 0.049044 0.000000 0.000000
# 5 0.000000 0.000000 0.000000 0.000000 0.080826 0.000000
# 6 0.000000 0.000000 0.000000 0.000000 0.000000 0.256934
#
#
# Mechanical properties :
#
#
# Convention : Reuss Voigt Hill
#
# Bulk Modulus (GPa) = 52.30320 62.83104 57.56712
# Shear Modulus (GPa) = 10.07746 17.35815 13.71780
#
# Velocity S-wave (km/s) = 2.54180 3.33593 2.96557
# Velocity P-wave (km/s) = 6.49202 7.42424 6.97373
#
# Compressibility (1/GPa) = 0.01911929
#
# Stress axis : x y z
#
# Youngs Moduli (GPa) = 56.04898 30.81175 92.99567
#
# Poissons Ratio (x) = 0.45816 0.33836
# Poissons Ratio (y) = 0.83343 0.22851
# Poissons Ratio (z) = 0.20393 0.07571
#
# Static dielectric constant tensor:
#      x y z
#    x 1.508560 0.000000 0.000000 
#    y 0.000000 1.545270 0.000000 
#    z 0.000000 0.000000 1.546330 
# 
# From -- ./inp_files/40469.got.cif
#   From: 2010.05.17/outbox.cif.g08.bks.cpg/sg71_21_cif.got.tgz:40469.got - 2010.06.03 16:22:01.
