data_PCOD9524776
_publ_section_title
;
Structure prediction by ZEFSAII (Michael W. Deem and Ramdas Pophale) SiO2 
 PCOD9524776
Probable space group: I M M M
;
_chemical_formula_sum "Si O2"
_cell_formula_units_Z 40
_cell_length_a 27.000000
_cell_length_b 18.000000
_cell_length_c 9.000000
_cell_angle_alpha 90.000000
_cell_angle_beta 90.000000
_cell_angle_gamma 90.000000
_cell_volume 4374.000000
_symmetry_space_group_name_H-M "I M M M"
_symmetry_group_IT_number 71
_symmetry_cell_setting 'orthorhombic'
loop_
_space_group_symop_operation_xyz
x,y,z
-x,-y,z
x,-y,-z
-x,y,-z
-x,-y,-z
x,y,-z
-x,y,z
x,-y,z
1/2+x,1/2+y,1/2+z
1/2-x,1/2-y,1/2+z
1/2+x,1/2-y,1/2-z
1/2-x,1/2+y,1/2-z
1/2-x,1/2-y,1/2-z
1/2+x,1/2+y,1/2-z
1/2-x,1/2+y,1/2+z
1/2+x,1/2-y,1/2+z
loop_
_atom_site_type_symbol
_atom_site_label
_atom_site_fract_x
_atom_site_fract_y
_atom_site_fract_z
Si Si1 0.600874 0.410435 0.329642
Si Si2 0.696867 0.824159 0.678355
Si Si3 0.694231 0.662789 0.176410
Si Si4 0.900609 0.413702 0.177656
Si Si5 0.500000 0.090176 0.826606
Si Si6 0.500000 0.409326 0.170785
O O1 0.600377 0.385655 0.500000
O O2 0.600773 0.500000 0.326322
O O3 0.650248 0.381895 0.251760
O O4 0.550430 0.384825 0.250191
O O5 0.696237 0.809982 0.500000
O O6 0.693225 0.746920 0.764394
O O7 0.749572 0.862817 0.711332
O O8 0.649561 0.872542 0.718066
O O9 0.687635 0.660596 0.000000
O O10 0.896068 0.500000 0.219968
O O11 0.949793 0.381725 0.252243
O O12 0.906615 0.410160 0.000000
O O13 0.500000 0.000000 0.805414
O O14 0.500000 0.105521 0.000000
O O15 0.500000 0.500000 0.174822
O O16 0.500000 0.386252 0.000000
#
# Coordination Sequence:
#
# PCOD9524776 Si02
#       6
#    16  16  16  16   8   8
#     4  10  20  34  53  77 105 136 169 206 250 302
#     4   9  19  35  53  73 100 134 170 209 254 302
#     4  10  20  34  53  75 101 134 170 210 254 300
#     4   9  17  31  52  75  98 128 166 204 243 292
#     4   9  17  29  46  71 102 131 158 196 248 297
#     4   9  17  31  52  77 104 133 166 206 252 299
#
# _framework density 9.1449470000000002
#
# number of rings (size 3 to 8) (size 9 to 14) (size 15 to 20)
#    0.000    2.600    0.000    1.800    0.000    6.000 
#    0.000    3.000    0.000    6.000    0.000    0.000 
#    0.000    0.000    0.000    0.000    0.000    0.000 
#
# Total GULP energy -222993.058194 kJ/mol
# GULP energy per Si atom -5574.826455 kJ/mol
# Density = 0.912413 g / cm^3
# Si number density = 9.144947 Si / 1000 Ang^3
#
#
#
# Elastic Constant Matrix: (Units=GPa)
#
#
# Indices 1 2 3 4 5 6 
#
# 1 215.5493 41.4552 94.4182 0.0000 0.0000 0.0000
# 2 41.4552 8.0474 25.5962 0.0000 0.0000 0.0000
# 3 94.4182 25.5962 68.4629 0.0000 0.0000 0.0000
# 4 0.0000 0.0000 0.0000 20.3513 0.0000 0.0000
# 5 0.0000 0.0000 0.0000 0.0000 25.6839 0.0000
# 6 0.0000 0.0000 0.0000 0.0000 0.0000 37.2990
#
#
#
# Elastic Compliance Matrix: (Units=1/GPa)
#
#
# Indices 1 2 3 4 5 6 
#
# 1 0.009072 0.036685 -0.026227 0.000000 0.000000 0.000000
# 2 0.036685 -0.508605 0.139559 0.000000 0.000000 0.000000
# 3 -0.026227 0.139559 -0.001400 0.000000 0.000000 0.000000
# 4 0.000000 0.000000 0.000000 0.049137 0.000000 0.000000
# 5 0.000000 0.000000 0.000000 0.000000 0.038935 0.000000
# 6 0.000000 0.000000 0.000000 0.000000 0.000000 0.026810
#
#
# Mechanical properties :
#
#
# Convention : Reuss Voigt Hill
#
# Bulk Modulus (GPa) = -4.97762 68.33318 31.67778
# Shear Modulus (GPa) = -6.63967 25.37285 9.36659
#
# Velocity S-wave (km/s) = -1.90739 3.72864 2.26546
# Velocity P-wave (km/s) = 2.75286 7.48193 4.91940
#
# Compressibility (1/GPa) = -0.20089908
#
# Stress axis : x y z
#
# Youngs Moduli (GPa) = 110.22477 -1.96616 -714.23973
#
# Poissons Ratio (x) = 0.07213 -18.73247
# Poissons Ratio (y) = -4.04358 99.67852
# Poissons Ratio (z) = 2.89088 0.27440
#
# Static dielectric constant tensor:
#      x y z
#    x 1.633120 0.000000 0.000000 
#    y 0.000000 1.611320 0.000000 
#    z 0.000000 0.000000 1.613800 
# 
# From -- ./inp_files/12386.got.cif
#   From: 2010.05.17/outbox.ucp.g08.bks.cvg/sg71_7_cif.got.tgz:12386.got - 2010.06.11 16:29:00.
