data_PCOD9524432
_publ_section_title
;
Structure prediction by ZEFSAII (Michael W. Deem and Ramdas Pophale) SiO2 
 PCOD9524432
Probable space group: I M M M
;
_chemical_formula_sum "Si O2"
_cell_formula_units_Z 64
_cell_length_a 17.975351
_cell_length_b 8.331370
_cell_length_c 21.898718
_cell_angle_alpha 90.000000
_cell_angle_beta 90.000000
_cell_angle_gamma 90.000000
_cell_volume 3279.536680
_symmetry_space_group_name_H-M "I M M M"
_symmetry_group_IT_number 71
_symmetry_cell_setting 'orthorhombic'
loop_
_space_group_symop_operation_xyz
x,y,z
-x,-y,z
x,-y,-z
-x,y,-z
-x,-y,-z
x,y,-z
-x,y,z
x,-y,z
1/2+x,1/2+y,1/2+z
1/2-x,1/2-y,1/2+z
1/2+x,1/2-y,1/2-z
1/2-x,1/2+y,1/2-z
1/2-x,1/2-y,1/2-z
1/2+x,1/2+y,1/2-z
1/2-x,1/2+y,1/2+z
1/2+x,1/2-y,1/2+z
loop_
_atom_site_type_symbol
_atom_site_label
_atom_site_fract_x
_atom_site_fract_y
_atom_site_fract_z
Si Si1 0.664216 0.307041 0.429071
Si Si2 0.909761 0.818124 0.500000
Si Si3 0.915425 0.804981 0.630847
Si Si4 0.000000 0.316883 0.073704
Si Si5 0.769009 0.690505 0.682821
O O1 0.677862 0.248966 0.500000
O O2 0.670396 0.500000 0.431564
O O3 0.578931 0.264536 0.410699
O O4 0.719870 0.246997 0.375379
O O5 0.891377 0.740443 0.563917
O O6 0.000000 0.830739 0.500000
O O7 0.879792 0.000000 0.500000
O O8 0.854181 0.741429 0.675184
O O9 0.000000 0.756762 0.643612
O O10 0.914679 0.000000 0.628259
O O11 0.000000 0.500000 0.096113
O O12 0.000000 0.318720 0.000000
O O13 0.761139 0.500000 0.681356
O O14 0.750000 0.750000 0.750000
#
# Coordination Sequence:
#
# PCOD9524432 Si02
#       5
#    16   8  16   8  16
#     4   9  19  37  60  84 112 149 188 229 283 342
#     4   7  12  26  51  83 113 142 179 222 269 325
#     4   9  18  35  59  85 115 151 189 229 278 336
#     4   9  17  31  55  89 119 141 178 233 286 337
#     4  11  24  40  58  82 116 153 192 237 284 337
#
# _framework density 19.514951
#
# number of rings (size 3 to 8) (size 9 to 14) (size 15 to 20)
#    0.000    2.750    0.000    2.625    1.750    4.000 
#    2.250    0.000    0.000    2.250    0.000    0.000 
#    0.000    0.000    0.000    0.000    0.000    0.000 
#
# Total GULP energy -178166.534255 kJ/mol
# GULP energy per Si atom -5567.704195 kJ/mol
# Density = 1.947053 g / cm^3
# Si number density = 19.514951 Si / 1000 Ang^3
#
#
#
# Elastic Constant Matrix: (Units=GPa)
#
#
# Indices 1 2 3 4 5 6 
#
# 1 119.7326 17.4446 90.7725 0.0000 0.0000 0.0000
# 2 17.4446 17.3702 23.8542 0.0000 0.0000 0.0000
# 3 90.7725 23.8542 135.3762 0.0000 0.0000 0.0000
# 4 0.0000 0.0000 0.0000 19.8537 0.0000 0.0000
# 5 0.0000 0.0000 0.0000 0.0000 36.2994 0.0000
# 6 0.0000 0.0000 0.0000 0.0000 0.0000 20.0992
#
#
#
# Elastic Compliance Matrix: (Units=1/GPa)
#
#
# Indices 1 2 3 4 5 6 
#
# 1 0.017033 -0.001876 -0.011091 0.000000 0.000000 0.000000
# 2 -0.001876 0.076154 -0.012161 0.000000 0.000000 0.000000
# 3 -0.011091 -0.012161 0.016966 0.000000 0.000000 0.000000
# 4 0.000000 0.000000 0.000000 0.050368 0.000000 0.000000
# 5 0.000000 0.000000 0.000000 0.000000 0.027549 0.000000
# 6 0.000000 0.000000 0.000000 0.000000 0.000000 0.049753
#
#
# Mechanical properties :
#
#
# Convention : Reuss Voigt Hill
#
# Bulk Modulus (GPa) = 16.69480 59.62461 38.15971
# Shear Modulus (GPa) = 16.23134 24.61098 20.42116
#
# Velocity S-wave (km/s) = 2.88712 3.55510 3.23838
# Velocity P-wave (km/s) = 4.43705 6.88994 5.79477
#
# Compressibility (1/GPa) = 0.05989889
#
# Stress axis : x y z
#
# Youngs Moduli (GPa) = 58.70821 13.13120 58.94041
#
# Poissons Ratio (x) = 0.02463 0.65369
# Poissons Ratio (y) = 0.11011 0.71679
# Poissons Ratio (z) = 0.65112 0.15969
#
# Static dielectric constant tensor:
#      x y z
#    x 1.676400 0.000000 0.000000 
#    y 0.000000 1.706480 0.000000 
#    z 0.000000 0.000000 1.720470 
# 
# From -- ./inp_files/49954.got.cif
#   From: 2010.05.17/outbox.cif.g08.bks.cpg/sg71_25_cif.got.tgz:49954.got - 2010.06.03 16:22:01.
