data_PCOD9524170
_publ_section_title
;
Structure prediction by ZEFSAII (Michael W. Deem and Ramdas Pophale) SiO2 
 PCOD9524170
Probable space group: I M M M
;
_chemical_formula_sum "Si O2"
_cell_formula_units_Z 42
_cell_length_a 7.982052
_cell_length_b 9.832828
_cell_length_c 29.235032
_cell_angle_alpha 90.000000
_cell_angle_beta 90.000000
_cell_angle_gamma 90.000000
_cell_volume 2294.544943
_symmetry_space_group_name_H-M "I M M M"
_symmetry_group_IT_number 71
_symmetry_cell_setting 'orthorhombic'
loop_
_space_group_symop_operation_xyz
x,y,z
-x,-y,z
x,-y,-z
-x,y,-z
-x,-y,-z
x,y,-z
-x,y,z
x,-y,z
1/2+x,1/2+y,1/2+z
1/2-x,1/2-y,1/2+z
1/2+x,1/2-y,1/2-z
1/2-x,1/2+y,1/2-z
1/2-x,1/2-y,1/2-z
1/2+x,1/2+y,1/2-z
1/2-x,1/2+y,1/2+z
1/2+x,1/2-y,1/2+z
loop_
_atom_site_type_symbol
_atom_site_label
_atom_site_fract_x
_atom_site_fract_y
_atom_site_fract_z
Si Si1 0.303822 0.701730 0.350504
Si Si2 0.190533 0.500000 0.426334
Si Si3 0.803690 0.500000 0.272701
Si Si4 0.693303 0.500000 0.829933
Si Si5 0.500000 0.500000 0.500000
O O1 0.500000 0.671379 0.354556
O O2 0.211206 0.629671 0.392611
O O3 0.239349 0.629838 0.304136
O O4 0.275724 0.861965 0.347862
O O5 0.348102 0.500000 0.460583
O O6 0.000000 0.500000 0.445177
O O7 0.707771 0.500000 0.225093
O O8 0.000000 0.500000 0.261974
O O9 0.500000 0.500000 0.843348
#
# Coordination Sequence:
#
# PCOD9524170 Si02
#       5
#    16   8   8   8   2
#     4  11  21  38  57  84 120 157 198 248 300 348
#     4  11  22  41  67  94 120 152 190 246 304 361
#     4  11  21  35  53  80 115 161 208 251 289 337
#     4  12  23  35  53  82 117 164 207 243 291 353
#     4  12  22  44  68 100 116 148 202 250 304 366
#
# _framework density 18.304282000000001
#
# number of rings (size 3 to 8) (size 9 to 14) (size 15 to 20)
#    0.000    0.762    1.905   10.571    0.000    0.000 
#    0.000    0.000    0.000    2.286    0.000    4.000 
#    0.000    0.000    0.000    0.000    0.000    0.000 
#
# Total GULP energy -117118.644428 kJ/mol
# GULP energy per Si atom -5577.078306 kJ/mol
# Density = 1.826262 g / cm^3
# Si number density = 18.304282 Si / 1000 Ang^3
#
#
#
# Elastic Constant Matrix: (Units=GPa)
#
#
# Indices 1 2 3 4 5 6 
#
# 1 130.8163 6.8238 16.6366 0.0000 0.0000 0.0000
# 2 6.8238 138.8873 33.0214 0.0000 0.0000 0.0000
# 3 16.6366 33.0214 94.8125 0.0000 0.0000 0.0000
# 4 0.0000 0.0000 0.0000 -2.8428 0.0000 0.0000
# 5 0.0000 0.0000 0.0000 0.0000 28.9391 0.0000
# 6 0.0000 0.0000 0.0000 0.0000 0.0000 22.9634
#
#
#
# Elastic Compliance Matrix: (Units=1/GPa)
#
#
# Indices 1 2 3 4 5 6 
#
# 1 0.007819 -0.000063 -0.001350 0.000000 0.000000 0.000000
# 2 -0.000063 0.007851 -0.002723 0.000000 0.000000 0.000000
# 3 -0.001350 -0.002723 0.011732 0.000000 0.000000 0.000000
# 4 0.000000 0.000000 0.000000 -0.351767 0.000000 0.000000
# 5 0.000000 0.000000 0.000000 0.000000 0.034555 0.000000
# 6 0.000000 0.000000 0.000000 0.000000 0.000000 0.043548
#
#
# Mechanical properties :
#
#
# Convention : Reuss Voigt Hill
#
# Bulk Modulus (GPa) = 52.27492 53.05331 52.66412
# Shear Modulus (GPa) = -21.58782 30.34755 4.37987
#
# Velocity S-wave (km/s) = -3.43795 4.07621 1.54855
# Velocity P-wave (km/s) = 3.58630 7.15549 5.65962
#
# Compressibility (1/GPa) = 0.01912963
#
# Stress axis : x y z
#
# Youngs Moduli (GPa) = 127.88880 127.37824 85.23379
#
# Poissons Ratio (x) = 0.00805 0.11507
# Poissons Ratio (y) = 0.00808 0.23210
# Poissons Ratio (z) = 0.17265 0.34687
#
# Static dielectric constant tensor:
#      x y z
#    x 1.634320 0.000000 0.000000 
#    y 0.000000 1.640710 0.000000 
#    z 0.000000 0.000000 1.607510 
# 
# From -- ./inp_files/67551.got.cif
#   From: 2010.05.17/outbox.cif.g08.bks.cpg/sg71_34_cif.got.tgz:67551.got - 2010.06.03 16:22:01.
