data_PCOD9524004
_publ_section_title
;
Structure prediction by ZEFSAII (Michael W. Deem and Ramdas Pophale) SiO2 
 PCOD9524004
Probable space group: I M M M
;
_chemical_formula_sum "Si O2"
_cell_formula_units_Z 112
_cell_length_a 26.963189
_cell_length_b 14.958825
_cell_length_c 17.187472
_cell_angle_alpha 90.000000
_cell_angle_beta 90.000000
_cell_angle_gamma 90.000000
_cell_volume 6932.354148
_symmetry_space_group_name_H-M "I M M M"
_symmetry_group_IT_number 71
_symmetry_cell_setting 'orthorhombic'
loop_
_space_group_symop_operation_xyz
x,y,z
-x,-y,z
x,-y,-z
-x,y,-z
-x,-y,-z
x,y,-z
-x,y,z
x,-y,z
1/2+x,1/2+y,1/2+z
1/2-x,1/2-y,1/2+z
1/2+x,1/2-y,1/2-z
1/2-x,1/2+y,1/2-z
1/2-x,1/2-y,1/2-z
1/2+x,1/2+y,1/2-z
1/2-x,1/2+y,1/2+z
1/2+x,1/2-y,1/2+z
loop_
_atom_site_type_symbol
_atom_site_label
_atom_site_fract_x
_atom_site_fract_y
_atom_site_fract_z
Si Si1 0.600092 0.761644 0.194000
Si Si2 0.267827 0.394727 0.590994
Si Si3 0.440213 0.396658 0.910567
Si Si4 0.698141 0.749374 0.296218
Si Si5 0.056435 0.396039 0.817745
Si Si6 0.343038 0.894721 0.590437
Si Si7 0.847283 0.599433 0.407285
O O1 0.578688 0.673364 0.153416
O O2 0.651035 0.742096 0.239935
O O3 0.566110 0.820542 0.252240
O O4 0.615570 0.829462 0.126163
O O5 0.274096 0.372632 0.500000
O O6 0.277037 0.500000 0.600308
O O7 0.300662 0.334218 0.645589
O O8 0.209933 0.378994 0.611903
O O9 0.500000 0.394214 0.909911
O O10 0.425205 0.500000 0.895333
O O11 0.424491 0.374436 0.000000
O O12 0.750000 0.750000 0.250000
O O13 0.689793 0.836625 0.350291
O O14 0.061757 0.500000 0.789301
O O15 0.099785 0.383822 0.881516
O O16 0.000000 0.387456 0.846974
O O17 0.337103 0.868450 0.500000
O O18 0.331161 0.000000 0.597168
O O19 0.849938 0.596606 0.500000
O O20 0.857718 0.500000 0.376213
#
# Coordination Sequence:
#
# PCOD9524004 Si02
#       7
#    16  16  16  16  16  16  16
#     4  11  19  30  50  72 101 126 161 198 248 294
#     4   9  18  33  50  65  87 124 166 200 232 276
#     4   9  19  36  54  70  92 126 167 208 250 296
#     4  11  21  32  47  73 101 131 160 200 246 291
#     4   9  18  31  49  76 104 128 157 197 248 303
#     4   9  19  35  53  72  98 134 170 204 242 288
#     4   9  17  29  46  67  91 123 161 196 230 279
#
# _framework density 16.156127999999999
#
# number of rings (size 3 to 8) (size 9 to 14) (size 15 to 20)
#    0.000    2.429    1.429    3.000    0.000    2.000 
#    0.000    1.429    0.000    1.714    0.000    6.000 
#    0.000    0.000    0.000   26.571    0.000    0.286 
#
# Total GULP energy -311939.885620 kJ/mol
# GULP energy per Si atom -5570.355100 kJ/mol
# Density = 1.611936 g / cm^3
# Si number density = 16.156128 Si / 1000 Ang^3
#
#
#
# Elastic Constant Matrix: (Units=GPa)
#
#
# Indices 1 2 3 4 5 6 
#
# 1 64.9890 29.4946 33.4333 0.0000 0.0000 0.0000
# 2 29.4946 70.2003 50.3839 0.0000 0.0000 0.0000
# 3 33.4333 50.3839 73.5395 0.0000 0.0000 0.0000
# 4 0.0000 0.0000 0.0000 26.0603 0.0000 0.0000
# 5 0.0000 0.0000 0.0000 0.0000 13.0673 0.0000
# 6 0.0000 0.0000 0.0000 0.0000 0.0000 26.4766
#
#
#
# Elastic Compliance Matrix: (Units=1/GPa)
#
#
# Indices 1 2 3 4 5 6 
#
# 1 0.020588 -0.003802 -0.006755 0.000000 0.000000 0.000000
# 2 -0.003802 0.028728 -0.017954 0.000000 0.000000 0.000000
# 3 -0.006755 -0.017954 0.028970 0.000000 0.000000 0.000000
# 4 0.000000 0.000000 0.000000 0.038373 0.000000 0.000000
# 5 0.000000 0.000000 0.000000 0.000000 0.076527 0.000000
# 6 0.000000 0.000000 0.000000 0.000000 0.000000 0.037769
#
#
# Mechanical properties :
#
#
# Convention : Reuss Voigt Hill
#
# Bulk Modulus (GPa) = 47.02755 48.37248 47.70002
# Shear Modulus (GPa) = 16.94545 19.48198 18.21371
#
# Velocity S-wave (km/s) = 3.24212 3.47631 3.36126
# Velocity P-wave (km/s) = 6.57164 6.79107 6.68226
#
# Compressibility (1/GPa) = 0.02126413
#
# Stress axis : x y z
#
# Youngs Moduli (GPa) = 48.57260 34.80909 34.51829
#
# Poissons Ratio (x) = 0.13233 0.23318
# Poissons Ratio (y) = 0.18465 0.61975
# Poissons Ratio (z) = 0.32812 0.62497
#
# Static dielectric constant tensor:
#      x y z
#    x 1.529630 0.000000 0.000000 
#    y 0.000000 1.544250 0.000000 
#    z 0.000000 0.000000 1.547680 
# 
# From -- ./inp_files/35344.got.cif
#   From: 2010.05.17/outbox.cif.g08.bks.cpg/sg71_18_cif.got.tgz:35344.got - 2010.06.03 16:22:01.
