data_PCOD9524766
_publ_section_title
;
Structure prediction by ZEFSAII (Michael W. Deem and Ramdas Pophale) SiO2 
 PCOD9524766
Probable space group: I M M M
;
_chemical_formula_sum "Si O2"
_cell_formula_units_Z 52
_cell_length_a 21.000000
_cell_length_b 9.000000
_cell_length_c 27.000000
_cell_angle_alpha 90.000000
_cell_angle_beta 90.000000
_cell_angle_gamma 90.000000
_cell_volume 5103.000000
_symmetry_space_group_name_H-M "I M M M"
_symmetry_group_IT_number 71
_symmetry_cell_setting 'orthorhombic'
loop_
_space_group_symop_operation_xyz
x,y,z
-x,-y,z
x,-y,-z
-x,y,-z
-x,-y,-z
x,y,-z
-x,y,z
x,-y,z
1/2+x,1/2+y,1/2+z
1/2-x,1/2-y,1/2+z
1/2+x,1/2-y,1/2-z
1/2-x,1/2+y,1/2-z
1/2-x,1/2-y,1/2-z
1/2+x,1/2+y,1/2-z
1/2-x,1/2+y,1/2+z
1/2+x,1/2-y,1/2+z
loop_
_atom_site_type_symbol
_atom_site_label
_atom_site_fract_x
_atom_site_fract_y
_atom_site_fract_z
Si Si1 0.923676 0.680258 0.732417
Si Si2 0.072684 0.679782 0.846055
Si Si3 0.616355 0.834735 0.943251
Si Si4 0.500000 0.673166 0.942576
Si Si5 0.791080 0.821631 0.705438
Si Si6 0.855988 0.320769 0.945347
Si Si7 0.250023 0.331183 0.608004
O O1 0.919092 0.500000 0.727099
O O2 0.909180 0.722127 0.790178
O O3 0.863768 0.756061 0.704453
O O4 0.000000 0.716328 0.722766
O O5 0.075848 0.500000 0.846303
O O6 0.107925 0.730124 0.895567
O O7 0.000000 0.725104 0.851860
O O8 0.564067 0.730659 0.919280
O O9 0.678774 0.838913 0.911592
O O10 0.588514 0.000000 0.945120
O O11 0.631170 0.789019 0.000000
O O12 0.500000 0.500000 0.944611
O O13 0.500000 0.730332 0.000000
O O14 0.750000 0.750000 0.750000
O O15 0.752775 0.771850 0.656199
O O16 0.792956 0.000000 0.709619
O O17 0.850907 0.500000 0.943617
O O18 0.789033 0.242603 0.936469
O O19 0.882420 0.283324 0.000000
O O20 0.271835 0.500000 0.619101
#
# Coordination Sequence:
#
# PCOD9524766 Si02
#       7
#    16  16  16   8  16  16  16
#     4   9  18  36  62  89 119 158 203 248 296 355
#     4   8  15  30  54  83 114 150 191 232 276 333
#     4   9  18  34  55  77 104 141 183 223 268 328
#     4   9  17  29  49  77 105 135 173 219 269 317
#     4  12  25  41  62  87 117 152 195 247 303 362
#     4  10  20  33  53  84 120 156 194 240 291 342
#     4  11  23  39  58  81 109 147 193 238 291 347
#
# _framework density 10.190084000000001
#
# number of rings (size 3 to 8) (size 9 to 14) (size 15 to 20)
#    0.000    2.231    0.000    4.385    0.000    4.923 
#    1.385    3.077    0.000    1.385    0.000    1.077 
#    0.000    0.000    0.000    0.000    0.000    0.000 
#
# Total GULP energy -289657.975780 kJ/mol
# GULP energy per Si atom -5570.345688 kJ/mol
# Density = 1.016689 g / cm^3
# Si number density = 10.190084 Si / 1000 Ang^3
#
#
#
# Elastic Constant Matrix: (Units=GPa)
#
#
# Indices 1 2 3 4 5 6 
#
# 1 27.7835 -2.7700 -1.5947 0.0000 0.0000 0.0000
# 2 -2.7700 24.0244 10.1211 0.0000 0.0000 0.0000
# 3 -1.5947 10.1211 51.1347 0.0000 0.0000 0.0000
# 4 0.0000 0.0000 0.0000 18.5824 0.0000 0.0000
# 5 0.0000 0.0000 0.0000 0.0000 27.0459 0.0000
# 6 0.0000 0.0000 0.0000 0.0000 0.0000 18.1080
#
#
#
# Elastic Compliance Matrix: (Units=1/GPa)
#
#
# Indices 1 2 3 4 5 6 
#
# 1 0.036416 0.004059 0.000332 0.000000 0.000000 0.000000
# 2 0.004059 0.045863 -0.008951 0.000000 0.000000 0.000000
# 3 0.000332 -0.008951 0.021338 0.000000 0.000000 0.000000
# 4 0.000000 0.000000 0.000000 0.053814 0.000000 0.000000
# 5 0.000000 0.000000 0.000000 0.000000 0.036974 0.000000
# 6 0.000000 0.000000 0.000000 0.000000 0.000000 0.055224
#
#
# Mechanical properties :
#
#
# Convention : Reuss Voigt Hill
#
# Bulk Modulus (GPa) = 10.58226 12.71726 11.64976
# Shear Modulus (GPa) = 17.22652 19.22633 18.22643
#
# Velocity S-wave (km/s) = 2.91049 3.07479 2.99377
# Velocity P-wave (km/s) = 4.06181 4.34273 4.20462
#
# Compressibility (1/GPa) = 0.09449774
#
# Stress axis : x y z
#
# Youngs Moduli (GPa) = 27.46023 21.80393 46.86416
#
# Poissons Ratio (x) = -0.08850 -0.01558
# Poissons Ratio (y) = -0.11145 0.41949
# Poissons Ratio (z) = -0.00913 0.19517
#
# Static dielectric constant tensor:
#      x y z
#    x 1.788150 0.000000 0.000000 
#    y 0.000000 1.689560 0.000000 
#    z 0.000000 0.000000 1.816200 
# 
# From -- ./inp_files/66403.got.cif
#   From: 2010.05.17/outbox.ucp.g08.bks.cvg/sg71_34_cif.got.tgz:66403.got - 2010.06.11 16:29:00.
