data_PCOD9524731
_publ_section_title
;
Structure prediction by ZEFSAII (Michael W. Deem and Ramdas Pophale) SiO2 
 PCOD9524731
Probable space group: I M M M
;
_chemical_formula_sum "Si O2"
_cell_formula_units_Z 48
_cell_length_a 24.000000
_cell_length_b 24.000000
_cell_length_c 9.000000
_cell_angle_alpha 90.000000
_cell_angle_beta 90.000000
_cell_angle_gamma 90.000000
_cell_volume 5184.000000
_symmetry_space_group_name_H-M "I M M M"
_symmetry_group_IT_number 71
_symmetry_cell_setting 'orthorhombic'
loop_
_space_group_symop_operation_xyz
x,y,z
-x,-y,z
x,-y,-z
-x,y,-z
-x,-y,-z
x,y,-z
-x,y,z
x,-y,z
1/2+x,1/2+y,1/2+z
1/2-x,1/2-y,1/2+z
1/2+x,1/2-y,1/2-z
1/2-x,1/2+y,1/2-z
1/2-x,1/2-y,1/2-z
1/2+x,1/2+y,1/2-z
1/2-x,1/2+y,1/2+z
1/2+x,1/2-y,1/2+z
loop_
_atom_site_type_symbol
_atom_site_label
_atom_site_fract_x
_atom_site_fract_y
_atom_site_fract_z
Si Si1 0.255451 0.189975 0.822675
Si Si2 0.850719 0.605630 0.325791
Si Si3 0.332814 0.500000 0.177468
Si Si4 0.703381 0.000000 0.323670
Si Si5 0.349640 0.615286 0.679236
Si Si6 0.933480 0.329677 0.830834
Si Si7 0.937026 0.207624 0.180886
O O1 0.250000 0.250000 0.750000
O O2 0.313070 0.159402 0.788803
O O3 0.207526 0.146244 0.776807
O O4 0.250304 0.196886 0.000000
O O5 0.846933 0.595214 0.500000
O O6 0.826466 0.553858 0.239560
O O7 0.911619 0.621812 0.272279
O O8 0.267764 0.500000 0.223079
O O9 0.357205 0.443867 0.245213
O O10 0.336751 0.500000 0.000000
O O11 0.701552 0.000000 0.500000
O O12 0.349373 0.608813 0.500000
O O13 0.397789 0.657740 0.724489
O O14 0.916387 0.268542 0.772853
O O15 0.000000 0.328153 0.836769
O O16 0.912616 0.337320 0.000000
O O17 0.000000 0.199343 0.232015
O O18 0.937657 0.209732 0.000000
#
# Coordination Sequence:
#
# PCOD9524731 Si02
#       7
#    16  16   8   8  16  16  16
#     4  10  21  33  50  78 109 141 175 216 271 326
#     4  11  22  36  55  81 112 142 178 226 274 324
#     4  11  23  37  54  77 104 140 184 227 271 322
#     4  11  23  39  58  77 102 145 188 226 271 324
#     4  10  19  34  55  77 106 142 180 222 267 318
#     4   9  18  35  59  84 112 146 182 220 264 321
#     4   8  15  30  55  84 109 139 182 226 265 309
#
# _framework density 9.2592590000000001
#
# number of rings (size 3 to 8) (size 9 to 14) (size 15 to 20)
#    0.000    2.167    1.667    3.000    0.000    4.333 
#    0.000    1.667    0.000    6.500    0.000    0.000 
#    0.000    0.000    0.000    0.000    0.000    0.000 
#
# Total GULP energy -267661.811485 kJ/mol
# GULP energy per Si atom -5576.287739 kJ/mol
# Density = 0.923818 g / cm^3
# Si number density = 9.259259 Si / 1000 Ang^3
#
#
#
# Elastic Constant Matrix: (Units=GPa)
#
#
# Indices 1 2 3 4 5 6 
#
# 1 49.7399 17.5881 16.8485 0.0000 0.0000 0.0000
# 2 17.5881 9.4777 24.7235 0.0000 0.0000 0.0000
# 3 16.8485 24.7235 7.3392 0.0000 0.0000 0.0000
# 4 0.0000 0.0000 0.0000 31.9874 0.0000 0.0000
# 5 0.0000 0.0000 0.0000 0.0000 15.2586 0.0000
# 6 0.0000 0.0000 0.0000 0.0000 0.0000 112.4422
#
#
#
# Elastic Compliance Matrix: (Units=1/GPa)
#
#
# Indices 1 2 3 4 5 6 
#
# 1 0.031399 -0.016663 -0.015949 0.000000 0.000000 0.000000
# 2 -0.016663 -0.004705 0.054105 0.000000 0.000000 0.000000
# 3 -0.015949 0.054105 -0.009395 0.000000 0.000000 0.000000
# 4 0.000000 0.000000 0.000000 0.031262 0.000000 0.000000
# 5 0.000000 0.000000 0.000000 0.000000 0.065537 0.000000
# 6 0.000000 0.000000 0.000000 0.000000 0.000000 0.008893
#
#
# Mechanical properties :
#
#
# Convention : Reuss Voigt Hill
#
# Bulk Modulus (GPa) = 16.58808 20.54188 18.56498
# Shear Modulus (GPa) = 49.94962 32.43076 41.19019
#
# Velocity S-wave (km/s) = 5.19917 4.18935 4.72133
# Velocity P-wave (km/s) = 6.70961 5.87516 6.30620
#
# Compressibility (1/GPa) = 0.06028425
#
# Stress axis : x y z
#
# Youngs Moduli (GPa) = 31.84785 -212.51731 -106.44145
#
# Poissons Ratio (x) = -3.54125 -1.69767
# Poissons Ratio (y) = 0.53069 5.75905
# Poissons Ratio (z) = 0.50795 11.49832
#
# Static dielectric constant tensor:
#      x y z
#    x 1.704120 0.000000 0.000000 
#    y 0.000000 1.556630 0.000000 
#    z 0.000000 0.000000 1.614900 
# 
# From -- ./inp_files/12901.got.cif
#   From: 2010.05.17/outbox.ucp.g08.bks.cvg/sg71_7_cif.got.tgz:12901.got - 2010.06.11 16:29:00.
