data_PCOD9524573
_publ_section_title
;
Structure prediction by ZEFSAII (Michael W. Deem and Ramdas Pophale) SiO2 
 PCOD9524573
Probable space group: I M M M
;
_chemical_formula_sum "Si O2"
_cell_formula_units_Z 96
_cell_length_a 25.050592
_cell_length_b 7.312677
_cell_length_c 21.834590
_cell_angle_alpha 90.000000
_cell_angle_beta 90.000000
_cell_angle_gamma 90.000000
_cell_volume 3999.810592
_symmetry_space_group_name_H-M "I M M M"
_symmetry_group_IT_number 71
_symmetry_cell_setting 'orthorhombic'
loop_
_space_group_symop_operation_xyz
x,y,z
-x,-y,z
x,-y,-z
-x,y,-z
-x,-y,-z
x,y,-z
-x,y,z
x,-y,z
1/2+x,1/2+y,1/2+z
1/2-x,1/2-y,1/2+z
1/2+x,1/2-y,1/2-z
1/2-x,1/2+y,1/2-z
1/2-x,1/2-y,1/2-z
1/2+x,1/2+y,1/2-z
1/2-x,1/2+y,1/2+z
1/2+x,1/2-y,1/2+z
loop_
_atom_site_type_symbol
_atom_site_label
_atom_site_fract_x
_atom_site_fract_y
_atom_site_fract_z
Si Si1 0.172231 0.776157 0.127897
Si Si2 0.215761 0.708350 0.397608
Si Si3 0.828479 0.222096 0.732898
Si Si4 0.059324 0.778077 0.927957
Si Si5 0.943468 0.210062 0.696503
Si Si6 0.400861 0.778279 0.067165
O O1 0.225141 0.715012 0.091100
O O2 0.182828 0.722398 0.198107
O O3 0.113680 0.717048 0.105366
O O4 0.172087 0.000000 0.126023
O O5 0.217040 0.500000 0.420053
O O6 0.205935 0.707872 0.323954
O O7 0.160499 0.787261 0.423468
O O8 0.888795 0.288296 0.721120
O O9 0.826342 0.000000 0.729124
O O10 0.000000 0.719025 0.905755
O O11 0.059298 0.000000 0.924116
O O12 0.062999 0.731011 0.000000
O O13 0.935980 0.211660 0.623345
O O14 0.000000 0.293685 0.713387
O O15 0.944190 0.000000 0.717842
O O16 0.400416 0.000000 0.071094
O O17 0.419831 0.726408 0.000000
#
# Coordination Sequence:
#
# PCOD9524573 Si02
#       6
#    16  16  16  16  16  16
#     4   9  16  25  41  63  84 113 149 175 203 252
#     4   9  17  29  44  63  88 115 142 175 214 253
#     4   9  17  29  44  63  88 115 142 175 214 253
#     4   8  14  24  37  57  88 119 142 170 211 253
#     4   9  18  31  45  62  85 113 144 178 216 255
#     4   9  18  31  45  62  85 113 144 178 216 255
#
# _framework density 24.001135999999999
#
# number of rings (size 3 to 8) (size 9 to 14) (size 15 to 20)
#    0.000    3.167    0.000    1.000    0.000    2.333 
#    0.000    8.333    0.000    0.000    0.000    0.000 
#    0.000    4.000    0.000    7.333    0.000    6.667 
#
# Total GULP energy -267803.787463 kJ/mol
# GULP energy per Si atom -5579.245572 kJ/mol
# Density = 2.394651 g / cm^3
# Si number density = 24.001136 Si / 1000 Ang^3
#
#
#
# Elastic Constant Matrix: (Units=GPa)
#
#
# Indices 1 2 3 4 5 6 
#
# 1 154.6338 -4.1530 -12.0964 0.0000 0.0000 0.0000
# 2 -4.1530 100.3790 -8.6390 0.0000 0.0000 0.0000
# 3 -12.0964 -8.6390 19.1449 0.0000 0.0000 0.0000
# 4 0.0000 0.0000 0.0000 6.7743 0.0000 0.0000
# 5 0.0000 0.0000 0.0000 0.0000 -22.7016 0.0000
# 6 0.0000 0.0000 0.0000 0.0000 0.0000 -41.9287
#
#
#
# Elastic Compliance Matrix: (Units=1/GPa)
#
#
# Indices 1 2 3 4 5 6 
#
# 1 0.006848 0.000682 0.004634 0.000000 0.000000 0.000000
# 2 0.000682 0.010433 0.005139 0.000000 0.000000 0.000000
# 3 0.004634 0.005139 0.057480 0.000000 0.000000 0.000000
# 4 0.000000 0.000000 0.000000 0.147617 0.000000 0.000000
# 5 0.000000 0.000000 0.000000 0.000000 -0.044050 0.000000
# 6 0.000000 0.000000 0.000000 0.000000 0.000000 -0.023850
#
#
# Mechanical properties :
#
#
# Convention : Reuss Voigt Hill
#
# Bulk Modulus (GPa) = 10.45242 24.93121 17.69182
# Shear Modulus (GPa) = 30.21912 8.36518 19.29215
#
# Velocity S-wave (km/s) = 3.55219 1.86893 2.83822
# Velocity P-wave (km/s) = 4.60309 3.88166 4.25768
#
# Compressibility (1/GPa) = 0.09567161
#
# Stress axis : x y z
#
# Youngs Moduli (GPa) = 146.03329 95.85228 17.39723
#
# Poissons Ratio (x) = -0.06539 -0.08063
# Poissons Ratio (y) = -0.09962 -0.08940
# Poissons Ratio (z) = -0.67679 -0.49256
#
# Static dielectric constant tensor:
#      x y z
#    x 1.929340 0.000000 0.000000 
#    y 0.000000 1.990590 0.000000 
#    z 0.000000 0.000000 1.869570 
# 
# From -- ./inp_files/12855.got.cif
#   From: 2010.05.17/outbox.cif.g08.bks.cpg/sg71_7_cif.got.tgz:12855.got - 2010.06.03 16:22:01.
