data_PCOD9524744
_publ_section_title
;
Structure prediction by ZEFSAII (Michael W. Deem and Ramdas Pophale) SiO2 
 PCOD9524744
Probable space group: I M M M
;
_chemical_formula_sum "Si O2"
_cell_formula_units_Z 52
_cell_length_a 21.000000
_cell_length_b 27.000000
_cell_length_c 9.000000
_cell_angle_alpha 90.000000
_cell_angle_beta 90.000000
_cell_angle_gamma 90.000000
_cell_volume 5103.000000
_symmetry_space_group_name_H-M "I M M M"
_symmetry_group_IT_number 71
_symmetry_cell_setting 'orthorhombic'
loop_
_space_group_symop_operation_xyz
x,y,z
-x,-y,z
x,-y,-z
-x,y,-z
-x,-y,-z
x,y,-z
-x,y,z
x,-y,z
1/2+x,1/2+y,1/2+z
1/2-x,1/2-y,1/2+z
1/2+x,1/2-y,1/2-z
1/2-x,1/2+y,1/2-z
1/2-x,1/2-y,1/2-z
1/2+x,1/2+y,1/2-z
1/2-x,1/2+y,1/2+z
1/2+x,1/2-y,1/2+z
loop_
_atom_site_type_symbol
_atom_site_label
_atom_site_fract_x
_atom_site_fract_y
_atom_site_fract_z
Si Si1 0.125835 0.057223 0.833158
Si Si2 0.191636 0.865895 0.673987
Si Si3 0.677169 0.823245 0.319437
Si Si4 0.077612 0.500000 0.328799
Si Si5 0.628237 0.724349 0.323353
Si Si6 0.073240 0.601151 0.820847
Si Si7 0.500000 0.621957 0.668209
Si Si8 0.000000 0.223565 0.674364
O O1 0.173785 0.078816 0.714211
O O2 0.060668 0.087103 0.819429
O O3 0.113124 0.000000 0.815337
O O4 0.151004 0.066160 0.000000
O O5 0.186618 0.856667 0.500000
O O6 0.261127 0.852192 0.729494
O O7 0.145064 0.828337 0.757127
O O8 0.676287 0.823282 0.500000
O O9 0.677527 0.766317 0.274151
O O10 0.615562 0.853135 0.270292
O O11 0.096884 0.500000 0.500000
O O12 0.098057 0.450148 0.246641
O O13 0.000000 0.500000 0.322647
O O14 0.625487 0.721063 0.500000
O O15 0.561963 0.742583 0.257330
O O16 0.000000 0.607862 0.776740
O O17 0.075533 0.597755 0.000000
O O18 0.500000 0.644494 0.500000
O O19 0.500000 0.664689 0.789736
O O20 0.000000 0.232766 0.500000
#
# Coordination Sequence:
#
# PCOD9524744 Si02
#       8
#    16  16  16   8  16  16   8   8
#     4  10  21  38  61  88 118 156 203 248 293 350
#     4  11  22  39  59  84 120 155 193 241 292 347
#     4   9  21  38  59  87 114 149 195 240 288 344
#     4   9  17  31  51  77 111 143 171 216 283 342
#     4  11  22  39  63  86 114 155 199 240 287 347
#     4   9  17  33  58  82 104 138 189 237 276 332
#     4  10  19  36  62  88 117 155 197 243 295 348
#     4  12  24  37  57  91 125 154 191 246 303 355
#
# _framework density 10.190084000000001
#
# number of rings (size 3 to 8) (size 9 to 14) (size 15 to 20)
#    0.000    1.923    1.538    2.538    1.077    2.154 
#    1.385    5.385    0.000    1.385    0.000    0.000 
#    0.000    0.000    0.000    0.000    0.000    0.000 
#
# Total GULP energy -289921.490045 kJ/mol
# GULP energy per Si atom -5575.413270 kJ/mol
# Density = 1.016689 g / cm^3
# Si number density = 10.190084 Si / 1000 Ang^3
#
#
#
# Elastic Constant Matrix: (Units=GPa)
#
#
# Indices 1 2 3 4 5 6 
#
# 1 74.8879 42.5686 24.4591 0.0000 0.0000 0.0000
# 2 42.5686 81.0090 28.9196 0.0000 0.0000 0.0000
# 3 24.4591 28.9196 31.9806 0.0000 0.0000 0.0000
# 4 0.0000 0.0000 0.0000 122.9159 0.0000 0.0000
# 5 0.0000 0.0000 0.0000 0.0000 6.3370 0.0000
# 6 0.0000 0.0000 0.0000 0.0000 0.0000 13.4748
#
#
#
# Elastic Compliance Matrix: (Units=1/GPa)
#
#
# Indices 1 2 3 4 5 6 
#
# 1 0.020594 -0.007677 -0.008808 0.000000 0.000000 0.000000
# 2 -0.007677 0.021091 -0.013201 0.000000 0.000000 0.000000
# 3 -0.008808 -0.013201 0.049943 0.000000 0.000000 0.000000
# 4 0.000000 0.000000 0.000000 0.008136 0.000000 0.000000
# 5 0.000000 0.000000 0.000000 0.000000 0.157804 0.000000
# 6 0.000000 0.000000 0.000000 0.000000 0.000000 0.074212
#
#
# Mechanical properties :
#
#
# Convention : Reuss Voigt Hill
#
# Bulk Modulus (GPa) = 31.00232 42.19691 36.59961
# Shear Modulus (GPa) = 12.44077 34.67421 23.55749
#
# Velocity S-wave (km/s) = 2.47338 4.12924 3.40355
# Velocity P-wave (km/s) = 4.83754 6.59424 5.78299
#
# Compressibility (1/GPa) = 0.03225565
#
# Stress axis : x y z
#
# Youngs Moduli (GPa) = 48.55744 47.41317 20.02301
#
# Poissons Ratio (x) = 0.36401 0.17636
# Poissons Ratio (y) = 0.37280 0.26432
# Poissons Ratio (z) = 0.42769 0.62589
#
# Static dielectric constant tensor:
#      x y z
#    x 1.755130 0.000000 0.000000 
#    y 0.000000 1.736650 0.000000 
#    z 0.000000 0.000000 1.696700 
# 
# From -- ./inp_files/11210.got.cif
#   From: 2010.05.17/outbox.ucp.g08.bks.cvg/sg71_6_cif.got.tgz:11210.got - 2010.06.11 16:29:00.
