data_PCOD9524667
_publ_section_title
;
Structure prediction by ZEFSAII (Michael W. Deem and Ramdas Pophale) SiO2 
 PCOD9524667
Probable space group: I M M M
;
_chemical_formula_sum "Si O2"
_cell_formula_units_Z 48
_cell_length_a 24.000000
_cell_length_b 9.000000
_cell_length_c 27.000000
_cell_angle_alpha 90.000000
_cell_angle_beta 90.000000
_cell_angle_gamma 90.000000
_cell_volume 5832.000000
_symmetry_space_group_name_H-M "I M M M"
_symmetry_group_IT_number 71
_symmetry_cell_setting 'orthorhombic'
loop_
_space_group_symop_operation_xyz
x,y,z
-x,-y,z
x,-y,-z
-x,y,-z
-x,-y,-z
x,y,-z
-x,y,z
x,-y,z
1/2+x,1/2+y,1/2+z
1/2-x,1/2-y,1/2+z
1/2+x,1/2-y,1/2-z
1/2-x,1/2+y,1/2-z
1/2-x,1/2-y,1/2-z
1/2+x,1/2+y,1/2-z
1/2-x,1/2+y,1/2+z
1/2+x,1/2-y,1/2+z
loop_
_atom_site_type_symbol
_atom_site_label
_atom_site_fract_x
_atom_site_fract_y
_atom_site_fract_z
Si Si1 0.347851 0.831828 0.635639
Si Si2 0.163197 0.323247 0.379296
Si Si3 0.263743 0.668191 0.200171
Si Si4 0.566039 0.821730 0.280701
Si Si5 0.729601 0.678954 0.557310
Si Si6 0.065721 0.822492 0.673613
O O1 0.293847 0.841653 0.670606
O O2 0.396893 0.772707 0.671870
O O3 0.322086 0.742203 0.589350
O O4 0.363448 0.000000 0.620044
O O5 0.155807 0.500000 0.382808
O O6 0.195048 0.272726 0.329899
O O7 0.209142 0.276084 0.420834
O O8 0.103679 0.245381 0.370329
O O9 0.285723 0.500000 0.206122
O O10 0.250000 0.750000 0.250000
O O11 0.500000 0.796460 0.289417
O O12 0.580479 0.744934 0.228096
O O13 0.575016 0.000000 0.275314
O O14 0.725440 0.722665 0.500000
O O15 0.727994 0.500000 0.561032
O O16 0.000000 0.789698 0.666007
O O17 0.072975 0.000000 0.675087
#
# Coordination Sequence:
#
# PCOD9524667 Si02
#       6
#    16  16  16  16  16  16
#     4   9  18  30  45  68  94 121 155 192 232 280
#     4  10  19  31  48  68  91 121 156 193 237 287
#     4  10  18  27  41  64  95 125 154 190 231 279
#     4   9  17  30  48  70  99 133 165 195 227 269
#     4   9  19  35  53  72  92 116 151 198 248 291
#     4  10  20  32  47  70 100 131 162 194 227 270
#
# _framework density 8.2304530000000007
#
# number of rings (size 3 to 8) (size 9 to 14) (size 15 to 20)
#    0.000    2.500    0.000    2.500    0.000    4.667 
#    0.000    0.000    0.000    1.000    0.000    7.000 
#    0.000    0.000    0.000    0.000    0.000    0.000 
#
# Total GULP energy -267213.578815 kJ/mol
# GULP energy per Si atom -5566.949559 kJ/mol
# Density = 0.821172 g / cm^3
# Si number density = 8.230453 Si / 1000 Ang^3
#
#
#
# Elastic Constant Matrix: (Units=GPa)
#
#
# Indices 1 2 3 4 5 6 
#
# 1 71.5902 17.1372 16.0833 0.0000 0.0000 0.0000
# 2 17.1372 33.3522 24.7445 0.0000 0.0000 0.0000
# 3 16.0833 24.7445 64.4431 0.0000 0.0000 0.0000
# 4 0.0000 0.0000 0.0000 20.0223 0.0000 0.0000
# 5 0.0000 0.0000 0.0000 0.0000 25.3102 0.0000
# 6 0.0000 0.0000 0.0000 0.0000 0.0000 25.7131
#
#
#
# Elastic Compliance Matrix: (Units=1/GPa)
#
#
# Indices 1 2 3 4 5 6 
#
# 1 0.015990 -0.007349 -0.001169 0.000000 0.000000 0.000000
# 2 -0.007349 0.045304 -0.015562 0.000000 0.000000 0.000000
# 3 -0.001169 -0.015562 0.021785 0.000000 0.000000 0.000000
# 4 0.000000 0.000000 0.000000 0.049944 0.000000 0.000000
# 5 0.000000 0.000000 0.000000 0.000000 0.039510 0.000000
# 6 0.000000 0.000000 0.000000 0.000000 0.000000 0.038891
#
#
# Mechanical properties :
#
#
# Convention : Reuss Voigt Hill
#
# Bulk Modulus (GPa) = 28.63668 31.70171 30.16920
# Shear Modulus (GPa) = 18.43502 21.63717 20.03609
#
# Velocity S-wave (km/s) = 3.35016 3.62948 3.49261
# Velocity P-wave (km/s) = 5.69204 6.07164 5.88490
#
# Compressibility (1/GPa) = 0.03492025
#
# Stress axis : x y z
#
# Youngs Moduli (GPa) = 62.53844 22.07289 45.90403
#
# Poissons Ratio (x) = 0.16221 0.05366
# Poissons Ratio (y) = 0.45959 0.71434
# Poissons Ratio (z) = 0.07310 0.34349
#
# Static dielectric constant tensor:
#      x y z
#    x 1.511050 0.000000 0.000000 
#    y 0.000000 1.573970 0.000000 
#    z 0.000000 0.000000 1.531170 
# 
# From -- ./inp_files/12848.got.cif
#   From: 2010.05.17/outbox.ucp.g08.bks.cvg/sg71_7_cif.got.tgz:12848.got - 2010.06.11 16:29:00.
