data_PCOD9524775
_publ_section_title
;
Structure prediction by ZEFSAII (Michael W. Deem and Ramdas Pophale) SiO2 
 PCOD9524775
Probable space group: I M M M
;
_chemical_formula_sum "Si O2"
_cell_formula_units_Z 44
_cell_length_a 30.000000
_cell_length_b 12.000000
_cell_length_c 12.000000
_cell_angle_alpha 90.000000
_cell_angle_beta 90.000000
_cell_angle_gamma 90.000000
_cell_volume 4320.000000
_symmetry_space_group_name_H-M "I M M M"
_symmetry_group_IT_number 71
_symmetry_cell_setting 'orthorhombic'
loop_
_space_group_symop_operation_xyz
x,y,z
-x,-y,z
x,-y,-z
-x,y,-z
-x,-y,-z
x,y,-z
-x,y,z
x,-y,z
1/2+x,1/2+y,1/2+z
1/2-x,1/2-y,1/2+z
1/2+x,1/2-y,1/2-z
1/2-x,1/2+y,1/2-z
1/2-x,1/2-y,1/2-z
1/2+x,1/2+y,1/2-z
1/2-x,1/2+y,1/2+z
1/2+x,1/2-y,1/2+z
loop_
_atom_site_type_symbol
_atom_site_label
_atom_site_fract_x
_atom_site_fract_y
_atom_site_fract_z
Si Si1 0.551720 0.244383 0.815791
Si Si2 0.748048 0.621253 0.621007
Si Si3 0.817593 0.703599 0.790302
Si Si4 0.088413 0.624768 0.129992
Si Si5 0.449363 0.000000 0.131471
Si Si6 0.634267 0.374251 0.872233
O O1 0.500000 0.253818 0.844395
O O2 0.560466 0.224663 0.685057
O O3 0.582402 0.340477 0.862608
O O4 0.571021 0.123469 0.852886
O O5 0.770602 0.628622 0.500000
O O6 0.725704 0.500000 0.627744
O O7 0.783669 0.629704 0.719379
O O8 0.712866 0.720532 0.630858
O O9 0.859089 0.642199 0.846264
O O10 0.839163 0.789280 0.703069
O O11 0.075118 0.500000 0.171484
O O12 0.080911 0.625404 0.000000
O O13 0.500000 0.000000 0.181182
O O14 0.455450 0.000000 0.000000
O O15 0.641013 0.500000 0.834485
O O16 0.648286 0.365061 0.000000
#
# Coordination Sequence:
#
# PCOD9524775 Si02
#       6
#    16  16  16  16   8  16
#     4  10  20  34  52  76 105 136 174 219 264 314
#     4  10  20  34  54  79 106 137 174 216 262 313
#     4  10  20  35  54  77 106 139 175 216 262 313
#     4  10  20  34  53  77 106 139 176 219 267 318
#     4   9  16  28  47  71  99 129 162 204 255 307
#     4  10  21  36  54  77 106 141 179 218 263 316
#
# _framework density 10.185185000000001
#
# number of rings (size 3 to 8) (size 9 to 14) (size 15 to 20)
#    0.000    2.091    0.909    2.727    0.000    1.818 
#    0.000    1.818    0.000   13.636    0.000    5.091 
#    0.000    0.000    0.000    0.000    0.000    0.000 
#
# Total GULP energy -244984.195114 kJ/mol
# GULP energy per Si atom -5567.822616 kJ/mol
# Density = 1.016200 g / cm^3
# Si number density = 10.185185 Si / 1000 Ang^3
#
#
#
# Elastic Constant Matrix: (Units=GPa)
#
#
# Indices 1 2 3 4 5 6 
#
# 1 26.0427 -1.5975 -4.7830 0.0000 0.0000 0.0000
# 2 -1.5975 64.9639 21.4497 0.0000 0.0000 0.0000
# 3 -4.7830 21.4497 36.4221 0.0000 0.0000 0.0000
# 4 0.0000 0.0000 0.0000 17.2387 0.0000 0.0000
# 5 0.0000 0.0000 0.0000 0.0000 1.6213 0.0000
# 6 0.0000 0.0000 0.0000 0.0000 0.0000 6.2874
#
#
#
# Elastic Compliance Matrix: (Units=1/GPa)
#
#
# Indices 1 2 3 4 5 6 
#
# 1 0.039391 -0.000918 0.005714 0.000000 0.000000 0.000000
# 2 -0.000918 0.019130 -0.011387 0.000000 0.000000 0.000000
# 3 0.005714 -0.011387 0.034912 0.000000 0.000000 0.000000
# 4 0.000000 0.000000 0.000000 0.058009 0.000000 0.000000
# 5 0.000000 0.000000 0.000000 0.000000 0.616794 0.000000
# 6 0.000000 0.000000 0.000000 0.000000 0.000000 0.159048
#
#
# Mechanical properties :
#
#
# Convention : Reuss Voigt Hill
#
# Bulk Modulus (GPa) = 12.46079 17.50746 14.98413
# Shear Modulus (GPa) = 5.16946 12.52012 8.84479
#
# Velocity S-wave (km/s) = 1.59476 2.48185 2.08600
# Velocity P-wave (km/s) = 3.08568 4.10195 3.62956
#
# Compressibility (1/GPa) = 0.08025171
#
# Stress axis : x y z
#
# Youngs Moduli (GPa) = 25.38620 52.27320 28.64335
#
# Poissons Ratio (x) = 0.04798 -0.16366
# Poissons Ratio (y) = 0.02330 0.32615
# Poissons Ratio (z) = -0.14505 0.59522
#
# Static dielectric constant tensor:
#      x y z
#    x 1.753710 0.000000 0.000000 
#    y 0.000000 1.713870 0.000000 
#    z 0.000000 0.000000 1.807280 
# 
# From -- ./inp_files/20295.got.cif
#   From: 2010.05.17/outbox.ucp.g08.bks.cvg/sg71_11_cif.got.tgz:20295.got - 2010.06.11 16:29:00.
