data_PCOD9524831
_publ_section_title
;
Structure prediction by ZEFSAII (Michael W. Deem and Ramdas Pophale) SiO2 
 PCOD9524831
Probable space group: I M M M
;
_chemical_formula_sum "Si O2"
_cell_formula_units_Z 48
_cell_length_a 24.000000
_cell_length_b 24.000000
_cell_length_c 9.000000
_cell_angle_alpha 90.000000
_cell_angle_beta 90.000000
_cell_angle_gamma 90.000000
_cell_volume 5184.000000
_symmetry_space_group_name_H-M "I M M M"
_symmetry_group_IT_number 71
_symmetry_cell_setting 'orthorhombic'
loop_
_space_group_symop_operation_xyz
x,y,z
-x,-y,z
x,-y,-z
-x,y,-z
-x,-y,-z
x,y,-z
-x,y,z
x,-y,z
1/2+x,1/2+y,1/2+z
1/2-x,1/2-y,1/2+z
1/2+x,1/2-y,1/2-z
1/2-x,1/2+y,1/2-z
1/2-x,1/2-y,1/2-z
1/2+x,1/2+y,1/2-z
1/2-x,1/2+y,1/2+z
1/2+x,1/2-y,1/2+z
loop_
_atom_site_type_symbol
_atom_site_label
_atom_site_fract_x
_atom_site_fract_y
_atom_site_fract_z
Si Si1 0.648185 0.437602 0.326235
Si Si2 0.098700 0.436275 0.321624
Si Si3 0.226009 0.413846 0.321762
Si Si4 0.398741 0.333105 0.825427
Si Si5 0.000000 0.766702 0.178054
Si Si6 0.769378 0.194468 0.675321
Si Si7 0.000000 0.364742 0.178672
O O1 0.649334 0.420276 0.500000
O O2 0.626698 0.500000 0.316345
O O3 0.713485 0.438825 0.274720
O O4 0.609763 0.395273 0.237155
O O5 0.097356 0.426009 0.500000
O O6 0.080421 0.500000 0.295944
O O7 0.164095 0.432521 0.273005
O O8 0.055369 0.394780 0.243462
O O9 0.225063 0.419691 0.500000
O O10 0.235369 0.352203 0.263115
O O11 0.445395 0.297595 0.741864
O O12 0.335935 0.310119 0.804584
O O13 0.411586 0.333525 0.000000
O O14 0.000000 0.701010 0.218026
O O15 0.000000 0.770775 0.000000
O O16 0.758008 0.190671 0.500000
O O17 0.750000 0.250000 0.750000
O O18 0.000000 0.369621 0.000000
#
# Coordination Sequence:
#
# PCOD9524831 Si02
#       7
#    16  16  16  16   8  16   8
#     4   9  17  33  59  89 121 155 188 225 276 339
#     4  10  21  38  60  85 114 150 193 237 282 338
#     4   9  18  33  55  85 117 150 188 230 278 333
#     4  10  22  39  59  85 115 150 190 237 288 336
#     4  11  25  44  63  82 110 150 195 243 292 345
#     4  10  21  35  54  82 116 151 188 231 282 339
#     4  11  26  42  57  81 109 146 193 244 296 343
#
# _framework density 9.2592590000000001
#
# number of rings (size 3 to 8) (size 9 to 14) (size 15 to 20)
#    0.000    2.167    0.000    2.250    2.333    7.667 
#    0.000    0.417    0.000    5.500    0.000    0.000 
#    0.000    0.000    0.000    0.000    0.000    0.000 
#
# Total GULP energy -267479.392181 kJ/mol
# GULP energy per Si atom -5572.487337 kJ/mol
# Density = 0.923818 g / cm^3
# Si number density = 9.259259 Si / 1000 Ang^3
#
#
#
# Elastic Constant Matrix: (Units=GPa)
#
#
# Indices 1 2 3 4 5 6 
#
# 1 91.7556 54.2241 36.7039 0.0000 0.0000 0.0000
# 2 54.2241 119.5834 34.0582 0.0000 0.0000 0.0000
# 3 36.7039 34.0582 15.2038 0.0000 0.0000 0.0000
# 4 0.0000 0.0000 0.0000 24.0156 0.0000 0.0000
# 5 0.0000 0.0000 0.0000 0.0000 31.7699 0.0000
# 6 0.0000 0.0000 0.0000 0.0000 0.0000 -34.7415
#
#
#
# Elastic Compliance Matrix: (Units=1/GPa)
#
#
# Indices 1 2 3 4 5 6 
#
# 1 -0.066855 -0.043237 0.258250 0.000000 0.000000 0.000000
# 2 -0.043237 -0.004862 0.115270 0.000000 0.000000 0.000000
# 3 0.258250 0.115270 -0.815890 0.000000 0.000000 0.000000
# 4 0.000000 0.000000 0.000000 0.041640 0.000000 0.000000
# 5 0.000000 0.000000 0.000000 0.000000 0.031476 0.000000
# 6 0.000000 0.000000 0.000000 0.000000 0.000000 -0.028784
#
#
# Mechanical properties :
#
#
# Convention : Reuss Voigt Hill
#
# Bulk Modulus (GPa) = -4.40450 52.94611 24.27080
# Shear Modulus (GPa) = -3.16551 10.97925 3.90687
#
# Velocity S-wave (km/s) = -1.30885 2.43755 1.45406
# Velocity P-wave (km/s) = 2.16049 6.04774 3.99421
#
# Compressibility (1/GPa) = -0.22704031
#
# Stress axis : x y z
#
# Youngs Moduli (GPa) = -14.95775 -205.68188 -1.22566
#
# Poissons Ratio (x) = -8.89299 0.31653
# Poissons Ratio (y) = -0.64672 0.14128
# Poissons Ratio (z) = 3.86284 23.70885
#
# Static dielectric constant tensor:
#      x y z
#    x 1.635750 0.000000 0.000000 
#    y 0.000000 1.809990 0.000000 
#    z 0.000000 0.000000 1.632830 
# 
# From -- ./inp_files/12879.got.cif
#   From: 2010.05.17/outbox.ucp.g08.bks.cvg/sg71_7_cif.got.tgz:12879.got - 2010.06.11 16:29:00.
