data_PCOD9524625
_publ_section_title
;
Structure prediction by ZEFSAII (Michael W. Deem and Ramdas Pophale) SiO2 
 PCOD9524625
Probable space group: I M M M
;
_chemical_formula_sum "Si O2"
_cell_formula_units_Z 88
_cell_length_a 18.549764
_cell_length_b 7.347017
_cell_length_c 30.082550
_cell_angle_alpha 90.000000
_cell_angle_beta 90.000000
_cell_angle_gamma 90.000000
_cell_volume 4099.813306
_symmetry_space_group_name_H-M "I M M M"
_symmetry_group_IT_number 71
_symmetry_cell_setting 'orthorhombic'
loop_
_space_group_symop_operation_xyz
x,y,z
-x,-y,z
x,-y,-z
-x,y,-z
-x,-y,-z
x,y,-z
-x,y,z
x,-y,z
1/2+x,1/2+y,1/2+z
1/2-x,1/2-y,1/2+z
1/2+x,1/2-y,1/2-z
1/2-x,1/2+y,1/2-z
1/2-x,1/2-y,1/2-z
1/2+x,1/2+y,1/2-z
1/2-x,1/2+y,1/2+z
1/2+x,1/2-y,1/2+z
loop_
_atom_site_type_symbol
_atom_site_label
_atom_site_fract_x
_atom_site_fract_y
_atom_site_fract_z
Si Si1 0.500000 0.277731 0.449089
Si Si2 0.142813 0.222128 0.898067
Si Si3 0.788536 0.721878 0.448664
Si Si4 0.660795 0.214228 0.202893
Si Si5 0.081658 0.277600 0.615006
Si Si6 0.825471 0.218782 0.800403
O O1 0.500000 0.500000 0.448724
O O2 0.500000 0.220114 0.500000
O O3 0.427619 0.218934 0.424438
O O4 0.216700 0.278785 0.922210
O O5 0.141046 0.280212 0.846731
O O6 0.143482 0.000000 0.898370
O O7 0.787850 0.779991 0.500000
O O8 0.788094 0.500000 0.448738
O O9 0.859607 0.778316 0.421623
O O10 0.610199 0.283112 0.163551
O O11 0.742604 0.288076 0.200719
O O12 0.636844 0.234678 0.253891
O O13 0.667474 0.000000 0.194165
O O14 0.080604 0.500000 0.614688
O O15 0.000000 0.217796 0.606692
O O16 0.823013 0.000000 0.801550
#
# Coordination Sequence:
#
# PCOD9524625 Si02
#       6
#     8  16  16  16  16  16
#     4   9  16  24  36  56  83 115 145 171 208 261
#     4   9  15  25  38  55  82 112 140 172 213 256
#     4   9  15  23  37  56  79 108 140 173 211 256
#     4   9  16  28  44  62  85 114 145 175 211 254
#     4   9  16  26  39  56  81 112 143 175 211 253
#     4   9  16  27  45  64  85 113 143 176 214 254
#
# _framework density 21.464392
#
# number of rings (size 3 to 8) (size 9 to 14) (size 15 to 20)
#    0.000    3.000    1.818    0.545    0.000    2.545 
#    1.636    1.818    0.000    0.000    0.000    0.000 
#    0.000    5.818    0.000    1.636    0.000    1.818 
#
# Total GULP energy -245600.526181 kJ/mol
# GULP energy per Si atom -5581.830140 kJ/mol
# Density = 2.141554 g / cm^3
# Si number density = 21.464392 Si / 1000 Ang^3
#
#
#
# Elastic Constant Matrix: (Units=GPa)
#
#
# Indices 1 2 3 4 5 6 
#
# 1 123.9347 -4.1985 66.3072 0.0000 0.0000 0.0000
# 2 -4.1985 77.2002 -12.3398 0.0000 0.0000 0.0000
# 3 66.3072 -12.3398 163.7496 0.0000 0.0000 0.0000
# 4 0.0000 0.0000 0.0000 10.5605 0.0000 0.0000
# 5 0.0000 0.0000 0.0000 0.0000 26.9359 0.0000
# 6 0.0000 0.0000 0.0000 0.0000 0.0000 66.4020
#
#
#
# Elastic Compliance Matrix: (Units=1/GPa)
#
#
# Indices 1 2 3 4 5 6 
#
# 1 0.010301 -0.000108 -0.004179 0.000000 0.000000 0.000000
# 2 -0.000108 0.013112 0.001032 0.000000 0.000000 0.000000
# 3 -0.004179 0.001032 0.007877 0.000000 0.000000 0.000000
# 4 0.000000 0.000000 0.000000 0.094692 0.000000 0.000000
# 5 0.000000 0.000000 0.000000 0.000000 0.037125 0.000000
# 6 0.000000 0.000000 0.000000 0.000000 0.000000 0.015060
#
#
# Mechanical properties :
#
#
# Convention : Reuss Voigt Hill
#
# Bulk Modulus (GPa) = 40.35559 51.60247 45.97903
# Shear Modulus (GPa) = 25.91501 41.78741 33.85121
#
# Velocity S-wave (km/s) = 3.47846 4.41707 3.97556
# Velocity P-wave (km/s) = 5.91396 7.07864 6.52235
#
# Compressibility (1/GPa) = 0.02477971
#
# Stress axis : x y z
#
# Youngs Moduli (GPa) = 97.07653 76.26377 126.95206
#
# Poissons Ratio (x) = 0.00822 0.53058
# Poissons Ratio (y) = 0.01047 -0.13099
# Poissons Ratio (z) = 0.40572 -0.07869
#
# Static dielectric constant tensor:
#      x y z
#    x 1.726570 0.000000 0.000000 
#    y 0.000000 1.890480 0.000000 
#    z 0.000000 0.000000 1.757680 
# 
# From -- ./inp_files/22525.got.cif
#   From: 2010.05.17/outbox.cif.g08.bks.cpg/sg71_12_cif.got.tgz:22525.got - 2010.06.03 16:22:01.
