data_PCOD9524622
_publ_section_title
;
Structure prediction by ZEFSAII (Michael W. Deem and Ramdas Pophale) SiO2 
 PCOD9524622
Probable space group: I M M M
;
_chemical_formula_sum "Si O2"
_cell_formula_units_Z 88
_cell_length_a 7.338078
_cell_length_b 16.035926
_cell_length_c 32.610997
_cell_angle_alpha 90.000000
_cell_angle_beta 90.000000
_cell_angle_gamma 90.000000
_cell_volume 3837.429799
_symmetry_space_group_name_H-M "I M M M"
_symmetry_group_IT_number 71
_symmetry_cell_setting 'orthorhombic'
loop_
_space_group_symop_operation_xyz
x,y,z
-x,-y,z
x,-y,-z
-x,y,-z
-x,-y,-z
x,y,-z
-x,y,z
x,-y,z
1/2+x,1/2+y,1/2+z
1/2-x,1/2-y,1/2+z
1/2+x,1/2-y,1/2-z
1/2-x,1/2+y,1/2-z
1/2-x,1/2-y,1/2-z
1/2+x,1/2+y,1/2-z
1/2-x,1/2+y,1/2+z
1/2+x,1/2-y,1/2+z
loop_
_atom_site_type_symbol
_atom_site_label
_atom_site_fract_x
_atom_site_fract_y
_atom_site_fract_z
Si Si1 0.221593 0.685828 0.045372
Si Si2 0.217036 0.174028 0.807276
Si Si3 0.277291 0.339635 0.399714
Si Si4 0.277422 0.000000 0.661265
Si Si5 0.222329 0.000000 0.952627
Si Si6 0.278121 0.000000 0.432981
Si Si7 0.282479 0.144690 0.719464
O O1 0.279692 0.751398 0.080134
O O2 0.281664 0.589572 0.049647
O O3 0.000000 0.683962 0.047408
O O4 0.271610 0.716923 0.000000
O O5 0.283774 0.150725 0.852464
O O6 0.247500 0.119607 0.766557
O O7 0.289753 0.264267 0.792764
O O8 0.000000 0.180538 0.811561
O O9 0.500000 0.339650 0.399799
O O10 0.221077 0.417108 0.428037
O O11 0.224465 0.000000 0.614427
O O12 0.215056 0.920436 0.686462
O O13 0.500000 0.000000 0.661192
O O14 0.000000 0.000000 0.952930
O O15 0.280668 0.000000 0.000000
O O16 0.500000 0.000000 0.436670
O O17 0.500000 0.148500 0.715456
#
# Coordination Sequence:
#
# PCOD9524622 Si02
#       7
#    16  16  16   8   8   8  16
#     4   9  15  22  33  51  76 104 132 164 202 243
#     4   9  17  29  44  62  84 111 141 174 212 249
#     4   9  16  25  37  53  76 106 137 166 200 245
#     4   9  16  26  40  57  78 108 143 173 204 249
#     4   9  16  25  36  52  77 108 137 165 201 245
#     4   9  15  22  34  52  74 101 134 167 199 242
#     4   9  17  29  44  61  83 111 142 174 208 248
#
# _framework density 22.932016000000001
#
# number of rings (size 3 to 8) (size 9 to 14) (size 15 to 20)
#    0.000    3.000    0.000    1.909    0.000    8.364 
#    0.000    1.364    0.000    0.000    0.000    0.000 
#    0.000    3.636    0.000    0.727    0.000   29.091 
#
# Total GULP energy -245572.780875 kJ/mol
# GULP energy per Si atom -5581.199565 kJ/mol
# Density = 2.287982 g / cm^3
# Si number density = 22.932016 Si / 1000 Ang^3
#
#
#
# Elastic Constant Matrix: (Units=GPa)
#
#
# Indices 1 2 3 4 5 6 
#
# 1 88.2948 0.2833 0.9645 0.0000 0.0000 0.0000
# 2 0.2833 75.0299 34.8353 0.0000 0.0000 0.0000
# 3 0.9645 34.8353 165.9750 0.0000 0.0000 0.0000
# 4 0.0000 0.0000 0.0000 37.9442 0.0000 0.0000
# 5 0.0000 0.0000 0.0000 0.0000 7.3173 0.0000
# 6 0.0000 0.0000 0.0000 0.0000 0.0000 -37.9837
#
#
#
# Elastic Compliance Matrix: (Units=1/GPa)
#
#
# Indices 1 2 3 4 5 6 
#
# 1 0.011326 -0.000014 -0.000063 0.000000 0.000000 0.000000
# 2 -0.000014 0.014767 -0.003099 0.000000 0.000000 0.000000
# 3 -0.000063 -0.003099 0.006676 0.000000 0.000000 0.000000
# 4 0.000000 0.000000 0.000000 0.026355 0.000000 0.000000
# 5 0.000000 0.000000 0.000000 0.000000 0.136662 0.000000
# 6 0.000000 0.000000 0.000000 0.000000 0.000000 -0.026327
#
#
# Mechanical properties :
#
#
# Convention : Reuss Voigt Hill
#
# Bulk Modulus (GPa) = 37.85331 44.60730 41.23031
# Shear Modulus (GPa) = 27.08327 21.00335 24.04331
#
# Velocity S-wave (km/s) = 3.44033 3.02966 3.24151
# Velocity P-wave (km/s) = 5.68540 5.63318 5.65935
#
# Compressibility (1/GPa) = 0.02641777
#
# Stress axis : x y z
#
# Youngs Moduli (GPa) = 88.28914 67.71847 149.79362
#
# Poissons Ratio (x) = 0.00092 0.00943
# Poissons Ratio (y) = 0.00119 0.46425
# Poissons Ratio (z) = 0.00556 0.20988
#
# Static dielectric constant tensor:
#      x y z
#    x 1.957750 0.000000 0.000000 
#    y 0.000000 1.840570 0.000000 
#    z 0.000000 0.000000 1.826580 
# 
# From -- ./inp_files/69225.got.cif
#   From: 2010.05.17/outbox.cif.g08.bks.cpg/sg71_35_cif.got.tgz:69225.got - 2010.06.03 16:22:01.
