data_PCOD9524666
_publ_section_title
;
Structure prediction by ZEFSAII (Michael W. Deem and Ramdas Pophale) SiO2 
 PCOD9524666
Probable space group: I M M M
;
_chemical_formula_sum "Si O2"
_cell_formula_units_Z 60
_cell_length_a 21.000000
_cell_length_b 15.000000
_cell_length_c 21.000000
_cell_angle_alpha 90.000000
_cell_angle_beta 90.000000
_cell_angle_gamma 90.000000
_cell_volume 6615.000000
_symmetry_space_group_name_H-M "I M M M"
_symmetry_group_IT_number 71
_symmetry_cell_setting 'orthorhombic'
loop_
_space_group_symop_operation_xyz
x,y,z
-x,-y,z
x,-y,-z
-x,y,-z
-x,-y,-z
x,y,-z
-x,y,z
x,-y,z
1/2+x,1/2+y,1/2+z
1/2-x,1/2-y,1/2+z
1/2+x,1/2-y,1/2-z
1/2-x,1/2+y,1/2-z
1/2-x,1/2-y,1/2-z
1/2+x,1/2+y,1/2-z
1/2-x,1/2+y,1/2+z
1/2+x,1/2-y,1/2+z
loop_
_atom_site_type_symbol
_atom_site_label
_atom_site_fract_x
_atom_site_fract_y
_atom_site_fract_z
Si Si1 0.189104 0.344170 0.842532
Si Si2 0.576419 0.895324 0.000000
Si Si3 0.337612 0.096641 0.795382
Si Si4 0.070783 0.297336 0.927068
Si Si5 0.421524 0.228467 0.124204
Si Si6 0.307376 0.640345 0.701179
Si Si7 0.927944 0.902271 0.884750
Si Si8 0.670069 0.394964 0.148801
O O1 0.169811 0.400869 0.780891
O O2 0.129669 0.338982 0.889806
O O3 0.196758 0.245272 0.812967
O O4 0.256872 0.372930 0.872724
O O5 0.591833 0.833973 0.061956
O O6 0.500000 0.903124 0.000000
O O7 0.600485 0.000000 0.000000
O O8 0.385624 0.172913 0.819751
O O9 0.263531 0.106926 0.817227
O O10 0.361719 0.000000 0.816770
O O11 0.076687 0.189071 0.924295
O O12 0.000000 0.318463 0.900558
O O13 0.072595 0.325488 0.000000
O O14 0.500000 0.237446 0.130890
O O15 0.383135 0.323863 0.123526
O O16 0.367869 0.603291 0.662541
O O17 0.322249 0.619668 0.774831
O O18 0.000000 0.898704 0.855308
O O19 0.924528 0.000000 0.916952
O O20 0.655612 0.500000 0.136573
#
# Coordination Sequence:
#
# PCOD9524666 Si02
#       8
#    16   8  16  16  16  16  16  16
#     4  10  18  35  57  82 115 154 190 238 286 335
#     4   9  20  42  67  85 111 151 185 226 292 360
#     4  11  20  34  59  87 114 147 185 235 289 340
#     4   9  19  34  53  76 106 150 192 230 286 339
#     4  11  23  40  60  87 118 149 190 238 289 350
#     4  10  17  33  54  79 117 156 188 229 288 344
#     4   9  17  28  46  76 111 147 190 234 272 327
#     4  11  21  37  59  85 117 156 193 231 287 347
#
# _framework density 9.0702949999999998
#
# number of rings (size 3 to 8) (size 9 to 14) (size 15 to 20)
#    0.000    1.933    2.667    3.600    0.000    2.400 
#    1.200    1.667    0.000    3.600    0.000    3.733 
#    0.000    0.000    0.000    0.000    0.000    0.000 
#
# Total GULP energy -334059.043089 kJ/mol
# GULP energy per Si atom -5567.650718 kJ/mol
# Density = 0.904965 g / cm^3
# Si number density = 9.070295 Si / 1000 Ang^3
#
#
#
# Elastic Constant Matrix: (Units=GPa)
#
#
# Indices 1 2 3 4 5 6 
#
# 1 151.4827 48.8709 43.7666 0.0000 0.0000 0.0000
# 2 48.8709 134.5098 18.2620 0.0000 0.0000 0.0000
# 3 43.7666 18.2620 47.0708 0.0000 0.0000 0.0000
# 4 0.0000 0.0000 0.0000 6.2167 0.0000 0.0000
# 5 0.0000 0.0000 0.0000 0.0000 22.2648 0.0000
# 6 0.0000 0.0000 0.0000 0.0000 0.0000 27.7829
#
#
#
# Elastic Compliance Matrix: (Units=1/GPa)
#
#
# Indices 1 2 3 4 5 6 
#
# 1 0.009727 -0.002434 -0.008100 0.000000 0.000000 0.000000
# 2 -0.002434 0.008457 -0.001018 0.000000 0.000000 0.000000
# 3 -0.008100 -0.001018 0.029171 0.000000 0.000000 0.000000
# 4 0.000000 0.000000 0.000000 0.160858 0.000000 0.000000
# 5 0.000000 0.000000 0.000000 0.000000 0.044914 0.000000
# 6 0.000000 0.000000 0.000000 0.000000 0.000000 0.035993
#
#
# Mechanical properties :
#
#
# Convention : Reuss Voigt Hill
#
# Bulk Modulus (GPa) = 41.23506 61.65137 51.44322
# Shear Modulus (GPa) = 15.61004 26.06378 20.83691
#
# Velocity S-wave (km/s) = 2.93662 3.79458 3.39283
# Velocity P-wave (km/s) = 5.85478 7.29778 6.61574
#
# Compressibility (1/GPa) = 0.02425121
#
# Stress axis : x y z
#
# Youngs Moduli (GPa) = 102.80684 118.24480 34.28119
#
# Poissons Ratio (x) = 0.28785 0.27767
# Poissons Ratio (y) = 0.25027 0.03488
# Poissons Ratio (z) = 0.83271 0.12032
#
# Static dielectric constant tensor:
#      x y z
#    x 1.625970 0.000000 0.000000 
#    y 0.000000 1.685240 0.000000 
#    z 0.000000 0.000000 1.625850 
# 
# From -- ./inp_files/55133.got.cif
#   From: 2010.05.17/outbox.ucp.g08.bks.cvg/sg71_28_cif.got.tgz:55133.got - 2010.06.11 16:29:00.
