data_PCOD9524619
_publ_section_title
;
Structure prediction by ZEFSAII (Michael W. Deem and Ramdas Pophale) SiO2 
 PCOD9524619
Probable space group: I M M M
;
_chemical_formula_sum "Si O2"
_cell_formula_units_Z 88
_cell_length_a 28.807343
_cell_length_b 7.349384
_cell_length_c 20.208165
_cell_angle_alpha 90.000000
_cell_angle_beta 90.000000
_cell_angle_gamma 90.000000
_cell_volume 4278.396423
_symmetry_space_group_name_H-M "I M M M"
_symmetry_group_IT_number 71
_symmetry_cell_setting 'orthorhombic'
loop_
_space_group_symop_operation_xyz
x,y,z
-x,-y,z
x,-y,-z
-x,y,-z
-x,-y,-z
x,y,-z
-x,y,z
x,-y,z
1/2+x,1/2+y,1/2+z
1/2-x,1/2-y,1/2+z
1/2+x,1/2-y,1/2-z
1/2-x,1/2+y,1/2-z
1/2-x,1/2-y,1/2-z
1/2+x,1/2+y,1/2-z
1/2-x,1/2+y,1/2+z
1/2+x,1/2-y,1/2+z
loop_
_atom_site_type_symbol
_atom_site_label
_atom_site_fract_x
_atom_site_fract_y
_atom_site_fract_z
Si Si1 0.947428 0.778470 0.317950
Si Si2 0.213173 0.217987 0.339379
Si Si3 0.128309 0.222302 0.574950
Si Si4 0.583510 0.278208 0.670378
Si Si5 0.500000 0.722360 0.423780
Si Si6 0.185323 0.215496 0.193176
O O1 0.911208 0.719311 0.373554
O O2 0.932411 0.724181 0.244157
O O3 0.000000 0.720970 0.331331
O O4 0.946769 0.000000 0.317974
O O5 0.177941 0.280320 0.395587
O O6 0.196165 0.287726 0.267269
O O7 0.267425 0.258705 0.347407
O O8 0.209510 0.000000 0.336910
O O9 0.120804 0.282199 0.500000
O O10 0.127711 0.000000 0.574496
O O11 0.582602 0.500000 0.668349
O O12 0.545883 0.218814 0.616431
O O13 0.636937 0.217117 0.663197
O O14 0.500000 0.500000 0.423476
O O15 0.500000 0.779958 0.500000
O O16 0.178888 0.000000 0.201225
#
# Coordination Sequence:
#
# PCOD9524619 Si02
#       6
#    16  16  16  16   8  16
#     4   9  14  21  35  55  79 107 137 168 207 252
#     4   9  16  27  42  61  85 112 143 176 211 250
#     4   9  16  25  37  55  82 113 141 171 209 253
#     4   9  14  23  38  56  80 107 135 171 211 250
#     4   9  16  24  36  56  82 112 140 166 208 263
#     4   9  16  26  43  64  84 109 142 179 213 247
#
# _framework density 20.568453999999999
#
# number of rings (size 3 to 8) (size 9 to 14) (size 15 to 20)
#    0.000    3.000    2.727    0.000    0.000    0.364 
#    0.000    2.727    0.000    1.636    0.000    0.636 
#    0.000    2.909    0.000    1.636    0.000    1.818 
#
# Total GULP energy -245502.485798 kJ/mol
# GULP energy per Si atom -5579.601950 kJ/mol
# Density = 2.052164 g / cm^3
# Si number density = 20.568454 Si / 1000 Ang^3
#
#
#
# Elastic Constant Matrix: (Units=GPa)
#
#
# Indices 1 2 3 4 5 6 
#
# 1 235.5212 2.4075 120.3479 0.0000 0.0000 0.0000
# 2 2.4075 74.8572 2.7185 0.0000 0.0000 0.0000
# 3 120.3479 2.7185 162.6716 0.0000 0.0000 0.0000
# 4 0.0000 0.0000 0.0000 113.5834 0.0000 0.0000
# 5 0.0000 0.0000 0.0000 0.0000 29.0537 0.0000
# 6 0.0000 0.0000 0.0000 0.0000 0.0000 10.2374
#
#
#
# Elastic Compliance Matrix: (Units=1/GPa)
#
#
# Indices 1 2 3 4 5 6 
#
# 1 0.006827 -0.000036 -0.005050 0.000000 0.000000 0.000000
# 2 -0.000036 0.013367 -0.000197 0.000000 0.000000 0.000000
# 3 -0.005050 -0.000197 0.009887 0.000000 0.000000 0.000000
# 4 0.000000 0.000000 0.000000 0.008804 0.000000 0.000000
# 5 0.000000 0.000000 0.000000 0.000000 0.034419 0.000000
# 6 0.000000 0.000000 0.000000 0.000000 0.000000 0.097681
#
#
# Mechanical properties :
#
#
# Convention : Reuss Voigt Hill
#
# Bulk Modulus (GPa) = 51.24263 80.44422 65.84343
# Shear Modulus (GPa) = 26.58791 53.74663 40.16727
#
# Velocity S-wave (km/s) = 3.59925 5.11736 4.42391
# Velocity P-wave (km/s) = 6.49924 8.60882 7.62732
#
# Compressibility (1/GPa) = 0.01951500
#
# Stress axis : x y z
#
# Youngs Moduli (GPa) = 146.48318 74.81072 101.14596
#
# Poissons Ratio (x) = 0.00271 0.51078
# Poissons Ratio (y) = 0.00530 0.01989
# Poissons Ratio (z) = 0.73973 0.01471
#
# Static dielectric constant tensor:
#      x y z
#    x 1.733590 0.000000 0.000000 
#    y 0.000000 1.851570 0.000000 
#    z 0.000000 0.000000 1.682270 
# 
# From -- ./inp_files/16875.got.cif
#   From: 2010.05.17/outbox.cif.g08.bks.cpg/sg71_9_cif.got.tgz:16875.got - 2010.06.03 16:22:01.
