data_PCOD9524012
_publ_section_title
;
Structure prediction by ZEFSAII (Michael W. Deem and Ramdas Pophale) SiO2 
 PCOD9524012
Probable space group: I M M M
;
_chemical_formula_sum "Si O2"
_cell_formula_units_Z 84
_cell_length_a 21.138835
_cell_length_b 15.227555
_cell_length_c 15.078714
_cell_angle_alpha 90.000000
_cell_angle_beta 90.000000
_cell_angle_gamma 90.000000
_cell_volume 4853.729057
_symmetry_space_group_name_H-M "I M M M"
_symmetry_group_IT_number 71
_symmetry_cell_setting 'orthorhombic'
loop_
_space_group_symop_operation_xyz
x,y,z
-x,-y,z
x,-y,-z
-x,y,-z
-x,-y,-z
x,y,-z
-x,y,z
x,-y,z
1/2+x,1/2+y,1/2+z
1/2-x,1/2-y,1/2+z
1/2+x,1/2-y,1/2-z
1/2-x,1/2+y,1/2-z
1/2-x,1/2-y,1/2-z
1/2+x,1/2+y,1/2-z
1/2-x,1/2+y,1/2+z
1/2+x,1/2-y,1/2+z
loop_
_atom_site_type_symbol
_atom_site_label
_atom_site_fract_x
_atom_site_fract_y
_atom_site_fract_z
Si Si1 0.925581 0.740295 0.600733
Si Si2 0.163162 0.101022 0.347856
Si Si3 0.803014 0.345092 0.100469
Si Si4 0.789295 0.141447 0.846828
Si Si5 0.685743 0.500000 0.500000
Si Si6 0.853676 0.600934 0.283807
O O1 0.914343 0.707853 0.500000
O O2 0.885760 0.829171 0.613547
O O3 0.901041 0.668649 0.670533
O O4 0.000000 0.756473 0.611674
O O5 0.232599 0.114893 0.390090
O O6 0.173120 0.123366 0.243960
O O7 0.143933 0.000000 0.359005
O O8 0.796305 0.241915 0.123327
O O9 0.845804 0.385463 0.178319
O O10 0.825608 0.357486 0.000000
O O11 0.715771 0.122307 0.824195
O O12 0.811274 0.076299 0.922740
O O13 0.869333 0.500000 0.303266
#
# Coordination Sequence:
#
# PCOD9524012 Si02
#       6
#    16  16  16  16   4  16
#     4  11  25  41  58  81 110 151 200 238 278 333
#     4  11  21  37  57  82 119 151 183 231 284 342
#     4  11  20  33  58  88 119 150 179 223 288 349
#     4  11  19  32  54  89 119 149 180 223 287 347
#     4  12  20  28  56 100 118 142 196 226 280 366
#     4  11  22  37  57  82 117 150 188 233 282 343
#
# _framework density 17.306280999999998
#
# number of rings (size 3 to 8) (size 9 to 14) (size 15 to 20)
#    0.000    0.952    6.667    3.429    1.333    3.810 
#    0.000    1.905    0.000    0.571    0.000    2.000 
#    0.000    0.000    0.000    0.000    0.000    0.000 
#
# Total GULP energy -234112.863547 kJ/mol
# GULP energy per Si atom -5574.115799 kJ/mol
# Density = 1.726689 g / cm^3
# Si number density = 17.306281 Si / 1000 Ang^3
#
#
#
# Elastic Constant Matrix: (Units=GPa)
#
#
# Indices 1 2 3 4 5 6 
#
# 1 50.8384 27.6786 32.8458 0.0000 0.0000 0.0000
# 2 27.6786 92.4111 19.4606 0.0000 0.0000 0.0000
# 3 32.8458 19.4606 113.8341 0.0000 0.0000 0.0000
# 4 0.0000 0.0000 0.0000 31.0892 0.0000 0.0000
# 5 0.0000 0.0000 0.0000 0.0000 15.9998 0.0000
# 6 0.0000 0.0000 0.0000 0.0000 0.0000 -1.9988
#
#
#
# Elastic Compliance Matrix: (Units=1/GPa)
#
#
# Indices 1 2 3 4 5 6 
#
# 1 0.027858 -0.006900 -0.006859 0.000000 0.000000 0.000000
# 2 -0.006900 0.012934 -0.000220 0.000000 0.000000 0.000000
# 3 -0.006859 -0.000220 0.010801 0.000000 0.000000 0.000000
# 4 0.000000 0.000000 0.000000 0.032166 0.000000 0.000000
# 5 0.000000 0.000000 0.000000 0.000000 0.062501 0.000000
# 6 0.000000 0.000000 0.000000 0.000000 0.000000 -0.500291
#
#
# Mechanical properties :
#
#
# Convention : Reuss Voigt Hill
#
# Bulk Modulus (GPa) = 42.30778 46.33928 44.32353
# Shear Modulus (GPa) = -15.71357 20.82461 2.55552
#
# Velocity S-wave (km/s) = -3.01652 3.47262 1.21649
# Velocity P-wave (km/s) = 3.51668 6.55080 5.25737
#
# Compressibility (1/GPa) = 0.02363631
#
# Stress axis : x y z
#
# Youngs Moduli (GPa) = 35.89663 77.31481 92.58083
#
# Poissons Ratio (x) = 0.53343 0.63497
# Poissons Ratio (y) = 0.24767 0.02040
# Poissons Ratio (z) = 0.24620 0.01704
#
# Static dielectric constant tensor:
#      x y z
#    x 1.550120 0.000000 0.000000 
#    y 0.000000 1.588090 0.000000 
#    z 0.000000 0.000000 1.605390 
# 
# From -- ./inp_files/34379.got.cif
#   From: 2010.05.17/outbox.cif.g08.bks.cpg/sg71_18_cif.got.tgz:34379.got - 2010.06.03 16:22:01.
