data_PCOD9524537
_publ_section_title
;
Structure prediction by ZEFSAII (Michael W. Deem and Ramdas Pophale) SiO2 
 PCOD9524537
Probable space group: I M M M
;
_chemical_formula_sum "Si O2"
_cell_formula_units_Z 88
_cell_length_a 18.254556
_cell_length_b 30.240508
_cell_length_c 7.342409
_cell_angle_alpha 90.000000
_cell_angle_beta 90.000000
_cell_angle_gamma 90.000000
_cell_volume 4053.208356
_symmetry_space_group_name_H-M "I M M M"
_symmetry_group_IT_number 71
_symmetry_cell_setting 'orthorhombic'
loop_
_space_group_symop_operation_xyz
x,y,z
-x,-y,z
x,-y,-z
-x,y,-z
-x,-y,-z
x,y,-z
-x,y,z
x,-y,z
1/2+x,1/2+y,1/2+z
1/2-x,1/2-y,1/2+z
1/2+x,1/2-y,1/2-z
1/2-x,1/2+y,1/2-z
1/2-x,1/2-y,1/2-z
1/2+x,1/2+y,1/2-z
1/2-x,1/2+y,1/2+z
1/2+x,1/2-y,1/2+z
loop_
_atom_site_type_symbol
_atom_site_label
_atom_site_fract_x
_atom_site_fract_y
_atom_site_fract_z
Si Si1 0.913913 0.300967 0.778274
Si Si2 0.142875 0.394166 0.222127
Si Si3 0.000000 0.550831 0.221953
Si Si4 0.783761 0.949267 0.722921
Si Si5 0.082830 0.892610 0.286637
Si Si6 0.085330 0.795204 0.781467
O O1 0.869064 0.343672 0.717861
O O2 0.885589 0.252524 0.719482
O O3 0.000000 0.305528 0.726948
O O4 0.913495 0.301057 0.000000
O O5 0.216485 0.418450 0.280805
O O6 0.072425 0.422861 0.277885
O O7 0.143283 0.393665 0.000000
O O8 0.000000 0.500000 0.281285
O O9 0.000000 0.550516 0.000000
O O10 0.783846 0.948974 0.500000
O O11 0.859778 0.927804 0.786914
O O12 0.774661 0.000000 0.778780
O O13 0.075801 0.902179 0.500000
O O14 0.115280 0.842824 0.273986
O O15 0.000000 0.893076 0.209311
O O16 0.000000 0.795759 0.722862
O O17 0.086609 0.794854 0.000000
#
# Coordination Sequence:
#
# PCOD9524537 Si02
#       6
#    16  16   8  16  16  16
#     4   8  12  20  35  56  80 107 137 166 200 244
#     4   9  14  21  33  52  79 108 138 170 203 244
#     4   9  14  18  28  48  76 110 141 167 200 245
#     4   9  17  27  38  54  78 108 140 174 211 248
#     4   9  17  29  44  61  82 110 143 175 208 248
#     4   8  14  25  43  64  84 107 137 172 208 246
#
# _framework density 21.711195
#
# number of rings (size 3 to 8) (size 9 to 14) (size 15 to 20)
#    0.000    3.364    0.909    1.636    0.000    2.545 
#    0.000    2.727    0.000    0.545    0.000    2.545 
#    0.000    0.000    0.000    0.182    0.000    5.182 
#
# Total GULP energy -245384.834511 kJ/mol
# GULP energy per Si atom -5576.928057 kJ/mol
# Density = 2.166178 g / cm^3
# Si number density = 21.711195 Si / 1000 Ang^3
#
#
#
# Elastic Constant Matrix: (Units=GPa)
#
#
# Indices 1 2 3 4 5 6 
#
# 1 95.1859 56.3300 3.5082 0.0001 -0.0002 -0.0002
# 2 56.3300 92.9248 -4.1117 -0.0002 -0.0001 -0.0065
# 3 3.5082 -4.1117 80.3127 -0.0016 -0.0001 -0.0043
# 4 0.0001 -0.0002 -0.0016 1.5286 -0.0007 0.0068
# 5 -0.0002 -0.0001 -0.0001 -0.0007 -22.0252 0.0099
# 6 -0.0002 -0.0065 -0.0043 0.0068 0.0099 -321.4438
#
#
#
# Elastic Compliance Matrix: (Units=1/GPa)
#
#
# Indices 1 2 3 4 5 6 
#
# 1 0.016504 -0.010059 -0.001236 -0.000003 0.000000 0.000000
# 2 -0.010059 0.016917 0.001306 0.000004 0.000000 0.000000
# 3 -0.001236 0.001306 0.012572 0.000013 0.000000 0.000000
# 4 -0.000003 0.000004 0.000013 0.654214 -0.000021 0.000014
# 5 0.000000 0.000000 0.000000 -0.000021 -0.045402 -0.000001
# 6 0.000000 0.000000 0.000000 0.000014 -0.000001 -0.003111
#
#
# Mechanical properties :
#
#
# Convention : Reuss Voigt Hill
#
# Bulk Modulus (GPa) = 38.44111 42.20850 40.32480
# Shear Modulus (GPa) = 7.34921 -54.20831 -23.42955
#
# Velocity S-wave (km/s) = 1.84183 -5.00221 -3.28860
# Velocity P-wave (km/s) = 4.71881 3.72555 2.04786
#
# Compressibility (1/GPa) = 0.02601382
#
# Stress axis : x y z
#
# Youngs Moduli (GPa) = 60.58985 59.11179 79.54082
#
# Poissons Ratio (x) = 0.59463 0.09831
# Poissons Ratio (y) = 0.60950 -0.10384
# Poissons Ratio (z) = 0.07489 -0.07717
#
# Static dielectric constant tensor:
#      x y z
#    x 1.756290 0.000000 0.000000 
#    y 0.000000 1.787370 0.000000 
#    z 0.000000 0.000000 1.918490 
# 
# From -- ./inp_files/22520.got.cif
#   From: 2010.05.17/outbox.cif.g08.bks.cpg/sg71_12_cif.got.tgz:22520.got - 2010.06.03 16:22:01.
