data_PCOD9524653
_publ_section_title
;
Structure prediction by ZEFSAII (Michael W. Deem and Ramdas Pophale) SiO2 
 PCOD9524653
Probable space group: I M M M
;
_chemical_formula_sum "Si O2"
_cell_formula_units_Z 72
_cell_length_a 7.541718
_cell_length_b 13.622793
_cell_length_c 31.919206
_cell_angle_alpha 90.000000
_cell_angle_beta 90.000000
_cell_angle_gamma 90.000000
_cell_volume 3279.355706
_symmetry_space_group_name_H-M "I M M M"
_symmetry_group_IT_number 71
_symmetry_cell_setting 'orthorhombic'
loop_
_space_group_symop_operation_xyz
x,y,z
-x,-y,z
x,-y,-z
-x,y,-z
-x,-y,-z
x,y,-z
-x,y,z
x,-y,z
1/2+x,1/2+y,1/2+z
1/2-x,1/2-y,1/2+z
1/2+x,1/2-y,1/2-z
1/2-x,1/2+y,1/2-z
1/2-x,1/2-y,1/2-z
1/2+x,1/2+y,1/2-z
1/2-x,1/2+y,1/2+z
1/2+x,1/2-y,1/2+z
loop_
_atom_site_type_symbol
_atom_site_label
_atom_site_fract_x
_atom_site_fract_y
_atom_site_fract_z
Si Si1 0.210828 0.287620 0.952397
Si Si2 0.715535 0.678040 0.694006
Si Si3 0.783168 0.891876 0.896716
Si Si4 0.207633 0.392921 0.786050
Si Si5 0.289774 0.500000 0.952123
O O1 0.280582 0.197817 0.925183
O O2 0.237353 0.395783 0.932953
O O3 0.000000 0.274068 0.955404
O O4 0.283211 0.288252 0.000000
O O5 0.500000 0.678721 0.695919
O O6 0.769487 0.626261 0.651281
O O7 0.778086 0.624626 0.736040
O O8 0.779146 0.791493 0.694725
O O9 0.000000 0.890019 0.897227
O O10 0.727973 0.000000 0.911035
O O11 0.284626 0.500000 0.796665
O O12 0.000000 0.395795 0.797259
O O13 0.500000 0.500000 0.954726
O O14 0.214628 0.500000 0.000000
#
# Coordination Sequence:
#
# PCOD9524653 Si02
#       5
#    16  16  16  16   8
#     4   9  17  30  49  73  98 125 159 197 236 279
#     4   9  17  30  47  67  91 121 156 191 230 278
#     4   9  17  29  46  71  99 125 158 197 235 279
#     4   9  17  29  45  66  91 118 152 193 235 277
#     4   9  17  31  51  71  93 123 157 195 239 285
#
# _framework density 21.955532000000002
#
# number of rings (size 3 to 8) (size 9 to 14) (size 15 to 20)
#    0.000    3.000    0.000    1.000    0.000    3.111 
#    2.000    3.333    0.000    2.000    0.000    3.111 
#    0.000    0.000    0.000    0.000    0.000    0.000 
#
# Total GULP energy -200824.185411 kJ/mol
# GULP energy per Si atom -5578.449595 kJ/mol
# Density = 2.190556 g / cm^3
# Si number density = 21.955532 Si / 1000 Ang^3
#
#
#
# Elastic Constant Matrix: (Units=GPa)
#
#
# Indices 1 2 3 4 5 6 
#
# 1 54.8074 -3.6902 -4.5338 0.0000 0.0000 0.0000
# 2 -3.6902 193.3234 35.6481 0.0002 0.0000 0.0000
# 3 -4.5338 35.6481 31.0650 0.0001 0.0000 0.0000
# 4 0.0000 0.0002 0.0001 -127.8500 0.0000 0.0000
# 5 0.0000 0.0000 0.0000 0.0000 7.6913 0.0000
# 6 0.0000 0.0000 0.0000 0.0000 0.0000 -18.8880
#
#
#
# Elastic Compliance Matrix: (Units=1/GPa)
#
#
# Indices 1 2 3 4 5 6 
#
# 1 0.018474 -0.000183 0.002907 0.000000 0.000000 0.000000
# 2 -0.000183 0.006563 -0.007558 0.000000 0.000000 0.000000
# 3 0.002907 -0.007558 0.041288 0.000000 0.000000 0.000000
# 4 0.000000 0.000000 0.000000 -0.007822 0.000000 0.000000
# 5 0.000000 0.000000 0.000000 0.000000 0.130017 0.000000
# 6 0.000000 0.000000 0.000000 0.000000 0.000000 -0.052944
#
#
# Mechanical properties :
#
#
# Convention : Reuss Voigt Hill
#
# Bulk Modulus (GPa) = 17.65067 37.11601 27.38334
# Shear Modulus (GPa) = 30.46366 -11.02455 9.71956
#
# Velocity S-wave (km/s) = 3.72898 -2.24326 2.10631
# Velocity P-wave (km/s) = 5.15724 3.19878 4.29123
#
# Compressibility (1/GPa) = 0.05665507
#
# Stress axis : x y z
#
# Youngs Moduli (GPa) = 54.13069 152.37376 24.22035
#
# Poissons Ratio (x) = 0.02793 -0.07040
# Poissons Ratio (y) = 0.00992 0.18305
# Poissons Ratio (z) = -0.15733 1.15161
#
# Static dielectric constant tensor:
#      x y z
#    x 1.815000 0.000000 0.000000 
#    y 0.000000 1.838230 0.000000 
#    z 0.000000 0.000000 1.769730 
# 
# From -- ./inp_files/67848.got.cif
#   From: 2010.05.17/outbox.cif.g08.bks.cpg/sg71_34_cif.got.tgz:67848.got - 2010.06.03 16:22:01.
