data_PCOD9524896
_publ_section_title
;
Structure prediction by ZEFSAII (Michael W. Deem and Ramdas Pophale) SiO2 
 PCOD9524896
Probable space group: I M M M
;
_chemical_formula_sum "Si O2"
_cell_formula_units_Z 21
_cell_length_a 9.000000
_cell_length_b 21.000000
_cell_length_c 12.000000
_cell_angle_alpha 90.000000
_cell_angle_beta 90.000000
_cell_angle_gamma 90.000000
_cell_volume 2268.000000
_symmetry_space_group_name_H-M "I M M M"
_symmetry_group_IT_number 71
_symmetry_cell_setting 'orthorhombic'
loop_
_space_group_symop_operation_xyz
x,y,z
-x,-y,z
x,-y,-z
-x,y,-z
-x,-y,-z
x,y,-z
-x,y,z
x,-y,z
1/2+x,1/2+y,1/2+z
1/2-x,1/2-y,1/2+z
1/2+x,1/2-y,1/2-z
1/2-x,1/2+y,1/2-z
1/2-x,1/2-y,1/2-z
1/2+x,1/2+y,1/2-z
1/2-x,1/2+y,1/2+z
1/2+x,1/2-y,1/2+z
loop_
_atom_site_type_symbol
_atom_site_label
_atom_site_fract_x
_atom_site_fract_y
_atom_site_fract_z
Si Si1 0.665568 0.866895 0.000000
Si Si2 0.322106 0.318716 0.276387
Si Si3 0.500000 0.000000 0.000000
Si Si4 0.326408 0.072656 0.634189
O O1 0.754965 0.844640 0.892042
O O2 0.627550 0.942364 0.000000
O O3 0.500000 0.836075 0.000000
O O4 0.500000 0.313186 0.280429
O O5 0.250000 0.250000 0.250000
O O6 0.271283 0.371952 0.186850
O O7 0.320674 0.075340 0.500000
O O8 0.500000 0.081484 0.668042
O O9 0.284661 0.000000 0.667700
#
# Coordination Sequence:
#
# PCOD9524896 Si02
#       4
#     8  16   2  16
#     4  10  23  45  69  97 126 171 221 269 338 399
#     4  12  26  42  64  94 132 176 218 273 330 395
#     4   8  24  44  78  96 130 180 212 292 332 422
#     4   9  20  40  66  93 125 167 213 263 321 385
#
# _framework density 9.2592590000000001
#
# number of rings (size 3 to 8) (size 9 to 14) (size 15 to 20)
#    0.571    1.143    0.000    5.143    5.333    1.524 
#    0.000    2.857    0.000    0.000    0.000    0.000 
#    0.000    0.000    0.000    0.000    0.000    0.000 
#
# Total GULP energy -116998.129834 kJ/mol
# GULP energy per Si atom -5571.339516 kJ/mol
# Density = 0.923818 g / cm^3
# Si number density = 9.259259 Si / 1000 Ang^3
#
#
#
# Elastic Constant Matrix: (Units=GPa)
#
#
# Indices 1 2 3 4 5 6 
#
# 1 174.7466 101.8430 53.7269 0.0000 0.0000 0.0000
# 2 101.8430 195.4464 67.0105 0.0001 0.0000 0.0000
# 3 53.7269 67.0105 70.9557 0.0001 0.0000 0.0000
# 4 0.0000 0.0001 0.0001 17.3199 0.0000 0.0000
# 5 0.0000 0.0000 0.0000 0.0000 26.5232 0.0000
# 6 0.0000 0.0000 0.0000 0.0000 0.0000 42.5456
#
#
#
# Elastic Compliance Matrix: (Units=1/GPa)
#
#
# Indices 1 2 3 4 5 6 
#
# 1 0.008749 -0.003383 -0.003430 0.000000 0.000000 0.000000
# 2 -0.003383 0.008875 -0.005820 0.000000 0.000000 0.000000
# 3 -0.003430 -0.005820 0.022186 0.000000 0.000000 0.000000
# 4 0.000000 0.000000 0.000000 0.057737 0.000000 0.000000
# 5 0.000000 0.000000 0.000000 0.000000 0.037703 0.000000
# 6 0.000000 0.000000 0.000000 0.000000 0.000000 0.023504
#
#
# Mechanical properties :
#
#
# Convention : Reuss Voigt Hill
#
# Bulk Modulus (GPa) = 68.75127 98.47883 83.61505
# Shear Modulus (GPa) = 26.47383 31.84896 29.16139
#
# Velocity S-wave (km/s) = 3.78509 4.15160 3.97257
# Velocity P-wave (km/s) = 7.50392 8.73356 8.14199
#
# Compressibility (1/GPa) = 0.01454519
#
# Stress axis : x y z
#
# Youngs Moduli (GPa) = 114.30488 112.68192 45.07299
#
# Poissons Ratio (x) = 0.38118 0.15458
# Poissons Ratio (y) = 0.38667 0.26231
# Poissons Ratio (z) = 0.39202 0.65577
#
# Static dielectric constant tensor:
#      x y z
#    x 1.623060 0.000000 0.000000 
#    y 0.000000 1.613260 0.000000 
#    z 0.000000 0.000000 1.877990 
# 
# From -- ./inp_files/9129.got.cif
#   From: 2010.05.17/outbox.ucp.g08.bks.cvg/sg71_5_cif.got.tgz:9129.got - 2010.06.11 16:29:00.
