data_PCOD9524885
_publ_section_title
;
Structure prediction by ZEFSAII (Michael W. Deem and Ramdas Pophale) SiO2 
 PCOD9524885
Probable space group: I M M M
;
_chemical_formula_sum "Si O2"
_cell_formula_units_Z 44
_cell_length_a 30.000000
_cell_length_b 9.000000
_cell_length_c 18.000000
_cell_angle_alpha 90.000000
_cell_angle_beta 90.000000
_cell_angle_gamma 90.000000
_cell_volume 4860.000000
_symmetry_space_group_name_H-M "I M M M"
_symmetry_group_IT_number 71
_symmetry_cell_setting 'orthorhombic'
loop_
_space_group_symop_operation_xyz
x,y,z
-x,-y,z
x,-y,-z
-x,y,-z
-x,-y,-z
x,y,-z
-x,y,z
x,-y,z
1/2+x,1/2+y,1/2+z
1/2-x,1/2-y,1/2+z
1/2+x,1/2-y,1/2-z
1/2-x,1/2+y,1/2-z
1/2-x,1/2-y,1/2-z
1/2+x,1/2+y,1/2-z
1/2-x,1/2+y,1/2+z
1/2+x,1/2-y,1/2+z
loop_
_atom_site_type_symbol
_atom_site_label
_atom_site_fract_x
_atom_site_fract_y
_atom_site_fract_z
Si Si1 0.625301 0.819620 0.690135
Si Si2 0.296644 0.668810 0.911735
Si Si3 0.551327 0.675651 0.589239
Si Si4 0.776320 0.821637 0.180312
Si Si5 0.103321 0.812715 0.650450
Si Si6 0.446240 0.000000 0.910415
O O1 0.589214 0.774497 0.627602
O O2 0.675163 0.756549 0.673550
O O3 0.608080 0.731614 0.763331
O O4 0.626793 0.000000 0.700731
O O5 0.284970 0.500000 0.886860
O O6 0.257998 0.779402 0.885260
O O7 0.346449 0.700553 0.881860
O O8 0.299178 0.670462 0.000000
O O9 0.553772 0.690149 0.500000
O O10 0.500000 0.713207 0.611525
O O11 0.558322 0.500000 0.606815
O O12 0.750000 0.750000 0.250000
O O13 0.781577 0.000000 0.187576
O O14 0.074956 0.664471 0.617537
O O15 0.091659 0.000000 0.641860
O O16 0.500000 0.000000 0.893113
O O17 0.440906 0.000000 0.000000
#
# Coordination Sequence:
#
# PCOD9524885 Si02
#       6
#    16  16  16  16  16   8
#     4  12  24  40  64  94 130 173 218 268 323 384
#     4  10  22  40  63  92 124 163 213 264 320 387
#     4   9  20  41  67  94 126 166 213 266 326 390
#     4  12  24  39  60  89 125 165 208 258 321 381
#     4  11  23  43  68  96 131 173 218 271 330 389
#     4  11  26  46  68  98 133 169 219 277 331 397
#
# _framework density 9.0534979999999994
#
# number of rings (size 3 to 8) (size 9 to 14) (size 15 to 20)
#    0.000    1.182    2.727    4.364    1.273    4.000 
#    0.000    1.818    0.000    0.000    0.000    0.000 
#    0.000    0.000    0.000    0.000    0.000    0.000 
#
# Total GULP energy -245039.339108 kJ/mol
# GULP energy per Si atom -5569.075889 kJ/mol
# Density = 0.903289 g / cm^3
# Si number density = 9.053498 Si / 1000 Ang^3
#
#
#
# Elastic Constant Matrix: (Units=GPa)
#
#
# Indices 1 2 3 4 5 6 
#
# 1 135.0854 65.3325 37.3492 0.0000 0.0000 0.0000
# 2 65.3325 161.8814 30.7340 0.0000 0.0000 0.0000
# 3 37.3492 30.7340 70.1445 0.0000 0.0000 0.0000
# 4 0.0000 0.0000 0.0000 34.9418 0.0000 0.0000
# 5 0.0000 0.0000 0.0000 0.0000 37.1946 0.0000
# 6 0.0000 0.0000 0.0000 0.0000 0.0000 45.5395
#
#
#
# Elastic Compliance Matrix: (Units=1/GPa)
#
#
# Indices 1 2 3 4 5 6 
#
# 1 0.010097 -0.003331 -0.003916 0.000000 0.000000 0.000000
# 2 -0.003331 0.007837 -0.001660 0.000000 0.000000 0.000000
# 3 -0.003916 -0.001660 0.017069 0.000000 0.000000 0.000000
# 4 0.000000 0.000000 0.000000 0.028619 0.000000 0.000000
# 5 0.000000 0.000000 0.000000 0.000000 0.026886 0.000000
# 6 0.000000 0.000000 0.000000 0.000000 0.000000 0.021959
#
#
# Mechanical properties :
#
#
# Convention : Reuss Voigt Hill
#
# Bulk Modulus (GPa) = 58.18313 70.43806 64.31060
# Shear Modulus (GPa) = 36.76174 39.11487 37.93830
#
# Velocity S-wave (km/s) = 4.51072 4.65285 4.58233
# Velocity P-wave (km/s) = 7.70269 8.23716 7.97440
#
# Compressibility (1/GPa) = 0.01718711
#
# Stress axis : x y z
#
# Youngs Moduli (GPa) = 99.04210 127.60023 58.58575
#
# Poissons Ratio (x) = 0.42507 0.22945
# Poissons Ratio (y) = 0.32994 0.09725
# Poissons Ratio (z) = 0.38790 0.21182
#
# Static dielectric constant tensor:
#      x y z
#    x 1.628090 0.000000 0.000000 
#    y 0.000000 1.672320 0.000000 
#    z 0.000000 0.000000 1.673980 
# 
# From -- ./inp_files/49239.got.cif
#   From: 2010.05.17/outbox.ucp.g08.bks.cvg/sg71_25_cif.got.tgz:49239.got - 2010.06.11 16:29:00.
