data_PCOD9524437
_publ_section_title
;
Structure prediction by ZEFSAII (Michael W. Deem and Ramdas Pophale) SiO2 
 PCOD9524437
Probable space group: I M M M
;
_chemical_formula_sum "Si O2"
_cell_formula_units_Z 72
_cell_length_a 16.305068
_cell_length_b 8.848001
_cell_length_c 25.169775
_cell_angle_alpha 90.000000
_cell_angle_beta 90.000000
_cell_angle_gamma 90.000000
_cell_volume 3631.174423
_symmetry_space_group_name_H-M "I M M M"
_symmetry_group_IT_number 71
_symmetry_cell_setting 'orthorhombic'
loop_
_space_group_symop_operation_xyz
x,y,z
-x,-y,z
x,-y,-z
-x,y,-z
-x,-y,-z
x,y,-z
-x,y,z
x,-y,z
1/2+x,1/2+y,1/2+z
1/2-x,1/2-y,1/2+z
1/2+x,1/2-y,1/2-z
1/2-x,1/2+y,1/2-z
1/2-x,1/2-y,1/2-z
1/2+x,1/2+y,1/2-z
1/2-x,1/2+y,1/2+z
1/2+x,1/2-y,1/2+z
loop_
_atom_site_type_symbol
_atom_site_label
_atom_site_fract_x
_atom_site_fract_y
_atom_site_fract_z
Si Si1 0.500000 0.500000 0.309613
Si Si2 0.597443 0.325125 0.909692
Si Si3 0.834944 0.334746 0.312002
Si Si4 0.854199 0.756509 0.808891
Si Si5 0.401734 0.000000 0.390135
Si Si6 0.201781 0.319690 0.500000
Si Si7 0.693880 0.000000 0.500000
O O1 0.427903 0.372014 0.309719
O O2 0.500000 0.308188 0.916164
O O3 0.618568 0.500000 0.922805
O O4 0.623267 0.289479 0.849291
O O5 0.646205 0.212301 0.948093
O O6 0.863289 0.500000 0.329825
O O7 0.854165 0.315317 0.249967
O O8 0.736774 0.322701 0.316960
O O9 0.870516 0.640858 0.856031
O O10 0.500000 0.000000 0.393365
O O11 0.361014 0.000000 0.447408
O O12 0.229694 0.500000 0.500000
O O13 0.260722 0.167501 0.500000
#
# Coordination Sequence:
#
# PCOD9524437 Si02
#       7
#     4  16  16  16   8   8   4
#     4  12  24  44  68  99 136 185 238 290 362 428
#     4  11  25  42  68 101 145 189 237 292 357 424
#     4  11  24  41  64 101 141 184 239 291 346 429
#     4  11  25  42  68  98 139 186 232 293 360 420
#     4  12  25  47  71 102 138 186 234 299 369 440
#     4  12  25  48  74 103 135 191 240 297 362 428
#     4  12  27  50  77 104 142 182 240 314 373 427
#
# _framework density 19.828295000000001
#
# number of rings (size 3 to 8) (size 9 to 14) (size 15 to 20)
#    0.000    0.667    4.444    2.500    4.667    3.111 
#    2.000    0.000    0.000    1.333    0.000    0.000 
#    0.000    0.000    0.000    0.000    0.000    0.000 
#
# Total GULP energy -200514.857207 kJ/mol
# GULP energy per Si atom -5569.857145 kJ/mol
# Density = 1.978316 g / cm^3
# Si number density = 19.828295 Si / 1000 Ang^3
#
#
#
# Elastic Constant Matrix: (Units=GPa)
#
#
# Indices 1 2 3 4 5 6 
#
# 1 51.4473 53.5789 53.6485 0.0000 0.0000 0.0000
# 2 53.5789 137.8979 44.3533 0.0000 0.0000 0.0000
# 3 53.6485 44.3533 124.5132 0.0000 0.0000 0.0000
# 4 0.0000 0.0000 0.0000 36.0694 0.0000 0.0000
# 5 0.0000 0.0000 0.0000 0.0000 -100.3094 0.0000
# 6 0.0000 0.0000 0.0000 0.0000 0.0000 27.7865
#
#
#
# Elastic Compliance Matrix: (Units=1/GPa)
#
#
# Indices 1 2 3 4 5 6 
#
# 1 0.053759 -0.015176 -0.017757 0.000000 0.000000 0.000000
# 2 -0.015176 0.012474 0.002095 0.000000 0.000000 0.000000
# 3 -0.017757 0.002095 0.014936 0.000000 0.000000 0.000000
# 4 0.000000 0.000000 0.000000 0.027724 0.000000 0.000000
# 5 0.000000 0.000000 0.000000 0.000000 -0.009969 0.000000
# 6 0.000000 0.000000 0.000000 0.000000 0.000000 0.035989
#
#
# Mechanical properties :
#
#
# Convention : Reuss Voigt Hill
#
# Bulk Modulus (GPa) = 51.29906 68.55777 59.92841
# Shear Modulus (GPa) = 24.62004 3.52782 14.07393
#
# Velocity S-wave (km/s) = 3.52754 1.33531 2.66708
# Velocity P-wave (km/s) = 6.52068 6.08508 6.30664
#
# Compressibility (1/GPa) = 0.01949354
#
# Stress axis : x y z
#
# Youngs Moduli (GPa) = 18.60150 80.16425 66.95351
#
# Poissons Ratio (x) = 1.21659 1.18889
# Poissons Ratio (y) = 0.28230 -0.14029
# Poissons Ratio (z) = 0.33031 -0.16798
#
# Static dielectric constant tensor:
#      x y z
#    x 1.662080 0.000000 0.000000 
#    y 0.000000 1.730110 0.000000 
#    z 0.000000 0.000000 1.678820 
# 
# From -- ./inp_files/65201.got.cif
#   From: 2010.05.17/outbox.cif.g08.bks.cpg/sg71_33_cif.got.tgz:65201.got - 2010.06.03 16:22:01.
