data_PCOD9524713
_publ_section_title
;
Structure prediction by ZEFSAII (Michael W. Deem and Ramdas Pophale) SiO2 
 PCOD9524713
Probable space group: I M M M
;
_chemical_formula_sum "Si O2"
_cell_formula_units_Z 52
_cell_length_a 21.000000
_cell_length_b 9.000000
_cell_length_c 30.000000
_cell_angle_alpha 90.000000
_cell_angle_beta 90.000000
_cell_angle_gamma 90.000000
_cell_volume 5670.000000
_symmetry_space_group_name_H-M "I M M M"
_symmetry_group_IT_number 71
_symmetry_cell_setting 'orthorhombic'
loop_
_space_group_symop_operation_xyz
x,y,z
-x,-y,z
x,-y,-z
-x,y,-z
-x,-y,-z
x,y,-z
-x,y,z
x,-y,z
1/2+x,1/2+y,1/2+z
1/2-x,1/2-y,1/2+z
1/2+x,1/2-y,1/2-z
1/2-x,1/2+y,1/2-z
1/2-x,1/2-y,1/2-z
1/2+x,1/2+y,1/2-z
1/2-x,1/2+y,1/2+z
1/2+x,1/2-y,1/2+z
loop_
_atom_site_type_symbol
_atom_site_label
_atom_site_fract_x
_atom_site_fract_y
_atom_site_fract_z
Si Si1 0.569735 0.820148 0.447251
Si Si2 0.426987 0.177434 0.000000
Si Si3 0.349243 0.171249 0.764606
Si Si4 0.213179 0.170310 0.185630
Si Si5 0.202817 0.322016 0.092720
Si Si6 0.572863 0.675650 0.162839
Si Si7 0.656026 0.677790 0.924088
O O1 0.572085 0.790770 0.500000
O O2 0.500000 0.767202 0.430457
O O3 0.635678 0.763955 0.426220
O O4 0.569645 0.000000 0.441874
O O5 0.389235 0.239348 0.041989
O O6 0.500000 0.229714 0.000000
O O7 0.426800 0.000000 0.000000
O O8 0.283789 0.180192 0.793277
O O9 0.336369 0.276858 0.722886
O O10 0.406445 0.228241 0.794991
O O11 0.357339 0.000000 0.751027
O O12 0.207661 0.277964 0.144009
O O13 0.202486 0.000000 0.172311
O O14 0.202342 0.500000 0.087562
O O15 0.270488 0.271412 0.072137
O O16 0.500000 0.706911 0.148506
O O17 0.576550 0.500000 0.173546
O O18 0.624651 0.703598 0.124252
O O19 0.654136 0.500000 0.932173
#
# Coordination Sequence:
#
# PCOD9524713 Si02
#       7
#    16   8  16  16  16  16  16
#     4   8  15  29  51  80 111 140 172 214 265 317
#     4  11  25  41  55  75 108 149 188 230 281 331
#     4  10  20  34  54  78 105 139 181 224 267 317
#     4  10  20  34  54  78 108 141 176 221 274 323
#     4  10  19  32  56  85 111 140 181 227 270 324
#     4  10  20  35  55  79 109 144 180 222 275 329
#     4  10  21  36  57  82 109 142 185 231 274 328
#
# _framework density 9.1710759999999993
#
# number of rings (size 3 to 8) (size 9 to 14) (size 15 to 20)
#    0.000    2.231    1.538    2.077    1.077    4.000 
#    0.000    0.769    0.000    3.231    0.000    1.077 
#    0.000    0.000    0.000    0.000    0.000    0.000 
#
# Total GULP energy -289830.562982 kJ/mol
# GULP energy per Si atom -5573.664673 kJ/mol
# Density = 0.915020 g / cm^3
# Si number density = 9.171076 Si / 1000 Ang^3
#
#
#
# Elastic Constant Matrix: (Units=GPa)
#
#
# Indices 1 2 3 4 5 6 
#
# 1 144.5688 27.0357 32.4166 0.0000 0.0000 0.0000
# 2 27.0357 -11.9508 4.1648 0.0000 0.0000 0.0000
# 3 32.4166 4.1648 27.5604 0.0000 0.0000 0.0000
# 4 0.0000 0.0000 0.0000 17.9009 0.0000 0.0000
# 5 0.0000 0.0000 0.0000 0.0000 18.3567 0.0000
# 6 0.0000 0.0000 0.0000 0.0000 0.0000 19.4657
#
#
#
# Elastic Compliance Matrix: (Units=1/GPa)
#
#
# Indices 1 2 3 4 5 6 
#
# 1 0.006878 0.012103 -0.009919 0.000000 0.000000 0.000000
# 2 0.012103 -0.058193 -0.005441 0.000000 0.000000 0.000000
# 3 -0.009919 -0.005441 0.048773 0.000000 0.000000 0.000000
# 4 0.000000 0.000000 0.000000 0.055863 0.000000 0.000000
# 5 0.000000 0.000000 0.000000 0.000000 0.054476 0.000000
# 6 0.000000 0.000000 0.000000 0.000000 0.000000 0.051372
#
#
# Mechanical properties :
#
#
# Convention : Reuss Voigt Hill
#
# Bulk Modulus (GPa) = -110.40900 31.93475 -39.23713
# Shear Modulus (GPa) = 30.73808 17.58206 24.16007
#
# Velocity S-wave (km/s) = 4.09811 3.09942 3.63325
# Velocity P-wave (km/s) = 6.15890 5.50063 1.95897
#
# Compressibility (1/GPa) = -0.00905723
#
# Stress axis : x y z
#
# Youngs Moduli (GPa) = 145.39437 -17.18418 20.50335
#
# Poissons Ratio (x) = 0.20798 0.20337
# Poissons Ratio (y) = -1.75967 0.11157
# Poissons Ratio (z) = 1.44212 -0.09351
#
# Static dielectric constant tensor:
#      x y z
#    x 1.648360 0.000000 0.000000 
#    y 0.000000 1.606160 0.000000 
#    z 0.000000 0.000000 1.640520 
# 
# From -- ./inp_files/70710.got.cif
#   From: 2010.05.17/outbox.ucp.g08.bks.cvg/sg71_36_cif.got.tgz:70710.got - 2010.06.11 16:29:00.
