data_PCOD9524267
_publ_section_title
;
Structure prediction by ZEFSAII (Michael W. Deem and Ramdas Pophale) SiO2 
 PCOD9524267
Probable space group: I M M M
;
_chemical_formula_sum "Si O2"
_cell_formula_units_Z 88
_cell_length_a 7.672799
_cell_length_b 23.269647
_cell_length_c 23.442073
_cell_angle_alpha 90.000000
_cell_angle_beta 90.000000
_cell_angle_gamma 90.000000
_cell_volume 4185.425640
_symmetry_space_group_name_H-M "I M M M"
_symmetry_group_IT_number 71
_symmetry_cell_setting 'orthorhombic'
loop_
_space_group_symop_operation_xyz
x,y,z
-x,-y,z
x,-y,-z
-x,y,-z
-x,-y,-z
x,y,-z
-x,y,z
x,-y,z
1/2+x,1/2+y,1/2+z
1/2-x,1/2-y,1/2+z
1/2+x,1/2-y,1/2-z
1/2-x,1/2+y,1/2-z
1/2-x,1/2-y,1/2-z
1/2+x,1/2+y,1/2-z
1/2-x,1/2+y,1/2+z
1/2+x,1/2-y,1/2+z
loop_
_atom_site_type_symbol
_atom_site_label
_atom_site_fract_x
_atom_site_fract_y
_atom_site_fract_z
Si Si1 0.286776 0.437490 0.788380
Si Si2 0.802319 0.705355 0.500000
Si Si3 0.197940 0.155467 0.500000
Si Si4 0.796669 0.912391 0.836867
Si Si5 0.711437 0.208262 0.123539
Si Si6 0.296330 0.000000 0.935201
Si Si7 0.785833 0.160590 0.374467
O O1 0.500000 0.434659 0.787279
O O2 0.239557 0.500000 0.812305
O O3 0.222099 0.433924 0.723248
O O4 0.228969 0.384358 0.826969
O O5 0.814199 0.774830 0.500000
O O6 0.720288 0.691395 0.439643
O O7 0.000000 0.681580 0.500000
O O8 0.275514 0.142379 0.561972
O O9 0.000000 0.132285 0.500000
O O10 0.766608 0.844112 0.837565
O O11 0.738784 0.944963 0.894278
O O12 0.000000 0.924655 0.834578
O O13 0.500000 0.209244 0.120694
O O14 0.767076 0.273257 0.137273
O O15 0.500000 0.000000 0.943620
O O16 0.217248 0.000000 0.000000
O O17 0.000000 0.160962 0.376542
#
# Coordination Sequence:
#
# PCOD9524267 Si02
#       7
#    16   8   8  16  16   8  16
#     4   9  17  31  48  67  98 142 179 210 262 320
#     4   7  12  24  43  65  96 128 158 199 253 300
#     4   7  10  20  39  67  97 126 163 208 249 289
#     4  11  22  36  53  76 107 141 173 209 260 317
#     4   9  17  30  49  75 101 133 176 220 260 302
#     4  11  25  43  61  79 101 134 177 222 262 303
#     4   8  14  26  47  72 101 137 177 218 259 305
#
# _framework density 21.02534
#
# number of rings (size 3 to 8) (size 9 to 14) (size 15 to 20)
#    0.000    3.000    0.909    3.000    1.273    1.455 
#    0.000    0.455    0.000    3.818    0.000    0.000 
#    0.000    0.000    0.000    0.818    0.000    1.455 
#
# Total GULP energy -245052.345737 kJ/mol
# GULP energy per Si atom -5569.371494 kJ/mol
# Density = 2.097749 g / cm^3
# Si number density = 21.025340 Si / 1000 Ang^3
#
#
#
# Elastic Constant Matrix: (Units=GPa)
#
#
# Indices 1 2 3 4 5 6 
#
# 1 38.6327 0.8277 7.0840 0.0000 0.0000 0.0000
# 2 0.8277 135.7614 77.5585 0.0000 0.0000 0.0000
# 3 7.0840 77.5585 120.0199 0.0000 0.0000 0.0000
# 4 0.0000 0.0000 0.0000 23.7143 0.0000 0.0000
# 5 0.0000 0.0000 0.0000 0.0000 -1.3863 0.0000
# 6 0.0000 0.0000 0.0000 0.0000 0.0000 1.0909
#
#
#
# Elastic Compliance Matrix: (Units=1/GPa)
#
#
# Indices 1 2 3 4 5 6 
#
# 1 0.026281 0.001151 -0.002295 0.000000 0.000000 0.000000
# 2 0.001151 0.011727 -0.007646 0.000000 0.000000 0.000000
# 3 -0.002295 -0.007646 0.013408 0.000000 0.000000 0.000000
# 4 0.000000 0.000000 0.000000 0.042169 0.000000 0.000000
# 5 0.000000 0.000000 0.000000 0.000000 -0.721346 0.000000
# 6 0.000000 0.000000 0.000000 0.000000 0.000000 0.916671
#
#
# Mechanical properties :
#
#
# Convention : Reuss Voigt Hill
#
# Bulk Modulus (GPa) = 29.55423 51.70604 40.63014
# Shear Modulus (GPa) = 15.73474 18.61336 17.17405
#
# Velocity S-wave (km/s) = 2.73860 2.97860 2.86112
# Velocity P-wave (km/s) = 4.90784 6.03946 5.50282
#
# Compressibility (1/GPa) = 0.03383610
#
# Stress axis : x y z
#
# Youngs Moduli (GPa) = 38.05033 85.27402 74.58040
#
# Poissons Ratio (x) = -0.09813 0.17115
# Poissons Ratio (y) = -0.04379 0.57024
# Poissons Ratio (z) = 0.08732 0.65201
#
# Static dielectric constant tensor:
#      x y z
#    x 1.799050 0.000000 0.000000 
#    y 0.000000 1.727340 0.000000 
#    z 0.000000 0.000000 1.811660 
# 
# From -- ./inp_files/57618.got.cif
#   From: 2010.05.17/outbox.cif.g08.bks.cpg/sg71_29_cif.got.tgz:57618.got - 2010.06.03 16:22:01.
