data_PCOD9524404
_publ_section_title
;
Structure prediction by ZEFSAII (Michael W. Deem and Ramdas Pophale) SiO2 
 PCOD9524404
Probable space group: I M M M
;
_chemical_formula_sum "Si O2"
_cell_formula_units_Z 80
_cell_length_a 16.106645
_cell_length_b 8.191857
_cell_length_c 30.005557
_cell_angle_alpha 90.000000
_cell_angle_beta 90.000000
_cell_angle_gamma 90.000000
_cell_volume 3959.033187
_symmetry_space_group_name_H-M "I M M M"
_symmetry_group_IT_number 71
_symmetry_cell_setting 'orthorhombic'
loop_
_space_group_symop_operation_xyz
x,y,z
-x,-y,z
x,-y,-z
-x,y,-z
-x,-y,-z
x,y,-z
-x,y,z
x,-y,z
1/2+x,1/2+y,1/2+z
1/2-x,1/2-y,1/2+z
1/2+x,1/2-y,1/2-z
1/2-x,1/2+y,1/2-z
1/2-x,1/2-y,1/2-z
1/2+x,1/2+y,1/2-z
1/2-x,1/2+y,1/2+z
1/2+x,1/2-y,1/2+z
loop_
_atom_site_type_symbol
_atom_site_label
_atom_site_fract_x
_atom_site_fract_y
_atom_site_fract_z
Si Si1 0.908746 0.200023 0.643739
Si Si2 0.348591 0.196885 0.450423
Si Si3 0.408831 0.693564 0.355801
Si Si4 0.750685 0.806088 0.300789
Si Si5 0.347663 0.301780 0.951337
O O1 0.831855 0.258993 0.673253
O O2 0.894664 0.253771 0.592657
O O3 0.000000 0.249503 0.659654
O O4 0.906763 0.000000 0.643672
O O5 0.376895 0.248196 0.500000
O O6 0.394102 0.269521 0.407971
O O7 0.250335 0.236294 0.446844
O O8 0.355702 0.000000 0.448215
O O9 0.500000 0.758252 0.342801
O O10 0.408753 0.500000 0.349398
O O11 0.332660 0.761846 0.327366
O O12 0.750000 0.750000 0.250000
O O13 0.757450 0.000000 0.301147
O O14 0.353348 0.500000 0.951935
O O15 0.376507 0.243443 0.000000
#
# Coordination Sequence:
#
# PCOD9524404 Si02
#       5
#    16  16  16  16  16
#     4   9  17  30  52  83 115 145 178 223 280 338
#     4   9  17  32  56  85 117 154 196 240 288 346
#     4  11  24  40  59  85 117 154 199 248 295 346
#     4  11  23  41  63  86 114 149 190 240 297 356
#     4   8  13  24  46  78 113 145 179 219 265 326
#
# _framework density 20.206952999999999
#
# number of rings (size 3 to 8) (size 9 to 14) (size 15 to 20)
#    0.000    2.400    2.000    2.400    0.000    3.600 
#    0.000    6.000    0.000    1.800    0.000    0.000 
#    0.000    3.200    0.000    0.000    0.000    0.000 
#
# Total GULP energy -223222.871397 kJ/mol
# GULP energy per Si atom -5580.571785 kJ/mol
# Density = 2.016096 g / cm^3
# Si number density = 20.206953 Si / 1000 Ang^3
#
#
#
# Elastic Constant Matrix: (Units=GPa)
#
#
# Indices 1 2 3 4 5 6 
#
# 1 156.8611 16.5624 94.6084 0.0000 0.0000 0.0000
# 2 16.5624 15.1454 12.3166 0.0000 0.0000 0.0000
# 3 94.6084 12.3166 149.0650 0.0000 0.0000 0.0000
# 4 0.0000 0.0000 0.0000 27.3571 0.0000 0.0000
# 5 0.0000 0.0000 0.0000 0.0000 -2.3142 0.0000
# 6 0.0000 0.0000 0.0000 0.0000 0.0000 13.6009
#
#
#
# Elastic Compliance Matrix: (Units=1/GPa)
#
#
# Indices 1 2 3 4 5 6 
#
# 1 0.010941 -0.006773 -0.006384 0.000000 0.000000 0.000000
# 2 -0.006773 0.074975 -0.001896 0.000000 0.000000 0.000000
# 3 -0.006384 -0.001896 0.010917 0.000000 0.000000 0.000000
# 4 0.000000 0.000000 0.000000 0.036554 0.000000 0.000000
# 5 0.000000 0.000000 0.000000 0.000000 -0.432118 0.000000
# 6 0.000000 0.000000 0.000000 0.000000 0.000000 0.073524
#
#
# Mechanical properties :
#
#
# Convention : Reuss Voigt Hill
#
# Bulk Modulus (GPa) = 14.98653 63.11623 39.05138
# Shear Modulus (GPa) = -28.92544 20.90104 -4.01220
#
# Velocity S-wave (km/s) = -3.78757 3.21962 -1.41063
# Velocity P-wave (km/s) = 3.41979 6.71744 4.08834
#
# Compressibility (1/GPa) = 0.06672660
#
# Stress axis : x y z
#
# Youngs Moduli (GPa) = 91.40161 13.33773 91.59909
#
# Poissons Ratio (x) = 0.09033 0.58479
# Poissons Ratio (y) = 0.61902 0.17372
# Poissons Ratio (z) = 0.58353 0.02529
#
# Static dielectric constant tensor:
#      x y z
#    x 1.733820 0.000000 0.000000 
#    y 0.000000 1.717760 0.000000 
#    z 0.000000 0.000000 1.715440 
# 
# From -- ./inp_files/65799.got.cif
#   From: 2010.05.17/outbox.cif.g08.bks.cpg/sg71_33_cif.got.tgz:65799.got - 2010.06.03 16:22:01.
