data_PCOD9524381
_publ_section_title
;
Structure prediction by ZEFSAII (Michael W. Deem and Ramdas Pophale) SiO2 
 PCOD9524381
Probable space group: I M M M
;
_chemical_formula_sum "Si O2"
_cell_formula_units_Z 88
_cell_length_a 24.728080
_cell_length_b 21.642317
_cell_length_c 8.069100
_cell_angle_alpha 90.000000
_cell_angle_beta 90.000000
_cell_angle_gamma 90.000000
_cell_volume 4318.364020
_symmetry_space_group_name_H-M "I M M M"
_symmetry_group_IT_number 71
_symmetry_cell_setting 'orthorhombic'
loop_
_space_group_symop_operation_xyz
x,y,z
-x,-y,z
x,-y,-z
-x,y,-z
-x,-y,-z
x,y,-z
-x,y,z
x,-y,z
1/2+x,1/2+y,1/2+z
1/2-x,1/2-y,1/2+z
1/2+x,1/2-y,1/2-z
1/2-x,1/2+y,1/2-z
1/2-x,1/2-y,1/2-z
1/2+x,1/2+y,1/2-z
1/2-x,1/2+y,1/2+z
1/2+x,1/2-y,1/2+z
loop_
_atom_site_type_symbol
_atom_site_label
_atom_site_fract_x
_atom_site_fract_y
_atom_site_fract_z
Si Si1 0.282041 0.932288 0.802731
Si Si2 0.000000 0.657119 0.797475
Si Si3 0.220800 0.813414 0.196648
Si Si4 0.404959 0.069353 0.699688
Si Si5 0.608159 0.367781 0.195773
Si Si6 0.435603 0.500000 0.797242
Si Si7 0.000000 0.798919 0.800059
O O1 0.251518 0.873427 0.730776
O O2 0.345774 0.924043 0.774959
O O3 0.266648 0.000000 0.733951
O O4 0.271830 0.934058 0.000000
O O5 0.052965 0.620282 0.742112
O O6 0.000000 0.727711 0.747201
O O7 0.000000 0.655188 0.000000
O O8 0.250000 0.750000 0.250000
O O9 0.158071 0.827886 0.234307
O O10 0.226670 0.813964 0.000000
O O11 0.399793 0.073835 0.500000
O O12 0.425056 0.000000 0.736735
O O13 0.596237 0.438004 0.257940
O O14 0.552974 0.332096 0.232891
O O15 0.617131 0.372473 0.000000
O O16 0.500000 0.500000 0.747389
O O17 0.436541 0.500000 0.000000
O O18 0.000000 0.801836 0.000000
#
# Coordination Sequence:
#
# PCOD9524381 Si02
#       7
#    16   8  16  16  16   8   8
#     4   9  20  39  59  82 116 153 191 240 297 354
#     4   9  19  33  53  81 114 150 189 239 289 342
#     4  11  25  43  64  90 123 163 207 257 312 373
#     4   9  17  32  56  83 110 145 191 239 287 341
#     4  11  23  42  66  92 123 161 207 257 312 372
#     4   9  18  38  66  94 126 162 202 257 316 375
#     4  11  23  39  58  88 125 164 203 245 304 368
#
# _framework density 20.378086
#
# number of rings (size 3 to 8) (size 9 to 14) (size 15 to 20)
#    0.000    2.091    0.909    1.636    3.818    2.545 
#    0.000    3.182    0.000    2.182    0.000    0.000 
#    0.000    0.000    0.000    0.000    0.000    0.000 
#
# Total GULP energy -245536.861791 kJ/mol
# GULP energy per Si atom -5580.383223 kJ/mol
# Density = 2.033170 g / cm^3
# Si number density = 20.378086 Si / 1000 Ang^3
#
#
#
# Elastic Constant Matrix: (Units=GPa)
#
#
# Indices 1 2 3 4 5 6 
#
# 1 112.5431 97.1424 1.8671 0.0000 0.0000 0.0000
# 2 97.1424 186.4844 17.7124 0.0000 0.0000 0.0000
# 3 1.8671 17.7124 20.5744 0.0000 0.0000 0.0000
# 4 0.0000 0.0000 0.0000 19.1569 0.0000 0.0000
# 5 0.0000 0.0000 0.0000 0.0000 31.3299 0.0000
# 6 0.0000 0.0000 0.0000 0.0000 0.0000 47.6715
#
#
#
# Elastic Compliance Matrix: (Units=1/GPa)
#
#
# Indices 1 2 3 4 5 6 
#
# 1 0.016928 -0.009444 0.006595 0.000000 0.000000 0.000000
# 2 -0.009444 0.011109 -0.008707 0.000000 0.000000 0.000000
# 3 0.006595 -0.008707 0.055501 0.000000 0.000000 0.000000
# 4 0.000000 0.000000 0.000000 0.052201 0.000000 0.000000
# 5 0.000000 0.000000 0.000000 0.000000 0.031918 0.000000
# 6 0.000000 0.000000 0.000000 0.000000 0.000000 0.020977
#
#
# Mechanical properties :
#
#
# Convention : Reuss Voigt Hill
#
# Bulk Modulus (GPa) = 16.54940 61.44952 38.99946
# Shear Modulus (GPa) = 21.56201 33.15699 27.35950
#
# Velocity S-wave (km/s) = 3.25637 4.03810 3.66812
# Velocity P-wave (km/s) = 4.71989 7.20845 6.09259
#
# Compressibility (1/GPa) = 0.06042514
#
# Stress axis : x y z
#
# Youngs Moduli (GPa) = 59.07316 90.01615 18.01762
#
# Poissons Ratio (x) = 0.85016 -0.11882
# Poissons Ratio (y) = 0.55792 0.15687
# Poissons Ratio (z) = -0.38956 0.78375
#
# Static dielectric constant tensor:
#      x y z
#    x 1.696440 0.000000 0.000000 
#    y 0.000000 1.753750 0.000000 
#    z 0.000000 0.000000 1.733470 
# 
# From -- ./inp_files/12612.got.cif
#   From: 2010.05.17/outbox.cif.g08.bks.cpg/sg71_7_cif.got.tgz:12612.got - 2010.06.03 16:22:01.
