data_PCOD9524759
_publ_section_title
;
Structure prediction by ZEFSAII (Michael W. Deem and Ramdas Pophale) SiO2 
 PCOD9524759
Probable space group: I M M M
;
_chemical_formula_sum "Si O2"
_cell_formula_units_Z 40
_cell_length_a 18.000000
_cell_length_b 27.000000
_cell_length_c 9.000000
_cell_angle_alpha 90.000000
_cell_angle_beta 90.000000
_cell_angle_gamma 90.000000
_cell_volume 4374.000000
_symmetry_space_group_name_H-M "I M M M"
_symmetry_group_IT_number 71
_symmetry_cell_setting 'orthorhombic'
loop_
_space_group_symop_operation_xyz
x,y,z
-x,-y,z
x,-y,-z
-x,y,-z
-x,-y,-z
x,y,-z
-x,y,z
x,-y,z
1/2+x,1/2+y,1/2+z
1/2-x,1/2-y,1/2+z
1/2+x,1/2-y,1/2-z
1/2-x,1/2+y,1/2-z
1/2-x,1/2-y,1/2-z
1/2+x,1/2+y,1/2-z
1/2-x,1/2+y,1/2+z
1/2+x,1/2-y,1/2+z
loop_
_atom_site_type_symbol
_atom_site_label
_atom_site_fract_x
_atom_site_fract_y
_atom_site_fract_z
Si Si1 0.409231 0.753326 0.671703
Si Si2 0.414725 0.355180 0.318643
Si Si3 0.088733 0.351164 0.334632
Si Si4 0.149627 0.554420 0.822889
Si Si5 0.811296 0.055087 0.178081
O O1 0.387111 0.759016 0.500000
O O2 0.500000 0.752635 0.673571
O O3 0.386587 0.699091 0.728611
O O4 0.382433 0.800335 0.763458
O O5 0.415390 0.353996 0.500000
O O6 0.500000 0.361571 0.270742
O O7 0.364394 0.400793 0.271954
O O8 0.119169 0.358074 0.500000
O O9 0.105391 0.399268 0.238982
O O10 0.000000 0.345833 0.342930
O O11 0.119645 0.500000 0.778137
O O12 0.232438 0.558107 0.757978
O O13 0.151547 0.556288 0.000000
O O14 0.842822 0.000000 0.205855
O O15 0.800321 0.059468 0.000000
#
# Coordination Sequence:
#
# PCOD9524759 Si02
#       5
#    16  16  16  16  16
#     4   8  14  27  47  69  96 129 160 191 231 280
#     4   8  14  26  47  75 102 128 161 199 237 279
#     4  10  20  33  51  75  99 121 151 195 242 286
#     4  10  21  36  52  69  93 127 163 196 233 283
#     4   9  17  30  49  72  99 130 162 199 242 283
#
# _framework density 9.1449470000000002
#
# number of rings (size 3 to 8) (size 9 to 14) (size 15 to 20)
#    0.000    3.000    0.000    2.400    0.000    3.200 
#    0.000    6.000    0.000    1.800    0.000    2.800 
#    0.000    0.000    0.000    0.000    0.000    0.000 
#
# Total GULP energy -222773.185384 kJ/mol
# GULP energy per Si atom -5569.329635 kJ/mol
# Density = 0.912413 g / cm^3
# Si number density = 9.144947 Si / 1000 Ang^3
#
#
#
# Elastic Constant Matrix: (Units=GPa)
#
#
# Indices 1 2 3 4 5 6 
#
# 1 6.1918 28.6580 12.3995 0.0000 0.0000 0.0000
# 2 28.6580 158.4059 53.4515 0.0000 0.0000 0.0000
# 3 12.3995 53.4515 43.2594 0.0000 0.0001 0.0000
# 4 0.0000 0.0000 0.0000 7.2149 0.0000 0.0000
# 5 0.0000 0.0000 0.0001 0.0000 7.9612 0.0000
# 6 0.0000 0.0000 0.0000 0.0000 0.0000 41.0695
#
#
#
# Elastic Compliance Matrix: (Units=1/GPa)
#
#
# Indices 1 2 3 4 5 6 
#
# 1 1.404948 -0.202878 -0.152024 0.000001 0.000001 0.000000
# 2 -0.202878 0.040123 0.008575 0.000000 0.000000 0.000000
# 3 -0.152024 0.008575 0.056096 0.000000 -0.000001 0.000000
# 4 0.000001 0.000000 0.000000 0.138603 0.000000 0.000000
# 5 0.000001 0.000000 -0.000001 0.000000 0.125609 0.000000
# 6 0.000000 0.000000 0.000000 0.000000 0.000000 0.024349
#
#
# Mechanical properties :
#
#
# Convention : Reuss Voigt Hill
#
# Bulk Modulus (GPa) = 1.23684 44.09721 22.66703
# Shear Modulus (GPa) = 1.81693 18.80565 10.31129
#
# Velocity S-wave (km/s) = 0.99778 3.21003 2.37696
# Velocity P-wave (km/s) = 1.41603 6.15643 4.46692
#
# Compressibility (1/GPa) = 0.80851257
#
# Stress axis : x y z
#
# Youngs Moduli (GPa) = 0.71177 24.92316 17.82652
#
# Poissons Ratio (x) = 5.05637 2.71005
# Poissons Ratio (y) = 0.14440 -0.15286
# Poissons Ratio (z) = 0.10821 -0.21371
#
# Static dielectric constant tensor:
#      x y z
#    x 1.610140 0.000000 0.000000 
#    y 0.000000 1.653390 0.000000 
#    z 0.000000 0.000000 1.627580 
# 
# From -- ./inp_files/8285.got.cif
#   From: 2010.05.17/outbox.ucp.g08.bks.cvg/sg71_5_cif.got.tgz:8285.got - 2010.06.11 16:29:00.
