data_PCOD9524670
_publ_section_title
;
Structure prediction by ZEFSAII (Michael W. Deem and Ramdas Pophale) SiO2 
 PCOD9524670
Probable space group: I M M M
;
_chemical_formula_sum "Si O2"
_cell_formula_units_Z 52
_cell_length_a 30.000000
_cell_length_b 9.000000
_cell_length_c 24.000000
_cell_angle_alpha 90.000000
_cell_angle_beta 90.000000
_cell_angle_gamma 90.000000
_cell_volume 6480.000000
_symmetry_space_group_name_H-M "I M M M"
_symmetry_group_IT_number 71
_symmetry_cell_setting 'orthorhombic'
loop_
_space_group_symop_operation_xyz
x,y,z
-x,-y,z
x,-y,-z
-x,y,-z
-x,-y,-z
x,y,-z
-x,y,z
x,-y,z
1/2+x,1/2+y,1/2+z
1/2-x,1/2-y,1/2+z
1/2+x,1/2-y,1/2-z
1/2-x,1/2+y,1/2-z
1/2-x,1/2-y,1/2-z
1/2+x,1/2+y,1/2-z
1/2-x,1/2+y,1/2+z
1/2+x,1/2-y,1/2+z
loop_
_atom_site_type_symbol
_atom_site_label
_atom_site_fract_x
_atom_site_fract_y
_atom_site_fract_z
Si Si1 0.730237 0.172400 0.567749
Si Si2 0.051875 0.823191 0.262968
Si Si3 0.000000 0.680784 0.436185
Si Si4 0.550813 0.179292 0.642507
Si Si5 0.589093 0.179845 0.869752
Si Si6 0.177929 0.321249 0.435182
Si Si7 0.867883 0.681313 0.064166
O O1 0.728795 0.177446 0.500000
O O2 0.774584 0.258864 0.585059
O O3 0.681208 0.228906 0.585528
O O4 0.734622 0.000000 0.584025
O O5 0.058605 0.752586 0.202400
O O6 0.082877 0.749271 0.309132
O O7 0.000000 0.792282 0.278286
O O8 0.057788 0.000000 0.261087
O O9 0.954549 0.725922 0.405333
O O10 0.000000 0.500000 0.436522
O O11 0.000000 0.731371 0.500000
O O12 0.500000 0.216698 0.624444
O O13 0.589792 0.226676 0.600558
O O14 0.552750 0.000000 0.647783
O O15 0.634899 0.225446 0.899783
O O16 0.588693 0.000000 0.866216
O O17 0.171952 0.275861 0.500000
O O18 0.179721 0.500000 0.434101
O O19 0.866606 0.500000 0.063987
O O20 0.873155 0.728755 0.000000
#
# Coordination Sequence:
#
# PCOD9524670 Si02
#       7
#    16  16   8  16  16  16  16
#     4   8  14  26  44  64  89 123 155 179 212 265
#     4  10  20  33  47  63  88 121 157 193 227 265
#     4   9  16  26  43  67  91 115 144 181 228 277
#     4   9  17  29  48  72  95 120 151 186 223 266
#     4  10  18  29  47  67  88 117 153 191 227 271
#     4   9  17  28  43  67  95 118 146 188 232 269
#     4   8  14  26  46  73 100 122 147 181 221 266
#
# _framework density 8.0246910000000007
#
# number of rings (size 3 to 8) (size 9 to 14) (size 15 to 20)
#    0.000    3.000    0.769    1.846    0.000    3.385 
#    0.000    2.308    0.000    4.154    0.000    2.154 
#    0.000    0.000    0.000    0.000    0.000    0.000 
#
# Total GULP energy -289540.230088 kJ/mol
# GULP energy per Si atom -5568.081348 kJ/mol
# Density = 0.800643 g / cm^3
# Si number density = 8.024691 Si / 1000 Ang^3
#
#
#
# Elastic Constant Matrix: (Units=GPa)
#
#
# Indices 1 2 3 4 5 6 
#
# 1 177.9344 33.9606 81.6366 0.0000 0.0000 0.0000
# 2 33.9606 9.9376 20.2944 0.0000 0.0000 0.0000
# 3 81.6366 20.2944 72.1344 0.0000 0.0000 0.0000
# 4 0.0000 0.0000 0.0000 8.2371 0.0000 0.0000
# 5 0.0000 0.0000 0.0000 0.0000 13.1311 0.0000
# 6 0.0000 0.0000 0.0000 0.0000 0.0000 21.2539
#
#
#
# Elastic Compliance Matrix: (Units=1/GPa)
#
#
# Indices 1 2 3 4 5 6 
#
# 1 0.017556 -0.045646 -0.007026 0.000000 0.000000 0.000000
# 2 -0.045646 0.355206 -0.048276 0.000000 0.000000 0.000000
# 3 -0.007026 -0.048276 0.035397 0.000000 0.000000 0.000000
# 4 0.000000 0.000000 0.000000 0.121402 0.000000 0.000000
# 5 0.000000 0.000000 0.000000 0.000000 0.076155 0.000000
# 6 0.000000 0.000000 0.000000 0.000000 0.000000 0.047050
#
#
# Mechanical properties :
#
#
# Convention : Reuss Voigt Hill
#
# Bulk Modulus (GPa) = 4.84818 59.08775 31.96797
# Shear Modulus (GPa) = 5.41468 16.79873 11.10671
#
# Velocity S-wave (km/s) = 1.83877 3.23877 2.63351
# Velocity P-wave (km/s) = 2.74508 7.13318 5.40452
#
# Compressibility (1/GPa) = 0.20626298
#
# Stress axis : x y z
#
# Youngs Moduli (GPa) = 56.96181 2.81527 28.25120
#
# Poissons Ratio (x) = 0.12851 0.19850
# Poissons Ratio (y) = 2.60007 1.36385
# Poissons Ratio (z) = 0.40022 0.13591
#
# Static dielectric constant tensor:
#      x y z
#    x 1.550140 0.000000 0.000000 
#    y 0.000000 1.537800 0.000000 
#    z 0.000000 0.000000 1.520810 
# 
# From -- ./inp_files/15533.got.cif
#   From: 2010.05.17/outbox.ucp.g08.bks.cvg/sg71_8_cif.got.tgz:15533.got - 2010.06.11 16:29:00.
