data_PCOD9524722
_publ_section_title
;
Structure prediction by ZEFSAII (Michael W. Deem and Ramdas Pophale) SiO2 
 PCOD9524722
Probable space group: I M M M
;
_chemical_formula_sum "Si O2"
_cell_formula_units_Z 58
_cell_length_a 18.000000
_cell_length_b 15.000000
_cell_length_c 24.000000
_cell_angle_alpha 90.000000
_cell_angle_beta 90.000000
_cell_angle_gamma 90.000000
_cell_volume 6480.000000
_symmetry_space_group_name_H-M "I M M M"
_symmetry_group_IT_number 71
_symmetry_cell_setting 'orthorhombic'
loop_
_space_group_symop_operation_xyz
x,y,z
-x,-y,z
x,-y,-z
-x,y,-z
-x,-y,-z
x,y,-z
-x,y,z
x,-y,z
1/2+x,1/2+y,1/2+z
1/2-x,1/2-y,1/2+z
1/2+x,1/2-y,1/2-z
1/2-x,1/2+y,1/2-z
1/2-x,1/2-y,1/2-z
1/2+x,1/2+y,1/2-z
1/2-x,1/2+y,1/2+z
1/2+x,1/2-y,1/2+z
loop_
_atom_site_type_symbol
_atom_site_label
_atom_site_fract_x
_atom_site_fract_y
_atom_site_fract_z
Si Si1 0.287606 0.394875 0.631410
Si Si2 0.416179 0.245344 0.797680
Si Si3 0.413081 0.904385 0.581872
Si Si4 0.500000 0.120028 0.000000
Si Si5 0.870918 0.599884 0.790193
Si Si6 0.412075 0.705922 0.437244
Si Si7 0.882447 0.605223 0.604144
Si Si8 0.201421 0.105273 0.263309
O O1 0.302509 0.500000 0.627706
O O2 0.355727 0.343495 0.603402
O O3 0.207462 0.380356 0.601657
O O4 0.284519 0.373067 0.697635
O O5 0.500000 0.281461 0.798145
O O6 0.405383 0.177615 0.746259
O O7 0.405923 0.180087 0.850862
O O8 0.356946 0.325365 0.789731
O O9 0.500000 0.907402 0.567391
O O10 0.404002 0.899775 0.648345
O O11 0.386787 0.809325 0.560672
O O12 0.379672 0.000000 0.564274
O O13 0.433935 0.116278 0.049350
O O14 0.883205 0.500000 0.766014
O O15 0.782038 0.613494 0.791960
O O16 0.407557 0.668939 0.500000
O O17 0.500000 0.703011 0.420418
O O18 0.891576 0.500000 0.621536
O O19 0.179076 0.000000 0.267001
#
# Coordination Sequence:
#
# PCOD9524722 Si02
#       8
#    16  16  16   4  16  16  16  16
#     4  10  22  39  59  83 114 154 198 241 294 355
#     4  12  23  34  56  88 118 156 197 240 293 358
#     4   9  18  32  52  80 112 147 183 224 282 343
#     4  12  25  44  64  88 131 164 197 254 302 362
#     4  10  19  33  54  83 116 146 181 232 289 352
#     4  10  22  38  55  79 111 148 192 241 288 339
#     4  11  23  39  60  88 120 156 195 243 302 356
#     4  10  22  39  57  82 118 157 193 235 289 351
#
# _framework density 8.9506169999999994
#
# number of rings (size 3 to 8) (size 9 to 14) (size 15 to 20)
#    0.000    1.655    2.069    2.690    2.897    4.138 
#    0.000    3.448    0.000    0.000    0.000    0.966 
#    0.000    0.000    0.000    0.000    0.000    0.000 
#
# Total GULP energy -322937.145860 kJ/mol
# GULP energy per Si atom -5567.881825 kJ/mol
# Density = 0.893025 g / cm^3
# Si number density = 8.950617 Si / 1000 Ang^3
#
#
#
# Elastic Constant Matrix: (Units=GPa)
#
#
# Indices 1 2 3 4 5 6 
#
# 1 92.3337 37.8869 32.3010 0.0000 0.0000 0.0000
# 2 37.8869 65.8414 33.9722 0.0000 0.0000 0.0000
# 3 32.3010 33.9722 91.0403 0.0000 0.0000 0.0000
# 4 0.0000 0.0000 0.0000 96.0530 0.0000 0.0000
# 5 0.0000 0.0000 0.0000 0.0000 18.7617 0.0000
# 6 0.0000 0.0000 0.0000 0.0000 0.0000 26.1430
#
#
#
# Elastic Compliance Matrix: (Units=1/GPa)
#
#
# Indices 1 2 3 4 5 6 
#
# 1 0.014637 -0.007112 -0.002539 0.000000 0.000000 0.000000
# 2 -0.007112 0.022266 -0.005785 0.000000 0.000000 0.000000
# 3 -0.002539 -0.005785 0.014044 0.000000 0.000000 0.000000
# 4 0.000000 0.000000 0.000000 0.010411 0.000000 0.000000
# 5 0.000000 0.000000 0.000000 0.000000 0.053300 0.000000
# 6 0.000000 0.000000 0.000000 0.000000 0.000000 0.038251
#
#
# Mechanical properties :
#
#
# Convention : Reuss Voigt Hill
#
# Bulk Modulus (GPa) = 49.81787 50.83729 50.32758
# Shear Modulus (GPa) = 26.25050 37.86190 32.05620
#
# Velocity S-wave (km/s) = 3.83352 4.60395 4.23629
# Velocity P-wave (km/s) = 6.89088 7.53142 7.21826
#
# Compressibility (1/GPa) = 0.02007312
#
# Stress axis : x y z
#
# Youngs Moduli (GPa) = 68.32030 44.91237 71.20600
#
# Poissons Ratio (x) = 0.31943 0.18080
# Poissons Ratio (y) = 0.48592 0.41193
# Poissons Ratio (z) = 0.17348 0.25982
#
# Static dielectric constant tensor:
#      x y z
#    x 1.607400 0.000000 0.000000 
#    y 0.000000 1.635000 0.000000 
#    z 0.000000 0.000000 1.633430 
# 
# From -- ./inp_files/60788.got.cif
#   From: 2010.05.17/outbox.ucp.g08.bks.cvg/sg71_31_cif.got.tgz:60788.got - 2010.06.11 16:29:00.
