data_PCOD9524947
_publ_section_title
;
Structure prediction by ZEFSAII (Michael W. Deem and Ramdas Pophale) SiO2 
 PCOD9524947
Probable space group: I B A M
;
_chemical_formula_sum "Si O2"
_cell_formula_units_Z 80
_cell_length_a 19.789237
_cell_length_b 8.208796
_cell_length_c 26.549416
_cell_angle_alpha 90.000000
_cell_angle_beta 90.000000
_cell_angle_gamma 90.000000
_cell_volume 4312.841375
_symmetry_space_group_name_H-M "I B A M"
_symmetry_group_IT_number 72
_symmetry_cell_setting 'orthorhombic'
loop_
_space_group_symop_operation_xyz
x,y,z
-x,-y,z
x,-y,1/2-z
-x,y,1/2-z
-x,-y,-z
x,y,-z
-x,y,1/2+z
x,-y,1/2+z
1/2+x,1/2+y,1/2+z
1/2-x,1/2-y,1/2+z
1/2+x,1/2-y,-z
1/2-x,1/2+y,-z
1/2-x,1/2-y,1/2-z
1/2+x,1/2+y,1/2-z
1/2-x,1/2+y,z
1/2+x,1/2-y,z
loop_
_atom_site_type_symbol
_atom_site_label
_atom_site_fract_x
_atom_site_fract_y
_atom_site_fract_z
Si Si1 0.080238 0.004707 0.894973
Si Si2 0.854305 0.922365 0.500000
Si Si3 0.322875 0.810282 0.108484
Si Si4 0.720008 0.230166 0.000000
Si Si5 0.216606 0.602693 0.170783
Si Si6 0.653071 0.403981 0.295685
O O1 0.114848 0.184218 0.890559
O O2 0.103709 0.930817 0.948499
O O3 0.111051 0.911091 0.847162
O O4 0.000000 0.000000 0.892664
O O5 0.800672 0.777508 0.500000
O O6 0.808777 0.086953 0.500000
O O7 0.256252 0.716013 0.130062
O O8 0.329136 0.970572 0.142358
O O9 0.306849 0.851811 0.050900
O O10 0.278446 0.507203 0.195857
O O11 0.176686 0.717574 0.209530
O O12 0.617872 0.500000 0.250000
#
# Coordination Sequence:
#
# PCOD9524947 Si02
#       6
#    16   8  16   8  16  16
#     4  10  21  35  49  70 103 144 182 210 250 318
#     4  10  19  32  54  76 101 132 168 220 274 320
#     4   9  17  29  49  75 106 137 169 219 270 317
#     4  10  16  26  48  78 100 126 168 214 268 318
#     4   9  17  31  49  76 104 126 165 221 281 322
#     4  10  19  32  53  77 101 132 168 218 271 319
#
# _framework density 18.549256
#
# number of rings (size 3 to 8) (size 9 to 14) (size 15 to 20)
#    0.000    2.400    0.000    5.700    0.000    0.400 
#    0.000    1.000    0.000    0.000    0.000   18.200 
#    0.000    0.000    0.000    0.000    0.000    0.000 
#
# Total GULP energy -223033.293125 kJ/mol
# GULP energy per Si atom -5575.832328 kJ/mol
# Density = 1.850704 g / cm^3
# Si number density = 18.549256 Si / 1000 Ang^3
#
#
#
# Elastic Constant Matrix: (Units=GPa)
#
#
# Indices 1 2 3 4 5 6 
#
# 1 96.7160 12.0134 15.8078 0.0000 0.0000 0.0000
# 2 12.0134 43.1083 -0.0092 0.0000 0.0000 0.0000
# 3 15.8078 -0.0092 70.8900 0.0000 0.0000 0.0000
# 4 0.0000 0.0000 0.0000 21.7364 0.0000 0.0000
# 5 0.0000 0.0000 0.0000 0.0000 4.2650 0.0000
# 6 0.0000 0.0000 0.0000 0.0000 0.0000 9.5974
#
#
#
# Elastic Compliance Matrix: (Units=1/GPa)
#
#
# Indices 1 2 3 4 5 6 
#
# 1 0.011131 -0.003102 -0.002482 0.000000 0.000000 0.000000
# 2 -0.003102 0.024062 0.000695 0.000000 0.000000 0.000000
# 3 -0.002482 0.000695 0.014660 0.000000 0.000000 0.000000
# 4 0.000000 0.000000 0.000000 0.046006 0.000000 0.000000
# 5 0.000000 0.000000 0.000000 0.000000 0.234467 0.000000
# 6 0.000000 0.000000 0.000000 0.000000 0.000000 0.104195
#
#
# Mechanical properties :
#
#
# Convention : Reuss Voigt Hill
#
# Bulk Modulus (GPa) = 24.95450 29.59314 27.27382
# Shear Modulus (GPa) = 10.92519 19.31326 15.11923
#
# Velocity S-wave (km/s) = 2.42953 3.23025 2.85807
# Velocity P-wave (km/s) = 4.62087 5.46819 5.06229
#
# Compressibility (1/GPa) = 0.04007293
#
# Stress axis : x y z
#
# Youngs Moduli (GPa) = 89.84204 41.55915 68.21280
#
# Poissons Ratio (x) = 0.12893 0.16933
# Poissons Ratio (y) = 0.27873 -0.04740
# Poissons Ratio (z) = 0.22303 -0.02888
#
# Static dielectric constant tensor:
#      x y z
#    x 1.599740 0.000000 0.000000 
#    y 0.000000 1.694220 0.000000 
#    z 0.000000 0.000000 1.709700 
# 
# From -- ./inp_files/42224.got.cif
#   From: 2010.05.17/outbox.cif.g08.bks.cpg/sg72_22_cif.got.tgz:42224.got - 2010.06.03 17:03:01.
