data_PCOD9524294
_publ_section_title
;
Structure prediction by ZEFSAII (Michael W. Deem and Ramdas Pophale) SiO2 
 PCOD9524294
Probable space group: I M M M
;
_chemical_formula_sum "Si O2"
_cell_formula_units_Z 80
_cell_length_a 18.661018
_cell_length_b 8.458468
_cell_length_c 25.984229
_cell_angle_alpha 90.000000
_cell_angle_beta 90.000000
_cell_angle_gamma 90.000000
_cell_volume 4101.444862
_symmetry_space_group_name_H-M "I M M M"
_symmetry_group_IT_number 71
_symmetry_cell_setting 'orthorhombic'
loop_
_space_group_symop_operation_xyz
x,y,z
-x,-y,z
x,-y,-z
-x,y,-z
-x,-y,-z
x,y,-z
-x,y,z
x,-y,z
1/2+x,1/2+y,1/2+z
1/2-x,1/2-y,1/2+z
1/2+x,1/2-y,1/2-z
1/2-x,1/2+y,1/2-z
1/2-x,1/2-y,1/2-z
1/2+x,1/2+y,1/2-z
1/2-x,1/2+y,1/2+z
1/2+x,1/2-y,1/2+z
loop_
_atom_site_type_symbol
_atom_site_label
_atom_site_fract_x
_atom_site_fract_y
_atom_site_fract_z
Si Si1 0.081936 0.807389 0.441413
Si Si2 0.661451 0.684332 0.342180
Si Si3 0.320504 0.687676 0.847106
Si Si4 0.584330 0.190041 0.558755
Si Si5 0.083255 0.313244 0.743915
O O1 0.098912 0.758586 0.500000
O O2 0.137938 0.755596 0.398378
O O3 0.000000 0.757975 0.429536
O O4 0.081970 0.000000 0.440787
O O5 0.651506 0.500000 0.331559
O O6 0.744829 0.728376 0.339512
O O7 0.631389 0.727241 0.398291
O O8 0.617407 0.780311 0.299468
O O9 0.307680 0.500000 0.851707
O O10 0.371628 0.721378 0.798858
O O11 0.602896 0.233976 0.500000
O O12 0.500000 0.225439 0.566637
O O13 0.592574 0.000000 0.563233
O O14 0.087650 0.500000 0.732832
O O15 0.000000 0.265809 0.743313
#
# Coordination Sequence:
#
# PCOD9524294 Si02
#       5
#    16  16  16  16  16
#     4   8  15  30  54  84 114 144 183 230 276 325
#     4  12  25  39  57  84 119 154 191 237 288 342
#     4  11  22  37  59  86 117 152 192 237 286 341
#     4   9  19  38  63  88 115 150 193 239 287 342
#     4  11  24  42  63  85 112 147 188 236 291 350
#
# _framework density 19.505322
#
# number of rings (size 3 to 8) (size 9 to 14) (size 15 to 20)
#    0.000    1.800    0.000    6.000    0.000    6.400 
#    0.000    3.000    0.000    1.800    0.000    7.000 
#    0.000    0.000    0.000    0.000    0.000    0.000 
#
# Total GULP energy -223567.411063 kJ/mol
# GULP energy per Si atom -5589.185277 kJ/mol
# Density = 1.946093 g / cm^3
# Si number density = 19.505322 Si / 1000 Ang^3
#
#
#
# Elastic Constant Matrix: (Units=GPa)
#
#
# Indices 1 2 3 4 5 6 
#
# 1 77.3869 -1.5036 29.5118 0.0000 0.0000 0.0000
# 2 -1.5036 17.0415 -8.6251 0.0000 0.0000 0.0000
# 3 29.5118 -8.6251 68.0470 0.0000 0.0000 0.0000
# 4 0.0000 0.0000 0.0000 19.0418 0.0000 0.0000
# 5 0.0000 0.0000 0.0000 0.0000 838.0923 0.0000
# 6 0.0000 0.0000 0.0000 0.0000 0.0000 25.9774
#
#
#
# Elastic Compliance Matrix: (Units=1/GPa)
#
#
# Indices 1 2 3 4 5 6 
#
# 1 0.015558 -0.002182 -0.007024 0.000000 0.000000 0.000000
# 2 -0.002182 0.063009 0.008933 0.000000 0.000000 0.000000
# 3 -0.007024 0.008933 0.018874 0.000000 0.000000 0.000000
# 4 0.000000 0.000000 0.000000 0.052516 0.000000 0.000000
# 5 0.000000 0.000000 0.000000 0.000000 0.001193 0.000000
# 6 0.000000 0.000000 0.000000 0.000000 0.000000 0.038495
#
#
# Mechanical properties :
#
#
# Convention : Reuss Voigt Hill
#
# Bulk Modulus (GPa) = 10.32051 22.36016 16.34033
# Shear Modulus (GPa) = 22.47278 186.16179 104.31729
#
# Velocity S-wave (km/s) = 3.39800 9.78002 7.32103
# Velocity P-wave (km/s) = 4.54948 11.79068 8.93638
#
# Compressibility (1/GPa) = 0.09689447
#
# Stress axis : x y z
#
# Youngs Moduli (GPa) = 64.27398 15.87078 52.98177
#
# Poissons Ratio (x) = 0.03464 0.37216
# Poissons Ratio (y) = 0.14027 -0.47329
# Poissons Ratio (z) = 0.45148 -0.14177
#
# Static dielectric constant tensor:
#      x y z
#    x 1.648510 0.000000 0.000000 
#    y 0.000000 1.668230 0.000000 
#    z 0.000000 0.000000 1.666400 
# 
# From -- ./inp_files/63037.got.cif
#   From: 2010.05.17/outbox.cif.g08.bks.cpg/sg71_32_cif.got.tgz:63037.got - 2010.06.03 16:22:01.
