data_PCOD9524991
_publ_section_title
;
Structure prediction by ZEFSAII (Michael W. Deem and Ramdas Pophale) SiO2 
 PCOD9524991
Probable space group: I B A M
;
_chemical_formula_sum "Si O2"
_cell_formula_units_Z 96
_cell_length_a 34.713112
_cell_length_b 6.989015
_cell_length_c 15.774232
_cell_angle_alpha 90.000000
_cell_angle_beta 90.000000
_cell_angle_gamma 90.000000
_cell_volume 3826.993689
_symmetry_space_group_name_H-M "I B A M"
_symmetry_group_IT_number 72
_symmetry_cell_setting 'orthorhombic'
loop_
_space_group_symop_operation_xyz
x,y,z
-x,-y,z
x,-y,1/2-z
-x,y,1/2-z
-x,-y,-z
x,y,-z
-x,y,1/2+z
x,-y,1/2+z
1/2+x,1/2+y,1/2+z
1/2-x,1/2-y,1/2+z
1/2+x,1/2-y,-z
1/2-x,1/2+y,-z
1/2-x,1/2-y,1/2-z
1/2+x,1/2+y,1/2-z
1/2-x,1/2+y,z
1/2+x,1/2-y,z
loop_
_atom_site_type_symbol
_atom_site_label
_atom_site_fract_x
_atom_site_fract_y
_atom_site_fract_z
Si Si1 0.193726 0.182358 0.500000
Si Si2 0.217343 0.374239 0.000000
Si Si3 0.663272 0.200428 0.857892
Si Si4 0.417019 0.630024 0.907215
Si Si5 0.504875 0.774554 0.091920
Si Si6 0.652425 0.250681 0.332892
Si Si7 0.430165 0.229926 0.777356
O O1 0.199641 0.412884 0.500000
O O2 0.237079 0.106905 0.500000
O O3 0.171596 0.140471 0.588287
O O4 0.200178 0.270348 0.917274
O O5 0.623570 0.251395 0.905514
O O6 0.664206 0.295039 0.764384
O O7 0.661409 0.973214 0.841829
O O8 0.461961 0.696997 0.914657
O O9 0.421028 0.643896 0.804128
O O10 0.412266 0.528291 0.000000
O O11 0.531777 0.716624 0.170021
O O12 0.500000 0.000000 0.102356
O O13 0.523529 0.740039 0.000000
O O14 0.606123 0.264925 0.339403
O O15 0.430998 0.000000 0.750000
#
# Coordination Sequence:
#
# PCOD9524991 Si02
#       7
#     8   8  16  16  16  16  16
#     4  10  22  34  52  73  95 119 155 200 248 292
#     4  10  20  34  54  71  95 119 153 202 244 294
#     4   9  15  29  46  62  85 119 156 194 231 283
#     4  10  17  24  34  52  76 115 157 194 222 266
#     4  10  18  22  29  48  77 113 157 197 225 254
#     4   9  17  28  43  64  85 119 157 191 228 285
#     4  11  17  23  36  51  81 118 157 190 227 261
#
# _framework density 25.084962999999998
#
# number of rings (size 3 to 8) (size 9 to 14) (size 15 to 20)
#    0.000    2.167    5.833    0.500    1.167    0.667 
#    0.000    0.000    0.000    0.000    0.000    0.000 
#    0.000    0.000    0.000    3.000    0.000   15.333 
#
# Total GULP energy -267325.091855 kJ/mol
# GULP energy per Si atom -5569.272747 kJ/mol
# Density = 2.502787 g / cm^3
# Si number density = 25.084963 Si / 1000 Ang^3
#
#
#
# Elastic Constant Matrix: (Units=GPa)
#
#
# Indices 1 2 3 4 5 6 
#
# 1 156.7186 8.0383 93.3609 0.0000 0.0000 0.0000
# 2 8.0383 92.7940 27.5609 0.0000 0.0000 0.0000
# 3 93.3609 27.5609 225.5350 0.0000 0.0000 0.0000
# 4 0.0000 0.0000 0.0000 -6.3794 0.0000 0.0000
# 5 0.0000 0.0000 0.0000 0.0000 320.2045 0.0000
# 6 0.0000 0.0000 0.0000 0.0000 0.0000 25.3252
#
#
#
# Elastic Compliance Matrix: (Units=1/GPa)
#
#
# Indices 1 2 3 4 5 6 
#
# 1 0.008479 0.000320 -0.003549 0.000000 0.000000 0.000000
# 2 0.000320 0.011194 -0.001500 0.000000 0.000000 0.000000
# 3 -0.003549 -0.001500 0.006086 0.000000 0.000000 0.000000
# 4 0.000000 0.000000 0.000000 -0.156753 0.000000 0.000000
# 5 0.000000 0.000000 0.000000 0.000000 0.003123 0.000000
# 6 0.000000 0.000000 0.000000 0.000000 0.000000 0.039486
#
#
# Mechanical properties :
#
#
# Convention : Reuss Voigt Hill
#
# Bulk Modulus (GPa) = 61.34845 81.44087 71.39466
# Shear Modulus (GPa) = -68.03437 90.90256 11.43409
#
# Velocity S-wave (km/s) = -5.21349 6.02632 2.13730
# Velocity P-wave (km/s) = 3.42509 8.99770 5.88334
#
# Compressibility (1/GPa) = 0.01630033
#
# Stress axis : x y z
#
# Youngs Moduli (GPa) = 117.94448 89.32982 164.30434
#
# Poissons Ratio (x) = -0.02855 0.58308
# Poissons Ratio (y) = -0.03769 0.24650
# Poissons Ratio (z) = 0.41856 0.13402
#
# Static dielectric constant tensor:
#      x y z
#    x 1.923610 0.000000 0.000000 
#    y 0.000000 2.038250 0.000000 
#    z 0.000000 0.000000 1.066770 
# 
# From -- ./inp_files/33901.got.cif
#   From: 2010.05.17/outbox.cif.g08.bks.cpg/sg72_17_cif.got.tgz:33901.got - 2010.06.03 17:03:01.
