data_PCOD9524136
_publ_section_title
;
Structure prediction by ZEFSAII (Michael W. Deem and Ramdas Pophale) SiO2 
 PCOD9524136
Probable space group: I M M M
;
_chemical_formula_sum "Si O2"
_cell_formula_units_Z 72
_cell_length_a 20.178993
_cell_length_b 8.030116
_cell_length_c 22.898798
_cell_angle_alpha 90.000000
_cell_angle_beta 90.000000
_cell_angle_gamma 90.000000
_cell_volume 3710.513318
_symmetry_space_group_name_H-M "I M M M"
_symmetry_group_IT_number 71
_symmetry_cell_setting 'orthorhombic'
loop_
_space_group_symop_operation_xyz
x,y,z
-x,-y,z
x,-y,-z
-x,y,-z
-x,-y,-z
x,y,-z
-x,y,z
x,-y,z
1/2+x,1/2+y,1/2+z
1/2-x,1/2-y,1/2+z
1/2+x,1/2-y,1/2-z
1/2-x,1/2+y,1/2-z
1/2-x,1/2-y,1/2-z
1/2+x,1/2+y,1/2-z
1/2-x,1/2+y,1/2+z
1/2+x,1/2-y,1/2+z
loop_
_atom_site_type_symbol
_atom_site_label
_atom_site_fract_x
_atom_site_fract_y
_atom_site_fract_z
Si Si1 0.425312 0.200344 0.781138
Si Si2 0.838112 0.802108 0.610963
Si Si3 0.696003 0.795912 0.432311
Si Si4 0.924893 0.698905 0.500000
Si Si5 0.075114 0.296621 0.147848
O O1 0.500000 0.258637 0.797220
O O2 0.371447 0.249419 0.828603
O O3 0.411270 0.255802 0.714780
O O4 0.427526 0.000000 0.780066
O O5 0.764081 0.737864 0.597988
O O6 0.885317 0.751915 0.557468
O O7 0.833656 0.000000 0.611148
O O8 0.694991 0.744819 0.500000
O O9 0.631609 0.740367 0.396484
O O10 0.695994 0.000000 0.431890
O O11 0.928248 0.500000 0.500000
O O12 0.000000 0.765404 0.500000
O O13 0.075614 0.500000 0.147448
O O14 0.000000 0.245365 0.132676
#
# Coordination Sequence:
#
# PCOD9524136 Si02
#       5
#    16  16  16   8  16
#     4   9  18  33  51  73 102 134 172 216 253 291
#     4  11  21  33  50  75 106 138 167 203 255 306
#     4   9  17  30  47  71 105 136 164 209 259 300
#     4  11  23  37  53  73  98 133 176 216 249 289
#     4   8  15  29  50  74 100 133 171 210 254 302
#
# _framework density 19.404323000000002
#
# number of rings (size 3 to 8) (size 9 to 14) (size 15 to 20)
#    0.000    2.556    1.111    3.000    0.000    5.333 
#    0.000    2.222    0.000    1.333    0.000    0.000 
#    0.000    0.889    0.000    0.000    0.000    0.000 
#
# Total GULP energy -200875.326742 kJ/mol
# GULP energy per Si atom -5579.870187 kJ/mol
# Density = 1.936016 g / cm^3
# Si number density = 19.404323 Si / 1000 Ang^3
#
#
#
# Elastic Constant Matrix: (Units=GPa)
#
#
# Indices 1 2 3 4 5 6 
#
# 1 210.1602 11.3902 134.9390 0.0000 0.0000 0.0000
# 2 11.3902 14.4474 12.0482 0.0000 0.0000 0.0000
# 3 134.9390 12.0482 140.7248 0.0000 0.0000 0.0000
# 4 0.0000 0.0000 0.0000 6.4021 0.0000 0.0000
# 5 0.0000 0.0000 0.0000 0.0000 66.1314 0.0000
# 6 0.0000 0.0000 0.0000 0.0000 0.0000 9.2571
#
#
#
# Elastic Compliance Matrix: (Units=1/GPa)
#
#
# Indices 1 2 3 4 5 6 
#
# 1 0.012381 0.000150 -0.011885 0.000000 0.000000 0.000000
# 2 0.000150 0.074540 -0.006526 0.000000 0.000000 0.000000
# 3 -0.011885 -0.006526 0.019061 0.000000 0.000000 0.000000
# 4 0.000000 0.000000 0.000000 0.156198 0.000000 0.000000
# 5 0.000000 0.000000 0.000000 0.000000 0.015121 0.000000
# 6 0.000000 0.000000 0.000000 0.000000 0.000000 0.108026
#
#
# Mechanical properties :
#
#
# Convention : Reuss Voigt Hill
#
# Bulk Modulus (GPa) = 14.39651 75.78749 45.09200
# Shear Modulus (GPa) = 11.23587 30.15511 20.69549
#
# Velocity S-wave (km/s) = 2.40893 3.94641 3.26934
# Velocity P-wave (km/s) = 3.89520 7.73998 6.12699
#
# Compressibility (1/GPa) = 0.06946129
#
# Stress axis : x y z
#
# Youngs Moduli (GPa) = 80.76710 13.41558 52.46258
#
# Poissons Ratio (x) = -0.00201 0.62352
# Poissons Ratio (y) = -0.01212 0.34236
# Poissons Ratio (z) = 0.95992 0.08755
#
# Static dielectric constant tensor:
#      x y z
#    x 1.681620 0.000000 0.000000 
#    y 0.000000 1.704790 0.000000 
#    z 0.000000 0.000000 1.639150 
# 
# From -- ./inp_files/7929.got.cif
#   From: 2010.05.17/outbox.cif.g08.bks.cpg/sg71_4_cif.got.tgz:7929.got - 2010.06.03 16:22:01.
