data_PCOD9524221
_publ_section_title
;
Structure prediction by ZEFSAII (Michael W. Deem and Ramdas Pophale) SiO2 
 PCOD9524221
Probable space group: I M M M
;
_chemical_formula_sum "Si O2"
_cell_formula_units_Z 64
_cell_length_a 24.056785
_cell_length_b 16.917686
_cell_length_c 7.893476
_cell_angle_alpha 90.000000
_cell_angle_beta 90.000000
_cell_angle_gamma 90.000000
_cell_volume 3212.527394
_symmetry_space_group_name_H-M "I M M M"
_symmetry_group_IT_number 71
_symmetry_cell_setting 'orthorhombic'
loop_
_space_group_symop_operation_xyz
x,y,z
-x,-y,z
x,-y,-z
-x,y,-z
-x,-y,-z
x,y,-z
-x,y,z
x,-y,z
1/2+x,1/2+y,1/2+z
1/2-x,1/2-y,1/2+z
1/2+x,1/2-y,1/2-z
1/2-x,1/2+y,1/2-z
1/2-x,1/2-y,1/2-z
1/2+x,1/2+y,1/2-z
1/2-x,1/2+y,1/2+z
1/2+x,1/2-y,1/2+z
loop_
_atom_site_type_symbol
_atom_site_label
_atom_site_fract_x
_atom_site_fract_y
_atom_site_fract_z
Si Si1 0.626272 0.825392 0.188116
Si Si2 0.762455 0.407560 0.796874
Si Si3 0.138920 0.147694 0.797124
Si Si4 0.063852 0.000000 0.793196
Si Si5 0.566434 0.091557 0.500000
O O1 0.689223 0.856354 0.212704
O O2 0.625940 0.731348 0.213401
O O3 0.590577 0.866129 0.334495
O O4 0.606789 0.846203 0.000000
O O5 0.768567 0.500000 0.751518
O O6 0.701640 0.378409 0.744122
O O7 0.768024 0.400333 0.000000
O O8 0.097509 0.078009 0.740404
O O9 0.133715 0.156935 0.000000
O O10 0.000000 0.000000 0.737141
O O11 0.064016 0.000000 0.000000
O O12 0.500000 0.094943 0.500000
O O13 0.584608 0.000000 0.500000
#
# Coordination Sequence:
#
# PCOD9524221 Si02
#       5
#    16  16  16   8   8
#     4  12  25  43  69 101 137 175 226 277 340 406
#     4  11  22  38  63  96 138 176 218 282 347 405
#     4  11  21  39  63  97 137 177 228 284 334 396
#     4   9  20  38  63  93 131 184 233 276 330 392
#     4  11  26  50  74  99 135 173 221 282 340 401
#
# _framework density 19.922008999999999
#
# number of rings (size 3 to 8) (size 9 to 14) (size 15 to 20)
#    0.000    1.000    3.750    3.000    0.000    4.500 
#    0.000    1.250    0.000    5.250    0.000    0.000 
#    0.000    0.000    0.000    0.000    0.000    0.000 
#
# Total GULP energy -179094.741107 kJ/mol
# GULP energy per Si atom -5596.710660 kJ/mol
# Density = 1.987667 g / cm^3
# Si number density = 19.922009 Si / 1000 Ang^3
#
#
#
# Elastic Constant Matrix: (Units=GPa)
#
#
# Indices 1 2 3 4 5 6 
#
# 1 106.9848 66.9820 39.4702 0.0000 0.0000 0.0000
# 2 66.9820 161.3771 55.8112 0.0000 0.0000 0.0000
# 3 39.4702 55.8112 120.6541 0.0000 0.0000 0.0000
# 4 0.0000 0.0000 0.0000 -36.8817 0.0000 0.0000
# 5 0.0000 0.0000 0.0000 0.0000 23.5105 0.0000
# 6 0.0000 0.0000 0.0000 0.0000 0.0000 8.1273
#
#
#
# Elastic Compliance Matrix: (Units=1/GPa)
#
#
# Indices 1 2 3 4 5 6 
#
# 1 0.013062 -0.004695 -0.002101 0.000000 0.000000 0.000000
# 2 -0.004695 0.009064 -0.002657 0.000000 0.000000 0.000000
# 3 -0.002101 -0.002657 0.010205 0.000000 0.000000 0.000000
# 4 0.000000 0.000000 0.000000 -0.027114 0.000000 0.000000
# 5 0.000000 0.000000 0.000000 0.000000 0.042534 0.000000
# 6 0.000000 0.000000 0.000000 0.000000 0.000000 0.123043
#
#
# Mechanical properties :
#
#
# Convention : Reuss Voigt Hill
#
# Bulk Modulus (GPa) = 74.49115 79.28252 76.88684
# Shear Modulus (GPa) = 25.75006 14.06808 19.90907
#
# Velocity S-wave (km/s) = 3.59910 2.66025 3.16468
# Velocity P-wave (km/s) = 7.39891 7.02273 7.21327
#
# Compressibility (1/GPa) = 0.01342441
#
# Stress axis : x y z
#
# Youngs Moduli (GPa) = 76.55990 110.32417 97.99475
#
# Poissons Ratio (x) = 0.51794 0.20591
# Poissons Ratio (y) = 0.35943 0.26038
# Poissons Ratio (z) = 0.16087 0.29313
#
# Static dielectric constant tensor:
#      x y z
#    x 1.659470 0.000000 0.000000 
#    y 0.000000 1.673740 0.000000 
#    z 0.000000 0.000000 1.702410 
# 
# From -- ./inp_files/14209.got.cif
#   From: 2010.05.17/outbox.cif.g08.bks.cpg/sg71_8_cif.got.tgz:14209.got - 2010.06.03 16:22:01.
