data_PCOD9524887
_publ_section_title
;
Structure prediction by ZEFSAII (Michael W. Deem and Ramdas Pophale) SiO2 
 PCOD9524887
Probable space group: I M M M
;
_chemical_formula_sum "Si O2"
_cell_formula_units_Z 52
_cell_length_a 27.000000
_cell_length_b 9.000000
_cell_length_c 21.000000
_cell_angle_alpha 90.000000
_cell_angle_beta 90.000000
_cell_angle_gamma 90.000000
_cell_volume 5103.000000
_symmetry_space_group_name_H-M "I M M M"
_symmetry_group_IT_number 71
_symmetry_cell_setting 'orthorhombic'
loop_
_space_group_symop_operation_xyz
x,y,z
-x,-y,z
x,-y,-z
-x,y,-z
-x,-y,-z
x,y,-z
-x,y,z
x,-y,z
1/2+x,1/2+y,1/2+z
1/2-x,1/2-y,1/2+z
1/2+x,1/2-y,1/2-z
1/2-x,1/2+y,1/2-z
1/2-x,1/2-y,1/2-z
1/2+x,1/2+y,1/2-z
1/2-x,1/2+y,1/2+z
1/2+x,1/2-y,1/2+z
loop_
_atom_site_type_symbol
_atom_site_label
_atom_site_fract_x
_atom_site_fract_y
_atom_site_fract_z
Si Si1 0.943561 0.677885 0.102604
Si Si2 0.940507 0.178923 0.500000
Si Si3 0.896387 0.324170 0.763879
Si Si4 0.219122 0.831223 0.371834
Si Si5 0.387228 0.177567 0.876552
Si Si6 0.871620 0.177072 0.000000
Si Si7 0.792525 0.176111 0.794255
Si Si8 0.731175 0.159561 0.500000
O O1 0.939677 0.500000 0.091909
O O2 0.933237 0.704419 0.177670
O O3 0.901880 0.758192 0.060677
O O4 0.000000 0.722693 0.086222
O O5 0.913885 0.245446 0.563372
O O6 0.000000 0.213010 0.500000
O O7 0.935108 0.000000 0.500000
O O8 0.883079 0.500000 0.766274
O O9 0.914206 0.295450 0.691708
O O10 0.846688 0.230967 0.776965
O O11 0.168424 0.740434 0.363223
O O12 0.271351 0.750590 0.356739
O O13 0.228901 0.840839 0.444825
O O14 0.215281 0.000000 0.344429
O O15 0.384646 0.000000 0.887487
O O16 0.813957 0.224897 0.000000
O O17 0.874735 0.000000 0.000000
O O18 0.750000 0.250000 0.750000
O O19 0.789468 0.000000 0.796847
O O20 0.703861 0.000000 0.500000
#
# Coordination Sequence:
#
# PCOD9524887 Si02
#       8
#    16   8  16  16  16   8  16   8
#     4  10  22  42  67  91 120 163 209 253 308 375
#     4  11  26  47  68  90 121 163 210 261 320 383
#     4  10  22  40  63  95 129 161 206 260 314 372
#     4  11  22  38  61  90 126 166 207 251 303 370
#     4  11  23  40  66  96 127 162 205 259 315 375
#     4  12  25  40  61  91 125 161 206 263 314 361
#     4  12  23  36  57  86 122 165 207 246 298 361
#     4  10  23  40  59  85 120 164 206 247 298 362
#
# _framework density 10.190084000000001
#
# number of rings (size 3 to 8) (size 9 to 14) (size 15 to 20)
#    0.000    1.154    1.538    4.846    0.000    9.231 
#    0.000    1.538    0.000    0.000    0.000    0.000 
#    0.000    0.000    0.000    0.000    0.000    0.000 
#
# Total GULP energy -289788.564659 kJ/mol
# GULP energy per Si atom -5572.857013 kJ/mol
# Density = 1.016689 g / cm^3
# Si number density = 10.190084 Si / 1000 Ang^3
#
#
#
# Elastic Constant Matrix: (Units=GPa)
#
#
# Indices 1 2 3 4 5 6 
#
# 1 57.1633 15.7610 -7.1563 0.0000 0.0000 0.0000
# 2 15.7610 91.3501 23.0308 0.0000 0.0000 0.0000
# 3 -7.1563 23.0308 102.5972 0.0000 0.0000 0.0000
# 4 0.0000 0.0000 0.0000 15.5739 0.0000 0.0000
# 5 0.0000 0.0000 0.0000 0.0000 27.6670 0.0000
# 6 0.0000 0.0000 0.0000 0.0000 0.0000 25.9193
#
#
#
# Elastic Compliance Matrix: (Units=1/GPa)
#
#
# Indices 1 2 3 4 5 6 
#
# 1 0.018810 -0.003791 0.002163 0.000000 0.000000 0.000000
# 2 -0.003791 0.012368 -0.003041 0.000000 0.000000 0.000000
# 3 0.002163 -0.003041 0.010580 0.000000 0.000000 0.000000
# 4 0.000000 0.000000 0.000000 0.064210 0.000000 0.000000
# 5 0.000000 0.000000 0.000000 0.000000 0.036144 0.000000
# 6 0.000000 0.000000 0.000000 0.000000 0.000000 0.038581
#
#
# Mechanical properties :
#
#
# Convention : Reuss Voigt Hill
#
# Bulk Modulus (GPa) = 30.84444 34.93129 32.88786
# Shear Modulus (GPa) = 24.89588 28.46372 26.67980
#
# Velocity S-wave (km/s) = 3.49889 3.74122 3.62208
# Velocity P-wave (km/s) = 5.61163 5.98660 5.80214
#
# Compressibility (1/GPa) = 0.03242076
#
# Stress axis : x y z
#
# Youngs Moduli (GPa) = 53.16420 80.85705 94.51551
#
# Poissons Ratio (x) = 0.30650 -0.20443
# Poissons Ratio (y) = 0.20152 0.28739
# Poissons Ratio (z) = -0.11499 0.24586
#
# Static dielectric constant tensor:
#      x y z
#    x 1.625650 0.000000 0.000000 
#    y 0.000000 1.868710 0.000000 
#    z 0.000000 0.000000 1.806000 
# 
# From -- ./inp_files/56330.got.cif
#   From: 2010.05.17/outbox.ucp.g08.bks.cvg/sg71_29_cif.got.tgz:56330.got - 2010.06.11 16:29:00.
