data_PCOD9524813
_publ_section_title
;
Structure prediction by ZEFSAII (Michael W. Deem and Ramdas Pophale) SiO2 
 PCOD9524813
Probable space group: I M M M
;
_chemical_formula_sum "Si O2"
_cell_formula_units_Z 36
_cell_length_a 15.000000
_cell_length_b 27.000000
_cell_length_c 9.000000
_cell_angle_alpha 90.000000
_cell_angle_beta 90.000000
_cell_angle_gamma 90.000000
_cell_volume 3645.000000
_symmetry_space_group_name_H-M "I M M M"
_symmetry_group_IT_number 71
_symmetry_cell_setting 'orthorhombic'
loop_
_space_group_symop_operation_xyz
x,y,z
-x,-y,z
x,-y,-z
-x,y,-z
-x,-y,-z
x,y,-z
-x,y,z
x,-y,z
1/2+x,1/2+y,1/2+z
1/2-x,1/2-y,1/2+z
1/2+x,1/2-y,1/2-z
1/2-x,1/2+y,1/2-z
1/2-x,1/2-y,1/2-z
1/2+x,1/2+y,1/2-z
1/2-x,1/2+y,1/2+z
1/2+x,1/2-y,1/2+z
loop_
_atom_site_type_symbol
_atom_site_label
_atom_site_fract_x
_atom_site_fract_y
_atom_site_fract_z
Si Si1 0.136678 0.555870 0.175756
Si Si2 0.500000 0.870853 0.822848
Si Si3 0.320407 0.712793 0.677946
Si Si4 0.500000 0.245988 0.820332
Si Si5 0.000000 0.056539 0.680742
Si Si6 0.318008 0.391245 0.176145
O O1 0.115927 0.500000 0.227208
O O2 0.240805 0.568101 0.191361
O O3 0.083264 0.598716 0.258433
O O4 0.115129 0.558293 0.000000
O O5 0.500000 0.812760 0.782399
O O6 0.500000 0.873356 0.000000
O O7 0.321404 0.716875 0.500000
O O8 0.250000 0.750000 0.750000
O O9 0.414505 0.727961 0.749387
O O10 0.297509 0.657365 0.729680
O O11 0.500000 0.250847 0.000000
O O12 0.088350 0.085725 0.724455
O O13 0.000000 0.054871 0.500000
O O14 0.000000 0.000000 0.733779
O O15 0.322809 0.377993 0.000000
#
# Coordination Sequence:
#
# PCOD9524813 Si02
#       6
#    16   8  16   8   8  16
#     4  10  21  37  58  85 117 154 196 239 284 342
#     4  11  24  39  58  84 112 147 192 243 298 352
#     4  12  25  41  62  89 121 157 200 247 299 357
#     4  11  24  43  64  88 120 157 200 247 298 356
#     4   9  17  32  58  90 120 151 190 235 282 340
#     4  10  20  36  60  88 119 155 195 239 289 344
#
# _framework density 9.8765429999999999
#
# number of rings (size 3 to 8) (size 9 to 14) (size 15 to 20)
#    0.000    1.444    0.000    5.667    0.000   11.556 
#    0.000    0.000    0.000    2.667    0.000    0.000 
#    0.000    0.000    0.000    0.000    0.000    0.000 
#
# Total GULP energy -201262.260942 kJ/mol
# GULP energy per Si atom -5590.618360 kJ/mol
# Density = 0.985406 g / cm^3
# Si number density = 9.876543 Si / 1000 Ang^3
#
#
#
# Elastic Constant Matrix: (Units=GPa)
#
#
# Indices 1 2 3 4 5 6 
#
# 1 86.7526 -3.9862 12.9955 0.0001 -0.0001 0.0002
# 2 -3.9862 91.3021 26.9861 0.0000 0.0006 0.0001
# 3 12.9955 26.9861 74.1211 -0.0019 0.0020 -0.0011
# 4 0.0001 0.0000 -0.0019 32.1872 0.0012 -0.0001
# 5 -0.0001 0.0006 0.0020 0.0012 -17.5517 0.0003
# 6 0.0002 0.0001 -0.0011 -0.0001 0.0003 24.5744
#
#
#
# Elastic Compliance Matrix: (Units=1/GPa)
#
#
# Indices 1 2 3 4 5 6 
#
# 1 0.011970 0.001281 -0.002565 0.000000 0.000000 0.000000
# 2 0.001281 0.012410 -0.004743 0.000000 0.000000 0.000000
# 3 -0.002565 -0.004743 0.015668 0.000001 0.000002 0.000001
# 4 0.000000 0.000000 0.000001 0.031068 0.000002 0.000000
# 5 0.000000 0.000000 0.000002 0.000002 -0.056975 0.000001
# 6 0.000000 0.000000 0.000001 0.000000 0.000001 0.040693
#
#
# Mechanical properties :
#
#
# Convention : Reuss Voigt Hill
#
# Bulk Modulus (GPa) = 35.72179 36.01851 35.87015
# Shear Modulus (GPa) = 65.59887 22.25399 43.92643
#
# Velocity S-wave (km/s) = 5.76901 3.36014 4.72081
# Velocity P-wave (km/s) = 7.90562 5.77304 6.92195
#
# Compressibility (1/GPa) = 0.02799412
#
# Stress axis : x y z
#
# Youngs Moduli (GPa) = 83.54138 80.57736 63.82449
#
# Poissons Ratio (x) = -0.10320 0.16371
# Poissons Ratio (y) = -0.10699 0.30272
# Poissons Ratio (z) = 0.21428 0.38217
#
# Static dielectric constant tensor:
#      x y z
#    x 1.797230 0.000000 0.000000 
#    y 0.000000 1.650610 0.000000 
#    z 0.000000 0.000000 1.659200 
# 
# From -- ./inp_files/6120.got.cif
#   From: 2010.05.17/outbox.ucp.g08.bks.cvg/sg71_4_cif.got.tgz:6120.got - 2010.06.11 16:29:00.
