data_PCOD9524287
_publ_section_title
;
Structure prediction by ZEFSAII (Michael W. Deem and Ramdas Pophale) SiO2 
 PCOD9524287
Probable space group: I M M M
;
_chemical_formula_sum "Si O2"
_cell_formula_units_Z 68
_cell_length_a 24.155172
_cell_length_b 14.524590
_cell_length_c 10.803088
_cell_angle_alpha 90.000000
_cell_angle_beta 90.000000
_cell_angle_gamma 90.000000
_cell_volume 3790.198279
_symmetry_space_group_name_H-M "I M M M"
_symmetry_group_IT_number 71
_symmetry_cell_setting 'orthorhombic'
loop_
_space_group_symop_operation_xyz
x,y,z
-x,-y,z
x,-y,-z
-x,y,-z
-x,-y,-z
x,y,-z
-x,y,z
x,-y,z
1/2+x,1/2+y,1/2+z
1/2-x,1/2-y,1/2+z
1/2+x,1/2-y,1/2-z
1/2-x,1/2+y,1/2-z
1/2-x,1/2-y,1/2-z
1/2+x,1/2+y,1/2-z
1/2-x,1/2+y,1/2+z
1/2+x,1/2-y,1/2+z
loop_
_atom_site_type_symbol
_atom_site_label
_atom_site_fract_x
_atom_site_fract_y
_atom_site_fract_z
Si Si1 0.335975 0.000000 0.853825
Si Si2 0.787346 0.203538 0.641511
Si Si3 0.644609 0.000000 0.500000
Si Si4 0.110338 0.691902 0.733272
Si Si5 0.500000 0.895565 0.855856
Si Si6 0.749031 0.000000 0.683130
Si Si7 0.068797 0.680995 0.000000
O O1 0.359165 0.906297 0.792862
O O2 0.270670 0.000000 0.825488
O O3 0.349301 0.000000 0.000000
O O4 0.771788 0.231269 0.500000
O O5 0.750000 0.250000 0.750000
O O6 0.849790 0.235113 0.669040
O O7 0.779476 0.094006 0.651012
O O8 0.690357 0.000000 0.390984
O O9 0.601146 0.916733 0.500000
O O10 0.051907 0.665845 0.677142
O O11 0.094509 0.721207 0.873339
O O12 0.500000 0.000000 0.796915
O O13 0.500000 0.910366 0.000000
O O14 0.000000 0.676584 0.000000
#
# Coordination Sequence:
#
# PCOD9524287 Si02
#       7
#     8  16   4  16   8   8   8
#     4  12  22  36  55  90 125 160 204 251 304 379
#     4  12  25  40  64  92 126 170 214 261 321 382
#     4  12  19  38  60  84 128 159 198 248 310 374
#     4  12  24  38  60  87 126 165 206 256 317 388
#     4  11  22  37  57  88 124 156 197 262 329 384
#     4  12  24  41  62  88 128 169 209 260 311 375
#     4  12  23  38  60  91 124 163 210 259 321 390
#
# _framework density 17.941013999999999
#
# number of rings (size 3 to 8) (size 9 to 14) (size 15 to 20)
#    0.000    0.118    8.235    2.294    1.647    0.000 
#    0.000    0.000    0.000    0.706    0.000    3.294 
#    0.000    0.000    0.000    0.000    0.000    0.000 
#
# Total GULP energy -189296.454250 kJ/mol
# GULP energy per Si atom -5567.542772 kJ/mol
# Density = 1.790018 g / cm^3
# Si number density = 17.941014 Si / 1000 Ang^3
#
#
#
# Elastic Constant Matrix: (Units=GPa)
#
#
# Indices 1 2 3 4 5 6 
#
# 1 109.8465 56.4913 40.1653 0.0000 0.0000 0.0000
# 2 56.4913 86.6735 37.6880 0.0000 0.0000 0.0000
# 3 40.1653 37.6880 134.2401 0.0000 0.0000 0.0000
# 4 0.0000 0.0000 0.0000 18.6125 0.0000 0.0000
# 5 0.0000 0.0000 0.0000 0.0000 12.9717 0.0000
# 6 0.0000 0.0000 0.0000 0.0000 0.0000 30.8704
#
#
#
# Elastic Compliance Matrix: (Units=1/GPa)
#
#
# Indices 1 2 3 4 5 6 
#
# 1 0.014092 -0.008374 -0.001866 0.000000 0.000000 0.000000
# 2 -0.008374 0.018118 -0.002581 0.000000 0.000000 0.000000
# 3 -0.001866 -0.002581 0.008732 0.000000 0.000000 0.000000
# 4 0.000000 0.000000 0.000000 0.053727 0.000000 0.000000
# 5 0.000000 0.000000 0.000000 0.000000 0.077091 0.000000
# 6 0.000000 0.000000 0.000000 0.000000 0.000000 0.032393
#
#
# Mechanical properties :
#
#
# Convention : Reuss Voigt Hill
#
# Bulk Modulus (GPa) = 65.35379 66.60546 65.97963
# Shear Modulus (GPa) = 21.28612 25.58528 23.43570
#
# Velocity S-wave (km/s) = 3.44823 3.78044 3.61815
# Velocity P-wave (km/s) = 7.23601 7.50073 7.36956
#
# Compressibility (1/GPa) = 0.01530133
#
# Stress axis : x y z
#
# Youngs Moduli (GPa) = 70.96174 55.19498 114.51930
#
# Poissons Ratio (x) = 0.46218 0.21364
# Poissons Ratio (y) = 0.59421 0.29558
# Poissons Ratio (z) = 0.13238 0.14246
#
# Static dielectric constant tensor:
#      x y z
#    x 1.750240 0.000000 0.000000 
#    y 0.000000 1.601770 0.000000 
#    z 0.000000 0.000000 1.778480 
# 
# From -- ./inp_files/25369.got.cif
#   From: 2010.05.17/outbox.cif.g08.bks.cpg/sg71_13_cif.got.tgz:25369.got - 2010.06.03 16:22:01.
