data_PCOD9524236
_publ_section_title
;
Structure prediction by ZEFSAII (Michael W. Deem and Ramdas Pophale) SiO2 
 PCOD9524236
Probable space group: I M M M
;
_chemical_formula_sum "Si O2"
_cell_formula_units_Z 88
_cell_length_a 20.110975
_cell_length_b 8.961369
_cell_length_c 30.952316
_cell_angle_alpha 90.000000
_cell_angle_beta 90.000000
_cell_angle_gamma 90.000000
_cell_volume 5578.284206
_symmetry_space_group_name_H-M "I M M M"
_symmetry_group_IT_number 71
_symmetry_cell_setting 'orthorhombic'
loop_
_space_group_symop_operation_xyz
x,y,z
-x,-y,z
x,-y,-z
-x,y,-z
-x,-y,-z
x,y,-z
-x,y,z
x,-y,z
1/2+x,1/2+y,1/2+z
1/2-x,1/2-y,1/2+z
1/2+x,1/2-y,1/2-z
1/2-x,1/2+y,1/2-z
1/2-x,1/2-y,1/2-z
1/2+x,1/2+y,1/2-z
1/2-x,1/2+y,1/2+z
1/2+x,1/2-y,1/2+z
loop_
_atom_site_type_symbol
_atom_site_label
_atom_site_fract_x
_atom_site_fract_y
_atom_site_fract_z
Si Si1 0.360547 0.820544 0.549642
Si Si2 0.202748 0.324140 0.864981
Si Si3 0.712323 0.176989 0.791225
Si Si4 0.425233 0.326318 0.774724
Si Si5 0.924271 0.828444 0.170406
Si Si6 0.500000 0.329998 0.552398
O O1 0.346689 0.775925 0.500000
O O2 0.304289 0.781036 0.584593
O O3 0.431073 0.750235 0.563605
O O4 0.367763 0.000000 0.550549
O O5 0.216635 0.500000 0.861451
O O6 0.252954 0.234149 0.834918
O O7 0.129684 0.286334 0.846434
O O8 0.750000 0.250000 0.750000
O O9 0.635809 0.228353 0.790735
O O10 0.718485 0.000000 0.787420
O O11 0.500000 0.280404 0.787974
O O12 0.415553 0.500000 0.787254
O O13 0.423547 0.322755 0.722488
O O14 0.000000 0.798621 0.156352
O O15 0.906829 0.000000 0.158236
O O16 0.500000 0.500000 0.567782
O O17 0.500000 0.331451 0.500000
#
# Coordination Sequence:
#
# PCOD9524236 Si02
#       6
#    16  16  16  16  16   8
#     4   9  19  35  50  65  90 124 163 207 251 294
#     4  11  22  33  49  71  93 126 167 206 249 294
#     4  12  23  35  51  72 101 132 164 202 242 288
#     4   9  18  34  54  73  96 128 163 200 241 284
#     4   9  18  31  46  66  94 128 163 204 248 287
#     4   9  17  29  47  69  91 121 161 205 253 297
#
# _framework density 15.775460000000001
#
# number of rings (size 3 to 8) (size 9 to 14) (size 15 to 20)
#    0.000    2.091    1.818    3.545    1.273    3.273 
#    0.000    1.818    0.000    0.000    0.000    0.000 
#    0.000    0.727    0.000    8.364    0.000    2.364 
#
# Total GULP energy -245513.181887 kJ/mol
# GULP energy per Si atom -5579.845043 kJ/mol
# Density = 1.573955 g / cm^3
# Si number density = 15.775460 Si / 1000 Ang^3
#
#
#
# Elastic Constant Matrix: (Units=GPa)
#
#
# Indices 1 2 3 4 5 6 
#
# 1 89.3224 48.8954 50.2860 0.0000 0.0000 0.0000
# 2 48.8954 71.7476 42.8177 0.0000 0.0000 0.0000
# 3 50.2860 42.8177 86.6183 0.0000 0.0000 0.0000
# 4 0.0000 0.0000 0.0000 16.4373 0.0000 0.0000
# 5 0.0000 0.0000 0.0000 0.0000 29.1573 0.0000
# 6 0.0000 0.0000 0.0000 0.0000 0.0000 26.6680
#
#
#
# Elastic Compliance Matrix: (Units=1/GPa)
#
#
# Indices 1 2 3 4 5 6 
#
# 1 0.020531 -0.009757 -0.007096 0.000000 0.000000 0.000000
# 2 -0.009757 0.024407 -0.006401 0.000000 0.000000 0.000000
# 3 -0.007096 -0.006401 0.018829 0.000000 0.000000 0.000000
# 4 0.000000 0.000000 0.000000 0.060837 0.000000 0.000000
# 5 0.000000 0.000000 0.000000 0.000000 0.034297 0.000000
# 6 0.000000 0.000000 0.000000 0.000000 0.000000 0.037498
#
#
# Mechanical properties :
#
#
# Convention : Reuss Voigt Hill
#
# Bulk Modulus (GPa) = 57.94040 59.07629 58.50834
# Shear Modulus (GPa) = 20.10778 21.49845 20.80312
#
# Velocity S-wave (km/s) = 3.57406 3.69559 3.63533
# Velocity P-wave (km/s) = 7.33756 7.46588 7.40200
#
# Compressibility (1/GPa) = 0.01725911
#
# Stress axis : x y z
#
# Youngs Moduli (GPa) = 48.70570 40.97208 53.11082
#
# Poissons Ratio (x) = 0.39977 0.37689
# Poissons Ratio (y) = 0.47523 0.33994
# Poissons Ratio (z) = 0.34563 0.26224
#
# Static dielectric constant tensor:
#      x y z
#    x 1.516380 0.000000 0.000000 
#    y 0.000000 1.534370 0.000000 
#    z 0.000000 0.000000 1.566060 
# 
# From -- ./inp_files/11388.got.cif
#   From: 2010.05.17/outbox.cif.g08.bks.cpg/sg71_6_cif.got.tgz:11388.got - 2010.06.03 16:22:01.
