data_PCOD9524966
_publ_section_title
;
Structure prediction by ZEFSAII (Michael W. Deem and Ramdas Pophale) SiO2 
 PCOD9524966
Probable space group: I B A M
;
_chemical_formula_sum "Si O2"
_cell_formula_units_Z 116
_cell_length_a 8.429635
_cell_length_b 22.381723
_cell_length_c 30.939491
_cell_angle_alpha 90.000000
_cell_angle_beta 90.000000
_cell_angle_gamma 90.000000
_cell_volume 5837.346204
_symmetry_space_group_name_H-M "I B A M"
_symmetry_group_IT_number 72
_symmetry_cell_setting 'orthorhombic'
loop_
_space_group_symop_operation_xyz
x,y,z
-x,-y,z
x,-y,1/2-z
-x,y,1/2-z
-x,-y,-z
x,y,-z
-x,y,1/2+z
x,-y,1/2+z
1/2+x,1/2+y,1/2+z
1/2-x,1/2-y,1/2+z
1/2+x,1/2-y,-z
1/2-x,1/2+y,-z
1/2-x,1/2-y,1/2-z
1/2+x,1/2+y,1/2-z
1/2-x,1/2+y,z
1/2+x,1/2-y,z
loop_
_atom_site_type_symbol
_atom_site_label
_atom_site_fract_x
_atom_site_fract_y
_atom_site_fract_z
Si Si1 0.000000 0.000000 0.250000
Si Si2 0.540350 0.902326 0.201246
Si Si3 0.498477 0.867686 0.107939
Si Si4 0.674964 0.554686 0.094153
Si Si5 0.844153 0.727902 0.949660
Si Si6 0.744316 0.489207 0.314531
Si Si7 0.988291 0.842387 0.449825
Si Si8 0.657413 0.041883 0.547547
O O1 0.114118 0.964832 0.218350
O O2 0.500000 0.879994 0.250000
O O3 0.536411 0.860319 0.158827
O O4 0.398099 0.948437 0.190916
O O5 0.697559 0.944107 0.198045
O O6 0.334688 0.905383 0.100785
O O7 0.460641 0.807754 0.082105
O O8 0.628990 0.908952 0.084275
O O9 0.672427 0.517658 0.138283
O O10 0.539406 0.601136 0.080977
O O11 0.705513 0.505495 0.057521
O O12 0.865288 0.798267 0.941019
O O13 0.669269 0.699671 0.945560
O O14 0.892122 0.718777 0.000000
O O15 0.992487 0.861913 0.500000
O O16 0.671401 0.069194 0.500000
O O17 0.500000 0.000000 0.547796
#
# Coordination Sequence:
#
# PCOD9524966 Si02
#       8
#     4  16  16  16  16  16  16  16
#     4  12  20  30  44  68  94 130 160 192 236 290
#     4  10  16  30  48  69  94 127 155 201 245 291
#     4   9  16  25  44  71  97 121 161 202 246 282
#     4   9  16  27  43  68  95 127 157 193 241 293
#     4   9  17  30  47  71  97 126 165 206 241 283
#     4  10  18  29  46  67  96 123 158 194 238 288
#     4   9  17  30  49  70  94 125 164 203 241 284
#     4   9  14  21  38  67 101 125 148 190 242 287
#
# _framework density 19.872043999999999
#
# number of rings (size 3 to 8) (size 9 to 14) (size 15 to 20)
#    0.000    2.621    2.759    1.241    0.000    3.310 
#    0.000    1.379    0.000    0.000    1.793    3.862 
#    0.000    0.000    0.000    0.000    0.000    0.000 
#
# Total GULP energy -323175.433750 kJ/mol
# GULP energy per Si atom -5571.990237 kJ/mol
# Density = 1.982681 g / cm^3
# Si number density = 19.872044 Si / 1000 Ang^3
#
#
#
# Elastic Constant Matrix: (Units=GPa)
#
#
# Indices 1 2 3 4 5 6 
#
# 1 55.7931 24.4938 12.8685 0.0000 0.0000 0.0000
# 2 24.4938 46.4700 33.6739 0.0000 0.0000 0.0000
# 3 12.8685 33.6739 125.8033 0.0000 0.0000 0.0000
# 4 0.0000 0.0000 0.0000 -9.7075 0.0000 0.0000
# 5 0.0000 0.0000 0.0000 0.0000 -4.2188 0.0000
# 6 0.0000 0.0000 0.0000 0.0000 0.0000 29.7564
#
#
#
# Elastic Compliance Matrix: (Units=1/GPa)
#
#
# Indices 1 2 3 4 5 6 
#
# 1 0.023448 -0.013177 0.001129 0.000000 0.000000 0.000000
# 2 -0.013177 0.034103 -0.007780 0.000000 0.000000 0.000000
# 3 0.001129 -0.007780 0.009916 0.000000 0.000000 0.000000
# 4 0.000000 0.000000 0.000000 -0.103013 0.000000 0.000000
# 5 0.000000 0.000000 0.000000 0.000000 -0.237035 0.000000
# 6 0.000000 0.000000 0.000000 0.000000 0.000000 0.033606
#
#
# Mechanical properties :
#
#
# Convention : Reuss Voigt Hill
#
# Bulk Modulus (GPa) = 35.95948 41.12655 38.54301
# Shear Modulus (GPa) = -26.30916 13.63469 -6.33724
#
# Velocity S-wave (km/s) = -3.64253 2.62224 -1.78772
# Velocity P-wave (km/s) = 0.66641 5.46889 3.89570
#
# Compressibility (1/GPa) = 0.02780908
#
# Stress axis : x y z
#
# Youngs Moduli (GPa) = 42.64779 29.32326 100.84647
#
# Poissons Ratio (x) = 0.38639 -0.11381
# Poissons Ratio (y) = 0.56197 0.78463
# Poissons Ratio (z) = -0.04813 0.22815
#
# Static dielectric constant tensor:
#      x y z
#    x 1.775460 0.000000 0.000000 
#    y 0.000000 1.679220 0.000000 
#    z 0.000000 0.000000 1.736230 
# 
# From -- ./inp_files/51046.got.cif
#   From: 2010.05.17/outbox.cif.g08.bks.cpg/sg72_26_cif.got.tgz:51046.got - 2010.06.03 17:03:01.
