data_PCOD9524248
_publ_section_title
;
Structure prediction by ZEFSAII (Michael W. Deem and Ramdas Pophale) SiO2 
 PCOD9524248
Probable space group: I M M M
;
_chemical_formula_sum "Si O2"
_cell_formula_units_Z 80
_cell_length_a 7.884728
_cell_length_b 17.520848
_cell_length_c 28.187580
_cell_angle_alpha 90.000000
_cell_angle_beta 90.000000
_cell_angle_gamma 90.000000
_cell_volume 3894.033020
_symmetry_space_group_name_H-M "I M M M"
_symmetry_group_IT_number 71
_symmetry_cell_setting 'orthorhombic'
loop_
_space_group_symop_operation_xyz
x,y,z
-x,-y,z
x,-y,-z
-x,y,-z
-x,-y,-z
x,y,-z
-x,y,z
x,-y,z
1/2+x,1/2+y,1/2+z
1/2-x,1/2-y,1/2+z
1/2+x,1/2-y,1/2-z
1/2-x,1/2+y,1/2-z
1/2-x,1/2-y,1/2-z
1/2+x,1/2+y,1/2-z
1/2-x,1/2+y,1/2+z
1/2+x,1/2-y,1/2+z
loop_
_atom_site_type_symbol
_atom_site_label
_atom_site_fract_x
_atom_site_fract_y
_atom_site_fract_z
Si Si1 0.295271 0.911443 0.790566
Si Si2 0.300421 0.650608 0.610055
Si Si3 0.708349 0.181303 0.592811
Si Si4 0.799926 0.500000 0.447086
Si Si5 0.292610 0.087902 0.500000
Si Si6 0.206760 0.411550 0.184774
O O1 0.500000 0.911091 0.791200
O O2 0.234567 0.861336 0.834244
O O3 0.238831 0.887743 0.737774
O O4 0.241828 0.000000 0.797836
O O5 0.500000 0.654290 0.603241
O O6 0.230366 0.731422 0.592096
O O7 0.242214 0.576000 0.582038
O O8 0.500000 0.181374 0.592934
O O9 0.761140 0.132760 0.547161
O O10 0.763444 0.140787 0.641552
O O11 0.722251 0.500000 0.500000
O O12 0.000000 0.500000 0.451968
O O13 0.500000 0.087143 0.500000
O O14 0.236989 0.000000 0.500000
O O15 0.256506 0.500000 0.177622
O O16 0.000000 0.410504 0.184827
#
# Coordination Sequence:
#
# PCOD9524248 Si02
#       6
#    16  16  16   8   8  16
#     4   9  17  31  52  74 102 144 188 224 256 307
#     4  11  22  34  53  81 113 142 170 217 279 325
#     4   9  18  29  44  74 111 140 176 222 268 319
#     4  11  25  43  61  77  99 139 189 228 259 318
#     4   9  16  28  48  71 103 146 178 211 261 315
#     4   8  14  27  48  72 101 144 188 221 257 308
#
# _framework density 20.544252
#
# number of rings (size 3 to 8) (size 9 to 14) (size 15 to 20)
#    0.000    2.600    1.000    2.700    1.400    4.000 
#    0.000    0.000    0.000    1.200    0.000    0.000 
#    0.000   12.800    0.000    0.000    0.000    0.200 
#
# Total GULP energy -223255.721817 kJ/mol
# GULP energy per Si atom -5581.393045 kJ/mol
# Density = 2.049749 g / cm^3
# Si number density = 20.544252 Si / 1000 Ang^3
#
#
#
# Elastic Constant Matrix: (Units=GPa)
#
#
# Indices 1 2 3 4 5 6 
#
# 1 20.7505 12.1236 8.1709 0.0000 0.0000 0.0000
# 2 12.1236 181.0837 121.7596 0.0000 0.0000 0.0000
# 3 8.1709 121.7596 171.6764 0.0000 0.0000 0.0000
# 4 0.0000 0.0000 0.0000 18.1542 0.0000 0.0000
# 5 0.0000 0.0000 0.0000 0.0000 -9.7841 0.0000
# 6 0.0000 0.0000 0.0000 0.0000 0.0000 -1.6637
#
#
#
# Elastic Compliance Matrix: (Units=1/GPa)
#
#
# Indices 1 2 3 4 5 6 
#
# 1 0.050153 -0.003351 -0.000011 0.000000 0.000000 0.000000
# 2 -0.003351 0.010780 -0.007486 0.000000 0.000000 0.000000
# 3 -0.000011 -0.007486 0.011135 0.000000 0.000000 0.000000
# 4 0.000000 0.000000 0.000000 0.055084 0.000000 0.000000
# 5 0.000000 0.000000 0.000000 0.000000 -0.102207 0.000000
# 6 0.000000 0.000000 0.000000 0.000000 0.000000 -0.601054
#
#
# Mechanical properties :
#
#
# Convention : Reuss Voigt Hill
#
# Bulk Modulus (GPa) = 19.85173 73.06876 46.46025
# Shear Modulus (GPa) = -9.30022 16.77172 3.73575
#
# Velocity S-wave (km/s) = -2.12996 2.86032 1.34994
# Velocity P-wave (km/s) = 1.90654 6.82292 5.00935
#
# Compressibility (1/GPa) = 0.05037345
#
# Stress axis : x y z
#
# Youngs Moduli (GPa) = 19.93886 92.76022 89.80599
#
# Poissons Ratio (x) = 0.31080 0.00096
# Poissons Ratio (y) = 0.06681 0.67233
# Poissons Ratio (z) = 0.00021 0.69445
#
# Static dielectric constant tensor:
#      x y z
#    x 1.747840 0.000000 0.000000 
#    y 0.000000 1.804910 0.000000 
#    z 0.000000 0.000000 1.737770 
# 
# From -- ./inp_files/63060.got.cif
#   From: 2010.05.17/outbox.cif.g08.bks.cpg/sg71_32_cif.got.tgz:63060.got - 2010.06.03 16:22:01.
