data_PCOD9524961
_publ_section_title
;
Structure prediction by ZEFSAII (Michael W. Deem and Ramdas Pophale) SiO2 
 PCOD9524961
Probable space group: I B A M
;
_chemical_formula_sum "Si O2"
_cell_formula_units_Z 112
_cell_length_a 18.004625
_cell_length_b 18.490551
_cell_length_c 19.983185
_cell_angle_alpha 90.000000
_cell_angle_beta 90.000000
_cell_angle_gamma 90.000000
_cell_volume 6652.710763
_symmetry_space_group_name_H-M "I B A M"
_symmetry_group_IT_number 72
_symmetry_cell_setting 'orthorhombic'
loop_
_space_group_symop_operation_xyz
x,y,z
-x,-y,z
x,-y,1/2-z
-x,y,1/2-z
-x,-y,-z
x,y,-z
-x,y,1/2+z
x,-y,1/2+z
1/2+x,1/2+y,1/2+z
1/2-x,1/2-y,1/2+z
1/2+x,1/2-y,-z
1/2-x,1/2+y,-z
1/2-x,1/2-y,1/2-z
1/2+x,1/2+y,1/2-z
1/2-x,1/2+y,z
1/2+x,1/2-y,z
loop_
_atom_site_type_symbol
_atom_site_label
_atom_site_fract_x
_atom_site_fract_y
_atom_site_fract_z
Si Si1 0.274561 0.390714 0.199332
Si Si2 0.315567 0.250829 0.339939
Si Si3 0.455516 0.172479 0.180861
Si Si4 0.203111 0.526013 0.577666
Si Si5 0.582030 0.145231 0.077185
Si Si6 0.708863 0.885382 0.839408
Si Si7 0.921239 0.823454 0.728359
O O1 0.235170 0.311503 0.193589
O O2 0.252458 0.434154 0.133620
O O3 0.245589 0.417825 0.271460
O O4 0.362367 0.379681 0.201155
O O5 0.361491 0.207664 0.396459
O O6 0.260440 0.316531 0.358647
O O7 0.376824 0.283298 0.288933
O O8 0.500000 0.158685 0.250000
O O9 0.508951 0.147090 0.122035
O O10 0.374683 0.137300 0.179541
O O11 0.441382 0.258590 0.177987
O O12 0.226365 0.533444 0.500000
O O13 0.124826 0.568653 0.583814
O O14 0.202627 0.443520 0.601658
O O15 0.564829 0.157325 0.000000
O O16 0.000000 0.855139 0.750000
#
# Coordination Sequence:
#
# PCOD9524961 Si02
#       7
#    16  16  16  16  16  16  16
#     4  10  18  34  56  84 105 138 181 227 275 321
#     4  10  17  32  56  80 107 134 176 232 271 313
#     4  11  18  32  55  83 112 137 174 222 275 323
#     4  10  23  39  52  72 114 154 183 220 268 317
#     4  10  21  36  51  74 112 152 178 215 273 328
#     4  11  20  33  58  84 104 140 186 228 265 323
#     4  10  16  29  56  86 109 128 165 226 283 311
#
# _framework density 16.835242999999998
#
# number of rings (size 3 to 8) (size 9 to 14) (size 15 to 20)
#    0.000    1.714    5.714    2.143    0.000    1.714 
#    0.000    2.857    0.000    6.857    0.000    4.000 
#    0.000    0.000    0.000    0.000    0.000    0.000 
#
# Total GULP energy -312098.647333 kJ/mol
# GULP energy per Si atom -5573.190131 kJ/mol
# Density = 1.679692 g / cm^3
# Si number density = 16.835243 Si / 1000 Ang^3
#
#
#
# Elastic Constant Matrix: (Units=GPa)
#
#
# Indices 1 2 3 4 5 6 
#
# 1 117.6950 19.5489 27.2447 0.0000 0.0000 0.0000
# 2 19.5489 53.6760 19.8270 0.0000 0.0000 0.0000
# 3 27.2447 19.8270 77.2310 0.0000 0.0000 0.0000
# 4 0.0000 0.0000 0.0000 16.0845 0.0000 0.0000
# 5 0.0000 0.0000 0.0000 0.0000 23.6873 0.0000
# 6 0.0000 0.0000 0.0000 0.0000 0.0000 6.6246
#
#
#
# Elastic Compliance Matrix: (Units=1/GPa)
#
#
# Indices 1 2 3 4 5 6 
#
# 1 0.009538 -0.002465 -0.002732 0.000000 0.000000 0.000000
# 2 -0.002465 0.021219 -0.004578 0.000000 0.000000 0.000000
# 3 -0.002732 -0.004578 0.015087 0.000000 0.000000 0.000000
# 4 0.000000 0.000000 0.000000 0.062172 0.000000 0.000000
# 5 0.000000 0.000000 0.000000 0.000000 0.042217 0.000000
# 6 0.000000 0.000000 0.000000 0.000000 0.000000 0.150953
#
#
# Mechanical properties :
#
#
# Convention : Reuss Voigt Hill
#
# Bulk Modulus (GPa) = 38.02990 42.42702 40.22846
# Shear Modulus (GPa) = 15.17448 21.41136 18.29292
#
# Velocity S-wave (km/s) = 3.00551 3.57012 3.29991
# Velocity P-wave (km/s) = 5.88919 6.50003 6.20214
#
# Compressibility (1/GPa) = 0.02629510
#
# Stress axis : x y z
#
# Youngs Moduli (GPa) = 104.83982 47.12759 66.28119
#
# Poissons Ratio (x) = 0.11616 0.18109
# Poissons Ratio (y) = 0.25840 0.30343
# Poissons Ratio (z) = 0.28643 0.21575
#
# Static dielectric constant tensor:
#      x y z
#    x 1.567740 0.000000 0.000000 
#    y 0.000000 1.591000 0.000000 
#    z 0.000000 0.000000 1.564870 
# 
# From -- ./inp_files/39182.got.cif
#   From: 2010.05.17/outbox.cif.g08.bks.cpg/sg72_20_cif.got.tgz:39182.got - 2010.06.03 17:03:01.
