data_PCOD9524695
_publ_section_title
;
Structure prediction by ZEFSAII (Michael W. Deem and Ramdas Pophale) SiO2 
 PCOD9524695
Probable space group: I M M M
;
_chemical_formula_sum "Si O2"
_cell_formula_units_Z 64
_cell_length_a 21.000000
_cell_length_b 18.000000
_cell_length_c 21.000000
_cell_angle_alpha 90.000000
_cell_angle_beta 90.000000
_cell_angle_gamma 90.000000
_cell_volume 7938.000000
_symmetry_space_group_name_H-M "I M M M"
_symmetry_group_IT_number 71
_symmetry_cell_setting 'orthorhombic'
loop_
_space_group_symop_operation_xyz
x,y,z
-x,-y,z
x,-y,-z
-x,y,-z
-x,-y,-z
x,y,-z
-x,y,z
x,-y,z
1/2+x,1/2+y,1/2+z
1/2-x,1/2-y,1/2+z
1/2+x,1/2-y,1/2-z
1/2-x,1/2+y,1/2-z
1/2-x,1/2-y,1/2-z
1/2+x,1/2+y,1/2-z
1/2-x,1/2+y,1/2+z
1/2+x,1/2-y,1/2+z
loop_
_atom_site_type_symbol
_atom_site_label
_atom_site_fract_x
_atom_site_fract_y
_atom_site_fract_z
Si Si1 0.574911 0.712578 0.270702
Si Si2 0.198164 0.585702 0.768263
Si Si3 0.926377 0.358885 0.694638
Si Si4 0.168154 0.914492 0.197957
Si Si5 0.284248 0.652920 0.573851
Si Si6 0.570296 0.083038 0.424255
Si Si7 0.857623 0.587963 0.426026
Si Si8 0.662930 0.200582 0.369106
O O1 0.500000 0.697287 0.281580
O O2 0.579435 0.771740 0.212903
O O3 0.618412 0.639280 0.266515
O O4 0.608811 0.756224 0.328746
O O5 0.200075 0.500000 0.790465
O O6 0.129580 0.599936 0.734635
O O7 0.259441 0.596262 0.723104
O O8 0.203243 0.649302 0.821413
O O9 0.908112 0.377057 0.622244
O O10 0.000000 0.380601 0.708982
O O11 0.173053 0.893670 0.123337
O O12 0.150961 0.000000 0.206652
O O13 0.301258 0.641660 0.500000
O O14 0.211031 0.627320 0.581734
O O15 0.296180 0.738414 0.593807
O O16 0.565483 0.077787 0.500000
O O17 0.500000 0.104904 0.399221
O O18 0.623946 0.141935 0.410118
O O19 0.584414 0.000000 0.399381
O O20 0.876229 0.594750 0.500000
O O21 0.849992 0.500000 0.411541
#
# Coordination Sequence:
#
# PCOD9524695 Si02
#       8
#    16  16  16  16  16  16  16  16
#     4   9  20  34  50  74  99 125 162 203 248 298
#     4  10  20  32  48  74 101 129 165 201 246 300
#     4  10  20  33  51  73 103 137 166 202 247 294
#     4  10  20  34  54  74  97 131 164 205 255 297
#     4  10  20  32  50  74  97 130 171 208 246 291
#     4   9  17  29  45  65  92 128 165 200 244 298
#     4  10  20  33  49  70 100 135 171 208 244 290
#     4  10  19  30  49  68  99 127 163 204 249 292
#
# _framework density 8.0624839999999995
#
# number of rings (size 3 to 8) (size 9 to 14) (size 15 to 20)
#    0.000    2.250    1.250    2.250    1.750    4.250 
#    0.000    0.625    0.000    3.375    0.000    3.500 
#    0.000    0.500    0.000    2.750    0.000    0.000 
#
# Total GULP energy -356511.115737 kJ/mol
# GULP energy per Si atom -5570.486183 kJ/mol
# Density = 0.804413 g / cm^3
# Si number density = 8.062484 Si / 1000 Ang^3
#
#
#
# Elastic Constant Matrix: (Units=GPa)
#
#
# Indices 1 2 3 4 5 6 
#
# 1 79.1207 54.3982 31.6365 0.0000 0.0000 0.0000
# 2 54.3982 103.7714 34.8721 0.0000 0.0000 0.0000
# 3 31.6365 34.8721 54.5302 0.0000 0.0000 0.0000
# 4 0.0000 0.0000 0.0000 21.3654 0.0000 0.0000
# 5 0.0000 0.0000 0.0000 0.0000 18.6510 0.0000
# 6 0.0000 0.0000 0.0000 0.0000 0.0000 16.9748
#
#
#
# Elastic Compliance Matrix: (Units=1/GPa)
#
#
# Indices 1 2 3 4 5 6 
#
# 1 0.021534 -0.009031 -0.006718 0.000000 0.000000 0.000000
# 2 -0.009031 0.016062 -0.005032 0.000000 0.000000 0.000000
# 3 -0.006718 -0.005032 0.025454 0.000000 0.000000 0.000000
# 4 0.000000 0.000000 0.000000 0.046805 0.000000 0.000000
# 5 0.000000 0.000000 0.000000 0.000000 0.053616 0.000000
# 6 0.000000 0.000000 0.000000 0.000000 0.000000 0.058911
#
#
# Mechanical properties :
#
#
# Convention : Reuss Voigt Hill
#
# Bulk Modulus (GPa) = 46.53795 53.24843 49.89319
# Shear Modulus (GPa) = 18.44292 19.16593 18.80443
#
# Velocity S-wave (km/s) = 3.38561 3.45133 3.41863
# Velocity P-wave (km/s) = 6.64880 6.99831 6.82579
#
# Compressibility (1/GPa) = 0.02148784
#
# Stress axis : x y z
#
# Youngs Moduli (GPa) = 46.43771 62.25998 39.28641
#
# Poissons Ratio (x) = 0.56226 0.26393
# Poissons Ratio (y) = 0.41937 0.19769
# Poissons Ratio (z) = 0.31198 0.31329
#
# Static dielectric constant tensor:
#      x y z
#    x 1.530130 0.000000 0.000000 
#    y 0.000000 1.546810 0.000000 
#    z 0.000000 0.000000 1.573540 
# 
# From -- ./inp_files/55256.got.cif
#   From: 2010.05.17/outbox.ucp.g08.bks.cvg/sg71_28_cif.got.tgz:55256.got - 2010.06.11 16:29:00.
