data_PCOD9524837
_publ_section_title
;
Structure prediction by ZEFSAII (Michael W. Deem and Ramdas Pophale) SiO2 
 PCOD9524837
Probable space group: I M M M
;
_chemical_formula_sum "Si O2"
_cell_formula_units_Z 36
_cell_length_a 9.000000
_cell_length_b 27.000000
_cell_length_c 15.000000
_cell_angle_alpha 90.000000
_cell_angle_beta 90.000000
_cell_angle_gamma 90.000000
_cell_volume 3645.000000
_symmetry_space_group_name_H-M "I M M M"
_symmetry_group_IT_number 71
_symmetry_cell_setting 'orthorhombic'
loop_
_space_group_symop_operation_xyz
x,y,z
-x,-y,z
x,-y,-z
-x,y,-z
-x,-y,-z
x,y,-z
-x,y,z
x,-y,z
1/2+x,1/2+y,1/2+z
1/2-x,1/2-y,1/2+z
1/2+x,1/2-y,1/2-z
1/2-x,1/2+y,1/2-z
1/2-x,1/2-y,1/2-z
1/2+x,1/2+y,1/2-z
1/2-x,1/2+y,1/2+z
1/2+x,1/2-y,1/2+z
loop_
_atom_site_type_symbol
_atom_site_label
_atom_site_fract_x
_atom_site_fract_y
_atom_site_fract_z
Si Si1 0.328802 0.557157 0.362693
Si Si2 0.163277 0.349563 0.401481
Si Si3 0.826498 0.898756 0.331746
Si Si4 0.828170 0.198647 0.753179
Si Si5 0.327394 0.942534 0.500000
O O1 0.500000 0.569793 0.387845
O O2 0.305543 0.500000 0.382502
O O3 0.207747 0.593082 0.404070
O O4 0.316068 0.568176 0.257073
O O5 0.156754 0.329131 0.500000
O O6 0.295465 0.324229 0.349114
O O7 0.000000 0.342889 0.359297
O O8 0.767619 0.843961 0.310922
O O9 0.741588 0.920879 0.412281
O O10 0.000000 0.894872 0.353025
O O11 0.750000 0.250000 0.750000
O O12 0.000000 0.204524 0.735585
O O13 0.500000 0.933537 0.500000
O O14 0.296089 0.000000 0.500000
#
# Coordination Sequence:
#
# PCOD9524837 Si02
#       5
#    16  16  16  16   8
#     4   9  18  33  54  79 107 143 185 226 271 322
#     4  10  21  36  54  79 111 145 180 220 266 319
#     4   9  19  36  56  78 106 143 184 224 270 330
#     4  10  21  39  62  84 107 139 180 227 280 332
#     4  11  23  35  51  81 117 149 185 231 278 325
#
# _framework density 9.8765429999999999
#
# number of rings (size 3 to 8) (size 9 to 14) (size 15 to 20)
#    0.000    2.333    0.000    3.667    0.000    8.889 
#    2.000    2.222    0.000    0.000    0.000    0.000 
#    0.000    0.000    0.000    0.000    0.000    0.000 
#
# Total GULP energy -200404.606656 kJ/mol
# GULP energy per Si atom -5566.794629 kJ/mol
# Density = 0.985406 g / cm^3
# Si number density = 9.876543 Si / 1000 Ang^3
#
#
#
# Elastic Constant Matrix: (Units=GPa)
#
#
# Indices 1 2 3 4 5 6 
#
# 1 -22.2099 16.3980 39.3324 0.0001 0.0000 0.0000
# 2 16.3980 111.3000 41.4838 0.0000 0.0000 0.0000
# 3 39.3324 41.4838 87.1177 -0.0003 0.0000 0.0000
# 4 0.0001 0.0000 -0.0003 -61.2436 0.0001 0.0000
# 5 0.0000 0.0000 0.0000 0.0001 16.6800 0.0000
# 6 0.0000 0.0000 0.0000 0.0000 0.0000 29.1441
#
#
#
# Elastic Compliance Matrix: (Units=1/GPa)
#
#
# Indices 1 2 3 4 5 6 
#
# 1 -0.024983 -0.000636 0.011582 0.000000 0.000000 0.000000
# 2 -0.000636 0.010907 -0.004907 0.000000 0.000000 0.000000
# 3 0.011582 -0.004907 0.008586 0.000000 0.000000 0.000000
# 4 0.000000 0.000000 0.000000 -0.016328 0.000000 0.000000
# 5 0.000000 0.000000 0.000000 0.000000 0.059952 0.000000
# 6 0.000000 0.000000 0.000000 0.000000 0.000000 0.034312
#
#
# Mechanical properties :
#
#
# Convention : Reuss Voigt Hill
#
# Bulk Modulus (GPa) = 151.76027 41.18180 96.47104
# Shear Modulus (GPa) = 79.91896 2.18233 41.05065
#
# Velocity S-wave (km/s) = 6.36764 1.05224 4.56366
# Velocity P-wave (km/s) = 11.44805 4.72967 8.75864
#
# Compressibility (1/GPa) = 0.00658934
#
# Stress axis : x y z
#
# Youngs Moduli (GPa) = -40.02728 91.68213 116.47065
#
# Poissons Ratio (x) = 0.05833 -1.34901
# Poissons Ratio (y) = -0.02547 0.57147
# Poissons Ratio (z) = 0.46361 0.44985
#
# Static dielectric constant tensor:
#      x y z
#    x 1.680670 0.000000 0.000000 
#    y 0.000000 1.648390 0.000000 
#    z 0.000000 0.000000 1.710400 
# 
# From -- ./inp_files/6019.got.cif
#   From: 2010.05.17/outbox.ucp.g08.bks.cvg/sg71_4_cif.got.tgz:6019.got - 2010.06.11 16:29:00.
