data_PCOD9524438
_publ_section_title
;
Structure prediction by ZEFSAII (Michael W. Deem and Ramdas Pophale) SiO2 
 PCOD9524438
Probable space group: I M M M
;
_chemical_formula_sum "Si O2"
_cell_formula_units_Z 56
_cell_length_a 10.404190
_cell_length_b 22.115017
_cell_length_c 14.028664
_cell_angle_alpha 90.000000
_cell_angle_beta 90.000000
_cell_angle_gamma 90.000000
_cell_volume 3227.839009
_symmetry_space_group_name_H-M "I M M M"
_symmetry_group_IT_number 71
_symmetry_cell_setting 'orthorhombic'
loop_
_space_group_symop_operation_xyz
x,y,z
-x,-y,z
x,-y,-z
-x,y,-z
-x,-y,-z
x,y,-z
-x,y,z
x,-y,z
1/2+x,1/2+y,1/2+z
1/2-x,1/2-y,1/2+z
1/2+x,1/2-y,1/2-z
1/2-x,1/2+y,1/2-z
1/2-x,1/2-y,1/2-z
1/2+x,1/2+y,1/2-z
1/2-x,1/2+y,1/2+z
1/2+x,1/2-y,1/2+z
loop_
_atom_site_type_symbol
_atom_site_label
_atom_site_fract_x
_atom_site_fract_y
_atom_site_fract_z
Si Si1 0.500000 0.673507 0.790000
Si Si2 0.000000 0.688361 0.785441
Si Si3 0.235057 0.798037 0.000000
Si Si4 0.749543 0.127423 0.191816
Si Si5 0.844774 0.500000 0.385794
Si Si6 0.000000 0.224969 0.500000
Si Si7 0.000000 0.706248 0.000000
O O1 0.500000 0.739469 0.736898
O O2 0.373024 0.637616 0.758142
O O3 0.500000 0.687103 0.902508
O O4 0.873483 0.659918 0.738548
O O5 0.000000 0.673953 0.897955
O O6 0.221381 0.838329 0.906647
O O7 0.374366 0.767065 0.000000
O O8 0.126535 0.747470 0.000000
O O9 0.712913 0.059308 0.164083
O O10 0.817365 0.500000 0.500000
O O11 0.000000 0.500000 0.376133
#
# Coordination Sequence:
#
# PCOD9524438 Si02
#       7
#     8   8   8  16   8   4   4
#     4  12  24  39  61  93 129 165 200 257 313 358
#     4  12  22  39  61  89 125 167 200 249 309 358
#     4  12  20  35  61  94 125 162 198 245 303 381
#     4  12  23  40  62  93 129 161 201 253 308 367
#     4  11  24  41  67  92 121 165 207 249 307 370
#     4  12  24  36  62  92 126 166 210 234 308 386
#     4  12  24  36  58  90 132 160 200 250 306 364
#
# _framework density 17.349067999999999
#
# number of rings (size 3 to 8) (size 9 to 14) (size 15 to 20)
#    0.000    0.143    8.571    2.571    0.000    0.571 
#    0.000    0.714    0.000    5.143    0.000    0.000 
#    0.000    0.000    0.000    0.000    0.000    0.000 
#
# Total GULP energy -156553.827274 kJ/mol
# GULP energy per Si atom -5591.208117 kJ/mol
# Density = 1.730958 g / cm^3
# Si number density = 17.349068 Si / 1000 Ang^3
#
#
#
# Elastic Constant Matrix: (Units=GPa)
#
#
# Indices 1 2 3 4 5 6 
#
# 1 79.9780 17.4703 -14.9152 0.0000 0.0000 0.0000
# 2 17.4703 85.0584 8.7370 0.0000 0.0000 0.0000
# 3 -14.9152 8.7370 100.4947 0.0000 0.0000 0.0000
# 4 0.0000 0.0000 0.0000 49.0294 0.0000 0.0000
# 5 0.0000 0.0000 0.0000 0.0000 18.6259 0.0000
# 6 0.0000 0.0000 0.0000 0.0000 0.0000 -5.3971
#
#
#
# Elastic Compliance Matrix: (Units=1/GPa)
#
#
# Indices 1 2 3 4 5 6 
#
# 1 0.013589 -0.003025 0.002280 0.000000 0.000000 0.000000
# 2 -0.003025 0.012536 -0.001539 0.000000 0.000000 0.000000
# 3 0.002280 -0.001539 0.010423 0.000000 0.000000 0.000000
# 4 0.000000 0.000000 0.000000 0.020396 0.000000 0.000000
# 5 0.000000 0.000000 0.000000 0.000000 0.053689 0.000000
# 6 0.000000 0.000000 0.000000 0.000000 0.000000 -0.185284
#
#
# Mechanical properties :
#
#
# Convention : Reuss Voigt Hill
#
# Bulk Modulus (GPa) = 31.26965 32.01281 31.64123
# Shear Modulus (GPa) = -84.14356 29.40089 -27.37134
#
# Velocity S-wave (km/s) = -6.97177 4.12110 -3.97632
# Velocity P-wave (km/s) = 6.83700 6.41380 1.67447
#
# Compressibility (1/GPa) = 0.03197989
#
# Stress axis : x y z
#
# Youngs Moduli (GPa) = 73.58626 79.76973 95.94209
#
# Poissons Ratio (x) = 0.24133 -0.21874
# Poissons Ratio (y) = 0.22263 0.14765
# Poissons Ratio (z) = -0.16777 0.12276
#
# Static dielectric constant tensor:
#      x y z
#    x 1.570190 0.000000 0.000000 
#    y 0.000000 1.561120 0.000000 
#    z 0.000000 0.000000 1.295160 
# 
# From -- ./inp_files/5170.got.cif
#   From: 2010.05.17/outbox.cif.g08.bks.cpg/sg71_3_cif.got.tgz:5170.got - 2010.06.03 16:22:01.
