data_PCOD9524147
_publ_section_title
;
Structure prediction by ZEFSAII (Michael W. Deem and Ramdas Pophale) SiO2 
 PCOD9524147
Probable space group: I M M M
;
_chemical_formula_sum "Si O2"
_cell_formula_units_Z 112
_cell_length_a 14.767128
_cell_length_b 14.315497
_cell_length_c 27.318599
_cell_angle_alpha 90.000000
_cell_angle_beta 90.000000
_cell_angle_gamma 90.000000
_cell_volume 5775.118407
_symmetry_space_group_name_H-M "I M M M"
_symmetry_group_IT_number 71
_symmetry_cell_setting 'orthorhombic'
loop_
_space_group_symop_operation_xyz
x,y,z
-x,-y,z
x,-y,-z
-x,y,-z
-x,-y,-z
x,y,-z
-x,y,z
x,-y,z
1/2+x,1/2+y,1/2+z
1/2-x,1/2-y,1/2+z
1/2+x,1/2-y,1/2-z
1/2-x,1/2+y,1/2-z
1/2-x,1/2-y,1/2-z
1/2+x,1/2+y,1/2-z
1/2-x,1/2+y,1/2+z
1/2+x,1/2-y,1/2+z
loop_
_atom_site_type_symbol
_atom_site_label
_atom_site_fract_x
_atom_site_fract_y
_atom_site_fract_z
Si Si1 0.895856 0.606539 0.559493
Si Si2 0.221726 0.213270 0.441591
Si Si3 0.153839 0.774401 0.273501
Si Si4 0.394346 0.101549 0.279450
Si Si5 0.391445 0.391846 0.866703
Si Si6 0.389587 0.781932 0.375494
Si Si7 0.606311 0.602187 0.683176
O O1 0.896743 0.605151 0.500000
O O2 0.874139 0.500000 0.575515
O O3 0.824883 0.687157 0.573207
O O4 0.000000 0.628232 0.574948
O O5 0.221434 0.207796 0.500000
O O6 0.158096 0.135579 0.416743
O O7 0.323388 0.201006 0.420730
O O8 0.250000 0.750000 0.250000
O O9 0.109543 0.673356 0.265644
O O10 0.146378 0.819967 0.326112
O O11 0.113691 0.851036 0.236360
O O12 0.500000 0.089894 0.288306
O O13 0.363558 0.149888 0.330145
O O14 0.351428 0.000000 0.271056
O O15 0.500000 0.380503 0.869825
O O16 0.373165 0.500000 0.853393
O O17 0.500000 0.786863 0.383339
O O18 0.363298 0.679199 0.355504
O O19 0.500000 0.592898 0.673567
O O20 0.649307 0.500000 0.680905
#
# Coordination Sequence:
#
# PCOD9524147 Si02
#       7
#    16  16  16  16  16  16  16
#     4   8  15  31  55  78  99 129 174 228 284 338
#     4  11  23  38  57  81 111 150 199 251 296 342
#     4  11  21  33  53  83 117 148 179 220 271 337
#     4   9  18  35  58  80 107 143 177 214 266 331
#     4  11  24  41  61  85 116 154 195 242 294 343
#     4   9  19  35  55  83 116 150 190 234 287 352
#     4   9  17  32  55  79 106 142 180 219 268 333
#
# _framework density 19.393542
#
# number of rings (size 3 to 8) (size 9 to 14) (size 15 to 20)
#    0.000    2.286    0.000    5.143    0.000    6.000 
#    0.000    1.429    0.000    2.571    0.000    7.000 
#    0.000    0.000    0.000    0.000    0.000    0.000 
#
# Total GULP energy -311921.280890 kJ/mol
# GULP energy per Si atom -5570.022873 kJ/mol
# Density = 1.934940 g / cm^3
# Si number density = 19.393542 Si / 1000 Ang^3
#
#
#
# Elastic Constant Matrix: (Units=GPa)
#
#
# Indices 1 2 3 4 5 6 
#
# 1 59.4823 28.7625 16.8532 0.0000 0.0000 0.0000
# 2 28.7625 137.1346 38.8281 0.0000 0.0000 0.0000
# 3 16.8532 38.8281 72.7177 0.0000 0.0000 0.0000
# 4 0.0000 0.0000 0.0000 -8.6272 0.0000 0.0000
# 5 0.0000 0.0000 0.0000 0.0000 27.2319 0.0000
# 6 0.0000 0.0000 0.0000 0.0000 0.0000 -6.8458
#
#
#
# Elastic Compliance Matrix: (Units=1/GPa)
#
#
# Indices 1 2 3 4 5 6 
#
# 1 0.019149 -0.003251 -0.002702 0.000000 0.000000 0.000000
# 2 -0.003251 0.009143 -0.004128 0.000000 0.000000 0.000000
# 3 -0.002702 -0.004128 0.016582 0.000000 0.000000 0.000000
# 4 0.000000 0.000000 0.000000 -0.115913 0.000000 0.000000
# 5 0.000000 0.000000 0.000000 0.000000 0.036722 0.000000
# 6 0.000000 0.000000 0.000000 0.000000 0.000000 -0.146075
#
#
# Mechanical properties :
#
#
# Convention : Reuss Voigt Hill
#
# Bulk Modulus (GPa) = 40.46736 48.69135 44.57935
# Shear Modulus (GPa) = -32.89682 14.67783 -9.10950
#
# Velocity S-wave (km/s) = -4.12306 2.75406 -2.16965
# Velocity P-wave (km/s) = 1.32454 5.93924 4.09391
#
# Compressibility (1/GPa) = 0.02471127
#
# Stress axis : x y z
#
# Youngs Moduli (GPa) = 52.22075 109.37400 60.30475
#
# Poissons Ratio (x) = 0.35561 0.16295
# Poissons Ratio (y) = 0.16979 0.24896
# Poissons Ratio (z) = 0.14110 0.45154
#
# Static dielectric constant tensor:
#      x y z
#    x 1.747890 0.000000 0.000000 
#    y 0.000000 1.808800 0.000000 
#    z 0.000000 0.000000 1.657500 
# 
# From -- ./inp_files/59919.got.cif
#   From: 2010.05.17/outbox.cif.g08.bks.cpg/sg71_30_cif.got.tgz:59919.got - 2010.06.03 16:22:01.
