data_PCOD9524983
_publ_section_title
;
Structure prediction by ZEFSAII (Michael W. Deem and Ramdas Pophale) SiO2 
 PCOD9524983
Probable space group: I B A M
;
_chemical_formula_sum "Si O2"
_cell_formula_units_Z 88
_cell_length_a 9.177143
_cell_length_b 19.535663
_cell_length_c 22.674227
_cell_angle_alpha 90.000000
_cell_angle_beta 90.000000
_cell_angle_gamma 90.000000
_cell_volume 4065.071082
_symmetry_space_group_name_H-M "I B A M"
_symmetry_group_IT_number 72
_symmetry_cell_setting 'orthorhombic'
loop_
_space_group_symop_operation_xyz
x,y,z
-x,-y,z
x,-y,1/2-z
-x,y,1/2-z
-x,-y,-z
x,y,-z
-x,y,1/2+z
x,-y,1/2+z
1/2+x,1/2+y,1/2+z
1/2-x,1/2-y,1/2+z
1/2+x,1/2-y,-z
1/2-x,1/2+y,-z
1/2-x,1/2-y,1/2-z
1/2+x,1/2+y,1/2-z
1/2-x,1/2+y,z
1/2+x,1/2-y,z
loop_
_atom_site_type_symbol
_atom_site_label
_atom_site_fract_x
_atom_site_fract_y
_atom_site_fract_z
Si Si1 0.307759 0.343966 0.500000
Si Si2 0.000000 0.000000 0.000000
Si Si3 0.982165 0.268428 0.000000
Si Si4 0.369665 0.714344 0.208571
Si Si5 0.000000 0.500000 0.000000
Si Si6 0.240739 0.043600 0.591594
Si Si7 0.267634 0.902419 0.372041
Si Si8 0.923583 0.338015 0.378943
O O1 0.464436 0.309256 0.500000
O O2 0.275917 0.387778 0.558584
O O3 0.190039 0.282567 0.500000
O O4 0.901206 0.038608 0.948713
O O5 0.045253 0.306187 0.943019
O O6 0.500000 0.690817 0.250000
O O7 0.250000 0.750000 0.250000
O O8 0.311938 0.652404 0.168754
O O9 0.420214 0.775012 0.165310
O O10 0.118205 0.474850 0.050802
O O11 0.233456 0.981443 0.638116
O O12 0.277623 0.117012 0.619147
O O13 0.438201 0.885795 0.365316
#
# Coordination Sequence:
#
# PCOD9524983 Si02
#       8
#     8   4   8  16   4  16  16  16
#     4  10  20  34  58  98 130 162 214 263 328 411
#     4  10  24  38  56 112 154 182 208 260 364 428
#     4  10  20  34  58  98 130 162 208 267 330 399
#     4  12  26  45  68  97 133 182 240 299 355 406
#     4  10  16  34  68  96 134 182 212 256 336 424
#     4  11  22  40  65  99 141 184 220 275 341 426
#     4  11  22  42  69 100 131 178 229 281 345 420
#     4  11  22  42  69 100 130 177 233 280 340 425
#
# _framework density 21.647836999999999
#
# number of rings (size 3 to 8) (size 9 to 14) (size 15 to 20)
#    0.000    1.091    5.455    2.182    2.545    1.455 
#    6.545    0.909    0.000    1.091    0.000    0.000 
#    0.000    0.000    0.000    0.000    0.000    0.000 
#
# Total GULP energy -245049.994842 kJ/mol
# GULP energy per Si atom -5569.318065 kJ/mol
# Density = 2.159857 g / cm^3
# Si number density = 21.647837 Si / 1000 Ang^3
#
#
#
# Elastic Constant Matrix: (Units=GPa)
#
#
# Indices 1 2 3 4 5 6 
#
# 1 66.4736 15.8373 17.9281 0.0000 0.0000 0.0000
# 2 15.8373 74.2805 23.4482 0.0000 0.0000 0.0000
# 3 17.9281 23.4482 91.1966 0.0000 0.0000 0.0000
# 4 0.0000 0.0000 0.0000 -13.7778 0.0000 0.0000
# 5 0.0000 0.0000 0.0000 0.0000 18.9289 0.0000
# 6 0.0000 0.0000 0.0000 0.0000 0.0000 31.2655
#
#
#
# Elastic Compliance Matrix: (Units=1/GPa)
#
#
# Indices 1 2 3 4 5 6 
#
# 1 0.016366 -0.002692 -0.002525 0.000000 0.000000 0.000000
# 2 -0.002692 0.015095 -0.003352 0.000000 0.000000 0.000000
# 3 -0.002525 -0.003352 0.012324 0.000000 0.000000 0.000000
# 4 0.000000 0.000000 0.000000 -0.072580 0.000000 0.000000
# 5 0.000000 0.000000 0.000000 0.000000 0.052829 0.000000
# 6 0.000000 0.000000 0.000000 0.000000 0.000000 0.031984
#
#
# Mechanical properties :
#
#
# Convention : Reuss Voigt Hill
#
# Bulk Modulus (GPa) = 37.52949 38.48644 38.00796
# Shear Modulus (GPa) = 60.94768 18.93245 39.94007
#
# Velocity S-wave (km/s) = 5.31181 2.96051 4.30000
# Velocity P-wave (km/s) = 7.41582 5.43169 6.49991
#
# Compressibility (1/GPa) = 0.02664571
#
# Stress axis : x y z
#
# Youngs Moduli (GPa) = 61.10213 66.24902 81.14557
#
# Poissons Ratio (x) = 0.17836 0.20490
# Poissons Ratio (y) = 0.16450 0.27198
# Poissons Ratio (z) = 0.15429 0.22205
#
# Static dielectric constant tensor:
#      x y z
#    x 1.844630 0.000000 0.000000 
#    y 0.000000 1.829270 0.000000 
#    z 0.000000 0.000000 1.806140 
# 
# From -- ./inp_files/42339.got.cif
#   From: 2010.05.17/outbox.cif.g08.bks.cpg/sg72_22_cif.got.tgz:42339.got - 2010.06.03 17:03:01.
