data_PCOD9524589
_publ_section_title
;
Structure prediction by ZEFSAII (Michael W. Deem and Ramdas Pophale) SiO2 
 PCOD9524589
Probable space group: I M M M
;
_chemical_formula_sum "Si O2"
_cell_formula_units_Z 104
_cell_length_a 34.227838
_cell_length_b 9.815681
_cell_length_c 14.506126
_cell_angle_alpha 90.000000
_cell_angle_beta 90.000000
_cell_angle_gamma 90.000000
_cell_volume 4873.616467
_symmetry_space_group_name_H-M "I M M M"
_symmetry_group_IT_number 71
_symmetry_cell_setting 'orthorhombic'
loop_
_space_group_symop_operation_xyz
x,y,z
-x,-y,z
x,-y,-z
-x,y,-z
-x,-y,-z
x,y,-z
-x,y,z
x,-y,z
1/2+x,1/2+y,1/2+z
1/2-x,1/2-y,1/2+z
1/2+x,1/2-y,1/2-z
1/2-x,1/2+y,1/2-z
1/2-x,1/2-y,1/2-z
1/2+x,1/2+y,1/2-z
1/2-x,1/2+y,1/2+z
1/2+x,1/2-y,1/2+z
loop_
_atom_site_type_symbol
_atom_site_label
_atom_site_fract_x
_atom_site_fract_y
_atom_site_fract_z
Si Si1 0.772786 0.845688 0.366585
Si Si2 0.295052 0.653963 0.348386
Si Si3 0.072837 0.344202 0.612820
Si Si4 0.616827 0.658960 0.611678
Si Si5 0.500000 0.657030 0.887527
Si Si6 0.456301 0.841028 0.387737
Si Si7 0.139972 0.153776 0.605474
O O1 0.736479 0.753114 0.393377
O O2 0.779891 0.851290 0.256557
O O3 0.815388 0.799431 0.398722
O O4 0.766475 0.000000 0.397697
O O5 0.294337 0.500000 0.386058
O O6 0.340137 0.700135 0.352151
O O7 0.072713 0.351485 0.500000
O O8 0.068962 0.500000 0.644743
O O9 0.112047 0.268348 0.645698
O O10 0.037576 0.245064 0.639827
O O11 0.619051 0.668104 0.500000
O O12 0.610428 0.500000 0.635263
O O13 0.580177 0.749740 0.642860
O O14 0.500000 0.500000 0.855378
O O15 0.500000 0.651541 0.000000
O O16 0.456467 0.834887 0.500000
O O17 0.500000 0.796937 0.357672
O O18 0.451283 0.000000 0.363269
O O19 0.126445 0.137776 0.500000
O O20 0.138693 0.000000 0.647256
#
# Coordination Sequence:
#
# PCOD9524589 Si02
#       7
#    16  16  16  16   8  16  16
#     4   9  18  32  48  64  84 114 149 184 221 266
#     4   9  18  32  47  64  88 116 147 183 219 261
#     4   9  16  25  38  59  86 112 139 173 214 259
#     4   9  17  28  43  66  94 121 149 182 220 260
#     4   9  15  23  37  57  83 115 145 173 210 255
#     4   8  14  25  41  63  92 122 149 179 216 257
#     4   9  17  29  44  63  86 110 140 180 223 265
#
# _framework density 21.339389000000001
#
# number of rings (size 3 to 8) (size 9 to 14) (size 15 to 20)
#    0.000    3.154    0.000    1.154    0.000    4.923 
#    0.000    1.538    0.000    0.000    2.000    0.000 
#    0.000    0.000    0.000    0.000    0.000    0.000 
#
# Total GULP energy -290026.501698 kJ/mol
# GULP energy per Si atom -5577.432725 kJ/mol
# Density = 2.129082 g / cm^3
# Si number density = 21.339389 Si / 1000 Ang^3
#
#
#
# Elastic Constant Matrix: (Units=GPa)
#
#
# Indices 1 2 3 4 5 6 
#
# 1 226.7638 145.7919 9.8555 0.0000 0.0000 0.0000
# 2 145.7919 147.9534 3.9843 0.0000 0.0000 0.0000
# 3 9.8555 3.9843 60.8415 0.0000 0.0000 0.0000
# 4 0.0000 0.0000 0.0000 -3.0824 0.0000 0.0000
# 5 0.0000 0.0000 0.0000 0.0000 19.2556 0.0000
# 6 0.0000 0.0000 0.0000 0.0000 0.0000 44.5246
#
#
#
# Elastic Compliance Matrix: (Units=1/GPa)
#
#
# Indices 1 2 3 4 5 6 
#
# 1 0.012118 -0.011909 -0.001183 0.000000 0.000000 0.000000
# 2 -0.011909 0.018474 0.000719 0.000000 0.000000 0.000000
# 3 -0.001183 0.000719 0.016581 0.000000 0.000000 0.000000
# 4 0.000000 0.000000 0.000000 -0.324418 0.000000 0.000000
# 5 0.000000 0.000000 0.000000 0.000000 0.051933 0.000000
# 6 0.000000 0.000000 0.000000 0.000000 0.000000 0.022459
#
#
# Mechanical properties :
#
#
# Convention : Reuss Voigt Hill
#
# Bulk Modulus (GPa) = 44.58807 83.86912 64.22860
# Shear Modulus (GPa) = -29.30304 30.53468 0.61582
#
# Velocity S-wave (km/s) = -3.70968 3.78684 0.53778
# Velocity P-wave (km/s) = 1.60970 7.64905 5.52717
#
# Compressibility (1/GPa) = 0.02242752
#
# Stress axis : x y z
#
# Youngs Moduli (GPa) = 82.52286 54.12867 60.31112
#
# Poissons Ratio (x) = 0.64462 0.07135
# Poissons Ratio (y) = 0.98276 -0.04338
# Poissons Ratio (z) = 0.09763 -0.03893
#
# Static dielectric constant tensor:
#      x y z
#    x 1.748950 0.000000 0.000000 
#    y 0.000000 1.747880 0.000000 
#    z 0.000000 0.000000 1.882410 
# 
# From -- ./inp_files/62325.got.cif
#   From: 2010.05.17/outbox.cif.g08.bks.cpg/sg71_32_cif.got.tgz:62325.got - 2010.06.03 16:22:01.
