data_PCOD9524013
_publ_section_title
;
Structure prediction by ZEFSAII (Michael W. Deem and Ramdas Pophale) SiO2 
 PCOD9524013
Probable space group: I M M M
;
_chemical_formula_sum "Si O2"
_cell_formula_units_Z 68
_cell_length_a 9.247254
_cell_length_b 17.184013
_cell_length_c 18.480596
_cell_angle_alpha 90.000000
_cell_angle_beta 90.000000
_cell_angle_gamma 90.000000
_cell_volume 2936.657868
_symmetry_space_group_name_H-M "I M M M"
_symmetry_group_IT_number 71
_symmetry_cell_setting 'orthorhombic'
loop_
_space_group_symop_operation_xyz
x,y,z
-x,-y,z
x,-y,-z
-x,y,-z
-x,-y,-z
x,y,-z
-x,y,z
x,-y,z
1/2+x,1/2+y,1/2+z
1/2-x,1/2-y,1/2+z
1/2+x,1/2-y,1/2-z
1/2-x,1/2+y,1/2-z
1/2-x,1/2-y,1/2-z
1/2+x,1/2+y,1/2-z
1/2-x,1/2+y,1/2+z
1/2+x,1/2-y,1/2+z
loop_
_atom_site_type_symbol
_atom_site_label
_atom_site_fract_x
_atom_site_fract_y
_atom_site_fract_z
Si Si1 0.500000 0.907725 0.221539
Si Si2 0.500000 0.582999 0.381690
Si Si3 0.769454 0.349164 0.163548
Si Si4 0.000000 0.754949 0.087115
Si Si5 0.674983 0.000000 0.414221
Si Si6 0.253420 0.915978 0.000000
Si Si7 0.000000 0.247122 0.344099
Si Si8 0.000000 0.286797 0.500000
O O1 0.637707 0.883395 0.269985
O O2 0.500000 0.841170 0.160528
O O3 0.500000 0.000000 0.203213
O O4 0.500000 0.500000 0.340838
O O5 0.500000 0.671602 0.357779
O O6 0.356096 0.583485 0.431893
O O7 0.742380 0.425705 0.116723
O O8 0.638415 0.295692 0.188236
O O9 0.864114 0.295976 0.109906
O O10 0.000000 0.772180 0.000000
O O11 0.500000 0.000000 0.391079
O O12 0.671173 0.000000 0.500000
O O13 0.359778 0.843468 0.000000
O O14 0.329720 0.000000 0.000000
O O15 0.000000 0.233596 0.429630
#
# Coordination Sequence:
#
# PCOD9524013 Si02
#       8
#     8   8  16   8   8   8   8   4
#     4  11  23  52  76  92 121 184 245 277 321 402
#     4   9  17  30  50  81 114 169 221 268 303 361
#     4  11  23  43  68 101 134 174 225 279 336 404
#     4  11  19  32  63  91 132 180 222 263 318 402
#     4  11  20  39  71 109 137 175 223 270 332 417
#     4   9  17  31  51  69 113 163 217 253 300 372
#     4  12  29  40  67 103 146 170 218 282 352 399
#     4  12  25  40  52  97 142 180 196 252 346 419
#
# _framework density 23.155574999999999
#
# number of rings (size 3 to 8) (size 9 to 14) (size 15 to 20)
#    0.000    1.294    4.706    3.706    3.294    1.412 
#    0.000    1.765    0.000    0.000    0.000    0.000 
#    0.000    0.000    0.000    0.000    0.000    0.000 
#
# Total GULP energy -189809.445575 kJ/mol
# GULP energy per Si atom -5582.630752 kJ/mol
# Density = 2.310287 g / cm^3
# Si number density = 23.155575 Si / 1000 Ang^3
#
#
#
# Elastic Constant Matrix: (Units=GPa)
#
#
# Indices 1 2 3 4 5 6 
#
# 1 99.2011 34.4790 1.3149 0.0000 0.0000 0.0000
# 2 34.4790 192.3609 13.4488 0.0000 0.0000 0.0000
# 3 1.3149 13.4488 55.9120 0.0000 0.0000 0.0000
# 4 0.0000 0.0000 0.0000 16.5392 0.0000 0.0000
# 5 0.0000 0.0000 0.0000 0.0000 12.2883 0.0000
# 6 0.0000 0.0000 0.0000 0.0000 0.0000 -168.2808
#
#
#
# Elastic Compliance Matrix: (Units=1/GPa)
#
#
# Indices 1 2 3 4 5 6 
#
# 1 0.010753 -0.001942 0.000214 0.000000 0.000000 0.000000
# 2 -0.001942 0.005638 -0.001311 0.000000 0.000000 0.000000
# 3 0.000214 -0.001311 0.018195 0.000000 0.000000 0.000000
# 4 0.000000 0.000000 0.000000 0.060462 0.000000 0.000000
# 5 0.000000 0.000000 0.000000 0.000000 0.081378 0.000000
# 6 0.000000 0.000000 0.000000 0.000000 0.000000 -0.005942
#
#
# Mechanical properties :
#
#
# Convention : Reuss Voigt Hill
#
# Bulk Modulus (GPa) = 35.07607 49.55103 42.31355
# Shear Modulus (GPa) = 26.87234 -8.00856 9.43189
#
# Velocity S-wave (km/s) = 3.41033 -1.86175 2.02042
# Velocity P-wave (km/s) = 5.53967 4.10173 4.87402
#
# Compressibility (1/GPa) = 0.02850947
#
# Stress axis : x y z
#
# Youngs Moduli (GPa) = 92.99925 177.35740 54.95887
#
# Poissons Ratio (x) = 0.34449 -0.01178
# Poissons Ratio (y) = 0.18063 0.07203
# Poissons Ratio (z) = -0.01993 0.23243
#
# Static dielectric constant tensor:
#      x y z
#    x 1.888730 0.000000 0.000000 
#    y 0.000000 1.910860 0.000000 
#    z 0.000000 0.000000 1.892660 
# 
# From -- ./inp_files/50071.got.cif
#   From: 2010.05.17/outbox.cif.g08.bks.cpg/sg71_26_cif.got.tgz:50071.got - 2010.06.03 16:22:01.
