data_PCOD9524187
_publ_section_title
;
Structure prediction by ZEFSAII (Michael W. Deem and Ramdas Pophale) SiO2 
 PCOD9524187
Probable space group: I M M M
;
_chemical_formula_sum "Si O2"
_cell_formula_units_Z 72
_cell_length_a 7.869361
_cell_length_b 31.061549
_cell_length_c 15.485749
_cell_angle_alpha 90.000000
_cell_angle_beta 90.000000
_cell_angle_gamma 90.000000
_cell_volume 3785.251969
_symmetry_space_group_name_H-M "I M M M"
_symmetry_group_IT_number 71
_symmetry_cell_setting 'orthorhombic'
loop_
_space_group_symop_operation_xyz
x,y,z
-x,-y,z
x,-y,-z
-x,y,-z
-x,-y,-z
x,y,-z
-x,y,z
x,-y,z
1/2+x,1/2+y,1/2+z
1/2-x,1/2-y,1/2+z
1/2+x,1/2-y,1/2-z
1/2-x,1/2+y,1/2-z
1/2-x,1/2-y,1/2-z
1/2+x,1/2+y,1/2-z
1/2-x,1/2+y,1/2+z
1/2+x,1/2-y,1/2+z
loop_
_atom_site_type_symbol
_atom_site_label
_atom_site_fract_x
_atom_site_fract_y
_atom_site_fract_z
Si Si1 0.798302 0.771166 0.000000
Si Si2 0.208869 0.327208 0.000000
Si Si3 0.500000 0.552045 0.404475
Si Si4 0.297873 0.207532 0.194027
Si Si5 0.299656 0.050351 0.223603
Si Si6 0.206140 0.633317 0.820645
O O1 0.751005 0.790982 0.093074
O O2 0.731997 0.722068 0.000000
O O3 0.000000 0.768972 0.000000
O O4 0.266469 0.350550 0.913190
O O5 0.000000 0.326925 0.000000
O O6 0.500000 0.500000 0.410435
O O7 0.500000 0.570755 0.500000
O O8 0.328279 0.562458 0.353196
O O9 0.500000 0.205573 0.195834
O O10 0.250000 0.250000 0.250000
O O11 0.231503 0.165759 0.245878
O O12 0.500000 0.055468 0.201017
O O13 0.256806 0.083944 0.298818
O O14 0.273408 0.000000 0.245310
O O15 0.000000 0.636691 0.821846
#
# Coordination Sequence:
#
# PCOD9524187 Si02
#       6
#     8   8   8  16  16  16
#     4  11  21  37  55  78 108 146 186 225 275 330
#     4   9  16  31  56  79 107 143 181 223 271 332
#     4   9  18  34  56  81 107 141 187 232 276 327
#     4  11  21  36  56  79 110 144 182 229 277 328
#     4   9  18  35  57  80 111 148 184 226 277 330
#     4   9  18  34  55  80 109 146 183 221 277 332
#
# _framework density 19.021191000000002
#
# number of rings (size 3 to 8) (size 9 to 14) (size 15 to 20)
#    0.000    2.333    2.222    1.000    0.000    0.444 
#    6.000    2.778    0.000    3.333    0.000    2.333 
#    0.000    0.000    0.000    0.000    0.000    0.000 
#
# Total GULP energy -200650.838417 kJ/mol
# GULP energy per Si atom -5573.634400 kJ/mol
# Density = 1.897790 g / cm^3
# Si number density = 19.021191 Si / 1000 Ang^3
#
#
#
# Elastic Constant Matrix: (Units=GPa)
#
#
# Indices 1 2 3 4 5 6 
#
# 1 44.0731 25.0084 30.4064 0.0000 0.0000 0.0000
# 2 25.0084 101.6105 79.8288 0.0000 0.0000 0.0000
# 3 30.4064 79.8288 185.4393 0.0000 0.0000 0.0000
# 4 0.0000 0.0000 0.0000 17.8207 0.0000 0.0000
# 5 0.0000 0.0000 0.0000 0.0000 29.0155 0.0000
# 6 0.0000 0.0000 0.0000 0.0000 0.0000 14.6026
#
#
#
# Elastic Compliance Matrix: (Units=1/GPa)
#
#
# Indices 1 2 3 4 5 6 
#
# 1 0.027045 -0.004794 -0.002371 0.000000 0.000000 0.000000
# 2 -0.004794 0.015721 -0.005981 0.000000 0.000000 0.000000
# 3 -0.002371 -0.005981 0.008356 0.000000 0.000000 0.000000
# 4 0.000000 0.000000 0.000000 0.056114 0.000000 0.000000
# 5 0.000000 0.000000 0.000000 0.000000 0.034464 0.000000
# 6 0.000000 0.000000 0.000000 0.000000 0.000000 0.068481
#
#
# Mechanical properties :
#
#
# Convention : Reuss Voigt Hill
#
# Bulk Modulus (GPa) = 40.27383 66.84557 53.55970
# Shear Modulus (GPa) = 20.42891 25.34638 22.88764
#
# Velocity S-wave (km/s) = 3.28076 3.65435 3.47258
# Velocity P-wave (km/s) = 5.96408 7.28180 6.65564
#
# Compressibility (1/GPa) = 0.02483002
#
# Stress axis : x y z
#
# Youngs Moduli (GPa) = 36.97476 63.61096 119.67024
#
# Poissons Ratio (x) = 0.30493 0.28374
# Poissons Ratio (y) = 0.17725 0.71580
# Poissons Ratio (z) = 0.08767 0.38049
#
# Static dielectric constant tensor:
#      x y z
#    x 1.400870 0.000000 0.000000 
#    y 0.000000 1.669270 0.000000 
#    z 0.000000 0.000000 1.643870 
# 
# From -- ./inp_files/31486.got.cif
#   From: 2010.05.17/outbox.cif.g08.bks.cpg/sg71_16_cif.got.tgz:31486.got - 2010.06.03 16:22:01.
