data_PCOD9524868
_publ_section_title
;
Structure prediction by ZEFSAII (Michael W. Deem and Ramdas Pophale) SiO2 
 PCOD9524868
Probable space group: I M M M
;
_chemical_formula_sum "Si O2"
_cell_formula_units_Z 44
_cell_length_a 21.000000
_cell_length_b 15.000000
_cell_length_c 15.000000
_cell_angle_alpha 90.000000
_cell_angle_beta 90.000000
_cell_angle_gamma 90.000000
_cell_volume 4725.000000
_symmetry_space_group_name_H-M "I M M M"
_symmetry_group_IT_number 71
_symmetry_cell_setting 'orthorhombic'
loop_
_space_group_symop_operation_xyz
x,y,z
-x,-y,z
x,-y,-z
-x,y,-z
-x,-y,-z
x,y,-z
-x,y,z
x,-y,z
1/2+x,1/2+y,1/2+z
1/2-x,1/2-y,1/2+z
1/2+x,1/2-y,1/2-z
1/2-x,1/2+y,1/2-z
1/2-x,1/2-y,1/2-z
1/2+x,1/2+y,1/2-z
1/2-x,1/2+y,1/2+z
1/2+x,1/2-y,1/2+z
loop_
_atom_site_type_symbol
_atom_site_label
_atom_site_fract_x
_atom_site_fract_y
_atom_site_fract_z
Si Si1 0.122204 0.394480 0.765098
Si Si2 0.800429 0.706768 0.100982
Si Si3 0.425476 0.397655 0.801549
Si Si4 0.425762 0.665413 0.399279
Si Si5 0.153956 0.739651 0.392738
Si Si6 0.500000 0.892360 0.607375
O O1 0.120036 0.500000 0.747749
O O2 0.183045 0.366192 0.824682
O O3 0.127361 0.338262 0.673138
O O4 0.061749 0.371286 0.830214
O O5 0.862023 0.772959 0.103294
O O6 0.731160 0.751098 0.117253
O O7 0.798849 0.669608 0.000000
O O8 0.500000 0.378587 0.822680
O O9 0.411612 0.500000 0.825804
O O10 0.419996 0.388231 0.693462
O O11 0.380279 0.328294 0.853207
O O12 0.423577 0.624054 0.500000
O O13 0.500000 0.702585 0.394571
O O14 0.141592 0.728575 0.500000
O O15 0.500000 0.864576 0.500000
O O16 0.500000 0.000000 0.600983
#
# Coordination Sequence:
#
# PCOD9524868 Si02
#       6
#    16  16  16  16  16   8
#     4  11  23  39  63  93 126 164 203 250 312 380
#     4  10  21  38  61  91 124 159 204 252 306 372
#     4  10  22  40  63  90 118 154 207 263 314 368
#     4   9  18  34  61  93 124 157 191 240 311 383
#     4  11  25  43  61  85 124 168 214 264 306 360
#     4   9  20  38  61  95 130 155 195 257 317 377
#
# _framework density 9.3121690000000008
#
# number of rings (size 3 to 8) (size 9 to 14) (size 15 to 20)
#    0.000    1.909    1.818    1.091    2.545    3.273 
#    0.000    4.545    0.000    4.909    0.000    0.000 
#    0.000    0.000    0.000    0.000    0.000    0.000 
#
# Total GULP energy -245129.667763 kJ/mol
# GULP energy per Si atom -5571.128813 kJ/mol
# Density = 0.929097 g / cm^3
# Si number density = 9.312169 Si / 1000 Ang^3
#
#
#
# Elastic Constant Matrix: (Units=GPa)
#
#
# Indices 1 2 3 4 5 6 
#
# 1 112.6715 49.9801 54.1433 0.0000 0.0000 0.0000
# 2 49.9801 97.1969 64.4761 0.0000 0.0000 0.0000
# 3 54.1433 64.4761 160.4734 0.0000 0.0000 0.0000
# 4 0.0000 0.0000 0.0000 23.2678 0.0000 0.0000
# 5 0.0000 0.0000 0.0000 0.0000 38.1148 0.0000
# 6 0.0000 0.0000 0.0000 0.0000 0.0000 23.5295
#
#
#
# Elastic Compliance Matrix: (Units=1/GPa)
#
#
# Indices 1 2 3 4 5 6 
#
# 1 0.012015 -0.004757 -0.002143 0.000000 0.000000 0.000000
# 2 -0.004757 0.015910 -0.004788 0.000000 0.000000 0.000000
# 3 -0.002143 -0.004788 0.008878 0.000000 0.000000 0.000000
# 4 0.000000 0.000000 0.000000 0.042978 0.000000 0.000000
# 5 0.000000 0.000000 0.000000 0.000000 0.026237 0.000000
# 6 0.000000 0.000000 0.000000 0.000000 0.000000 0.042500
#
#
# Mechanical properties :
#
#
# Convention : Reuss Voigt Hill
#
# Bulk Modulus (GPa) = 74.46468 78.61565 76.54017
# Shear Modulus (GPa) = 28.34972 30.43191 29.39081
#
# Velocity S-wave (km/s) = 3.90575 4.04664 3.97682
# Velocity P-wave (km/s) = 7.77233 8.00854 7.89132
#
# Compressibility (1/GPa) = 0.01342918
#
# Stress axis : x y z
#
# Youngs Moduli (GPa) = 83.22829 62.85189 112.63763
#
# Poissons Ratio (x) = 0.29899 0.24133
# Poissons Ratio (y) = 0.39593 0.53926
# Poissons Ratio (z) = 0.17832 0.30091
#
# Static dielectric constant tensor:
#      x y z
#    x 1.651240 0.000000 0.000000 
#    y 0.000000 1.695790 0.000000 
#    z 0.000000 0.000000 1.642900 
# 
# From -- ./inp_files/37743.got.cif
#   From: 2010.05.17/outbox.ucp.g08.bks.cvg/sg71_19_cif.got.tgz:37743.got - 2010.06.11 16:29:00.
