data_PCOD9524130
_publ_section_title
;
Structure prediction by ZEFSAII (Michael W. Deem and Ramdas Pophale) SiO2 
 PCOD9524130
Probable space group: I M M M
;
_chemical_formula_sum "Si O2"
_cell_formula_units_Z 104
_cell_length_a 23.712507
_cell_length_b 7.584891
_cell_length_c 28.919006
_cell_angle_alpha 90.000000
_cell_angle_beta 90.000000
_cell_angle_gamma 90.000000
_cell_volume 5201.279327
_symmetry_space_group_name_H-M "I M M M"
_symmetry_group_IT_number 71
_symmetry_cell_setting 'orthorhombic'
loop_
_space_group_symop_operation_xyz
x,y,z
-x,-y,z
x,-y,-z
-x,y,-z
-x,-y,-z
x,y,-z
-x,y,z
x,-y,z
1/2+x,1/2+y,1/2+z
1/2-x,1/2-y,1/2+z
1/2+x,1/2-y,1/2-z
1/2-x,1/2+y,1/2-z
1/2-x,1/2-y,1/2-z
1/2+x,1/2+y,1/2-z
1/2-x,1/2+y,1/2+z
1/2+x,1/2-y,1/2+z
loop_
_atom_site_type_symbol
_atom_site_label
_atom_site_fract_x
_atom_site_fract_y
_atom_site_fract_z
Si Si1 0.936964 0.785578 0.736151
Si Si2 0.234933 0.802139 0.697423
Si Si3 0.931421 0.704824 0.000000
Si Si4 0.354999 0.704180 0.683860
Si Si5 0.434948 0.785553 0.600100
Si Si6 0.565476 0.715145 0.052406
Si Si7 0.626142 0.284937 0.144489
O O1 0.888878 0.723348 0.771681
O O2 0.919714 0.741518 0.683998
O O3 0.000000 0.724264 0.747985
O O4 0.937317 0.000000 0.739704
O O5 0.250000 0.750000 0.750000
O O6 0.295640 0.793596 0.673459
O O7 0.185506 0.718248 0.666343
O O8 0.214444 0.000000 0.702766
O O9 0.914989 0.779544 0.049611
O O10 0.913797 0.500000 0.000000
O O11 0.000000 0.705765 0.000000
O O12 0.341710 0.500000 0.692898
O O13 0.396724 0.719568 0.641100
O O14 0.500000 0.732754 0.606983
O O15 0.433867 0.000000 0.599618
O O16 0.500000 0.765431 0.060868
O O17 0.566478 0.500000 0.052524
O O18 0.605617 0.776788 0.094141
O O19 0.580768 0.770617 0.000000
O O20 0.628141 0.500000 0.140813
#
# Coordination Sequence:
#
# PCOD9524130 Si02
#       7
#    16  16   8  16  16  16  16
#     4   9  16  26  42  66  95 124 155 193 239 293
#     4  11  21  35  52  70  94 130 174 214 253 298
#     4   7  12  26  49  73  97 127 161 195 240 303
#     4  11  21  33  48  71 100 134 173 208 247 297
#     4   9  17  31  52  77 103 131 163 204 256 307
#     4   8  13  22  40  69 102 129 152 189 246 304
#     4   9  16  27  44  66  93 127 165 198 239 297
#
# _framework density 19.995080000000002
#
# number of rings (size 3 to 8) (size 9 to 14) (size 15 to 20)
#    0.000    2.692    1.538    3.231    0.000    2.769 
#    0.000    0.385    1.692    1.385    0.000    0.000 
#    0.000    0.000    0.000    6.769    0.000    6.154 
#
# Total GULP energy -289834.469563 kJ/mol
# GULP energy per Si atom -5573.739799 kJ/mol
# Density = 1.994957 g / cm^3
# Si number density = 19.995080 Si / 1000 Ang^3
#
#
#
# Elastic Constant Matrix: (Units=GPa)
#
#
# Indices 1 2 3 4 5 6 
#
# 1 108.6672 0.8334 64.1846 0.0000 0.0000 0.0000
# 2 0.8334 41.7097 4.6843 0.0000 0.0000 0.0000
# 3 64.1846 4.6843 161.3445 0.0000 0.0000 0.0000
# 4 0.0000 0.0000 0.0000 10.6507 0.0000 0.0000
# 5 0.0000 0.0000 0.0000 0.0000 21.8844 0.0000
# 6 0.0000 0.0000 0.0000 0.0000 0.0000 8.7945
#
#
#
# Elastic Compliance Matrix: (Units=1/GPa)
#
#
# Indices 1 2 3 4 5 6 
#
# 1 0.012032 0.000298 -0.004795 0.000000 0.000000 0.000000
# 2 0.000298 0.024061 -0.000817 0.000000 0.000000 0.000000
# 3 -0.004795 -0.000817 0.008129 0.000000 0.000000 0.000000
# 4 0.000000 0.000000 0.000000 0.093891 0.000000 0.000000
# 5 0.000000 0.000000 0.000000 0.000000 0.045695 0.000000
# 6 0.000000 0.000000 0.000000 0.000000 0.000000 0.113708
#
#
# Mechanical properties :
#
#
# Convention : Reuss Voigt Hill
#
# Bulk Modulus (GPa) = 29.76710 50.12510 39.94610
# Shear Modulus (GPa) = 15.65719 24.40053 20.02886
#
# Velocity S-wave (km/s) = 2.80134 3.49711 3.16838
# Velocity P-wave (km/s) = 5.03814 6.43657 5.77981
#
# Compressibility (1/GPa) = 0.03359414
#
# Stress axis : x y z
#
# Youngs Moduli (GPa) = 83.10833 41.56093 123.01230
#
# Poissons Ratio (x) = -0.01239 0.58988
# Poissons Ratio (y) = -0.02478 0.10052
# Poissons Ratio (z) = 0.39853 0.03396
#
# Static dielectric constant tensor:
#      x y z
#    x 1.711730 0.000000 0.000000 
#    y 0.000000 1.837870 0.000000 
#    z 0.000000 0.000000 1.725180 
# 
# From -- ./inp_files/13350.got.cif
#   From: 2010.05.17/outbox.cif.g08.bks.cpg/sg71_7_cif.got.tgz:13350.got - 2010.06.03 16:22:01.
