data_PCOD9524861
_publ_section_title
;
Structure prediction by ZEFSAII (Michael W. Deem and Ramdas Pophale) SiO2 
 PCOD9524861
Probable space group: I M M M
;
_chemical_formula_sum "Si O2"
_cell_formula_units_Z 44
_cell_length_a 30.000000
_cell_length_b 9.000000
_cell_length_c 18.000000
_cell_angle_alpha 90.000000
_cell_angle_beta 90.000000
_cell_angle_gamma 90.000000
_cell_volume 4860.000000
_symmetry_space_group_name_H-M "I M M M"
_symmetry_group_IT_number 71
_symmetry_cell_setting 'orthorhombic'
loop_
_space_group_symop_operation_xyz
x,y,z
-x,-y,z
x,-y,-z
-x,y,-z
-x,-y,-z
x,y,-z
-x,y,z
x,-y,z
1/2+x,1/2+y,1/2+z
1/2-x,1/2-y,1/2+z
1/2+x,1/2-y,1/2-z
1/2-x,1/2+y,1/2-z
1/2-x,1/2-y,1/2-z
1/2+x,1/2+y,1/2-z
1/2-x,1/2+y,1/2+z
1/2+x,1/2-y,1/2+z
loop_
_atom_site_type_symbol
_atom_site_label
_atom_site_fract_x
_atom_site_fract_y
_atom_site_fract_z
Si Si1 0.149523 0.180394 0.160173
Si Si2 0.946689 0.319573 0.806860
Si Si3 0.447067 0.663374 0.000000
Si Si4 0.312398 0.823188 0.187460
Si Si5 0.413194 0.827363 0.143162
Si Si6 0.766208 0.321553 0.087051
O O1 0.098117 0.245405 0.154658
O O2 0.173525 0.239207 0.236378
O O3 0.185254 0.246152 0.101158
O O4 0.147875 0.000000 0.158840
O O5 0.942988 0.500000 0.815372
O O6 0.935962 0.280063 0.720833
O O7 0.000000 0.282504 0.823882
O O8 0.432004 0.742748 0.926031
O O9 0.427197 0.500000 0.000000
O O10 0.500000 0.656613 0.000000
O O11 0.359572 0.813395 0.144432
O O12 0.271340 0.750559 0.141926
O O13 0.303479 0.000000 0.201295
O O14 0.423958 0.000000 0.135684
O O15 0.768897 0.500000 0.100854
O O16 0.753881 0.299675 0.000000
#
# Coordination Sequence:
#
# PCOD9524861 Si02
#       6
#    16  16   8  16  16  16
#     4  11  22  37  59  86 117 151 187 229 278 333
#     4   9  18  35  59  84 109 140 182 231 280 331
#     4  11  23  33  43  65 101 143 183 229 280 323
#     4  10  21  38  59  82 111 147 189 233 279 332
#     4   9  19  34  52  74 101 139 183 225 270 325
#     4  11  24  40  59  84 114 148 187 232 284 338
#
# _framework density 9.0534979999999994
#
# number of rings (size 3 to 8) (size 9 to 14) (size 15 to 20)
#    0.000    1.909    0.000    5.182    1.273    6.909 
#    0.000    0.000    0.000    0.545    0.000    3.818 
#    0.000    0.000    0.000    0.000    0.000    0.000 
#
# Total GULP energy -245191.093275 kJ/mol
# GULP energy per Si atom -5572.524847 kJ/mol
# Density = 0.903289 g / cm^3
# Si number density = 9.053498 Si / 1000 Ang^3
#
#
#
# Elastic Constant Matrix: (Units=GPa)
#
#
# Indices 1 2 3 4 5 6 
#
# 1 126.1554 52.1580 17.2197 0.0000 0.0000 0.0000
# 2 52.1580 83.6810 18.8462 0.0000 0.0000 0.0000
# 3 17.2197 18.8462 35.2303 0.0000 0.0000 0.0000
# 4 0.0000 0.0000 0.0000 18.3592 0.0000 0.0000
# 5 0.0000 0.0000 0.0000 0.0000 30.1399 0.0000
# 6 0.0000 0.0000 0.0000 0.0000 0.0000 40.8522
#
#
#
# Elastic Compliance Matrix: (Units=1/GPa)
#
#
# Indices 1 2 3 4 5 6 
#
# 1 0.010790 -0.006296 -0.001906 0.000000 0.000000 0.000000
# 2 -0.006296 0.017261 -0.006156 0.000000 0.000000 0.000000
# 3 -0.001906 -0.006156 0.032609 0.000000 0.000000 0.000000
# 4 0.000000 0.000000 0.000000 0.054469 0.000000 0.000000
# 5 0.000000 0.000000 0.000000 0.000000 0.033179 0.000000
# 6 0.000000 0.000000 0.000000 0.000000 0.000000 0.024478
#
#
# Mechanical properties :
#
#
# Convention : Reuss Voigt Hill
#
# Bulk Modulus (GPa) = 31.30479 46.83494 39.06987
# Shear Modulus (GPa) = 23.56821 28.32646 25.94734
#
# Velocity S-wave (km/s) = 3.61169 3.95953 3.78961
# Velocity P-wave (km/s) = 5.89226 6.84293 6.38531
#
# Compressibility (1/GPa) = 0.03194399
#
# Stress axis : x y z
#
# Youngs Moduli (GPa) = 92.67885 57.93422 30.66605
#
# Poissons Ratio (x) = 0.36476 0.05844
# Poissons Ratio (y) = 0.58352 0.18879
# Poissons Ratio (z) = 0.17663 0.35666
#
# Static dielectric constant tensor:
#      x y z
#    x 1.631760 0.000000 0.000000 
#    y 0.000000 1.624520 0.000000 
#    z 0.000000 0.000000 1.632460 
# 
# From -- ./inp_files/42437.got.cif
#   From: 2010.05.17/outbox.ucp.g08.bks.cvg/sg71_22_cif.got.tgz:42437.got - 2010.06.11 16:29:00.
