data_PCOD9524839
_publ_section_title
;
Structure prediction by ZEFSAII (Michael W. Deem and Ramdas Pophale) SiO2 
 PCOD9524839
Probable space group: I M M M
;
_chemical_formula_sum "Si O2"
_cell_formula_units_Z 52
_cell_length_a 24.000000
_cell_length_b 9.000000
_cell_length_c 27.000000
_cell_angle_alpha 90.000000
_cell_angle_beta 90.000000
_cell_angle_gamma 90.000000
_cell_volume 5832.000000
_symmetry_space_group_name_H-M "I M M M"
_symmetry_group_IT_number 71
_symmetry_cell_setting 'orthorhombic'
loop_
_space_group_symop_operation_xyz
x,y,z
-x,-y,z
x,-y,-z
-x,y,-z
-x,-y,-z
x,y,-z
-x,y,z
x,-y,z
1/2+x,1/2+y,1/2+z
1/2-x,1/2-y,1/2+z
1/2+x,1/2-y,1/2-z
1/2-x,1/2+y,1/2-z
1/2-x,1/2-y,1/2-z
1/2+x,1/2+y,1/2-z
1/2-x,1/2+y,1/2+z
1/2+x,1/2-y,1/2+z
loop_
_atom_site_type_symbol
_atom_site_label
_atom_site_fract_x
_atom_site_fract_y
_atom_site_fract_z
Si Si1 0.936331 0.824739 0.731461
Si Si2 0.238895 0.824372 0.696752
Si Si3 0.935047 0.174397 0.000000
Si Si4 0.362666 0.831209 0.689573
Si Si5 0.563159 0.830183 0.593386
Si Si6 0.562849 0.819187 0.943493
Si Si7 0.631014 0.177561 0.148379
O O1 0.889498 0.780665 0.771417
O O2 0.918978 0.729527 0.684090
O O3 0.000000 0.790783 0.747594
O O4 0.933235 0.000000 0.720985
O O5 0.250000 0.750000 0.750000
O O6 0.299675 0.803587 0.672470
O O7 0.187773 0.750184 0.668290
O O8 0.227909 0.000000 0.702220
O O9 0.909978 0.234769 0.050198
O O10 0.000000 0.228494 0.000000
O O11 0.935778 0.000000 0.000000
O O12 0.402457 0.826329 0.642894
O O13 0.363545 0.000000 0.711149
O O14 0.500000 0.778241 0.603580
O O15 0.560641 0.000000 0.575863
O O16 0.500000 0.772081 0.928654
O O17 0.610890 0.772833 0.905875
O O18 0.562380 0.000000 0.942946
O O19 0.572200 0.771934 0.000000
O O20 0.636823 0.000000 0.149878
#
# Coordination Sequence:
#
# PCOD9524839 Si02
#       7
#    16  16   8  16  16  16  16
#     4  11  23  35  50  77 112 144 173 215 270 322
#     4  11  22  37  56  78 105 141 184 225 265 312
#     4   9  17  29  47  73 103 133 163 199 250 311
#     4  10  21  36  55  76 100 137 181 222 266 317
#     4   9  17  31  52  76 100 129 168 214 261 311
#     4   8  15  30  54  84 113 140 178 229 279 328
#     4  11  21  34  56  82 108 145 185 223 270 325
#
# _framework density 8.9163239999999995
#
# number of rings (size 3 to 8) (size 9 to 14) (size 15 to 20)
#    0.000    2.077    1.538    3.000    0.000    4.615 
#    0.000    1.538    1.692    1.846    0.000    5.385 
#    0.000    0.000    0.000    0.000    0.000    0.000 
#
# Total GULP energy -289704.505837 kJ/mol
# GULP energy per Si atom -5571.240497 kJ/mol
# Density = 0.889603 g / cm^3
# Si number density = 8.916324 Si / 1000 Ang^3
#
#
#
# Elastic Constant Matrix: (Units=GPa)
#
#
# Indices 1 2 3 4 5 6 
#
# 1 112.1737 38.3718 49.7222 0.0000 0.0000 0.0000
# 2 38.3718 51.2562 35.0379 0.0000 0.0000 0.0000
# 3 49.7222 35.0379 77.4280 0.0000 0.0000 0.0000
# 4 0.0000 0.0000 0.0000 -11.8856 0.0000 0.0000
# 5 0.0000 0.0000 0.0000 0.0000 10.9490 0.0000
# 6 0.0000 0.0000 0.0000 0.0000 0.0000 25.8690
#
#
#
# Elastic Compliance Matrix: (Units=1/GPa)
#
#
# Indices 1 2 3 4 5 6 
#
# 1 0.013675 -0.006131 -0.006007 0.000000 0.000000 0.000000
# 2 -0.006131 0.030997 -0.010090 0.000000 0.000000 0.000000
# 3 -0.006007 -0.010090 0.021339 0.000000 0.000000 0.000000
# 4 0.000000 0.000000 0.000000 -0.084135 0.000000 0.000000
# 5 0.000000 0.000000 0.000000 0.000000 0.091333 0.000000
# 6 0.000000 0.000000 0.000000 0.000000 0.000000 0.038656
#
#
# Mechanical properties :
#
#
# Convention : Reuss Voigt Hill
#
# Bulk Modulus (GPa) = 46.39356 54.12464 50.25910
# Shear Modulus (GPa) = 30.58025 12.83486 21.70755
#
# Velocity S-wave (km/s) = 4.14556 2.68571 3.49276
# Velocity P-wave (km/s) = 6.99906 6.32730 6.67164
#
# Compressibility (1/GPa) = 0.02155472
#
# Stress axis : x y z
#
# Youngs Moduli (GPa) = 73.12763 32.26159 46.86328
#
# Poissons Ratio (x) = 0.19779 0.28152
# Poissons Ratio (y) = 0.44833 0.47283
# Poissons Ratio (z) = 0.43929 0.32551
#
# Static dielectric constant tensor:
#      x y z
#    x 1.629000 0.000000 0.000000 
#    y 0.000000 1.619200 0.000000 
#    z 0.000000 0.000000 1.646050 
# 
# From -- ./inp_files/66805.got.cif
#   From: 2010.05.17/outbox.ucp.g08.bks.cvg/sg71_34_cif.got.tgz:66805.got - 2010.06.11 16:29:00.
