data_PCOD9524996
_publ_section_title
;
Structure prediction by ZEFSAII (Michael W. Deem and Ramdas Pophale) SiO2 
 PCOD9524996
Probable space group: I B A M
;
_chemical_formula_sum "Si O2"
_cell_formula_units_Z 80
_cell_length_a 5.396494
_cell_length_b 43.034397
_cell_length_c 14.450294
_cell_angle_alpha 90.000000
_cell_angle_beta 90.000000
_cell_angle_gamma 90.000000
_cell_volume 3355.862079
_symmetry_space_group_name_H-M "I B A M"
_symmetry_group_IT_number 72
_symmetry_cell_setting 'orthorhombic'
loop_
_space_group_symop_operation_xyz
x,y,z
-x,-y,z
x,-y,1/2-z
-x,y,1/2-z
-x,-y,-z
x,y,-z
-x,y,1/2+z
x,-y,1/2+z
1/2+x,1/2+y,1/2+z
1/2-x,1/2-y,1/2+z
1/2+x,1/2-y,-z
1/2-x,1/2+y,-z
1/2-x,1/2-y,1/2-z
1/2+x,1/2+y,1/2-z
1/2-x,1/2+y,z
1/2+x,1/2-y,z
loop_
_atom_site_type_symbol
_atom_site_label
_atom_site_fract_x
_atom_site_fract_y
_atom_site_fract_z
Si Si1 0.515102 0.859693 0.357792
Si Si2 0.912803 0.432257 0.388268
Si Si3 0.518411 0.668259 0.359264
Si Si4 0.584177 0.465396 0.887023
Si Si5 0.204698 0.238553 0.856443
O O1 0.500000 0.850182 0.250000
O O2 0.551866 0.896432 0.363520
O O3 0.249388 0.850805 0.398142
O O4 0.752183 0.841634 0.397255
O O5 0.911701 0.434576 0.500000
O O6 0.146670 0.453102 0.355849
O O7 0.643019 0.443612 0.356783
O O8 0.500000 0.660796 0.250000
O O9 0.592407 0.704262 0.364830
O O10 0.500000 0.500000 0.860220
O O11 0.593862 0.465151 0.000000
O O12 0.250000 0.250000 0.750000
O O13 0.482747 0.240248 0.895376
#
# Coordination Sequence:
#
# PCOD9524996 Si02
#       5
#    16  16  16  16  16
#     4  10  21  32  47  67  99 136 159 194 236 294
#     4  10  19  33  52  73  98 127 163 198 237 290
#     4  10  18  29  43  65  96 131 158 190 242 290
#     4   9  17  30  52  78  98 119 156 208 251 280
#     4  10  17  24  41  63  92 125 149 197 243 291
#
# _framework density 23.83888
#
# number of rings (size 3 to 8) (size 9 to 14) (size 15 to 20)
#    0.000    2.200    2.000    3.000    5.600    2.400 
#    0.000    0.000    0.000    3.600    0.000    0.000 
#    0.000   16.000    0.000    0.000    0.000    0.000 
#
# Total GULP energy -223464.733440 kJ/mol
# GULP energy per Si atom -5586.618336 kJ/mol
# Density = 2.378462 g / cm^3
# Si number density = 23.838880 Si / 1000 Ang^3
#
#
#
# Elastic Constant Matrix: (Units=GPa)
#
#
# Indices 1 2 3 4 5 6 
#
# 1 222.0383 69.1779 7.8648 0.0000 0.0000 0.0000
# 2 69.1779 113.1076 -16.8980 0.0000 0.0000 0.0000
# 3 7.8648 -16.8980 90.1957 0.0000 0.0000 0.0000
# 4 0.0000 0.0000 0.0000 31.1538 0.0000 0.0000
# 5 0.0000 0.0000 0.0000 0.0000 -11.1483 0.0000
# 6 0.0000 0.0000 0.0000 0.0000 0.0000 55.6812
#
#
#
# Elastic Compliance Matrix: (Units=1/GPa)
#
#
# Indices 1 2 3 4 5 6 
#
# 1 0.005683 -0.003652 -0.001180 0.000000 0.000000 0.000000
# 2 -0.003652 0.011443 0.002462 0.000000 0.000000 0.000000
# 3 -0.001180 0.002462 0.011651 0.000000 0.000000 0.000000
# 4 0.000000 0.000000 0.000000 0.032099 0.000000 0.000000
# 5 0.000000 0.000000 0.000000 0.000000 -0.089700 0.000000
# 6 0.000000 0.000000 0.000000 0.000000 0.000000 0.017959
#
#
# Mechanical properties :
#
#
# Convention : Reuss Voigt Hill
#
# Bulk Modulus (GPa) = 41.60146 60.62567 51.11356
# Shear Modulus (GPa) = 2647.81375 39.48380 1343.64878
#
# Velocity S-wave (km/s) = 33.36351 4.07415 23.76681
# Velocity P-wave (km/s) = 38.75118 6.90060 27.83228
#
# Compressibility (1/GPa) = 0.02403762
#
# Stress axis : x y z
#
# Youngs Moduli (GPa) = 175.95024 87.39134 85.82820
#
# Poissons Ratio (x) = 0.31918 0.10126
# Poissons Ratio (y) = 0.64262 -0.21133
# Poissons Ratio (z) = 0.20759 -0.21518
#
# Static dielectric constant tensor:
#      x y z
#    x 1.930450 0.000000 0.000000 
#    y 0.000000 1.797300 0.000000 
#    z 0.000000 0.000000 1.860790 
# 
# From -- ./inp_files/46756.got.cif
#   From: 2010.05.17/outbox.cif.g08.bks.cpg/sg72_24_cif.got.tgz:46756.got - 2010.06.03 17:03:01.
