data_PCOD9524138
_publ_section_title
;
Structure prediction by ZEFSAII (Michael W. Deem and Ramdas Pophale) SiO2 
 PCOD9524138
Probable space group: I M M M
;
_chemical_formula_sum "Si O2"
_cell_formula_units_Z 72
_cell_length_a 16.094609
_cell_length_b 15.482453
_cell_length_c 14.111635
_cell_angle_alpha 90.000000
_cell_angle_beta 90.000000
_cell_angle_gamma 90.000000
_cell_volume 3516.394042
_symmetry_space_group_name_H-M "I M M M"
_symmetry_group_IT_number 71
_symmetry_cell_setting 'orthorhombic'
loop_
_space_group_symop_operation_xyz
x,y,z
-x,-y,z
x,-y,-z
-x,y,-z
-x,-y,-z
x,y,-z
-x,y,z
x,-y,z
1/2+x,1/2+y,1/2+z
1/2-x,1/2-y,1/2+z
1/2+x,1/2-y,1/2-z
1/2-x,1/2+y,1/2-z
1/2-x,1/2-y,1/2-z
1/2+x,1/2+y,1/2-z
1/2-x,1/2+y,1/2+z
1/2+x,1/2-y,1/2+z
loop_
_atom_site_type_symbol
_atom_site_label
_atom_site_fract_x
_atom_site_fract_y
_atom_site_fract_z
Si Si1 0.265694 0.153856 0.892448
Si Si2 0.822132 0.147062 0.390808
Si Si3 0.156181 0.593575 0.207849
Si Si4 0.093795 0.767635 0.886260
Si Si5 0.000000 0.103175 0.610163
O O1 0.299624 0.252062 0.890562
O O2 0.321621 0.103307 0.818333
O O3 0.169045 0.166892 0.862676
O O4 0.269075 0.121219 0.000000
O O5 0.825227 0.116875 0.500000
O O6 0.746752 0.099501 0.340890
O O7 0.913186 0.134296 0.347540
O O8 0.117821 0.500000 0.187612
O O9 0.108129 0.677308 0.168618
O O10 0.000000 0.799032 0.870156
O O11 0.103240 0.750563 0.000000
O O12 0.000000 0.134326 0.500000
O O13 0.000000 0.000000 0.610083
#
# Coordination Sequence:
#
# PCOD9524138 Si02
#       5
#    16  16  16  16   8
#     4   9  19  37  54  72  99 136 185 221 251 300
#     4   9  17  31  51  73 101 133 164 206 257 311
#     4  11  21  33  50  76 108 138 172 214 261 311
#     4   9  18  34  58  83 105 133 170 216 269 320
#     4   9  16  26  44  74 106 128 150 189 252 318
#
# _framework density 20.475521000000001
#
# number of rings (size 3 to 8) (size 9 to 14) (size 15 to 20)
#    0.000    2.556    0.000    5.333    0.000    3.556 
#    8.000    1.111    0.000    0.000    0.000    4.667 
#    0.000    0.000    0.000    0.000    0.000    0.000 
#
# Total GULP energy -200863.584688 kJ/mol
# GULP energy per Si atom -5579.544019 kJ/mol
# Density = 2.042892 g / cm^3
# Si number density = 20.475521 Si / 1000 Ang^3
#
#
#
# Elastic Constant Matrix: (Units=GPa)
#
#
# Indices 1 2 3 4 5 6 
#
# 1 88.5304 -16.8122 -1.7750 0.0000 0.0000 0.0000
# 2 -16.8122 18.8756 -0.7450 0.0000 0.0000 0.0000
# 3 -1.7750 -0.7450 62.6019 0.0000 0.0000 0.0000
# 4 0.0000 0.0000 0.0000 6.1579 0.0000 0.0000
# 5 0.0000 0.0000 0.0000 0.0000 20.8962 0.0000
# 6 0.0000 0.0000 0.0000 0.0000 0.0000 2.7763
#
#
#
# Elastic Compliance Matrix: (Units=1/GPa)
#
#
# Indices 1 2 3 4 5 6 
#
# 1 0.013613 0.012146 0.000531 0.000000 0.000000 0.000000
# 2 0.012146 0.063840 0.001104 0.000000 0.000000 0.000000
# 3 0.000531 0.001104 0.016002 0.000000 0.000000 0.000000
# 4 0.000000 0.000000 0.000000 0.162392 0.000000 0.000000
# 5 0.000000 0.000000 0.000000 0.000000 0.047856 0.000000
# 6 0.000000 0.000000 0.000000 0.000000 0.000000 0.360190
#
#
# Mechanical properties :
#
#
# Convention : Reuss Voigt Hill
#
# Bulk Modulus (GPa) = 8.26343 14.59372 11.42858
# Shear Modulus (GPa) = 7.38912 18.58876 12.98894
#
# Velocity S-wave (km/s) = 1.90173 3.01633 2.52139
# Velocity P-wave (km/s) = 2.97769 4.39020 3.75103
#
# Compressibility (1/GPa) = 0.12101508
#
# Stress axis : x y z
#
# Youngs Moduli (GPa) = 73.46102 15.66417 62.49162
#
# Poissons Ratio (x) = -0.19025 -0.03315
# Poissons Ratio (y) = -0.89222 -0.06900
# Poissons Ratio (z) = -0.03897 -0.01729
#
# Static dielectric constant tensor:
#      x y z
#    x 1.737690 0.000000 0.000000 
#    y 0.000000 1.709720 0.000000 
#    z 0.000000 0.000000 1.789750 
# 
# From -- ./inp_files/36065.got.cif
#   From: 2010.05.17/outbox.cif.g08.bks.cpg/sg71_19_cif.got.tgz:36065.got - 2010.06.03 16:22:01.
