data_PCOD9524352
_publ_section_title
;
Structure prediction by ZEFSAII (Michael W. Deem and Ramdas Pophale) SiO2 
 PCOD9524352
Probable space group: I M M M
;
_chemical_formula_sum "Si O2"
_cell_formula_units_Z 88
_cell_length_a 23.035049
_cell_length_b 13.703879
_cell_length_c 14.610798
_cell_angle_alpha 90.000000
_cell_angle_beta 90.000000
_cell_angle_gamma 90.000000
_cell_volume 4612.183654
_symmetry_space_group_name_H-M "I M M M"
_symmetry_group_IT_number 71
_symmetry_cell_setting 'orthorhombic'
loop_
_space_group_symop_operation_xyz
x,y,z
-x,-y,z
x,-y,-z
-x,y,-z
-x,-y,-z
x,y,-z
-x,y,z
x,-y,z
1/2+x,1/2+y,1/2+z
1/2-x,1/2-y,1/2+z
1/2+x,1/2-y,1/2-z
1/2-x,1/2+y,1/2-z
1/2-x,1/2-y,1/2-z
1/2+x,1/2+y,1/2-z
1/2-x,1/2+y,1/2+z
1/2+x,1/2-y,1/2+z
loop_
_atom_site_type_symbol
_atom_site_label
_atom_site_fract_x
_atom_site_fract_y
_atom_site_fract_z
Si Si1 0.315051 0.617135 0.753077
Si Si2 0.377211 0.885311 0.747939
Si Si3 0.280164 0.118542 0.894780
Si Si4 0.930469 0.888348 0.000000
Si Si5 0.933921 0.801286 0.197149
Si Si6 0.776135 0.617732 0.102172
O O1 0.313870 0.500000 0.751567
O O2 0.275900 0.649665 0.665702
O O3 0.381221 0.649683 0.751589
O O4 0.280558 0.651698 0.842953
O O5 0.339411 0.861057 0.838531
O O6 0.428837 0.811930 0.725025
O O7 0.331550 0.866581 0.665871
O O8 0.392243 0.000000 0.749908
O O9 0.277005 0.000000 0.895949
O O10 0.280309 0.151029 0.000000
O O11 0.917817 0.828640 0.092100
O O12 0.000000 0.899138 0.000000
O O13 0.905616 0.000000 0.000000
O O14 0.000000 0.835900 0.212744
O O15 0.770901 0.500000 0.096746
O O16 0.782530 0.655613 0.000000
#
# Coordination Sequence:
#
# PCOD9524352 Si02
#       6
#    16  16  16   8  16  16
#     4   9  18  32  52  79 106 134 171 216 269 324
#     4   9  19  35  54  78 108 141 179 223 268 315
#     4   8  15  30  54  83 110 136 171 221 279 329
#     4   9  20  38  55  73 101 137 176 218 262 307
#     4  11  23  36  51  75 105 141 184 218 255 315
#     4   8  15  30  53  79 106 135 169 214 270 327
#
# _framework density 19.079899000000001
#
# number of rings (size 3 to 8) (size 9 to 14) (size 15 to 20)
#    0.000    3.000    0.000    2.727    2.545    4.364 
#    0.000    2.727    0.000    3.818    0.000    5.091 
#    0.000    0.000    0.000    0.000    0.000    0.000 
#
# Total GULP energy -245304.749244 kJ/mol
# GULP energy per Si atom -5575.107937 kJ/mol
# Density = 1.903647 g / cm^3
# Si number density = 19.079899 Si / 1000 Ang^3
#
#
#
# Elastic Constant Matrix: (Units=GPa)
#
#
# Indices 1 2 3 4 5 6 
#
# 1 77.9384 4.8432 28.2614 0.0000 0.0000 0.0000
# 2 4.8432 79.1931 2.1058 0.0000 0.0000 0.0000
# 3 28.2614 2.1058 113.2559 0.0000 0.0000 0.0000
# 4 0.0000 0.0000 0.0000 13.5699 0.0000 0.0000
# 5 0.0000 0.0000 0.0000 0.0000 13.5875 0.0000
# 6 0.0000 0.0000 0.0000 0.0000 0.0000 32.5053
#
#
#
# Elastic Compliance Matrix: (Units=1/GPa)
#
#
# Indices 1 2 3 4 5 6 
#
# 1 0.014154 -0.000772 -0.003518 0.000000 0.000000 0.000000
# 2 -0.000772 0.012676 -0.000043 0.000000 0.000000 0.000000
# 3 -0.003518 -0.000043 0.009708 0.000000 0.000000 0.000000
# 4 0.000000 0.000000 0.000000 0.073693 0.000000 0.000000
# 5 0.000000 0.000000 0.000000 0.000000 0.073597 0.000000
# 6 0.000000 0.000000 0.000000 0.000000 0.000000 0.030764
#
#
# Mechanical properties :
#
#
# Convention : Reuss Voigt Hill
#
# Bulk Modulus (GPa) = 35.87756 37.86757 36.87256
# Shear Modulus (GPa) = 21.50093 27.61102 24.55597
#
# Velocity S-wave (km/s) = 3.36056 3.80824 3.59138
# Velocity P-wave (km/s) = 5.82258 6.26313 6.04687
#
# Compressibility (1/GPa) = 0.02787258
#
# Stress axis : x y z
#
# Youngs Moduli (GPa) = 70.65063 78.89099 103.00642
#
# Poissons Ratio (x) = 0.06091 0.36234
# Poissons Ratio (y) = 0.05455 0.00443
# Poissons Ratio (z) = 0.24852 0.00339
#
# Static dielectric constant tensor:
#      x y z
#    x 1.633570 0.000000 0.000000 
#    y 0.000000 1.768640 0.000000 
#    z 0.000000 0.000000 1.674440 
# 
# From -- ./inp_files/34414.got.cif
#   From: 2010.05.17/outbox.cif.g08.bks.cpg/sg71_18_cif.got.tgz:34414.got - 2010.06.03 16:22:01.
