data_PCOD9524741
_publ_section_title
;
Structure prediction by ZEFSAII (Michael W. Deem and Ramdas Pophale) SiO2 
 PCOD9524741
Probable space group: I M M M
;
_chemical_formula_sum "Si O2"
_cell_formula_units_Z 44
_cell_length_a 12.000000
_cell_length_b 18.000000
_cell_length_c 21.000000
_cell_angle_alpha 90.000000
_cell_angle_beta 90.000000
_cell_angle_gamma 90.000000
_cell_volume 4536.000000
_symmetry_space_group_name_H-M "I M M M"
_symmetry_group_IT_number 71
_symmetry_cell_setting 'orthorhombic'
loop_
_space_group_symop_operation_xyz
x,y,z
-x,-y,z
x,-y,-z
-x,y,-z
-x,-y,-z
x,y,-z
-x,y,z
x,-y,z
1/2+x,1/2+y,1/2+z
1/2-x,1/2-y,1/2+z
1/2+x,1/2-y,1/2-z
1/2-x,1/2+y,1/2-z
1/2-x,1/2-y,1/2-z
1/2+x,1/2+y,1/2-z
1/2-x,1/2+y,1/2+z
1/2+x,1/2-y,1/2+z
loop_
_atom_site_type_symbol
_atom_site_label
_atom_site_fract_x
_atom_site_fract_y
_atom_site_fract_z
Si Si1 0.808636 0.816726 0.287728
Si Si2 0.864543 0.233823 0.500000
Si Si3 0.000000 0.089897 0.071457
Si Si4 0.775963 0.415332 0.000000
Si Si5 0.876472 0.690609 0.627242
Si Si6 0.684029 0.588860 0.673461
Si Si7 0.873374 0.586777 0.861073
O O1 0.750000 0.750000 0.250000
O O2 0.882354 0.768572 0.334947
O O3 0.862187 0.872986 0.237452
O O4 0.716095 0.863120 0.325595
O O5 0.812546 0.151616 0.500000
O O6 0.828135 0.281942 0.439515
O O7 0.000000 0.228442 0.500000
O O8 0.106611 0.109232 0.113795
O O9 0.000000 0.000000 0.067339
O O10 0.000000 0.120119 0.000000
O O11 0.849294 0.408589 0.063625
O O12 0.728070 0.500000 0.000000
O O13 0.801663 0.628701 0.660833
O O14 0.000000 0.660476 0.618206
O O15 0.690712 0.500000 0.679270
O O16 0.860409 0.500000 0.842696
O O17 0.000000 0.609673 0.846863
#
# Coordination Sequence:
#
# PCOD9524741 Si02
#       7
#    16   8   8   8  16  16  16
#     4  10  21  37  56  83 119 157 197 239 290 354
#     4  10  20  38  58  82 117 155 198 246 300 355
#     4   9  20  40  64  88 118 151 187 247 310 356
#     4  10  19  35  60  88 120 155 201 249 296 359
#     4  10  22  39  60  85 120 160 197 245 300 353
#     4  10  22  40  63  91 119 152 201 249 299 363
#     4  10  20  36  60  89 121 156 196 248 305 358
#
# _framework density 9.7001760000000008
#
# number of rings (size 3 to 8) (size 9 to 14) (size 15 to 20)
#    0.000    2.091    1.818    0.818    2.545    4.545 
#    4.909    0.000    0.000    1.636    0.000    0.000 
#    0.000    0.000    0.000    0.000    0.000    0.000 
#
# Total GULP energy -245156.622110 kJ/mol
# GULP energy per Si atom -5571.741412 kJ/mol
# Density = 0.967810 g / cm^3
# Si number density = 9.700176 Si / 1000 Ang^3
#
#
#
# Elastic Constant Matrix: (Units=GPa)
#
#
# Indices 1 2 3 4 5 6 
#
# 1 63.7423 29.5180 18.1463 0.0000 0.0000 0.0000
# 2 29.5180 79.5574 34.3788 0.0000 0.0000 0.0000
# 3 18.1463 34.3788 110.5777 0.0000 0.0000 0.0000
# 4 0.0000 0.0000 0.0000 32.2979 0.0000 0.0000
# 5 0.0000 0.0000 0.0000 0.0000 24.3825 0.0000
# 6 0.0000 0.0000 0.0000 0.0000 0.0000 -20.7455
#
#
#
# Elastic Compliance Matrix: (Units=1/GPa)
#
#
# Indices 1 2 3 4 5 6 
#
# 1 0.019052 -0.006605 -0.001073 0.000000 0.000000 0.000000
# 2 -0.006605 0.016810 -0.004142 0.000000 0.000000 0.000000
# 3 -0.001073 -0.004142 0.010507 0.000000 0.000000 0.000000
# 4 0.000000 0.000000 0.000000 0.030962 0.000000 0.000000
# 5 0.000000 0.000000 0.000000 0.000000 0.041013 0.000000
# 6 0.000000 0.000000 0.000000 0.000000 0.000000 -0.048203
#
#
# Mechanical properties :
#
#
# Convention : Reuss Voigt Hill
#
# Bulk Modulus (GPa) = 43.99716 46.44041 45.21879
# Shear Modulus (GPa) = 49.32945 18.64261 33.98603
#
# Velocity S-wave (km/s) = 5.04800 3.10327 4.19002
# Velocity P-wave (km/s) = 7.53022 6.06879 6.83866
#
# Compressibility (1/GPa) = 0.02272874
#
# Stress axis : x y z
#
# Youngs Moduli (GPa) = 52.48666 59.48713 95.17122
#
# Poissons Ratio (x) = 0.39293 0.10212
# Poissons Ratio (y) = 0.34669 0.39424
# Poissons Ratio (z) = 0.05632 0.24642
#
# Static dielectric constant tensor:
#      x y z
#    x 1.684310 0.000000 0.000000 
#    y 0.000000 1.645710 0.000000 
#    z 0.000000 0.000000 1.727630 
# 
# From -- ./inp_files/24002.got.cif
#   From: 2010.05.17/outbox.ucp.g08.bks.cvg/sg71_13_cif.got.tgz:24002.got - 2010.06.11 16:29:00.
