data_PCOD9524798
_publ_section_title
;
Structure prediction by ZEFSAII (Michael W. Deem and Ramdas Pophale) SiO2 
 PCOD9524798
Probable space group: I M M M
;
_chemical_formula_sum "Si O2"
_cell_formula_units_Z 32
_cell_length_a 12.000000
_cell_length_b 18.000000
_cell_length_c 18.000000
_cell_angle_alpha 90.000000
_cell_angle_beta 90.000000
_cell_angle_gamma 90.000000
_cell_volume 3888.000000
_symmetry_space_group_name_H-M "I M M M"
_symmetry_group_IT_number 71
_symmetry_cell_setting 'orthorhombic'
loop_
_space_group_symop_operation_xyz
x,y,z
-x,-y,z
x,-y,-z
-x,y,-z
-x,-y,-z
x,y,-z
-x,y,z
x,-y,z
1/2+x,1/2+y,1/2+z
1/2-x,1/2-y,1/2+z
1/2+x,1/2-y,1/2-z
1/2-x,1/2+y,1/2-z
1/2-x,1/2-y,1/2-z
1/2+x,1/2+y,1/2-z
1/2-x,1/2+y,1/2+z
1/2+x,1/2-y,1/2+z
loop_
_atom_site_type_symbol
_atom_site_label
_atom_site_fract_x
_atom_site_fract_y
_atom_site_fract_z
Si Si1 0.500000 0.084704 0.648585
Si Si2 0.276631 0.703542 0.674344
Si Si3 0.633413 0.308816 0.912567
Si Si4 0.000000 0.745239 0.087894
Si Si5 0.752485 0.413704 0.790658
O O1 0.500000 0.155173 0.593788
O O2 0.385892 0.092343 0.695534
O O3 0.500000 0.000000 0.617095
O O4 0.250000 0.750000 0.750000
O O5 0.181310 0.730063 0.617080
O O6 0.391646 0.725394 0.633240
O O7 0.276567 0.621998 0.710572
O O8 0.500000 0.312432 0.904395
O O9 0.691773 0.369124 0.858042
O O10 0.661133 0.319642 0.000000
O O11 0.000000 0.765699 0.000000
O O12 0.721785 0.500000 0.794164
#
# Coordination Sequence:
#
# PCOD9524798 Si02
#       5
#     8  16  16   8  16
#     4  10  20  35  56  85 113 144 179 221 279 340
#     4  10  21  34  59  78 111 146 190 226 274 325
#     4  10  21  35  55  82 109 142 182 224 276 335
#     4  12  22  37  59  86 114 149 189 235 281 331
#     4  10  22  36  56  82 111 145 185 227 279 332
#
# _framework density 8.2304530000000007
#
# number of rings (size 3 to 8) (size 9 to 14) (size 15 to 20)
#    0.000    1.750    5.000    0.750    8.750    1.250 
#    0.000    3.750    0.000    3.750    0.000    1.750 
#    0.000    0.000    0.000    0.000    0.000    0.000 
#
# Total GULP energy -178226.329983 kJ/mol
# GULP energy per Si atom -5569.572812 kJ/mol
# Density = 0.821172 g / cm^3
# Si number density = 8.230453 Si / 1000 Ang^3
#
#
#
# Elastic Constant Matrix: (Units=GPa)
#
#
# Indices 1 2 3 4 5 6 
#
# 1 112.5111 34.4004 63.6438 0.0000 0.0000 0.0000
# 2 34.4004 89.2370 66.2815 0.0000 0.0000 0.0000
# 3 63.6438 66.2815 127.8255 0.0000 0.0000 0.0000
# 4 0.0000 0.0000 0.0000 23.5531 0.0000 0.0000
# 5 0.0000 0.0000 0.0000 0.0000 28.0519 0.0000
# 6 0.0000 0.0000 0.0000 0.0000 0.0000 22.3617
#
#
#
# Elastic Compliance Matrix: (Units=1/GPa)
#
#
# Indices 1 2 3 4 5 6 
#
# 1 0.012378 -0.000316 -0.005999 0.000000 0.000000 0.000000
# 2 -0.000316 0.018234 -0.009298 0.000000 0.000000 0.000000
# 3 -0.005999 -0.009298 0.015631 0.000000 0.000000 0.000000
# 4 0.000000 0.000000 0.000000 0.042457 0.000000 0.000000
# 5 0.000000 0.000000 0.000000 0.000000 0.035648 0.000000
# 6 0.000000 0.000000 0.000000 0.000000 0.000000 0.044719
#
#
# Mechanical properties :
#
#
# Convention : Reuss Voigt Hill
#
# Bulk Modulus (GPa) = 66.58690 73.13610 69.86150
# Shear Modulus (GPa) = 24.35474 25.80987 25.08230
#
# Velocity S-wave (km/s) = 3.85067 3.96403 3.90776
# Velocity P-wave (km/s) = 7.76592 8.09185 7.93056
#
# Compressibility (1/GPa) = 0.01501797
#
# Stress axis : x y z
#
# Youngs Moduli (GPa) = 80.78744 54.84382 63.97430
#
# Poissons Ratio (x) = 0.01731 0.38380
# Poissons Ratio (y) = 0.02550 0.59480
# Poissons Ratio (z) = 0.48467 0.50991
#
# Static dielectric constant tensor:
#      x y z
#    x 1.567320 0.000000 0.000000 
#    y 0.000000 1.607650 0.000000 
#    z 0.000000 0.000000 1.538660 
# 
# From -- ./inp_files/23233.got.cif
#   From: 2010.05.17/outbox.ucp.g08.bks.cvg/sg71_12_cif.got.tgz:23233.got - 2010.06.11 16:29:00.
