data_PCOD9524510
_publ_section_title
;
Structure prediction by ZEFSAII (Michael W. Deem and Ramdas Pophale) SiO2 
 PCOD9524510
Probable space group: I M M M
;
_chemical_formula_sum "Si O2"
_cell_formula_units_Z 56
_cell_length_a 8.077610
_cell_length_b 10.177029
_cell_length_c 37.420066
_cell_angle_alpha 90.000000
_cell_angle_beta 90.000000
_cell_angle_gamma 90.000000
_cell_volume 3076.156611
_symmetry_space_group_name_H-M "I M M M"
_symmetry_group_IT_number 71
_symmetry_cell_setting 'orthorhombic'
loop_
_space_group_symop_operation_xyz
x,y,z
-x,-y,z
x,-y,-z
-x,y,-z
-x,-y,-z
x,y,-z
-x,y,z
x,-y,z
1/2+x,1/2+y,1/2+z
1/2-x,1/2-y,1/2+z
1/2+x,1/2-y,1/2-z
1/2-x,1/2+y,1/2-z
1/2-x,1/2-y,1/2-z
1/2+x,1/2+y,1/2-z
1/2-x,1/2+y,1/2+z
1/2+x,1/2-y,1/2+z
loop_
_atom_site_type_symbol
_atom_site_label
_atom_site_fract_x
_atom_site_fract_y
_atom_site_fract_z
Si Si1 0.300232 0.150287 0.639063
Si Si2 0.199347 0.350867 0.780376
Si Si3 0.199814 0.650201 0.422320
Si Si4 0.190935 0.659826 0.500000
O O1 0.500000 0.150011 0.639235
O O2 0.244319 0.185183 0.679416
O O3 0.243959 0.252078 0.609307
O O4 0.245893 0.000000 0.631732
O O5 0.257068 0.500000 0.772879
O O6 0.250000 0.250000 0.750000
O O7 0.000000 0.353955 0.781294
O O8 0.256808 0.500000 0.415659
O O9 0.264640 0.695762 0.461448
O O10 0.000000 0.645244 0.425171
O O11 0.187216 0.500000 0.500000
O O12 0.000000 0.706479 0.500000
#
# Coordination Sequence:
#
# PCOD9524510 Si02
#       4
#    16  16  16   8
#     4   9  19  35  50  66  95 131 159 187 230 281
#     4   9  19  35  52  70  94 124 157 193 233 278
#     4   9  17  30  50  74  96 121 157 198 236 276
#     4   7  12  26  46  67  94 124 152 189 236 277
#
# _framework density 18.204533000000001
#
# number of rings (size 3 to 8) (size 9 to 14) (size 15 to 20)
#    0.000    3.286    0.000    3.429    0.000    4.000 
#    0.000   10.000    0.000    6.857    0.000    0.000 
#    0.000    0.000    0.000    0.000    0.000    0.000 
#
# Total GULP energy -155908.213337 kJ/mol
# GULP energy per Si atom -5568.150476 kJ/mol
# Density = 1.816310 g / cm^3
# Si number density = 18.204533 Si / 1000 Ang^3
#
#
#
# Elastic Constant Matrix: (Units=GPa)
#
#
# Indices 1 2 3 4 5 6 
#
# 1 9.8650 12.3437 16.4834 0.0000 0.0000 0.0000
# 2 12.3437 107.7008 130.5425 0.0000 0.0000 0.0000
# 3 16.4834 130.5425 216.6693 0.0000 0.0000 0.0000
# 4 0.0000 0.0000 0.0000 36.5216 0.0000 0.0000
# 5 0.0000 0.0000 0.0000 0.0000 25.3563 0.0000
# 6 0.0000 0.0000 0.0000 0.0000 0.0000 26.8305
#
#
#
# Elastic Compliance Matrix: (Units=1/GPa)
#
#
# Indices 1 2 3 4 5 6 
#
# 1 0.118897 -0.009874 -0.003096 0.000000 0.000000 0.000000
# 2 -0.009874 0.035244 -0.020483 0.000000 0.000000 0.000000
# 3 -0.003096 -0.020483 0.017192 0.000000 0.000000 0.000000
# 4 0.000000 0.000000 0.000000 0.027381 0.000000 0.000000
# 5 0.000000 0.000000 0.000000 0.000000 0.039438 0.000000
# 6 0.000000 0.000000 0.000000 0.000000 0.000000 0.037271
#
#
# Mechanical properties :
#
#
# Convention : Reuss Voigt Hill
#
# Bulk Modulus (GPa) = 9.57614 72.55267 41.06441
# Shear Modulus (GPa) = 13.25769 29.39937 21.32853
#
# Velocity S-wave (km/s) = 2.70156 4.02300 3.42659
# Velocity P-wave (km/s) = 3.87337 7.84347 6.18559
#
# Compressibility (1/GPa) = 0.10442621
#
# Stress axis : x y z
#
# Youngs Moduli (GPa) = 8.41061 28.37346 58.16669
#
# Poissons Ratio (x) = 0.28017 0.18008
# Poissons Ratio (y) = 0.08305 1.19145
# Poissons Ratio (z) = 0.02604 0.58118
#
# Static dielectric constant tensor:
#      x y z
#    x 1.662610 0.000000 0.000000 
#    y 0.000000 1.600390 0.000000 
#    z 0.000000 0.000000 1.649440 
# 
# From -- ./inp_files/3325.got.cif
#   From: 2010.05.17/outbox.cif.g08.bks.cpg/sg71_2_cif.got.tgz:3325.got - 2010.06.03 16:22:01.
