data_PCOD9524604
_publ_section_title
;
Structure prediction by ZEFSAII (Michael W. Deem and Ramdas Pophale) SiO2 
 PCOD9524604
Probable space group: I M M M
;
_chemical_formula_sum "Si O2"
_cell_formula_units_Z 64
_cell_length_a 23.389301
_cell_length_b 17.174541
_cell_length_c 7.440686
_cell_angle_alpha 90.000000
_cell_angle_beta 90.000000
_cell_angle_gamma 90.000000
_cell_volume 2988.927353
_symmetry_space_group_name_H-M "I M M M"
_symmetry_group_IT_number 71
_symmetry_cell_setting 'orthorhombic'
loop_
_space_group_symop_operation_xyz
x,y,z
-x,-y,z
x,-y,-z
-x,y,-z
-x,-y,-z
x,y,-z
-x,y,z
x,-y,z
1/2+x,1/2+y,1/2+z
1/2-x,1/2-y,1/2+z
1/2+x,1/2-y,1/2-z
1/2-x,1/2+y,1/2-z
1/2-x,1/2-y,1/2-z
1/2+x,1/2+y,1/2-z
1/2-x,1/2+y,1/2+z
1/2+x,1/2-y,1/2+z
loop_
_atom_site_type_symbol
_atom_site_label
_atom_site_fract_x
_atom_site_fract_y
_atom_site_fract_z
Si Si1 0.000000 0.590059 0.220644
Si Si2 0.357993 0.642553 0.720524
Si Si3 0.265129 0.159359 0.212285
Si Si4 0.110179 0.685194 0.208003
Si Si5 0.935268 0.000000 0.219421
O O1 0.942763 0.635739 0.281165
O O2 0.000000 0.500000 0.277651
O O3 0.000000 0.588721 0.000000
O O4 0.356083 0.645793 0.500000
O O5 0.293448 0.620284 0.777803
O O6 0.377571 0.728341 0.784247
O O7 0.402011 0.577021 0.775536
O O8 0.250000 0.250000 0.250000
O O9 0.328072 0.142804 0.285928
O O10 0.269647 0.147447 0.000000
O O11 0.095601 0.698352 0.000000
O O12 0.000000 0.000000 0.280461
O O13 0.935258 0.000000 0.000000
#
# Coordination Sequence:
#
# PCOD9524604 Si02
#       5
#     8  16  16  16   8
#     4   9  18  32  49  70  96 126 163 207 249 295
#     4   8  15  26  41  65  93 121 149 185 230 278
#     4   9  16  29  48  71  97 124 157 195 237 282
#     4   9  17  30  50  71  93 123 161 200 241 287
#     4   9  16  24  38  64  97 122 147 184 228 277
#
# _framework density 21.412365000000001
#
# number of rings (size 3 to 8) (size 9 to 14) (size 15 to 20)
#    0.000    3.250    0.000    2.250    1.750    0.000 
#    2.250    0.625    0.000    0.750    0.000    7.875 
#    0.000   25.000    0.000    0.000    0.000    0.000 
#
# Total GULP energy -178312.451518 kJ/mol
# GULP energy per Si atom -5572.264110 kJ/mol
# Density = 2.136363 g / cm^3
# Si number density = 21.412365 Si / 1000 Ang^3
#
#
#
# Elastic Constant Matrix: (Units=GPa)
#
#
# Indices 1 2 3 4 5 6 
#
# 1 243.7993 106.9253 -4.3831 0.0000 0.0000 0.0000
# 2 106.9253 103.3359 4.0162 0.0000 0.0000 0.0000
# 3 -4.3831 4.0162 61.7260 0.0000 0.0000 0.0000
# 4 0.0000 0.0000 0.0000 -2.7978 0.0000 0.0000
# 5 0.0000 0.0000 0.0000 0.0000 14.7573 0.0000
# 6 0.0000 0.0000 0.0000 0.0000 0.0000 33.7102
#
#
#
# Elastic Compliance Matrix: (Units=1/GPa)
#
#
# Indices 1 2 3 4 5 6 
#
# 1 0.007577 -0.007881 0.001051 0.000000 0.000000 0.000000
# 2 -0.007881 0.017899 -0.001724 0.000000 0.000000 0.000000
# 3 0.001051 -0.001724 0.016387 0.000000 0.000000 0.000000
# 4 0.000000 0.000000 0.000000 -0.357421 0.000000 0.000000
# 5 0.000000 0.000000 0.000000 0.000000 0.067763 0.000000
# 6 0.000000 0.000000 0.000000 0.000000 0.000000 0.029665
#
#
# Mechanical properties :
#
#
# Convention : Reuss Voigt Hill
#
# Bulk Modulus (GPa) = 40.39662 69.10864 54.75263
# Shear Modulus (GPa) = -25.93777 29.28746 1.67484
#
# Velocity S-wave (km/s) = -3.48421 3.70237 0.88537
# Velocity P-wave (km/s) = 1.64944 7.11490 5.16442
#
# Compressibility (1/GPa) = 0.02475454
#
# Stress axis : x y z
#
# Youngs Moduli (GPa) = 131.97580 55.86868 61.02236
#
# Poissons Ratio (x) = 0.44031 -0.06412
# Poissons Ratio (y) = 1.04012 0.10522
# Poissons Ratio (z) = -0.13868 0.09633
#
# Static dielectric constant tensor:
#      x y z
#    x 1.783280 0.000000 0.000000 
#    y 0.000000 1.753000 0.000000 
#    z 0.000000 0.000000 1.830350 
# 
# From -- ./inp_files/25414.got.cif
#   From: 2010.05.17/outbox.cif.g08.bks.cpg/sg71_13_cif.got.tgz:25414.got - 2010.06.03 16:22:01.
