data_PCOD9524772
_publ_section_title
;
Structure prediction by ZEFSAII (Michael W. Deem and Ramdas Pophale) SiO2 
 PCOD9524772
Probable space group: I M M M
;
_chemical_formula_sum "Si O2"
_cell_formula_units_Z 60
_cell_length_a 27.000000
_cell_length_b 27.000000
_cell_length_c 9.000000
_cell_angle_alpha 90.000000
_cell_angle_beta 90.000000
_cell_angle_gamma 90.000000
_cell_volume 6561.000000
_symmetry_space_group_name_H-M "I M M M"
_symmetry_group_IT_number 71
_symmetry_cell_setting 'orthorhombic'
loop_
_space_group_symop_operation_xyz
x,y,z
-x,-y,z
x,-y,-z
-x,y,-z
-x,-y,-z
x,y,-z
-x,y,z
x,-y,z
1/2+x,1/2+y,1/2+z
1/2-x,1/2-y,1/2+z
1/2+x,1/2-y,1/2-z
1/2-x,1/2+y,1/2-z
1/2-x,1/2-y,1/2-z
1/2+x,1/2+y,1/2-z
1/2-x,1/2+y,1/2+z
1/2+x,1/2-y,1/2+z
loop_
_atom_site_type_symbol
_atom_site_label
_atom_site_fract_x
_atom_site_fract_y
_atom_site_fract_z
Si Si1 0.282160 0.555545 0.321568
Si Si2 0.417574 0.883572 0.674051
Si Si3 0.054824 0.819787 0.678075
Si Si4 0.353651 0.639131 0.323686
Si Si5 0.819131 0.442931 0.826353
Si Si6 0.500000 0.058260 0.833646
Si Si7 0.803034 0.245427 0.824359
Si Si8 0.602197 0.785083 0.823135
O O1 0.284166 0.555524 0.500000
O O2 0.290910 0.500000 0.267096
O O3 0.321845 0.593960 0.264648
O O4 0.227616 0.570224 0.272031
O O5 0.426532 0.877021 0.500000
O O6 0.362789 0.904627 0.696551
O O7 0.453207 0.923774 0.743035
O O8 0.424596 0.832611 0.759132
O O9 0.055390 0.822459 0.500000
O O10 0.094339 0.856560 0.744818
O O11 0.072553 0.764488 0.718091
O O12 0.000000 0.828862 0.733511
O O13 0.360789 0.634227 0.500000
O O14 0.323516 0.689921 0.299993
O O15 0.834290 0.500000 0.792820
O O16 0.805164 0.441750 0.000000
O O17 0.500000 0.000000 0.844049
O O18 0.500000 0.079646 0.000000
O O19 0.750000 0.250000 0.750000
O O20 0.843668 0.280735 0.749744
O O21 0.800377 0.254896 0.000000
O O22 0.606558 0.787443 0.000000
#
# Coordination Sequence:
#
# PCOD9524772 Si02
#       8
#    16  16  16  16  16   8  16  16
#     4   9  18  33  54  80 110 142 176 216 262 313
#     4  11  23  38  57  82 108 140 180 229 284 335
#     4   9  19  36  57  79 104 137 175 218 268 321
#     4   9  19  34  52  78 107 138 177 218 264 318
#     4   9  19  35  53  75 104 138 176 217 264 319
#     4  11  25  43  61  81 105 141 189 237 286 339
#     4  10  20  34  51  75 109 144 181 222 268 324
#     4  10  21  36  54  78 108 142 179 222 272 325
#
# _framework density 9.1449470000000002
#
# number of rings (size 3 to 8) (size 9 to 14) (size 15 to 20)
#    0.000    2.333    0.000    1.800    2.800    4.000 
#    0.000    1.333    0.000    0.400    0.000    2.800 
#    0.000    0.000    0.000    0.000    0.000    0.000 
#
# Total GULP energy -334609.281401 kJ/mol
# GULP energy per Si atom -5576.821357 kJ/mol
# Density = 0.912413 g / cm^3
# Si number density = 9.144947 Si / 1000 Ang^3
#
#
#
# Elastic Constant Matrix: (Units=GPa)
#
#
# Indices 1 2 3 4 5 6 
#
# 1 34.1647 25.4146 57.4392 0.0000 0.0000 0.0000
# 2 25.4146 9.5318 52.1267 0.0000 0.0000 0.0000
# 3 57.4392 52.1267 5.8231 0.0000 0.0000 0.0000
# 4 0.0000 0.0000 0.0000 19.3457 0.0000 0.0000
# 5 0.0000 0.0000 0.0000 0.0000 18.7749 0.0000
# 6 0.0000 0.0000 0.0000 0.0000 0.0000 66.2039
#
#
#
# Elastic Compliance Matrix: (Units=1/GPa)
#
#
# Indices 1 2 3 4 5 6 
#
# 1 -0.102199 0.109281 0.029845 0.000000 0.000000 0.000000
# 2 0.109281 -0.119041 -0.012329 0.000000 0.000000 0.000000
# 3 0.029845 -0.012329 -0.012297 0.000000 0.000000 0.000000
# 4 0.000000 0.000000 0.000000 0.051691 0.000000 0.000000
# 5 0.000000 0.000000 0.000000 0.000000 0.053263 0.000000
# 6 0.000000 0.000000 0.000000 0.000000 0.000000 0.015105
#
#
# Mechanical properties :
#
#
# Convention : Reuss Voigt Hill
#
# Bulk Modulus (GPa) = 49.85787 35.49785 42.67786
# Shear Modulus (GPa) = -13.87398 15.16749 0.64675
#
# Velocity S-wave (km/s) = -2.75718 2.88285 0.59530
# Velocity P-wave (km/s) = 4.14522 5.52555 4.88439
#
# Compressibility (1/GPa) = 0.02005702
#
# Stress axis : x y z
#
# Youngs Moduli (GPa) = -9.78480 -8.40046 -81.32326
#
# Poissons Ratio (x) = 0.91801 2.42709
# Poissons Ratio (y) = 1.06929 -1.00263
# Poissons Ratio (z) = 0.29203 -0.10357
#
# Static dielectric constant tensor:
#      x y z
#    x 1.619370 0.000000 0.000000 
#    y 0.000000 1.640660 0.000000 
#    z 0.000000 0.000000 1.619410 
# 
# From -- ./inp_files/15610.got.cif
#   From: 2010.05.17/outbox.ucp.g08.bks.cvg/sg71_8_cif.got.tgz:15610.got - 2010.06.11 16:29:00.
