data_PCOD9524243
_publ_section_title
;
Structure prediction by ZEFSAII (Michael W. Deem and Ramdas Pophale) SiO2 
 PCOD9524243
Probable space group: I M M M
;
_chemical_formula_sum "Si O2"
_cell_formula_units_Z 88
_cell_length_a 7.364134
_cell_length_b 18.101117
_cell_length_c 28.438108
_cell_angle_alpha 90.000000
_cell_angle_beta 90.000000
_cell_angle_gamma 90.000000
_cell_volume 3790.772813
_symmetry_space_group_name_H-M "I M M M"
_symmetry_group_IT_number 71
_symmetry_cell_setting 'orthorhombic'
loop_
_space_group_symop_operation_xyz
x,y,z
-x,-y,z
x,-y,-z
-x,y,-z
-x,-y,-z
x,y,-z
-x,y,z
x,-y,z
1/2+x,1/2+y,1/2+z
1/2-x,1/2-y,1/2+z
1/2+x,1/2-y,1/2-z
1/2-x,1/2+y,1/2-z
1/2-x,1/2-y,1/2-z
1/2+x,1/2+y,1/2-z
1/2-x,1/2+y,1/2+z
1/2+x,1/2-y,1/2+z
loop_
_atom_site_type_symbol
_atom_site_label
_atom_site_fract_x
_atom_site_fract_y
_atom_site_fract_z
Si Si1 0.279128 0.802510 0.448248
Si Si2 0.783990 0.413266 0.234326
Si Si3 0.221557 0.844229 0.898418
Si Si4 0.721315 0.914671 0.631280
Si Si5 0.804063 0.792525 0.201539
Si Si6 0.778460 0.000000 0.055698
O O1 0.218404 0.823695 0.500000
O O2 0.500000 0.805325 0.447433
O O3 0.231143 0.718544 0.436159
O O4 0.216936 0.859967 0.408981
O O5 0.753457 0.500000 0.234045
O O6 0.723494 0.386101 0.182863
O O7 0.689074 0.374420 0.277066
O O8 0.000000 0.400717 0.239432
O O9 0.288032 0.808792 0.848647
O O10 0.279052 0.925293 0.916413
O O11 0.000000 0.848122 0.894483
O O12 0.500000 0.916197 0.631890
O O13 0.778381 0.000000 0.625097
O O14 0.750000 0.750000 0.250000
O O15 0.000000 0.759746 0.189423
O O16 0.000000 0.000000 0.055346
O O17 0.724613 0.000000 0.000000
#
# Coordination Sequence:
#
# PCOD9524243 Si02
#       6
#    16  16  16  16  16   8
#     4   9  15  23  37  58  87 123 161 197 239 295
#     4   9  18  33  52  72 100 136 169 202 248 304
#     4   9  18  29  43  65  95 131 165 204 256 310
#     4   8  14  25  41  62  91 128 162 194 238 292
#     4  11  22  34  51  73 103 138 173 214 257 307
#     4   9  16  28  46  68  99 135 169 207 262 329
#
# _framework density 23.214265000000001
#
# number of rings (size 3 to 8) (size 9 to 14) (size 15 to 20)
#    0.000    2.818    0.000    3.273    1.273    5.818 
#    0.000    1.818    0.000    0.000    0.000    0.000 
#    0.000   37.091    0.000   16.000    0.000   16.000 
#
# Total GULP energy -245383.377660 kJ/mol
# GULP energy per Si atom -5576.894947 kJ/mol
# Density = 2.316143 g / cm^3
# Si number density = 23.214265 Si / 1000 Ang^3
#
#
#
# Elastic Constant Matrix: (Units=GPa)
#
#
# Indices 1 2 3 4 5 6 
#
# 1 67.4339 -2.9969 -1.0194 0.0000 0.0000 0.0000
# 2 -2.9969 73.0933 23.4646 0.0000 0.0000 0.0000
# 3 -1.0194 23.4646 107.1823 0.0000 0.0000 0.0000
# 4 0.0000 0.0000 0.0000 40.3272 0.0000 0.0000
# 5 0.0000 0.0000 0.0000 0.0000 -3.8867 0.0000
# 6 0.0000 0.0000 0.0000 0.0000 0.0000 -1.0503
#
#
#
# Elastic Compliance Matrix: (Units=1/GPa)
#
#
# Indices 1 2 3 4 5 6 
#
# 1 0.014856 0.000606 0.000009 0.000000 0.000000 0.000000
# 2 0.000606 0.014740 -0.003221 0.000000 0.000000 0.000000
# 3 0.000009 -0.003221 0.010035 0.000000 0.000000 0.000000
# 4 0.000000 0.000000 0.000000 0.024797 0.000000 0.000000
# 5 0.000000 0.000000 0.000000 0.000000 -0.257289 0.000000
# 6 0.000000 0.000000 0.000000 0.000000 0.000000 -0.952095
#
#
# Mechanical properties :
#
#
# Convention : Reuss Voigt Hill
#
# Bulk Modulus (GPa) = 29.05355 31.84511 30.44933
# Shear Modulus (GPa) = -4.43156 22.29547 8.93195
#
# Velocity S-wave (km/s) = -1.38316 3.10243 1.96366
# Velocity P-wave (km/s) = 3.16097 5.15569 4.27626
#
# Compressibility (1/GPa) = 0.03441920
#
# Stress axis : x y z
#
# Youngs Moduli (GPa) = 67.31099 67.84231 99.64958
#
# Poissons Ratio (x) = -0.04114 -0.00085
# Poissons Ratio (y) = -0.04082 0.32099
# Poissons Ratio (z) = -0.00058 0.21853
#
# Static dielectric constant tensor:
#      x y z
#    x 2.168170 0.000000 0.000000 
#    y 0.000000 1.861700 0.000000 
#    z 0.000000 0.000000 1.844120 
# 
# From -- ./inp_files/10494.got.cif
#   From: 2010.05.17/outbox.cif.g08.bks.cpg/sg71_6_cif.got.tgz:10494.got - 2010.06.03 16:22:01.
