data_PCOD9524785
_publ_section_title
;
Structure prediction by ZEFSAII (Michael W. Deem and Ramdas Pophale) SiO2 
 PCOD9524785
Probable space group: I M M M
;
_chemical_formula_sum "Si O2"
_cell_formula_units_Z 36
_cell_length_a 21.000000
_cell_length_b 9.000000
_cell_length_c 21.000000
_cell_angle_alpha 90.000000
_cell_angle_beta 90.000000
_cell_angle_gamma 90.000000
_cell_volume 3969.000000
_symmetry_space_group_name_H-M "I M M M"
_symmetry_group_IT_number 71
_symmetry_cell_setting 'orthorhombic'
loop_
_space_group_symop_operation_xyz
x,y,z
-x,-y,z
x,-y,-z
-x,y,-z
-x,-y,-z
x,y,-z
-x,y,z
x,-y,z
1/2+x,1/2+y,1/2+z
1/2-x,1/2-y,1/2+z
1/2+x,1/2-y,1/2-z
1/2-x,1/2+y,1/2-z
1/2-x,1/2-y,1/2-z
1/2+x,1/2+y,1/2-z
1/2-x,1/2+y,1/2+z
1/2+x,1/2-y,1/2+z
loop_
_atom_site_type_symbol
_atom_site_label
_atom_site_fract_x
_atom_site_fract_y
_atom_site_fract_z
Si Si1 0.500000 0.323046 0.643701
Si Si2 0.925262 0.169122 0.500000
Si Si3 0.262837 0.677714 0.075823
Si Si4 0.383900 0.821925 0.870889
Si Si5 0.000000 0.823381 0.295096
Si Si6 0.626980 0.675399 0.424520
O O1 0.500000 0.500000 0.628887
O O2 0.500000 0.306580 0.719229
O O3 0.565454 0.266065 0.613050
O O4 0.908695 0.264319 0.438777
O O5 0.000000 0.149655 0.500000
O O6 0.897366 0.000000 0.500000
O O7 0.266303 0.500000 0.082173
O O8 0.312412 0.755063 0.124360
O O9 0.191818 0.736532 0.088538
O O10 0.276357 0.714130 0.000000
O O11 0.435567 0.751552 0.822604
O O12 0.382935 0.000000 0.865359
O O13 0.000000 0.000000 0.311712
O O14 0.613863 0.685429 0.500000
O O15 0.637035 0.500000 0.409551
#
# Coordination Sequence:
#
# PCOD9524785 Si02
#       6
#     8   8  16  16   8  16
#     4   9  19  37  61  85 110 147 186 228 279 338
#     4  11  21  33  53  79 110 145 182 227 282 330
#     4  10  20  34  54  82 117 149 180 223 283 339
#     4  12  23  35  54  80 111 147 191 234 276 321
#     4  11  23  39  56  76 110 153 195 230 275 329
#     4   9  17  33  60  91 117 139 176 227 282 338
#
# _framework density 9.0702949999999998
#
# number of rings (size 3 to 8) (size 9 to 14) (size 15 to 20)
#    0.000    1.667    2.222    3.667    0.000    2.667 
#    0.000    3.889    0.000    2.667    0.000    0.000 
#    0.000    0.000    0.000    0.000    0.000    0.000 
#
# Total GULP energy -200773.080862 kJ/mol
# GULP energy per Si atom -5577.030024 kJ/mol
# Density = 0.904965 g / cm^3
# Si number density = 9.070295 Si / 1000 Ang^3
#
#
#
# Elastic Constant Matrix: (Units=GPa)
#
#
# Indices 1 2 3 4 5 6 
#
# 1 177.1999 70.6853 55.9470 0.0000 0.0000 0.0000
# 2 70.6853 123.2959 35.3146 0.0000 0.0000 0.0000
# 3 55.9470 35.3146 30.4206 0.0000 0.0000 0.0000
# 4 0.0000 0.0000 0.0000 23.7263 0.0000 0.0000
# 5 0.0000 0.0000 0.0000 0.0000 -4.1964 0.0000
# 6 0.0000 0.0000 0.0000 0.0000 0.0000 26.1888
#
#
#
# Elastic Compliance Matrix: (Units=1/GPa)
#
#
# Indices 1 2 3 4 5 6 
#
# 1 0.013531 -0.000943 -0.023789 0.000000 0.000000 0.000000
# 2 -0.000943 0.012216 -0.012447 0.000000 0.000000 0.000000
# 3 -0.023789 -0.012447 0.091073 0.000000 0.000000 0.000000
# 4 0.000000 0.000000 0.000000 0.042147 0.000000 0.000000
# 5 0.000000 0.000000 0.000000 0.000000 -0.238298 0.000000
# 6 0.000000 0.000000 0.000000 0.000000 0.000000 0.038184
#
#
# Mechanical properties :
#
#
# Convention : Reuss Voigt Hill
#
# Bulk Modulus (GPa) = 23.55106 72.75670 48.15388
# Shear Modulus (GPa) = 105.56200 20.40836 62.98518
#
# Velocity S-wave (km/s) = 7.63658 3.35776 5.89881
# Velocity P-wave (km/s) = 9.52718 7.43148 8.54383
#
# Compressibility (1/GPa) = 0.04246093
#
# Stress axis : x y z
#
# Youngs Moduli (GPa) = 73.90701 81.85689 10.98024
#
# Poissons Ratio (x) = 0.07722 0.26121
# Poissons Ratio (y) = 0.06972 0.13667
# Poissons Ratio (z) = 1.75818 1.01887
#
# Static dielectric constant tensor:
#      x y z
#    x 1.673360 0.000000 0.000000 
#    y 0.000000 1.606060 0.000000 
#    z 0.000000 0.000000 1.603030 
# 
# From -- ./inp_files/54712.got.cif
#   From: 2010.05.17/outbox.ucp.g08.bks.cvg/sg71_28_cif.got.tgz:54712.got - 2010.06.11 16:29:00.
