data_PCOD9524520
_publ_section_title
;
Structure prediction by ZEFSAII (Michael W. Deem and Ramdas Pophale) SiO2 
 PCOD9524520
Probable space group: I M M M
;
_chemical_formula_sum "Si O2"
_cell_formula_units_Z 96
_cell_length_a 15.154888
_cell_length_b 13.884218
_cell_length_c 21.177940
_cell_angle_alpha 90.000000
_cell_angle_beta 90.000000
_cell_angle_gamma 90.000000
_cell_volume 4456.130170
_symmetry_space_group_name_H-M "I M M M"
_symmetry_group_IT_number 71
_symmetry_cell_setting 'orthorhombic'
loop_
_space_group_symop_operation_xyz
x,y,z
-x,-y,z
x,-y,-z
-x,y,-z
-x,-y,-z
x,y,-z
-x,y,z
x,-y,z
1/2+x,1/2+y,1/2+z
1/2-x,1/2-y,1/2+z
1/2+x,1/2-y,1/2-z
1/2-x,1/2+y,1/2-z
1/2-x,1/2-y,1/2-z
1/2+x,1/2+y,1/2-z
1/2-x,1/2+y,1/2+z
1/2+x,1/2-y,1/2+z
loop_
_atom_site_type_symbol
_atom_site_label
_atom_site_fract_x
_atom_site_fract_y
_atom_site_fract_z
Si Si1 0.307083 0.611011 0.929902
Si Si2 0.398345 0.617721 0.707646
Si Si3 0.740948 0.884042 0.701183
Si Si4 0.898866 0.384023 0.698965
Si Si5 0.896573 0.305300 0.431683
Si Si6 0.392598 0.386757 0.431585
O O1 0.336764 0.500000 0.920549
O O2 0.243779 0.638939 0.872481
O O3 0.383656 0.690366 0.928055
O O4 0.267037 0.616104 0.000000
O O5 0.500000 0.646823 0.718542
O O6 0.398697 0.500000 0.704896
O O7 0.331214 0.643894 0.763268
O O8 0.366952 0.651338 0.637774
O O9 0.658748 0.850343 0.742181
O O10 0.737691 0.000000 0.704094
O O11 0.899626 0.500000 0.698278
O O12 0.859319 0.350928 0.631909
O O13 0.000000 0.350865 0.703903
O O14 0.859371 0.336855 0.500000
O O15 0.000000 0.329752 0.432150
O O16 0.364112 0.344778 0.500000
O O17 0.500000 0.383515 0.430836
O O18 0.367918 0.500000 0.432566
#
# Coordination Sequence:
#
# PCOD9524520 Si02
#       6
#    16  16  16  16  16  16
#     4   9  18  32  50  73 101 131 161 200 255 315
#     4   8  13  21  34  55  85 119 154 193 236 286
#     4   9  17  29  46  69  97 129 165 204 250 304
#     4   9  18  33  52  73  99 133 174 219 258 288
#     4   9  18  32  50  74 103 135 172 208 245 298
#     4   7   9  14  25  41  64  98 138 177 217 260
#
# _framework density 21.543357
#
# number of rings (size 3 to 8) (size 9 to 14) (size 15 to 20)
#    0.000    3.500    0.000    1.500    0.000    2.000 
#    0.000    5.833    0.000    3.500    0.000    3.500 
#    0.000    1.333    0.000    0.000    0.000    0.000 
#
# Total GULP energy -267455.027689 kJ/mol
# GULP energy per Si atom -5571.979744 kJ/mol
# Density = 2.149432 g / cm^3
# Si number density = 21.543357 Si / 1000 Ang^3
#
#
#
# Elastic Constant Matrix: (Units=GPa)
#
#
# Indices 1 2 3 4 5 6 
#
# 1 67.0174 -5.1169 42.3455 0.0000 0.0000 0.0000
# 2 -5.1169 43.4021 -2.0949 0.0000 0.0000 0.0000
# 3 42.3455 -2.0949 173.9510 0.0000 0.0000 0.0000
# 4 0.0000 0.0000 0.0000 10.7054 0.0000 0.0000
# 5 0.0000 0.0000 0.0000 0.0000 12.7061 0.0000
# 6 0.0000 0.0000 0.0000 0.0000 0.0000 5.1730
#
#
#
# Elastic Compliance Matrix: (Units=1/GPa)
#
#
# Indices 1 2 3 4 5 6 
#
# 1 0.017787 0.001889 -0.004307 0.000000 0.000000 0.000000
# 2 0.001889 0.023254 -0.000180 0.000000 0.000000 0.000000
# 3 -0.004307 -0.000180 0.006795 0.000000 0.000000 0.000000
# 4 0.000000 0.000000 0.000000 0.093411 0.000000 0.000000
# 5 0.000000 0.000000 0.000000 0.000000 0.078703 0.000000
# 6 0.000000 0.000000 0.000000 0.000000 0.000000 0.193310
#
#
# Mechanical properties :
#
#
# Convention : Reuss Voigt Hill
#
# Bulk Modulus (GPa) = 23.45163 39.40419 31.42791
# Shear Modulus (GPa) = 11.55616 22.33269 16.94443
#
# Velocity S-wave (km/s) = 2.31857 3.22318 2.80755
# Velocity P-wave (km/s) = 4.25172 5.67294 5.01295
#
# Compressibility (1/GPa) = 0.04264095
#
# Stress axis : x y z
#
# Youngs Moduli (GPa) = 56.21981 43.00259 147.16461
#
# Poissons Ratio (x) = -0.08124 0.63388
# Poissons Ratio (y) = -0.10621 0.02646
# Poissons Ratio (z) = 0.24215 0.00773
#
# Static dielectric constant tensor:
#      x y z
#    x 1.767120 0.000000 0.000000 
#    y 0.000000 1.790960 0.000000 
#    z 0.000000 0.000000 1.848580 
# 
# From -- ./inp_files/52990.got.cif
#   From: 2010.05.17/outbox.cif.g08.bks.cpg/sg71_27_cif.got.tgz:52990.got - 2010.06.03 16:22:01.
