data_PCOD9524212
_publ_section_title
;
Structure prediction by ZEFSAII (Michael W. Deem and Ramdas Pophale) SiO2 
 PCOD9524212
Probable space group: I M M M
;
_chemical_formula_sum "Si O2"
_cell_formula_units_Z 116
_cell_length_a 7.755259
_cell_length_b 27.108181
_cell_length_c 24.153390
_cell_angle_alpha 90.000000
_cell_angle_beta 90.000000
_cell_angle_gamma 90.000000
_cell_volume 5077.790480
_symmetry_space_group_name_H-M "I M M M"
_symmetry_group_IT_number 71
_symmetry_cell_setting 'orthorhombic'
loop_
_space_group_symop_operation_xyz
x,y,z
-x,-y,z
x,-y,-z
-x,y,-z
-x,-y,-z
x,y,-z
-x,y,z
x,-y,z
1/2+x,1/2+y,1/2+z
1/2-x,1/2-y,1/2+z
1/2+x,1/2-y,1/2-z
1/2-x,1/2+y,1/2-z
1/2-x,1/2-y,1/2-z
1/2+x,1/2+y,1/2-z
1/2-x,1/2+y,1/2+z
1/2+x,1/2-y,1/2+z
loop_
_atom_site_type_symbol
_atom_site_label
_atom_site_fract_x
_atom_site_fract_y
_atom_site_fract_z
Si Si1 0.308387 0.076478 0.595158
Si Si2 0.704553 0.713328 0.619694
Si Si3 0.289928 0.381086 0.440090
Si Si4 0.794434 0.186401 0.562796
Si Si5 0.304490 0.193991 0.759082
Si Si6 0.500000 0.500000 0.071804
Si Si7 0.302150 0.593805 0.782955
Si Si8 0.790129 0.056953 0.835302
O O1 0.500000 0.060314 0.578514
O O2 0.284030 0.133592 0.577953
O O3 0.292916 0.076755 0.662152
O O4 0.153039 0.042967 0.572898
O O5 0.500000 0.710717 0.629074
O O6 0.751352 0.676199 0.570342
O O7 0.749610 0.769132 0.604337
O O8 0.787069 0.690385 0.674782
O O9 0.227971 0.397933 0.500000
O O10 0.500000 0.384908 0.440190
O O11 0.227776 0.411917 0.387528
O O12 0.740777 0.199942 0.500000
O O13 0.000000 0.180495 0.563963
O O14 0.500000 0.187039 0.741141
O O15 0.250000 0.250000 0.750000
O O16 0.199081 0.152834 0.726217
O O17 0.500000 0.576561 0.789267
O O18 0.228185 0.573803 0.725089
O O19 0.000000 0.062854 0.833168
O O20 0.751196 0.000000 0.843686
#
# Coordination Sequence:
#
# PCOD9524212 Si02
#       8
#    16  16  16  16  16   4  16  16
#     4  12  26  46  74 106 139 182 231 280 347 413
#     4  11  21  37  60  92 129 173 223 276 341 409
#     4   9  17  31  52  84 125 165 214 275 332 393
#     4  11  24  45  70  99 138 180 225 281 344 413
#     4  12  24  38  58  88 125 169 216 269 336 410
#     4  12  26  52  73 108 144 182 227 294 340 404
#     4  11  21  39  64  92 135 176 221 280 340 403
#     4   9  18  31  54  86 123 171 218 268 334 395
#
# _framework density 22.844583
#
# number of rings (size 3 to 8) (size 9 to 14) (size 15 to 20)
#    0.000    1.241    2.759    3.931    0.966    1.931 
#    0.000    2.069    0.000    0.828    0.000    0.000 
#    0.000    1.103    0.000    0.000    0.000    0.000 
#
# Total GULP energy -323890.863895 kJ/mol
# GULP energy per Si atom -5584.325240 kJ/mol
# Density = 2.279259 g / cm^3
# Si number density = 22.844583 Si / 1000 Ang^3
#
#
#
# Elastic Constant Matrix: (Units=GPa)
#
#
# Indices 1 2 3 4 5 6 
#
# 1 104.4054 11.1309 0.6046 0.0000 0.0000 0.0000
# 2 11.1309 88.2650 -0.0721 0.0000 0.0000 0.0000
# 3 0.6046 -0.0721 65.9532 0.0000 0.0000 0.0000
# 4 0.0000 0.0000 0.0000 -6.5793 0.0000 0.0000
# 5 0.0000 0.0000 0.0000 0.0000 -14.2499 0.0000
# 6 0.0000 0.0000 0.0000 0.0000 0.0000 23.5992
#
#
#
# Elastic Compliance Matrix: (Units=1/GPa)
#
#
# Indices 1 2 3 4 5 6 
#
# 1 0.009709 -0.001224 -0.000090 0.000000 0.000000 0.000000
# 2 -0.001224 0.011484 0.000024 0.000000 0.000000 0.000000
# 3 -0.000090 0.000024 0.015163 0.000000 0.000000 0.000000
# 4 0.000000 0.000000 0.000000 -0.151991 0.000000 0.000000
# 5 0.000000 0.000000 0.000000 0.000000 -0.070176 0.000000
# 6 0.000000 0.000000 0.000000 0.000000 0.000000 0.042374
#
#
# Mechanical properties :
#
#
# Convention : Reuss Voigt Hill
#
# Bulk Modulus (GPa) = 29.60845 31.32780 30.46812
# Shear Modulus (GPa) = -38.58133 17.01802 -10.78165
#
# Velocity S-wave (km/s) = -4.11403 2.73233 -2.17481
# Velocity P-wave (km/s) = 3.09485 4.86800 2.65700
#
# Compressibility (1/GPa) = 0.03377415
#
# Stress axis : x y z
#
# Youngs Moduli (GPa) = 102.99602 87.07801 65.94948
#
# Poissons Ratio (x) = 0.10662 0.00596
# Poissons Ratio (y) = 0.12611 -0.00157
# Poissons Ratio (z) = 0.00930 -0.00207
#
# Static dielectric constant tensor:
#      x y z
#    x 1.834930 0.000000 0.000000 
#    y 0.000000 1.813710 0.000000 
#    z 0.000000 0.000000 1.842390 
# 
# From -- ./inp_files/58088.got.cif
#   From: 2010.05.17/outbox.cif.g08.bks.cpg/sg71_30_cif.got.tgz:58088.got - 2010.06.03 16:22:01.
