data_PCOD9524463
_publ_section_title
;
Structure prediction by ZEFSAII (Michael W. Deem and Ramdas Pophale) SiO2 
 PCOD9524463
Probable space group: I M M M
;
_chemical_formula_sum "Si O2"
_cell_formula_units_Z 96
_cell_length_a 16.142711
_cell_length_b 24.365869
_cell_length_c 14.424561
_cell_angle_alpha 90.000000
_cell_angle_beta 90.000000
_cell_angle_gamma 90.000000
_cell_volume 5673.629621
_symmetry_space_group_name_H-M "I M M M"
_symmetry_group_IT_number 71
_symmetry_cell_setting 'orthorhombic'
loop_
_space_group_symop_operation_xyz
x,y,z
-x,-y,z
x,-y,-z
-x,y,-z
-x,-y,-z
x,y,-z
-x,y,z
x,-y,z
1/2+x,1/2+y,1/2+z
1/2-x,1/2-y,1/2+z
1/2+x,1/2-y,1/2-z
1/2-x,1/2+y,1/2-z
1/2-x,1/2-y,1/2-z
1/2+x,1/2+y,1/2-z
1/2-x,1/2+y,1/2+z
1/2+x,1/2-y,1/2+z
loop_
_atom_site_type_symbol
_atom_site_label
_atom_site_fract_x
_atom_site_fract_y
_atom_site_fract_z
Si Si1 0.000000 0.279835 0.890642
Si Si2 0.906745 0.065781 0.610357
Si Si3 0.682585 0.779657 0.389974
Si Si4 0.249729 0.621177 0.794155
Si Si5 0.406182 0.066165 0.391293
Si Si6 0.183953 0.852429 0.890815
Si Si7 0.500000 0.647742 0.390812
O O1 0.909941 0.296656 0.855827
O O2 0.000000 0.213710 0.882948
O O3 0.000000 0.292796 0.000000
O O4 0.898380 0.076476 0.500000
O O5 0.831643 0.093603 0.663671
O O6 0.000000 0.083559 0.638562
O O7 0.902254 0.000000 0.622574
O O8 0.689449 0.792144 0.500000
O O9 0.745346 0.816360 0.332178
O O10 0.690126 0.713961 0.382503
O O11 0.168767 0.590945 0.833366
O O12 0.254422 0.621618 0.683114
O O13 0.394798 0.080506 0.500000
O O14 0.500000 0.083630 0.365070
O O15 0.403515 0.000000 0.385168
O O16 0.090809 0.870019 0.858825
O O17 0.194824 0.865453 0.000000
O O18 0.500000 0.635198 0.500000
#
# Coordination Sequence:
#
# PCOD9524463 Si02
#       7
#     8  16  16  16  16  16   8
#     4   7  12  24  42  62  90 124 155 190 236 284
#     4   9  19  35  51  70 100 132 160 196 246 304
#     4   9  17  29  45  71 103 132 161 201 247 291
#     4  12  20  27  52  79  98 126 173 203 242 295
#     4   9  19  35  53  77 107 129 151 198 260 309
#     4   9  19  33  47  67 102 137 168 208 247 280
#     4   7  12  28  48  60  80 125 169 201 240 275
#
# _framework density 16.920386000000001
#
# number of rings (size 3 to 8) (size 9 to 14) (size 15 to 20)
#    0.000    2.833    0.000    5.500    2.333    1.333 
#    0.000    0.000    0.000    2.500    0.000    4.667 
#    0.000    0.000    0.000    0.000    0.000    0.000 
#
# Total GULP energy -267320.677939 kJ/mol
# GULP energy per Si atom -5569.180790 kJ/mol
# Density = 1.688187 g / cm^3
# Si number density = 16.920386 Si / 1000 Ang^3
#
#
#
# Elastic Constant Matrix: (Units=GPa)
#
#
# Indices 1 2 3 4 5 6 
#
# 1 118.2040 39.5408 69.6188 0.0000 0.0000 0.0000
# 2 39.5408 30.3166 24.2465 0.0000 0.0000 0.0000
# 3 69.6188 24.2465 88.1401 0.0000 0.0000 0.0000
# 4 0.0000 0.0000 0.0000 2.9067 0.0000 0.0000
# 5 0.0000 0.0000 0.0000 0.0000 20.9430 0.0000
# 6 0.0000 0.0000 0.0000 0.0000 0.0000 30.9338
#
#
#
# Elastic Compliance Matrix: (Units=1/GPa)
#
#
# Indices 1 2 3 4 5 6 
#
# 1 0.021914 -0.018895 -0.012111 0.000000 0.000000 0.000000
# 2 -0.018895 0.058582 -0.001191 -0.000001 0.000000 0.000000
# 3 -0.012111 -0.001191 0.021239 0.000000 0.000000 0.000000
# 4 0.000000 -0.000001 0.000000 0.344028 0.000000 0.000000
# 5 0.000000 0.000000 0.000000 0.000000 0.047749 0.000000
# 6 0.000000 0.000000 0.000000 0.000000 0.000000 0.032327
#
#
# Mechanical properties :
#
#
# Convention : Reuss Voigt Hill
#
# Bulk Modulus (GPa) = 26.78022 55.94143 41.36082
# Shear Modulus (GPa) = 8.29630 17.84035 13.06832
#
# Velocity S-wave (km/s) = 2.21670 3.25063 2.78212
# Velocity P-wave (km/s) = 4.73426 6.87184 5.90065
#
# Compressibility (1/GPa) = 0.03734100
#
# Stress axis : x y z
#
# Youngs Moduli (GPa) = 45.63375 17.07019 47.08285
#
# Poissons Ratio (x) = 0.32254 0.57022
# Poissons Ratio (y) = 0.86225 0.05606
# Poissons Ratio (z) = 0.55267 0.02033
#
# Static dielectric constant tensor:
#      x y z
#    x 1.601430 0.000000 0.000000 
#    y 0.000000 1.592090 0.000000 
#    z 0.000000 0.000000 1.554290 
# 
# From -- ./inp_files/34797.got.cif
#   From: 2010.05.17/outbox.cif.g08.bks.cpg/sg71_18_cif.got.tgz:34797.got - 2010.06.03 16:22:01.
