data_PCOD9524753
_publ_section_title
;
Structure prediction by ZEFSAII (Michael W. Deem and Ramdas Pophale) SiO2 
 PCOD9524753
Probable space group: I M M M
;
_chemical_formula_sum "Si O2"
_cell_formula_units_Z 52
_cell_length_a 21.000000
_cell_length_b 30.000000
_cell_length_c 9.000000
_cell_angle_alpha 90.000000
_cell_angle_beta 90.000000
_cell_angle_gamma 90.000000
_cell_volume 5670.000000
_symmetry_space_group_name_H-M "I M M M"
_symmetry_group_IT_number 71
_symmetry_cell_setting 'orthorhombic'
loop_
_space_group_symop_operation_xyz
x,y,z
-x,-y,z
x,-y,-z
-x,y,-z
-x,-y,-z
x,y,-z
-x,y,z
x,-y,z
1/2+x,1/2+y,1/2+z
1/2-x,1/2-y,1/2+z
1/2+x,1/2-y,1/2-z
1/2-x,1/2+y,1/2-z
1/2-x,1/2-y,1/2-z
1/2+x,1/2+y,1/2-z
1/2-x,1/2+y,1/2+z
1/2+x,1/2-y,1/2+z
loop_
_atom_site_type_symbol
_atom_site_label
_atom_site_fract_x
_atom_site_fract_y
_atom_site_fract_z
Si Si1 0.206646 0.288274 0.178067
Si Si2 0.925796 0.395669 0.161397
Si Si3 0.656481 0.951490 0.161685
Si Si4 0.500000 0.553527 0.832062
Si Si5 0.236841 0.123615 0.170910
Si Si6 0.574000 0.194983 0.823669
Si Si7 0.633075 0.551999 0.320300
O O1 0.250000 0.250000 0.250000
O O2 0.237910 0.334979 0.233792
O O3 0.133885 0.283417 0.238871
O O4 0.206925 0.286081 0.000000
O O5 0.891350 0.440289 0.208638
O O6 0.917235 0.357138 0.282820
O O7 0.000000 0.403767 0.153068
O O8 0.902849 0.379179 0.000000
O O9 0.707315 0.912662 0.163795
O O10 0.686858 0.000000 0.176341
O O11 0.623830 0.950252 0.000000
O O12 0.500000 0.500000 0.844153
O O13 0.436294 0.563846 0.742047
O O14 0.500000 0.571906 0.000000
O O15 0.179281 0.092363 0.228021
O O16 0.223664 0.138562 0.000000
O O17 0.500000 0.206385 0.780414
O O18 0.579952 0.201876 0.000000
O O19 0.634131 0.551795 0.500000
O O20 0.648182 0.500000 0.275037
#
# Coordination Sequence:
#
# PCOD9524753 Si02
#       7
#    16  16  16   8  16  16  16
#     4  12  25  41  64  91 120 152 191 236 290 351
#     4  10  20  33  50  75 108 148 193 238 283 330
#     4  10  20  33  51  76 109 150 192 233 280 335
#     4   9  17  29  47  75 111 149 191 237 281 331
#     4  10  20  36  57  82 114 148 188 236 285 337
#     4  10  20  37  63  91 118 150 190 238 290 345
#     4   9  17  31  54  82 112 150 193 234 279 336
#
# _framework density 9.1710759999999993
#
# number of rings (size 3 to 8) (size 9 to 14) (size 15 to 20)
#    0.000    1.923    1.538    3.000    0.000    5.846 
#    0.000    1.538    1.692    2.769    0.000    0.000 
#    0.000    0.000    0.000    0.000    0.000    0.000 
#
# Total GULP energy -289567.997772 kJ/mol
# GULP energy per Si atom -5568.615342 kJ/mol
# Density = 0.915020 g / cm^3
# Si number density = 9.171076 Si / 1000 Ang^3
#
#
#
# Elastic Constant Matrix: (Units=GPa)
#
#
# Indices 1 2 3 4 5 6 
#
# 1 118.2520 50.5896 52.1921 0.0000 0.0000 0.0000
# 2 50.5896 86.8022 41.6594 0.0000 0.0000 0.0000
# 3 52.1921 41.6594 79.9859 0.0000 0.0000 0.0000
# 4 0.0000 0.0000 0.0000 17.6286 0.0000 0.0000
# 5 0.0000 0.0000 0.0000 0.0000 20.7853 0.0000
# 6 0.0000 0.0000 0.0000 0.0000 0.0000 18.1180
#
#
#
# Elastic Compliance Matrix: (Units=1/GPa)
#
#
# Indices 1 2 3 4 5 6 
#
# 1 0.013196 -0.004744 -0.006140 0.000000 0.000000 0.000000
# 2 -0.004744 0.017066 -0.005793 0.000000 0.000000 0.000000
# 3 -0.006140 -0.005793 0.019525 0.000000 0.000000 0.000000
# 4 0.000000 0.000000 0.000000 0.056726 0.000000 0.000000
# 5 0.000000 0.000000 0.000000 0.000000 0.048111 0.000000
# 6 0.000000 0.000000 0.000000 0.000000 0.000000 0.055194
#
#
# Mechanical properties :
#
#
# Convention : Reuss Voigt Hill
#
# Bulk Modulus (GPa) = 60.84960 63.76914 62.30937
# Shear Modulus (GPa) = 20.10871 20.67964 20.39418
#
# Velocity S-wave (km/s) = 3.31465 3.36138 3.33810
# Velocity P-wave (km/s) = 6.92069 7.06449 6.99296
#
# Compressibility (1/GPa) = 0.01643396
#
# Stress axis : x y z
#
# Youngs Moduli (GPa) = 75.78085 58.59767 51.21527
#
# Poissons Ratio (x) = 0.27800 0.31444
# Poissons Ratio (y) = 0.35952 0.29667
# Poissons Ratio (z) = 0.46527 0.33944
#
# Static dielectric constant tensor:
#      x y z
#    x 1.672890 0.000000 0.000000 
#    y 0.000000 1.620480 0.000000 
#    z 0.000000 0.000000 1.663690 
# 
# From -- ./inp_files/11513.got.cif
#   From: 2010.05.17/outbox.ucp.g08.bks.cvg/sg71_6_cif.got.tgz:11513.got - 2010.06.11 16:29:00.
