data_PCOD9524818
_publ_section_title
;
Structure prediction by ZEFSAII (Michael W. Deem and Ramdas Pophale) SiO2 
 PCOD9524818
Probable space group: I M M M
;
_chemical_formula_sum "Si O2"
_cell_formula_units_Z 48
_cell_length_a 21.000000
_cell_length_b 27.000000
_cell_length_c 9.000000
_cell_angle_alpha 90.000000
_cell_angle_beta 90.000000
_cell_angle_gamma 90.000000
_cell_volume 5103.000000
_symmetry_space_group_name_H-M "I M M M"
_symmetry_group_IT_number 71
_symmetry_cell_setting 'orthorhombic'
loop_
_space_group_symop_operation_xyz
x,y,z
-x,-y,z
x,-y,-z
-x,y,-z
-x,-y,-z
x,y,-z
-x,y,z
x,-y,z
1/2+x,1/2+y,1/2+z
1/2-x,1/2-y,1/2+z
1/2+x,1/2-y,1/2-z
1/2-x,1/2+y,1/2-z
1/2-x,1/2-y,1/2-z
1/2+x,1/2+y,1/2-z
1/2-x,1/2+y,1/2+z
1/2+x,1/2-y,1/2+z
loop_
_atom_site_type_symbol
_atom_site_label
_atom_site_fract_x
_atom_site_fract_y
_atom_site_fract_z
Si Si1 0.571265 0.558741 0.678156
Si Si2 0.925679 0.300558 0.679453
Si Si3 0.185242 0.769945 0.325409
Si Si4 0.429201 0.941594 0.166261
Si Si5 0.664067 0.883942 0.673491
Si Si6 0.190874 0.113032 0.675196
O O1 0.573358 0.564873 0.500000
O O2 0.500000 0.575835 0.728236
O O3 0.574828 0.500000 0.709543
O O4 0.632850 0.584894 0.747209
O O5 0.928009 0.303171 0.500000
O O6 0.882083 0.253478 0.723635
O O7 0.879994 0.343859 0.742106
O O8 0.000000 0.300354 0.730330
O O9 0.192307 0.758410 0.500000
O O10 0.250000 0.750000 0.250000
O O11 0.180914 0.828454 0.307747
O O12 0.500000 0.920443 0.196198
O O13 0.378701 0.931241 0.293173
O O14 0.435452 0.000000 0.155823
O O15 0.409666 0.924037 0.000000
O O16 0.668551 0.870479 0.500000
O O17 0.735872 0.893612 0.729065
O O18 0.189847 0.100142 0.500000
#
# Coordination Sequence:
#
# PCOD9524818 Si02
#       6
#    16  16  16  16  16  16
#     4   9  20  40  63  87 116 149 189 238 288 341
#     4  10  21  36  56  81 107 143 190 232 274 330
#     4  10  20  37  58  80 111 150 189 233 282 334
#     4   9  19  36  55  74 100 138 184 229 271 322
#     4  11  22  35  52  79 113 145 179 225 278 329
#     4  10  22  37  56  85 117 149 186 227 278 340
#
# _framework density 9.4062319999999993
#
# number of rings (size 3 to 8) (size 9 to 14) (size 15 to 20)
#    0.000    2.167    1.667    2.000    0.000    7.000 
#    0.000    6.667    0.000    0.000    0.000    0.000 
#    0.000    0.000    0.000    0.000    0.000    0.000 
#
# Total GULP energy -267217.624245 kJ/mol
# GULP energy per Si atom -5567.033838 kJ/mol
# Density = 0.938482 g / cm^3
# Si number density = 9.406232 Si / 1000 Ang^3
#
#
#
# Elastic Constant Matrix: (Units=GPa)
#
#
# Indices 1 2 3 4 5 6 
#
# 1 212.4281 49.8456 52.5886 0.0000 0.0000 0.0000
# 2 49.8456 25.7246 17.6188 0.0000 0.0000 0.0000
# 3 52.5886 17.6188 26.2741 0.0000 0.0000 0.0000
# 4 0.0000 0.0000 0.0000 21.3508 0.0000 0.0000
# 5 0.0000 0.0000 0.0000 0.0000 36.3603 0.0000
# 6 0.0000 0.0000 0.0000 0.0000 0.0000 35.1549
#
#
#
# Elastic Compliance Matrix: (Units=1/GPa)
#
#
# Indices 1 2 3 4 5 6 
#
# 1 0.010883 -0.011408 -0.014133 0.000000 0.000000 0.000000
# 2 -0.011408 0.083850 -0.033394 0.000000 0.000000 0.000000
# 3 -0.014133 -0.033394 0.088742 0.000000 0.000000 0.000000
# 4 0.000000 0.000000 0.000000 0.046837 0.000000 0.000000
# 5 0.000000 0.000000 0.000000 0.000000 0.027503 0.000000
# 6 0.000000 0.000000 0.000000 0.000000 0.000000 0.028446
#
#
# Mechanical properties :
#
#
# Convention : Reuss Voigt Hill
#
# Bulk Modulus (GPa) = 15.24294 56.05920 35.65107
# Shear Modulus (GPa) = 11.73713 28.19812 19.96763
#
# Velocity S-wave (km/s) = 2.50051 3.87577 3.26145
# Velocity P-wave (km/s) = 4.05671 7.06346 5.75975
#
# Compressibility (1/GPa) = 0.06560414
#
# Stress axis : x y z
#
# Youngs Moduli (GPa) = 91.88557 11.92603 11.26867
#
# Poissons Ratio (x) = 0.13605 0.15926
# Poissons Ratio (y) = 1.04824 0.37631
# Poissons Ratio (z) = 1.29862 0.39826
#
# Static dielectric constant tensor:
#      x y z
#    x 1.711890 0.000000 0.000000 
#    y 0.000000 1.771320 0.000000 
#    z 0.000000 0.000000 1.671060 
# 
# From -- ./inp_files/10817.got.cif
#   From: 2010.05.17/outbox.ucp.g08.bks.cvg/sg71_6_cif.got.tgz:10817.got - 2010.06.11 16:29:00.
