data_PCOD9524413
_publ_section_title
;
Structure prediction by ZEFSAII (Michael W. Deem and Ramdas Pophale) SiO2 
 PCOD9524413
Probable space group: I M M M
;
_chemical_formula_sum "Si O2"
_cell_formula_units_Z 52
_cell_length_a 19.157194
_cell_length_b 14.935372
_cell_length_c 7.257485
_cell_angle_alpha 90.000000
_cell_angle_beta 90.000000
_cell_angle_gamma 90.000000
_cell_volume 2076.510294
_symmetry_space_group_name_H-M "I M M M"
_symmetry_group_IT_number 71
_symmetry_cell_setting 'orthorhombic'
loop_
_space_group_symop_operation_xyz
x,y,z
-x,-y,z
x,-y,-z
-x,y,-z
-x,-y,-z
x,y,-z
-x,y,z
x,-y,z
1/2+x,1/2+y,1/2+z
1/2-x,1/2-y,1/2+z
1/2+x,1/2-y,1/2-z
1/2-x,1/2+y,1/2-z
1/2-x,1/2-y,1/2-z
1/2+x,1/2+y,1/2-z
1/2-x,1/2+y,1/2+z
1/2+x,1/2-y,1/2+z
loop_
_atom_site_type_symbol
_atom_site_label
_atom_site_fract_x
_atom_site_fract_y
_atom_site_fract_z
Si Si1 0.773731 0.147554 0.783282
Si Si2 0.915825 0.595893 0.781502
Si Si3 0.420249 0.293365 0.275947
Si Si4 0.723090 0.000000 0.500000
O O1 0.750000 0.250000 0.750000
O O2 0.856328 0.142288 0.729706
O O3 0.731966 0.078743 0.660268
O O4 0.767275 0.128625 0.000000
O O5 0.895114 0.500000 0.700980
O O6 0.898054 0.693803 0.709990
O O7 0.000000 0.597422 0.772457
O O8 0.898820 0.590577 0.000000
O O9 0.422014 0.288010 0.500000
O O10 0.500000 0.313898 0.217959
#
# Coordination Sequence:
#
# PCOD9524413 Si02
#       4
#    16  16  16   4
#     4  11  23  45  72 104 144 187 238 302 361 430
#     4   7   9  16  34  67 111 156 205 257 315 388
#     4   8  15  30  55  89 134 185 230 285 351 418
#     4  12  26  48  77 102 141 196 246 296 368 430
#
# _framework density 25.042014999999999
#
# number of rings (size 3 to 8) (size 9 to 14) (size 15 to 20)
#    0.000    3.077    1.538    3.231    0.000    0.000 
#    2.769    2.308    0.000    3.692    0.000    0.000 
#    0.000    7.385    0.000    0.000    0.000    0.000 
#
# Total GULP energy -144841.881888 kJ/mol
# GULP energy per Si atom -5570.841611 kJ/mol
# Density = 2.498502 g / cm^3
# Si number density = 25.042015 Si / 1000 Ang^3
#
#
#
# Elastic Constant Matrix: (Units=GPa)
#
#
# Indices 1 2 3 4 5 6 
#
# 1 148.3357 24.5223 14.2614 0.0000 0.0000 0.0000
# 2 24.5223 81.4222 31.5847 0.0000 0.0000 0.0000
# 3 14.2614 31.5847 157.5968 0.0000 0.0000 0.0000
# 4 0.0000 0.0000 0.0000 -6.1039 0.0000 0.0000
# 5 0.0000 0.0000 0.0000 0.0000 8.4695 0.0000
# 6 0.0000 0.0000 0.0000 0.0000 0.0000 18.2302
#
#
#
# Elastic Compliance Matrix: (Units=1/GPa)
#
#
# Indices 1 2 3 4 5 6 
#
# 1 0.007103 -0.002049 -0.000232 0.000000 0.000000 0.000000
# 2 -0.002049 0.013908 -0.002602 0.000000 0.000000 0.000000
# 3 -0.000232 -0.002602 0.006888 0.000000 0.000000 0.000000
# 4 0.000000 0.000000 0.000000 -0.163828 0.000000 0.000000
# 5 0.000000 0.000000 0.000000 0.000000 0.118071 0.000000
# 6 0.000000 0.000000 0.000000 0.000000 0.000000 0.054854
#
#
# Mechanical properties :
#
#
# Convention : Reuss Voigt Hill
#
# Bulk Modulus (GPa) = 55.15047 58.67684 56.91366
# Shear Modulus (GPa) = 94.68768 25.25156 59.96962
#
# Velocity S-wave (km/s) = 6.15578 3.17893 4.89894
# Velocity P-wave (km/s) = 8.52032 6.07917 7.40108
#
# Compressibility (1/GPa) = 0.01813221
#
# Stress axis : x y z
#
# Youngs Moduli (GPa) = 140.79499 71.90042 145.18472
#
# Poissons Ratio (x) = 0.14733 0.03369
# Poissons Ratio (y) = 0.28850 0.37777
# Poissons Ratio (z) = 0.03267 0.18708
#
# Static dielectric constant tensor:
#      x y z
#    x 2.128920 0.000000 0.000000 
#    y 0.000000 2.228990 0.000000 
#    z 0.000000 0.000000 2.005790 
# 
# From -- ./inp_files/4898.got.cif
#   From: 2010.05.17/outbox.cif.g08.bks.cpg/sg71_3_cif.got.tgz:4898.got - 2010.06.03 16:22:01.
