data_PCOD9524656
_publ_section_title
;
Structure prediction by ZEFSAII (Michael W. Deem and Ramdas Pophale) SiO2 
 PCOD9524656
Probable space group: I M M M
;
_chemical_formula_sum "Si O2"
_cell_formula_units_Z 80
_cell_length_a 23.022857
_cell_length_b 22.491881
_cell_length_c 9.255210
_cell_angle_alpha 90.000000
_cell_angle_beta 90.000000
_cell_angle_gamma 90.000000
_cell_volume 4792.600960
_symmetry_space_group_name_H-M "I M M M"
_symmetry_group_IT_number 71
_symmetry_cell_setting 'orthorhombic'
loop_
_space_group_symop_operation_xyz
x,y,z
-x,-y,z
x,-y,-z
-x,y,-z
-x,-y,-z
x,y,-z
-x,y,z
x,-y,z
1/2+x,1/2+y,1/2+z
1/2-x,1/2-y,1/2+z
1/2+x,1/2-y,1/2-z
1/2-x,1/2+y,1/2-z
1/2-x,1/2-y,1/2-z
1/2+x,1/2+y,1/2-z
1/2-x,1/2+y,1/2+z
1/2+x,1/2-y,1/2+z
loop_
_atom_site_type_symbol
_atom_site_label
_atom_site_fract_x
_atom_site_fract_y
_atom_site_fract_z
Si Si1 0.117494 0.569697 0.826801
Si Si2 0.827164 0.797541 0.173009
Si Si3 0.287673 0.834293 0.673302
Si Si4 0.500000 0.927723 0.834003
Si Si5 0.067401 0.120632 0.173467
Si Si6 0.570501 0.500000 0.165416
O O1 0.127458 0.500000 0.793718
O O2 0.171680 0.610675 0.785036
O O3 0.058635 0.590054 0.748283
O O4 0.109376 0.574688 0.000000
O O5 0.774348 0.831656 0.249618
O O6 0.819928 0.727945 0.209491
O O7 0.888722 0.826499 0.212085
O O8 0.820520 0.802673 0.000000
O O9 0.279438 0.835967 0.500000
O O10 0.500000 0.000000 0.832462
O O11 0.500000 0.908099 0.000000
O O12 0.087032 0.059998 0.251196
O O13 0.000000 0.132668 0.211959
O O14 0.069413 0.112001 0.000000
O O15 0.500000 0.500000 0.163973
O O16 0.590977 0.500000 0.000000
#
# Coordination Sequence:
#
# PCOD9524656 Si02
#       6
#    16  16  16   8  16   8
#     4   9  17  31  50  72  99 129 163 200 240 288
#     4   9  18  33  51  71  95 128 167 202 242 288
#     4   9  18  33  51  71  96 131 168 201 241 287
#     4   9  17  29  47  71  99 129 159 194 241 288
#     4   9  17  31  50  71  97 127 161 201 242 288
#     4   9  17  29  47  71  97 125 155 190 239 292
#
# _framework density 16.692397
#
# number of rings (size 3 to 8) (size 9 to 14) (size 15 to 20)
#    0.000    3.000    0.000    0.600    0.000    4.000 
#    3.600    0.000    0.000    0.000    0.000    0.000 
#    0.000    0.000    0.000    0.000    0.000    0.000 
#
# Total GULP energy -222826.637470 kJ/mol
# GULP energy per Si atom -5570.665937 kJ/mol
# Density = 1.665440 g / cm^3
# Si number density = 16.692397 Si / 1000 Ang^3
#
#
#
# Elastic Constant Matrix: (Units=GPa)
#
#
# Indices 1 2 3 4 5 6 
#
# 1 112.3752 67.8459 38.4702 0.0000 0.0000 0.0000
# 2 67.8459 69.4416 30.7177 0.0000 0.0000 0.0000
# 3 38.4702 30.7177 23.9920 0.0000 0.0000 0.0000
# 4 0.0000 0.0000 0.0000 15.5354 0.0000 0.0000
# 5 0.0000 0.0000 0.0000 0.0000 27.5714 0.0000
# 6 0.0000 0.0000 0.0000 0.0000 0.0000 28.9936
#
#
#
# Elastic Compliance Matrix: (Units=1/GPa)
#
#
# Indices 1 2 3 4 5 6 
#
# 1 0.025503 -0.015745 -0.020733 0.000000 0.000000 0.000000
# 2 -0.015745 0.042929 -0.029717 0.000000 0.000000 0.000000
# 3 -0.020733 -0.029717 0.112974 0.000000 0.000000 0.000000
# 4 0.000000 0.000000 0.000000 0.064369 0.000000 0.000000
# 5 0.000000 0.000000 0.000000 0.000000 0.036270 0.000000
# 6 0.000000 0.000000 0.000000 0.000000 0.000000 0.034490
#
#
# Mechanical properties :
#
#
# Convention : Reuss Voigt Hill
#
# Bulk Modulus (GPa) = 20.40228 53.31959 36.86093
# Shear Modulus (GPa) = 10.74659 19.00507 14.87583
#
# Velocity S-wave (km/s) = 2.54008 3.37790 2.98849
# Velocity P-wave (km/s) = 4.56636 6.87207 5.83425
#
# Compressibility (1/GPa) = 0.04901414
#
# Stress axis : x y z
#
# Youngs Moduli (GPa) = 39.21176 23.29410 8.85162
#
# Poissons Ratio (x) = 0.36677 0.18352
# Poissons Ratio (y) = 0.61739 0.26305
# Poissons Ratio (z) = 0.81299 0.69224
#
# Static dielectric constant tensor:
#      x y z
#    x 1.545410 0.000000 0.000000 
#    y 0.000000 1.556940 0.000000 
#    z 0.000000 0.000000 1.559490 
# 
# From -- ./inp_files/10298.got.cif
#   From: 2010.05.17/outbox.cif.g08.bks.cpg/sg71_6_cif.got.tgz:10298.got - 2010.06.03 16:22:01.
