data_PCOD9524948
_publ_section_title
;
Structure prediction by ZEFSAII (Michael W. Deem and Ramdas Pophale) SiO2 
 PCOD9524948
Probable space group: I B A M
;
_chemical_formula_sum "Si O2"
_cell_formula_units_Z 56
_cell_length_a 13.501587
_cell_length_b 31.031783
_cell_length_c 5.503535
_cell_angle_alpha 90.000000
_cell_angle_beta 90.000000
_cell_angle_gamma 90.000000
_cell_volume 2305.861837
_symmetry_space_group_name_H-M "I B A M"
_symmetry_group_IT_number 72
_symmetry_cell_setting 'orthorhombic'
loop_
_space_group_symop_operation_xyz
x,y,z
-x,-y,z
x,-y,1/2-z
-x,y,1/2-z
-x,-y,-z
x,y,-z
-x,y,1/2+z
x,-y,1/2+z
1/2+x,1/2+y,1/2+z
1/2-x,1/2-y,1/2+z
1/2+x,1/2-y,-z
1/2-x,1/2+y,-z
1/2-x,1/2-y,1/2-z
1/2+x,1/2+y,1/2-z
1/2-x,1/2+y,z
1/2+x,1/2-y,z
loop_
_atom_site_type_symbol
_atom_site_label
_atom_site_fract_x
_atom_site_fract_y
_atom_site_fract_z
Si Si1 0.063939 0.396467 0.000000
Si Si2 0.366607 0.521617 0.000000
Si Si3 0.384992 0.238381 0.000000
Si Si4 0.112327 0.123568 0.000000
Si Si5 0.614725 0.658690 0.000000
Si Si6 0.146095 0.485457 0.000000
Si Si7 0.887638 0.702900 0.000000
O O1 0.105831 0.348313 0.000000
O O2 0.000000 0.401047 0.750000
O O3 0.146606 0.433800 0.000000
O O4 0.401097 0.500000 0.250000
O O5 0.249566 0.511206 0.000000
O O6 0.388337 0.572071 0.000000
O O7 0.386390 0.289867 0.000000
O O8 0.341200 0.219982 0.250285
O O9 0.499535 0.221533 0.000000
O O10 0.159505 0.140682 0.249705
O O11 0.999488 0.141667 0.000000
O O12 0.098548 0.500000 0.250000
#
# Coordination Sequence:
#
# PCOD9524948 Si02
#       7
#     8   8   8   8   8   8   8
#     4  12  21  34  53  81 114 143 181 221 280 325
#     4  10  21  39  57  72  99 142 193 236 271 323
#     4  10  16  28  46  68 115 149 168 195 260 320
#     4  10  18  32  50  75 109 142 182 224 274 317
#     4  10  19  30  48  82 116 143 173 220 274 320
#     4  10  23  40  56  75 103 140 192 232 275 327
#     4  10  16  27  43  71 103 152 166 200 250 319
#
# _framework density 24.28593
#
# number of rings (size 3 to 8) (size 9 to 14) (size 15 to 20)
#    0.000    1.714    2.857    6.000    0.000    1.714 
#    0.000    8.571    0.000    0.000    0.000    0.000 
#    0.000  155.429    0.000    0.000    0.000    0.000 
#
# Total GULP energy -156602.270548 kJ/mol
# GULP energy per Si atom -5592.938234 kJ/mol
# Density = 2.423065 g / cm^3
# Si number density = 24.285930 Si / 1000 Ang^3
#
#
#
# Elastic Constant Matrix: (Units=GPa)
#
#
# Indices 1 2 3 4 5 6 
#
# 1 84.8032 16.7872 5.6480 -0.0002 0.0167 0.0016
# 2 16.7872 274.3439 87.8723 0.0325 0.0029 -0.0005
# 3 5.6480 87.8723 290.1154 0.0188 0.0532 -0.0194
# 4 -0.0002 0.0325 0.0188 42.5394 -0.0192 0.0048
# 5 0.0167 0.0029 0.0532 -0.0192 -42.0122 0.0015
# 6 0.0016 -0.0005 -0.0194 0.0048 0.0015 37.5291
#
#
#
# Elastic Compliance Matrix: (Units=1/GPa)
#
#
# Indices 1 2 3 4 5 6 
#
# 1 0.011937 -0.000726 -0.000012 0.000001 0.000005 -0.000001
# 2 -0.000726 0.004081 -0.001222 -0.000003 -0.000002 -0.000001
# 3 -0.000012 -0.001222 0.003817 -0.000001 0.000005 0.000002
# 4 0.000001 -0.000003 -0.000001 0.023508 -0.000011 -0.000003
# 5 0.000005 -0.000002 0.000005 -0.000011 -0.023803 0.000001
# 6 -0.000001 -0.000001 0.000002 -0.000003 0.000001 0.026646
#
#
# Mechanical properties :
#
#
# Convention : Reuss Voigt Hill
#
# Bulk Modulus (GPa) = 62.84030 96.65304 79.74667
# Shear Modulus (GPa) = 90.23379 43.54161 66.88770
#
# Velocity S-wave (km/s) = 6.10208 4.23883 5.25372
# Velocity P-wave (km/s) = 8.69359 7.99007 8.34925
#
# Compressibility (1/GPa) = 0.01591335
#
# Stress axis : x y z
#
# Youngs Moduli (GPa) = 83.77568 245.04470 261.96913
#
# Poissons Ratio (x) = 0.17801 0.00324
# Poissons Ratio (y) = 0.06086 0.32010
# Poissons Ratio (z) = 0.00103 0.29942
#
# Static dielectric constant tensor:
#      x y z
#    x -5.213450 -0.000470 -0.023120 
#    y -0.000470 1.832670 -0.000100 
#    z -0.023120 -0.000100 2.036520 
# 
# From -- ./inp_files/660.got.cif
#   From: 2010.05.17/outbox.cif.g08.bks.cpg/sg72_1_cif.got.tgz:660.got - 2010.06.03 17:03:01.
