data_PCOD9524729
_publ_section_title
;
Structure prediction by ZEFSAII (Michael W. Deem and Ramdas Pophale) SiO2 
 PCOD9524729
Probable space group: I M M M
;
_chemical_formula_sum "Si O2"
_cell_formula_units_Z 44
_cell_length_a 18.000000
_cell_length_b 30.000000
_cell_length_c 9.000000
_cell_angle_alpha 90.000000
_cell_angle_beta 90.000000
_cell_angle_gamma 90.000000
_cell_volume 4860.000000
_symmetry_space_group_name_H-M "I M M M"
_symmetry_group_IT_number 71
_symmetry_cell_setting 'orthorhombic'
loop_
_space_group_symop_operation_xyz
x,y,z
-x,-y,z
x,-y,-z
-x,y,-z
-x,-y,-z
x,y,-z
-x,y,z
x,-y,z
1/2+x,1/2+y,1/2+z
1/2-x,1/2-y,1/2+z
1/2+x,1/2-y,1/2-z
1/2-x,1/2+y,1/2-z
1/2-x,1/2-y,1/2-z
1/2+x,1/2+y,1/2-z
1/2-x,1/2+y,1/2+z
1/2+x,1/2-y,1/2+z
loop_
_atom_site_type_symbol
_atom_site_label
_atom_site_fract_x
_atom_site_fract_y
_atom_site_fract_z
Si Si1 0.672946 0.194054 0.176847
Si Si2 0.166493 0.205617 0.677344
Si Si3 0.500000 0.946567 0.177095
Si Si4 0.142189 0.600755 0.178795
Si Si5 0.086473 0.113181 0.678118
Si Si6 0.713511 0.446739 0.678493
O O1 0.758725 0.197608 0.229147
O O2 0.639892 0.243626 0.207637
O O3 0.640001 0.151900 0.263723
O O4 0.668510 0.186004 0.000000
O O5 0.184516 0.204238 0.500000
O O6 0.111711 0.164399 0.707735
O O7 0.572264 0.925503 0.253941
O O8 0.500000 0.000000 0.195170
O O9 0.500000 0.937017 0.000000
O O10 0.216442 0.577123 0.242736
O O11 0.142810 0.599611 0.000000
O O12 0.094926 0.106307 0.500000
O O13 0.140608 0.079105 0.762741
O O14 0.000000 0.107093 0.716455
O O15 0.720045 0.441666 0.500000
O O16 0.711625 0.500000 0.711046
#
# Coordination Sequence:
#
# PCOD9524729 Si02
#       6
#    16  16   8  16  16  16
#     4  10  19  33  58  89 120 156 198 244 295 352
#     4   9  18  34  56  86 119 156 199 245 297 354
#     4  11  25  45  67  91 121 157 199 249 306 365
#     4  12  24  40  63  91 124 158 198 246 299 362
#     4  10  21  38  60  87 121 159 202 251 301 357
#     4  11  24  41  62  88 117 153 201 252 303 362
#
# _framework density 9.0534979999999994
#
# number of rings (size 3 to 8) (size 9 to 14) (size 15 to 20)
#    0.000    1.545    1.818    3.545    0.000    5.818 
#    1.636    1.818    0.000    0.000    0.000    0.000 
#    0.000    0.000    0.000    0.000    0.000    0.000 
#
# Total GULP energy -245788.405482 kJ/mol
# GULP energy per Si atom -5586.100125 kJ/mol
# Density = 0.903289 g / cm^3
# Si number density = 9.053498 Si / 1000 Ang^3
#
#
#
# Elastic Constant Matrix: (Units=GPa)
#
#
# Indices 1 2 3 4 5 6 
#
# 1 112.2065 63.7716 54.4168 0.0001 -0.0002 0.0000
# 2 63.7716 159.3362 77.1078 0.0001 0.0001 0.0000
# 3 54.4168 77.1078 114.7783 -0.0033 0.0017 0.0003
# 4 0.0001 0.0001 -0.0033 36.0541 0.0004 0.0001
# 5 -0.0002 0.0001 0.0017 0.0004 28.8336 0.0000
# 6 0.0000 0.0000 0.0003 0.0001 0.0000 28.9028
#
#
#
# Elastic Compliance Matrix: (Units=1/GPa)
#
#
# Indices 1 2 3 4 5 6 
#
# 1 0.012575 -0.003183 -0.003824 0.000000 0.000000 0.000000
# 2 -0.003183 0.010105 -0.005279 -0.000001 0.000000 0.000000
# 3 -0.003824 -0.005279 0.014072 0.000001 -0.000001 0.000000
# 4 0.000000 -0.000001 0.000001 0.027736 0.000000 0.000000
# 5 0.000000 0.000000 -0.000001 0.000000 0.034682 0.000000
# 6 0.000000 0.000000 0.000000 0.000000 0.000000 0.034599
#
#
# Mechanical properties :
#
#
# Convention : Reuss Voigt Hill
#
# Bulk Modulus (GPa) = 82.10021 86.32370 84.21196
# Shear Modulus (GPa) = 30.78799 31.49309 31.14054
#
# Velocity S-wave (km/s) = 4.12799 4.17499 4.15155
# Velocity P-wave (km/s) = 8.25594 8.42724 8.34203
#
# Compressibility (1/GPa) = 0.01218024
#
# Stress axis : x y z
#
# Youngs Moduli (GPa) = 79.51997 98.96399 71.06230
#
# Poissons Ratio (x) = 0.31496 0.27175
# Poissons Ratio (y) = 0.25308 0.37517
# Poissons Ratio (z) = 0.30409 0.52248
#
# Static dielectric constant tensor:
#      x y z
#    x 1.597880 0.000000 0.000000 
#    y 0.000000 1.629310 0.000000 
#    z 0.000000 0.000000 1.604950 
# 
# From -- ./inp_files/8870.got.cif
#   From: 2010.05.17/outbox.ucp.g08.bks.cvg/sg71_5_cif.got.tgz:8870.got - 2010.06.11 16:29:00.
