data_PCOD9524338
_publ_section_title
;
Structure prediction by ZEFSAII (Michael W. Deem and Ramdas Pophale) SiO2 
 PCOD9524338
Probable space group: I M M M
;
_chemical_formula_sum "Si O2"
_cell_formula_units_Z 64
_cell_length_a 28.480910
_cell_length_b 11.520579
_cell_length_c 10.343553
_cell_angle_alpha 90.000000
_cell_angle_beta 90.000000
_cell_angle_gamma 90.000000
_cell_volume 3393.891170
_symmetry_space_group_name_H-M "I M M M"
_symmetry_group_IT_number 71
_symmetry_cell_setting 'orthorhombic'
loop_
_space_group_symop_operation_xyz
x,y,z
-x,-y,z
x,-y,-z
-x,y,-z
-x,-y,-z
x,y,-z
-x,y,z
x,-y,z
1/2+x,1/2+y,1/2+z
1/2-x,1/2-y,1/2+z
1/2+x,1/2-y,1/2-z
1/2-x,1/2+y,1/2-z
1/2-x,1/2-y,1/2-z
1/2+x,1/2+y,1/2-z
1/2-x,1/2+y,1/2+z
1/2+x,1/2-y,1/2+z
loop_
_atom_site_type_symbol
_atom_site_label
_atom_site_fract_x
_atom_site_fract_y
_atom_site_fract_z
Si Si1 0.335654 0.000000 0.000000
Si Si2 0.915338 0.500000 0.282223
Si Si3 0.203152 0.244571 0.500000
Si Si4 0.052562 0.755013 0.654161
Si Si5 0.814118 0.261999 0.000000
Si Si6 0.871706 0.500000 0.000000
Si Si7 0.851511 0.861603 0.744043
O O1 0.305912 0.117311 0.000000
O O2 0.369075 0.000000 0.126388
O O3 0.942159 0.618049 0.316855
O O4 0.901715 0.500000 0.131729
O O5 0.258322 0.221420 0.500000
O O6 0.177958 0.190328 0.624746
O O7 0.058725 0.771488 0.500000
O O8 0.094752 0.820234 0.725244
O O9 0.000000 0.793518 0.689587
O O10 0.830421 0.191838 0.125931
O O11 0.839815 0.385633 0.000000
O O12 0.848808 0.000000 0.743929
#
# Coordination Sequence:
#
# PCOD9524338 Si02
#       7
#     4   8   8  16   8   4  16
#     4  12  20  40  73  90 134 164 217 282 318 368
#     4  12  19  41  62 101 132 166 210 272 326 380
#     4  12  25  44  69  98 127 172 227 271 320 374
#     4  11  22  40  69 100 128 168 216 269 329 384
#     4  12  27  46  65  98 131 180 215 265 330 388
#     4  12  24  40  71  90 136 168 213 272 326 374
#     4  12  25  45  66  96 138 172 218 269 319 388
#
# _framework density 18.857410999999999
#
# number of rings (size 3 to 8) (size 9 to 14) (size 15 to 20)
#    0.000    0.250    7.500    1.875    3.500    1.500 
#    0.000    4.375    0.000    1.500    0.000    0.000 
#    0.000    0.000    0.000    0.000    0.000    0.000 
#
# Total GULP energy -179058.206628 kJ/mol
# GULP energy per Si atom -5595.568957 kJ/mol
# Density = 1.881449 g / cm^3
# Si number density = 18.857411 Si / 1000 Ang^3
#
#
#
# Elastic Constant Matrix: (Units=GPa)
#
#
# Indices 1 2 3 4 5 6 
#
# 1 126.9106 20.3177 41.5078 0.0000 0.0000 0.0000
# 2 20.3177 127.0161 21.7412 0.0000 0.0000 0.0000
# 3 41.5078 21.7412 129.1324 0.0000 0.0000 0.0000
# 4 0.0000 0.0000 0.0000 25.7946 0.0000 0.0000
# 5 0.0000 0.0000 0.0000 0.0000 -1.8074 0.0000
# 6 0.0000 0.0000 0.0000 0.0000 0.0000 1.9794
#
#
#
# Elastic Compliance Matrix: (Units=1/GPa)
#
#
# Indices 1 2 3 4 5 6 
#
# 1 0.008918 -0.000964 -0.002704 0.000000 0.000000 0.000000
# 2 -0.000964 0.008211 -0.001073 0.000000 0.000000 0.000000
# 3 -0.002704 -0.001073 0.008794 0.000000 0.000000 0.000000
# 4 0.000000 0.000000 0.000000 0.038768 0.000000 0.000000
# 5 0.000000 0.000000 0.000000 0.000000 -0.553267 0.000000
# 6 0.000000 0.000000 0.000000 0.000000 0.000000 0.505192
#
#
# Mechanical properties :
#
#
# Convention : Reuss Voigt Hill
#
# Bulk Modulus (GPa) = 60.82161 61.13249 60.97705
# Shear Modulus (GPa) = 158.33730 25.15948 91.74839
#
# Velocity S-wave (km/s) = 9.17321 3.65663 6.98279
# Velocity P-wave (km/s) = 12.02167 7.09342 9.87008
#
# Compressibility (1/GPa) = 0.01644152
#
# Stress axis : x y z
#
# Youngs Moduli (GPa) = 112.12817 121.79122 113.71536
#
# Poissons Ratio (x) = 0.11737 0.30754
# Poissons Ratio (y) = 0.10806 0.12198
# Poissons Ratio (z) = 0.30324 0.13064
#
# Static dielectric constant tensor:
#      x y z
#    x 1.644570 0.000000 0.000000 
#    y 0.000000 1.630980 0.000000 
#    z 0.000000 0.000000 1.624290 
# 
# From -- ./inp_files/16248.got.cif
#   From: 2010.05.17/outbox.cif.g08.bks.cpg/sg71_9_cif.got.tgz:16248.got - 2010.06.03 16:22:01.
