data_PCOD9524374
_publ_section_title
;
Structure prediction by ZEFSAII (Michael W. Deem and Ramdas Pophale) SiO2 
 PCOD9524374
Probable space group: I M M M
;
_chemical_formula_sum "Si O2"
_cell_formula_units_Z 64
_cell_length_a 9.028298
_cell_length_b 11.368100
_cell_length_c 34.986930
_cell_angle_alpha 90.000000
_cell_angle_beta 90.000000
_cell_angle_gamma 90.000000
_cell_volume 3590.869373
_symmetry_space_group_name_H-M "I M M M"
_symmetry_group_IT_number 71
_symmetry_cell_setting 'orthorhombic'
loop_
_space_group_symop_operation_xyz
x,y,z
-x,-y,z
x,-y,-z
-x,y,-z
-x,-y,-z
x,y,-z
-x,y,z
x,-y,z
1/2+x,1/2+y,1/2+z
1/2-x,1/2-y,1/2+z
1/2+x,1/2-y,1/2-z
1/2-x,1/2+y,1/2-z
1/2-x,1/2-y,1/2-z
1/2+x,1/2+y,1/2-z
1/2-x,1/2+y,1/2+z
1/2+x,1/2-y,1/2+z
loop_
_atom_site_type_symbol
_atom_site_label
_atom_site_fract_x
_atom_site_fract_y
_atom_site_fract_z
Si Si1 0.668177 0.860512 0.500000
Si Si2 0.824150 0.000000 0.045796
Si Si3 0.677783 0.135835 0.270121
Si Si4 0.172044 0.362109 0.860692
Si Si5 0.824227 0.260688 0.429163
O O1 0.500000 0.810679 0.500000
O O2 0.753372 0.819230 0.537625
O O3 0.658911 0.000000 0.500000
O O4 0.748219 0.113246 0.063800
O O5 0.000000 0.000000 0.052318
O O6 0.799297 0.000000 0.000000
O O7 0.500000 0.139961 0.264207
O O8 0.750000 0.250000 0.250000
O O9 0.704458 0.148299 0.315669
O O10 0.724996 0.000000 0.259353
O O11 0.184844 0.500000 0.870612
O O12 0.276602 0.288849 0.888151
O O13 0.000000 0.327758 0.866944
O O14 0.000000 0.264925 0.433145
#
# Coordination Sequence:
#
# PCOD9524374 Si02
#       5
#     8   8  16  16  16
#     4  11  23  38  57  80 109 149 191 227 272 337
#     4  11  23  41  63  79 104 152 198 230 276 344
#     4   9  19  37  61  89 120 156 197 241 290 347
#     4   9  19  38  61  83 113 154 196 233 278 341
#     4  12  24  37  57  85 115 143 183 238 292 334
#
# _framework density 17.822982
#
# number of rings (size 3 to 8) (size 9 to 14) (size 15 to 20)
#    0.000    1.750    1.250    5.250    0.000    6.500 
#    2.250    2.500    0.000    0.000    0.000    0.000 
#    0.000    0.000    0.000    0.000    0.000    0.000 
#
# Total GULP energy -178631.134415 kJ/mol
# GULP energy per Si atom -5582.222950 kJ/mol
# Density = 1.778242 g / cm^3
# Si number density = 17.822982 Si / 1000 Ang^3
#
#
#
# Elastic Constant Matrix: (Units=GPa)
#
#
# Indices 1 2 3 4 5 6 
#
# 1 120.4466 70.7878 58.3522 0.0000 0.0000 0.0000
# 2 70.7878 132.9662 61.4951 0.0000 0.0000 0.0000
# 3 58.3522 61.4951 66.3762 0.0000 0.0000 0.0000
# 4 0.0000 0.0000 0.0000 36.7087 0.0000 0.0000
# 5 0.0000 0.0000 0.0000 0.0000 22.8552 0.0000
# 6 0.0000 0.0000 0.0000 0.0000 0.0000 27.6916
#
#
#
# Elastic Compliance Matrix: (Units=1/GPa)
#
#
# Indices 1 2 3 4 5 6 
#
# 1 0.015275 -0.003362 -0.010313 0.000000 0.000000 0.000000
# 2 -0.003362 0.013899 -0.009921 0.000000 0.000000 0.000000
# 3 -0.010313 -0.009921 0.033324 0.000000 0.000000 0.000000
# 4 0.000000 0.000000 0.000000 0.027242 0.000000 0.000000
# 5 0.000000 0.000000 0.000000 0.000000 0.043754 0.000000
# 6 0.000000 0.000000 0.000000 0.000000 0.000000 0.036112
#
#
# Mechanical properties :
#
#
# Convention : Reuss Voigt Hill
#
# Bulk Modulus (GPa) = 65.34135 77.89548 71.61841
# Shear Modulus (GPa) = 22.53261 26.06135 24.29698
#
# Velocity S-wave (km/s) = 3.55948 3.82806 3.69621
# Velocity P-wave (km/s) = 7.32353 7.95856 7.64764
#
# Compressibility (1/GPa) = 0.01530424
#
# Stress axis : x y z
#
# Youngs Moduli (GPa) = 65.46681 71.94709 30.00831
#
# Poissons Ratio (x) = 0.24189 0.30949
# Poissons Ratio (y) = 0.22011 0.29772
# Poissons Ratio (z) = 0.67519 0.71381
#
# Static dielectric constant tensor:
#      x y z
#    x 1.596810 0.000000 0.000000 
#    y 0.000000 1.622260 0.000000 
#    z 0.000000 0.000000 1.587370 
# 
# From -- ./inp_files/16167.got.cif
#   From: 2010.05.17/outbox.cif.g08.bks.cpg/sg71_9_cif.got.tgz:16167.got - 2010.06.03 16:22:01.
