data_PCOD9524942
_publ_section_title
;
Structure prediction by ZEFSAII (Michael W. Deem and Ramdas Pophale) SiO2 
 PCOD9524942
Probable space group: I B A M
;
_chemical_formula_sum "Si O2"
_cell_formula_units_Z 56
_cell_length_a 5.266571
_cell_length_b 13.993500
_cell_length_c 29.926447
_cell_angle_alpha 90.000000
_cell_angle_beta 90.000000
_cell_angle_gamma 90.000000
_cell_volume 2205.512147
_symmetry_space_group_name_H-M "I B A M"
_symmetry_group_IT_number 72
_symmetry_cell_setting 'orthorhombic'
loop_
_space_group_symop_operation_xyz
x,y,z
-x,-y,z
x,-y,1/2-z
-x,y,1/2-z
-x,-y,-z
x,y,-z
-x,y,1/2+z
x,-y,1/2+z
1/2+x,1/2+y,1/2+z
1/2-x,1/2-y,1/2+z
1/2+x,1/2-y,-z
1/2-x,1/2+y,-z
1/2-x,1/2-y,1/2-z
1/2+x,1/2+y,1/2-z
1/2-x,1/2+y,z
1/2+x,1/2-y,z
loop_
_atom_site_type_symbol
_atom_site_label
_atom_site_fract_x
_atom_site_fract_y
_atom_site_fract_z
Si Si1 0.752344 0.357299 0.270114
Si Si2 0.751940 0.066809 0.500000
Si Si3 0.945486 0.614268 0.868192
Si Si4 0.945828 0.114110 0.407671
O O1 0.500000 0.400516 0.250000
O O2 0.750000 0.250000 0.250000
O O3 0.798076 0.361960 0.322692
O O4 0.000000 0.403381 0.250000
O O5 0.794573 0.124270 0.454296
O O6 0.500000 0.000000 0.500000
O O7 0.000000 0.000000 0.500000
O O8 0.737840 0.648280 0.905040
O O9 0.000000 0.500000 0.871390
O O10 0.235975 0.651059 0.872111
O O11 0.000000 0.000000 0.400642
#
# Coordination Sequence:
#
# PCOD9524942 Si02
#       4
#    16   8  16  16
#     4  10  21  37  55  74 101 136 184 232 273 327
#     4  10  16  26  44  68 104 146 178 204 247 312
#     4  10  19  32  49  73 105 137 172 219 270 313
#     4   9  17  28  45  71 104 140 173 208 255 312
#
# _framework density 25.390927000000001
#
# number of rings (size 3 to 8) (size 9 to 14) (size 15 to 20)
#    0.000    2.286    0.000    6.000    0.000    0.571 
#    0.000    1.429    0.000    0.000    0.000    0.000 
#    0.000   91.429    0.000    0.000    0.000    0.000 
#
# Total GULP energy -156089.606932 kJ/mol
# GULP energy per Si atom -5574.628819 kJ/mol
# Density = 2.533314 g / cm^3
# Si number density = 25.390927 Si / 1000 Ang^3
#
#
#
# Elastic Constant Matrix: (Units=GPa)
#
#
# Indices 1 2 3 4 5 6 
#
# 1 277.2289 14.6174 91.1439 0.0000 0.0000 0.0000
# 2 14.6174 120.3236 -2.1444 0.0000 0.0000 0.0000
# 3 91.1439 -2.1444 116.9393 0.0000 0.0000 0.0000
# 4 0.0000 0.0000 0.0000 24.1338 0.0000 0.0000
# 5 0.0000 0.0000 0.0000 0.0000 51.0590 0.0000
# 6 0.0000 0.0000 0.0000 0.0000 0.0000 -98.4746
#
#
#
# Elastic Compliance Matrix: (Units=1/GPa)
#
#
# Indices 1 2 3 4 5 6 
#
# 1 0.004902 -0.000664 -0.003833 0.000000 0.000000 0.000000
# 2 -0.000664 0.008404 0.000672 0.000000 0.000000 0.000000
# 3 -0.003833 0.000672 0.011551 0.000000 0.000000 0.000000
# 4 0.000000 0.000000 0.000000 0.041436 0.000000 0.000000
# 5 0.000000 0.000000 0.000000 0.000000 0.019585 0.000000
# 6 0.000000 0.000000 0.000000 0.000000 0.000000 -0.010155
#
#
# Mechanical properties :
#
#
# Convention : Reuss Voigt Hill
#
# Bulk Modulus (GPa) = 58.11823 80.19171 69.15497
# Shear Modulus (GPa) = 56.11079 22.73531 39.42305
#
# Velocity S-wave (km/s) = 4.70603 2.99559 3.94463
# Velocity P-wave (km/s) = 7.24348 6.60425 6.93124
#
# Compressibility (1/GPa) = 0.01720631
#
# Stress axis : x y z
#
# Youngs Moduli (GPa) = 203.98454 118.99748 86.57011
#
# Poissons Ratio (x) = 0.07900 0.33183
# Poissons Ratio (y) = 0.13542 -0.05813
# Poissons Ratio (z) = 0.78190 -0.07991
#
# Static dielectric constant tensor:
#      x y z
#    x 2.172700 0.000000 0.000000 
#    y 0.000000 2.173270 0.000000 
#    z 0.000000 0.000000 2.155250 
# 
# From -- ./inp_files/46515.got.cif
#   From: 2010.05.17/outbox.cif.g08.bks.cpg/sg72_24_cif.got.tgz:46515.got - 2010.06.03 17:03:01.
