data_PCOD9524960
_publ_section_title
;
Structure prediction by ZEFSAII (Michael W. Deem and Ramdas Pophale) SiO2 
 PCOD9524960
Probable space group: I B A M
;
_chemical_formula_sum "Si O2"
_cell_formula_units_Z 112
_cell_length_a 14.725304
_cell_length_b 26.295607
_cell_length_c 15.206830
_cell_angle_alpha 90.000000
_cell_angle_beta 90.000000
_cell_angle_gamma 90.000000
_cell_volume 5888.248915
_symmetry_space_group_name_H-M "I B A M"
_symmetry_group_IT_number 72
_symmetry_cell_setting 'orthorhombic'
loop_
_space_group_symop_operation_xyz
x,y,z
-x,-y,z
x,-y,1/2-z
-x,y,1/2-z
-x,-y,-z
x,y,-z
-x,y,1/2+z
x,-y,1/2+z
1/2+x,1/2+y,1/2+z
1/2-x,1/2-y,1/2+z
1/2+x,1/2-y,-z
1/2-x,1/2+y,-z
1/2-x,1/2-y,1/2-z
1/2+x,1/2+y,1/2-z
1/2-x,1/2+y,z
1/2+x,1/2-y,z
loop_
_atom_site_type_symbol
_atom_site_label
_atom_site_fract_x
_atom_site_fract_y
_atom_site_fract_z
Si Si1 0.491774 0.328634 0.397561
Si Si2 0.808111 0.893043 0.102584
Si Si3 0.007820 0.714835 0.651738
Si Si4 0.712213 0.802366 0.396320
Si Si5 0.304301 0.801672 0.397559
Si Si6 0.106702 0.002689 0.107948
Si Si7 0.835041 0.107167 0.107243
O O1 0.510818 0.315487 0.500000
O O2 0.398607 0.358873 0.395314
O O3 0.487080 0.275921 0.348192
O O4 0.572070 0.364744 0.366225
O O5 0.732646 0.854820 0.141343
O O6 0.839558 0.947363 0.139782
O O7 0.783399 0.903192 0.000000
O O8 0.912727 0.701523 0.606410
O O9 0.000000 0.694799 0.750000
O O10 0.104071 0.697940 0.613196
O O11 0.734161 0.801558 0.500000
O O12 0.758611 0.750243 0.360027
O O13 0.756520 0.854544 0.362054
O O14 0.275586 0.802792 0.500000
O O15 0.157689 0.951127 0.135285
O O16 0.104510 0.005085 0.000000
O O17 0.000000 0.000000 0.134249
O O18 0.833277 0.105118 0.000000
#
# Coordination Sequence:
#
# PCOD9524960 Si02
#       7
#    16  16  16  16  16  16  16
#     4  10  16  29  50  74 103 135 168 193 235 302
#     4   9  16  26  46  75 105 134 160 196 242 295
#     4  12  24  34  47  72 104 134 167 211 256 292
#     4  10  19  33  53  73  98 133 171 204 243 299
#     4  10  19  33  53  73  98 133 171 204 243 299
#     4   9  14  22  42  77 112 129 149 194 252 297
#     4   9  16  26  46  75 105 134 160 196 242 295
#
# _framework density 19.020935000000001
#
# number of rings (size 3 to 8) (size 9 to 14) (size 15 to 20)
#    0.000    2.143    4.286    1.286    0.000    0.571 
#    0.000    0.000    0.000    0.857    0.000   11.000 
#    0.000    0.000    0.000    0.000    0.000    0.000 
#
# Total GULP energy -312194.361730 kJ/mol
# GULP energy per Si atom -5574.899317 kJ/mol
# Density = 1.897764 g / cm^3
# Si number density = 19.020935 Si / 1000 Ang^3
#
#
#
# Elastic Constant Matrix: (Units=GPa)
#
#
# Indices 1 2 3 4 5 6 
#
# 1 106.7081 60.8683 -8.9425 0.0000 0.0001 0.0000
# 2 60.8683 126.1251 0.0659 -0.0003 0.0020 -0.0001
# 3 -8.9425 0.0659 27.8431 -0.0001 0.0012 0.0000
# 4 0.0000 -0.0003 -0.0001 -19.7090 0.0023 0.0000
# 5 0.0001 0.0020 0.0012 0.0023 -360.7535 -0.0001
# 6 0.0000 -0.0001 0.0000 0.0000 -0.0001 32.6047
#
#
#
# Elastic Compliance Matrix: (Units=1/GPa)
#
#
# Indices 1 2 3 4 5 6 
#
# 1 0.013434 -0.006485 0.004330 0.000000 0.000000 0.000000
# 2 -0.006485 0.011060 -0.002109 0.000000 0.000000 0.000000
# 3 0.004330 -0.002109 0.037311 0.000000 0.000000 0.000000
# 4 0.000000 0.000000 0.000000 -0.050738 0.000000 0.000000
# 5 0.000000 0.000000 0.000000 0.000000 -0.002772 0.000000
# 6 0.000000 0.000000 0.000000 0.000000 0.000000 0.030670
#
#
# Mechanical properties :
#
#
# Convention : Reuss Voigt Hill
#
# Bulk Modulus (GPa) = 18.77043 40.51774 29.64408
# Shear Modulus (GPa) = 76.62567 -55.65926 10.48321
#
# Velocity S-wave (km/s) = 6.35393 -5.41531 2.35019
# Velocity P-wave (km/s) = 7.98245 4.21342 4.79409
#
# Compressibility (1/GPa) = 0.05327530
#
# Stress axis : x y z
#
# Youngs Moduli (GPa) = 74.44028 90.41929 26.80156
#
# Poissons Ratio (x) = 0.58640 -0.11605
# Poissons Ratio (y) = 0.48277 0.05653
# Poissons Ratio (z) = -0.32232 0.19070
#
# Static dielectric constant tensor:
#      x y z
#    x 1.636870 0.000000 0.000000 
#    y 0.000000 1.674070 0.000000 
#    z 0.000000 0.000000 1.704170 
# 
# From -- ./inp_files/37423.got.cif
#   From: 2010.05.17/outbox.cif.g08.bks.cpg/sg72_19_cif.got.tgz:37423.got - 2010.06.03 17:03:01.
