data_PCOD9524288
_publ_section_title
;
Structure prediction by ZEFSAII (Michael W. Deem and Ramdas Pophale) SiO2 
 PCOD9524288
Probable space group: I M M M
;
_chemical_formula_sum "Si O2"
_cell_formula_units_Z 104
_cell_length_a 29.365805
_cell_length_b 8.478808
_cell_length_c 20.486732
_cell_angle_alpha 90.000000
_cell_angle_beta 90.000000
_cell_angle_gamma 90.000000
_cell_volume 5100.930399
_symmetry_space_group_name_H-M "I M M M"
_symmetry_group_IT_number 71
_symmetry_cell_setting 'orthorhombic'
loop_
_space_group_symop_operation_xyz
x,y,z
-x,-y,z
x,-y,-z
-x,y,-z
-x,-y,-z
x,y,-z
-x,y,z
x,-y,z
1/2+x,1/2+y,1/2+z
1/2-x,1/2-y,1/2+z
1/2+x,1/2-y,1/2-z
1/2-x,1/2+y,1/2-z
1/2-x,1/2-y,1/2-z
1/2+x,1/2+y,1/2-z
1/2-x,1/2+y,1/2+z
1/2+x,1/2-y,1/2+z
loop_
_atom_site_type_symbol
_atom_site_label
_atom_site_fract_x
_atom_site_fract_y
_atom_site_fract_z
Si Si1 0.419433 0.686805 0.168386
Si Si2 0.500000 0.307574 0.925992
Si Si3 0.260114 0.309133 0.569857
Si Si4 0.606942 0.814168 0.299772
Si Si5 0.207261 0.189510 0.792362
Si Si6 0.446852 0.690470 0.425188
Si Si7 0.152615 0.310752 0.572978
O O1 0.423759 0.500000 0.178515
O O2 0.456548 0.741210 0.115755
O O3 0.424323 0.769294 0.237954
O O4 0.372537 0.725820 0.131541
O O5 0.500000 0.500000 0.928581
O O6 0.500000 0.249237 0.000000
O O7 0.277001 0.249367 0.500000
O O8 0.264566 0.500000 0.569337
O O9 0.284521 0.250940 0.633850
O O10 0.206378 0.277205 0.575167
O O11 0.656003 0.743534 0.278707
O O12 0.585935 0.749843 0.367461
O O13 0.611578 0.000000 0.305256
O O14 0.250000 0.250000 0.750000
O O15 0.208727 0.000000 0.789978
O O16 0.434834 0.739431 0.500000
O O17 0.500000 0.737006 0.413734
O O18 0.445322 0.500000 0.424089
O O19 0.136140 0.264193 0.500000
O O20 0.147008 0.500000 0.579203
#
# Coordination Sequence:
#
# PCOD9524288 Si02
#       7
#    16   8  16  16  16  16  16
#     4  11  22  37  58  83 112 152 201 251 298 352
#     4   9  20  38  59  85 116 149 186 237 299 352
#     4   8  16  32  55  81 108 143 187 234 286 345
#     4  12  26  41  59  88 126 165 207 255 310 372
#     4  11  22  38  61  88 121 162 207 257 312 369
#     4   9  20  42  71  98 124 157 202 258 321 390
#     4   9  17  32  55  83 116 152 190 238 299 362
#
# _framework density 20.388438000000001
#
# number of rings (size 3 to 8) (size 9 to 14) (size 15 to 20)
#    0.000    2.077    0.000    5.077    1.077    3.385 
#    0.000    4.231    0.000    6.000    0.000    0.000 
#    0.000    0.000    0.000    0.000    0.000    0.000 
#
# Total GULP energy -290206.349365 kJ/mol
# GULP energy per Si atom -5580.891334 kJ/mol
# Density = 2.034203 g / cm^3
# Si number density = 20.388438 Si / 1000 Ang^3
#
#
#
# Elastic Constant Matrix: (Units=GPa)
#
#
# Indices 1 2 3 4 5 6 
#
# 1 63.4916 21.4944 59.3698 0.0000 0.0000 0.0000
# 2 21.4944 50.9216 30.6975 0.0000 0.0000 0.0000
# 3 59.3698 30.6975 163.7840 0.0000 0.0000 0.0000
# 4 0.0000 0.0000 0.0000 29.4814 0.0000 0.0000
# 5 0.0000 0.0000 0.0000 0.0000 37.3435 0.0000
# 6 0.0000 0.0000 0.0000 0.0000 0.0000 17.9968
#
#
#
# Elastic Compliance Matrix: (Units=1/GPa)
#
#
# Indices 1 2 3 4 5 6 
#
# 1 0.025258 -0.005797 -0.008069 0.000000 0.000000 0.000000
# 2 -0.005797 0.023470 -0.002298 0.000000 0.000000 0.000000
# 3 -0.008069 -0.002298 0.009461 0.000000 0.000000 0.000000
# 4 0.000000 0.000000 0.000000 0.033920 0.000000 0.000000
# 5 0.000000 0.000000 0.000000 0.000000 0.026778 0.000000
# 6 0.000000 0.000000 0.000000 0.000000 0.000000 0.055566
#
#
# Mechanical properties :
#
#
# Convention : Reuss Voigt Hill
#
# Bulk Modulus (GPa) = 38.66742 55.70227 47.18484
# Shear Modulus (GPa) = 23.21248 28.07337 25.64292
#
# Velocity S-wave (km/s) = 3.37784 3.71472 3.55028
# Velocity P-wave (km/s) = 5.84976 6.76600 6.32449
#
# Compressibility (1/GPa) = 0.02586156
#
# Stress axis : x y z
#
# Youngs Moduli (GPa) = 39.59132 42.60737 105.69480
#
# Poissons Ratio (x) = 0.24700 0.85287
# Poissons Ratio (y) = 0.22952 0.24283
# Poissons Ratio (z) = 0.31947 0.09789
#
# Static dielectric constant tensor:
#      x y z
#    x 1.604690 0.000000 0.000000 
#    y 0.000000 1.698730 0.000000 
#    z 0.000000 0.000000 1.753160 
# 
# From -- ./inp_files/56227.got.cif
#   From: 2010.05.17/outbox.cif.g08.bks.cpg/sg71_29_cif.got.tgz:56227.got - 2010.06.03 16:22:01.
