data_PCOD9524882
_publ_section_title
;
Structure prediction by ZEFSAII (Michael W. Deem and Ramdas Pophale) SiO2 
 PCOD9524882
Probable space group: I M M M
;
_chemical_formula_sum "Si O2"
_cell_formula_units_Z 56
_cell_length_a 24.000000
_cell_length_b 15.000000
_cell_length_c 15.000000
_cell_angle_alpha 90.000000
_cell_angle_beta 90.000000
_cell_angle_gamma 90.000000
_cell_volume 5400.000000
_symmetry_space_group_name_H-M "I M M M"
_symmetry_group_IT_number 71
_symmetry_cell_setting 'orthorhombic'
loop_
_space_group_symop_operation_xyz
x,y,z
-x,-y,z
x,-y,-z
-x,y,-z
-x,-y,-z
x,y,-z
-x,y,z
x,-y,z
1/2+x,1/2+y,1/2+z
1/2-x,1/2-y,1/2+z
1/2+x,1/2-y,1/2-z
1/2-x,1/2+y,1/2-z
1/2-x,1/2-y,1/2-z
1/2+x,1/2+y,1/2-z
1/2-x,1/2+y,1/2+z
1/2+x,1/2-y,1/2+z
loop_
_atom_site_type_symbol
_atom_site_label
_atom_site_fract_x
_atom_site_fract_y
_atom_site_fract_z
Si Si1 0.368801 0.895720 0.102301
Si Si2 0.564585 0.770420 0.402854
Si Si3 0.884524 0.897309 0.605540
Si Si4 0.170027 0.604847 0.898815
Si Si5 0.437406 0.752560 0.207292
Si Si6 0.234984 0.106397 0.095517
Si Si7 0.224766 0.109002 0.289071
O O1 0.396566 0.829570 0.172279
O O2 0.301928 0.885653 0.102045
O O3 0.380527 0.000000 0.121461
O O4 0.387485 0.876526 0.000000
O O5 0.572652 0.725118 0.500000
O O6 0.500000 0.802027 0.402679
O O7 0.610823 0.847075 0.396742
O O8 0.572195 0.720788 0.309128
O O9 0.881752 0.892398 0.500000
O O10 0.929955 0.831648 0.644118
O O11 0.825602 0.866869 0.646599
O O12 0.893862 0.000000 0.631573
O O13 0.161770 0.500000 0.882219
O O14 0.216283 0.638560 0.829583
O O15 0.192749 0.614269 0.000000
O O16 0.500000 0.788259 0.201655
O O17 0.212948 0.141710 0.189105
O O18 0.223033 0.000000 0.092972
O O19 0.216484 0.145217 0.000000
O O20 0.227419 0.000000 0.286798
#
# Coordination Sequence:
#
# PCOD9524882 Si02
#       7
#    16  16  16  16  16  16  16
#     4   9  18  33  53  80 116 152 182 216 262 316
#     4   9  19  35  52  73 107 147 181 219 266 311
#     4  10  22  40  60  82 108 136 170 220 281 333
#     4   9  16  27  48  78 109 144 186 224 259 308
#     4  11  23  38  58  81 105 139 183 226 271 327
#     4   8  14  26  46  73 108 149 183 210 248 303
#     4   9  16  29  51  76 104 138 175 219 271 320
#
# _framework density 10.370369999999999
#
# number of rings (size 3 to 8) (size 9 to 14) (size 15 to 20)
#    0.000    2.714    0.000    2.571    0.000    5.429 
#    0.000    7.857    0.000    4.714    0.000    2.000 
#    0.000    0.000    0.000    0.000    0.000    0.000 
#
# Total GULP energy -312313.131720 kJ/mol
# GULP energy per Si atom -5577.020209 kJ/mol
# Density = 1.034677 g / cm^3
# Si number density = 10.370370 Si / 1000 Ang^3
#
#
#
# Elastic Constant Matrix: (Units=GPa)
#
#
# Indices 1 2 3 4 5 6 
#
# 1 22.8868 2.9057 3.9074 0.0000 0.0000 0.0000
# 2 2.9057 34.5366 19.9575 0.0000 0.0000 0.0000
# 3 3.9074 19.9575 91.6895 0.0000 0.0000 0.0000
# 4 0.0000 0.0000 0.0000 15.1874 0.0000 0.0000
# 5 0.0000 0.0000 0.0000 0.0000 -0.9400 0.0000
# 6 0.0000 0.0000 0.0000 0.0000 0.0000 18.5231
#
#
#
# Elastic Compliance Matrix: (Units=1/GPa)
#
#
# Indices 1 2 3 4 5 6 
#
# 1 0.044286 -0.003015 -0.001231 0.000000 0.000000 0.000000
# 2 -0.003015 0.033326 -0.007125 0.000000 0.000000 0.000000
# 3 -0.001231 -0.007125 0.012510 0.000000 0.000000 0.000000
# 4 0.000000 0.000000 0.000000 0.065844 0.000000 0.000000
# 5 0.000000 0.000000 0.000000 0.000000 -1.063884 0.000000
# 6 0.000000 0.000000 0.000000 0.000000 0.000000 0.053987
#
#
# Mechanical properties :
#
#
# Convention : Reuss Voigt Hill
#
# Bulk Modulus (GPa) = 14.84124 22.51712 18.67918
# Shear Modulus (GPa) = -6.18254 14.71026 4.26386
#
# Velocity S-wave (km/s) = -1.72839 2.66605 1.43536
# Velocity P-wave (km/s) = 1.78550 4.51189 3.43112
#
# Compressibility (1/GPa) = 0.06737981
#
# Stress axis : x y z
#
# Youngs Moduli (GPa) = 22.58036 30.00668 79.93749
#
# Poissons Ratio (x) = 0.09046 0.09841
# Poissons Ratio (y) = 0.06807 0.56959
# Poissons Ratio (z) = 0.02780 0.21381
#
# Static dielectric constant tensor:
#      x y z
#    x 1.730690 0.000000 0.000000 
#    y 0.000000 1.728800 0.000000 
#    z 0.000000 0.000000 1.807780 
# 
# From -- ./inp_files/34899.got.cif
#   From: 2010.05.17/outbox.ucp.g08.bks.cvg/sg71_18_cif.got.tgz:34899.got - 2010.06.11 16:29:00.
