data_PCOD9524409
_publ_section_title
;
Structure prediction by ZEFSAII (Michael W. Deem and Ramdas Pophale) SiO2 
 PCOD9524409
Probable space group: I M M M
;
_chemical_formula_sum "Si O2"
_cell_formula_units_Z 52
_cell_length_a 7.439107
_cell_length_b 10.704684
_cell_length_c 30.139916
_cell_angle_alpha 90.000000
_cell_angle_beta 90.000000
_cell_angle_gamma 90.000000
_cell_volume 2400.140662
_symmetry_space_group_name_H-M "I M M M"
_symmetry_group_IT_number 71
_symmetry_cell_setting 'orthorhombic'
loop_
_space_group_symop_operation_xyz
x,y,z
-x,-y,z
x,-y,-z
-x,y,-z
-x,-y,-z
x,y,-z
-x,y,z
x,-y,z
1/2+x,1/2+y,1/2+z
1/2-x,1/2-y,1/2+z
1/2+x,1/2-y,1/2-z
1/2-x,1/2+y,1/2-z
1/2-x,1/2-y,1/2-z
1/2+x,1/2+y,1/2-z
1/2-x,1/2+y,1/2+z
1/2+x,1/2-y,1/2+z
loop_
_atom_site_type_symbol
_atom_site_label
_atom_site_fract_x
_atom_site_fract_y
_atom_site_fract_z
Si Si1 0.718562 0.857511 0.949774
Si Si2 0.793668 0.209856 0.635593
Si Si3 0.286479 0.636479 0.716820
Si Si4 0.000000 0.500000 0.842343
O O1 0.500000 0.858835 0.949281
O O2 0.771486 0.760319 0.912078
O O3 0.776875 0.000000 0.940287
O O4 0.774474 0.825715 0.000000
O O5 0.792993 0.326110 0.669518
O O6 0.000000 0.164352 0.632145
O O7 0.657804 0.108616 0.654604
O O8 0.500000 0.629472 0.712155
O O9 0.220732 0.500000 0.732536
O O10 0.250000 0.750000 0.750000
#
# Coordination Sequence:
#
# PCOD9524409 Si02
#       4
#    16  16  16   4
#     4   8  15  32  62  96 127 163 213 272 332 396
#     4  11  23  42  67  93 127 174 220 270 334 390
#     4  11  25  43  66  98 135 174 217 268 323 387
#     4  12  26  44  63  90 132 176 218 284 319 400
#
# _framework density 21.665396000000001
#
# number of rings (size 3 to 8) (size 9 to 14) (size 15 to 20)
#    0.000    1.846    1.538    3.231    2.154    3.692 
#    0.000    2.308    0.000    5.538    0.000    0.000 
#    0.000    0.000    0.000    0.000    0.000    0.000 
#
# Total GULP energy -144781.312157 kJ/mol
# GULP energy per Si atom -5568.512006 kJ/mol
# Density = 2.161608 g / cm^3
# Si number density = 21.665396 Si / 1000 Ang^3
#
#
#
# Elastic Constant Matrix: (Units=GPa)
#
#
# Indices 1 2 3 4 5 6 
#
# 1 119.9004 25.3525 -0.1346 0.0000 0.0000 0.0000
# 2 25.3525 133.9146 36.7724 0.0000 0.0000 0.0000
# 3 -0.1346 36.7724 77.7748 0.0000 0.0000 0.0000
# 4 0.0000 0.0000 0.0000 3.2084 0.0000 0.0000
# 5 0.0000 0.0000 0.0000 0.0000 5.9368 0.0000
# 6 0.0000 0.0000 0.0000 0.0000 0.0000 59.8352
#
#
#
# Elastic Compliance Matrix: (Units=1/GPa)
#
#
# Indices 1 2 3 4 5 6 
#
# 1 0.008745 -0.001907 0.000917 0.000000 0.000000 0.000000
# 2 -0.001907 0.008998 -0.004257 0.000000 0.000000 0.000000
# 3 0.000917 -0.004257 0.014872 0.000000 0.000000 0.000000
# 4 0.000000 0.000000 0.000000 0.311685 0.000000 0.000000
# 5 0.000000 0.000000 0.000000 0.000000 0.168441 0.000000
# 6 0.000000 0.000000 0.000000 0.000000 0.000000 0.016713
#
#
# Mechanical properties :
#
#
# Convention : Reuss Voigt Hill
#
# Bulk Modulus (GPa) = 45.21055 50.61894 47.91475
# Shear Modulus (GPa) = 9.13541 31.76938 20.45239
#
# Velocity S-wave (km/s) = 2.05566 3.83347 3.07581
# Velocity P-wave (km/s) = 5.15240 6.55810 5.89728
#
# Compressibility (1/GPa) = 0.02211873
#
# Stress axis : x y z
#
# Youngs Moduli (GPa) = 114.35667 111.14077 67.23977
#
# Poissons Ratio (x) = 0.21198 -0.06165
# Poissons Ratio (y) = 0.21811 0.28627
# Poissons Ratio (z) = -0.10486 0.47317
#
# Static dielectric constant tensor:
#      x y z
#    x 1.823260 0.000000 0.000000 
#    y 0.000000 1.781320 0.000000 
#    z 0.000000 0.000000 1.799920 
# 
# From -- ./inp_files/28156.got.cif
#   From: 2010.05.17/outbox.cif.g08.bks.cpg/sg71_15_cif.got.tgz:28156.got - 2010.06.03 16:22:01.
