data_PCOD9524237
_publ_section_title
;
Structure prediction by ZEFSAII (Michael W. Deem and Ramdas Pophale) SiO2 
 PCOD9524237
Probable space group: I M M M
;
_chemical_formula_sum "Si O2"
_cell_formula_units_Z 112
_cell_length_a 14.180356
_cell_length_b 17.806001
_cell_length_c 24.640025
_cell_angle_alpha 90.000000
_cell_angle_beta 90.000000
_cell_angle_gamma 90.000000
_cell_volume 6221.493784
_symmetry_space_group_name_H-M "I M M M"
_symmetry_group_IT_number 71
_symmetry_cell_setting 'orthorhombic'
loop_
_space_group_symop_operation_xyz
x,y,z
-x,-y,z
x,-y,-z
-x,y,-z
-x,-y,-z
x,y,-z
-x,y,z
x,-y,z
1/2+x,1/2+y,1/2+z
1/2-x,1/2-y,1/2+z
1/2+x,1/2-y,1/2-z
1/2-x,1/2+y,1/2-z
1/2-x,1/2-y,1/2-z
1/2+x,1/2+y,1/2-z
1/2-x,1/2+y,1/2+z
1/2+x,1/2-y,1/2+z
loop_
_atom_site_type_symbol
_atom_site_label
_atom_site_fract_x
_atom_site_fract_y
_atom_site_fract_z
Si Si1 0.793173 0.913091 0.739483
Si Si2 0.887790 0.817998 0.169117
Si Si3 0.389449 0.714100 0.169552
Si Si4 0.610162 0.829941 0.743666
Si Si5 0.106437 0.144224 0.562125
Si Si6 0.386221 0.239419 0.562846
Si Si7 0.304860 0.920108 0.435222
O O1 0.833404 0.880696 0.796456
O O2 0.839033 0.858012 0.694926
O O3 0.681880 0.897078 0.734733
O O4 0.815991 0.000000 0.732139
O O5 0.876579 0.738339 0.200875
O O6 0.857562 0.801349 0.107264
O O7 0.000000 0.835078 0.170003
O O8 0.500000 0.706033 0.182965
O O9 0.360154 0.789521 0.199740
O O10 0.378956 0.710359 0.105266
O O11 0.500000 0.850342 0.744115
O O12 0.112912 0.169628 0.500000
O O13 0.192128 0.087353 0.570907
O O14 0.000000 0.113916 0.570598
O O15 0.355205 0.250874 0.500000
O O16 0.500000 0.237295 0.562733
O O17 0.350486 0.157785 0.583049
O O18 0.324370 0.921806 0.500000
O O19 0.337438 0.000000 0.411836
#
# Coordination Sequence:
#
# PCOD9524237 Si02
#       7
#    16  16  16  16  16  16  16
#     4  11  22  33  52  77 100 129 162 206 256 297
#     4   9  18  34  55  75  99 130 164 206 249 291
#     4   9  18  33  53  74  98 130 167 207 244 288
#     4   9  19  35  53  72  97 132 167 200 245 295
#     4   9  18  31  47  70 100 132 165 200 240 284
#     4   9  18  32  51  74  98 130 170 205 241 290
#     4   9  18  29  42  64  95 133 170 202 239 282
#
# _framework density 18.002106999999999
#
# number of rings (size 3 to 8) (size 9 to 14) (size 15 to 20)
#    0.000    2.714    0.000    3.000    4.000    2.571 
#    0.000    4.286    0.000    3.000    0.000    2.000 
#    0.000    0.000    0.000    6.857    0.000    0.000 
#
# Total GULP energy -312056.115000 kJ/mol
# GULP energy per Si atom -5572.430625 kJ/mol
# Density = 1.796113 g / cm^3
# Si number density = 18.002107 Si / 1000 Ang^3
#
#
#
# Elastic Constant Matrix: (Units=GPa)
#
#
# Indices 1 2 3 4 5 6 
#
# 1 37.9176 7.9622 1.3645 0.0000 0.0000 0.0000
# 2 7.9622 19.0408 -2.1442 0.0000 0.0000 0.0000
# 3 1.3645 -2.1442 56.8507 0.0000 0.0000 0.0000
# 4 0.0000 0.0000 0.0000 9.4031 0.0000 0.0000
# 5 0.0000 0.0000 0.0000 0.0000 13.0932 0.0000
# 6 0.0000 0.0000 0.0000 0.0000 0.0000 5.0612
#
#
#
# Elastic Compliance Matrix: (Units=1/GPa)
#
#
# Indices 1 2 3 4 5 6 
#
# 1 0.028987 -0.012252 -0.001158 0.000000 0.000000 0.000000
# 2 -0.012252 0.057921 0.002479 0.000000 0.000000 0.000000
# 3 -0.001158 0.002479 0.017711 0.000000 0.000000 0.000000
# 4 0.000000 0.000000 0.000000 0.106348 0.000000 0.000000
# 5 0.000000 0.000000 0.000000 0.000000 0.076375 0.000000
# 6 0.000000 0.000000 0.000000 0.000000 0.000000 0.197583
#
#
# Mechanical properties :
#
#
# Convention : Reuss Voigt Hill
#
# Bulk Modulus (GPa) = 12.08349 14.24158 13.16254
# Shear Modulus (GPa) = 9.35675 12.61995 10.98835
#
# Velocity S-wave (km/s) = 2.28229 2.65056 2.47329
# Velocity P-wave (km/s) = 3.69757 4.15879 3.93494
#
# Compressibility (1/GPa) = 0.08275754
#
# Stress axis : x y z
#
# Youngs Moduli (GPa) = 34.49776 17.26483 56.46143
#
# Poissons Ratio (x) = 0.21153 0.06537
# Poissons Ratio (y) = 0.42266 -0.13995
# Poissons Ratio (z) = 0.03994 -0.04279
#
# Static dielectric constant tensor:
#      x y z
#    x 1.663180 0.000000 0.000000 
#    y 0.000000 1.595430 0.000000 
#    z 0.000000 0.000000 1.677990 
# 
# From -- ./inp_files/65525.got.cif
#   From: 2010.05.17/outbox.cif.g08.bks.cpg/sg71_33_cif.got.tgz:65525.got - 2010.06.03 16:22:01.
