data_PCOD9524672
_publ_section_title
;
Structure prediction by ZEFSAII (Michael W. Deem and Ramdas Pophale) SiO2 
 PCOD9524672
Probable space group: I M M M
;
_chemical_formula_sum "Si O2"
_cell_formula_units_Z 52
_cell_length_a 24.000000
_cell_length_b 9.000000
_cell_length_c 27.000000
_cell_angle_alpha 90.000000
_cell_angle_beta 90.000000
_cell_angle_gamma 90.000000
_cell_volume 5832.000000
_symmetry_space_group_name_H-M "I M M M"
_symmetry_group_IT_number 71
_symmetry_cell_setting 'orthorhombic'
loop_
_space_group_symop_operation_xyz
x,y,z
-x,-y,z
x,-y,-z
-x,y,-z
-x,-y,-z
x,y,-z
-x,y,z
x,-y,z
1/2+x,1/2+y,1/2+z
1/2-x,1/2-y,1/2+z
1/2+x,1/2-y,1/2-z
1/2-x,1/2+y,1/2-z
1/2-x,1/2-y,1/2-z
1/2+x,1/2+y,1/2-z
1/2-x,1/2+y,1/2+z
1/2+x,1/2-y,1/2+z
loop_
_atom_site_type_symbol
_atom_site_label
_atom_site_fract_x
_atom_site_fract_y
_atom_site_fract_z
Si Si1 0.739955 0.670423 0.199742
Si Si2 0.161653 0.679097 0.871175
Si Si3 0.066723 0.823830 0.500000
Si Si4 0.565866 0.679513 0.696714
Si Si5 0.871439 0.322183 0.407126
Si Si6 0.755721 0.177008 0.441176
Si Si7 0.607281 0.672446 0.807824
O O1 0.755308 0.500000 0.204730
O O2 0.750000 0.750000 0.250000
O O3 0.785215 0.729654 0.161653
O O4 0.674429 0.676095 0.191392
O O5 0.153152 0.500000 0.869958
O O6 0.107167 0.751497 0.845209
O O7 0.191896 0.714162 0.924025
O O8 0.094088 0.747496 0.452320
O O9 0.000000 0.807056 0.500000
O O10 0.080018 0.000000 0.500000
O O11 0.500000 0.717674 0.690346
O O12 0.570840 0.500000 0.693944
O O13 0.585345 0.720867 0.753281
O O14 0.869311 0.500000 0.408948
O O15 0.807665 0.260228 0.414584
O O16 0.902909 0.270122 0.356657
O O17 0.761486 0.198956 0.500000
O O18 0.762904 0.000000 0.429692
O O19 0.589211 0.500000 0.814814
#
# Coordination Sequence:
#
# PCOD9524672 Si02
#       7
#    16  16   8  16  16  16  16
#     4  10  18  29  49  78 109 140 180 224 272 331
#     4  10  20  34  55  85 113 145 189 235 290 349
#     4  11  25  45  65  79 103 155 208 241 280 337
#     4  10  22  39  58  81 111 152 198 239 284 348
#     4  12  24  36  57  90 122 149 187 242 295 338
#     4  10  20  37  61  86 117 154 190 232 289 356
#     4  10  20  36  55  78 113 154 193 230 275 340
#
# _framework density 8.9163239999999995
#
# number of rings (size 3 to 8) (size 9 to 14) (size 15 to 20)
#    0.000    1.615    3.846    1.615    0.000    3.385 
#    0.000    1.538    0.000    0.462    0.000    3.231 
#    0.000    0.000    0.000    0.000    0.000    0.000 
#
# Total GULP energy -289483.561941 kJ/mol
# GULP energy per Si atom -5566.991576 kJ/mol
# Density = 0.889603 g / cm^3
# Si number density = 8.916324 Si / 1000 Ang^3
#
#
#
# Elastic Constant Matrix: (Units=GPa)
#
#
# Indices 1 2 3 4 5 6 
#
# 1 101.2882 43.1805 31.2805 0.0000 0.0000 0.0000
# 2 43.1805 36.4820 34.3783 0.0000 0.0000 0.0000
# 3 31.2805 34.3783 72.8712 0.0000 0.0000 0.0000
# 4 0.0000 0.0000 0.0000 20.6316 0.0000 0.0000
# 5 0.0000 0.0000 0.0000 0.0000 22.7845 0.0000
# 6 0.0000 0.0000 0.0000 0.0000 0.0000 26.1633
#
#
#
# Elastic Compliance Matrix: (Units=1/GPa)
#
#
# Indices 1 2 3 4 5 6 
#
# 1 0.020837 -0.029228 0.004844 0.000000 0.000000 0.000000
# 2 -0.029228 0.090347 -0.030077 0.000000 0.000000 0.000000
# 3 0.004844 -0.030077 0.025833 0.000000 0.000000 0.000000
# 4 0.000000 0.000000 0.000000 0.048469 0.000000 0.000000
# 5 0.000000 0.000000 0.000000 0.000000 0.043890 0.000000
# 6 0.000000 0.000000 0.000000 0.000000 0.000000 0.038222
#
#
# Mechanical properties :
#
#
# Convention : Reuss Voigt Hill
#
# Bulk Modulus (GPa) = 35.59155 47.59111 41.59133
# Shear Modulus (GPa) = 12.95727 20.70267 16.82997
#
# Velocity S-wave (km/s) = 2.69848 3.41096 3.07542
# Velocity P-wave (km/s) = 5.45079 6.50065 5.99873
#
# Compressibility (1/GPa) = 0.02809656
#
# Stress axis : x y z
#
# Youngs Moduli (GPa) = 47.99155 11.06838 38.71079
#
# Poissons Ratio (x) = 0.32350 -0.18753
# Poissons Ratio (y) = 1.40269 1.16429
# Poissons Ratio (z) = -0.23249 0.33290
#
# Static dielectric constant tensor:
#      x y z
#    x 1.605390 0.000000 0.000000 
#    y 0.000000 1.612140 0.000000 
#    z 0.000000 0.000000 1.645520 
# 
# From -- ./inp_files/66831.got.cif
#   From: 2010.05.17/outbox.ucp.g08.bks.cvg/sg71_34_cif.got.tgz:66831.got - 2010.06.11 16:29:00.
