data_PCOD9524317
_publ_section_title
;
Structure prediction by ZEFSAII (Michael W. Deem and Ramdas Pophale) SiO2 
 PCOD9524317
Probable space group: I M M M
;
_chemical_formula_sum "Si O2"
_cell_formula_units_Z 72
_cell_length_a 17.024588
_cell_length_b 25.687519
_cell_length_c 7.959474
_cell_angle_alpha 90.000000
_cell_angle_beta 90.000000
_cell_angle_gamma 90.000000
_cell_volume 3480.832615
_symmetry_space_group_name_H-M "I M M M"
_symmetry_group_IT_number 71
_symmetry_cell_setting 'orthorhombic'
loop_
_space_group_symop_operation_xyz
x,y,z
-x,-y,z
x,-y,-z
-x,y,-z
-x,-y,-z
x,y,-z
-x,y,z
x,-y,z
1/2+x,1/2+y,1/2+z
1/2-x,1/2-y,1/2+z
1/2+x,1/2-y,1/2-z
1/2-x,1/2+y,1/2-z
1/2-x,1/2-y,1/2-z
1/2+x,1/2+y,1/2-z
1/2-x,1/2+y,1/2+z
1/2+x,1/2-y,1/2+z
loop_
_atom_site_type_symbol
_atom_site_label
_atom_site_fract_x
_atom_site_fract_y
_atom_site_fract_z
Si Si1 0.000000 0.634357 0.295155
Si Si2 0.174454 0.785496 0.696545
Si Si3 0.366635 0.057594 0.794682
Si Si4 0.697223 0.404395 0.299506
Si Si5 0.588977 0.500000 0.798674
Si Si6 0.500000 0.254010 0.205782
O O1 0.075525 0.602523 0.237742
O O2 0.000000 0.633913 0.500000
O O3 0.000000 0.693653 0.245881
O O4 0.168188 0.774606 0.500000
O O5 0.250000 0.750000 0.750000
O O6 0.189205 0.846702 0.726071
O O7 0.085532 0.774969 0.766185
O O8 0.278808 0.070172 0.741052
O O9 0.391270 0.000000 0.740749
O O10 0.367810 0.057452 0.000000
O O11 0.700691 0.398185 0.500000
O O12 0.631531 0.447096 0.258476
O O13 0.500000 0.500000 0.736464
O O14 0.589238 0.500000 0.000000
O O15 0.500000 0.259479 0.000000
#
# Coordination Sequence:
#
# PCOD9524317 Si02
#       6
#     8  16  16  16   8   8
#     4   9  15  26  49  79 112 150 189 231 282 342
#     4  11  23  41  63  90 124 165 211 259 313 374
#     4   9  16  28  49  82 118 148 184 233 287 344
#     4  11  22  39  62  90 124 158 200 254 309 368
#     4  11  25  43  63  88 119 158 204 255 313 377
#     4   9  20  37  57  83 117 156 200 252 309 368
#
# _framework density 20.684705999999998
#
# number of rings (size 3 to 8) (size 9 to 14) (size 15 to 20)
#    0.000    1.889    1.111    3.333    1.556    5.778 
#    0.000    1.667    0.000    0.000    0.000    3.111 
#    0.000    0.000    0.000    0.000    0.000    0.000 
#
# Total GULP energy -200853.181586 kJ/mol
# GULP energy per Si atom -5579.255044 kJ/mol
# Density = 2.063763 g / cm^3
# Si number density = 20.684706 Si / 1000 Ang^3
#
#
#
# Elastic Constant Matrix: (Units=GPa)
#
#
# Indices 1 2 3 4 5 6 
#
# 1 121.5431 39.7077 12.1380 0.0000 0.0000 0.0000
# 2 39.7077 111.3943 -10.3290 0.0000 0.0000 0.0000
# 3 12.1380 -10.3290 19.0288 0.0001 0.0000 0.0000
# 4 0.0000 0.0000 0.0001 28.4954 0.0000 0.0000
# 5 0.0000 0.0000 0.0000 0.0000 13.9306 0.0000
# 6 0.0000 0.0000 0.0000 0.0000 0.0000 41.6321
#
#
#
# Elastic Compliance Matrix: (Units=1/GPa)
#
#
# Indices 1 2 3 4 5 6 
#
# 1 0.010691 -0.004679 -0.009359 0.000000 0.000000 0.000000
# 2 -0.004679 0.011500 0.009227 0.000000 0.000000 0.000000
# 3 -0.009359 0.009227 0.063530 0.000000 0.000000 0.000000
# 4 0.000000 0.000000 0.000000 0.035093 0.000000 0.000000
# 5 0.000000 0.000000 0.000000 0.000000 0.071785 0.000000
# 6 0.000000 0.000000 0.000000 0.000000 0.000000 0.024020
#
#
# Mechanical properties :
#
#
# Convention : Reuss Voigt Hill
#
# Bulk Modulus (GPa) = 13.14060 37.22217 25.18138
# Shear Modulus (GPa) = 19.87226 30.84159 25.35693
#
# Velocity S-wave (km/s) = 3.10292 3.86558 3.50505
# Velocity P-wave (km/s) = 4.38224 6.16098 5.34611
#
# Compressibility (1/GPa) = 0.07610003
#
# Stress axis : x y z
#
# Youngs Moduli (GPa) = 93.53970 86.95337 15.74056
#
# Poissons Ratio (x) = 0.40682 0.14731
# Poissons Ratio (y) = 0.43763 -0.14524
# Poissons Ratio (z) = 0.87543 -0.80231
#
# Static dielectric constant tensor:
#      x y z
#    x 1.771130 0.000000 0.000000 
#    y 0.000000 1.758660 0.000000 
#    z 0.000000 0.000000 1.767220 
# 
# From -- ./inp_files/6140.got.cif
#   From: 2010.05.17/outbox.cif.g08.bks.cpg/sg71_4_cif.got.tgz:6140.got - 2010.06.03 16:22:01.
