data_PCOD9524310
_publ_section_title
;
Structure prediction by ZEFSAII (Michael W. Deem and Ramdas Pophale) SiO2 
 PCOD9524310
Probable space group: I M M M
;
_chemical_formula_sum "Si O2"
_cell_formula_units_Z 88
_cell_length_a 24.507909
_cell_length_b 16.403362
_cell_length_c 11.702242
_cell_angle_alpha 90.000000
_cell_angle_beta 90.000000
_cell_angle_gamma 90.000000
_cell_volume 4704.442918
_symmetry_space_group_name_H-M "I M M M"
_symmetry_group_IT_number 71
_symmetry_cell_setting 'orthorhombic'
loop_
_space_group_symop_operation_xyz
x,y,z
-x,-y,z
x,-y,-z
-x,y,-z
-x,-y,-z
x,y,-z
-x,y,z
x,-y,z
1/2+x,1/2+y,1/2+z
1/2-x,1/2-y,1/2+z
1/2+x,1/2-y,1/2-z
1/2-x,1/2+y,1/2-z
1/2-x,1/2-y,1/2-z
1/2+x,1/2+y,1/2-z
1/2-x,1/2+y,1/2+z
1/2+x,1/2-y,1/2+z
loop_
_atom_site_type_symbol
_atom_site_label
_atom_site_fract_x
_atom_site_fract_y
_atom_site_fract_z
Si Si1 0.064919 0.500000 0.363226
Si Si2 0.242961 0.908333 0.134798
Si Si3 0.845381 0.178869 0.275038
Si Si4 0.142750 0.367358 0.254735
Si Si5 0.703303 0.402131 0.000000
Si Si6 0.436142 0.597696 0.628762
Si Si7 0.668240 0.098183 0.500000
O O1 0.073940 0.500000 0.500000
O O2 0.094802 0.421510 0.308463
O O3 0.000000 0.500000 0.342039
O O4 0.202399 0.840573 0.183450
O O5 0.299706 0.904266 0.202327
O O6 0.219233 0.000000 0.152051
O O7 0.252586 0.897731 0.000000
O O8 0.855682 0.273918 0.293168
O O9 0.825217 0.134875 0.389043
O O10 0.899428 0.139400 0.222850
O O11 0.141866 0.370695 0.117201
O O12 0.699527 0.500000 0.000000
O O13 0.767494 0.380107 0.000000
O O14 0.418193 0.621192 0.500000
O O15 0.500000 0.617872 0.640101
O O16 0.431175 0.500000 0.636586
O O17 0.664534 0.000000 0.500000
#
# Coordination Sequence:
#
# PCOD9524310 Si02
#       7
#     8  16  16  16   8  16   8
#     4  11  26  51  77  93 123 174 228 281 332 379
#     4  11  22  38  63  94 130 170 216 265 321 390
#     4  12  25  36  62  95 132 164 213 271 320 394
#     4  12  25  41  65  95 128 169 215 268 332 388
#     4  11  24  40  59  91 137 180 211 246 331 411
#     4   9  19  39  64  86 116 161 208 257 317 379
#     4  11  22  42  62  87 132 179 206 252 334 402
#
# _framework density 18.705721
#
# number of rings (size 3 to 8) (size 9 to 14) (size 15 to 20)
#    0.000    1.000    3.636    3.818    5.091    2.182 
#    0.000    1.364    0.000    1.636    0.000    0.000 
#    0.000    0.000    0.000    0.000    0.000    0.000 
#
# Total GULP energy -246027.523866 kJ/mol
# GULP energy per Si atom -5591.534633 kJ/mol
# Density = 1.866315 g / cm^3
# Si number density = 18.705721 Si / 1000 Ang^3
#
#
#
# Elastic Constant Matrix: (Units=GPa)
#
#
# Indices 1 2 3 4 5 6 
#
# 1 89.1204 44.9527 43.9015 0.0000 0.0000 0.0000
# 2 44.9527 92.6691 39.0155 0.0000 0.0000 0.0000
# 3 43.9015 39.0155 119.3615 0.0000 0.0000 0.0000
# 4 0.0000 0.0000 0.0000 19.0912 0.0000 0.0000
# 5 0.0000 0.0000 0.0000 0.0000 28.1313 0.0000
# 6 0.0000 0.0000 0.0000 0.0000 0.0000 31.8477
#
#
#
# Elastic Compliance Matrix: (Units=1/GPa)
#
#
# Indices 1 2 3 4 5 6 
#
# 1 0.016325 -0.006252 -0.003961 0.000000 0.000000 0.000000
# 2 -0.006252 0.014907 -0.002573 0.000000 0.000000 0.000000
# 3 -0.003961 -0.002573 0.010676 0.000000 0.000000 0.000000
# 4 0.000000 0.000000 0.000000 0.052380 0.000000 0.000000
# 5 0.000000 0.000000 0.000000 0.000000 0.035548 0.000000
# 6 0.000000 0.000000 0.000000 0.000000 0.000000 0.031399
#
#
# Mechanical properties :
#
#
# Convention : Reuss Voigt Hill
#
# Bulk Modulus (GPa) = 61.21273 61.87673 61.54473
# Shear Modulus (GPa) = 26.00741 27.36613 26.68677
#
# Velocity S-wave (km/s) = 3.73278 3.82904 3.78122
# Velocity P-wave (km/s) = 7.16752 7.25945 7.21363
#
# Compressibility (1/GPa) = 0.01633647
#
# Stress axis : x y z
#
# Youngs Moduli (GPa) = 61.25444 67.08240 93.66862
#
# Poissons Ratio (x) = 0.41937 0.37103
# Poissons Ratio (y) = 0.38294 0.24104
# Poissons Ratio (z) = 0.24263 0.17262
#
# Static dielectric constant tensor:
#      x y z
#    x 1.623570 0.000000 0.000000 
#    y 0.000000 1.620860 0.000000 
#    z 0.000000 0.000000 1.647860 
# 
# From -- ./inp_files/27231.got.cif
#   From: 2010.05.17/outbox.cif.g08.bks.cpg/sg71_14_cif.got.tgz:27231.got - 2010.06.03 16:22:01.
