data_PCOD9524689
_publ_section_title
;
Structure prediction by ZEFSAII (Michael W. Deem and Ramdas Pophale) SiO2 
 PCOD9524689
Probable space group: I M M M
;
_chemical_formula_sum "Si O2"
_cell_formula_units_Z 44
_cell_length_a 30.000000
_cell_length_b 9.000000
_cell_length_c 18.000000
_cell_angle_alpha 90.000000
_cell_angle_beta 90.000000
_cell_angle_gamma 90.000000
_cell_volume 4860.000000
_symmetry_space_group_name_H-M "I M M M"
_symmetry_group_IT_number 71
_symmetry_cell_setting 'orthorhombic'
loop_
_space_group_symop_operation_xyz
x,y,z
-x,-y,z
x,-y,-z
-x,y,-z
-x,-y,-z
x,y,-z
-x,y,z
x,-y,z
1/2+x,1/2+y,1/2+z
1/2-x,1/2-y,1/2+z
1/2+x,1/2-y,1/2-z
1/2-x,1/2+y,1/2-z
1/2-x,1/2-y,1/2-z
1/2+x,1/2+y,1/2-z
1/2-x,1/2+y,1/2+z
1/2+x,1/2-y,1/2+z
loop_
_atom_site_type_symbol
_atom_site_label
_atom_site_fract_x
_atom_site_fract_y
_atom_site_fract_z
Si Si1 0.603195 0.179894 0.500000
Si Si2 0.500000 0.819440 0.087047
Si Si3 0.050984 0.319509 0.147701
Si Si4 0.773666 0.327890 0.854425
Si Si5 0.414185 0.819902 0.811676
Si Si6 0.676819 0.326255 0.222671
Si Si7 0.699639 0.674715 0.500000
O O1 0.578196 0.228535 0.424710
O O2 0.652286 0.243955 0.500000
O O3 0.604432 0.000000 0.500000
O O4 0.545415 0.776376 0.131942
O O5 0.500000 0.000000 0.087528
O O6 0.500000 0.772284 0.000000
O O7 0.050547 0.500000 0.146480
O O8 0.070921 0.278837 0.227680
O O9 0.000000 0.268648 0.142767
O O10 0.783897 0.500000 0.870716
O O11 0.723751 0.320099 0.821443
O O12 0.810533 0.265713 0.796809
O O13 0.775200 0.228997 0.927117
O O14 0.365568 0.744515 0.819664
O O15 0.409749 0.000000 0.816117
O O16 0.667858 0.500000 0.239230
O O17 0.693580 0.500000 0.500000
#
# Coordination Sequence:
#
# PCOD9524689 Si02
#       7
#     8   8  16  16  16  16   8
#     4  10  19  30  50  78 108 144 187 227 274 331
#     4   9  18  34  55  80 110 144 191 243 280 325
#     4   9  16  28  48  76 106 140 183 228 265 313
#     4  10  21  39  60  81 112 152 192 231 277 339
#     4  10  18  32  56  80 108 146 189 232 280 338
#     4  10  21  37  59  86 114 144 183 234 287 343
#     4  12  24  37  55  81 116 149 185 236 284 333
#
# _framework density 9.0534979999999994
#
# number of rings (size 3 to 8) (size 9 to 14) (size 15 to 20)
#    0.000    2.091    0.909    3.273    0.000    4.727 
#    1.636    0.455    0.000    2.727    0.000    0.000 
#    0.000    0.000    0.000    0.000    0.000    0.000 
#
# Total GULP energy -245460.978111 kJ/mol
# GULP energy per Si atom -5578.658593 kJ/mol
# Density = 0.903289 g / cm^3
# Si number density = 9.053498 Si / 1000 Ang^3
#
#
#
# Elastic Constant Matrix: (Units=GPa)
#
#
# Indices 1 2 3 4 5 6 
#
# 1 82.3171 31.6259 28.7966 0.0000 0.0000 0.0000
# 2 31.6259 40.4206 15.3938 0.0000 0.0000 0.0000
# 3 28.7966 15.3938 93.2361 0.0000 0.0000 0.0000
# 4 0.0000 0.0000 0.0000 15.4791 0.0000 0.0000
# 5 0.0000 0.0000 0.0000 0.0000 15.5376 0.0000
# 6 0.0000 0.0000 0.0000 0.0000 0.0000 15.5833
#
#
#
# Elastic Compliance Matrix: (Units=1/GPa)
#
#
# Indices 1 2 3 4 5 6 
#
# 1 0.018396 -0.013050 -0.003527 0.000000 0.000000 0.000000
# 2 -0.013050 0.035658 -0.001857 0.000000 0.000000 0.000000
# 3 -0.003527 -0.001857 0.012121 0.000000 0.000000 0.000000
# 4 0.000000 0.000000 0.000000 0.064603 0.000000 0.000000
# 5 0.000000 0.000000 0.000000 0.000000 0.064360 0.000000
# 6 0.000000 0.000000 0.000000 0.000000 0.000000 0.064171
#
#
# Mechanical properties :
#
#
# Convention : Reuss Voigt Hill
#
# Bulk Modulus (GPa) = 34.12123 40.84514 37.48319
# Shear Modulus (GPa) = 16.34280 18.66385 17.50332
#
# Velocity S-wave (km/s) = 3.00754 3.21402 3.11249
# Velocity P-wave (km/s) = 5.56287 6.03157 5.80195
#
# Compressibility (1/GPa) = 0.02930727
#
# Stress axis : x y z
#
# Youngs Moduli (GPa) = 54.36049 28.04458 82.49906
#
# Poissons Ratio (x) = 0.36598 0.29098
# Poissons Ratio (y) = 0.70940 0.15318
# Poissons Ratio (z) = 0.19173 0.05207
#
# Static dielectric constant tensor:
#      x y z
#    x 1.617500 0.000000 0.000000 
#    y 0.000000 1.605580 0.000000 
#    z 0.000000 0.000000 1.636350 
# 
# From -- ./inp_files/16744.got.cif
#   From: 2010.05.17/outbox.ucp.g08.bks.cvg/sg71_9_cif.got.tgz:16744.got - 2010.06.11 16:29:00.
