data_PCOD9524228
_publ_section_title
;
Structure prediction by ZEFSAII (Michael W. Deem and Ramdas Pophale) SiO2 
 PCOD9524228
Probable space group: I M M M
;
_chemical_formula_sum "Si O2"
_cell_formula_units_Z 88
_cell_length_a 7.649004
_cell_length_b 30.949554
_cell_length_c 17.743301
_cell_angle_alpha 90.000000
_cell_angle_beta 90.000000
_cell_angle_gamma 90.000000
_cell_volume 4200.429530
_symmetry_space_group_name_H-M "I M M M"
_symmetry_group_IT_number 71
_symmetry_cell_setting 'orthorhombic'
loop_
_space_group_symop_operation_xyz
x,y,z
-x,-y,z
x,-y,-z
-x,y,-z
-x,-y,-z
x,y,-z
-x,y,z
x,-y,z
1/2+x,1/2+y,1/2+z
1/2-x,1/2-y,1/2+z
1/2+x,1/2-y,1/2-z
1/2-x,1/2+y,1/2-z
1/2-x,1/2-y,1/2-z
1/2+x,1/2+y,1/2-z
1/2-x,1/2+y,1/2+z
1/2+x,1/2-y,1/2+z
loop_
_atom_site_type_symbol
_atom_site_label
_atom_site_fract_x
_atom_site_fract_y
_atom_site_fract_z
Si Si1 0.792100 0.302649 0.585597
Si Si2 0.801159 0.878372 0.198771
Si Si3 0.286155 0.449690 0.000000
Si Si4 0.711161 0.949801 0.916126
Si Si5 0.214823 0.885080 0.367112
Si Si6 0.699812 0.709674 0.909494
O O1 0.727504 0.313259 0.500000
O O2 0.770755 0.339883 0.646965
O O3 0.719273 0.255965 0.612093
O O4 0.000000 0.296355 0.578055
O O5 0.790713 0.920591 0.147577
O O6 0.725995 0.889676 0.280686
O O7 0.000000 0.865696 0.213297
O O8 0.230153 0.421952 0.073613
O O9 0.229888 0.500000 0.000000
O O10 0.500000 0.450346 0.000000
O O11 0.500000 0.946333 0.912193
O O12 0.756755 0.000000 0.908440
O O13 0.763616 0.935197 0.000000
O O14 0.275764 0.836848 0.389482
O O15 0.000000 0.885980 0.371215
O O16 0.500000 0.708683 0.879781
O O17 0.693061 0.711432 0.000000
#
# Coordination Sequence:
#
# PCOD9524228 Si02
#       6
#    16  16   8  16  16  16
#     4   9  18  32  51  73  96 132 180 218 244 284
#     4  11  22  31  45  76 113 137 155 197 260 313
#     4   9  16  28  48  70  95 131 169 207 256 309
#     4   9  19  37  58  74  91 126 175 214 240 282
#     4   9  17  29  45  69 101 133 166 206 252 304
#     4   8  13  26  49  69  89 127 178 219 246 283
#
# _framework density 20.950239
#
# number of rings (size 3 to 8) (size 9 to 14) (size 15 to 20)
#    0.000    2.818    0.909    2.727    0.000    4.727 
#    0.000    2.727    0.000    1.091    0.000    2.545 
#    0.000    4.364    0.000    0.000    0.000    0.000 
#
# Total GULP energy -245181.036821 kJ/mol
# GULP energy per Si atom -5572.296291 kJ/mol
# Density = 2.090256 g / cm^3
# Si number density = 20.950239 Si / 1000 Ang^3
#
#
#
# Elastic Constant Matrix: (Units=GPa)
#
#
# Indices 1 2 3 4 5 6 
#
# 1 32.8785 8.3972 6.0989 0.0000 0.0000 0.0000
# 2 8.3972 138.3692 106.4508 0.0000 0.0000 0.0000
# 3 6.0989 106.4508 153.7414 0.0000 0.0000 0.0000
# 4 0.0000 0.0000 0.0000 -5.8273 0.0000 0.0000
# 5 0.0000 0.0000 0.0000 0.0000 0.4790 0.0000
# 6 0.0000 0.0000 0.0000 0.0000 0.0000 -9.2846
#
#
#
# Elastic Compliance Matrix: (Units=1/GPa)
#
#
# Indices 1 2 3 4 5 6 
#
# 1 0.030896 -0.001994 0.000155 0.000000 0.000000 0.000000
# 2 -0.001994 0.015594 -0.010718 0.000000 0.000000 0.000000
# 3 0.000155 -0.010718 0.013919 0.000000 0.000000 0.000000
# 4 0.000000 0.000000 0.000000 -0.171605 0.000000 0.000000
# 5 0.000000 0.000000 0.000000 0.000000 2.087653 0.000000
# 6 0.000000 0.000000 0.000000 0.000000 0.000000 -0.107705
#
#
# Mechanical properties :
#
#
# Convention : Reuss Voigt Hill
#
# Bulk Modulus (GPa) = 28.33301 62.98699 45.66000
# Shear Modulus (GPa) = 2.62380 10.67621 6.65001
#
# Velocity S-wave (km/s) = 1.12032 2.25988 1.78356
# Velocity P-wave (km/s) = 3.90215 6.07780 5.10718
#
# Compressibility (1/GPa) = 0.03529452
#
# Stress axis : x y z
#
# Youngs Moduli (GPa) = 32.36704 64.12855 71.84212
#
# Poissons Ratio (x) = 0.12790 -0.01116
# Poissons Ratio (y) = 0.06456 0.77000
# Poissons Ratio (z) = -0.00503 0.68733
#
# Static dielectric constant tensor:
#      x y z
#    x 1.833560 0.000000 0.000000 
#    y 0.000000 1.754710 0.000000 
#    z 0.000000 0.000000 1.747470 
# 
# From -- ./inp_files/42491.got.cif
#   From: 2010.05.17/outbox.cif.g08.bks.cpg/sg71_22_cif.got.tgz:42491.got - 2010.06.03 16:22:01.
