data_PCOD9524900
_publ_section_title
;
Structure prediction by ZEFSAII (Michael W. Deem and Ramdas Pophale) SiO2 
 PCOD9524900
Probable space group: I M M M
;
_chemical_formula_sum "Si O2"
_cell_formula_units_Z 40
_cell_length_a 27.000000
_cell_length_b 18.000000
_cell_length_c 9.000000
_cell_angle_alpha 90.000000
_cell_angle_beta 90.000000
_cell_angle_gamma 90.000000
_cell_volume 4374.000000
_symmetry_space_group_name_H-M "I M M M"
_symmetry_group_IT_number 71
_symmetry_cell_setting 'orthorhombic'
loop_
_space_group_symop_operation_xyz
x,y,z
-x,-y,z
x,-y,-z
-x,y,-z
-x,-y,-z
x,y,-z
-x,y,z
x,-y,z
1/2+x,1/2+y,1/2+z
1/2-x,1/2-y,1/2+z
1/2+x,1/2-y,1/2-z
1/2-x,1/2+y,1/2-z
1/2-x,1/2-y,1/2-z
1/2+x,1/2+y,1/2-z
1/2-x,1/2+y,1/2+z
1/2+x,1/2-y,1/2+z
loop_
_atom_site_type_symbol
_atom_site_label
_atom_site_fract_x
_atom_site_fract_y
_atom_site_fract_z
Si Si1 0.220829 0.180667 0.676946
Si Si2 0.106837 0.206448 0.680611
Si Si3 0.000000 0.628791 0.673500
Si Si4 0.798830 0.586116 0.664605
Si Si5 0.898769 0.631679 0.176848
Si Si6 0.500000 0.689229 0.827689
O O1 0.226087 0.184972 0.500000
O O2 0.250000 0.250000 0.750000
O O3 0.162004 0.175649 0.709734
O O4 0.251964 0.114044 0.744588
O O5 0.103676 0.219149 0.500000
O O6 0.105000 0.283100 0.770108
O O7 0.055069 0.165990 0.726931
O O8 0.949934 0.602341 0.752680
O O9 0.000000 0.609436 0.500000
O O10 0.000000 0.719939 0.682248
O O11 0.802351 0.622826 0.500000
O O12 0.792832 0.500000 0.645020
O O13 0.849576 0.597587 0.753272
O O14 0.899705 0.624928 0.000000
O O15 0.500000 0.667924 0.000000
#
# Coordination Sequence:
#
# PCOD9524900 Si02
#       6
#    16  16   8  16  16   8
#     4  11  21  33  54  81 108 138 176 220 265 319
#     4   9  17  30  50  75 105 139 172 208 260 318
#     4   9  17  31  50  70 101 140 176 215 258 311
#     4  11  24  40  55  72 101 142 183 223 272 325
#     4  11  20  31  51  77 104 134 174 223 267 312
#     4   7  12  25  45  70  99 132 165 201 246 302
#
# _framework density 9.1449470000000002
#
# number of rings (size 3 to 8) (size 9 to 14) (size 15 to 20)
#    0.000    2.000    2.000    4.500    0.000    2.400 
#    0.000    0.500    0.000    3.000    0.000    0.700 
#    0.000    5.600    0.000    0.000    0.000    0.000 
#
# Total GULP energy -222706.587313 kJ/mol
# GULP energy per Si atom -5567.664683 kJ/mol
# Density = 0.912413 g / cm^3
# Si number density = 9.144947 Si / 1000 Ang^3
#
#
#
# Elastic Constant Matrix: (Units=GPa)
#
#
# Indices 1 2 3 4 5 6 
#
# 1 234.4433 47.0601 81.1646 0.0000 0.0000 0.0000
# 2 47.0601 17.1768 33.0821 0.0000 0.0000 0.0000
# 3 81.1646 33.0821 103.7246 0.0000 0.0000 0.0000
# 4 0.0000 0.0000 0.0000 9.9331 0.0000 0.0000
# 5 0.0000 0.0000 0.0000 0.0000 39.9010 0.0000
# 6 0.0000 0.0000 0.0000 0.0000 0.0000 -4.3538
#
#
#
# Elastic Compliance Matrix: (Units=1/GPa)
#
#
# Indices 1 2 3 4 5 6 
#
# 1 0.009684 -0.030946 0.002293 0.000000 0.000000 0.000000
# 2 -0.030946 0.249827 -0.055465 0.000000 0.000000 0.000000
# 3 0.002293 -0.055465 0.025537 0.000000 0.000000 0.000000
# 4 0.000000 0.000000 0.000000 0.100673 0.000000 0.000000
# 5 0.000000 0.000000 0.000000 0.000000 0.025062 0.000000
# 6 0.000000 0.000000 0.000000 0.000000 0.000000 -0.229684
#
#
# Mechanical properties :
#
#
# Convention : Reuss Voigt Hill
#
# Bulk Modulus (GPa) = 8.56085 75.32869 41.94477
# Shear Modulus (GPa) = 12.87757 22.03192 17.45474
#
# Velocity S-wave (km/s) = 2.65633 3.47449 3.09259
# Velocity P-wave (km/s) = 3.75485 7.57440 5.97789
#
# Compressibility (1/GPa) = 0.11681086
#
# Stress axis : x y z
#
# Youngs Moduli (GPa) = 103.26782 4.00277 39.15877
#
# Poissons Ratio (x) = 0.12387 -0.08977
# Poissons Ratio (y) = 3.19573 2.17194
# Poissons Ratio (z) = -0.23675 0.22201
#
# Static dielectric constant tensor:
#      x y z
#    x 1.676300 0.000000 0.000000 
#    y 0.000000 1.639830 0.000000 
#    z 0.000000 0.000000 1.667390 
# 
# From -- ./inp_files/14568.got.cif
#   From: 2010.05.17/outbox.ucp.g08.bks.cvg/sg71_8_cif.got.tgz:14568.got - 2010.06.11 16:29:00.
