data_PCOD9524477
_publ_section_title
;
Structure prediction by ZEFSAII (Michael W. Deem and Ramdas Pophale) SiO2 
 PCOD9524477
Probable space group: I M M M
;
_chemical_formula_sum "Si O2"
_cell_formula_units_Z 88
_cell_length_a 14.668008
_cell_length_b 16.203998
_cell_length_c 18.213861
_cell_angle_alpha 90.000000
_cell_angle_beta 90.000000
_cell_angle_gamma 90.000000
_cell_volume 4329.077263
_symmetry_space_group_name_H-M "I M M M"
_symmetry_group_IT_number 71
_symmetry_cell_setting 'orthorhombic'
loop_
_space_group_symop_operation_xyz
x,y,z
-x,-y,z
x,-y,-z
-x,y,-z
-x,-y,-z
x,y,-z
-x,y,z
x,-y,z
1/2+x,1/2+y,1/2+z
1/2-x,1/2-y,1/2+z
1/2+x,1/2-y,1/2-z
1/2-x,1/2+y,1/2-z
1/2-x,1/2-y,1/2-z
1/2+x,1/2+y,1/2-z
1/2-x,1/2+y,1/2+z
1/2+x,1/2-y,1/2+z
loop_
_atom_site_type_symbol
_atom_site_label
_atom_site_fract_x
_atom_site_fract_y
_atom_site_fract_z
Si Si1 0.774895 0.335159 0.210994
Si Si2 0.397797 0.598923 0.739156
Si Si3 0.611791 0.095638 0.000000
Si Si4 0.607612 0.902774 0.587018
Si Si5 0.103929 0.401026 0.341525
Si Si6 0.110992 0.096671 0.921566
O O1 0.750000 0.250000 0.250000
O O2 0.677008 0.378179 0.201834
O O3 0.832149 0.342840 0.136777
O O4 0.834986 0.381393 0.272347
O O5 0.500000 0.630045 0.753285
O O6 0.402550 0.500000 0.733197
O O7 0.364769 0.630168 0.658498
O O8 0.639185 0.131410 0.079170
O O9 0.500000 0.095514 0.000000
O O10 0.641892 0.000000 0.000000
O O11 0.622062 0.891504 0.500000
O O12 0.500000 0.889471 0.601696
O O13 0.626929 0.000000 0.604418
O O14 0.100102 0.500000 0.348933
O O15 0.000000 0.371463 0.330073
O O16 0.000000 0.097815 0.921532
O O17 0.138425 0.000000 0.922406
O O18 0.141262 0.133283 0.000000
#
# Coordination Sequence:
#
# PCOD9524477 Si02
#       6
#    16  16   8  16  16  16
#     4  12  24  35  50  84 121 157 187 231 298 374
#     4   9  18  33  51  70  99 144 194 236 272 324
#     4   7  12  26  50  80 107 131 166 217 275 335
#     4   9  19  40  71  97 113 142 200 272 328 359
#     4   9  17  33  58  83 108 142 189 242 290 341
#     4   7  10  20  40  64  90 123 167 216 255 287
#
# _framework density 20.327656999999999
#
# number of rings (size 3 to 8) (size 9 to 14) (size 15 to 20)
#    0.000    3.000    0.000    5.455    0.000    2.909 
#    3.273    0.000    0.000    2.727    0.000    2.545 
#    0.000    0.000    0.000    0.000    0.000    0.000 
#
# Total GULP energy -245180.069304 kJ/mol
# GULP energy per Si atom -5572.274302 kJ/mol
# Density = 2.028139 g / cm^3
# Si number density = 20.327657 Si / 1000 Ang^3
#
#
#
# Elastic Constant Matrix: (Units=GPa)
#
#
# Indices 1 2 3 4 5 6 
#
# 1 82.9020 24.4580 47.1632 0.0000 0.0000 0.0000
# 2 24.4580 36.3581 20.5942 0.0000 0.0000 0.0000
# 3 47.1632 20.5942 72.1823 0.0000 0.0000 0.0000
# 4 0.0000 0.0000 0.0000 12.2077 0.0000 0.0000
# 5 0.0000 0.0000 0.0000 0.0000 33.3527 0.0000
# 6 0.0000 0.0000 0.0000 0.0000 0.0000 29.7848
#
#
#
# Elastic Compliance Matrix: (Units=1/GPa)
#
#
# Indices 1 2 3 4 5 6 
#
# 1 0.020784 -0.007501 -0.011440 0.000000 0.000000 0.000000
# 2 -0.007501 0.035513 -0.005231 0.000000 0.000000 0.000000
# 3 -0.011440 -0.005231 0.022821 0.000000 0.000000 0.000000
# 4 0.000000 0.000000 0.000000 0.081916 0.000000 0.000000
# 5 0.000000 0.000000 0.000000 0.000000 0.029983 0.000000
# 6 0.000000 0.000000 0.000000 0.000000 0.000000 0.033574
#
#
# Mechanical properties :
#
#
# Convention : Reuss Voigt Hill
#
# Bulk Modulus (GPa) = 32.49509 41.76368 37.12939
# Shear Modulus (GPa) = 17.65590 21.68416 19.67003
#
# Velocity S-wave (km/s) = 2.95034 3.26963 3.11408
# Velocity P-wave (km/s) = 5.25608 5.90287 5.58884
#
# Compressibility (1/GPa) = 0.03077388
#
# Stress axis : x y z
#
# Youngs Moduli (GPa) = 48.11508 28.15851 43.81975
#
# Poissons Ratio (x) = 0.21123 0.50128
# Poissons Ratio (y) = 0.36093 0.22922
# Poissons Ratio (z) = 0.55042 0.14730
#
# Static dielectric constant tensor:
#      x y z
#    x 1.310270 0.000000 0.000000 
#    y 0.000000 1.737520 0.000000 
#    z 0.000000 0.000000 1.773940 
# 
# From -- ./inp_files/44709.got.cif
#   From: 2010.05.17/outbox.cif.g08.bks.cpg/sg71_23_cif.got.tgz:44709.got - 2010.06.03 16:22:01.
