data_PCOD9524936
_publ_section_title
;
Structure prediction by ZEFSAII (Michael W. Deem and Ramdas Pophale) SiO2 
 PCOD9524936
Probable space group: I B A M
;
_chemical_formula_sum "Si O2"
_cell_formula_units_Z 64
_cell_length_a 21.319456
_cell_length_b 25.934574
_cell_length_c 5.552645
_cell_angle_alpha 90.000000
_cell_angle_beta 90.000000
_cell_angle_gamma 90.000000
_cell_volume 3070.118551
_symmetry_space_group_name_H-M "I B A M"
_symmetry_group_IT_number 72
_symmetry_cell_setting 'orthorhombic'
loop_
_space_group_symop_operation_xyz
x,y,z
-x,-y,z
x,-y,1/2-z
-x,y,1/2-z
-x,-y,-z
x,y,-z
-x,y,1/2+z
x,-y,1/2+z
1/2+x,1/2+y,1/2+z
1/2-x,1/2-y,1/2+z
1/2+x,1/2-y,-z
1/2-x,1/2+y,-z
1/2-x,1/2-y,1/2-z
1/2+x,1/2+y,1/2-z
1/2-x,1/2+y,z
1/2+x,1/2-y,z
loop_
_atom_site_type_symbol
_atom_site_label
_atom_site_fract_x
_atom_site_fract_y
_atom_site_fract_z
Si Si1 0.751126 0.700018 0.500000
Si Si2 0.930319 0.184284 0.000000
Si Si3 0.428567 0.020957 0.500000
Si Si4 0.072735 0.143197 0.000000
Si Si5 0.907111 0.358347 0.500000
Si Si6 0.595029 0.197409 0.500000
Si Si7 0.572374 0.479594 0.000000
Si Si8 0.232352 0.679072 0.500000
O O1 0.828244 0.703362 0.500000
O O2 0.735130 0.671173 0.745324
O O3 0.722543 0.757852 0.500000
O O4 0.900892 0.165588 0.749094
O O5 0.000098 0.160999 0.000000
O O6 0.932372 0.245607 0.000000
O O7 0.428094 0.082651 0.500000
O O8 0.500000 0.000000 0.500000
O O9 0.399564 0.000000 0.250000
O O10 0.073517 0.081813 0.000000
O O11 0.924785 0.331188 0.246732
O O12 0.831599 0.352567 0.500000
O O13 0.500000 0.500000 0.000000
O O14 0.600762 0.500000 0.750000
#
# Coordination Sequence:
#
# PCOD9524936 Si02
#       8
#     8   8   8   8   8   8   8   8
#     4   8  14  25  41  66  94 116 137 166 215 258
#     4  10  18  30  41  57  86 120 146 173 217 262
#     4  10  21  38  53  68  92 123 158 210 265 292
#     4  10  19  30  40  55  84 114 143 183 217 251
#     4  10  19  33  50  69  90 115 156 193 228 282
#     4  10  19  30  47  69  93 123 152 184 220 283
#     4  10  16  25  41  58  72  93 132 182 221 243
#     4   8  14  25  44  66  91 116 135 171 215 263
#
# _framework density 20.8461
#
# number of rings (size 3 to 8) (size 9 to 14) (size 15 to 20)
#    0.000    2.500    0.000    5.250    0.000    0.000 
#    0.000   15.000    0.000    0.000    0.000    0.000 
#    0.000   12.000    0.000    0.000    0.000    0.000 
#
# Total GULP energy -178486.040174 kJ/mol
# GULP energy per Si atom -5577.688755 kJ/mol
# Density = 2.079865 g / cm^3
# Si number density = 20.846100 Si / 1000 Ang^3
#
#
#
# Elastic Constant Matrix: (Units=GPa)
#
#
# Indices 1 2 3 4 5 6 
#
# 1 74.6353 18.0270 8.6746 0.0000 0.0000 0.0000
# 2 18.0270 194.4319 94.1210 0.0000 0.0000 0.0000
# 3 8.6746 94.1210 282.5389 0.0000 0.0000 0.0000
# 4 0.0000 0.0000 0.0000 38.6015 0.0000 0.0000
# 5 0.0000 0.0000 0.0000 0.0000 -19.7761 0.0000
# 6 0.0000 0.0000 0.0000 0.0000 0.0000 5.6497
#
#
#
# Elastic Compliance Matrix: (Units=1/GPa)
#
#
# Indices 1 2 3 4 5 6 
#
# 1 0.013705 -0.001272 0.000003 0.000000 0.000000 0.000000
# 2 -0.001272 0.006250 -0.002043 0.000000 0.000000 0.000000
# 3 0.000003 -0.002043 0.004220 0.000000 0.000000 0.000000
# 4 0.000000 0.000000 0.000000 0.025906 0.000000 0.000000
# 5 0.000000 0.000000 0.000000 0.000000 -0.050566 0.000000
# 6 0.000000 0.000000 0.000000 0.000000 0.000000 0.177000
#
#
# Mechanical properties :
#
#
# Convention : Reuss Voigt Hill
#
# Bulk Modulus (GPa) = 56.97680 88.13900 72.55790
# Shear Modulus (GPa) = 26.45640 33.61391 30.03515
#
# Velocity S-wave (km/s) = 3.56635 4.01993 3.79991
# Velocity P-wave (km/s) = 6.65957 7.99494 7.35761
#
# Compressibility (1/GPa) = 0.01755100
#
# Stress axis : x y z
#
# Youngs Moduli (GPa) = 72.96386 159.99665 236.97655
#
# Poissons Ratio (x) = 0.20354 -0.00071
# Poissons Ratio (y) = 0.09282 0.48415
# Poissons Ratio (z) = -0.00022 0.32688
#
# Static dielectric constant tensor:
#      x y z
#    x 1.631730 0.000000 0.000000 
#    y 0.000000 1.662450 0.000000 
#    z 0.000000 0.000000 1.914630 
# 
# From -- ./inp_files/926.got.cif
#   From: 2010.05.17/outbox.cif.g08.bks.cpg/sg72_1_cif.got.tgz:926.got - 2010.06.03 17:03:01.
