data_PCOD9524935
_publ_section_title
;
Structure prediction by ZEFSAII (Michael W. Deem and Ramdas Pophale) SiO2 
 PCOD9524935
Probable space group: I B A M
;
_chemical_formula_sum "Si O2"
_cell_formula_units_Z 80
_cell_length_a 27.917393
_cell_length_b 6.939390
_cell_length_c 16.176542
_cell_angle_alpha 90.000000
_cell_angle_beta 90.000000
_cell_angle_gamma 90.000000
_cell_volume 3133.876270
_symmetry_space_group_name_H-M "I B A M"
_symmetry_group_IT_number 72
_symmetry_cell_setting 'orthorhombic'
loop_
_space_group_symop_operation_xyz
x,y,z
-x,-y,z
x,-y,1/2-z
-x,y,1/2-z
-x,-y,-z
x,y,-z
-x,y,1/2+z
x,-y,1/2+z
1/2+x,1/2+y,1/2+z
1/2-x,1/2-y,1/2+z
1/2+x,1/2-y,-z
1/2-x,1/2+y,-z
1/2-x,1/2-y,1/2-z
1/2+x,1/2+y,1/2-z
1/2-x,1/2+y,z
1/2+x,1/2-y,z
loop_
_atom_site_type_symbol
_atom_site_label
_atom_site_fract_x
_atom_site_fract_y
_atom_site_fract_z
Si Si1 0.210339 0.981765 0.094881
Si Si2 0.510506 0.282546 0.652686
Si Si3 0.314073 0.069025 0.404182
Si Si4 0.388977 0.580140 0.343868
Si Si5 0.587270 0.839026 0.405217
O O1 0.193786 0.201183 0.091739
O O2 0.263376 0.993707 0.133902
O O3 0.166265 0.866847 0.136542
O O4 0.215774 0.912768 0.000000
O O5 0.500000 0.500000 0.620570
O O6 0.500000 0.285254 0.750000
O O7 0.567881 0.268104 0.640916
O O8 0.467609 0.147457 0.621800
O O9 0.315848 0.998206 0.500000
O O10 0.366702 0.057191 0.363645
O O11 0.392230 0.500000 0.250000
O O12 0.401558 0.390236 0.397269
O O13 0.588818 0.897066 0.500000
#
# Coordination Sequence:
#
# PCOD9524935 Si02
#       5
#    16  16  16  16  16
#     4   9  17  29  45  63  89 119 150 184 222 262
#     4   9  14  24  37  55  85 115 136 171 225 267
#     4   8  15  28  44  65  88 116 149 185 221 258
#     4  10  16  25  39  60  89 117 140 180 222 270
#     4   9  16  25  40  59  82 113 149 179 215 266
#
# _framework density 25.527491000000001
#
# number of rings (size 3 to 8) (size 9 to 14) (size 15 to 20)
#    0.000    3.000    4.000    1.800    0.000    4.400 
#    0.000    4.000    0.000    0.000    0.000    1.400 
#    0.000    9.600    0.000    0.000    0.000    0.000 
#
# Total GULP energy -222880.620876 kJ/mol
# GULP energy per Si atom -5572.015522 kJ/mol
# Density = 2.546939 g / cm^3
# Si number density = 25.527491 Si / 1000 Ang^3
#
#
#
# Elastic Constant Matrix: (Units=GPa)
#
#
# Indices 1 2 3 4 5 6 
#
# 1 341.9665 54.9188 35.7076 0.0000 0.0000 0.0000
# 2 54.9188 57.1704 -8.9577 0.0000 0.0000 0.0000
# 3 35.7076 -8.9577 36.8740 0.0000 0.0000 0.0000
# 4 0.0000 0.0000 0.0000 -22.0200 0.0000 0.0000
# 5 0.0000 0.0000 0.0000 0.0000 112.9850 0.0000
# 6 0.0000 0.0000 0.0000 0.0000 0.0000 28.8518
#
#
#
# Elastic Compliance Matrix: (Units=1/GPa)
#
#
# Indices 1 2 3 4 5 6 
#
# 1 0.004276 -0.004945 -0.005342 0.000000 0.000000 0.000000
# 2 -0.004945 0.023902 0.010595 0.000000 0.000000 0.000000
# 3 -0.005342 0.010595 0.034866 0.000000 0.000000 0.000000
# 4 0.000000 0.000000 0.000000 -0.045413 0.000000 0.000000
# 5 0.000000 0.000000 0.000000 0.000000 0.008851 0.000000
# 6 0.000000 0.000000 0.000000 0.000000 0.000000 0.034660
#
#
# Mechanical properties :
#
#
# Convention : Reuss Voigt Hill
#
# Bulk Modulus (GPa) = 15.70851 66.59425 41.15138
# Shear Modulus (GPa) = 61.16514 47.58618 54.37566
#
# Velocity S-wave (km/s) = 4.90026 4.32222 4.62029
# Velocity P-wave (km/s) = 6.17929 7.14512 6.67968
#
# Compressibility (1/GPa) = 0.06365976
#
# Stress axis : x y z
#
# Youngs Moduli (GPa) = 233.85202 41.83808 28.68097
#
# Poissons Ratio (x) = 0.20688 0.15322
# Poissons Ratio (y) = 1.15636 -0.30387
# Poissons Ratio (z) = 1.24928 -0.44327
#
# Static dielectric constant tensor:
#      x y z
#    x 2.197100 0.000000 0.000000 
#    y 0.000000 2.100460 0.000000 
#    z 0.000000 0.000000 1.969420 
# 
# From -- ./inp_files/24884.got.cif
#   From: 2010.05.17/outbox.cif.g08.bks.cpg/sg72_13_cif.got.tgz:24884.got - 2010.06.03 17:03:01.
