data_PCOD9524439
_publ_section_title
;
Structure prediction by ZEFSAII (Michael W. Deem and Ramdas Pophale) SiO2 
 PCOD9524439
Probable space group: I M M M
;
_chemical_formula_sum "Si O2"
_cell_formula_units_Z 92
_cell_length_a 9.501610
_cell_length_b 26.316068
_cell_length_c 18.008236
_cell_angle_alpha 90.000000
_cell_angle_beta 90.000000
_cell_angle_gamma 90.000000
_cell_volume 4502.869638
_symmetry_space_group_name_H-M "I M M M"
_symmetry_group_IT_number 71
_symmetry_cell_setting 'orthorhombic'
loop_
_space_group_symop_operation_xyz
x,y,z
-x,-y,z
x,-y,-z
-x,y,-z
-x,-y,-z
x,y,-z
-x,y,z
x,-y,z
1/2+x,1/2+y,1/2+z
1/2-x,1/2-y,1/2+z
1/2+x,1/2-y,1/2-z
1/2-x,1/2+y,1/2-z
1/2-x,1/2-y,1/2-z
1/2+x,1/2+y,1/2-z
1/2-x,1/2+y,1/2+z
1/2+x,1/2-y,1/2+z
loop_
_atom_site_type_symbol
_atom_site_label
_atom_site_fract_x
_atom_site_fract_y
_atom_site_fract_z
Si Si1 0.833920 0.556043 0.500000
Si Si2 0.162025 0.624433 0.189764
Si Si3 0.668606 0.272973 0.179284
Si Si4 0.779896 0.905807 0.844709
Si Si5 0.656402 0.560901 0.914263
Si Si6 0.500000 0.500000 0.324554
Si Si7 0.653948 0.299861 0.587032
O O1 0.765143 0.500000 0.500000
O O2 0.792154 0.581734 0.423192
O O3 0.000000 0.551780 0.500000
O O4 0.267402 0.670939 0.173321
O O5 0.182594 0.604830 0.273806
O O6 0.217795 0.581288 0.134769
O O7 0.000000 0.638528 0.177735
O O8 0.500000 0.272480 0.186983
O O9 0.750000 0.250000 0.250000
O O10 0.722150 0.237335 0.112302
O O11 0.879129 0.953968 0.826784
O O12 0.846797 0.850758 0.863348
O O13 0.500000 0.576734 0.886077
O O14 0.657054 0.500000 0.913195
O O15 0.668239 0.577428 0.000000
O O16 0.667063 0.313210 0.500000
O O17 0.500000 0.274732 0.597182
#
# Coordination Sequence:
#
# PCOD9524439 Si02
#       7
#     8  16  16  16  16   4  16
#     4  11  24  42  60  88 136 186 230 288 345 398
#     4  12  27  44  69 103 141 183 232 290 352 421
#     4  12  26  45  70  98 132 176 226 286 349 414
#     4  12  25  42  67  99 137 185 235 289 341 413
#     4   9  21  43  72 102 135 178 227 280 344 420
#     4  12  28  41  68 104 145 190 244 296 347 416
#     4  11  24  44  71 101 135 178 231 289 344 413
#
# _framework density 20.431415000000001
#
# number of rings (size 3 to 8) (size 9 to 14) (size 15 to 20)
#    0.000    0.783    4.348    3.130    3.652    3.130 
#    0.000    0.870    0.000    0.000    0.000    0.000 
#    0.000    0.000    0.000    0.000    0.000    0.000 
#
# Total GULP energy -256291.582635 kJ/mol
# GULP energy per Si atom -5571.556144 kJ/mol
# Density = 2.038491 g / cm^3
# Si number density = 20.431415 Si / 1000 Ang^3
#
#
#
# Elastic Constant Matrix: (Units=GPa)
#
#
# Indices 1 2 3 4 5 6 
#
# 1 164.3799 46.6544 41.2353 0.0000 0.0000 0.0000
# 2 46.6544 84.8875 23.9425 0.0000 0.0000 0.0000
# 3 41.2353 23.9425 70.1271 -0.0002 0.0000 0.0001
# 4 0.0000 0.0000 -0.0002 39.8081 0.0000 0.0000
# 5 0.0000 0.0000 0.0000 0.0000 7.2311 0.0000
# 6 0.0000 0.0000 0.0001 0.0000 0.0000 7.9820
#
#
#
# Elastic Compliance Matrix: (Units=1/GPa)
#
#
# Indices 1 2 3 4 5 6 
#
# 1 0.007918 -0.003362 -0.003508 0.000000 0.000000 0.000000
# 2 -0.003362 0.014463 -0.002961 0.000000 0.000000 0.000000
# 3 -0.003508 -0.002961 0.017333 0.000000 0.000000 0.000000
# 4 0.000000 0.000000 0.000000 0.025121 0.000000 0.000000
# 5 0.000000 0.000000 0.000000 0.000000 0.138291 0.000000
# 6 0.000000 0.000000 0.000000 0.000000 0.000000 0.125282
#
#
# Mechanical properties :
#
#
# Convention : Reuss Voigt Hill
#
# Bulk Modulus (GPa) = 49.86931 60.33989 55.10460
# Shear Modulus (GPa) = 14.09427 24.84173 19.46800
#
# Velocity S-wave (km/s) = 2.62932 3.49070 3.09017
# Velocity P-wave (km/s) = 5.80335 6.77079 6.30565
#
# Compressibility (1/GPa) = 0.02005241
#
# Stress axis : x y z
#
# Youngs Moduli (GPa) = 126.29998 69.14033 57.69236
#
# Poissons Ratio (x) = 0.23246 0.20237
# Poissons Ratio (y) = 0.42465 0.17083
# Poissons Ratio (z) = 0.44303 0.20473
#
# Static dielectric constant tensor:
#      x y z
#    x 1.728450 0.000000 0.000000 
#    y 0.000000 1.795060 0.000000 
#    z 0.000000 0.000000 1.734760 
# 
# From -- ./inp_files/50842.got.cif
#   From: 2010.05.17/outbox.cif.g08.bks.cpg/sg71_26_cif.got.tgz:50842.got - 2010.06.03 16:22:01.
