data_PCOD9524639
_publ_section_title
;
Structure prediction by ZEFSAII (Michael W. Deem and Ramdas Pophale) SiO2 
 PCOD9524639
Probable space group: I M M M
;
_chemical_formula_sum "Si O2"
_cell_formula_units_Z 72
_cell_length_a 34.413224
_cell_length_b 15.233585
_cell_length_c 7.587369
_cell_angle_alpha 90.000000
_cell_angle_beta 90.000000
_cell_angle_gamma 90.000000
_cell_volume 3977.577840
_symmetry_space_group_name_H-M "I M M M"
_symmetry_group_IT_number 71
_symmetry_cell_setting 'orthorhombic'
loop_
_space_group_symop_operation_xyz
x,y,z
-x,-y,z
x,-y,-z
-x,y,-z
-x,-y,-z
x,y,-z
-x,y,z
x,-y,z
1/2+x,1/2+y,1/2+z
1/2-x,1/2-y,1/2+z
1/2+x,1/2-y,1/2-z
1/2-x,1/2+y,1/2-z
1/2-x,1/2-y,1/2-z
1/2+x,1/2+y,1/2-z
1/2-x,1/2+y,1/2+z
1/2+x,1/2-y,1/2+z
loop_
_atom_site_type_symbol
_atom_site_label
_atom_site_fract_x
_atom_site_fract_y
_atom_site_fract_z
Si Si1 0.656266 0.218550 0.216726
Si Si2 0.085075 0.600392 0.290729
Si Si3 0.182395 0.902186 0.292210
Si Si4 0.500000 0.099908 0.290284
Si Si5 0.271855 0.099963 0.212715
O O1 0.618863 0.163663 0.276712
O O2 0.658858 0.319035 0.278380
O O3 0.695235 0.167112 0.271828
O O4 0.656152 0.219562 0.000000
O O5 0.091170 0.593382 0.500000
O O6 0.086844 0.500000 0.219041
O O7 0.041634 0.637416 0.263626
O O8 0.173897 0.907602 0.500000
O O9 0.228266 0.880980 0.274652
O O10 0.176263 0.000000 0.216126
O O11 0.500000 0.095942 0.500000
O O12 0.500000 0.000000 0.216963
O O13 0.281585 0.000000 0.266975
O O14 0.271200 0.101672 0.000000
#
# Coordination Sequence:
#
# PCOD9524639 Si02
#       5
#    16  16  16   8  16
#     4   9  16  26  41  60  80 103 134 170 201 229
#     4   9  16  27  44  63  81 104 134 162 189 229
#     4   9  17  28  40  55  78 108 138 167 201 237
#     4   9  17  29  43  61  88 113 126 146 189 241
#     4   9  16  26  40  57  78 105 136 169 202 234
#
# _framework density 18.101468000000001
#
# number of rings (size 3 to 8) (size 9 to 14) (size 15 to 20)
#    0.000    3.000    0.000    1.667    0.000    4.000 
#    0.000    2.222    0.000    5.333    0.000    0.778 
#    0.000    6.222    0.000    0.000    0.000    0.000 
#
# Total GULP energy -200659.483590 kJ/mol
# GULP energy per Si atom -5573.874544 kJ/mol
# Density = 1.806027 g / cm^3
# Si number density = 18.101468 Si / 1000 Ang^3
#
#
#
# Elastic Constant Matrix: (Units=GPa)
#
#
# Indices 1 2 3 4 5 6 
#
# 1 91.7227 88.5652 -0.8367 0.0000 0.0000 0.0000
# 2 88.5652 124.2579 7.3992 0.0000 0.0000 0.0000
# 3 -0.8367 7.3992 39.1831 0.0000 0.0000 0.0000
# 4 0.0000 0.0000 0.0000 2.6244 0.0000 0.0000
# 5 0.0000 0.0000 0.0000 0.0000 11.6356 0.0000
# 6 0.0000 0.0000 0.0000 0.0000 0.0000 16.3648
#
#
#
# Elastic Compliance Matrix: (Units=1/GPa)
#
#
# Indices 1 2 3 4 5 6 
#
# 1 0.036188 -0.026133 0.005708 0.000000 0.000000 0.000000
# 2 -0.026133 0.027011 -0.005659 0.000000 0.000000 0.000000
# 3 0.005708 -0.005659 0.026712 0.000000 0.000000 0.000000
# 4 0.000000 0.000000 0.000000 0.381045 0.000000 0.000000
# 5 0.000000 0.000000 0.000000 0.000000 0.085943 0.000000
# 6 0.000000 0.000000 0.000000 0.000000 0.000000 0.061107
#
#
# Mechanical properties :
#
#
# Convention : Reuss Voigt Hill
#
# Bulk Modulus (GPa) = 26.49534 49.49099 37.99316
# Shear Modulus (GPa) = 7.32329 16.79403 12.05866
#
# Velocity S-wave (km/s) = 2.01357 3.04924 2.58383
# Velocity P-wave (km/s) = 4.48050 6.30852 5.47139
#
# Compressibility (1/GPa) = 0.03774249
#
# Stress axis : x y z
#
# Youngs Moduli (GPa) = 27.63383 37.02215 37.43689
#
# Poissons Ratio (x) = 0.96749 -0.21367
# Poissons Ratio (y) = 0.72214 0.21184
# Poissons Ratio (z) = -0.15772 0.20950
#
# Static dielectric constant tensor:
#      x y z
#    x 1.609560 0.000000 0.000000 
#    y 0.000000 1.646280 0.000000 
#    z 0.000000 0.000000 1.681170 
# 
# From -- ./inp_files/6436.got.cif
#   From: 2010.05.17/outbox.cif.g08.bks.cpg/sg71_4_cif.got.tgz:6436.got - 2010.06.03 16:22:01.
