data_PCOD9524715
_publ_section_title
;
Structure prediction by ZEFSAII (Michael W. Deem and Ramdas Pophale) SiO2 
 PCOD9524715
Probable space group: I M M M
;
_chemical_formula_sum "Si O2"
_cell_formula_units_Z 52
_cell_length_a 9.000000
_cell_length_b 30.000000
_cell_length_c 24.000000
_cell_angle_alpha 90.000000
_cell_angle_beta 90.000000
_cell_angle_gamma 90.000000
_cell_volume 6480.000000
_symmetry_space_group_name_H-M "I M M M"
_symmetry_group_IT_number 71
_symmetry_cell_setting 'orthorhombic'
loop_
_space_group_symop_operation_xyz
x,y,z
-x,-y,z
x,-y,-z
-x,y,-z
-x,-y,-z
x,y,-z
-x,y,z
x,-y,z
1/2+x,1/2+y,1/2+z
1/2-x,1/2-y,1/2+z
1/2+x,1/2-y,1/2-z
1/2-x,1/2+y,1/2-z
1/2-x,1/2-y,1/2-z
1/2+x,1/2+y,1/2-z
1/2-x,1/2+y,1/2+z
1/2+x,1/2-y,1/2+z
loop_
_atom_site_type_symbol
_atom_site_label
_atom_site_fract_x
_atom_site_fract_y
_atom_site_fract_z
Si Si1 0.321607 0.679611 0.565765
Si Si2 0.679107 0.949155 0.360379
Si Si3 0.672852 0.727650 0.067651
Si Si4 0.824342 0.500000 0.566563
Si Si5 0.821093 0.365122 0.934506
Si Si6 0.820284 0.913281 0.123049
Si Si7 0.824153 0.052111 0.241462
O O1 0.286311 0.673925 0.500000
O O2 0.500000 0.683974 0.570478
O O3 0.248438 0.725902 0.585712
O O4 0.276035 0.634557 0.597772
O O5 0.500000 0.949504 0.360910
O O6 0.727746 0.909169 0.400953
O O7 0.736122 0.939641 0.298120
O O8 0.728190 0.000000 0.375229
O O9 0.500000 0.727259 0.082963
O O10 0.750601 0.681541 0.085754
O O11 0.683682 0.727715 0.000000
O O12 0.805135 0.500000 0.500000
O O13 0.750863 0.544737 0.591321
O O14 0.000000 0.500000 0.579322
O O15 0.000000 0.361499 0.930142
O O16 0.784542 0.370522 0.000000
O O17 0.781550 0.918553 0.188244
O O18 0.000000 0.916998 0.118346
O O19 0.000000 0.057931 0.252057
O O20 0.801411 0.000000 0.225928
#
# Coordination Sequence:
#
# PCOD9524715 Si02
#       7
#    16  16  16   8  16  16  16
#     4   9  17  29  47  70  93 120 156 197 240 284
#     4   9  18  31  48  72  99 126 156 191 233 280
#     4   9  17  29  46  68  95 125 155 190 233 283
#     4  11  23  33  43  67 101 131 158 197 250 295
#     4   9  17  30  49  72  98 127 157 189 227 277
#     4  10  19  33  51  69  91 125 167 204 238 285
#     4   9  17  31  49  68  91 122 162 201 235 276
#
# _framework density 8.0246910000000007
#
# number of rings (size 3 to 8) (size 9 to 14) (size 15 to 20)
#    0.000    2.692    0.769    1.154    0.000    5.231 
#    0.000    3.077    0.000    0.923    0.000    4.308 
#    0.000    0.000    0.000    0.000    0.000    0.000 
#
# Total GULP energy -289730.619767 kJ/mol
# GULP energy per Si atom -5571.742688 kJ/mol
# Density = 0.800643 g / cm^3
# Si number density = 8.024691 Si / 1000 Ang^3
#
#
#
# Elastic Constant Matrix: (Units=GPa)
#
#
# Indices 1 2 3 4 5 6 
#
# 1 25.2953 49.8969 27.5775 0.0000 0.0000 0.0000
# 2 49.8969 181.7209 75.2972 0.0000 0.0000 0.0000
# 3 27.5775 75.2972 63.2680 0.0000 0.0000 0.0000
# 4 0.0000 0.0000 0.0000 16.7871 0.0000 0.0000
# 5 0.0000 0.0000 0.0000 0.0000 20.7827 0.0000
# 6 0.0000 0.0000 0.0000 0.0000 0.0000 17.9224
#
#
#
# Elastic Compliance Matrix: (Units=1/GPa)
#
#
# Indices 1 2 3 4 5 6 
#
# 1 0.098923 -0.018340 -0.021293 0.000000 0.000000 0.000000
# 2 -0.018340 0.014257 -0.008974 0.000000 0.000000 0.000000
# 3 -0.021293 -0.008974 0.035767 0.000000 0.000000 0.000000
# 4 0.000000 0.000000 0.000000 0.059570 0.000000 0.000000
# 5 0.000000 0.000000 0.000000 0.000000 0.048117 0.000000
# 6 0.000000 0.000000 0.000000 0.000000 0.000000 0.055796
#
#
# Mechanical properties :
#
#
# Convention : Reuss Voigt Hill
#
# Bulk Modulus (GPa) = 19.32922 63.98082 41.65502
# Shear Modulus (GPa) = 11.71273 18.93260 15.32266
#
# Velocity S-wave (km/s) = 2.70440 3.43832 3.09321
# Velocity P-wave (km/s) = 4.67134 7.46420 6.22638
#
# Compressibility (1/GPa) = 0.05173514
#
# Stress axis : x y z
#
# Youngs Moduli (GPa) = 10.10886 70.14142 27.95900
#
# Poissons Ratio (x) = 1.28637 0.59532
# Poissons Ratio (y) = 0.18539 0.25089
# Poissons Ratio (z) = 0.21524 0.62942
#
# Static dielectric constant tensor:
#      x y z
#    x 1.542600 0.000000 0.000000 
#    y 0.000000 1.531310 0.000000 
#    z 0.000000 0.000000 1.524880 
# 
# From -- ./inp_files/58014.got.cif
#   From: 2010.05.17/outbox.ucp.g08.bks.cvg/sg71_30_cif.got.tgz:58014.got - 2010.06.11 16:29:00.
