data_PCOD9524554
_publ_section_title
;
Structure prediction by ZEFSAII (Michael W. Deem and Ramdas Pophale) SiO2 
 PCOD9524554
Probable space group: I M M M
;
_chemical_formula_sum "Si O2"
_cell_formula_units_Z 80
_cell_length_a 7.411860
_cell_length_b 26.809735
_cell_length_c 20.318500
_cell_angle_alpha 90.000000
_cell_angle_beta 90.000000
_cell_angle_gamma 90.000000
_cell_volume 4037.489185
_symmetry_space_group_name_H-M "I M M M"
_symmetry_group_IT_number 71
_symmetry_cell_setting 'orthorhombic'
loop_
_space_group_symop_operation_xyz
x,y,z
-x,-y,z
x,-y,-z
-x,y,-z
-x,-y,-z
x,y,-z
-x,y,z
x,-y,z
1/2+x,1/2+y,1/2+z
1/2-x,1/2-y,1/2+z
1/2+x,1/2-y,1/2-z
1/2-x,1/2+y,1/2-z
1/2-x,1/2-y,1/2-z
1/2+x,1/2+y,1/2-z
1/2-x,1/2+y,1/2+z
1/2+x,1/2-y,1/2+z
loop_
_atom_site_type_symbol
_atom_site_label
_atom_site_fract_x
_atom_site_fract_y
_atom_site_fract_z
Si Si1 0.719742 0.056182 0.424264
Si Si2 0.220298 0.442970 0.574829
Si Si3 0.221519 0.644793 0.170770
Si Si4 0.708876 0.863637 0.820804
Si Si5 0.213016 0.246463 0.828234
O O1 0.774140 0.064800 0.500000
O O2 0.500000 0.056535 0.423429
O O3 0.779356 0.099665 0.375546
O O4 0.775553 0.000000 0.405217
O O5 0.277128 0.431561 0.500000
O O6 0.271756 0.500000 0.590227
O O7 0.286406 0.403393 0.628312
O O8 0.000000 0.441567 0.574499
O O9 0.283661 0.637414 0.246378
O O10 0.278803 0.699883 0.146093
O O11 0.000000 0.645817 0.171650
O O12 0.500000 0.877467 0.812306
O O13 0.714046 0.807270 0.848892
O O14 0.250000 0.250000 0.750000
O O15 0.000000 0.244141 0.839086
#
# Coordination Sequence:
#
# PCOD9524554 Si02
#       5
#    16  16  16  16  16
#     4   8  13  21  33  50  75 105 130 155 195 243
#     4   8  14  25  41  61  84 109 138 174 216 258
#     4   8  14  23  35  53  76 102 132 162 194 236
#     4   9  16  26  42  63  84 107 137 174 211 246
#     4   9  16  27  42  60  84 112 138 167 206 249
#
# _framework density 19.814294
#
# number of rings (size 3 to 8) (size 9 to 14) (size 15 to 20)
#    0.000    3.600    0.000    3.000    0.000    0.800 
#    0.000    5.000    0.000    2.400    0.000    1.400 
#    0.000    9.600    0.000   55.000    0.000   50.000 
#
# Total GULP energy -222759.319698 kJ/mol
# GULP energy per Si atom -5568.982992 kJ/mol
# Density = 1.976920 g / cm^3
# Si number density = 19.814294 Si / 1000 Ang^3
#
#
#
# Elastic Constant Matrix: (Units=GPa)
#
#
# Indices 1 2 3 4 5 6 
#
# 1 60.3267 -5.1093 2.1665 0.0000 0.0000 0.0000
# 2 -5.1093 191.9806 107.3962 0.0000 0.0000 0.0000
# 3 2.1665 107.3962 88.6079 -0.0001 0.0000 0.0000
# 4 0.0000 0.0000 -0.0001 -16.0359 0.0000 0.0000
# 5 0.0000 0.0000 0.0000 0.0000 -4.0097 0.0000
# 6 0.0000 0.0000 0.0000 0.0000 0.0000 11.2566
#
#
#
# Elastic Compliance Matrix: (Units=1/GPa)
#
#
# Indices 1 2 3 4 5 6 
#
# 1 0.016862 0.002110 -0.002970 0.000000 0.000000 0.000000
# 2 0.002110 0.016442 -0.019980 0.000000 0.000000 0.000000
# 3 -0.002970 -0.019980 0.035575 0.000000 0.000000 0.000000
# 4 0.000000 0.000000 0.000000 -0.062360 0.000000 0.000000
# 5 0.000000 0.000000 0.000000 0.000000 -0.249396 0.000000
# 6 0.000000 0.000000 0.000000 0.000000 0.000000 0.088837
#
#
# Mechanical properties :
#
#
# Convention : Reuss Voigt Hill
#
# Bulk Modulus (GPa) = 36.76570 61.09133 48.92852
# Shear Modulus (GPa) = -48.40536 14.00633 -17.19952
#
# Velocity S-wave (km/s) = -4.94798 2.66161 -2.94944
# Velocity P-wave (km/s) = 3.74806 6.35172 3.62605
#
# Compressibility (1/GPa) = 0.02719926
#
# Stress axis : x y z
#
# Youngs Moduli (GPa) = 59.30576 60.81965 28.10978
#
# Poissons Ratio (x) = -0.12833 0.08348
# Poissons Ratio (y) = -0.12514 0.56163
# Poissons Ratio (z) = 0.17612 1.21518
#
# Static dielectric constant tensor:
#      x y z
#    x 1.795420 0.000000 0.000000 
#    y 0.000000 1.709460 0.000000 
#    z 0.000000 0.000000 1.662910 
# 
# From -- ./inp_files/42237.got.cif
#   From: 2010.05.17/outbox.cif.g08.bks.cpg/sg71_22_cif.got.tgz:42237.got - 2010.06.03 16:22:01.
