data_PCOD9524434
_publ_section_title
;
Structure prediction by ZEFSAII (Michael W. Deem and Ramdas Pophale) SiO2 
 PCOD9524434
Probable space group: I M M M
;
_chemical_formula_sum "Si O2"
_cell_formula_units_Z 48
_cell_length_a 22.062692
_cell_length_b 12.271437
_cell_length_c 9.107136
_cell_angle_alpha 90.000000
_cell_angle_beta 90.000000
_cell_angle_gamma 90.000000
_cell_volume 2465.674515
_symmetry_space_group_name_H-M "I M M M"
_symmetry_group_IT_number 71
_symmetry_cell_setting 'orthorhombic'
loop_
_space_group_symop_operation_xyz
x,y,z
-x,-y,z
x,-y,-z
-x,y,-z
-x,-y,-z
x,y,-z
-x,y,z
x,-y,z
1/2+x,1/2+y,1/2+z
1/2-x,1/2-y,1/2+z
1/2+x,1/2-y,1/2-z
1/2-x,1/2+y,1/2-z
1/2-x,1/2-y,1/2-z
1/2+x,1/2+y,1/2-z
1/2-x,1/2+y,1/2+z
1/2+x,1/2-y,1/2+z
loop_
_atom_site_type_symbol
_atom_site_label
_atom_site_fract_x
_atom_site_fract_y
_atom_site_fract_z
Si Si1 0.905822 0.500000 0.172508
Si Si2 0.238900 0.500000 0.828925
Si Si3 0.666047 0.624753 0.668275
Si Si4 0.932126 0.726256 0.674584
O O1 0.832745 0.500000 0.184515
O O2 0.929040 0.392281 0.252111
O O3 0.921610 0.500000 0.000000
O O4 0.269933 0.395949 0.749749
O O5 0.255818 0.500000 0.000000
O O6 0.674374 0.660756 0.500000
O O7 0.641029 0.500000 0.666581
O O8 0.620074 0.701241 0.753036
O O9 0.922908 0.717916 0.500000
O O10 0.000000 0.771597 0.700250
#
# Coordination Sequence:
#
# PCOD9524434 Si02
#       4
#     8   8  16  16
#     4  11  24  40  61  87 117 156 197 240 290 343
#     4   9  19  38  61  88 118 150 191 239 292 347
#     4   9  20  38  61  90 118 150 193 239 292 345
#     4  11  24  40  60  86 118 157 197 239 289 345
#
# _framework density 19.467289999999998
#
# number of rings (size 3 to 8) (size 9 to 14) (size 15 to 20)
#    1.000    1.000    0.000    3.000    0.000    9.333 
#    0.000    3.333    0.000    0.000    0.000    0.000 
#    0.000    0.000    0.000    0.000    0.000    0.000 
#
# Total GULP energy -133915.923711 kJ/mol
# GULP energy per Si atom -5579.830155 kJ/mol
# Density = 1.942298 g / cm^3
# Si number density = 19.467290 Si / 1000 Ang^3
#
#
#
# Elastic Constant Matrix: (Units=GPa)
#
#
# Indices 1 2 3 4 5 6 
#
# 1 91.4581 9.2307 59.3008 0.0000 0.0000 0.0000
# 2 9.2307 32.8213 12.6854 0.0000 0.0000 0.0000
# 3 59.3008 12.6854 138.3603 0.0000 0.0000 0.0000
# 4 0.0000 0.0000 0.0000 37.0265 0.0000 0.0000
# 5 0.0000 0.0000 0.0000 0.0000 27.4060 0.0000
# 6 0.0000 0.0000 0.0000 0.0000 0.0000 34.1206
#
#
#
# Elastic Compliance Matrix: (Units=1/GPa)
#
#
# Indices 1 2 3 4 5 6 
#
# 1 0.015247 -0.001827 -0.006367 0.000000 0.000000 0.000000
# 2 -0.001827 0.031806 -0.002133 0.000000 0.000000 0.000000
# 3 -0.006367 -0.002133 0.010152 0.000000 0.000000 0.000000
# 4 0.000000 0.000000 0.000000 0.027008 0.000000 0.000000
# 5 0.000000 0.000000 0.000000 0.000000 0.036488 0.000000
# 6 0.000000 0.000000 0.000000 0.000000 0.000000 0.029308
#
#
# Mechanical properties :
#
#
# Convention : Reuss Voigt Hill
#
# Bulk Modulus (GPa) = 27.35944 47.23039 37.29491
# Shear Modulus (GPa) = 27.34523 31.80548 29.57536
#
# Velocity S-wave (km/s) = 3.75197 4.04640 3.90196
# Velocity P-wave (km/s) = 5.73186 6.79303 6.28488
#
# Compressibility (1/GPa) = 0.03655045
#
# Stress axis : x y z
#
# Youngs Moduli (GPa) = 65.58734 31.44032 98.50229
#
# Poissons Ratio (x) = 0.05744 0.62719
# Poissons Ratio (y) = 0.11984 0.21011
# Poissons Ratio (z) = 0.41761 0.06706
#
# Static dielectric constant tensor:
#      x y z
#    x 1.670120 0.000000 0.000000 
#    y 0.000000 1.679110 0.000000 
#    z 0.000000 0.000000 1.658920 
# 
# From -- ./inp_files/11804.got.cif
#   From: 2010.05.17/outbox.cif.g08.bks.cpg/sg71_6_cif.got.tgz:11804.got - 2010.06.03 16:22:01.
