data_PCOD9524862
_publ_section_title
;
Structure prediction by ZEFSAII (Michael W. Deem and Ramdas Pophale) SiO2 
 PCOD9524862
Probable space group: I M M M
;
_chemical_formula_sum "Si O2"
_cell_formula_units_Z 44
_cell_length_a 9.000000
_cell_length_b 24.000000
_cell_length_c 21.000000
_cell_angle_alpha 90.000000
_cell_angle_beta 90.000000
_cell_angle_gamma 90.000000
_cell_volume 4536.000000
_symmetry_space_group_name_H-M "I M M M"
_symmetry_group_IT_number 71
_symmetry_cell_setting 'orthorhombic'
loop_
_space_group_symop_operation_xyz
x,y,z
-x,-y,z
x,-y,-z
-x,y,-z
-x,-y,-z
x,y,-z
-x,y,z
x,-y,z
1/2+x,1/2+y,1/2+z
1/2-x,1/2-y,1/2+z
1/2+x,1/2-y,1/2-z
1/2-x,1/2+y,1/2-z
1/2-x,1/2-y,1/2-z
1/2+x,1/2+y,1/2-z
1/2-x,1/2+y,1/2+z
1/2+x,1/2-y,1/2+z
loop_
_atom_site_type_symbol
_atom_site_label
_atom_site_fract_x
_atom_site_fract_y
_atom_site_fract_z
Si Si1 0.833685 0.696855 0.306366
Si Si2 0.819893 0.604716 0.927631
Si Si3 0.324101 0.193837 0.332763
Si Si4 0.328546 0.500000 0.136112
Si Si5 0.330243 0.500000 0.287261
Si Si6 0.839498 0.934012 0.000000
Si Si7 0.834836 0.584204 0.627019
O O1 0.726064 0.743256 0.331810
O O2 0.782040 0.673567 0.237958
O O3 0.843207 0.647799 0.354835
O O4 0.000000 0.720992 0.296519
O O5 0.762462 0.658553 0.890304
O O6 0.756478 0.552804 0.890486
O O7 0.000000 0.602675 0.927087
O O8 0.770783 0.603991 0.000000
O O9 0.500000 0.189408 0.337539
O O10 0.500000 0.500000 0.115506
O O11 0.324215 0.500000 0.212008
O O12 0.500000 0.500000 0.309253
O O13 0.248541 0.552408 0.317196
O O14 0.751683 0.920610 0.937415
O O15 0.000000 0.906486 0.000000
O O16 0.855761 0.000000 0.000000
O O17 0.000000 0.561650 0.620429
#
# Coordination Sequence:
#
# PCOD9524862 Si02
#       7
#    16  16  16   8   8   8  16
#     4   9  19  35  56  83 111 142 183 231 279 326
#     4  10  21  38  59  82 112 148 187 230 276 332
#     4   9  18  35  58  82 111 146 184 227 276 330
#     4  11  24  38  56  85 116 147 184 228 279 334
#     4  11  23  37  55  83 116 145 183 234 281 329
#     4  11  23  39  57  79 114 152 188 231 280 333
#     4  11  22  37  59  84 112 148 189 231 278 336
#
# _framework density 9.7001760000000008
#
# number of rings (size 3 to 8) (size 9 to 14) (size 15 to 20)
#    0.000    1.909    0.909    2.727    0.000    6.909 
#    1.636    3.636    0.000    0.000    0.000    0.000 
#    0.000    0.000    0.000    0.000    0.000    0.000 
#
# Total GULP energy -244993.107009 kJ/mol
# GULP energy per Si atom -5568.025159 kJ/mol
# Density = 0.967810 g / cm^3
# Si number density = 9.700176 Si / 1000 Ang^3
#
#
#
# Elastic Constant Matrix: (Units=GPa)
#
#
# Indices 1 2 3 4 5 6 
#
# 1 26.1698 62.4026 51.9243 0.0000 0.0000 0.0000
# 2 62.4026 -65.5085 64.9169 0.0000 0.0000 0.0000
# 3 51.9243 64.9169 45.1576 0.0000 0.0000 0.0000
# 4 0.0000 0.0000 0.0000 64.6907 0.0000 0.0000
# 5 0.0000 0.0000 0.0000 0.0000 19.9305 0.0000
# 6 0.0000 0.0000 0.0000 0.0000 0.0000 14.6345
#
#
#
# Elastic Compliance Matrix: (Units=1/GPa)
#
#
# Indices 1 2 3 4 5 6 
#
# 1 -0.030683 0.002365 0.031881 0.000000 0.000000 0.000000
# 2 0.002365 -0.006478 0.006594 0.000000 0.000000 0.000000
# 3 0.031881 0.006594 -0.023992 0.000000 0.000000 0.000000
# 4 0.000000 0.000000 0.000000 0.015458 0.000000 0.000000
# 5 0.000000 0.000000 0.000000 0.000000 0.050174 0.000000
# 6 0.000000 0.000000 0.000000 0.000000 0.000000 0.068332
#
#
# Mechanical properties :
#
#
# Convention : Reuss Voigt Hill
#
# Bulk Modulus (GPa) = 48.71989 40.47849 44.59919
# Shear Modulus (GPa) = -2468.47060 8.28946 -1230.09057
#
# Velocity S-wave (km/s) = -35.70920 2.06933 -25.20778
# Velocity P-wave (km/s) = 40.92711 5.15942 28.70896
#
# Compressibility (1/GPa) = 0.02052550
#
# Stress axis : x y z
#
# Youngs Moduli (GPa) = -32.59165 -154.36191 -41.68031
#
# Poissons Ratio (x) = 0.36505 1.32880
# Poissons Ratio (y) = 0.07708 0.27483
# Poissons Ratio (z) = 1.03905 1.01781
#
# Static dielectric constant tensor:
#      x y z
#    x 1.706950 0.000000 0.000000 
#    y 0.000000 1.692130 0.000000 
#    z 0.000000 0.000000 1.599390 
# 
# From -- ./inp_files/50577.got.cif
#   From: 2010.05.17/outbox.ucp.g08.bks.cvg/sg71_26_cif.got.tgz:50577.got - 2010.06.11 16:29:00.
