data_PCOD9524878
_publ_section_title
;
Structure prediction by ZEFSAII (Michael W. Deem and Ramdas Pophale) SiO2 
 PCOD9524878
Probable space group: I M M M
;
_chemical_formula_sum "Si O2"
_cell_formula_units_Z 32
_cell_length_a 9.000000
_cell_length_b 15.000000
_cell_length_c 24.000000
_cell_angle_alpha 90.000000
_cell_angle_beta 90.000000
_cell_angle_gamma 90.000000
_cell_volume 3240.000000
_symmetry_space_group_name_H-M "I M M M"
_symmetry_group_IT_number 71
_symmetry_cell_setting 'orthorhombic'
loop_
_space_group_symop_operation_xyz
x,y,z
-x,-y,z
x,-y,-z
-x,y,-z
-x,-y,-z
x,y,-z
-x,y,z
x,-y,z
1/2+x,1/2+y,1/2+z
1/2-x,1/2-y,1/2+z
1/2+x,1/2-y,1/2-z
1/2-x,1/2+y,1/2-z
1/2-x,1/2-y,1/2-z
1/2+x,1/2+y,1/2-z
1/2-x,1/2+y,1/2+z
1/2+x,1/2-y,1/2+z
loop_
_atom_site_type_symbol
_atom_site_label
_atom_site_fract_x
_atom_site_fract_y
_atom_site_fract_z
Si Si1 0.672930 0.500000 0.815244
Si Si2 0.176586 0.342360 0.617731
Si Si3 0.168533 0.635948 0.500000
Si Si4 0.829473 0.147254 0.500000
Si Si5 0.677003 0.151849 0.615330
Si Si6 0.830452 0.500000 0.704542
O O1 0.500000 0.500000 0.829474
O O2 0.753379 0.586073 0.840044
O O3 0.704463 0.500000 0.750210
O O4 0.233463 0.386403 0.559912
O O5 0.265221 0.251713 0.626827
O O6 0.184495 0.412930 0.666523
O O7 0.000000 0.320214 0.609719
O O8 0.167160 0.744298 0.500000
O O9 0.000000 0.601772 0.500000
O O10 0.743005 0.122048 0.555631
O O11 0.000000 0.116170 0.500000
O O12 0.500000 0.148587 0.614749
O O13 0.000000 0.500000 0.728250
#
# Coordination Sequence:
#
# PCOD9524878 Si02
#       6
#     8  16   8   8  16   8
#     4  12  26  43  60  79 109 152 200 246 292 344
#     4   9  18  35  59  87 120 156 191 232 287 345
#     4   7  12  26  52  84 115 146 181 220 267 333
#     4   9  17  34  59  88 120 152 187 226 279 347
#     4  11  22  38  61  89 119 150 188 237 290 343
#     4  10  22  39  59  85 116 152 200 248 285 336
#
# _framework density 9.8765429999999999
#
# number of rings (size 3 to 8) (size 9 to 14) (size 15 to 20)
#    0.000    2.250    0.000    5.250    0.000    3.000 
#    0.000    5.000    0.000    0.000    0.000    6.125 
#    0.000    0.000    0.000    0.000    0.000    0.000 
#
# Total GULP energy -178541.243776 kJ/mol
# GULP energy per Si atom -5579.413868 kJ/mol
# Density = 0.985406 g / cm^3
# Si number density = 9.876543 Si / 1000 Ang^3
#
#
#
# Elastic Constant Matrix: (Units=GPa)
#
#
# Indices 1 2 3 4 5 6 
#
# 1 145.3436 49.1275 47.0417 0.0000 0.0000 0.0000
# 2 49.1275 79.3597 36.0155 0.0000 0.0000 0.0000
# 3 47.0417 36.0155 73.8574 0.0000 0.0000 0.0000
# 4 0.0000 0.0000 0.0000 27.3041 0.0000 0.0000
# 5 0.0000 0.0000 0.0000 0.0000 30.3669 0.0000
# 6 0.0000 0.0000 0.0000 0.0000 0.0000 12.7329
#
#
#
# Elastic Compliance Matrix: (Units=1/GPa)
#
#
# Indices 1 2 3 4 5 6 
#
# 1 0.009589 -0.004064 -0.004126 0.000000 0.000000 0.000000
# 2 -0.004064 0.017904 -0.006142 0.000000 0.000000 0.000000
# 3 -0.004126 -0.006142 0.019163 0.000000 0.000000 0.000000
# 4 0.000000 0.000000 0.000000 0.036625 0.000000 0.000000
# 5 0.000000 0.000000 0.000000 0.000000 0.032931 0.000000
# 6 0.000000 0.000000 0.000000 0.000000 0.000000 0.078537
#
#
# Mechanical properties :
#
#
# Convention : Reuss Voigt Hill
#
# Bulk Modulus (GPa) = 55.58057 62.54781 59.06419
# Shear Modulus (GPa) = 21.79509 25.17252 23.48380
#
# Velocity S-wave (km/s) = 3.32531 3.57369 3.45174
# Velocity P-wave (km/s) = 6.55304 6.98297 6.77142
#
# Compressibility (1/GPa) = 0.01799190
#
# Stress axis : x y z
#
# Youngs Moduli (GPa) = 104.28347 55.85331 52.18439
#
# Poissons Ratio (x) = 0.22697 0.21531
# Poissons Ratio (y) = 0.42378 0.32054
# Poissons Ratio (z) = 0.43028 0.34307
#
# Static dielectric constant tensor:
#      x y z
#    x 1.665230 0.000000 0.000000 
#    y 0.000000 1.708670 0.000000 
#    z 0.000000 0.000000 1.747820 
# 
# From -- ./inp_files/31219.got.cif
#   From: 2010.05.17/outbox.ucp.g08.bks.cvg/sg71_16_cif.got.tgz:31219.got - 2010.06.11 16:29:00.
