data_PCOD9524242
_publ_section_title
;
Structure prediction by ZEFSAII (Michael W. Deem and Ramdas Pophale) SiO2 
 PCOD9524242
Probable space group: I M M M
;
_chemical_formula_sum "Si O2"
_cell_formula_units_Z 104
_cell_length_a 14.926674
_cell_length_b 19.677307
_cell_length_c 18.886081
_cell_angle_alpha 90.000000
_cell_angle_beta 90.000000
_cell_angle_gamma 90.000000
_cell_volume 5547.158271
_symmetry_space_group_name_H-M "I M M M"
_symmetry_group_IT_number 71
_symmetry_cell_setting 'orthorhombic'
loop_
_space_group_symop_operation_xyz
x,y,z
-x,-y,z
x,-y,-z
-x,y,-z
-x,-y,-z
x,y,-z
-x,y,z
x,-y,z
1/2+x,1/2+y,1/2+z
1/2-x,1/2-y,1/2+z
1/2+x,1/2-y,1/2-z
1/2-x,1/2+y,1/2-z
1/2-x,1/2-y,1/2-z
1/2+x,1/2+y,1/2-z
1/2-x,1/2+y,1/2+z
1/2+x,1/2-y,1/2+z
loop_
_atom_site_type_symbol
_atom_site_label
_atom_site_fract_x
_atom_site_fract_y
_atom_site_fract_z
Si Si1 0.103265 0.582689 0.921394
Si Si2 0.608289 0.000000 0.085703
Si Si3 0.744862 0.078902 0.691121
Si Si4 0.599782 0.420876 0.414916
Si Si5 0.104141 0.105835 0.579921
Si Si6 0.221429 0.625734 0.651915
Si Si7 0.396971 0.230727 0.080890
O O1 0.107446 0.500000 0.921514
O O2 0.168301 0.607301 0.860727
O O3 0.000000 0.601239 0.909928
O O4 0.130652 0.605467 0.000000
O O5 0.657431 0.065444 0.120535
O O6 0.500000 0.000000 0.097913
O O7 0.622320 0.000000 0.000000
O O8 0.834370 0.080861 0.643682
O O9 0.741664 0.116256 0.765478
O O10 0.725323 0.000000 0.707189
O O11 0.601110 0.419610 0.500000
O O12 0.500000 0.399219 0.391682
O O13 0.611849 0.500000 0.393114
O O14 0.682826 0.379406 0.386158
O O15 0.133280 0.084530 0.500000
O O16 0.108223 0.187868 0.581975
O O17 0.000000 0.086166 0.587799
O O18 0.170641 0.694741 0.633307
O O19 0.500000 0.211559 0.096543
O O20 0.377715 0.208196 0.000000
#
# Coordination Sequence:
#
# PCOD9524242 Si02
#       7
#    16   8  16  16  16  16  16
#     4   8  15  29  48  68  94 133 175 213 256 315
#     4  11  22  34  51  79 114 153 195 233 269 318
#     4  11  22  34  50  82 116 144 177 222 284 344
#     4   9  17  30  48  68  96 140 190 229 259 306
#     4   9  20  40  63  83 105 140 190 243 292 342
#     4  12  21  33  51  80 117 151 179 227 285 332
#     4   9  19  37  60  83 107 144 194 241 284 335
#
# _framework density 18.748339000000001
#
# number of rings (size 3 to 8) (size 9 to 14) (size 15 to 20)
#    0.000    2.231    1.538    4.154    0.000    4.923 
#    0.000    0.769    0.000    0.923    0.000    4.308 
#    0.000    0.000    0.000    0.000    0.000    0.000 
#
# Total GULP energy -290124.097949 kJ/mol
# GULP energy per Si atom -5579.309576 kJ/mol
# Density = 1.870567 g / cm^3
# Si number density = 18.748339 Si / 1000 Ang^3
#
#
#
# Elastic Constant Matrix: (Units=GPa)
#
#
# Indices 1 2 3 4 5 6 
#
# 1 94.6711 14.8449 55.4229 0.0000 0.0000 0.0000
# 2 14.8449 31.1835 16.9469 0.0000 0.0000 0.0000
# 3 55.4229 16.9469 104.5315 0.0000 0.0000 0.0000
# 4 0.0000 0.0000 0.0000 29.7822 0.0000 0.0000
# 5 0.0000 0.0000 0.0000 0.0000 -48.0667 0.0000
# 6 0.0000 0.0000 0.0000 0.0000 0.0000 23.7811
#
#
#
# Elastic Compliance Matrix: (Units=1/GPa)
#
#
# Indices 1 2 3 4 5 6 
#
# 1 0.015606 -0.003216 -0.007753 0.000000 0.000000 0.000000
# 2 -0.003216 0.035829 -0.004104 0.000000 0.000000 0.000000
# 3 -0.007753 -0.004104 0.014342 0.000000 0.000000 0.000000
# 4 0.000000 0.000000 0.000000 0.033577 0.000000 0.000000
# 5 0.000000 0.000000 0.000000 0.000000 -0.020804 0.000000
# 6 0.000000 0.000000 0.000000 0.000000 0.000000 0.042050
#
#
# Mechanical properties :
#
#
# Convention : Reuss Voigt Hill
#
# Bulk Modulus (GPa) = 28.06408 44.97949 36.52178
# Shear Modulus (GPa) = 30.74596 10.64409 20.69502
#
# Velocity S-wave (km/s) = 4.05400 2.38530 3.32600
# Velocity P-wave (km/s) = 6.07573 5.62401 5.85423
#
# Compressibility (1/GPa) = 0.03563274
#
# Stress axis : x y z
#
# Youngs Moduli (GPa) = 64.07820 27.91016 69.72313
#
# Poissons Ratio (x) = 0.08975 0.54056
# Poissons Ratio (y) = 0.20606 0.28612
# Poissons Ratio (z) = 0.49680 0.11453
#
# Static dielectric constant tensor:
#      x y z
#    x 1.650500 0.000000 0.000000 
#    y 0.000000 1.657880 0.000000 
#    z 0.000000 0.000000 1.584530 
# 
# From -- ./inp_files/44947.got.cif
#   From: 2010.05.17/outbox.cif.g08.bks.cpg/sg71_23_cif.got.tgz:44947.got - 2010.06.03 16:22:01.
