data_PCOD9524600
_publ_section_title
;
Structure prediction by ZEFSAII (Michael W. Deem and Ramdas Pophale) SiO2 
 PCOD9524600
Probable space group: I M M M
;
_chemical_formula_sum "Si O2"
_cell_formula_units_Z 72
_cell_length_a 7.293948
_cell_length_b 21.818027
_cell_length_c 19.894972
_cell_angle_alpha 90.000000
_cell_angle_beta 90.000000
_cell_angle_gamma 90.000000
_cell_volume 3166.076979
_symmetry_space_group_name_H-M "I M M M"
_symmetry_group_IT_number 71
_symmetry_cell_setting 'orthorhombic'
loop_
_space_group_symop_operation_xyz
x,y,z
-x,-y,z
x,-y,-z
-x,y,-z
-x,-y,-z
x,y,-z
-x,y,z
x,-y,z
1/2+x,1/2+y,1/2+z
1/2-x,1/2-y,1/2+z
1/2+x,1/2-y,1/2-z
1/2-x,1/2+y,1/2-z
1/2-x,1/2-y,1/2-z
1/2+x,1/2+y,1/2-z
1/2-x,1/2+y,1/2+z
1/2+x,1/2-y,1/2+z
loop_
_atom_site_type_symbol
_atom_site_label
_atom_site_fract_x
_atom_site_fract_y
_atom_site_fract_z
Si Si1 0.277853 0.758981 0.425453
Si Si2 0.292811 0.340972 0.326932
Si Si3 0.224934 0.933205 0.719683
Si Si4 0.000000 0.072509 0.920345
Si Si5 0.713381 0.596604 0.073277
O O1 0.220883 0.737304 0.500000
O O2 0.500000 0.755628 0.424162
O O3 0.208969 0.716658 0.365019
O O4 0.224315 0.829741 0.420228
O O5 0.500000 0.321506 0.305465
O O6 0.209314 0.376293 0.264130
O O7 0.331170 0.393084 0.383883
O O8 0.287488 0.929089 0.642734
O O9 0.000000 0.930347 0.720738
O O10 0.274483 0.000000 0.747499
O O11 0.000000 0.000000 0.907299
O O12 0.000000 0.083094 0.000000
O O13 0.500000 0.578702 0.071482
O O14 0.791985 0.580246 0.000000
#
# Coordination Sequence:
#
# PCOD9524600 Si02
#       5
#    16  16  16   8  16
#     4   9  16  28  45  64  89 117 142 173 217 265
#     4   8  15  23  38  60  85 114 140 170 206 262
#     4   9  16  27  42  60  85 114 143 179 223 261
#     4   9  14  20  34  58  89 117 140 172 213 254
#     4   9  18  30  44  64  87 112 146 185 219 257
#
# _framework density 22.741078000000002
#
# number of rings (size 3 to 8) (size 9 to 14) (size 15 to 20)
#    0.667    2.556    0.000    1.333    0.000    1.333 
#    0.000    2.222    0.000    0.667    0.000    3.111 
#    0.000    2.667    0.000   25.111    0.000    0.000 
#
# Total GULP energy -200664.648467 kJ/mol
# GULP energy per Si atom -5574.018013 kJ/mol
# Density = 2.268932 g / cm^3
# Si number density = 22.741078 Si / 1000 Ang^3
#
#
#
# Elastic Constant Matrix: (Units=GPa)
#
#
# Indices 1 2 3 4 5 6 
#
# 1 87.9441 -3.5492 4.7253 0.0000 0.0000 0.0000
# 2 -3.5492 77.5175 37.8384 0.0000 0.0000 0.0000
# 3 4.7253 37.8384 117.7103 0.0000 0.0000 0.0000
# 4 0.0000 0.0000 0.0000 40.0432 0.0000 0.0000
# 5 0.0000 0.0000 0.0000 0.0000 -22.0758 0.0000
# 6 0.0000 0.0000 0.0000 0.0000 0.0000 -10.3393
#
#
#
# Elastic Compliance Matrix: (Units=1/GPa)
#
#
# Indices 1 2 3 4 5 6 
#
# 1 0.011447 0.000888 -0.000745 0.000000 0.000000 0.000000
# 2 0.000888 0.015370 -0.004976 0.000000 0.000000 0.000000
# 3 -0.000745 -0.004976 0.010125 0.000000 0.000000 0.000000
# 4 0.000000 0.000000 0.000000 0.024973 0.000000 0.000000
# 5 0.000000 0.000000 0.000000 0.000000 -0.045298 0.000000
# 6 0.000000 0.000000 0.000000 0.000000 0.000000 -0.096719
#
#
# Mechanical properties :
#
#
# Convention : Reuss Voigt Hill
#
# Bulk Modulus (GPa) = 36.66409 40.13344 38.39876
# Shear Modulus (GPa) = -81.50801 17.80278 -31.85261
#
# Velocity S-wave (km/s) = -5.99329 2.80098 -3.74660
# Velocity P-wave (km/s) = 5.63341 5.30537 1.33948
#
# Compressibility (1/GPa) = 0.02727465
#
# Stress axis : x y z
#
# Youngs Moduli (GPa) = 87.36141 65.06143 98.76523
#
# Poissons Ratio (x) = -0.05775 0.07357
# Poissons Ratio (y) = -0.07755 0.49150
# Poissons Ratio (z) = 0.06507 0.32377
#
# Static dielectric constant tensor:
#      x y z
#    x 1.898520 0.000000 0.000000 
#    y 0.000000 1.817120 0.000000 
#    z 0.000000 0.000000 1.862640 
# 
# From -- ./inp_files/43199.got.cif
#   From: 2010.05.17/outbox.cif.g08.bks.cpg/sg71_22_cif.got.tgz:43199.got - 2010.06.03 16:22:01.
