data_PCOD9524339
_publ_section_title
;
Structure prediction by ZEFSAII (Michael W. Deem and Ramdas Pophale) SiO2 
 PCOD9524339
Probable space group: I M M M
;
_chemical_formula_sum "Si O2"
_cell_formula_units_Z 88
_cell_length_a 24.580226
_cell_length_b 11.696008
_cell_length_c 16.476799
_cell_angle_alpha 90.000000
_cell_angle_beta 90.000000
_cell_angle_gamma 90.000000
_cell_volume 4736.923511
_symmetry_space_group_name_H-M "I M M M"
_symmetry_group_IT_number 71
_symmetry_cell_setting 'orthorhombic'
loop_
_space_group_symop_operation_xyz
x,y,z
-x,-y,z
x,-y,-z
-x,y,-z
-x,-y,-z
x,y,-z
-x,y,z
x,-y,z
1/2+x,1/2+y,1/2+z
1/2-x,1/2-y,1/2+z
1/2+x,1/2-y,1/2-z
1/2-x,1/2+y,1/2-z
1/2-x,1/2-y,1/2-z
1/2+x,1/2+y,1/2-z
1/2-x,1/2+y,1/2+z
1/2+x,1/2-y,1/2+z
loop_
_atom_site_type_symbol
_atom_site_label
_atom_site_fract_x
_atom_site_fract_y
_atom_site_fract_z
Si Si1 0.790038 0.500000 0.592466
Si Si2 0.265215 0.637186 0.000000
Si Si3 0.268546 0.279611 0.657574
Si Si4 0.000000 0.861843 0.092047
Si Si5 0.389304 0.638535 0.311882
Si Si6 0.061195 0.749357 0.659687
Si Si7 0.606688 0.636039 0.000000
Si Si8 0.580201 0.000000 0.905411
O O1 0.769981 0.500000 0.500000
O O2 0.767774 0.611869 0.634753
O O3 0.854711 0.500000 0.592259
O O4 0.241609 0.688625 0.915469
O O5 0.259598 0.500000 0.000000
O O6 0.329549 0.667427 0.000000
O O7 0.250000 0.250000 0.750000
O O8 0.331663 0.318227 0.654713
O O9 0.943063 0.831339 0.135441
O O10 0.000000 0.000000 0.090254
O O11 0.000000 0.818646 0.000000
O O12 0.387720 0.500000 0.301982
O O13 0.398370 0.703852 0.227411
O O14 0.077678 0.811592 0.577459
O O15 0.063140 0.614728 0.640840
O O16 0.000000 0.781769 0.683964
O O17 0.602558 0.500000 0.000000
O O18 0.561731 0.000000 0.000000
#
# Coordination Sequence:
#
# PCOD9524339 Si02
#       8
#     8   8  16   8  16  16   8   8
#     4  11  22  41  66  97 127 167 217 272 329 384
#     4  11  26  46  65  96 137 177 215 268 334 396
#     4  12  25  41  68  98 131 172 219 270 329 395
#     4   9  20  38  66  92 121 156 194 256 327 379
#     4  11  23  42  65  96 128 161 212 271 325 385
#     4  12  24  40  62  91 129 175 217 262 315 375
#     4  11  23  39  63  92 131 168 211 263 322 382
#     4  11  23  40  63  88 130 175 226 262 298 375
#
# _framework density 18.577456999999999
#
# number of rings (size 3 to 8) (size 9 to 14) (size 15 to 20)
#    0.000    0.818    3.636    4.364    2.545    3.273 
#    1.636    0.000    0.000    0.000    0.000    1.273 
#    0.000    0.000    0.000    0.000    0.000    0.000 
#
# Total GULP energy -245763.614029 kJ/mol
# GULP energy per Si atom -5585.536682 kJ/mol
# Density = 1.853517 g / cm^3
# Si number density = 18.577457 Si / 1000 Ang^3
#
#
#
# Elastic Constant Matrix: (Units=GPa)
#
#
# Indices 1 2 3 4 5 6 
#
# 1 108.1970 29.9156 14.3384 0.0000 0.0000 0.0000
# 2 29.9156 82.0248 39.1022 0.0000 0.0000 0.0000
# 3 14.3384 39.1022 99.6677 0.0000 0.0000 0.0000
# 4 0.0000 0.0000 0.0000 22.1870 0.0000 0.0000
# 5 0.0000 0.0000 0.0000 0.0000 44.8977 0.0000
# 6 0.0000 0.0000 0.0000 0.0000 0.0000 87.8315
#
#
#
# Elastic Compliance Matrix: (Units=1/GPa)
#
#
# Indices 1 2 3 4 5 6 
#
# 1 0.010279 -0.003744 -0.000010 0.000000 0.000000 0.000000
# 2 -0.003744 0.016360 -0.005880 0.000000 0.000000 0.000000
# 3 -0.000010 -0.005880 0.012342 0.000000 0.000000 0.000000
# 4 0.000000 0.000000 0.000000 0.045071 0.000000 0.000000
# 5 0.000000 0.000000 0.000000 0.000000 0.022273 0.000000
# 6 0.000000 0.000000 0.000000 0.000000 0.000000 0.011385
#
#
# Mechanical properties :
#
#
# Convention : Reuss Voigt Hill
#
# Bulk Modulus (GPa) = 50.72829 50.73354 50.73092
# Shear Modulus (GPa) = 34.83138 44.75212 39.79175
#
# Velocity S-wave (km/s) = 4.33474 4.91343 4.63313
# Velocity P-wave (km/s) = 7.24009 7.71735 7.48253
#
# Compressibility (1/GPa) = 0.01971287
#
# Stress axis : x y z
#
# Youngs Moduli (GPa) = 97.28628 61.12481 81.02706
#
# Poissons Ratio (x) = 0.22886 0.00079
# Poissons Ratio (y) = 0.36426 0.47642
# Poissons Ratio (z) = 0.00095 0.35940
#
# Static dielectric constant tensor:
#      x y z
#    x 1.634700 0.000000 0.000000 
#    y 0.000000 1.626840 0.000000 
#    z 0.000000 0.000000 1.266880 
# 
# From -- ./inp_files/39059.got.cif
#   From: 2010.05.17/outbox.cif.g08.bks.cpg/sg71_20_cif.got.tgz:39059.got - 2010.06.03 16:22:01.
