data_PCOD9524782
_publ_section_title
;
Structure prediction by ZEFSAII (Michael W. Deem and Ramdas Pophale) SiO2 
 PCOD9524782
Probable space group: I M M M
;
_chemical_formula_sum "Si O2"
_cell_formula_units_Z 56
_cell_length_a 15.000000
_cell_length_b 24.000000
_cell_length_c 15.000000
_cell_angle_alpha 90.000000
_cell_angle_beta 90.000000
_cell_angle_gamma 90.000000
_cell_volume 5400.000000
_symmetry_space_group_name_H-M "I M M M"
_symmetry_group_IT_number 71
_symmetry_cell_setting 'orthorhombic'
loop_
_space_group_symop_operation_xyz
x,y,z
-x,-y,z
x,-y,-z
-x,y,-z
-x,-y,-z
x,y,-z
-x,y,z
x,-y,z
1/2+x,1/2+y,1/2+z
1/2-x,1/2-y,1/2+z
1/2+x,1/2-y,1/2-z
1/2-x,1/2+y,1/2-z
1/2-x,1/2-y,1/2-z
1/2+x,1/2+y,1/2-z
1/2-x,1/2+y,1/2+z
1/2+x,1/2-y,1/2+z
loop_
_atom_site_type_symbol
_atom_site_label
_atom_site_fract_x
_atom_site_fract_y
_atom_site_fract_z
Si Si1 0.892452 0.877566 0.896925
Si Si2 0.358717 0.834108 0.600311
Si Si3 0.145492 0.168683 0.397139
Si Si4 0.640448 0.438153 0.215237
Si Si5 0.105225 0.773054 0.781883
Si Si6 0.352194 0.063422 0.710010
Si Si7 0.107253 0.565253 0.595286
O O1 0.872183 0.923162 0.820114
O O2 0.857696 0.820615 0.849703
O O3 0.000000 0.874574 0.902521
O O4 0.861222 0.885643 0.000000
O O5 0.391923 0.821814 0.500000
O O6 0.251719 0.837788 0.595050
O O7 0.378268 0.786090 0.672071
O O8 0.390297 0.893482 0.638683
O O9 0.112628 0.177079 0.500000
O O10 0.107969 0.112684 0.347919
O O11 0.134003 0.216247 0.320620
O O12 0.604189 0.500000 0.196875
O O13 0.746208 0.440509 0.197893
O O14 0.000000 0.781728 0.779769
O O15 0.364003 0.088211 0.809703
O O16 0.388519 0.000000 0.706491
O O17 0.137744 0.589598 0.500000
O O18 0.134966 0.500000 0.595944
O O19 0.000000 0.566299 0.594901
#
# Coordination Sequence:
#
# PCOD9524782 Si02
#       7
#    16  16  16  16  16  16  16
#     4   9  18  32  49  70  99 135 170 206 252 300
#     4  10  20  34  54  78 103 134 171 208 250 304
#     4   9  19  36  56  77 103 135 168 206 254 303
#     4   9  18  31  48  74 105 135 169 206 245 295
#     4  10  20  35  55  77 102 131 168 214 259 305
#     4   9  18  32  49  72 103 135 168 208 251 295
#     4   8  14  26  44  63  85 120 164 204 244 290
#
# _framework density 10.370369999999999
#
# number of rings (size 3 to 8) (size 9 to 14) (size 15 to 20)
#    0.000    2.857    0.000    1.286    0.000    3.429 
#    0.000    5.714    0.000    0.000    0.000    7.000 
#    0.000    0.000    0.000    0.000    0.000    0.000 
#
# Total GULP energy -311857.713234 kJ/mol
# GULP energy per Si atom -5568.887736 kJ/mol
# Density = 1.034677 g / cm^3
# Si number density = 10.370370 Si / 1000 Ang^3
#
#
#
# Elastic Constant Matrix: (Units=GPa)
#
#
# Indices 1 2 3 4 5 6 
#
# 1 46.0323 -3.0238 7.9975 0.0000 0.0000 0.0000
# 2 -3.0238 91.0618 67.3992 0.0001 0.0001 0.0000
# 3 7.9975 67.3992 195.1754 0.0002 0.0001 0.0000
# 4 0.0000 0.0001 0.0002 24.5737 0.0001 0.0000
# 5 0.0000 0.0001 0.0001 0.0001 61.1846 0.0000
# 6 0.0000 0.0000 0.0000 0.0000 0.0000 -14.4799
#
#
#
# Elastic Compliance Matrix: (Units=1/GPa)
#
#
# Indices 1 2 3 4 5 6 
#
# 1 0.022119 0.001888 -0.001558 0.000000 0.000000 0.000000
# 2 0.001888 0.014913 -0.005227 0.000000 0.000000 0.000000
# 3 -0.001558 -0.005227 0.006993 0.000000 0.000000 0.000000
# 4 0.000000 0.000000 0.000000 0.040694 0.000000 0.000000
# 5 0.000000 0.000000 0.000000 0.000000 0.016344 0.000000
# 6 0.000000 0.000000 0.000000 0.000000 0.000000 -0.069061
#
#
# Mechanical properties :
#
#
# Convention : Reuss Voigt Hill
#
# Bulk Modulus (GPa) = 29.21504 53.00168 41.10836
# Shear Modulus (GPa) = 93.97425 31.58212 62.77818
#
# Velocity S-wave (km/s) = 6.73850 3.90642 5.50761
# Velocity P-wave (km/s) = 8.64058 6.77914 7.76583
#
# Compressibility (1/GPa) = 0.03422895
#
# Stress axis : x y z
#
# Youngs Moduli (GPa) = 45.21081 67.05472 143.00915
#
# Poissons Ratio (x) = -0.12659 0.22284
# Poissons Ratio (y) = -0.08535 0.74755
# Poissons Ratio (z) = 0.07045 0.35051
#
# Static dielectric constant tensor:
#      x y z
#    x 1.766180 0.000000 0.000000 
#    y 0.000000 1.774690 0.000000 
#    z 0.000000 0.000000 1.785710 
# 
# From -- ./inp_files/34908.got.cif
#   From: 2010.05.17/outbox.ucp.g08.bks.cvg/sg71_18_cif.got.tgz:34908.got - 2010.06.11 16:29:00.
