data_PCOD9524315
_publ_section_title
;
Structure prediction by ZEFSAII (Michael W. Deem and Ramdas Pophale) SiO2 
 PCOD9524315
Probable space group: I M M M
;
_chemical_formula_sum "Si O2"
_cell_formula_units_Z 56
_cell_length_a 8.417128
_cell_length_b 36.708656
_cell_length_c 10.490463
_cell_angle_alpha 90.000000
_cell_angle_beta 90.000000
_cell_angle_gamma 90.000000
_cell_volume 3241.358535
_symmetry_space_group_name_H-M "I M M M"
_symmetry_group_IT_number 71
_symmetry_cell_setting 'orthorhombic'
loop_
_space_group_symop_operation_xyz
x,y,z
-x,-y,z
x,-y,-z
-x,y,-z
-x,-y,-z
x,y,-z
-x,y,z
x,-y,z
1/2+x,1/2+y,1/2+z
1/2-x,1/2-y,1/2+z
1/2+x,1/2-y,1/2-z
1/2-x,1/2+y,1/2-z
1/2-x,1/2-y,1/2-z
1/2+x,1/2+y,1/2-z
1/2-x,1/2+y,1/2+z
1/2+x,1/2-y,1/2+z
loop_
_atom_site_type_symbol
_atom_site_label
_atom_site_fract_x
_atom_site_fract_y
_atom_site_fract_z
Si Si1 0.312335 0.330459 0.761898
Si Si2 0.000000 0.542091 0.155052
Si Si3 0.183480 0.913535 0.654411
Si Si4 0.312404 0.798195 0.000000
Si Si5 0.812147 0.284194 0.000000
O O1 0.500000 0.324418 0.758112
O O2 0.286226 0.372871 0.794199
O O3 0.242762 0.318831 0.626812
O O4 0.245039 0.305725 0.875241
O O5 0.833977 0.561570 0.194235
O O6 0.000000 0.500000 0.195407
O O7 0.000000 0.542884 0.000000
O O8 0.184733 0.912168 0.500000
O O9 0.000000 0.924355 0.690435
O O10 0.500000 0.796034 0.000000
O O11 0.247472 0.757112 0.000000
O O12 0.000000 0.283686 0.000000
#
# Coordination Sequence:
#
# PCOD9524315 Si02
#       5
#    16   8  16   8   8
#     4  11  22  39  59  81 111 149 192 240 285 342
#     4   9  18  30  50  81 119 149 183 231 279 339
#     4   9  18  32  54  81 110 147 189 228 279 340
#     4  12  26  40  54  80 114 147 190 243 293 341
#     4  12  24  38  60  82 108 149 190 239 293 343
#
# _framework density 17.276706999999998
#
# number of rings (size 3 to 8) (size 9 to 14) (size 15 to 20)
#    0.000    1.571    1.429    4.286    4.000    0.571 
#    0.000    2.857    0.000    0.000    0.000    2.000 
#    0.000    4.571    0.000    0.000    0.000    0.000 
#
# Total GULP energy -156278.465776 kJ/mol
# GULP energy per Si atom -5581.373778 kJ/mol
# Density = 1.723738 g / cm^3
# Si number density = 17.276707 Si / 1000 Ang^3
#
#
#
# Elastic Constant Matrix: (Units=GPa)
#
#
# Indices 1 2 3 4 5 6 
#
# 1 190.3633 116.0836 52.7837 0.0000 0.0000 0.0000
# 2 116.0836 111.7254 39.9278 -0.0005 0.0000 0.0000
# 3 52.7837 39.9278 85.8698 -0.0008 0.0000 0.0000
# 4 0.0000 -0.0005 -0.0008 -5.7244 0.0001 -0.0001
# 5 0.0000 0.0000 0.0000 0.0001 28.3925 0.0000
# 6 0.0000 0.0000 0.0000 -0.0001 0.0000 36.9358
#
#
#
# Elastic Compliance Matrix: (Units=1/GPa)
#
#
# Indices 1 2 3 4 5 6 
#
# 1 0.014713 -0.014457 -0.002322 0.000002 0.000000 0.000000
# 2 -0.014457 0.024940 -0.002710 -0.000002 0.000000 0.000000
# 3 -0.002322 -0.002710 0.014333 -0.000002 0.000000 0.000000
# 4 0.000002 -0.000002 -0.000002 -0.174690 0.000000 0.000000
# 5 0.000000 0.000000 0.000000 0.000000 0.035221 0.000000
# 6 0.000000 0.000000 0.000000 0.000000 0.000000 0.027074
#
#
# Mechanical properties :
#
#
# Convention : Reuss Voigt Hill
#
# Bulk Modulus (GPa) = 66.63003 89.50539 78.06771
# Shear Modulus (GPa) = -346.49035 23.86501 -161.31267
#
# Velocity S-wave (km/s) = -14.17705 3.72067 -9.67330
# Velocity P-wave (km/s) = 15.14381 8.38912 8.91509
#
# Compressibility (1/GPa) = 0.01500825
#
# Stress axis : x y z
#
# Youngs Moduli (GPa) = 67.96861 40.09651 69.77052
#
# Poissons Ratio (x) = 0.57967 0.16198
# Poissons Ratio (y) = 0.98262 0.18907
# Poissons Ratio (z) = 0.15780 0.10866
#
# Static dielectric constant tensor:
#      x y z
#    x 1.554750 0.000000 0.000000 
#    y 0.000000 1.579230 0.000000 
#    z 0.000000 0.000000 1.537330 
# 
# From -- ./inp_files/18430.got.cif
#   From: 2010.05.17/outbox.cif.g08.bks.cpg/sg71_10_cif.got.tgz:18430.got - 2010.06.03 16:22:01.
