data_PCOD9524608
_publ_section_title
;
Structure prediction by ZEFSAII (Michael W. Deem and Ramdas Pophale) SiO2 
 PCOD9524608
Probable space group: I M M M
;
_chemical_formula_sum "Si O2"
_cell_formula_units_Z 56
_cell_length_a 7.787667
_cell_length_b 10.103576
_cell_length_c 37.514494
_cell_angle_alpha 90.000000
_cell_angle_beta 90.000000
_cell_angle_gamma 90.000000
_cell_volume 2951.763638
_symmetry_space_group_name_H-M "I M M M"
_symmetry_group_IT_number 71
_symmetry_cell_setting 'orthorhombic'
loop_
_space_group_symop_operation_xyz
x,y,z
-x,-y,z
x,-y,-z
-x,y,-z
-x,-y,-z
x,y,-z
-x,y,z
x,-y,z
1/2+x,1/2+y,1/2+z
1/2-x,1/2-y,1/2+z
1/2+x,1/2-y,1/2-z
1/2-x,1/2+y,1/2-z
1/2-x,1/2-y,1/2-z
1/2+x,1/2+y,1/2-z
1/2-x,1/2+y,1/2+z
1/2+x,1/2-y,1/2+z
loop_
_atom_site_type_symbol
_atom_site_label
_atom_site_fract_x
_atom_site_fract_y
_atom_site_fract_z
Si Si1 0.705327 0.348506 0.577500
Si Si2 0.293832 0.149330 0.718892
Si Si3 0.290053 0.847441 0.638752
Si Si4 0.204610 0.651386 0.500000
O O1 0.500000 0.356586 0.581555
O O2 0.773433 0.500000 0.579301
O O3 0.771668 0.253999 0.608750
O O4 0.739561 0.291695 0.537964
O O5 0.500000 0.143173 0.717091
O O6 0.250000 0.250000 0.750000
O O7 0.235034 0.188263 0.679042
O O8 0.230537 0.000000 0.726269
O O9 0.500000 0.845125 0.638161
O O10 0.239689 0.000000 0.631994
O O11 0.274301 0.500000 0.500000
O O12 0.000000 0.646878 0.500000
#
# Coordination Sequence:
#
# PCOD9524608 Si02
#       4
#    16  16  16   8
#     4   9  16  27  46  69  87 108 146 189 220 254
#     4   9  18  32  49  70  96 125 157 193 233 278
#     4   8  15  29  47  66  90 118 147 183 226 267
#     4   9  17  29  44  63  90 120 144 173 220 268
#
# _framework density 18.971706999999999
#
# number of rings (size 3 to 8) (size 9 to 14) (size 15 to 20)
#    0.000    3.286    0.000    2.143    0.000    3.429 
#    0.000    5.000    0.000   10.286    0.000    0.000 
#    0.000    0.000    0.000    0.000    0.000    0.000 
#
# Total GULP energy -155958.930211 kJ/mol
# GULP energy per Si atom -5569.961793 kJ/mol
# Density = 1.892853 g / cm^3
# Si number density = 18.971707 Si / 1000 Ang^3
#
#
#
# Elastic Constant Matrix: (Units=GPa)
#
#
# Indices 1 2 3 4 5 6 
#
# 1 22.7053 5.6918 5.8432 0.0000 0.0000 0.0000
# 2 5.6918 93.3756 120.5810 0.0000 0.0000 0.0000
# 3 5.8432 120.5810 217.9399 0.0000 0.0000 0.0000
# 4 0.0000 0.0000 0.0000 36.3429 0.0000 0.0000
# 5 0.0000 0.0000 0.0000 0.0000 18.7608 0.0000
# 6 0.0000 0.0000 0.0000 0.0000 0.0000 11.2085
#
#
#
# Elastic Compliance Matrix: (Units=1/GPa)
#
#
# Indices 1 2 3 4 5 6 
#
# 1 0.044799 -0.004132 0.001085 0.000000 0.000000 0.000000
# 2 -0.004132 0.037889 -0.020852 0.000000 0.000000 0.000000
# 3 0.001085 -0.020852 0.016096 0.000000 0.000000 0.000000
# 4 0.000000 0.000000 0.000000 0.027516 0.000000 0.000000
# 5 0.000000 0.000000 0.000000 0.000000 0.053303 0.000000
# 6 0.000000 0.000000 0.000000 0.000000 0.000000 0.089218
#
#
# Mechanical properties :
#
#
# Convention : Reuss Voigt Hill
#
# Bulk Modulus (GPa) = 19.61316 66.47253 43.04284
# Shear Modulus (GPa) = 14.98734 26.72274 20.85504
#
# Velocity S-wave (km/s) = 2.81371 3.75715 3.31912
# Velocity P-wave (km/s) = 4.57346 7.34407 6.11767
#
# Compressibility (1/GPa) = 0.05098618
#
# Stress axis : x y z
#
# Youngs Moduli (GPa) = 22.32189 26.39286 62.12553
#
# Poissons Ratio (x) = 0.10905 -0.06740
# Poissons Ratio (y) = 0.09223 1.29546
# Poissons Ratio (z) = -0.02422 0.55035
#
# Static dielectric constant tensor:
#      x y z
#    x 1.707750 0.000000 0.000000 
#    y 0.000000 1.656030 0.000000 
#    z 0.000000 0.000000 1.668750 
# 
# From -- ./inp_files/3559.got.cif
#   From: 2010.05.17/outbox.cif.g08.bks.cpg/sg71_2_cif.got.tgz:3559.got - 2010.06.03 16:22:01.
