data_PCOD9524197
_publ_section_title
;
Structure prediction by ZEFSAII (Michael W. Deem and Ramdas Pophale) SiO2 
 PCOD9524197
Probable space group: I M M M
;
_chemical_formula_sum "Si O2"
_cell_formula_units_Z 88
_cell_length_a 25.392054
_cell_length_b 19.951035
_cell_length_c 8.631335
_cell_angle_alpha 90.000000
_cell_angle_beta 90.000000
_cell_angle_gamma 90.000000
_cell_volume 4372.614960
_symmetry_space_group_name_H-M "I M M M"
_symmetry_group_IT_number 71
_symmetry_cell_setting 'orthorhombic'
loop_
_space_group_symop_operation_xyz
x,y,z
-x,-y,z
x,-y,-z
-x,y,-z
-x,-y,-z
x,y,-z
-x,y,z
x,-y,z
1/2+x,1/2+y,1/2+z
1/2-x,1/2-y,1/2+z
1/2+x,1/2-y,1/2-z
1/2-x,1/2+y,1/2-z
1/2-x,1/2-y,1/2-z
1/2+x,1/2+y,1/2-z
1/2-x,1/2+y,1/2+z
1/2+x,1/2-y,1/2+z
loop_
_atom_site_type_symbol
_atom_site_label
_atom_site_fract_x
_atom_site_fract_y
_atom_site_fract_z
Si Si1 0.848881 0.225487 0.182923
Si Si2 0.862286 0.375034 0.188351
Si Si3 0.562757 0.000000 0.689351
Si Si4 0.259626 0.634008 0.815882
Si Si5 0.804661 0.000000 0.176269
Si Si6 0.429321 0.500000 0.678163
Si Si7 0.442463 0.357006 0.182728
O O1 0.871420 0.297769 0.236468
O O2 0.794463 0.196012 0.252054
O O3 0.895032 0.174260 0.222077
O O4 0.839965 0.230483 0.000000
O O5 0.903019 0.433647 0.239088
O O6 0.800703 0.379784 0.235824
O O7 0.863865 0.378553 0.000000
O O8 0.500000 0.000000 0.735767
O O9 0.562298 0.000000 0.500000
O O10 0.288374 0.566502 0.765408
O O11 0.258281 0.641819 0.000000
O O12 0.866812 0.000000 0.169166
O O13 0.783414 0.000000 0.000000
O O14 0.447162 0.500000 0.500000
O O15 0.445091 0.565864 0.769753
O O16 0.500000 0.326354 0.216790
O O17 0.431901 0.350203 0.000000
#
# Coordination Sequence:
#
# PCOD9524197 Si02
#       7
#    16  16   8  16   8   8  16
#     4  11  22  37  57  85 121 156 195 245 297 353
#     4   9  20  36  57  88 120 151 192 240 296 358
#     4   9  17  34  60  87 116 150 192 244 300 358
#     4  11  21  36  59  85 119 162 200 240 293 354
#     4  11  22  35  55  86 120 153 192 240 286 336
#     4  11  22  37  58  82 112 148 190 243 289 333
#     4  11  24  40  58  82 114 155 202 244 286 345
#
# _framework density 20.125256
#
# number of rings (size 3 to 8) (size 9 to 14) (size 15 to 20)
#    0.000    1.545    1.818    3.545    0.000    5.455 
#    0.000    4.545    0.000    0.000    0.000    0.000 
#    0.000   12.364    0.000    0.000    0.000    0.000 
#
# Total GULP energy -245290.637566 kJ/mol
# GULP energy per Si atom -5574.787217 kJ/mol
# Density = 2.007945 g / cm^3
# Si number density = 20.125256 Si / 1000 Ang^3
#
#
#
# Elastic Constant Matrix: (Units=GPa)
#
#
# Indices 1 2 3 4 5 6 
#
# 1 141.5454 78.3731 18.4897 0.0000 0.0000 0.0000
# 2 78.3731 147.1873 10.1923 0.0000 0.0000 0.0000
# 3 18.4897 10.1923 34.2075 0.0000 0.0000 0.0000
# 4 0.0000 0.0000 0.0000 -4.5401 0.0000 0.0000
# 5 0.0000 0.0000 0.0000 0.0000 -133.8396 0.0000
# 6 0.0000 0.0000 0.0000 0.0000 0.0000 39.1430
#
#
#
# Elastic Compliance Matrix: (Units=1/GPa)
#
#
# Indices 1 2 3 4 5 6 
#
# 1 0.010557 -0.005336 -0.004116 0.000000 0.000000 0.000000
# 2 -0.005336 0.009635 0.000014 0.000000 0.000000 0.000000
# 3 -0.004116 0.000014 0.031454 0.000000 0.000000 0.000000
# 4 0.000000 0.000000 0.000000 -0.220258 0.000000 0.000000
# 5 0.000000 0.000000 0.000000 0.000000 -0.007472 0.000000
# 6 0.000000 0.000000 0.000000 0.000000 0.000000 0.025547
#
#
# Mechanical properties :
#
#
# Convention : Reuss Voigt Hill
#
# Bulk Modulus (GPa) = 30.51755 59.67227 45.09491
# Shear Modulus (GPa) = -41.41309 -5.45500 -23.43404
#
# Velocity S-wave (km/s) = -4.54118 -1.64815 -3.41605
# Velocity P-wave (km/s) = 3.50710 5.10812 2.62614
#
# Compressibility (1/GPa) = 0.03276803
#
# Stress axis : x y z
#
# Youngs Moduli (GPa) = 94.72076 103.79239 31.79222
#
# Poissons Ratio (x) = 0.55388 0.13087
# Poissons Ratio (y) = 0.50547 -0.00044
# Poissons Ratio (z) = 0.38991 -0.00143
#
# Static dielectric constant tensor:
#      x y z
#    x 1.742660 0.000000 0.000000 
#    y 0.000000 1.765770 0.000000 
#    z 0.000000 0.000000 1.689460 
# 
# From -- ./inp_files/12624.got.cif
#   From: 2010.05.17/outbox.cif.g08.bks.cpg/sg71_7_cif.got.tgz:12624.got - 2010.06.03 16:22:01.
