data_PCOD9524814
_publ_section_title
;
Structure prediction by ZEFSAII (Michael W. Deem and Ramdas Pophale) SiO2 
 PCOD9524814
Probable space group: I M M M
;
_chemical_formula_sum "Si O2"
_cell_formula_units_Z 58
_cell_length_a 18.000000
_cell_length_b 24.000000
_cell_length_c 15.000000
_cell_angle_alpha 90.000000
_cell_angle_beta 90.000000
_cell_angle_gamma 90.000000
_cell_volume 6480.000000
_symmetry_space_group_name_H-M "I M M M"
_symmetry_group_IT_number 71
_symmetry_cell_setting 'orthorhombic'
loop_
_space_group_symop_operation_xyz
x,y,z
-x,-y,z
x,-y,-z
-x,y,-z
-x,-y,-z
x,y,-z
-x,y,z
x,-y,z
1/2+x,1/2+y,1/2+z
1/2-x,1/2-y,1/2+z
1/2+x,1/2-y,1/2-z
1/2-x,1/2+y,1/2-z
1/2-x,1/2-y,1/2-z
1/2+x,1/2+y,1/2-z
1/2-x,1/2+y,1/2+z
1/2+x,1/2-y,1/2+z
loop_
_atom_site_type_symbol
_atom_site_label
_atom_site_fract_x
_atom_site_fract_y
_atom_site_fract_z
Si Si1 0.000000 0.819556 0.000000
Si Si2 0.916692 0.620851 0.773290
Si Si3 0.158511 0.565690 0.395493
Si Si4 0.418766 0.239584 0.191421
Si Si5 0.258412 0.752682 0.104921
Si Si6 0.118963 0.826199 0.164464
Si Si7 0.805933 0.065535 0.774071
Si Si8 0.775563 0.379137 0.892114
O O1 0.065612 0.819760 0.920851
O O2 0.894468 0.596389 0.675851
O O3 0.916264 0.687295 0.758763
O O4 0.856653 0.607589 0.849736
O O5 0.000000 0.602732 0.796559
O O6 0.158596 0.584826 0.500000
O O7 0.139447 0.500000 0.396977
O O8 0.238423 0.570335 0.346251
O O9 0.500000 0.236627 0.144999
O O10 0.343125 0.236396 0.134913
O O11 0.414927 0.295055 0.250236
O O12 0.198133 0.793759 0.149774
O O13 0.239790 0.687218 0.121542
O O14 0.252326 0.762050 0.000000
O O15 0.134172 0.890530 0.189165
O O16 0.778345 0.087058 0.676169
O O17 0.826514 0.000000 0.769793
O O18 0.770127 0.390043 0.000000
#
# Coordination Sequence:
#
# PCOD9524814 Si02
#       8
#     4  16  16  16  16  16  16  16
#     4  12  28  40  65 100 132 170 205 256 310 386
#     4  10  21  34  51  83 122 161 201 254 312 372
#     4   9  19  36  57  82 112 154 209 258 306 372
#     4  11  22  37  57  84 126 164 197 251 309 365
#     4  11  21  36  62  90 117 160 205 251 304 379
#     4  12  22  41  60  89 127 166 206 250 311 373
#     4  10  22  39  62  86 117 159 208 264 315 368
#     4  10  20  36  60  89 116 154 209 260 315 375
#
# _framework density 8.9506169999999994
#
# number of rings (size 3 to 8) (size 9 to 14) (size 15 to 20)
#    0.000    1.517    4.138    2.069    0.966    3.034 
#    0.000    2.759    0.000    0.000    0.000    3.862 
#    0.000    3.310    0.000    0.000    0.000    0.000 
#
# Total GULP energy -322944.371444 kJ/mol
# GULP energy per Si atom -5568.006404 kJ/mol
# Density = 0.893025 g / cm^3
# Si number density = 8.950617 Si / 1000 Ang^3
#
#
#
# Elastic Constant Matrix: (Units=GPa)
#
#
# Indices 1 2 3 4 5 6 
#
# 1 100.8632 16.5206 24.1450 0.0000 0.0000 0.0000
# 2 16.5206 79.0107 13.3180 0.0000 0.0000 0.0000
# 3 24.1450 13.3180 88.3113 0.0000 0.0000 0.0000
# 4 0.0000 0.0000 0.0000 26.8576 0.0000 0.0000
# 5 0.0000 0.0000 0.0000 0.0000 32.8569 0.0000
# 6 0.0000 0.0000 0.0000 0.0000 0.0000 0.5853
#
#
#
# Elastic Compliance Matrix: (Units=1/GPa)
#
#
# Indices 1 2 3 4 5 6 
#
# 1 0.010857 -0.001816 -0.002694 0.000000 0.000000 0.000000
# 2 -0.001816 0.013290 -0.001508 0.000000 0.000000 0.000000
# 3 -0.002694 -0.001508 0.012288 0.000000 0.000000 0.000000
# 4 0.000000 0.000000 0.000000 0.037233 0.000000 0.000000
# 5 0.000000 0.000000 0.000000 0.000000 0.030435 0.000000
# 6 0.000000 0.000000 0.000000 0.000000 0.000000 1.708521
#
#
# Mechanical properties :
#
#
# Convention : Reuss Voigt Hill
#
# Bulk Modulus (GPa) = 40.98620 41.79473 41.39046
# Shear Modulus (GPa) = 2.72808 26.34008 14.53408
#
# Velocity S-wave (km/s) = 1.23583 3.84006 2.85248
# Velocity P-wave (km/s) = 4.99818 6.56197 5.83272
#
# Compressibility (1/GPa) = 0.02439846
#
# Stress axis : x y z
#
# Youngs Moduli (GPa) = 92.10763 75.24252 81.38247
#
# Poissons Ratio (x) = 0.13663 0.21928
# Poissons Ratio (y) = 0.16726 0.12271
# Poissons Ratio (z) = 0.24818 0.11345
#
# Static dielectric constant tensor:
#      x y z
#    x 1.652730 0.000000 0.000000 
#    y 0.000000 1.629840 0.000000 
#    z 0.000000 0.000000 1.598510 
# 
# From -- ./inp_files/37009.got.cif
#   From: 2010.05.17/outbox.ucp.g08.bks.cvg/sg71_19_cif.got.tgz:37009.got - 2010.06.11 16:29:00.
