data_PCOD9524721
_publ_section_title
;
Structure prediction by ZEFSAII (Michael W. Deem and Ramdas Pophale) SiO2 
 PCOD9524721
Probable space group: I M M M
;
_chemical_formula_sum "Si O2"
_cell_formula_units_Z 52
_cell_length_a 30.000000
_cell_length_b 9.000000
_cell_length_c 21.000000
_cell_angle_alpha 90.000000
_cell_angle_beta 90.000000
_cell_angle_gamma 90.000000
_cell_volume 5670.000000
_symmetry_space_group_name_H-M "I M M M"
_symmetry_group_IT_number 71
_symmetry_cell_setting 'orthorhombic'
loop_
_space_group_symop_operation_xyz
x,y,z
-x,-y,z
x,-y,-z
-x,y,-z
-x,-y,-z
x,y,-z
-x,y,z
x,-y,z
1/2+x,1/2+y,1/2+z
1/2-x,1/2-y,1/2+z
1/2+x,1/2-y,1/2-z
1/2-x,1/2+y,1/2-z
1/2-x,1/2-y,1/2-z
1/2+x,1/2+y,1/2-z
1/2-x,1/2+y,1/2+z
1/2+x,1/2-y,1/2+z
loop_
_atom_site_type_symbol
_atom_site_label
_atom_site_fract_x
_atom_site_fract_y
_atom_site_fract_z
Si Si1 0.875280 0.320982 0.602323
Si Si2 0.775090 0.319189 0.429601
Si Si3 0.882813 0.329185 0.075423
Si Si4 0.448229 0.181263 0.000000
Si Si5 0.050943 0.823767 0.838893
Si Si6 0.194512 0.820972 0.845892
Si Si7 0.870155 0.822858 0.261578
O O1 0.875359 0.500000 0.600543
O O2 0.826562 0.272474 0.576805
O O3 0.917705 0.272309 0.560266
O O4 0.877049 0.262904 0.673580
O O5 0.758323 0.274667 0.500000
O O6 0.774912 0.500000 0.427898
O O7 0.742082 0.268154 0.373215
O O8 0.876792 0.500000 0.095945
O O9 0.929177 0.267069 0.102392
O O10 0.843086 0.231694 0.104599
O O11 0.881807 0.321803 0.000000
O O12 0.500000 0.231439 0.000000
O O13 0.449618 0.000000 0.000000
O O14 0.086571 0.797470 0.782707
O O15 0.000000 0.784876 0.823205
O O16 0.052600 0.000000 0.852894
O O17 0.174081 0.773504 0.777727
O O18 0.195367 0.000000 0.844541
O O19 0.866731 0.000000 0.272901
#
# Coordination Sequence:
#
# PCOD9524721 Si02
#       7
#    16  16  16   8  16  16  16
#     4  10  19  33  54  78 102 132 171 212 259 313
#     4   9  16  29  52  78 101 130 175 224 258 295
#     4  10  20  32  47  72 107 138 166 209 262 309
#     4   9  18  34  55  79 107 135 169 217 266 315
#     4   9  19  36  55  72  94 131 177 218 255 301
#     4   9  18  33  53  74  98 136 181 216 251 302
#     4   9  19  34  50  73 105 133 163 210 262 311
#
# _framework density 9.1710759999999993
#
# number of rings (size 3 to 8) (size 9 to 14) (size 15 to 20)
#    0.000    2.692    0.769    1.846    0.000    6.154 
#    0.000    2.692    0.000    1.385    0.000    0.000 
#    0.000    0.000    0.000    0.000    0.000    0.000 
#
# Total GULP energy -289684.724210 kJ/mol
# GULP energy per Si atom -5570.860081 kJ/mol
# Density = 0.915020 g / cm^3
# Si number density = 9.171076 Si / 1000 Ang^3
#
#
#
# Elastic Constant Matrix: (Units=GPa)
#
#
# Indices 1 2 3 4 5 6 
#
# 1 136.1903 8.9940 53.7808 0.0000 0.0000 0.0000
# 2 8.9940 -11.3313 18.1832 0.0000 0.0000 0.0000
# 3 53.7808 18.1832 93.6944 0.0000 0.0000 0.0000
# 4 0.0000 0.0000 0.0000 23.2167 0.0000 0.0000
# 5 0.0000 0.0000 0.0000 0.0000 11.2720 0.0000
# 6 0.0000 0.0000 0.0000 0.0000 0.0000 2.2350
#
#
#
# Elastic Compliance Matrix: (Units=1/GPa)
#
#
# Indices 1 2 3 4 5 6 
#
# 1 0.009482 -0.000921 -0.005264 0.000000 0.000000 0.000000
# 2 -0.000921 -0.067205 0.013571 0.000000 0.000000 0.000000
# 3 -0.005264 0.013571 0.011061 0.000000 0.000000 0.000000
# 4 0.000000 0.000000 0.000000 0.043073 0.000000 0.000000
# 5 0.000000 0.000000 0.000000 0.000000 0.088715 0.000000
# 6 0.000000 0.000000 0.000000 0.000000 0.000000 0.447436
#
#
# Mechanical properties :
#
#
# Convention : Reuss Voigt Hill
#
# Bulk Modulus (GPa) = -31.35821 42.27440 5.45809
# Shear Modulus (GPa) = 9.85881 16.51775 13.18828
#
# Velocity S-wave (km/s) = 2.32091 3.00415 2.68435
# Velocity P-wave (km/s) = 3.15455 5.92713 3.54822
#
# Compressibility (1/GPa) = -0.03188958
#
# Stress axis : x y z
#
# Youngs Moduli (GPa) = 105.46017 -14.87992 90.40856
#
# Poissons Ratio (x) = -0.01370 0.47592
# Poissons Ratio (y) = 0.09712 -1.22693
# Poissons Ratio (z) = 0.55515 0.20194
#
# Static dielectric constant tensor:
#      x y z
#    x 1.639640 0.000000 0.000000 
#    y 0.000000 1.617530 0.000000 
#    z 0.000000 0.000000 1.646070 
# 
# From -- ./inp_files/56692.got.cif
#   From: 2010.05.17/outbox.ucp.g08.bks.cvg/sg71_29_cif.got.tgz:56692.got - 2010.06.11 16:29:00.
