data_PCOD9524793
_publ_section_title
;
Structure prediction by ZEFSAII (Michael W. Deem and Ramdas Pophale) SiO2 
 PCOD9524793
Probable space group: I M M M
;
_chemical_formula_sum "Si O2"
_cell_formula_units_Z 40
_cell_length_a 27.000000
_cell_length_b 9.000000
_cell_length_c 18.000000
_cell_angle_alpha 90.000000
_cell_angle_beta 90.000000
_cell_angle_gamma 90.000000
_cell_volume 4374.000000
_symmetry_space_group_name_H-M "I M M M"
_symmetry_group_IT_number 71
_symmetry_cell_setting 'orthorhombic'
loop_
_space_group_symop_operation_xyz
x,y,z
-x,-y,z
x,-y,-z
-x,y,-z
-x,-y,-z
x,y,-z
-x,y,z
x,-y,z
1/2+x,1/2+y,1/2+z
1/2-x,1/2-y,1/2+z
1/2+x,1/2-y,1/2-z
1/2-x,1/2+y,1/2-z
1/2-x,1/2-y,1/2-z
1/2+x,1/2+y,1/2-z
1/2-x,1/2+y,1/2+z
1/2+x,1/2-y,1/2+z
loop_
_atom_site_type_symbol
_atom_site_label
_atom_site_fract_x
_atom_site_fract_y
_atom_site_fract_z
Si Si1 0.699381 0.176868 0.588189
Si Si2 0.000000 0.681572 0.414612
Si Si3 0.698902 0.178610 0.912694
Si Si4 0.403940 0.820487 0.339938
Si Si5 0.000000 0.173389 0.088637
Si Si6 0.099196 0.319180 0.667655
O O1 0.695414 0.204610 0.500000
O O2 0.749511 0.254187 0.615225
O O3 0.648518 0.227164 0.625652
O O4 0.703965 0.000000 0.599590
O O5 0.050126 0.731958 0.374839
O O6 0.000000 0.500000 0.412120
O O7 0.000000 0.725955 0.500000
O O8 0.650403 0.231473 0.869161
O O9 0.701502 0.000000 0.907390
O O10 0.693498 0.216670 0.000000
O O11 0.450904 0.750349 0.379933
O O12 0.404376 0.780058 0.253553
O O13 0.407057 0.000000 0.346533
O O14 0.000000 0.000000 0.108889
O O15 0.000000 0.186302 0.000000
O O16 0.099686 0.500000 0.663131
#
# Coordination Sequence:
#
# PCOD9524793 Si02
#       6
#    16   8  16  16   8  16
#     4   9  18  32  49  70  96 128 168 209 248 296
#     4   9  15  24  42  68  98 129 160 200 250 299
#     4   9  17  30  49  73 102 135 169 207 252 298
#     4  10  20  35  55  76 100 132 169 208 249 296
#     4  11  24  39  55  77 104 131 162 204 252 301
#     4   9  17  29  47  73 101 129 166 209 249 293
#
# _framework density 9.1449470000000002
#
# number of rings (size 3 to 8) (size 9 to 14) (size 15 to 20)
#    0.000    2.600    0.000    2.100    0.000    7.200 
#    0.000    3.000    0.000    0.000    0.000    0.000 
#    0.000    6.400    0.000    0.000    0.000    0.000 
#
# Total GULP energy -223107.238829 kJ/mol
# GULP energy per Si atom -5577.680971 kJ/mol
# Density = 0.912413 g / cm^3
# Si number density = 9.144947 Si / 1000 Ang^3
#
#
#
# Elastic Constant Matrix: (Units=GPa)
#
#
# Indices 1 2 3 4 5 6 
#
# 1 215.7163 41.5704 88.4434 0.0000 0.0000 0.0000
# 2 41.5704 6.2799 39.2732 0.0000 0.0000 0.0000
# 3 88.4434 39.2732 64.4486 0.0000 0.0000 0.0000
# 4 0.0000 0.0000 0.0000 10.7875 0.0000 0.0000
# 5 0.0000 0.0000 0.0000 0.0000 103.4646 0.0000
# 6 0.0000 0.0000 0.0000 0.0000 0.0000 40.6552
#
#
#
# Elastic Compliance Matrix: (Units=1/GPa)
#
#
# Indices 1 2 3 4 5 6 
#
# 1 0.009714 -0.006782 -0.009197 0.000000 0.000000 0.000000
# 2 -0.006782 -0.051916 0.040943 0.000000 0.000000 0.000000
# 3 -0.009197 0.040943 0.003188 0.000000 0.000000 0.000000
# 4 0.000000 0.000000 0.000000 0.092699 0.000000 0.000000
# 5 0.000000 0.000000 0.000000 0.000000 0.009665 0.000000
# 6 0.000000 0.000000 0.000000 0.000000 0.000000 0.024597
#
#
# Mechanical properties :
#
#
# Convention : Reuss Voigt Hill
#
# Bulk Modulus (GPa) = 91.62989 69.44654 80.53821
# Shear Modulus (GPa) = 120.02349 38.79198 79.40774
#
# Velocity S-wave (km/s) = 8.10958 4.61038 6.59624
# Velocity P-wave (km/s) = 11.74285 8.14819 10.10662
#
# Compressibility (1/GPa) = 0.01091347
#
# Stress axis : x y z
#
# Youngs Moduli (GPa) = 102.94949 -19.26203 313.64370
#
# Poissons Ratio (x) = -0.13063 2.88466
# Poissons Ratio (y) = 0.69819 -12.84143
# Poissons Ratio (z) = 0.94685 0.78864
#
# Static dielectric constant tensor:
#      x y z
#    x 1.607790 0.000000 0.000000 
#    y 0.000000 1.618330 0.000000 
#    z 0.000000 0.000000 1.617250 
# 
# From -- ./inp_files/8438.got.cif
#   From: 2010.05.17/outbox.ucp.g08.bks.cvg/sg71_5_cif.got.tgz:8438.got - 2010.06.11 16:29:00.
