data_PCOD9524422
_publ_section_title
;
Structure prediction by ZEFSAII (Michael W. Deem and Ramdas Pophale) SiO2 
 PCOD9524422
Probable space group: I M M M
;
_chemical_formula_sum "Si O2"
_cell_formula_units_Z 104
_cell_length_a 22.237310
_cell_length_b 9.333766
_cell_length_c 25.848195
_cell_angle_alpha 90.000000
_cell_angle_beta 90.000000
_cell_angle_gamma 90.000000
_cell_volume 5364.995729
_symmetry_space_group_name_H-M "I M M M"
_symmetry_group_IT_number 71
_symmetry_cell_setting 'orthorhombic'
loop_
_space_group_symop_operation_xyz
x,y,z
-x,-y,z
x,-y,-z
-x,y,-z
-x,-y,-z
x,y,-z
-x,y,z
x,-y,z
1/2+x,1/2+y,1/2+z
1/2-x,1/2-y,1/2+z
1/2+x,1/2-y,1/2-z
1/2-x,1/2+y,1/2-z
1/2-x,1/2-y,1/2-z
1/2+x,1/2+y,1/2-z
1/2-x,1/2+y,1/2+z
1/2+x,1/2-y,1/2+z
loop_
_atom_site_type_symbol
_atom_site_label
_atom_site_fract_x
_atom_site_fract_y
_atom_site_fract_z
Si Si1 0.929706 0.670733 0.772960
Si Si2 0.070247 0.662550 0.896996
Si Si3 0.627783 0.838387 0.938292
Si Si4 0.500000 0.825869 0.941143
Si Si5 0.810638 0.830989 0.730747
Si Si6 0.826009 0.169901 0.941535
Si Si7 0.227061 0.163947 0.612754
O O1 0.923464 0.500000 0.761665
O O2 0.924015 0.687545 0.835228
O O3 0.873531 0.756527 0.748017
O O4 0.000000 0.710354 0.759434
O O5 0.091850 0.500000 0.907336
O O6 0.107671 0.774384 0.929860
O O7 0.000000 0.669042 0.909252
O O8 0.563337 0.790050 0.915856
O O9 0.678311 0.726398 0.926139
O O10 0.642838 0.000000 0.919705
O O11 0.620254 0.849066 0.000000
O O12 0.500000 0.000000 0.944471
O O13 0.500000 0.768092 0.000000
O O14 0.750000 0.750000 0.750000
O O15 0.802411 0.824159 0.668963
O O16 0.810175 0.000000 0.746149
O O17 0.785394 0.241182 0.897412
O O18 0.821362 0.000000 0.938558
O O19 0.807250 0.212954 0.000000
O O20 0.242542 0.000000 0.603027
#
# Coordination Sequence:
#
# PCOD9524422 Si02
#       7
#    16  16  16   8  16  16  16
#     4   9  19  38  63  90 119 151 191 239 289 346
#     4   9  19  37  61  88 117 149 185 226 276 337
#     4   9  17  32  55  80 106 138 179 224 267 317
#     4   7  12  26  49  75 101 131 169 213 257 301
#     4  11  24  40  59  84 114 149 191 240 291 345
#     4  11  24  39  56  82 115 150 191 238 282 330
#     4  11  24  39  54  78 110 145 184 229 283 336
#
# _framework density 19.384917000000002
#
# number of rings (size 3 to 8) (size 9 to 14) (size 15 to 20)
#    0.000    2.231    0.000    4.615    0.000   11.077 
#    1.385    3.462    0.000    1.385    0.000    0.000 
#    0.000    0.000    0.000    0.000    0.000    0.000 
#
# Total GULP energy -289876.715798 kJ/mol
# GULP energy per Si atom -5574.552227 kJ/mol
# Density = 1.934080 g / cm^3
# Si number density = 19.384917 Si / 1000 Ang^3
#
#
#
# Elastic Constant Matrix: (Units=GPa)
#
#
# Indices 1 2 3 4 5 6 
#
# 1 109.4450 50.6923 20.5281 0.0000 0.0000 0.0000
# 2 50.6923 79.1260 31.0070 0.0000 0.0000 0.0000
# 3 20.5281 31.0070 18.7328 0.0000 0.0000 0.0000
# 4 0.0000 0.0000 0.0000 24.7950 0.0000 0.0000
# 5 0.0000 0.0000 0.0000 0.0000 20.1369 0.0000
# 6 0.0000 0.0000 0.0000 0.0000 0.0000 65.1068
#
#
#
# Elastic Compliance Matrix: (Units=1/GPa)
#
#
# Indices 1 2 3 4 5 6 
#
# 1 0.013004 -0.007817 -0.001311 0.000000 0.000000 0.000000
# 2 -0.007817 0.040667 -0.058747 0.000000 0.000000 0.000000
# 3 -0.001311 -0.058747 0.152059 0.000000 0.000000 0.000000
# 4 0.000000 0.000000 0.000000 0.040331 0.000000 0.000000
# 5 0.000000 0.000000 0.000000 0.000000 0.049660 0.000000
# 6 0.000000 0.000000 0.000000 0.000000 0.000000 0.015359
#
#
# Mechanical properties :
#
#
# Convention : Reuss Voigt Hill
#
# Bulk Modulus (GPa) = 14.28993 45.75094 30.02043
# Shear Modulus (GPa) = 10.63476 29.01284 19.82380
#
# Velocity S-wave (km/s) = 2.34478 3.87288 3.20134
# Velocity P-wave (km/s) = 3.83645 6.60693 5.40231
#
# Compressibility (1/GPa) = 0.06997935
#
# Stress axis : x y z
#
# Youngs Moduli (GPa) = 76.90199 24.58972 6.57641
#
# Poissons Ratio (x) = 0.19222 0.00862
# Poissons Ratio (y) = 0.60116 0.38635
# Poissons Ratio (z) = 0.10078 1.44458
#
# Static dielectric constant tensor:
#      x y z
#    x 1.744750 0.000000 0.000000 
#    y 0.000000 1.657980 0.000000 
#    z 0.000000 0.000000 1.696420 
# 
# From -- ./inp_files/66401.got.cif
#   From: 2010.05.17/outbox.cif.g08.bks.cpg/sg71_34_cif.got.tgz:66401.got - 2010.06.03 16:22:01.
