data_PCOD9524278
_publ_section_title
;
Structure prediction by ZEFSAII (Michael W. Deem and Ramdas Pophale) SiO2 
 PCOD9524278
Probable space group: I M M M
;
_chemical_formula_sum "Si O2"
_cell_formula_units_Z 64
_cell_length_a 14.254409
_cell_length_b 9.473081
_cell_length_c 27.935090
_cell_angle_alpha 90.000000
_cell_angle_beta 90.000000
_cell_angle_gamma 90.000000
_cell_volume 3772.163787
_symmetry_space_group_name_H-M "I M M M"
_symmetry_group_IT_number 71
_symmetry_cell_setting 'orthorhombic'
loop_
_space_group_symop_operation_xyz
x,y,z
-x,-y,z
x,-y,-z
-x,y,-z
-x,-y,-z
x,y,-z
-x,y,z
x,-y,z
1/2+x,1/2+y,1/2+z
1/2-x,1/2-y,1/2+z
1/2+x,1/2-y,1/2-z
1/2-x,1/2+y,1/2-z
1/2-x,1/2-y,1/2-z
1/2+x,1/2+y,1/2-z
1/2-x,1/2+y,1/2+z
1/2+x,1/2-y,1/2+z
loop_
_atom_site_type_symbol
_atom_site_label
_atom_site_fract_x
_atom_site_fract_y
_atom_site_fract_z
Si Si1 0.195060 0.327469 0.294514
Si Si2 0.500000 0.670794 0.219290
Si Si3 0.669981 0.243575 0.620223
Si Si4 0.885636 0.500000 0.056921
Si Si5 0.500000 0.839819 0.687464
Si Si6 0.389049 0.500000 0.445652
O O1 0.191374 0.500000 0.287482
O O2 0.250000 0.250000 0.250000
O O3 0.093609 0.251924 0.298075
O O4 0.248301 0.291174 0.343953
O O5 0.500000 0.500000 0.211834
O O6 0.500000 0.711710 0.275291
O O7 0.590942 0.181054 0.655400
O O8 0.637271 0.371942 0.588131
O O9 0.673548 0.126741 0.579342
O O10 0.000000 0.500000 0.069896
O O11 0.885182 0.500000 0.000000
O O12 0.500000 0.000000 0.708293
O O13 0.500000 0.500000 0.451248
O O14 0.349007 0.500000 0.500000
#
# Coordination Sequence:
#
# PCOD9524278 Si02
#       6
#    16   8  16   8   8   8
#     4  12  26  41  62  90 126 165 208 251 304 368
#     4  12  28  42  62  89 122 161 213 258 301 359
#     4  12  22  37  59  87 124 168 205 241 304 363
#     4  11  22  38  59  89 127 167 207 252 301 361
#     4  12  22  36  57  87 129 167 203 244 298 357
#     4  11  22  36  57  89 127 163 201 252 301 363
#
# _framework density 16.966388999999999
#
# number of rings (size 3 to 8) (size 9 to 14) (size 15 to 20)
#    0.000    0.250    7.500    2.625    5.250    2.000 
#    0.000    0.000    0.000    0.000    0.000    5.250 
#    0.000    0.000    0.000    0.000    0.000    0.000 
#
# Total GULP energy -178151.920546 kJ/mol
# GULP energy per Si atom -5567.247517 kJ/mol
# Density = 1.692777 g / cm^3
# Si number density = 16.966389 Si / 1000 Ang^3
#
#
#
# Elastic Constant Matrix: (Units=GPa)
#
#
# Indices 1 2 3 4 5 6 
#
# 1 108.0632 52.0886 48.3158 0.0000 0.0000 0.0000
# 2 52.0886 186.2051 47.0869 0.0000 0.0000 0.0000
# 3 48.3158 47.0869 111.0020 0.0000 0.0000 0.0000
# 4 0.0000 0.0000 0.0000 40.3533 0.0000 0.0000
# 5 0.0000 0.0000 0.0000 0.0000 27.1757 0.0000
# 6 0.0000 0.0000 0.0000 0.0000 0.0000 41.0305
#
#
#
# Elastic Compliance Matrix: (Units=1/GPa)
#
#
# Indices 1 2 3 4 5 6 
#
# 1 0.012341 -0.002346 -0.004377 0.000000 0.000000 0.000000
# 2 -0.002346 0.006462 -0.001720 0.000000 0.000000 0.000000
# 3 -0.004377 -0.001720 0.011644 0.000000 0.000000 0.000000
# 4 0.000000 0.000000 0.000000 0.024781 0.000000 0.000000
# 5 0.000000 0.000000 0.000000 0.000000 0.036798 0.000000
# 6 0.000000 0.000000 0.000000 0.000000 0.000000 0.024372
#
#
# Mechanical properties :
#
#
# Convention : Reuss Voigt Hill
#
# Bulk Modulus (GPa) = 73.73739 77.80588 75.77163
# Shear Modulus (GPa) = 36.28376 38.89715 37.59045
#
# Velocity S-wave (km/s) = 4.62948 4.79331 4.71211
# Velocity P-wave (km/s) = 8.49302 8.75173 8.62334
#
# Compressibility (1/GPa) = 0.01356164
#
# Stress axis : x y z
#
# Youngs Moduli (GPa) = 81.02829 154.76246 85.88416
#
# Poissons Ratio (x) = 0.36300 0.37590
# Poissons Ratio (y) = 0.19006 0.14772
# Poissons Ratio (z) = 0.35465 0.26619
#
# Static dielectric constant tensor:
#      x y z
#    x 1.529970 0.000000 0.000000 
#    y 0.000000 1.518060 0.000000 
#    z 0.000000 0.000000 1.598620 
# 
# From -- ./inp_files/3843.got.cif
#   From: 2010.05.17/outbox.cif.g08.bks.cpg/sg71_2_cif.got.tgz:3843.got - 2010.06.03 16:22:01.
