data_PCOD9524679
_publ_section_title
;
Structure prediction by ZEFSAII (Michael W. Deem and Ramdas Pophale) SiO2 
 PCOD9524679
Probable space group: I M M M
;
_chemical_formula_sum "Si O2"
_cell_formula_units_Z 52
_cell_length_a 9.000000
_cell_length_b 27.000000
_cell_length_c 24.000000
_cell_angle_alpha 90.000000
_cell_angle_beta 90.000000
_cell_angle_gamma 90.000000
_cell_volume 5832.000000
_symmetry_space_group_name_H-M "I M M M"
_symmetry_group_IT_number 71
_symmetry_cell_setting 'orthorhombic'
loop_
_space_group_symop_operation_xyz
x,y,z
-x,-y,z
x,-y,-z
-x,y,-z
-x,-y,-z
x,y,-z
-x,y,z
x,-y,z
1/2+x,1/2+y,1/2+z
1/2-x,1/2-y,1/2+z
1/2+x,1/2-y,1/2-z
1/2-x,1/2+y,1/2-z
1/2-x,1/2-y,1/2-z
1/2+x,1/2+y,1/2-z
1/2-x,1/2+y,1/2+z
1/2+x,1/2-y,1/2+z
loop_
_atom_site_type_symbol
_atom_site_label
_atom_site_fract_x
_atom_site_fract_y
_atom_site_fract_z
Si Si1 0.320645 0.688420 0.198135
Si Si2 0.333040 0.941064 0.234310
Si Si3 0.179354 0.204986 0.823695
Si Si4 0.179086 0.849474 0.937991
Si Si5 0.679827 0.942513 0.889178
Si Si6 0.318647 0.500000 0.065558
Si Si7 0.678435 0.585584 0.848246
O O1 0.500000 0.693038 0.196142
O O2 0.246006 0.739941 0.181359
O O3 0.280844 0.678980 0.263907
O O4 0.276886 0.643505 0.156741
O O5 0.500000 0.920369 0.243197
O O6 0.273740 0.925927 0.173605
O O7 0.233894 0.933498 0.288374
O O8 0.348429 0.000000 0.227854
O O9 0.228070 0.180674 0.882434
O O10 0.000000 0.207264 0.824739
O O11 0.247117 0.904083 0.930915
O O12 0.000000 0.851995 0.935831
O O13 0.219609 0.829757 0.000000
O O14 0.500000 0.939697 0.890937
O O15 0.720942 0.000000 0.898521
O O16 0.500000 0.500000 0.064980
O O17 0.271258 0.548799 0.101753
O O18 0.272061 0.500000 0.000000
O O19 0.500000 0.584215 0.849713
#
# Coordination Sequence:
#
# PCOD9524679 Si02
#       7
#    16  16  16  16  16   8  16
#     4   9  18  31  51  78 102 122 158 211 257 299
#     4   9  17  29  46  71 102 131 160 201 249 295
#     4   9  18  34  52  72 101 132 161 201 257 310
#     4  10  21  36  53  73  99 134 173 210 248 293
#     4   9  19  34  50  72 103 136 169 205 249 298
#     4   9  18  32  49  71 103 141 174 205 250 307
#     4  10  18  30  50  75 100 131 171 210 250 304
#
# _framework density 8.9163239999999995
#
# number of rings (size 3 to 8) (size 9 to 14) (size 15 to 20)
#    0.000    2.692    0.769    1.846    0.000    4.000 
#    0.000    6.923    0.000    1.846    0.000    0.000 
#    0.000    0.000    0.000    0.000    0.000    0.000 
#
# Total GULP energy -289502.687013 kJ/mol
# GULP energy per Si atom -5567.359366 kJ/mol
# Density = 0.889603 g / cm^3
# Si number density = 8.916324 Si / 1000 Ang^3
#
#
#
# Elastic Constant Matrix: (Units=GPa)
#
#
# Indices 1 2 3 4 5 6 
#
# 1 -7.2325 11.1673 13.8222 0.0000 0.0000 0.0000
# 2 11.1673 95.1446 65.2443 0.0000 0.0000 0.0000
# 3 13.8222 65.2443 137.3551 0.0000 0.0000 0.0000
# 4 0.0000 0.0000 0.0000 29.0528 0.0000 0.0000
# 5 0.0000 0.0000 0.0000 0.0000 18.2761 0.0000
# 6 0.0000 0.0000 0.0000 0.0000 0.0000 25.4243
#
#
#
# Elastic Compliance Matrix: (Units=1/GPa)
#
#
# Indices 1 2 3 4 5 6 
#
# 1 -0.111687 0.008011 0.007434 0.000000 0.000000 0.000000
# 2 0.008011 0.015013 -0.007937 0.000000 0.000000 0.000000
# 3 0.007434 -0.007937 0.010303 0.000000 0.000000 0.000000
# 4 0.000000 0.000000 0.000000 0.034420 0.000000 0.000000
# 5 0.000000 0.000000 0.000000 0.000000 0.054716 0.000000
# 6 0.000000 0.000000 0.000000 0.000000 0.000000 0.039332
#
#
# Mechanical properties :
#
#
# Convention : Reuss Voigt Hill
#
# Bulk Modulus (GPa) = -14.01421 45.08165 15.53372
# Shear Modulus (GPa) = 1516.78025 23.55286 770.16655
#
# Velocity S-wave (km/s) = 29.19606 3.63818 20.80441
# Velocity P-wave (km/s) = 33.59570 6.55620 24.20387
#
# Compressibility (1/GPa) = -0.07135614
#
# Stress axis : x y z
#
# Youngs Moduli (GPa) = -8.95358 66.60891 97.06251
#
# Poissons Ratio (x) = -0.53363 -0.72155
# Poissons Ratio (y) = 0.07173 0.77043
# Poissons Ratio (z) = 0.06656 0.52870
#
# Static dielectric constant tensor:
#      x y z
#    x 1.607590 0.000000 0.000000 
#    y 0.000000 1.643480 0.000000 
#    z 0.000000 0.000000 1.623220 
# 
# From -- ./inp_files/11489.got.cif
#   From: 2010.05.17/outbox.ucp.g08.bks.cvg/sg71_6_cif.got.tgz:11489.got - 2010.06.11 16:29:00.
