data_PCOD9524911
_publ_section_title
;
Structure prediction by ZEFSAII (Michael W. Deem and Ramdas Pophale) SiO2 
 PCOD9524911
Probable space group: I M M M
;
_chemical_formula_sum "Si O2"
_cell_formula_units_Z 32
_cell_length_a 9.000000
_cell_length_b 24.000000
_cell_length_c 15.000000
_cell_angle_alpha 90.000000
_cell_angle_beta 90.000000
_cell_angle_gamma 90.000000
_cell_volume 3240.000000
_symmetry_space_group_name_H-M "I M M M"
_symmetry_group_IT_number 71
_symmetry_cell_setting 'orthorhombic'
loop_
_space_group_symop_operation_xyz
x,y,z
-x,-y,z
x,-y,-z
-x,y,-z
-x,-y,-z
x,y,-z
-x,y,z
x,-y,z
1/2+x,1/2+y,1/2+z
1/2-x,1/2-y,1/2+z
1/2+x,1/2-y,1/2-z
1/2-x,1/2+y,1/2-z
1/2-x,1/2-y,1/2-z
1/2+x,1/2+y,1/2-z
1/2-x,1/2+y,1/2+z
1/2+x,1/2-y,1/2+z
loop_
_atom_site_type_symbol
_atom_site_label
_atom_site_fract_x
_atom_site_fract_y
_atom_site_fract_z
Si Si1 0.823644 0.500000 0.663612
Si Si2 0.326834 0.500000 0.851213
Si Si3 0.322258 0.775942 0.836728
Si Si4 0.327979 0.613402 0.394626
Si Si5 0.826916 0.906512 0.500000
Si Si6 0.822933 0.289217 0.000000
O O1 0.781702 0.500000 0.768045
O O2 0.747301 0.554267 0.622061
O O3 0.000000 0.500000 0.649617
O O4 0.500000 0.500000 0.821134
O O5 0.305865 0.446218 0.914255
O O6 0.500000 0.773130 0.836525
O O7 0.250000 0.750000 0.750000
O O8 0.266395 0.839085 0.846842
O O9 0.252644 0.740488 0.916516
O O10 0.327119 0.625618 0.500000
O O11 0.500000 0.613373 0.364437
O O12 0.719703 0.854113 0.500000
O O13 0.000000 0.887877 0.500000
O O14 0.000000 0.281041 0.000000
#
# Coordination Sequence:
#
# PCOD9524911 Si02
#       6
#     8   8  16  16   8   8
#     4  12  26  40  63  96 132 169 216 266 323 387
#     4   9  20  41  65  91 126 166 217 269 323 381
#     4  12  26  45  70  99 134 175 222 274 332 395
#     4  11  24  45  70  95 128 168 216 270 328 388
#     4   9  20  40  66  92 123 169 217 267 324 381
#     4  12  25  43  67  99 137 176 219 271 330 394
#
# _framework density 9.8765429999999999
#
# number of rings (size 3 to 8) (size 9 to 14) (size 15 to 20)
#    0.000    1.000    1.250    6.375    3.500    4.000 
#    0.000    1.250    0.000    0.000    0.000    0.000 
#    0.000    0.000    0.000    0.000    0.000    0.000 
#
# Total GULP energy -179028.343181 kJ/mol
# GULP energy per Si atom -5594.635724 kJ/mol
# Density = 0.985406 g / cm^3
# Si number density = 9.876543 Si / 1000 Ang^3
#
#
#
# Elastic Constant Matrix: (Units=GPa)
#
#
# Indices 1 2 3 4 5 6 
#
# 1 216.2362 86.4642 60.1966 0.0000 0.0000 0.0000
# 2 86.4642 151.6724 41.2231 0.0000 0.0000 0.0000
# 3 60.1966 41.2231 100.1796 -0.0001 0.0000 0.0000
# 4 0.0000 0.0000 -0.0001 17.0758 0.0000 0.0000
# 5 0.0000 0.0000 0.0000 0.0000 28.5305 0.0000
# 6 0.0000 0.0000 0.0000 0.0000 0.0000 36.3888
#
#
#
# Elastic Compliance Matrix: (Units=1/GPa)
#
#
# Indices 1 2 3 4 5 6 
#
# 1 0.006587 -0.003017 -0.002717 0.000000 0.000000 0.000000
# 2 -0.003017 0.008805 -0.001810 0.000000 0.000000 0.000000
# 3 -0.002717 -0.001810 0.012360 0.000000 0.000000 0.000000
# 4 0.000000 0.000000 0.000000 0.058562 0.000000 0.000000
# 5 0.000000 0.000000 0.000000 0.000000 0.035050 0.000000
# 6 0.000000 0.000000 0.000000 0.000000 0.000000 0.027481
#
#
# Mechanical properties :
#
#
# Convention : Reuss Voigt Hill
#
# Bulk Modulus (GPa) = 78.96570 93.76176 86.36373
# Shear Modulus (GPa) = 29.73455 35.07930 32.40692
#
# Velocity S-wave (km/s) = 3.88404 4.21870 4.05483
# Velocity P-wave (km/s) = 7.75742 8.44393 8.10794
#
# Compressibility (1/GPa) = 0.01266373
#
# Stress axis : x y z
#
# Youngs Moduli (GPa) = 151.81058 113.57191 80.90926
#
# Poissons Ratio (x) = 0.34262 0.21981
# Poissons Ratio (y) = 0.45798 0.14648
# Poissons Ratio (z) = 0.41243 0.20562
#
# Static dielectric constant tensor:
#      x y z
#    x 1.648740 0.000000 0.000000 
#    y 0.000000 1.717960 0.000000 
#    z 0.000000 0.000000 1.660770 
# 
# From -- ./inp_files/31240.got.cif
#   From: 2010.05.17/outbox.ucp.g08.bks.cvg/sg71_16_cif.got.tgz:31240.got - 2010.06.11 16:29:00.
