data_PCOD9524579
_publ_section_title
;
Structure prediction by ZEFSAII (Michael W. Deem and Ramdas Pophale) SiO2 
 PCOD9524579
Probable space group: I M M M
;
_chemical_formula_sum "Si O2"
_cell_formula_units_Z 72
_cell_length_a 7.384504
_cell_length_b 14.408821
_cell_length_c 30.255377
_cell_angle_alpha 90.000000
_cell_angle_beta 90.000000
_cell_angle_gamma 90.000000
_cell_volume 3219.232512
_symmetry_space_group_name_H-M "I M M M"
_symmetry_group_IT_number 71
_symmetry_cell_setting 'orthorhombic'
loop_
_space_group_symop_operation_xyz
x,y,z
-x,-y,z
x,-y,-z
-x,y,-z
-x,-y,-z
x,y,-z
-x,y,z
x,-y,z
1/2+x,1/2+y,1/2+z
1/2-x,1/2-y,1/2+z
1/2+x,1/2-y,1/2-z
1/2-x,1/2+y,1/2-z
1/2-x,1/2-y,1/2-z
1/2+x,1/2+y,1/2-z
1/2-x,1/2+y,1/2+z
1/2+x,1/2-y,1/2+z
loop_
_atom_site_type_symbol
_atom_site_label
_atom_site_fract_x
_atom_site_fract_y
_atom_site_fract_z
Si Si1 0.721394 0.287677 0.088334
Si Si2 0.720934 0.106182 0.868860
Si Si3 0.716660 0.108137 0.771218
Si Si4 0.278724 0.607306 0.000000
Si Si5 0.214541 0.105222 0.324797
O O1 0.500000 0.289062 0.087903
O O2 0.776822 0.180948 0.094932
O O3 0.780084 0.339196 0.044108
O O4 0.783069 0.340708 0.132619
O O5 0.500000 0.104689 0.868486
O O6 0.778083 0.140006 0.819633
O O7 0.779573 0.000000 0.875339
O O8 0.500000 0.108947 0.772553
O O9 0.765000 0.150455 0.723777
O O10 0.777572 0.000000 0.768952
O O11 0.221992 0.500000 0.000000
O O12 0.500000 0.607018 0.000000
O O13 0.000000 0.098322 0.331315
O O14 0.288981 0.000000 0.323484
#
# Coordination Sequence:
#
# PCOD9524579 Si02
#       5
#    16  16  16   8  16
#     4   9  16  25  38  56  77 103 135 169 207 247
#     4   8  14  25  39  54  75 104 136 168 201 240
#     4   8  14  25  40  57  80 112 144 169 198 241
#     4   9  16  26  39  55  78 106 133 164 206 254
#     4   9  16  25  38  59  86 111 136 170 208 243
#
# _framework density 22.365579
#
# number of rings (size 3 to 8) (size 9 to 14) (size 15 to 20)
#    0.000    3.444    0.000    2.000    0.000    3.556 
#    0.000    0.556    0.000    3.333    0.000    0.778 
#    0.000    4.444    0.000    0.000    0.000   18.889 
#
# Total GULP energy -200806.251359 kJ/mol
# GULP energy per Si atom -5577.951427 kJ/mol
# Density = 2.231467 g / cm^3
# Si number density = 22.365579 Si / 1000 Ang^3
#
#
#
# Elastic Constant Matrix: (Units=GPa)
#
#
# Indices 1 2 3 4 5 6 
#
# 1 74.8192 2.4106 2.7524 0.0000 0.0000 0.0000
# 2 2.4106 149.1368 119.0827 0.0000 0.0000 0.0000
# 3 2.7524 119.0827 188.6270 0.0000 0.0000 0.0000
# 4 0.0000 0.0000 0.0000 40.4872 0.0000 0.0000
# 5 0.0000 0.0000 0.0000 0.0000 11.4373 0.0000
# 6 0.0000 0.0000 0.0000 0.0000 0.0000 -6.7706
#
#
#
# Elastic Compliance Matrix: (Units=1/GPa)
#
#
# Indices 1 2 3 4 5 6 
#
# 1 0.013374 -0.000122 -0.000118 0.000000 0.000000 0.000000
# 2 -0.000122 0.013522 -0.008535 0.000000 0.000000 0.000000
# 3 -0.000118 -0.008535 0.010691 0.000000 0.000000 0.000000
# 4 0.000000 0.000000 0.000000 0.024699 0.000000 0.000000
# 5 0.000000 0.000000 0.000000 0.000000 0.087433 0.000000
# 6 0.000000 0.000000 0.000000 0.000000 0.000000 -0.147698
#
#
# Mechanical properties :
#
#
# Convention : Reuss Voigt Hill
#
# Bulk Modulus (GPa) = 49.90642 73.45270 61.67956
# Shear Modulus (GPa) = 190.47170 28.25329 109.36250
#
# Velocity S-wave (km/s) = 9.23839 3.55808 7.00027
# Velocity P-wave (km/s) = 11.66874 7.05642 9.64242
#
# Compressibility (1/GPa) = 0.02003750
#
# Stress axis : x y z
#
# Youngs Moduli (GPa) = 74.77291 73.95230 93.53272
#
# Poissons Ratio (x) = 0.00900 0.01107
# Poissons Ratio (y) = 0.00910 0.79830
# Poissons Ratio (z) = 0.00885 0.63118
#
# Static dielectric constant tensor:
#      x y z
#    x 1.923480 0.000000 0.000000 
#    y 0.000000 1.849590 0.000000 
#    z 0.000000 0.000000 1.798070 
# 
# From -- ./inp_files/6454.got.cif
#   From: 2010.05.17/outbox.cif.g08.bks.cpg/sg71_4_cif.got.tgz:6454.got - 2010.06.03 16:22:01.
