data_PCOD9524651
_publ_section_title
;
Structure prediction by ZEFSAII (Michael W. Deem and Ramdas Pophale) SiO2 
 PCOD9524651
Probable space group: I M M M
;
_chemical_formula_sum "Si O2"
_cell_formula_units_Z 88
_cell_length_a 20.199279
_cell_length_b 19.156926
_cell_length_c 12.449816
_cell_angle_alpha 90.000000
_cell_angle_beta 90.000000
_cell_angle_gamma 90.000000
_cell_volume 4817.532159
_symmetry_space_group_name_H-M "I M M M"
_symmetry_group_IT_number 71
_symmetry_cell_setting 'orthorhombic'
loop_
_space_group_symop_operation_xyz
x,y,z
-x,-y,z
x,-y,-z
-x,y,-z
-x,-y,-z
x,y,-z
-x,y,z
x,-y,z
1/2+x,1/2+y,1/2+z
1/2-x,1/2-y,1/2+z
1/2+x,1/2-y,1/2-z
1/2-x,1/2+y,1/2-z
1/2-x,1/2-y,1/2-z
1/2+x,1/2+y,1/2-z
1/2-x,1/2+y,1/2+z
1/2+x,1/2-y,1/2+z
loop_
_atom_site_type_symbol
_atom_site_label
_atom_site_fract_x
_atom_site_fract_y
_atom_site_fract_z
Si Si1 0.799886 0.081372 0.683580
Si Si2 0.770976 0.181389 0.876198
Si Si3 0.571288 0.654390 0.187736
Si Si4 0.641612 0.788341 0.244808
Si Si5 0.000000 0.916068 0.126477
Si Si6 0.850793 0.419167 0.122011
O O1 0.787766 0.116511 0.799423
O O2 0.863362 0.121337 0.636508
O O3 0.729404 0.089829 0.625187
O O4 0.814905 0.000000 0.689769
O O5 0.694784 0.199797 0.849791
O O6 0.816101 0.245348 0.834361
O O7 0.781904 0.167718 0.000000
O O8 0.500000 0.642806 0.133934
O O9 0.585103 0.735699 0.207391
O O10 0.560554 0.616908 0.304852
O O11 0.621288 0.861530 0.296928
O O12 0.000000 0.000000 0.136214
O O13 0.000000 0.898339 0.000000
O O14 0.863725 0.500000 0.151963
O O15 0.873542 0.407947 0.000000
#
# Coordination Sequence:
#
# PCOD9524651 Si02
#       6
#    16  16  16  16   8  16
#     4   9  17  29  45  68  96 122 149 181 222 273
#     4   9  17  28  45  67  88 113 147 188 232 271
#     4   9  19  30  43  61  88 125 158 179 215 259
#     4   9  17  30  45  64  88 116 150 187 227 270
#     4   9  18  30  42  60  86 118 156 185 208 250
#     4   9  17  29  48  71  91 115 148 189 235 274
#
# _framework density 18.266615000000002
#
# number of rings (size 3 to 8) (size 9 to 14) (size 15 to 20)
#    0.545    2.455    0.000    2.182    0.000    4.000 
#    0.000    0.000    0.000    2.727    0.000    3.818 
#    0.000    0.000    0.000    9.091    0.000    0.000 
#
# Total GULP energy -244955.220979 kJ/mol
# GULP energy per Si atom -5567.164113 kJ/mol
# Density = 1.822504 g / cm^3
# Si number density = 18.266615 Si / 1000 Ang^3
#
#
#
# Elastic Constant Matrix: (Units=GPa)
#
#
# Indices 1 2 3 4 5 6 
#
# 1 32.2892 7.8314 -10.8549 0.0000 0.0000 0.0000
# 2 7.8314 91.7752 -1.6402 0.0000 0.0000 0.0000
# 3 -10.8549 -1.6402 46.9436 0.0000 0.0000 0.0000
# 4 0.0000 0.0000 0.0000 12.0961 0.0000 0.0000
# 5 0.0000 0.0000 0.0000 0.0000 0.2995 0.0000
# 6 0.0000 0.0000 0.0000 0.0000 0.0000 21.9347
#
#
#
# Elastic Compliance Matrix: (Units=1/GPa)
#
#
# Indices 1 2 3 4 5 6 
#
# 1 0.034277 -0.002785 0.007829 0.000000 0.000000 0.000000
# 2 -0.002785 0.011129 -0.000255 0.000000 0.000000 0.000000
# 3 0.007829 -0.000255 0.023103 0.000000 0.000000 0.000000
# 4 0.000000 0.000000 0.000000 0.082671 0.000000 0.000000
# 5 0.000000 0.000000 0.000000 0.000000 3.338639 0.000000
# 6 0.000000 0.000000 0.000000 0.000000 0.000000 0.045590
#
#
# Mechanical properties :
#
#
# Convention : Reuss Voigt Hill
#
# Bulk Modulus (GPa) = 12.80621 17.96454 15.38537
# Shear Modulus (GPa) = 1.40771 18.57749 9.99260
#
# Velocity S-wave (km/s) = 0.87882 3.19253 2.34143
# Velocity P-wave (km/s) = 2.83826 4.84207 3.96871
#
# Compressibility (1/GPa) = 0.07808713
#
# Stress axis : x y z
#
# Youngs Moduli (GPa) = 29.17375 89.85297 43.28353
#
# Poissons Ratio (x) = 0.25025 -0.33885
# Poissons Ratio (y) = 0.08125 0.01104
# Poissons Ratio (z) = -0.22839 0.02293
#
# Static dielectric constant tensor:
#      x y z
#    x 1.659060 0.000000 0.000000 
#    y 0.000000 1.635090 0.000000 
#    z 0.000000 0.000000 1.610030 
# 
# From -- ./inp_files/39378.got.cif
#   From: 2010.05.17/outbox.cif.g08.bks.cpg/sg71_20_cif.got.tgz:39378.got - 2010.06.03 16:22:01.
