data_PCOD9524749
_publ_section_title
;
Structure prediction by ZEFSAII (Michael W. Deem and Ramdas Pophale) SiO2 
 PCOD9524749
Probable space group: I M M M
;
_chemical_formula_sum "Si O2"
_cell_formula_units_Z 52
_cell_length_a 21.000000
_cell_length_b 30.000000
_cell_length_c 9.000000
_cell_angle_alpha 90.000000
_cell_angle_beta 90.000000
_cell_angle_gamma 90.000000
_cell_volume 5670.000000
_symmetry_space_group_name_H-M "I M M M"
_symmetry_group_IT_number 71
_symmetry_cell_setting 'orthorhombic'
loop_
_space_group_symop_operation_xyz
x,y,z
-x,-y,z
x,-y,-z
-x,y,-z
-x,-y,-z
x,y,-z
-x,y,z
x,-y,z
1/2+x,1/2+y,1/2+z
1/2-x,1/2-y,1/2+z
1/2+x,1/2-y,1/2-z
1/2-x,1/2+y,1/2-z
1/2-x,1/2-y,1/2-z
1/2+x,1/2+y,1/2-z
1/2-x,1/2+y,1/2+z
1/2+x,1/2-y,1/2+z
loop_
_atom_site_type_symbol
_atom_site_label
_atom_site_fract_x
_atom_site_fract_y
_atom_site_fract_z
Si Si1 0.137007 0.421776 0.171567
Si Si2 0.500000 0.947843 0.679822
Si Si3 0.813093 0.320477 0.168499
Si Si4 0.930400 0.722876 0.670916
Si Si5 0.571096 0.670124 0.168558
Si Si6 0.759816 0.047467 0.178369
Si Si7 0.194829 0.143148 0.824818
O O1 0.065603 0.426152 0.230795
O O2 0.159308 0.370767 0.171055
O O3 0.187245 0.448547 0.268480
O O4 0.138948 0.437860 0.000000
O O5 0.500000 0.943713 0.500000
O O6 0.500000 0.000000 0.716475
O O7 0.868401 0.292059 0.242474
O O8 0.745887 0.323679 0.251366
O O9 0.802524 0.306146 0.000000
O O10 0.925808 0.707420 0.500000
O O11 0.931272 0.776321 0.669313
O O12 0.000000 0.707824 0.730802
O O13 0.500000 0.653687 0.201543
O O14 0.623869 0.655338 0.282526
O O15 0.588405 0.656449 0.000000
O O16 0.792533 0.092788 0.232057
O O17 0.786611 0.000000 0.230708
O O18 0.762369 0.047965 0.000000
O O19 0.205416 0.144097 0.000000
#
# Coordination Sequence:
#
# PCOD9524749 Si02
#       7
#    16   8  16  16  16  16  16
#     4   9  18  30  45  66  93 127 167 209 250 293
#     4   9  16  26  41  61  87 121 161 205 251 293
#     4  10  20  32  49  73 102 135 173 215 255 295
#     4   9  19  35  53  73 100 136 174 210 252 302
#     4   9  19  37  58  78 102 131 163 203 252 304
#     4   9  18  33  51  71  98 129 161 201 247 294
#     4  10  20  34  54  78 104 132 167 208 250 301
#
# _framework density 9.1710759999999993
#
# number of rings (size 3 to 8) (size 9 to 14) (size 15 to 20)
#    0.000    2.692    0.000    2.308    1.077    4.000 
#    0.000    1.923    0.000    1.846    0.000    3.231 
#    0.000    0.000    0.000    0.000    0.000    0.000 
#
# Total GULP energy -289648.235380 kJ/mol
# GULP energy per Si atom -5570.158373 kJ/mol
# Density = 0.915020 g / cm^3
# Si number density = 9.171076 Si / 1000 Ang^3
#
#
#
# Elastic Constant Matrix: (Units=GPa)
#
#
# Indices 1 2 3 4 5 6 
#
# 1 57.3819 12.1311 29.8641 0.0000 0.0000 0.0000
# 2 12.1311 16.1246 11.9260 0.0000 0.0000 0.0000
# 3 29.8641 11.9260 28.7242 0.0000 0.0000 0.0000
# 4 0.0000 0.0000 0.0000 12.6335 0.0000 0.0000
# 5 0.0000 0.0000 0.0000 0.0000 23.7950 0.0000
# 6 0.0000 0.0000 0.0000 0.0000 0.0000 31.9176
#
#
#
# Elastic Compliance Matrix: (Units=1/GPa)
#
#
# Indices 1 2 3 4 5 6 
#
# 1 0.037985 0.000912 -0.039871 0.000000 0.000000 0.000000
# 2 0.000912 0.089523 -0.038117 0.000000 0.000000 0.000000
# 3 -0.039871 -0.038117 0.092093 0.000000 0.000000 0.000000
# 4 0.000000 0.000000 0.000000 0.079155 0.000000 0.000000
# 5 0.000000 0.000000 0.000000 0.000000 0.042026 0.000000
# 6 0.000000 0.000000 0.000000 0.000000 0.000000 0.031331
#
#
# Mechanical properties :
#
#
# Convention : Reuss Voigt Hill
#
# Bulk Modulus (GPa) = 15.27923 23.34147 19.31035
# Shear Modulus (GPa) = 9.12274 16.88984 13.00629
#
# Velocity S-wave (km/s) = 2.23259 3.03780 2.66577
# Velocity P-wave (km/s) = 3.87223 5.00575 4.47502
#
# Compressibility (1/GPa) = 0.06544831
#
# Stress axis : x y z
#
# Youngs Moduli (GPa) = 26.32613 11.17034 10.85859
#
# Poissons Ratio (x) = -0.01018 0.43294
# Poissons Ratio (y) = -0.02400 0.41390
# Poissons Ratio (z) = 1.04965 0.42578
#
# Static dielectric constant tensor:
#      x y z
#    x 1.651410 0.000000 0.000000 
#    y 0.000000 1.660470 0.000000 
#    z 0.000000 0.000000 1.636170 
# 
# From -- ./inp_files/11457.got.cif
#   From: 2010.05.17/outbox.ucp.g08.bks.cvg/sg71_6_cif.got.tgz:11457.got - 2010.06.11 16:29:00.
