data_PCOD9524629
_publ_section_title
;
Structure prediction by ZEFSAII (Michael W. Deem and Ramdas Pophale) SiO2 
 PCOD9524629
Probable space group: I M M M
;
_chemical_formula_sum "Si O2"
_cell_formula_units_Z 104
_cell_length_a 7.415158
_cell_length_b 22.758380
_cell_length_c 28.137074
_cell_angle_alpha 90.000000
_cell_angle_beta 90.000000
_cell_angle_gamma 90.000000
_cell_volume 4748.327733
_symmetry_space_group_name_H-M "I M M M"
_symmetry_group_IT_number 71
_symmetry_cell_setting 'orthorhombic'
loop_
_space_group_symop_operation_xyz
x,y,z
-x,-y,z
x,-y,-z
-x,y,-z
-x,-y,-z
x,y,-z
-x,y,z
x,-y,z
1/2+x,1/2+y,1/2+z
1/2-x,1/2-y,1/2+z
1/2+x,1/2-y,1/2-z
1/2-x,1/2+y,1/2-z
1/2-x,1/2-y,1/2-z
1/2+x,1/2+y,1/2-z
1/2-x,1/2+y,1/2+z
1/2+x,1/2-y,1/2+z
loop_
_atom_site_type_symbol
_atom_site_label
_atom_site_fract_x
_atom_site_fract_y
_atom_site_fract_z
Si Si1 0.705532 0.906863 0.947349
Si Si2 0.794969 0.224345 0.943317
Si Si3 0.220821 0.562817 0.346608
Si Si4 0.281694 0.181300 0.795845
Si Si5 0.779950 0.431631 0.000000
Si Si6 0.721229 0.850950 0.589088
Si Si7 0.788466 0.312358 0.187958
O O1 0.500000 0.927754 0.950832
O O2 0.700667 0.837403 0.935057
O O3 0.786511 0.935647 0.900968
O O4 0.787615 0.913810 0.000000
O O5 0.718852 0.285528 0.925484
O O6 0.000000 0.218302 0.925494
O O7 0.802086 0.230821 0.000000
O O8 0.270534 0.500000 0.324602
O O9 0.280227 0.621881 0.320821
O O10 0.000000 0.565160 0.347567
O O11 0.500000 0.181698 0.795267
O O12 0.228559 0.242194 0.821300
O O13 0.214076 0.180990 0.741252
O O14 0.723152 0.397145 0.048293
O O15 0.724714 0.500000 0.000000
O O16 0.000000 0.430632 0.000000
O O17 0.500000 0.851534 0.588215
O O18 0.779231 0.852641 0.644450
O O19 0.000000 0.325719 0.191302
#
# Coordination Sequence:
#
# PCOD9524629 Si02
#       7
#    16  16  16  16   8  16  16
#     4   9  17  27  40  61  85 105 136 180 212 240
#     4   9  15  24  40  60  83 111 137 164 205 254
#     4   9  17  29  44  60  82 115 146 171 207 253
#     4   9  17  30  46  66  90 115 145 180 219 264
#     4   9  16  26  40  60  91 125 150 179 222 270
#     4   9  15  25  40  61  87 115 146 175 212 264
#     4   9  17  28  46  69  91 113 140 181 226 263
#
# _framework density 21.902446000000001
#
# number of rings (size 3 to 8) (size 9 to 14) (size 15 to 20)
#    0.000    3.000    0.769    0.923    0.000    0.308 
#    0.000    2.308    0.000    6.462    0.000    2.154 
#    0.000    6.154    0.000    0.000    0.000    0.000 
#
# Total GULP energy -289886.601818 kJ/mol
# GULP energy per Si atom -5574.742343 kJ/mol
# Density = 2.185260 g / cm^3
# Si number density = 21.902446 Si / 1000 Ang^3
#
#
#
# Elastic Constant Matrix: (Units=GPa)
#
#
# Indices 1 2 3 4 5 6 
#
# 1 71.3856 -6.2136 2.4102 0.0000 0.0000 0.0000
# 2 -6.2136 117.1981 84.0382 0.0000 0.0000 0.0000
# 3 2.4102 84.0382 134.6970 0.0000 0.0000 0.0000
# 4 0.0000 0.0000 0.0000 19.8207 0.0000 0.0000
# 5 0.0000 0.0000 0.0000 0.0000 -0.0633 0.0000
# 6 0.0000 0.0000 0.0000 0.0000 0.0000 5.4064
#
#
#
# Elastic Compliance Matrix: (Units=1/GPa)
#
#
# Indices 1 2 3 4 5 6 
#
# 1 0.014200 0.001692 -0.001310 0.000000 0.000000 0.000000
# 2 0.001692 0.015642 -0.009789 0.000000 0.000000 0.000000
# 3 -0.001310 -0.009789 0.013555 0.000000 0.000000 0.000000
# 4 0.000000 0.000000 0.000000 0.050452 0.000000 0.000000
# 5 0.000000 0.000000 0.000000 0.000000-15.785424 0.000000
# 6 0.000000 0.000000 0.000000 0.000000 0.000000 0.184966
#
#
# Mechanical properties :
#
#
# Convention : Reuss Voigt Hill
#
# Bulk Modulus (GPa) = 40.67885 53.75002 47.21444
# Shear Modulus (GPa) = -0.32301 21.23581 10.45640
#
# Velocity S-wave (km/s) = -0.38444 3.11716 2.18734
# Velocity P-wave (km/s) = 4.29139 6.12776 5.28987
#
# Compressibility (1/GPa) = 0.02458280
#
# Stress axis : x y z
#
# Youngs Moduli (GPa) = 70.42291 63.93141 73.77311
#
# Poissons Ratio (x) = -0.10817 0.09662
# Poissons Ratio (y) = -0.11916 0.72218
# Poissons Ratio (z) = 0.09224 0.62584
#
# Static dielectric constant tensor:
#      x y z
#    x 2.126080 0.000000 0.000000 
#    y 0.000000 1.779900 0.000000 
#    z 0.000000 0.000000 1.838940 
# 
# From -- ./inp_files/63532.got.cif
#   From: 2010.05.17/outbox.cif.g08.bks.cpg/sg71_32_cif.got.tgz:63532.got - 2010.06.03 16:22:01.
