data_PCOD9524318
_publ_section_title
;
Structure prediction by ZEFSAII (Michael W. Deem and Ramdas Pophale) SiO2 
 PCOD9524318
Probable space group: I M M M
;
_chemical_formula_sum "Si O2"
_cell_formula_units_Z 42
_cell_length_a 10.132651
_cell_length_b 23.654910
_cell_length_c 7.691631
_cell_angle_alpha 90.000000
_cell_angle_beta 90.000000
_cell_angle_gamma 90.000000
_cell_volume 1843.583555
_symmetry_space_group_name_H-M "I M M M"
_symmetry_group_IT_number 71
_symmetry_cell_setting 'orthorhombic'
loop_
_space_group_symop_operation_xyz
x,y,z
-x,-y,z
x,-y,-z
-x,y,-z
-x,-y,-z
x,y,-z
-x,y,z
x,-y,z
1/2+x,1/2+y,1/2+z
1/2-x,1/2-y,1/2+z
1/2+x,1/2-y,1/2-z
1/2-x,1/2+y,1/2-z
1/2-x,1/2-y,1/2-z
1/2+x,1/2+y,1/2-z
1/2-x,1/2+y,1/2+z
1/2+x,1/2-y,1/2+z
loop_
_atom_site_type_symbol
_atom_site_label
_atom_site_fract_x
_atom_site_fract_y
_atom_site_fract_z
Si Si1 0.000000 0.794360 0.712117
Si Si2 0.500000 0.164617 0.790571
Si Si3 0.278769 0.000000 0.808891
Si Si4 0.215950 0.117669 0.703260
Si Si5 0.000000 0.500000 0.000000
O O1 0.000000 0.729718 0.770964
O O2 0.873144 0.830556 0.768741
O O3 0.000000 0.791533 0.500000
O O4 0.368907 0.133972 0.725565
O O5 0.500000 0.163128 0.000000
O O6 0.195613 0.057436 0.791155
O O7 0.384526 0.000000 0.653112
O O8 0.341730 0.000000 0.000000
O O9 0.186156 0.111123 0.500000
#
# Coordination Sequence:
#
# PCOD9524318 Si02
#       5
#     8   8   8  16   2
#     4   9  22  41  66  91 131 179 226 268 330 404
#     4  11  22  39  62  97 129 171 225 280 328 390
#     4  12  25  42  66 101 134 172 222 278 330 398
#     4  11  22  42  65  95 131 178 221 273 336 396
#     4  12  22  44  64  96 132 176 214 270 332 384
#
# _framework density 22.781717
#
# number of rings (size 3 to 8) (size 9 to 14) (size 15 to 20)
#    0.000    1.143    1.905    4.286    0.000    0.762 
#    0.000   13.333    0.000    0.000    0.000    0.000 
#    0.000    0.000    0.000    0.000    0.000    0.000 
#
# Total GULP energy -117267.168385 kJ/mol
# GULP energy per Si atom -5584.150875 kJ/mol
# Density = 2.272986 g / cm^3
# Si number density = 22.781717 Si / 1000 Ang^3
#
#
#
# Elastic Constant Matrix: (Units=GPa)
#
#
# Indices 1 2 3 4 5 6 
#
# 1 63.1605 21.6452 -16.8809 0.0002 0.0005 0.0000
# 2 21.6452 190.4548 4.9377 0.0007 -0.0002 0.0000
# 3 -16.8809 4.9377 127.2626 0.0028 -0.0002 0.0002
# 4 0.0002 0.0007 0.0028 26.9138 -0.0006 0.0000
# 5 0.0005 -0.0002 -0.0002 -0.0006 -26.4145 -0.0003
# 6 0.0000 0.0000 0.0002 0.0000 -0.0003 71.5346
#
#
#
# Elastic Compliance Matrix: (Units=1/GPa)
#
#
# Indices 1 2 3 4 5 6 
#
# 1 0.017150 -0.002010 0.002353 0.000000 0.000000 0.000000
# 2 -0.002010 0.005491 -0.000480 0.000000 0.000000 0.000000
# 3 0.002353 -0.000480 0.008188 -0.000001 0.000000 0.000000
# 4 0.000000 0.000000 -0.000001 0.037156 -0.000001 0.000000
# 5 0.000000 0.000000 0.000000 -0.000001 -0.037858 0.000000
# 6 0.000000 0.000000 0.000000 0.000000 0.000000 0.013979
#
#
# Mechanical properties :
#
#
# Convention : Reuss Voigt Hill
#
# Bulk Modulus (GPa) = 32.72619 44.47576 38.60098
# Shear Modulus (GPa) = 91.63077 39.15182 65.39130
#
# Velocity S-wave (km/s) = 6.34890 4.15005 5.36337
# Velocity P-wave (km/s) = 8.25475 6.52142 7.43874
#
# Compressibility (1/GPa) = 0.03055657
#
# Stress axis : x y z
#
# Youngs Moduli (GPa) = 58.30753 182.10026 122.12267
#
# Poissons Ratio (x) = 0.36605 -0.28735
# Poissons Ratio (y) = 0.11721 0.05858
# Poissons Ratio (z) = -0.13719 0.08735
#
# Static dielectric constant tensor:
#      x y z
#    x 1.804900 0.000000 0.000000 
#    y 0.000000 1.857120 0.000000 
#    z 0.000000 0.000000 1.841210 
# 
# From -- ./inp_files/2895.got.cif
#   From: 2010.05.17/outbox.cif.g08.bks.cpg/sg71_2_cif.got.tgz:2895.got - 2010.06.03 16:22:01.
