data_PCOD9524177
_publ_section_title
;
Structure prediction by ZEFSAII (Michael W. Deem and Ramdas Pophale) SiO2 
 PCOD9524177
Probable space group: I M M M
;
_chemical_formula_sum "Si O2"
_cell_formula_units_Z 96
_cell_length_a 24.232122
_cell_length_b 26.120100
_cell_length_c 8.519933
_cell_angle_alpha 90.000000
_cell_angle_beta 90.000000
_cell_angle_gamma 90.000000
_cell_volume 5392.652825
_symmetry_space_group_name_H-M "I M M M"
_symmetry_group_IT_number 71
_symmetry_cell_setting 'orthorhombic'
loop_
_space_group_symop_operation_xyz
x,y,z
-x,-y,z
x,-y,-z
-x,y,-z
-x,-y,-z
x,y,-z
-x,y,z
x,-y,z
1/2+x,1/2+y,1/2+z
1/2-x,1/2-y,1/2+z
1/2+x,1/2-y,1/2-z
1/2-x,1/2+y,1/2-z
1/2-x,1/2-y,1/2-z
1/2+x,1/2+y,1/2-z
1/2-x,1/2+y,1/2+z
1/2+x,1/2-y,1/2+z
loop_
_atom_site_type_symbol
_atom_site_label
_atom_site_fract_x
_atom_site_fract_y
_atom_site_fract_z
Si Si1 0.436460 0.309169 0.689543
Si Si2 0.936840 0.000000 0.308681
Si Si3 0.633469 0.903916 0.688512
Si Si4 0.365558 0.597974 0.187941
Si Si5 0.249795 0.059555 0.187959
Si Si6 0.435677 0.000000 0.811557
Si Si7 0.437114 0.192088 0.308899
O O1 0.434106 0.311013 0.500000
O O2 0.500000 0.321241 0.735538
O O3 0.394166 0.349841 0.757905
O O4 0.424937 0.250494 0.738736
O O5 0.904059 0.050558 0.258337
O O6 0.937605 0.000000 0.500000
O O7 0.000000 0.000000 0.254450
O O8 0.634649 0.904010 0.500000
O O9 0.694684 0.914214 0.750539
O O10 0.594922 0.950165 0.746032
O O11 0.606096 0.850624 0.743380
O O12 0.304771 0.588239 0.254137
O O13 0.362969 0.596789 0.000000
O O14 0.248212 0.000000 0.242340
O O15 0.250832 0.059225 0.000000
O O16 0.500000 0.000000 0.767184
O O17 0.431373 0.000000 0.000000
O O18 0.437158 0.191811 0.500000
O O19 0.500000 0.179417 0.259752
#
# Coordination Sequence:
#
# PCOD9524177 Si02
#       7
#    16   8  16  16  16   8  16
#     4   9  18  35  58  83 114 149 182 221 276 336
#     4   9  18  31  49  76 109 138 164 211 274 323
#     4  11  21  35  59  85 109 141 189 236 277 329
#     4  11  21  35  56  81 111 144 187 231 272 325
#     4  11  23  39  57  77 110 150 186 226 280 338
#     4  11  23  36  51  78 117 152 180 221 280 337
#     4   8  16  33  57  84 113 145 181 225 277 330
#
# _framework density 17.802
#
# number of rings (size 3 to 8) (size 9 to 14) (size 15 to 20)
#    0.000    2.000    1.667    3.750    0.000    3.000 
#    0.000    2.500    0.000    4.000    0.000    0.000 
#    0.000    0.000    0.000    0.000    0.000    0.000 
#
# Total GULP energy -268012.860315 kJ/mol
# GULP energy per Si atom -5583.601257 kJ/mol
# Density = 1.776148 g / cm^3
# Si number density = 17.802000 Si / 1000 Ang^3
#
#
#
# Elastic Constant Matrix: (Units=GPa)
#
#
# Indices 1 2 3 4 5 6 
#
# 1 194.9591 116.8750 41.4935 0.0000 0.0000 0.0000
# 2 116.8750 151.5483 31.3242 0.0000 0.0000 0.0000
# 3 41.4935 31.3242 34.2355 0.0000 0.0000 0.0000
# 4 0.0000 0.0000 0.0000 5.9355 0.0000 0.0000
# 5 0.0000 0.0000 0.0000 0.0000 27.7090 0.0000
# 6 0.0000 0.0000 0.0000 0.0000 0.0000 33.1763
#
#
#
# Elastic Compliance Matrix: (Units=1/GPa)
#
#
# Indices 1 2 3 4 5 6 
#
# 1 0.010638 -0.006831 -0.006643 0.000000 0.000000 0.000000
# 2 -0.006831 0.012524 -0.003180 0.000000 0.000000 0.000000
# 3 -0.006643 -0.003180 0.040170 0.000000 0.000000 0.000000
# 4 0.000000 0.000000 0.000000 0.168478 0.000000 0.000000
# 5 0.000000 0.000000 0.000000 0.000000 0.036089 0.000000
# 6 0.000000 0.000000 0.000000 0.000000 0.000000 0.030142
#
#
# Mechanical properties :
#
#
# Convention : Reuss Voigt Hill
#
# Bulk Modulus (GPa) = 33.30623 84.45871 58.88247
# Shear Modulus (GPa) = 14.64733 26.10085 20.37409
#
# Velocity S-wave (km/s) = 2.87155 3.83322 3.38669
# Velocity P-wave (km/s) = 5.45383 8.19377 6.95996
#
# Compressibility (1/GPa) = 0.03002442
#
# Stress axis : x y z
#
# Youngs Moduli (GPa) = 93.99846 79.84618 24.89394
#
# Poissons Ratio (x) = 0.54545 0.16538
# Poissons Ratio (y) = 0.64213 0.07915
# Poissons Ratio (z) = 0.62447 0.25387
#
# Static dielectric constant tensor:
#      x y z
#    x 1.579810 0.000000 0.000000 
#    y 0.000000 1.600980 0.000000 
#    z 0.000000 0.000000 1.611210 
# 
# From -- ./inp_files/12947.got.cif
#   From: 2010.05.17/outbox.cif.g08.bks.cpg/sg71_7_cif.got.tgz:12947.got - 2010.06.03 16:22:01.
