data_PCOD9524992
_publ_section_title
;
Structure prediction by ZEFSAII (Michael W. Deem and Ramdas Pophale) SiO2 
 PCOD9524992
Probable space group: I B A M
;
_chemical_formula_sum "Si O2"
_cell_formula_units_Z 128
_cell_length_a 22.289187
_cell_length_b 12.360378
_cell_length_c 20.661746
_cell_angle_alpha 90.000000
_cell_angle_beta 90.000000
_cell_angle_gamma 90.000000
_cell_volume 5692.368393
_symmetry_space_group_name_H-M "I B A M"
_symmetry_group_IT_number 72
_symmetry_cell_setting 'orthorhombic'
loop_
_space_group_symop_operation_xyz
x,y,z
-x,-y,z
x,-y,1/2-z
-x,y,1/2-z
-x,-y,-z
x,y,-z
-x,y,1/2+z
x,-y,1/2+z
1/2+x,1/2+y,1/2+z
1/2-x,1/2-y,1/2+z
1/2+x,1/2-y,-z
1/2-x,1/2+y,-z
1/2-x,1/2-y,1/2-z
1/2+x,1/2+y,1/2-z
1/2-x,1/2+y,z
1/2+x,1/2-y,z
loop_
_atom_site_type_symbol
_atom_site_label
_atom_site_fract_x
_atom_site_fract_y
_atom_site_fract_z
Si Si1 0.784162 0.360664 0.699971
Si Si2 0.992136 0.158607 0.072085
Si Si3 0.179101 0.116830 0.210457
Si Si4 0.463872 0.110796 0.392743
Si Si5 0.132689 0.112461 0.072711
Si Si6 0.586740 0.121824 0.755024
Si Si7 0.664138 0.130405 0.067852
Si Si8 0.441842 0.341381 0.792241
O O1 0.788261 0.231278 0.692176
O O2 0.723968 0.406391 0.729310
O O3 0.841426 0.381051 0.745896
O O4 0.799684 0.407855 0.630056
O O5 0.952201 0.124021 0.133714
O O6 0.001311 0.289359 0.075449
O O7 0.060179 0.113708 0.079350
O O8 0.970043 0.129646 0.000000
O O9 0.162578 0.069057 0.139448
O O10 0.115895 0.126558 0.249323
O O11 0.436235 0.157527 0.325439
O O12 0.402525 0.081855 0.429605
O O13 0.500000 0.000000 0.384844
O O14 0.151662 0.240157 0.070736
O O15 0.147378 0.069182 0.000000
O O16 0.563351 0.209756 0.705620
O O17 0.565566 0.000000 0.750000
O O18 0.694257 0.104594 0.000000
O O19 0.500000 0.370311 0.750000
#
# Coordination Sequence:
#
# PCOD9524992 Si02
#       8
#    16  16  16  16  16  16  16  16
#     4   8  16  28  39  56  72 100 139 174 205 230
#     4  10  18  26  34  52  85 112 132 162 200 246
#     4   9  15  26  43  56  76 100 135 172 200 243
#     4  10  17  24  36  55  77 107 144 177 206 237
#     4   8  13  22  37  56  73  96 125 158 202 243
#     4  10  19  27  41  59  81 109 145 181 201 243
#     4   8  14  24  35  49  71  98 134 175 206 234
#     4  11  17  27  41  60  82 110 134 165 211 247
#
# _framework density 22.486246999999999
#
# number of rings (size 3 to 8) (size 9 to 14) (size 15 to 20)
#    0.000    2.750    2.500    3.375    0.000    1.000 
#    0.000    0.625    0.000    4.500    0.000    0.000 
#    0.000    0.500    0.000    0.000    0.000    3.750 
#
# Total GULP energy -356628.868031 kJ/mol
# GULP energy per Si atom -5572.326063 kJ/mol
# Density = 2.243507 g / cm^3
# Si number density = 22.486247 Si / 1000 Ang^3
#
#
#
# Elastic Constant Matrix: (Units=GPa)
#
#
# Indices 1 2 3 4 5 6 
#
# 1 122.1153 -13.3862 74.3349 0.0000 0.0000 0.0000
# 2 -13.3862 42.1581 13.7560 0.0000 0.0000 0.0000
# 3 74.3349 13.7560 208.8651 0.0000 0.0000 0.0000
# 4 0.0000 0.0000 0.0000 12.3221 0.0000 0.0000
# 5 0.0000 0.0000 0.0000 0.0000 16.6217 0.0000
# 6 0.0000 0.0000 0.0000 0.0000 0.0000 -0.4239
#
#
#
# Elastic Compliance Matrix: (Units=1/GPa)
#
#
# Indices 1 2 3 4 5 6 
#
# 1 0.011421 0.005062 -0.004398 0.000000 0.000000 0.000000
# 2 0.005062 0.026484 -0.003546 0.000000 0.000000 0.000000
# 3 -0.004398 -0.003546 0.006587 0.000000 0.000000 0.000000
# 4 0.000000 0.000000 0.000000 0.081155 0.000000 0.000000
# 5 0.000000 0.000000 0.000000 0.000000 0.060162 0.000000
# 6 0.000000 0.000000 0.000000 0.000000 0.000000 -2.358991
#
#
# Mechanical properties :
#
#
# Convention : Reuss Voigt Hill
#
# Bulk Modulus (GPa) = 25.82147 58.06091 41.94119
# Shear Modulus (GPa) = -2.32072 25.59955 11.63942
#
# Velocity S-wave (km/s) = -1.01701 3.37776 2.27760
# Velocity P-wave (km/s) = 3.18262 6.41007 5.06054
#
# Compressibility (1/GPa) = 0.03872746
#
# Stress axis : x y z
#
# Youngs Moduli (GPa) = 87.55746 37.75822 151.82381
#
# Poissons Ratio (x) = -0.19111 0.66774
# Poissons Ratio (y) = -0.44318 0.53832
# Poissons Ratio (z) = 0.38509 0.13388
#
# Static dielectric constant tensor:
#      x y z
#    x 1.821560 0.000000 0.000000 
#    y 0.000000 1.927240 0.000000 
#    z 0.000000 0.000000 1.870900 
# 
# From -- ./inp_files/39938.got.cif
#   From: 2010.05.17/outbox.cif.g08.bks.cpg/sg72_20_cif.got.tgz:39938.got - 2010.06.03 17:03:01.
