data_PCOD9524441
_publ_section_title
;
Structure prediction by ZEFSAII (Michael W. Deem and Ramdas Pophale) SiO2 
 PCOD9524441
Probable space group: I M M M
;
_chemical_formula_sum "Si O2"
_cell_formula_units_Z 66
_cell_length_a 11.657324
_cell_length_b 14.189031
_cell_length_c 20.578242
_cell_angle_alpha 90.000000
_cell_angle_beta 90.000000
_cell_angle_gamma 90.000000
_cell_volume 3403.767405
_symmetry_space_group_name_H-M "I M M M"
_symmetry_group_IT_number 71
_symmetry_cell_setting 'orthorhombic'
loop_
_space_group_symop_operation_xyz
x,y,z
-x,-y,z
x,-y,-z
-x,y,-z
-x,-y,-z
x,y,-z
-x,y,z
x,-y,z
1/2+x,1/2+y,1/2+z
1/2-x,1/2-y,1/2+z
1/2+x,1/2-y,1/2-z
1/2-x,1/2+y,1/2-z
1/2-x,1/2-y,1/2-z
1/2+x,1/2+y,1/2-z
1/2-x,1/2+y,1/2+z
1/2+x,1/2-y,1/2+z
loop_
_atom_site_type_symbol
_atom_site_label
_atom_site_fract_x
_atom_site_fract_y
_atom_site_fract_z
Si Si1 0.364868 0.500000 0.779667
Si Si2 0.782785 0.325781 0.805245
Si Si3 0.500000 0.104483 0.767483
Si Si4 0.500000 0.000000 0.000000
Si Si5 0.235997 0.201209 0.926249
Si Si6 0.500000 0.820155 0.906407
Si Si7 0.359748 0.500000 0.376120
O O1 0.500000 0.500000 0.785758
O O2 0.314128 0.594787 0.810677
O O3 0.338292 0.500000 0.701718
O O4 0.750000 0.250000 0.750000
O O5 0.811011 0.270520 0.871088
O O6 0.891042 0.379667 0.776774
O O7 0.500000 0.173215 0.828608
O O8 0.500000 0.000000 0.795138
O O9 0.500000 0.081247 0.056214
O O10 0.373920 0.218254 0.924083
O O11 0.199573 0.093973 0.906053
O O12 0.196369 0.216718 0.000000
O O13 0.500000 0.500000 0.386492
#
# Coordination Sequence:
#
# PCOD9524441 Si02
#       7
#     8  16   8   2  16   8   8
#     4  11  24  43  69  99 131 164 220 278 324 376
#     4  12  25  42  68  97 129 177 220 267 322 385
#     4  12  24  42  67  96 132 167 225 275 319 381
#     4  12  20  32  60 104 138 166 186 252 368 406
#     4  12  26  42  65  97 136 172 218 267 330 395
#     4  12  22  36  66  97 132 164 205 267 337 400
#     4  11  24  42  65  95 134 174 212 265 330 395
#
# _framework density 19.390279
#
# number of rings (size 3 to 8) (size 9 to 14) (size 15 to 20)
#    0.000    0.242    7.879    1.091    5.091    0.970 
#    0.000    0.606    0.000    1.455    0.000    0.000 
#    0.000    0.000    0.000    0.000    0.000    0.000 
#
# Total GULP energy -184031.018087 kJ/mol
# GULP energy per Si atom -5576.697518 kJ/mol
# Density = 1.934615 g / cm^3
# Si number density = 19.390279 Si / 1000 Ang^3
#
#
#
# Elastic Constant Matrix: (Units=GPa)
#
#
# Indices 1 2 3 4 5 6 
#
# 1 66.6368 10.5381 9.1849 0.0000 0.0000 0.0000
# 2 10.5381 94.1747 42.7818 0.0000 0.0000 0.0000
# 3 9.1849 42.7818 142.4503 0.0000 0.0000 0.0000
# 4 0.0000 0.0000 0.0000 35.7568 0.0000 0.0000
# 5 0.0000 0.0000 0.0000 0.0000 -0.7261 0.0000
# 6 0.0000 0.0000 0.0000 0.0000 0.0000 -0.8028
#
#
#
# Elastic Compliance Matrix: (Units=1/GPa)
#
#
# Indices 1 2 3 4 5 6 
#
# 1 0.015314 -0.001465 -0.000547 0.000000 0.000000 0.000000
# 2 -0.001465 0.012436 -0.003641 0.000000 0.000000 0.000000
# 3 -0.000547 -0.003641 0.008149 0.000000 0.000000 0.000000
# 4 0.000000 0.000000 0.000000 0.027967 0.000000 0.000000
# 5 0.000000 0.000000 0.000000 0.000000 -1.377161 0.000000
# 6 0.000000 0.000000 0.000000 0.000000 0.000000 -1.245698
#
#
# Mechanical properties :
#
#
# Convention : Reuss Voigt Hill
#
# Bulk Modulus (GPa) = 40.66193 47.58571 44.12382
# Shear Modulus (GPa) = -1.96890 22.89605 10.46358
#
# Velocity S-wave (km/s) = -1.00877 3.44001 2.32551
# Velocity P-wave (km/s) = 4.43384 6.35393 5.47866
#
# Compressibility (1/GPa) = 0.02459303
#
# Stress axis : x y z
#
# Youngs Moduli (GPa) = 65.30043 80.40972 122.71987
#
# Poissons Ratio (x) = 0.11779 0.06718
# Poissons Ratio (y) = 0.09566 0.44676
# Poissons Ratio (z) = 0.03575 0.29273
#
# Static dielectric constant tensor:
#      x y z
#    x 1.460510 0.000000 0.000000 
#    y 0.000000 1.655100 0.000000 
#    z 0.000000 0.000000 1.670580 
# 
# From -- ./inp_files/51596.got.cif
#   From: 2010.05.17/outbox.cif.g08.bks.cpg/sg71_26_cif.got.tgz:51596.got - 2010.06.03 16:22:01.
