data_PCOD9524199
_publ_section_title
;
Structure prediction by ZEFSAII (Michael W. Deem and Ramdas Pophale) SiO2 
 PCOD9524199
Probable space group: I M M M
;
_chemical_formula_sum "Si O2"
_cell_formula_units_Z 88
_cell_length_a 11.669478
_cell_length_b 18.241345
_cell_length_c 22.893095
_cell_angle_alpha 90.000000
_cell_angle_beta 90.000000
_cell_angle_gamma 90.000000
_cell_volume 4873.183862
_symmetry_space_group_name_H-M "I M M M"
_symmetry_group_IT_number 71
_symmetry_cell_setting 'orthorhombic'
loop_
_space_group_symop_operation_xyz
x,y,z
-x,-y,z
x,-y,-z
-x,y,-z
-x,-y,-z
x,y,-z
-x,y,z
x,-y,z
1/2+x,1/2+y,1/2+z
1/2-x,1/2-y,1/2+z
1/2+x,1/2-y,1/2-z
1/2-x,1/2+y,1/2-z
1/2-x,1/2-y,1/2-z
1/2+x,1/2+y,1/2-z
1/2-x,1/2+y,1/2+z
1/2+x,1/2-y,1/2+z
loop_
_atom_site_type_symbol
_atom_site_label
_atom_site_fract_x
_atom_site_fract_y
_atom_site_fract_z
Si Si1 0.364015 0.084442 0.845818
Si Si2 0.638697 0.173237 0.383966
Si Si3 0.500000 0.585495 0.598598
Si Si4 0.241757 0.162442 0.262643
Si Si5 0.361230 0.917124 0.500000
Si Si6 0.723158 0.325965 0.432813
Si Si7 0.000000 0.911644 0.760359
O O1 0.500000 0.085727 0.839028
O O2 0.304849 0.120450 0.789800
O O3 0.325085 0.131287 0.901407
O O4 0.325444 0.000000 0.851871
O O5 0.500000 0.176772 0.379318
O O6 0.694082 0.147141 0.323609
O O7 0.669780 0.124118 0.440254
O O8 0.688914 0.253188 0.397835
O O9 0.500000 0.500000 0.586409
O O10 0.612022 0.622697 0.572375
O O11 0.500000 0.595941 0.668945
O O12 0.250000 0.250000 0.250000
O O13 0.112854 0.130273 0.262914
O O14 0.500000 0.918806 0.500000
O O15 0.318034 0.000000 0.500000
O O16 0.746538 0.308403 0.500000
O O17 0.000000 0.000000 0.747793
#
# Coordination Sequence:
#
# PCOD9524199 Si02
#       7
#    16  16   8  16   8  16   8
#     4  11  25  43  62  89 129 168 210 262 315 375
#     4  11  22  39  64  94 126 160 203 258 315 369
#     4  11  21  36  59  90 125 160 202 252 309 375
#     4  12  24  38  67  95 125 164 216 260 317 379
#     4   9  20  38  62  91 123 156 195 246 307 366
#     4  12  23  38  63  91 125 166 209 254 310 376
#     4  11  24  43  64  92 133 169 204 264 332 386
#
# _framework density 18.058008999999998
#
# number of rings (size 3 to 8) (size 9 to 14) (size 15 to 20)
#    0.000    0.818    5.455    1.909    2.545    3.636 
#    0.000    2.727    0.000    0.545    0.000    1.273 
#    0.000    0.000    0.000    0.000    0.000    0.000 
#
# Total GULP energy -245886.449727 kJ/mol
# GULP energy per Si atom -5588.328403 kJ/mol
# Density = 1.801691 g / cm^3
# Si number density = 18.058009 Si / 1000 Ang^3
#
#
#
# Elastic Constant Matrix: (Units=GPa)
#
#
# Indices 1 2 3 4 5 6 
#
# 1 85.4546 41.4617 34.2012 0.0000 0.0000 0.0000
# 2 41.4617 93.6462 8.5150 0.0000 0.0000 0.0000
# 3 34.2012 8.5150 91.4912 0.0000 0.0000 0.0000
# 4 0.0000 0.0000 0.0000 28.2485 0.0000 0.0000
# 5 0.0000 0.0000 0.0000 0.0000 32.0361 0.0000
# 6 0.0000 0.0000 0.0000 0.0000 0.0000 25.5287
#
#
#
# Elastic Compliance Matrix: (Units=1/GPa)
#
#
# Indices 1 2 3 4 5 6 
#
# 1 0.017578 -0.007246 -0.005897 0.000000 0.000000 0.000000
# 2 -0.007246 0.013757 0.001429 0.000000 0.000000 0.000000
# 3 -0.005897 0.001429 0.013001 0.000000 0.000000 0.000000
# 4 0.000000 0.000000 0.000000 0.035400 0.000000 0.000000
# 5 0.000000 0.000000 0.000000 0.000000 0.031215 0.000000
# 6 0.000000 0.000000 0.000000 0.000000 0.000000 0.039172
#
#
# Mechanical properties :
#
#
# Convention : Reuss Voigt Hill
#
# Bulk Modulus (GPa) = 47.83035 48.77198 48.30117
# Shear Modulus (GPa) = 27.69761 29.59026 28.64394
#
# Velocity S-wave (km/s) = 3.92064 4.05238 3.98706
# Velocity P-wave (km/s) = 6.85856 6.99735 6.92830
#
# Compressibility (1/GPa) = 0.02090723
#
# Stress axis : x y z
#
# Youngs Moduli (GPa) = 56.88925 72.69050 76.91526
#
# Poissons Ratio (x) = 0.52675 0.45354
# Poissons Ratio (y) = 0.41225 -0.10988
# Poissons Ratio (z) = 0.33545 -0.10384
#
# Static dielectric constant tensor:
#      x y z
#    x 1.596090 0.000000 0.000000 
#    y 0.000000 1.620450 0.000000 
#    z 0.000000 0.000000 1.603760 
# 
# From -- ./inp_files/51815.got.cif
#   From: 2010.05.17/outbox.cif.g08.bks.cpg/sg71_26_cif.got.tgz:51815.got - 2010.06.03 16:22:01.
