data_PCOD9524630
_publ_section_title
;
Structure prediction by ZEFSAII (Michael W. Deem and Ramdas Pophale) SiO2 
 PCOD9524630
Probable space group: I M M M
;
_chemical_formula_sum "Si O2"
_cell_formula_units_Z 104
_cell_length_a 21.896743
_cell_length_b 7.448527
_cell_length_c 29.135318
_cell_angle_alpha 90.000000
_cell_angle_beta 90.000000
_cell_angle_gamma 90.000000
_cell_volume 4751.926122
_symmetry_space_group_name_H-M "I M M M"
_symmetry_group_IT_number 71
_symmetry_cell_setting 'orthorhombic'
loop_
_space_group_symop_operation_xyz
x,y,z
-x,-y,z
x,-y,-z
-x,y,-z
-x,-y,-z
x,y,-z
-x,y,z
x,-y,z
1/2+x,1/2+y,1/2+z
1/2-x,1/2-y,1/2+z
1/2+x,1/2-y,1/2-z
1/2-x,1/2+y,1/2-z
1/2-x,1/2-y,1/2-z
1/2+x,1/2+y,1/2-z
1/2-x,1/2+y,1/2+z
1/2+x,1/2-y,1/2+z
loop_
_atom_site_type_symbol
_atom_site_label
_atom_site_fract_x
_atom_site_fract_y
_atom_site_fract_z
Si Si1 0.343340 0.284355 0.696141
Si Si2 0.325917 0.785401 0.449132
Si Si3 0.066751 0.218817 0.727402
Si Si4 0.899826 0.780599 0.625820
Si Si5 0.000000 0.219304 0.447087
Si Si6 0.931373 0.785167 0.885619
Si Si7 0.238816 0.786282 0.631790
O O1 0.345419 0.500000 0.697027
O O2 0.375027 0.220704 0.742956
O O3 0.388595 0.217733 0.655713
O O4 0.275036 0.240135 0.679613
O O5 0.314382 0.714814 0.500000
O O6 0.394557 0.751890 0.432035
O O7 0.281337 0.713811 0.409331
O O8 0.317423 0.000000 0.450482
O O9 0.071644 0.273232 0.674544
O O10 0.000000 0.272312 0.746396
O O11 0.067670 0.000000 0.728186
O O12 0.940820 0.724582 0.582637
O O13 0.829823 0.718324 0.627088
O O14 0.900062 0.000000 0.625190
O O15 0.000000 0.278656 0.500000
O O16 0.000000 0.000000 0.447831
O O17 0.000000 0.715099 0.884747
O O18 0.934504 0.000000 0.880007
O O19 0.234823 0.000000 0.626160
#
# Coordination Sequence:
#
# PCOD9524630 Si02
#       7
#    16  16  16  16   8  16  16
#     4   9  17  29  46  68  91 121 158 190 223 269
#     4   9  18  31  44  59  83 117 153 184 220 272
#     4   9  15  25  44  67  92 120 153 193 232 272
#     4   9  16  27  43  66  94 122 153 189 232 278
#     4   9  16  26  42  68 101 129 155 195 244 287
#     4   9  17  29  44  63  87 112 145 190 232 266
#     4   9  18  31  46  65  93 124 152 188 232 277
#
# _framework density 21.885863000000001
#
# number of rings (size 3 to 8) (size 9 to 14) (size 15 to 20)
#    0.000    3.000    0.769    0.462    0.000    4.000 
#    0.000    4.615    0.000    1.385    0.000    0.538 
#    0.000    0.615    0.000    0.000    0.000    0.000 
#
# Total GULP energy -290073.924238 kJ/mol
# GULP energy per Si atom -5578.344697 kJ/mol
# Density = 2.183605 g / cm^3
# Si number density = 21.885863 Si / 1000 Ang^3
#
#
#
# Elastic Constant Matrix: (Units=GPa)
#
#
# Indices 1 2 3 4 5 6 
#
# 1 177.8963 0.8867 71.3824 0.0000 0.0000 0.0000
# 2 0.8867 66.1558 -0.5734 0.0000 0.0000 0.0000
# 3 71.3824 -0.5734 132.6883 0.0000 0.0000 0.0000
# 4 0.0000 0.0000 0.0000 -3.5235 0.0000 0.0000
# 5 0.0000 0.0000 0.0000 0.0000 16.1091 0.0000
# 6 0.0000 0.0000 0.0000 0.0000 0.0000 55.7245
#
#
#
# Elastic Compliance Matrix: (Units=1/GPa)
#
#
# Indices 1 2 3 4 5 6 
#
# 1 0.007170 -0.000130 -0.003858 0.000000 0.000000 0.000000
# 2 -0.000130 0.015119 0.000135 0.000000 0.000000 0.000000
# 3 -0.003858 0.000135 0.009612 0.000000 0.000000 0.000000
# 4 0.000000 0.000000 0.000000 -0.283806 0.000000 0.000000
# 5 0.000000 0.000000 0.000000 0.000000 0.062077 0.000000
# 6 0.000000 0.000000 0.000000 0.000000 0.000000 0.017945
#
#
# Mechanical properties :
#
#
# Convention : Reuss Voigt Hill
#
# Bulk Modulus (GPa) = 41.32831 57.79241 49.56036
# Shear Modulus (GPa) = -32.02817 33.99833 0.98508
#
# Velocity S-wave (km/s) = -3.82961 3.94564 0.67162
# Velocity P-wave (km/s) = 0.79375 6.87176 4.82654
#
# Compressibility (1/GPa) = 0.02419649
#
# Stress axis : x y z
#
# Youngs Moduli (GPa) = 139.47307 66.14311 104.03248
#
# Poissons Ratio (x) = 0.00857 0.40133
# Poissons Ratio (y) = 0.01807 -0.01405
# Poissons Ratio (z) = 0.53805 -0.00893
#
# Static dielectric constant tensor:
#      x y z
#    x 1.807760 0.000000 0.000000 
#    y 0.000000 1.842040 0.000000 
#    z 0.000000 0.000000 1.784860 
# 
# From -- ./inp_files/30200.got.cif
#   From: 2010.05.17/outbox.cif.g08.bks.cpg/sg71_16_cif.got.tgz:30200.got - 2010.06.03 16:22:01.
