data_PCOD9524569
_publ_section_title
;
Structure prediction by ZEFSAII (Michael W. Deem and Ramdas Pophale) SiO2 
 PCOD9524569
Probable space group: I M M M
;
_chemical_formula_sum "Si O2"
_cell_formula_units_Z 128
_cell_length_a 30.419482
_cell_length_b 26.569004
_cell_length_c 7.394945
_cell_angle_alpha 90.000000
_cell_angle_beta 90.000000
_cell_angle_gamma 90.000000
_cell_volume 5976.707980
_symmetry_space_group_name_H-M "I M M M"
_symmetry_group_IT_number 71
_symmetry_cell_setting 'orthorhombic'
loop_
_space_group_symop_operation_xyz
x,y,z
-x,-y,z
x,-y,-z
-x,y,-z
-x,-y,-z
x,y,-z
-x,y,z
x,-y,z
1/2+x,1/2+y,1/2+z
1/2-x,1/2-y,1/2+z
1/2+x,1/2-y,1/2-z
1/2-x,1/2+y,1/2-z
1/2-x,1/2-y,1/2-z
1/2+x,1/2+y,1/2-z
1/2-x,1/2+y,1/2+z
1/2+x,1/2-y,1/2+z
loop_
_atom_site_type_symbol
_atom_site_label
_atom_site_fract_x
_atom_site_fract_y
_atom_site_fract_z
Si Si1 0.747409 0.939007 0.787203
Si Si2 0.202766 0.305797 0.784830
Si Si3 0.608800 0.156136 0.721338
Si Si4 0.346595 0.442405 0.278871
Si Si5 0.449270 0.251376 0.720854
Si Si6 0.890080 0.845408 0.779978
Si Si7 0.853321 0.443655 0.212741
Si Si8 0.295561 0.307047 0.283863
O O1 0.797014 0.926017 0.719034
O O2 0.697904 0.925306 0.722857
O O3 0.747434 0.000000 0.763973
O O4 0.747446 0.927652 0.000000
O O5 0.156873 0.325649 0.717831
O O6 0.248973 0.333250 0.752717
O O7 0.207693 0.249496 0.709899
O O8 0.198202 0.302711 0.000000
O O9 0.606892 0.155859 0.500000
O O10 0.574647 0.199363 0.778458
O O11 0.611691 0.097804 0.780953
O O12 0.344609 0.441607 0.500000
O O13 0.353945 0.500000 0.223626
O O14 0.385637 0.404045 0.225988
O O15 0.447589 0.251431 0.500000
O O16 0.500000 0.251870 0.775177
O O17 0.424423 0.302702 0.780231
O O18 0.841824 0.827190 0.721699
O O19 0.892909 0.844971 0.000000
O O20 0.855984 0.500000 0.291368
O O21 0.861973 0.447672 0.000000
O O22 0.298920 0.305552 0.500000
#
# Coordination Sequence:
#
# PCOD9524569 Si02
#       8
#    16  16  16  16  16  16  16  16
#     4   8  14  25  39  56  80 112 149 178 194 222
#     4   9  16  26  38  54  82 113 135 162 201 243
#     4   9  16  27  40  55  79 108 136 168 209 251
#     4   8  14  23  35  52  77 110 141 168 203 242
#     4   9  16  27  43  60  77 101 136 176 217 258
#     4   9  15  24  38  57  80 104 135 174 210 242
#     4   9  17  27  39  56  81 114 144 168 203 248
#     4   9  16  25  38  57  82 109 136 167 199 236
#
# _framework density 21.416471000000001
#
# number of rings (size 3 to 8) (size 9 to 14) (size 15 to 20)
#    0.000    3.250    1.250    0.750    1.750    0.000 
#    0.000    0.000    0.000    0.750    0.000    5.250 
#    0.000    4.500    0.000    3.125    0.000    3.250 
#
# Total GULP energy -356347.743894 kJ/mol
# GULP energy per Si atom -5567.933498 kJ/mol
# Density = 2.136773 g / cm^3
# Si number density = 21.416471 Si / 1000 Ang^3
#
#
#
# Elastic Constant Matrix: (Units=GPa)
#
#
# Indices 1 2 3 4 5 6 
#
# 1 134.1746 98.2112 4.2961 0.0000 0.0000 0.0000
# 2 98.2112 166.1393 -0.1227 0.0000 0.0000 0.0000
# 3 4.2961 -0.1227 67.3835 0.0000 0.0000 0.0000
# 4 0.0000 0.0000 0.0000 -2.6681 0.0000 0.0000
# 5 0.0000 0.0000 0.0000 0.0000 12.2048 0.0000
# 6 0.0000 0.0000 0.0000 0.0000 0.0000 27.1205
#
#
#
# Elastic Compliance Matrix: (Units=1/GPa)
#
#
# Indices 1 2 3 4 5 6 
#
# 1 0.013187 -0.007796 -0.000855 0.000000 0.000000 0.000000
# 2 -0.007796 0.010628 0.000516 0.000000 0.000000 0.000000
# 3 -0.000855 0.000516 0.014896 0.000000 0.000000 0.000000
# 4 0.000000 0.000000 0.000000 -0.374805 0.000000 0.000000
# 5 0.000000 0.000000 0.000000 0.000000 0.081935 0.000000
# 6 0.000000 0.000000 0.000000 0.000000 0.000000 0.036873
#
#
# Mechanical properties :
#
#
# Convention : Reuss Voigt Hill
#
# Bulk Modulus (GPa) = 44.55994 63.60742 54.08368
# Shear Modulus (GPa) = -25.83468 25.01896 -0.40786
#
# Velocity S-wave (km/s) = -3.47695 3.42162 -0.43687
# Velocity P-wave (km/s) = 2.17546 6.73607 5.00536
#
# Compressibility (1/GPa) = 0.02244168
#
# Stress axis : x y z
#
# Youngs Moduli (GPa) = 75.83505 94.09337 67.13271
#
# Poissons Ratio (x) = 0.73352 0.05739
# Poissons Ratio (y) = 0.59119 -0.03467
# Poissons Ratio (z) = 0.06483 -0.04859
#
# Static dielectric constant tensor:
#      x y z
#    x 1.732840 0.000000 0.000000 
#    y 0.000000 1.929060 0.000000 
#    z 0.000000 0.000000 1.777490 
# 
# From -- ./inp_files/28041.got.cif
#   From: 2010.05.17/outbox.cif.g08.bks.cpg/sg71_15_cif.got.tgz:28041.got - 2010.06.03 16:22:01.
