data_PCOD9524428
_publ_section_title
;
Structure prediction by ZEFSAII (Michael W. Deem and Ramdas Pophale) SiO2 
 PCOD9524428
Probable space group: I M M M
;
_chemical_formula_sum "Si O2"
_cell_formula_units_Z 64
_cell_length_a 11.641341
_cell_length_b 12.714312
_cell_length_c 24.591732
_cell_angle_alpha 90.000000
_cell_angle_beta 90.000000
_cell_angle_gamma 90.000000
_cell_volume 3639.862622
_symmetry_space_group_name_H-M "I M M M"
_symmetry_group_IT_number 71
_symmetry_cell_setting 'orthorhombic'
loop_
_space_group_symop_operation_xyz
x,y,z
-x,-y,z
x,-y,-z
-x,y,-z
-x,-y,-z
x,y,-z
-x,y,z
x,-y,z
1/2+x,1/2+y,1/2+z
1/2-x,1/2-y,1/2+z
1/2+x,1/2-y,1/2-z
1/2-x,1/2+y,1/2-z
1/2-x,1/2-y,1/2-z
1/2+x,1/2+y,1/2-z
1/2-x,1/2+y,1/2+z
1/2+x,1/2-y,1/2+z
loop_
_atom_site_type_symbol
_atom_site_label
_atom_site_fract_x
_atom_site_fract_y
_atom_site_fract_z
Si Si1 0.633806 0.374075 0.298942
Si Si2 0.630223 0.374426 0.178876
Si Si3 0.500000 0.877396 0.564694
Si Si4 0.139748 0.627812 0.500000
Si Si5 0.227312 0.753733 0.098098
O O1 0.500000 0.340766 0.301248
O O2 0.636054 0.500000 0.302167
O O3 0.679117 0.346152 0.238574
O O4 0.696102 0.328525 0.351165
O O5 0.500000 0.334849 0.178086
O O6 0.628581 0.500000 0.177307
O O7 0.692525 0.332207 0.126317
O O8 0.500000 0.886481 0.500000
O O9 0.387545 0.808552 0.579959
O O10 0.500000 0.000000 0.586298
O O11 0.155228 0.500000 0.500000
O O12 0.204840 0.681842 0.551542
O O13 0.000000 0.646895 0.500000
#
# Coordination Sequence:
#
# PCOD9524428 Si02
#       5
#    16  16   8   8  16
#     4   9  18  33  55  85 117 145 185 233 276 331
#     4   9  19  35  56  84 114 147 188 234 277 330
#     4  11  24  40  56  84 120 150 192 245 284 327
#     4  11  26  43  59  84 114 145 190 244 289 335
#     4  12  20  38  60  84 110 158 191 226 288 349
#
# _framework density 17.583081
#
# number of rings (size 3 to 8) (size 9 to 14) (size 15 to 20)
#    0.000    1.750    2.500    4.500    0.000    0.000 
#    0.000    0.625    0.000    3.000    0.000    0.000 
#    0.000    0.000    0.000    0.000    0.000    0.000 
#
# Total GULP energy -178168.266408 kJ/mol
# GULP energy per Si atom -5567.758325 kJ/mol
# Density = 1.754306 g / cm^3
# Si number density = 17.583081 Si / 1000 Ang^3
#
#
#
# Elastic Constant Matrix: (Units=GPa)
#
#
# Indices 1 2 3 4 5 6 
#
# 1 100.4605 56.4379 61.9548 0.0000 0.0000 0.0000
# 2 56.4379 76.1854 47.3816 0.0000 0.0000 0.0000
# 3 61.9548 47.3816 130.9136 0.0000 0.0000 0.0000
# 4 0.0000 0.0000 0.0000 25.8042 0.0000 0.0000
# 5 0.0000 0.0000 0.0000 0.0000 11.4520 0.0000
# 6 0.0000 0.0000 0.0000 0.0000 0.0000 26.6030
#
#
#
# Elastic Compliance Matrix: (Units=1/GPa)
#
#
# Indices 1 2 3 4 5 6 
#
# 1 0.019402 -0.011178 -0.005136 0.000000 0.000000 0.000000
# 2 -0.011178 0.023379 -0.003171 0.000000 0.000000 0.000000
# 3 -0.005136 -0.003171 0.011217 0.000000 0.000000 0.000000
# 4 0.000000 0.000000 0.000000 0.038753 0.000000 0.000000
# 5 0.000000 0.000000 0.000000 0.000000 0.087321 0.000000
# 6 0.000000 0.000000 0.000000 0.000000 0.000000 0.037590
#
#
# Mechanical properties :
#
#
# Convention : Reuss Voigt Hill
#
# Bulk Modulus (GPa) = 66.55069 71.01201 68.78135
# Shear Modulus (GPa) = 19.11007 22.22418 20.66712
#
# Velocity S-wave (km/s) = 3.30031 3.55907 3.43213
# Velocity P-wave (km/s) = 7.24252 7.57387 7.41005
#
# Compressibility (1/GPa) = 0.01502614
#
# Stress axis : x y z
#
# Youngs Moduli (GPa) = 51.54239 42.77299 89.14988
#
# Poissons Ratio (x) = 0.47813 0.45787
# Poissons Ratio (y) = 0.57616 0.28274
# Poissons Ratio (z) = 0.26472 0.13565
#
# Static dielectric constant tensor:
#      x y z
#    x 1.634840 0.000000 0.000000 
#    y 0.000000 1.601530 0.000000 
#    z 0.000000 0.000000 1.595270 
# 
# From -- ./inp_files/19634.got.cif
#   From: 2010.05.17/outbox.cif.g08.bks.cpg/sg71_10_cif.got.tgz:19634.got - 2010.06.03 16:22:01.
