data_PCOD9524624
_publ_section_title
;
Structure prediction by ZEFSAII (Michael W. Deem and Ramdas Pophale) SiO2 
 PCOD9524624
Probable space group: I M M M
;
_chemical_formula_sum "Si O2"
_cell_formula_units_Z 72
_cell_length_a 24.272472
_cell_length_b 9.408272
_cell_length_c 23.160433
_cell_angle_alpha 90.000000
_cell_angle_beta 90.000000
_cell_angle_gamma 90.000000
_cell_volume 5288.963234
_symmetry_space_group_name_H-M "I M M M"
_symmetry_group_IT_number 71
_symmetry_cell_setting 'orthorhombic'
loop_
_space_group_symop_operation_xyz
x,y,z
-x,-y,z
x,-y,-z
-x,y,-z
-x,-y,-z
x,y,-z
-x,y,z
x,-y,z
1/2+x,1/2+y,1/2+z
1/2-x,1/2-y,1/2+z
1/2+x,1/2-y,1/2-z
1/2-x,1/2+y,1/2-z
1/2-x,1/2-y,1/2-z
1/2+x,1/2+y,1/2-z
1/2-x,1/2+y,1/2+z
1/2+x,1/2-y,1/2+z
loop_
_atom_site_type_symbol
_atom_site_label
_atom_site_fract_x
_atom_site_fract_y
_atom_site_fract_z
Si Si1 0.329461 0.663893 0.215377
Si Si2 0.267740 0.332007 0.566263
Si Si3 0.640969 0.168791 0.895317
Si Si4 0.799343 0.336229 0.175843
Si Si5 0.936849 0.326914 0.500000
O O1 0.346124 0.500000 0.221508
O O2 0.360753 0.744116 0.163898
O O3 0.264880 0.664730 0.196240
O O4 0.331705 0.748621 0.275410
O O5 0.279813 0.294146 0.500000
O O6 0.278933 0.500000 0.574524
O O7 0.202166 0.313274 0.577656
O O8 0.299230 0.240492 0.614028
O O9 0.634294 0.000000 0.883959
O O10 0.596614 0.215693 0.942818
O O11 0.816895 0.500000 0.172937
O O12 0.936275 0.500000 0.500000
O O13 0.000000 0.279577 0.500000
#
# Coordination Sequence:
#
# PCOD9524624 Si02
#       5
#    16  16  16  16   8
#     4   9  16  25  36  50  67  88 114 146 183 221
#     4   9  15  23  35  50  70  96 123 149 180 217
#     4   9  15  25  39  53  68  90 120 153 188 223
#     4   9  16  24  34  50  69  89 114 147 181 213
#     4   9  16  26  41  59  75  93 123 161 197 231
#
# _framework density 13.613254
#
# number of rings (size 3 to 8) (size 9 to 14) (size 15 to 20)
#    0.000    3.000    1.111    1.333    0.000    5.778 
#    0.000    0.556    0.000    1.333    0.000    0.000 
#    0.000    0.000    0.000    0.000    0.000    1.111 
#
# Total GULP energy -200407.356677 kJ/mol
# GULP energy per Si atom -5566.871019 kJ/mol
# Density = 1.358227 g / cm^3
# Si number density = 13.613254 Si / 1000 Ang^3
#
#
#
# Elastic Constant Matrix: (Units=GPa)
#
#
# Indices 1 2 3 4 5 6 
#
# 1 29.3671 23.8200 35.4519 0.0000 0.0000 0.0000
# 2 23.8200 88.9244 89.1609 0.0000 0.0000 0.0000
# 3 35.4519 89.1609 157.1866 0.0000 0.0000 0.0000
# 4 0.0000 0.0000 0.0000 26.6713 0.0000 0.0000
# 5 0.0000 0.0000 0.0000 0.0000 8.2844 0.0000
# 6 0.0000 0.0000 0.0000 0.0000 0.0000 6.2837
#
#
#
# Elastic Compliance Matrix: (Units=1/GPa)
#
#
# Indices 1 2 3 4 5 6 
#
# 1 0.047591 -0.004605 -0.008122 0.000000 0.000000 0.000000
# 2 -0.004605 0.026521 -0.014005 0.000000 0.000000 0.000000
# 3 -0.008122 -0.014005 0.016138 0.000000 0.000000 0.000000
# 4 0.000000 0.000000 0.000000 0.037494 0.000000 0.000000
# 5 0.000000 0.000000 0.000000 0.000000 0.120709 0.000000
# 6 0.000000 0.000000 0.000000 0.000000 0.000000 0.159143
#
#
# Mechanical properties :
#
#
# Convention : Reuss Voigt Hill
#
# Bulk Modulus (GPa) = 27.18351 63.59373 45.38862
# Shear Modulus (GPa) = 10.56363 16.71755 13.64059
#
# Velocity S-wave (km/s) = 2.78867 3.50813 3.16889
# Velocity P-wave (km/s) = 5.51186 7.95144 6.84127
#
# Compressibility (1/GPa) = 0.03678701
#
# Stress axis : x y z
#
# Youngs Moduli (GPa) = 21.01225 37.70547 61.96650
#
# Poissons Ratio (x) = 0.17363 0.50328
# Poissons Ratio (y) = 0.09676 0.86785
# Poissons Ratio (z) = 0.17066 0.52807
#
# Static dielectric constant tensor:
#      x y z
#    x 1.407850 0.000000 0.000000 
#    y 0.000000 1.455150 0.000000 
#    z 0.000000 0.000000 1.446700 
# 
# From -- ./inp_files/10122.got.cif
#   From: 2010.05.17/outbox.cif.g08.bks.cpg/sg71_6_cif.got.tgz:10122.got - 2010.06.03 16:22:01.
