data_PCOD9524145
_publ_section_title
;
Structure prediction by ZEFSAII (Michael W. Deem and Ramdas Pophale) SiO2 
 PCOD9524145
Probable space group: I M M M
;
_chemical_formula_sum "Si O2"
_cell_formula_units_Z 88
_cell_length_a 21.911969
_cell_length_b 16.771085
_cell_length_c 13.446137
_cell_angle_alpha 90.000000
_cell_angle_beta 90.000000
_cell_angle_gamma 90.000000
_cell_volume 4941.287198
_symmetry_space_group_name_H-M "I M M M"
_symmetry_group_IT_number 71
_symmetry_cell_setting 'orthorhombic'
loop_
_space_group_symop_operation_xyz
x,y,z
-x,-y,z
x,-y,-z
-x,y,-z
-x,-y,-z
x,y,-z
-x,y,z
x,-y,z
1/2+x,1/2+y,1/2+z
1/2-x,1/2-y,1/2+z
1/2+x,1/2-y,1/2-z
1/2-x,1/2+y,1/2-z
1/2-x,1/2-y,1/2-z
1/2+x,1/2+y,1/2-z
1/2-x,1/2+y,1/2+z
1/2+x,1/2-y,1/2+z
loop_
_atom_site_type_symbol
_atom_site_label
_atom_site_fract_x
_atom_site_fract_y
_atom_site_fract_z
Si Si1 0.261758 0.405077 0.815892
Si Si2 0.636431 0.162260 0.381523
Si Si3 0.317925 0.404550 0.391753
Si Si4 0.930692 0.500000 0.879437
Si Si5 0.569973 0.317947 0.690742
Si Si6 0.399024 0.593487 0.113251
O O1 0.245392 0.500000 0.818565
O O2 0.207512 0.352451 0.859214
O O3 0.277420 0.379853 0.702603
O O4 0.325669 0.398284 0.874241
O O5 0.627865 0.174745 0.500000
O O6 0.604879 0.234568 0.324068
O O7 0.603566 0.080277 0.350422
O O8 0.298548 0.373724 0.500000
O O9 0.315434 0.500000 0.392415
O O10 0.387234 0.378497 0.370603
O O11 0.000000 0.500000 0.843836
O O12 0.931342 0.500000 0.000000
O O13 0.500000 0.312677 0.657236
O O14 0.572243 0.350362 0.803468
O O15 0.413211 0.500000 0.134310
O O16 0.416798 0.610670 0.000000
#
# Coordination Sequence:
#
# PCOD9524145 Si02
#       6
#    16  16  16   8  16  16
#     4   9  17  33  56  81 107 135 177 224 272 323
#     4  11  21  33  53  79 107 142 180 222 270 318
#     4   9  19  35  54  77 107 141 174 215 265 323
#     4   9  18  32  50  74 103 139 182 219 257 309
#     4  11  23  36  50  75 110 144 179 219 262 313
#     4   9  19  36  59  84 109 138 174 221 270 317
#
# _framework density 17.809124000000001
#
# number of rings (size 3 to 8) (size 9 to 14) (size 15 to 20)
#    0.000    2.273    0.909    3.273    0.000    7.636 
#    0.000    4.545    0.000    0.000    0.000    0.000 
#    0.000    2.909    0.000    0.000    0.000    0.000 
#
# Total GULP energy -245429.294988 kJ/mol
# GULP energy per Si atom -5577.938522 kJ/mol
# Density = 1.776859 g / cm^3
# Si number density = 17.809124 Si / 1000 Ang^3
#
#
#
# Elastic Constant Matrix: (Units=GPa)
#
#
# Indices 1 2 3 4 5 6 
#
# 1 68.4875 22.4893 2.8668 0.0000 0.0000 0.0000
# 2 22.4893 52.8915 37.3692 0.0000 0.0000 0.0000
# 3 2.8668 37.3692 88.4484 0.0000 0.0000 0.0000
# 4 0.0000 0.0000 0.0000 20.8279 0.0000 0.0000
# 5 0.0000 0.0000 0.0000 0.0000 6.2388 0.0000
# 6 0.0000 0.0000 0.0000 0.0000 0.0000 5.4055
#
#
#
# Elastic Compliance Matrix: (Units=1/GPa)
#
#
# Indices 1 2 3 4 5 6 
#
# 1 0.017796 -0.010206 0.003735 0.000000 0.000000 0.000000
# 2 -0.010206 0.032805 -0.013529 0.000000 0.000000 0.000000
# 3 0.003735 -0.013529 0.016901 0.000000 0.000000 0.000000
# 4 0.000000 0.000000 0.000000 0.048012 0.000000 0.000000
# 5 0.000000 0.000000 0.000000 0.000000 0.160288 0.000000
# 6 0.000000 0.000000 0.000000 0.000000 0.000000 0.184998
#
#
# Mechanical properties :
#
#
# Convention : Reuss Voigt Hill
#
# Bulk Modulus (GPa) = 36.36067 37.25311 36.80689
# Shear Modulus (GPa) = 9.80456 16.30125 13.05290
#
# Velocity S-wave (km/s) = 2.34889 3.02873 2.71021
# Velocity P-wave (km/s) = 5.27424 5.76145 5.52322
#
# Compressibility (1/GPa) = 0.02750224
#
# Stress axis : x y z
#
# Youngs Moduli (GPa) = 56.19191 30.48331 59.16808
#
# Poissons Ratio (x) = 0.31111 -0.22100
# Poissons Ratio (y) = 0.57349 0.80050
# Poissons Ratio (z) = -0.20988 0.41241
#
# Static dielectric constant tensor:
#      x y z
#    x 1.600260 0.000000 0.000000 
#    y 0.000000 1.613880 0.000000 
#    z 0.000000 0.000000 1.627040 
# 
# From -- ./inp_files/37991.got.cif
#   From: 2010.05.17/outbox.cif.g08.bks.cpg/sg71_19_cif.got.tgz:37991.got - 2010.06.03 16:22:01.
