data_PCOD9524499
_publ_section_title
;
Structure prediction by ZEFSAII (Michael W. Deem and Ramdas Pophale) SiO2 
 PCOD9524499
Probable space group: I M M M
;
_chemical_formula_sum "Si O2"
_cell_formula_units_Z 80
_cell_length_a 7.607867
_cell_length_b 19.952448
_cell_length_c 27.042590
_cell_angle_alpha 90.000000
_cell_angle_beta 90.000000
_cell_angle_gamma 90.000000
_cell_volume 4104.945382
_symmetry_space_group_name_H-M "I M M M"
_symmetry_group_IT_number 71
_symmetry_cell_setting 'orthorhombic'
loop_
_space_group_symop_operation_xyz
x,y,z
-x,-y,z
x,-y,-z
-x,y,-z
-x,-y,-z
x,y,-z
-x,y,z
x,-y,z
1/2+x,1/2+y,1/2+z
1/2-x,1/2-y,1/2+z
1/2+x,1/2-y,1/2-z
1/2-x,1/2+y,1/2-z
1/2-x,1/2-y,1/2-z
1/2+x,1/2+y,1/2-z
1/2-x,1/2+y,1/2+z
1/2+x,1/2-y,1/2+z
loop_
_atom_site_type_symbol
_atom_site_label
_atom_site_fract_x
_atom_site_fract_y
_atom_site_fract_z
Si Si1 0.795923 0.918497 0.000000
Si Si2 0.290748 0.076468 0.607989
Si Si3 0.209143 0.923543 0.500000
Si Si4 0.211684 0.826501 0.195548
Si Si5 0.710296 0.826149 0.693099
Si Si6 0.784244 0.922469 0.892108
O O1 0.721915 0.899004 0.946551
O O2 0.000000 0.897107 0.000000
O O3 0.794360 0.000000 0.000000
O O4 0.500000 0.071450 0.615132
O O5 0.263223 0.105611 0.552856
O O6 0.219924 0.124027 0.651159
O O7 0.219333 0.000000 0.609444
O O8 0.000000 0.926521 0.500000
O O9 0.281891 0.000000 0.500000
O O10 0.256092 0.849715 0.250947
O O11 0.278381 0.750204 0.189427
O O12 0.274612 0.875413 0.152418
O O13 0.000000 0.824581 0.192367
O O14 0.500000 0.822394 0.686618
O O15 0.000000 0.921815 0.893371
O O16 0.732961 0.000000 0.884757
#
# Coordination Sequence:
#
# PCOD9524499 Si02
#       6
#     8  16   8  16  16  16
#     4   7  10  18  33  54  81 107 126 152 196 243
#     4   9  17  30  47  64  85 116 150 180 211 253
#     4   9  17  29  46  69  93 113 138 177 222 262
#     4   9  17  29  44  62  85 112 141 176 217 255
#     4   9  18  31  44  60  84 114 146 177 212 254
#     4   8  13  22  38  61  86 109 134 166 206 251
#
# _framework density 19.488688
#
# number of rings (size 3 to 8) (size 9 to 14) (size 15 to 20)
#    0.000    3.400    0.000    1.500    0.000    2.800 
#    0.000    1.000    0.000    4.800    0.000    0.700 
#    0.000    2.400    0.000    0.000    0.000    0.000 
#
# Total GULP energy -222779.858399 kJ/mol
# GULP energy per Si atom -5569.496460 kJ/mol
# Density = 1.944433 g / cm^3
# Si number density = 19.488688 Si / 1000 Ang^3
#
#
#
# Elastic Constant Matrix: (Units=GPa)
#
#
# Indices 1 2 3 4 5 6 
#
# 1 39.6292 3.8099 -1.8872 0.0000 0.0000 0.0000
# 2 3.8099 66.1312 101.1015 0.0000 0.0000 0.0000
# 3 -1.8872 101.1015 232.1578 0.0000 0.0000 0.0000
# 4 0.0000 0.0000 0.0000 -191.1293 0.0000 0.0000
# 5 0.0000 0.0000 0.0000 0.0000 17.7002 0.0000
# 6 0.0000 0.0000 0.0000 0.0000 0.0000 2.7317
#
#
#
# Elastic Compliance Matrix: (Units=1/GPa)
#
#
# Indices 1 2 3 4 5 6 
#
# 1 0.025878 -0.005423 0.002572 0.000000 0.000000 0.000000
# 2 -0.005423 0.046379 -0.020242 0.000000 0.000000 0.000000
# 3 0.002572 -0.020242 0.013143 0.000000 0.000000 0.000000
# 4 0.000000 0.000000 0.000000 -0.005232 0.000000 0.000000
# 5 0.000000 0.000000 0.000000 0.000000 0.056497 0.000000
# 6 0.000000 0.000000 0.000000 0.000000 0.000000 0.366067
#
#
# Mechanical properties :
#
#
# Convention : Reuss Voigt Hill
#
# Bulk Modulus (GPa) = 25.50024 60.44075 42.97050
# Shear Modulus (GPa) = 8.89697 -18.47989 -4.79146
#
# Velocity S-wave (km/s) = 2.13895 -3.08269 -1.56969
# Velocity P-wave (km/s) = 4.38329 4.29068 4.33723
#
# Compressibility (1/GPa) = 0.03921531
#
# Stress axis : x y z
#
# Youngs Moduli (GPa) = 38.64328 21.56130 76.08441
#
# Poissons Ratio (x) = 0.11692 -0.19568
# Poissons Ratio (y) = 0.20955 1.54008
# Poissons Ratio (z) = -0.09939 0.43644
#
# Static dielectric constant tensor:
#      x y z
#    x 1.728010 0.000000 0.000000 
#    y 0.000000 1.673920 0.000000 
#    z 0.000000 0.000000 1.697960 
# 
# From -- ./inp_files/57706.got.cif
#   From: 2010.05.17/outbox.cif.g08.bks.cpg/sg71_29_cif.got.tgz:57706.got - 2010.06.03 16:22:01.
