data_PCOD9524341
_publ_section_title
;
Structure prediction by ZEFSAII (Michael W. Deem and Ramdas Pophale) SiO2 
 PCOD9524341
Probable space group: I M M M
;
_chemical_formula_sum "Si O2"
_cell_formula_units_Z 48
_cell_length_a 11.123735
_cell_length_b 7.688134
_cell_length_c 28.375995
_cell_angle_alpha 90.000000
_cell_angle_beta 90.000000
_cell_angle_gamma 90.000000
_cell_volume 2426.736807
_symmetry_space_group_name_H-M "I M M M"
_symmetry_group_IT_number 71
_symmetry_cell_setting 'orthorhombic'
loop_
_space_group_symop_operation_xyz
x,y,z
-x,-y,z
x,-y,-z
-x,y,-z
-x,-y,-z
x,y,-z
-x,y,z
x,-y,z
1/2+x,1/2+y,1/2+z
1/2-x,1/2-y,1/2+z
1/2+x,1/2-y,1/2-z
1/2-x,1/2+y,1/2-z
1/2-x,1/2-y,1/2-z
1/2+x,1/2+y,1/2-z
1/2-x,1/2+y,1/2+z
1/2+x,1/2-y,1/2+z
loop_
_atom_site_type_symbol
_atom_site_label
_atom_site_fract_x
_atom_site_fract_y
_atom_site_fract_z
Si Si1 0.142022 0.291917 0.713011
Si Si2 0.859650 0.000000 0.054312
Si Si3 0.766337 0.202848 0.609257
Si Si4 0.000000 0.210683 0.552196
O O1 0.134726 0.500000 0.710581
O O2 0.250000 0.250000 0.750000
O O3 0.194432 0.223676 0.663442
O O4 0.000000 0.232144 0.721101
O O5 0.828909 0.167146 0.086683
O O6 0.000000 0.000000 0.047666
O O7 0.806698 0.000000 0.000000
O O8 0.883719 0.259418 0.580533
O O9 0.737554 0.000000 0.600665
O O10 0.000000 0.280865 0.500000
O O11 0.000000 0.000000 0.550060
#
# Coordination Sequence:
#
# PCOD9524341 Si02
#       4
#    16   8  16   8
#     4  11  24  43  68  99 136 180 229 284 344 410
#     4  11  26  45  65  95 137 182 229 279 333 400
#     4  11  22  41  68  96 132 172 220 276 336 402
#     4   9  18  33  61  99 130 163 209 264 331 392
#
# _framework density 19.77965
#
# number of rings (size 3 to 8) (size 9 to 14) (size 15 to 20)
#    0.000    1.333    3.333    2.000    0.000    6.667 
#    0.000    3.333    0.000    0.000    0.000    0.000 
#    0.000    0.000    0.000    0.000    0.000    0.000 
#
# Total GULP energy -133693.478757 kJ/mol
# GULP energy per Si atom -5570.561615 kJ/mol
# Density = 1.973463 g / cm^3
# Si number density = 19.779650 Si / 1000 Ang^3
#
#
#
# Elastic Constant Matrix: (Units=GPa)
#
#
# Indices 1 2 3 4 5 6 
#
# 1 125.9125 45.3082 70.9752 0.0000 0.0000 0.0000
# 2 45.3082 110.0884 27.5849 0.0000 0.0000 0.0000
# 3 70.9752 27.5849 171.6934 0.0000 0.0000 0.0000
# 4 0.0000 0.0000 0.0000 21.0296 0.0000 0.0000
# 5 0.0000 0.0000 0.0000 0.0000 42.0648 0.0000
# 6 0.0000 0.0000 0.0000 0.0000 0.0000 29.8475
#
#
#
# Elastic Compliance Matrix: (Units=1/GPa)
#
#
# Indices 1 2 3 4 5 6 
#
# 1 0.011670 -0.003745 -0.004222 0.000000 0.000000 0.000000
# 2 -0.003745 0.010666 -0.000166 0.000000 0.000000 0.000000
# 3 -0.004222 -0.000166 0.007596 0.000000 0.000000 0.000000
# 4 0.000000 0.000000 0.000000 0.047552 0.000000 0.000000
# 5 0.000000 0.000000 0.000000 0.000000 0.023773 0.000000
# 6 0.000000 0.000000 0.000000 0.000000 0.000000 0.033504
#
#
# Mechanical properties :
#
#
# Convention : Reuss Voigt Hill
#
# Bulk Modulus (GPa) = 73.17040 77.27012 75.22026
# Shear Modulus (GPa) = 32.13737 36.17678 34.15707
#
# Velocity S-wave (km/s) = 4.03522 4.28131 4.16008
# Velocity P-wave (km/s) = 7.66705 7.97432 7.82219
#
# Compressibility (1/GPa) = 0.01366673
#
# Stress axis : x y z
#
# Youngs Moduli (GPa) = 85.69239 93.75300 131.64102
#
# Poissons Ratio (x) = 0.35108 0.55584
# Poissons Ratio (y) = 0.32090 0.02181
# Poissons Ratio (z) = 0.36183 0.01553
#
# Static dielectric constant tensor:
#      x y z
#    x 1.701350 0.000000 0.000000 
#    y 0.000000 1.705460 0.000000 
#    z 0.000000 0.000000 1.708920 
# 
# From -- ./inp_files/11755.got.cif
#   From: 2010.05.17/outbox.cif.g08.bks.cpg/sg71_6_cif.got.tgz:11755.got - 2010.06.03 16:22:01.
