data_PCOD9524603
_publ_section_title
;
Structure prediction by ZEFSAII (Michael W. Deem and Ramdas Pophale) SiO2 
 PCOD9524603
Probable space group: I M M M
;
_chemical_formula_sum "Si O2"
_cell_formula_units_Z 64
_cell_length_a 25.642088
_cell_length_b 15.303791
_cell_length_c 7.412724
_cell_angle_alpha 90.000000
_cell_angle_beta 90.000000
_cell_angle_gamma 90.000000
_cell_volume 2908.909718
_symmetry_space_group_name_H-M "I M M M"
_symmetry_group_IT_number 71
_symmetry_cell_setting 'orthorhombic'
loop_
_space_group_symop_operation_xyz
x,y,z
-x,-y,z
x,-y,-z
-x,y,-z
-x,-y,-z
x,y,-z
-x,y,z
x,-y,z
1/2+x,1/2+y,1/2+z
1/2-x,1/2-y,1/2+z
1/2+x,1/2-y,1/2-z
1/2-x,1/2+y,1/2-z
1/2-x,1/2-y,1/2-z
1/2+x,1/2+y,1/2-z
1/2-x,1/2+y,1/2+z
1/2+x,1/2-y,1/2+z
loop_
_atom_site_type_symbol
_atom_site_label
_atom_site_fract_x
_atom_site_fract_y
_atom_site_fract_z
Si Si1 0.860125 0.853071 0.278765
Si Si2 0.939814 0.500000 0.721673
Si Si3 0.246587 0.354183 0.213036
Si Si4 0.059651 0.000000 0.279937
Si Si5 0.368364 0.154808 0.208344
O O1 0.858346 0.851908 0.500000
O O2 0.802811 0.887297 0.221534
O O3 0.906975 0.915588 0.224465
O O4 0.867342 0.753118 0.215312
O O5 0.937774 0.500000 0.500000
O O6 0.908671 0.585528 0.785328
O O7 0.000000 0.500000 0.773649
O O8 0.250000 0.250000 0.250000
O O9 0.190727 0.382202 0.287210
O O10 0.243897 0.369657 0.000000
O O11 0.058802 0.000000 0.500000
O O12 0.000000 0.000000 0.218824
O O13 0.383058 0.166406 0.000000
#
# Coordination Sequence:
#
# PCOD9524603 Si02
#       5
#    16   8  16   8  16
#     4   8  15  26  40  61  89 117 143 179 226 274
#     4   9  18  31  47  67  91 123 164 205 242 282
#     4   9  16  28  47  70  96 122 150 186 232 284
#     4   9  16  25  38  60  89 117 146 181 224 272
#     4   9  17  30  47  68  94 121 154 195 235 279
#
# _framework density 22.001370999999999
#
# number of rings (size 3 to 8) (size 9 to 14) (size 15 to 20)
#    0.000    3.250    0.000    2.250    0.000    2.000 
#    0.000    6.875    0.000    1.500    0.000    7.875 
#    0.000   28.000    0.000    0.000    0.000    0.000 
#
# Total GULP energy -178463.376844 kJ/mol
# GULP energy per Si atom -5576.980526 kJ/mol
# Density = 2.195129 g / cm^3
# Si number density = 22.001371 Si / 1000 Ang^3
#
#
#
# Elastic Constant Matrix: (Units=GPa)
#
#
# Indices 1 2 3 4 5 6 
#
# 1 229.3825 107.9663 -7.3193 0.0000 0.0000 0.0000
# 2 107.9663 123.1300 2.7953 0.0000 0.0000 0.0000
# 3 -7.3193 2.7953 69.0952 0.0000 0.0000 0.0000
# 4 0.0000 0.0000 0.0000 -7.0196 0.0000 0.0000
# 5 0.0000 0.0000 0.0000 0.0000 15.4581 0.0000
# 6 0.0000 0.0000 0.0000 0.0000 0.0000 40.7557
#
#
#
# Elastic Compliance Matrix: (Units=1/GPa)
#
#
# Indices 1 2 3 4 5 6 
#
# 1 0.007500 -0.006601 0.001062 0.000000 0.000000 0.000000
# 2 -0.006601 0.013938 -0.001263 0.000000 0.000000 0.000000
# 3 0.001062 -0.001263 0.014636 0.000000 0.000000 0.000000
# 4 0.000000 0.000000 0.000000 -0.142458 0.000000 0.000000
# 5 0.000000 0.000000 0.000000 0.000000 0.064691 0.000000
# 6 0.000000 0.000000 0.000000 0.000000 0.000000 0.024536
#
#
# Mechanical properties :
#
#
# Convention : Reuss Voigt Hill
#
# Bulk Modulus (GPa) = 44.50360 69.83248 57.16804
# Shear Modulus (GPa) = 1269.45209 31.04986 650.25098
#
# Velocity S-wave (km/s) = 24.04663 3.76076 17.21022
# Velocity P-wave (km/s) = 28.12932 7.11806 20.51738
#
# Compressibility (1/GPa) = 0.02247009
#
# Stress axis : x y z
#
# Youngs Moduli (GPa) = 133.32964 71.74663 68.32314
#
# Poissons Ratio (x) = 0.47357 -0.07253
# Poissons Ratio (y) = 0.88006 0.08630
# Poissons Ratio (z) = -0.14153 0.09062
#
# Static dielectric constant tensor:
#      x y z
#    x 1.780300 0.000000 0.000000 
#    y 0.000000 1.805610 0.000000 
#    z 0.000000 0.000000 1.861700 
# 
# From -- ./inp_files/5889.got.cif
#   From: 2010.05.17/outbox.cif.g08.bks.cpg/sg71_3_cif.got.tgz:5889.got - 2010.06.03 16:22:01.
