data_PCOD9524398
_publ_section_title
;
Structure prediction by ZEFSAII (Michael W. Deem and Ramdas Pophale) SiO2 
 PCOD9524398
Probable space group: I M M M
;
_chemical_formula_sum "Si O2"
_cell_formula_units_Z 64
_cell_length_a 8.574083
_cell_length_b 15.856702
_cell_length_c 24.584794
_cell_angle_alpha 90.000000
_cell_angle_beta 90.000000
_cell_angle_gamma 90.000000
_cell_volume 3342.466947
_symmetry_space_group_name_H-M "I M M M"
_symmetry_group_IT_number 71
_symmetry_cell_setting 'orthorhombic'
loop_
_space_group_symop_operation_xyz
x,y,z
-x,-y,z
x,-y,-z
-x,y,-z
-x,-y,-z
x,y,-z
-x,y,z
x,-y,z
1/2+x,1/2+y,1/2+z
1/2-x,1/2-y,1/2+z
1/2+x,1/2-y,1/2-z
1/2-x,1/2+y,1/2-z
1/2-x,1/2-y,1/2-z
1/2+x,1/2+y,1/2-z
1/2-x,1/2+y,1/2+z
1/2+x,1/2-y,1/2+z
loop_
_atom_site_type_symbol
_atom_site_label
_atom_site_fract_x
_atom_site_fract_y
_atom_site_fract_z
Si Si1 0.813034 0.097415 0.111880
Si Si2 0.689041 0.138601 0.500000
Si Si3 0.814604 0.672512 0.500000
Si Si4 0.810494 0.500000 0.087276
Si Si5 0.809797 0.500000 0.788382
Si Si6 0.312925 0.165953 0.222047
O O1 0.752870 0.128968 0.053910
O O2 0.747297 0.153418 0.160884
O O3 0.000000 0.101262 0.112463
O O4 0.764509 0.000000 0.120649
O O5 0.500000 0.147043 0.500000
O O6 0.764081 0.229832 0.500000
O O7 0.734210 0.082378 0.552461
O O8 0.000000 0.665213 0.500000
O O9 0.755442 0.500000 0.149162
O O10 0.000000 0.500000 0.088071
O O11 0.760687 0.583876 0.756485
O O12 0.000000 0.500000 0.789151
O O13 0.500000 0.167755 0.221832
O O14 0.250000 0.250000 0.250000
#
# Coordination Sequence:
#
# PCOD9524398 Si02
#       6
#    16   8   8   8   8  16
#     4  11  24  44  67  90 119 159 209 262 312 369
#     4   9  18  35  61  89 120 158 205 252 295 356
#     4  12  26  40  61  92 126 159 198 251 314 381
#     4   8  16  33  58  88 119 159 205 248 295 354
#     4   9  19  36  60  89 125 166 207 251 309 370
#     4  11  23  40  63  94 131 170 211 258 313 375
#
# _framework density 19.147535999999999
#
# number of rings (size 3 to 8) (size 9 to 14) (size 15 to 20)
#    0.000    1.750    1.250    3.750    3.500    3.000 
#    0.000    1.250    0.000    3.000    0.000    0.000 
#    0.000    0.000    0.000    0.000    0.000    0.000 
#
# Total GULP energy -178850.759524 kJ/mol
# GULP energy per Si atom -5589.086235 kJ/mol
# Density = 1.910396 g / cm^3
# Si number density = 19.147536 Si / 1000 Ang^3
#
#
#
# Elastic Constant Matrix: (Units=GPa)
#
#
# Indices 1 2 3 4 5 6 
#
# 1 51.8736 39.2150 37.2844 0.0000 0.0000 0.0000
# 2 39.2150 142.3984 76.7398 0.0000 0.0000 0.0000
# 3 37.2844 76.7398 188.8940 0.0000 0.0000 0.0000
# 4 0.0000 0.0000 0.0000 7.3361 0.0000 0.0000
# 5 0.0000 0.0000 0.0000 0.0000 23.1138 0.0000
# 6 0.0000 0.0000 0.0000 0.0000 0.0000 22.2113
#
#
#
# Elastic Compliance Matrix: (Units=1/GPa)
#
#
# Indices 1 2 3 4 5 6 
#
# 1 0.025441 -0.005505 -0.002785 0.000000 0.000000 0.000000
# 2 -0.005505 0.010182 -0.003050 0.000000 0.000000 0.000000
# 3 -0.002785 -0.003050 0.007083 0.000000 0.000000 0.000000
# 4 0.000000 0.000000 0.000000 0.136311 0.000000 0.000000
# 5 0.000000 0.000000 0.000000 0.000000 0.043264 0.000000
# 6 0.000000 0.000000 0.000000 0.000000 0.000000 0.045022
#
#
# Mechanical properties :
#
#
# Convention : Reuss Voigt Hill
#
# Bulk Modulus (GPa) = 49.93613 76.62716 63.28165
# Shear Modulus (GPa) = 16.85429 25.86071 21.35750
#
# Velocity S-wave (km/s) = 2.97009 3.67904 3.34341
# Velocity P-wave (km/s) = 6.15615 7.62583 6.93006
#
# Compressibility (1/GPa) = 0.02002558
#
# Stress axis : x y z
#
# Youngs Moduli (GPa) = 39.30607 98.20920 141.18740
#
# Poissons Ratio (x) = 0.54068 0.39322
# Poissons Ratio (y) = 0.21640 0.43062
# Poissons Ratio (z) = 0.10947 0.29954
#
# Static dielectric constant tensor:
#      x y z
#    x 1.643590 0.000000 0.000000 
#    y 0.000000 1.643260 0.000000 
#    z 0.000000 0.000000 1.642590 
# 
# From -- ./inp_files/31217.got.cif
#   From: 2010.05.17/outbox.cif.g08.bks.cpg/sg71_16_cif.got.tgz:31217.got - 2010.06.03 16:22:01.
