data_PCOD9524082
_publ_section_title
;
Structure prediction by ZEFSAII (Michael W. Deem and Ramdas Pophale) SiO2 
 PCOD9524082
Probable space group: I M M M
;
_chemical_formula_sum "Si O2"
_cell_formula_units_Z 82
_cell_length_a 23.408596
_cell_length_b 11.132400
_cell_length_c 19.242067
_cell_angle_alpha 90.000000
_cell_angle_beta 90.000000
_cell_angle_gamma 90.000000
_cell_volume 5014.364401
_symmetry_space_group_name_H-M "I M M M"
_symmetry_group_IT_number 71
_symmetry_cell_setting 'orthorhombic'
loop_
_space_group_symop_operation_xyz
x,y,z
-x,-y,z
x,-y,-z
-x,y,-z
-x,-y,-z
x,y,-z
-x,y,z
x,-y,z
1/2+x,1/2+y,1/2+z
1/2-x,1/2-y,1/2+z
1/2+x,1/2-y,1/2-z
1/2-x,1/2+y,1/2-z
1/2-x,1/2-y,1/2-z
1/2+x,1/2+y,1/2-z
1/2-x,1/2+y,1/2+z
1/2+x,1/2-y,1/2+z
loop_
_atom_site_type_symbol
_atom_site_label
_atom_site_fract_x
_atom_site_fract_y
_atom_site_fract_z
Si Si1 0.910069 0.500000 0.624826
Si Si2 0.619159 0.353313 0.000000
Si Si3 0.500000 0.000000 0.000000
Si Si4 0.330593 0.640229 0.234535
Si Si5 0.269398 0.747049 0.641746
Si Si6 0.778987 0.500000 0.582562
Si Si7 0.746004 0.857989 0.500000
Si Si8 0.067303 0.232277 0.352860
O O1 0.951359 0.500000 0.559725
O O2 0.845852 0.500000 0.597838
O O3 0.922158 0.373563 0.661970
O O4 0.589183 0.300023 0.931079
O O5 0.615000 0.500000 0.000000
O O6 0.686569 0.318323 0.000000
O O7 0.323225 0.500000 0.250735
O O8 0.318513 0.721900 0.302017
O O9 0.281709 0.680390 0.179536
O O10 0.391708 0.660990 0.199235
O O11 0.246219 0.617829 0.618230
O O12 0.283431 0.812769 0.570113
O O13 0.768015 0.500000 0.500000
O O14 0.747739 0.000000 0.500000
O O15 0.000000 0.205597 0.348357
#
# Coordination Sequence:
#
# PCOD9524082 Si02
#       8
#     8   8   2  16  16   8   8  16
#     4  12  22  34  50  80 106 147 188 228 271 313
#     4  11  22  36  51  78 112 149 192 230 262 314
#     4  12  20  32  52  72 122 144 184 242 258 294
#     4  11  23  38  54  79 112 147 184 229 278 327
#     4  11  22  36  56  81 110 143 184 229 280 334
#     4  12  20  34  58  80 107 142 186 231 283 329
#     4  11  20  37  58  83 113 147 179 226 275 324
#     4  12  24  37  54  76 110 151 194 230 269 323
#
# _framework density 16.353020000000001
#
# number of rings (size 3 to 8) (size 9 to 14) (size 15 to 20)
#    0.000    0.585    7.317    2.049    0.000    1.951 
#    1.756    0.000    0.000    0.000    0.000    0.683 
#    0.000    3.122    0.000    0.000    0.000    0.000 
#
# Total GULP energy -228740.810701 kJ/mol
# GULP energy per Si atom -5579.044163 kJ/mol
# Density = 1.631580 g / cm^3
# Si number density = 16.353020 Si / 1000 Ang^3
#
#
#
# Elastic Constant Matrix: (Units=GPa)
#
#
# Indices 1 2 3 4 5 6 
#
# 1 65.1944 15.5175 44.6119 0.0000 0.0000 0.0000
# 2 15.5175 70.4420 19.4332 0.0000 0.0000 0.0000
# 3 44.6119 19.4332 109.7598 0.0000 0.0000 0.0000
# 4 0.0000 0.0000 0.0000 53.4806 0.0000 0.0000
# 5 0.0000 0.0000 0.0000 0.0000 21.3269 0.0000
# 6 0.0000 0.0000 0.0000 0.0000 0.0000 61.7449
#
#
#
# Elastic Compliance Matrix: (Units=1/GPa)
#
#
# Indices 1 2 3 4 5 6 
#
# 1 0.021647 -0.002462 -0.008363 0.000000 0.000000 0.000000
# 2 -0.002462 0.015205 -0.001692 0.000000 0.000000 0.000000
# 3 -0.008363 -0.001692 0.012809 0.000000 0.000000 0.000000
# 4 0.000000 0.000000 0.000000 0.018698 0.000000 0.000000
# 5 0.000000 0.000000 0.000000 0.000000 0.046889 0.000000
# 6 0.000000 0.000000 0.000000 0.000000 0.000000 0.016196
#
#
# Mechanical properties :
#
#
# Convention : Reuss Voigt Hill
#
# Bulk Modulus (GPa) = 40.60113 44.94682 42.77398
# Shear Modulus (GPa) = 30.36080 38.36606 34.36343
#
# Velocity S-wave (km/s) = 4.31349 4.84893 4.58902
# Velocity P-wave (km/s) = 7.04912 7.67427 7.36833
#
# Compressibility (1/GPa) = 0.02462985
#
# Stress axis : x y z
#
# Youngs Moduli (GPa) = 46.19555 65.76786 78.06823
#
# Poissons Ratio (x) = 0.16189 0.65286
# Poissons Ratio (y) = 0.11371 0.13206
# Poissons Ratio (z) = 0.38632 0.11125
#
# Static dielectric constant tensor:
#      x y z
#    x 1.540130 0.000000 0.000000 
#    y 0.000000 1.615700 0.000000 
#    z 0.000000 0.000000 1.547110 
# 
# From -- ./inp_files/47095.got.cif
#   From: 2010.05.17/outbox.cif.g08.bks.cpg/sg71_24_cif.got.tgz:47095.got - 2010.06.03 16:22:01.
