data_PCOD9524697
_publ_section_title
;
Structure prediction by ZEFSAII (Michael W. Deem and Ramdas Pophale) SiO2 
 PCOD9524697
Probable space group: I M M M
;
_chemical_formula_sum "Si O2"
_cell_formula_units_Z 52
_cell_length_a 24.000000
_cell_length_b 27.000000
_cell_length_c 9.000000
_cell_angle_alpha 90.000000
_cell_angle_beta 90.000000
_cell_angle_gamma 90.000000
_cell_volume 5832.000000
_symmetry_space_group_name_H-M "I M M M"
_symmetry_group_IT_number 71
_symmetry_cell_setting 'orthorhombic'
loop_
_space_group_symop_operation_xyz
x,y,z
-x,-y,z
x,-y,-z
-x,y,-z
-x,-y,-z
x,y,-z
-x,y,z
x,-y,z
1/2+x,1/2+y,1/2+z
1/2-x,1/2-y,1/2+z
1/2+x,1/2-y,1/2-z
1/2-x,1/2+y,1/2-z
1/2-x,1/2-y,1/2-z
1/2+x,1/2+y,1/2-z
1/2-x,1/2+y,1/2+z
1/2+x,1/2-y,1/2+z
loop_
_atom_site_type_symbol
_atom_site_label
_atom_site_fract_x
_atom_site_fract_y
_atom_site_fract_z
Si Si1 0.323962 0.846447 0.678438
Si Si2 0.882122 0.059526 0.677879
Si Si3 0.061894 0.231748 0.666654
Si Si4 0.500000 0.560283 0.327359
Si Si5 0.329991 0.732139 0.674322
Si Si6 0.438280 0.148294 0.828781
Si Si7 0.785576 0.127322 0.819861
O O1 0.318464 0.847373 0.500000
O O2 0.319613 0.788107 0.731531
O O3 0.385518 0.863812 0.727642
O O4 0.276575 0.879233 0.756389
O O5 0.882246 0.067339 0.500000
O O6 0.942386 0.074875 0.745756
O O7 0.832049 0.090580 0.752940
O O8 0.875268 0.000000 0.704257
O O9 0.080367 0.216947 0.500000
O O10 0.106184 0.218900 0.790091
O O11 0.058997 0.291601 0.667521
O O12 0.000000 0.212245 0.692324
O O13 0.500000 0.500000 0.325473
O O14 0.500000 0.576135 0.500000
O O15 0.319488 0.734686 0.500000
O O16 0.298329 0.683997 0.732239
O O17 0.500000 0.131282 0.779949
O O18 0.429361 0.132516 0.000000
O O19 0.786848 0.125004 0.000000
#
# Coordination Sequence:
#
# PCOD9524697 Si02
#       7
#    16  16  16   8  16  16  16
#     4  10  19  31  48  70  99 133 170 211 254 296
#     4  10  21  38  59  81 104 130 165 213 266 316
#     4   8  14  25  41  60  83 116 158 201 244 288
#     4   9  17  33  59  85 105 129 163 205 259 319
#     4   9  19  32  45  65  93 129 168 207 250 296
#     4   8  14  26  44  65  90 123 163 203 242 285
#     4  11  22  35  50  71  99 132 171 208 252 308
#
# _framework density 8.9163239999999995
#
# number of rings (size 3 to 8) (size 9 to 14) (size 15 to 20)
#    0.000    2.692    0.000    3.000    0.000    4.308 
#    1.385    3.077    0.000    0.000    0.000    0.000 
#    0.000    0.615    0.000    6.462    0.000    3.077 
#
# Total GULP energy -289600.654587 kJ/mol
# GULP energy per Si atom -5569.243357 kJ/mol
# Density = 0.889603 g / cm^3
# Si number density = 8.916324 Si / 1000 Ang^3
#
#
#
# Elastic Constant Matrix: (Units=GPa)
#
#
# Indices 1 2 3 4 5 6 
#
# 1 149.8186 41.2484 58.1968 0.0000 0.0000 0.0000
# 2 41.2484 25.1193 24.7802 0.0000 0.0000 0.0000
# 3 58.1968 24.7802 63.5503 0.0000 0.0000 0.0000
# 4 0.0000 0.0000 0.0000 17.3723 0.0000 0.0000
# 5 0.0000 0.0000 0.0000 0.0000 32.9655 0.0000
# 6 0.0000 0.0000 0.0000 0.0000 0.0000 23.0820
#
#
#
# Elastic Compliance Matrix: (Units=1/GPa)
#
#
# Indices 1 2 3 4 5 6 
#
# 1 0.013468 -0.016169 -0.006029 0.000000 0.000000 0.000000
# 2 -0.016169 0.084107 -0.017989 0.000000 0.000000 0.000000
# 3 -0.006029 -0.017989 0.028271 0.000000 0.000000 0.000000
# 4 0.000000 0.000000 0.000000 0.057563 0.000000 0.000000
# 5 0.000000 0.000000 0.000000 0.000000 0.030335 0.000000
# 6 0.000000 0.000000 0.000000 0.000000 0.000000 0.043324
#
#
# Mechanical properties :
#
#
# Convention : Reuss Voigt Hill
#
# Bulk Modulus (GPa) = 21.99123 54.10434 38.04779
# Shear Modulus (GPa) = 14.18037 22.30148 18.24093
#
# Velocity S-wave (km/s) = 2.82297 3.54022 3.20174
# Velocity P-wave (km/s) = 4.79420 6.86416 5.92035
#
# Compressibility (1/GPa) = 0.04547267
#
# Stress axis : x y z
#
# Youngs Moduli (GPa) = 74.24831 11.88960 35.37143
#
# Poissons Ratio (x) = 0.19224 0.21326
# Poissons Ratio (y) = 1.20049 0.63631
# Poissons Ratio (z) = 0.44765 0.21389
#
# Static dielectric constant tensor:
#      x y z
#    x 1.655330 0.000000 0.000000 
#    y 0.000000 1.610490 0.000000 
#    z 0.000000 0.000000 1.605640 
# 
# From -- ./inp_files/13312.got.cif
#   From: 2010.05.17/outbox.ucp.g08.bks.cvg/sg71_7_cif.got.tgz:13312.got - 2010.06.11 16:29:00.
