data_PCOD9524405
_publ_section_title
;
Structure prediction by ZEFSAII (Michael W. Deem and Ramdas Pophale) SiO2 
 PCOD9524405
Probable space group: I M M M
;
_chemical_formula_sum "Si O2"
_cell_formula_units_Z 72
_cell_length_a 8.657344
_cell_length_b 17.021329
_cell_length_c 24.686683
_cell_angle_alpha 90.000000
_cell_angle_beta 90.000000
_cell_angle_gamma 90.000000
_cell_volume 3637.817276
_symmetry_space_group_name_H-M "I M M M"
_symmetry_group_IT_number 71
_symmetry_cell_setting 'orthorhombic'
loop_
_space_group_symop_operation_xyz
x,y,z
-x,-y,z
x,-y,-z
-x,y,-z
-x,-y,-z
x,y,-z
-x,y,z
x,-y,z
1/2+x,1/2+y,1/2+z
1/2-x,1/2-y,1/2+z
1/2+x,1/2-y,1/2-z
1/2-x,1/2+y,1/2-z
1/2-x,1/2-y,1/2-z
1/2+x,1/2+y,1/2-z
1/2-x,1/2+y,1/2+z
1/2+x,1/2-y,1/2+z
loop_
_atom_site_type_symbol
_atom_site_label
_atom_site_fract_x
_atom_site_fract_y
_atom_site_fract_z
Si Si1 0.185576 0.500000 0.436691
Si Si2 0.183049 0.875657 0.854389
Si Si3 0.319957 0.295531 0.850000
Si Si4 0.819166 0.408110 0.935859
Si Si5 0.184348 0.588139 0.762691
O O1 0.228997 0.500000 0.500000
O O2 0.250734 0.575418 0.404782
O O3 0.000000 0.500000 0.432943
O O4 0.224454 0.783989 0.857682
O O5 0.261610 0.905877 0.799177
O O6 0.000000 0.887283 0.851092
O O7 0.500000 0.275954 0.845079
O O8 0.286510 0.352288 0.900539
O O9 0.264933 0.344643 0.797773
O O10 0.786293 0.500000 0.925979
O O11 0.000000 0.394871 0.921301
O O12 0.803132 0.394126 0.000000
O O13 0.222145 0.500000 0.783092
O O14 0.000000 0.597942 0.765882
#
# Coordination Sequence:
#
# PCOD9524405 Si02
#       5
#     8  16  16  16  16
#     4  11  25  47  73  99 129 167 212 263 324 387
#     4  12  25  43  67  93 126 164 210 263 317 378
#     4  12  25  39  60  92 130 167 212 262 316 379
#     4   9  19  38  62  87 120 162 207 256 313 376
#     4  11  23  41  66  93 129 169 209 258 319 383
#
# _framework density 19.792089000000001
#
# number of rings (size 3 to 8) (size 9 to 14) (size 15 to 20)
#    0.000    1.000    1.111    7.000    0.000    6.667 
#    0.000    1.111    0.000    0.000    0.000    0.000 
#    0.000    0.000    0.000    0.000    0.000    0.000 
#
# Total GULP energy -201473.112297 kJ/mol
# GULP energy per Si atom -5596.475342 kJ/mol
# Density = 1.974704 g / cm^3
# Si number density = 19.792089 Si / 1000 Ang^3
#
#
#
# Elastic Constant Matrix: (Units=GPa)
#
#
# Indices 1 2 3 4 5 6 
#
# 1 37.0502 7.6842 11.4370 0.0000 0.0000 0.0000
# 2 7.6842 86.9728 41.2212 0.0000 0.0000 0.0000
# 3 11.4370 41.2212 96.4487 0.0000 0.0000 0.0000
# 4 0.0000 0.0000 0.0000 -74.8133 0.0000 0.0000
# 5 0.0000 0.0000 0.0000 0.0000 36.6197 0.0000
# 6 0.0000 0.0000 0.0000 0.0000 0.0000 24.2323
#
#
#
# Elastic Compliance Matrix: (Units=1/GPa)
#
#
# Indices 1 2 3 4 5 6 
#
# 1 0.028105 -0.001133 -0.002848 0.000000 0.000000 0.000000
# 2 -0.001133 0.014464 -0.006047 0.000000 0.000000 0.000000
# 3 -0.002848 -0.006047 0.013291 0.000000 0.000000 0.000000
# 4 0.000000 0.000000 0.000000 -0.013367 0.000000 0.000000
# 5 0.000000 0.000000 0.000000 0.000000 0.027308 0.000000
# 6 0.000000 0.000000 0.000000 0.000000 0.000000 0.041267
#
#
# Mechanical properties :
#
#
# Convention : Reuss Voigt Hill
#
# Bulk Modulus (GPa) = 27.93180 37.90627 32.91904
# Shear Modulus (GPa) = 34.95046 7.88302 21.41674
#
# Velocity S-wave (km/s) = 4.20680 1.99789 3.29308
# Velocity P-wave (km/s) = 6.14324 4.95135 5.57922
#
# Compressibility (1/GPa) = 0.03580149
#
# Stress axis : x y z
#
# Youngs Moduli (GPa) = 35.58129 69.13623 75.24111
#
# Poissons Ratio (x) = 0.07834 0.21432
# Poissons Ratio (y) = 0.04032 0.45502
# Poissons Ratio (z) = 0.10135 0.41810
#
# Static dielectric constant tensor:
#      x y z
#    x 1.667040 0.000000 0.000000 
#    y 0.000000 1.686030 0.000000 
#    z 0.000000 0.000000 1.678900 
# 
# From -- ./inp_files/39956.got.cif
#   From: 2010.05.17/outbox.cif.g08.bks.cpg/sg71_20_cif.got.tgz:39956.got - 2010.06.03 16:22:01.
