data_PCOD9524239
_publ_section_title
;
Structure prediction by ZEFSAII (Michael W. Deem and Ramdas Pophale) SiO2 
 PCOD9524239
Probable space group: I M M M
;
_chemical_formula_sum "Si O2"
_cell_formula_units_Z 64
_cell_length_a 13.563963
_cell_length_b 20.976482
_cell_length_c 12.955515
_cell_angle_alpha 90.000000
_cell_angle_beta 90.000000
_cell_angle_gamma 90.000000
_cell_volume 3686.157874
_symmetry_space_group_name_H-M "I M M M"
_symmetry_group_IT_number 71
_symmetry_cell_setting 'orthorhombic'
loop_
_space_group_symop_operation_xyz
x,y,z
-x,-y,z
x,-y,-z
-x,y,-z
-x,-y,-z
x,y,-z
-x,y,z
x,-y,z
1/2+x,1/2+y,1/2+z
1/2-x,1/2-y,1/2+z
1/2+x,1/2-y,1/2-z
1/2-x,1/2+y,1/2-z
1/2-x,1/2-y,1/2-z
1/2+x,1/2+y,1/2-z
1/2-x,1/2+y,1/2+z
1/2+x,1/2-y,1/2+z
loop_
_atom_site_type_symbol
_atom_site_label
_atom_site_fract_x
_atom_site_fract_y
_atom_site_fract_z
Si Si1 0.616568 0.576849 0.500000
Si Si2 0.384773 0.000000 0.124223
Si Si3 0.113518 0.129254 0.380798
Si Si4 0.752407 0.886358 0.807652
Si Si5 0.387875 0.782871 0.878725
O O1 0.632316 0.500000 0.500000
O O2 0.500000 0.588467 0.500000
O O3 0.668206 0.606177 0.399398
O O4 0.330340 0.938763 0.169455
O O5 0.500000 0.000000 0.147465
O O6 0.373392 0.000000 0.000000
O O7 0.133496 0.112253 0.500000
O O8 0.190736 0.103048 0.298987
O O9 0.118474 0.206445 0.372689
O O10 0.000000 0.110763 0.357261
O O11 0.695554 0.819233 0.815485
O O12 0.500000 0.800986 0.848283
O O13 0.376251 0.800699 0.000000
#
# Coordination Sequence:
#
# PCOD9524239 Si02
#       5
#     8   8  16  16  16
#     4  11  22  34  48  76 112 140 168 215 272 317
#     4  11  22  36  55  84 111 133 172 216 260 320
#     4   9  20  36  53  76 104 140 181 217 251 305
#     4  12  18  34  54  80 104 141 173 215 264 317
#     4   9  17  31  53  80 108 135 173 217 260 312
#
# _framework density 17.362251000000001
#
# number of rings (size 3 to 8) (size 9 to 14) (size 15 to 20)
#    0.000    1.750    3.750    3.750    0.000    2.000 
#    0.000    0.625    0.000    5.250    0.000    0.000 
#    0.000    0.000    0.000    0.000    0.000    0.000 
#
# Total GULP energy -178620.670535 kJ/mol
# GULP energy per Si atom -5581.895954 kJ/mol
# Density = 1.732273 g / cm^3
# Si number density = 17.362251 Si / 1000 Ang^3
#
#
#
# Elastic Constant Matrix: (Units=GPa)
#
#
# Indices 1 2 3 4 5 6 
#
# 1 142.0869 24.1902 74.0652 0.0000 0.0000 0.0000
# 2 24.1902 19.6280 13.9966 -0.0001 0.0000 0.0000
# 3 74.0652 13.9966 98.5160 -0.0002 0.0000 0.0000
# 4 0.0000 -0.0001 -0.0002 12.4028 0.0000 0.0000
# 5 0.0000 0.0000 0.0000 0.0000 31.4214 0.0000
# 6 0.0000 0.0000 0.0000 0.0000 0.0000 -10.9846
#
#
#
# Elastic Compliance Matrix: (Units=1/GPa)
#
#
# Indices 1 2 3 4 5 6 
#
# 1 0.013190 -0.010220 -0.008464 0.000000 0.000000 0.000000
# 2 -0.010220 0.064610 -0.001496 0.000001 0.000000 0.000000
# 3 -0.008464 -0.001496 0.016727 0.000000 0.000000 0.000000
# 4 0.000000 0.000001 0.000000 0.080627 0.000000 0.000000
# 5 0.000000 0.000000 0.000000 0.000000 0.031825 0.000000
# 6 0.000000 0.000000 0.000000 0.000000 0.000000 -0.091036
#
#
# Mechanical properties :
#
#
# Convention : Reuss Voigt Hill
#
# Bulk Modulus (GPa) = 18.46174 53.85942 36.16058
# Shear Modulus (GPa) = 28.67649 16.43317 22.55483
#
# Velocity S-wave (km/s) = 4.06847 3.07984 3.60818
# Velocity P-wave (km/s) = 5.72069 6.61329 6.18312
#
# Compressibility (1/GPa) = 0.05416608
#
# Stress axis : x y z
#
# Youngs Moduli (GPa) = 75.81404 15.47752 59.78414
#
# Poissons Ratio (x) = 0.15818 0.50604
# Poissons Ratio (y) = 0.77482 0.08943
# Poissons Ratio (z) = 0.64173 0.02315
#
# Static dielectric constant tensor:
#      x y z
#    x 1.576080 0.000000 0.000000 
#    y 0.000000 1.626850 0.000000 
#    z 0.000000 0.000000 1.571880 
# 
# From -- ./inp_files/21280.got.cif
#   From: 2010.05.17/outbox.cif.g08.bks.cpg/sg71_11_cif.got.tgz:21280.got - 2010.06.03 16:22:01.
