data_PCOD9524649
_publ_section_title
;
Structure prediction by ZEFSAII (Michael W. Deem and Ramdas Pophale) SiO2 
 PCOD9524649
Probable space group: I M M M
;
_chemical_formula_sum "Si O2"
_cell_formula_units_Z 64
_cell_length_a 14.254621
_cell_length_b 10.168291
_cell_length_c 20.301225
_cell_angle_alpha 90.000000
_cell_angle_beta 90.000000
_cell_angle_gamma 90.000000
_cell_volume 2942.563787
_symmetry_space_group_name_H-M "I M M M"
_symmetry_group_IT_number 71
_symmetry_cell_setting 'orthorhombic'
loop_
_space_group_symop_operation_xyz
x,y,z
-x,-y,z
x,-y,-z
-x,y,-z
-x,-y,-z
x,y,-z
-x,y,z
x,-y,z
1/2+x,1/2+y,1/2+z
1/2-x,1/2-y,1/2+z
1/2+x,1/2-y,1/2-z
1/2-x,1/2+y,1/2-z
1/2-x,1/2-y,1/2-z
1/2+x,1/2+y,1/2-z
1/2-x,1/2+y,1/2+z
1/2+x,1/2-y,1/2+z
loop_
_atom_site_type_symbol
_atom_site_label
_atom_site_fract_x
_atom_site_fract_y
_atom_site_fract_z
Si Si1 0.397984 0.231142 0.925461
Si Si2 0.813861 0.147210 0.922501
Si Si3 0.132536 0.141980 0.707696
Si Si4 0.143974 0.350284 0.187692
O O1 0.500000 0.161434 0.921495
O O2 0.300311 0.153781 0.915103
O O3 0.397716 0.336359 0.867310
O O4 0.391723 0.284951 0.000000
O O5 0.858867 0.260598 0.877827
O O6 0.843678 0.000000 0.902894
O O7 0.833660 0.165766 0.000000
O O8 0.103050 0.263702 0.752905
O O9 0.245479 0.140219 0.704830
O O10 0.102675 0.000000 0.733194
O O11 0.109504 0.500000 0.180995
#
# Coordination Sequence:
#
# PCOD9524649 Si02
#       4
#    16  16  16  16
#     4   9  18  30  43  63  92 125 160 194 225 260
#     4   9  17  29  46  68  93 120 150 186 228 272
#     4   9  17  28  43  62  84 113 149 190 232 268
#     4   9  17  29  45  63  84 112 147 188 231 274
#
# _framework density 21.749739999999999
#
# number of rings (size 3 to 8) (size 9 to 14) (size 15 to 20)
#    0.000    3.000    0.000    0.750    0.000    8.000 
#    0.000    8.750    0.000    0.000    0.000    0.000 
#    0.000    1.000    0.000    8.250    0.000   29.250 
#
# Total GULP energy -178285.563532 kJ/mol
# GULP energy per Si atom -5571.423860 kJ/mol
# Density = 2.170024 g / cm^3
# Si number density = 21.749740 Si / 1000 Ang^3
#
#
#
# Elastic Constant Matrix: (Units=GPa)
#
#
# Indices 1 2 3 4 5 6 
#
# 1 56.0143 5.8780 17.5043 0.0000 0.0000 0.0000
# 2 5.8780 208.4253 104.8329 0.0000 0.0000 0.0000
# 3 17.5043 104.8329 124.9429 0.0000 0.0000 0.0000
# 4 0.0000 0.0000 0.0000 23.9610 0.0000 0.0000
# 5 0.0000 0.0000 0.0000 0.0000 -15.8455 0.0000
# 6 0.0000 0.0000 0.0000 0.0000 0.0000 -13.9119
#
#
#
# Elastic Compliance Matrix: (Units=1/GPa)
#
#
# Indices 1 2 3 4 5 6 
#
# 1 0.018897 0.001382 -0.003807 0.000000 0.000000 0.000000
# 2 0.001382 0.008402 -0.007243 0.000000 0.000000 0.000000
# 3 -0.003807 -0.007243 0.014615 0.000000 0.000000 0.000000
# 4 0.000000 0.000000 0.000000 0.041735 0.000000 0.000000
# 5 0.000000 0.000000 0.000000 0.000000 -0.063110 0.000000
# 6 0.000000 0.000000 0.000000 0.000000 0.000000 -0.071881
#
#
# Mechanical properties :
#
#
# Convention : Reuss Voigt Hill
#
# Bulk Modulus (GPa) = 44.29281 71.75699 58.02490
# Shear Modulus (GPa) = -204.25473 16.25187 -94.00143
#
# Velocity S-wave (km/s) = -9.70130 2.73650 -6.58129
# Velocity P-wave (km/s) = 10.25076 6.56112 5.56910
#
# Compressibility (1/GPa) = 0.02257703
#
# Stress axis : x y z
#
# Youngs Moduli (GPa) = 52.91778 119.01679 68.42489
#
# Poissons Ratio (x) = -0.16446 0.26049
# Poissons Ratio (y) = -0.07312 0.49563
# Poissons Ratio (z) = 0.20145 0.86209
#
# Static dielectric constant tensor:
#      x y z
#    x 1.820780 0.000000 0.000000 
#    y 0.000000 1.776550 0.000000 
#    z 0.000000 0.000000 1.767860 
# 
# From -- ./inp_files/25401.got.cif
#   From: 2010.05.17/outbox.cif.g08.bks.cpg/sg71_13_cif.got.tgz:25401.got - 2010.06.03 16:22:01.
