data_PCOD9524903
_publ_section_title
;
Structure prediction by ZEFSAII (Michael W. Deem and Ramdas Pophale) SiO2 
 PCOD9524903
Probable space group: I M M M
;
_chemical_formula_sum "Si O2"
_cell_formula_units_Z 52
_cell_length_a 21.000000
_cell_length_b 9.000000
_cell_length_c 27.000000
_cell_angle_alpha 90.000000
_cell_angle_beta 90.000000
_cell_angle_gamma 90.000000
_cell_volume 5103.000000
_symmetry_space_group_name_H-M "I M M M"
_symmetry_group_IT_number 71
_symmetry_cell_setting 'orthorhombic'
loop_
_space_group_symop_operation_xyz
x,y,z
-x,-y,z
x,-y,-z
-x,y,-z
-x,-y,-z
x,y,-z
-x,y,z
x,-y,z
1/2+x,1/2+y,1/2+z
1/2-x,1/2-y,1/2+z
1/2+x,1/2-y,1/2-z
1/2-x,1/2+y,1/2-z
1/2-x,1/2-y,1/2-z
1/2+x,1/2+y,1/2-z
1/2-x,1/2+y,1/2+z
1/2+x,1/2-y,1/2+z
loop_
_atom_site_type_symbol
_atom_site_label
_atom_site_fract_x
_atom_site_fract_y
_atom_site_fract_z
Si Si1 0.927575 0.677020 0.559618
Si Si2 0.929149 0.328489 0.152103
Si Si3 0.571777 0.680356 0.500000
Si Si4 0.797073 0.174369 0.596285
Si Si5 0.430344 0.829145 0.771196
Si Si6 0.832630 0.177446 0.086482
Si Si7 0.201598 0.172651 0.287785
O O1 0.923665 0.698139 0.500000
O O2 0.923238 0.500000 0.569220
O O3 0.866087 0.755860 0.583628
O O4 0.000000 0.724566 0.574750
O O5 0.922480 0.500000 0.135440
O O6 0.931193 0.330830 0.211545
O O7 0.867583 0.236626 0.135736
O O8 0.000000 0.273003 0.135618
O O9 0.568311 0.500000 0.500000
O O10 0.500000 0.738446 0.500000
O O11 0.613712 0.722861 0.453130
O O12 0.735724 0.254441 0.572684
O O13 0.781197 0.189944 0.654633
O O14 0.798631 0.000000 0.583751
O O15 0.500000 0.775069 0.788298
O O16 0.369609 0.735652 0.785380
O O17 0.423014 0.000000 0.788154
O O18 0.826318 0.000000 0.087998
O O19 0.250000 0.250000 0.250000
O O20 0.201580 0.000000 0.275259
#
# Coordination Sequence:
#
# PCOD9524903 Si02
#       7
#    16  16   8  16  16  16  16
#     4   9  20  41  68  95 122 153 195 248 302 362
#     4   9  18  34  55  80 113 150 188 235 291 348
#     4   9  20  38  57  81 114 147 180 227 283 328
#     4  11  25  41  58  86 122 158 196 242 299 359
#     4   9  19  36  58  83 112 148 188 234 290 347
#     4  11  22  36  57  83 111 148 194 241 284 336
#     4  11  24  40  58  82 117 158 200 248 298 352
#
# _framework density 10.190084000000001
#
# number of rings (size 3 to 8) (size 9 to 14) (size 15 to 20)
#    0.000    2.077    0.000    4.154    1.077    9.231 
#    0.000    6.538    0.000    2.769    0.000    0.000 
#    0.000    0.000    0.000    0.000    0.000    0.000 
#
# Total GULP energy -290172.019408 kJ/mol
# GULP energy per Si atom -5580.231142 kJ/mol
# Density = 1.016689 g / cm^3
# Si number density = 10.190084 Si / 1000 Ang^3
#
#
#
# Elastic Constant Matrix: (Units=GPa)
#
#
# Indices 1 2 3 4 5 6 
#
# 1 197.0491 80.0052 25.6292 0.0000 0.0000 0.0000
# 2 80.0052 72.4986 37.5936 0.0000 0.0000 0.0000
# 3 25.6292 37.5936 9.2469 0.0000 0.0000 0.0000
# 4 0.0000 0.0000 0.0000 14.7199 0.0000 0.0000
# 5 0.0000 0.0000 0.0000 0.0000 21.3869 0.0000
# 6 0.0000 0.0000 0.0000 0.0000 0.0000 40.5534
#
#
#
# Elastic Compliance Matrix: (Units=1/GPa)
#
#
# Indices 1 2 3 4 5 6 
#
# 1 0.007502 -0.002259 -0.011609 0.000000 0.000000 0.000000
# 2 -0.002259 -0.011767 0.054100 0.000000 0.000000 0.000000
# 3 -0.011609 0.054100 -0.079625 0.000000 0.000000 0.000000
# 4 0.000000 0.000000 0.000000 0.067935 0.000000 0.000000
# 5 0.000000 0.000000 0.000000 0.000000 0.046758 0.000000
# 6 0.000000 0.000000 0.000000 0.000000 0.000000 0.024659
#
#
# Mechanical properties :
#
#
# Convention : Reuss Voigt Hill
#
# Bulk Modulus (GPa) = -291.89322 62.80561 -114.54381
# Shear Modulus (GPa) = -191.24489 24.36982 -83.43754
#
# Velocity S-wave (km/s) = -9.69755 3.46173 -6.40542
# Velocity P-wave (km/s) = 16.39893 6.84558 10.53715
#
# Compressibility (1/GPa) = -0.00342591
#
# Stress axis : x y z
#
# Youngs Moduli (GPa) = 133.29817 -84.98333 -12.55887
#
# Poissons Ratio (x) = -0.19197 -0.14580
# Poissons Ratio (y) = 0.30111 0.67944
# Poissons Ratio (z) = 1.54747 4.59761
#
# Static dielectric constant tensor:
#      x y z
#    x 1.771180 0.000000 0.000000 
#    y 0.000000 1.706750 0.000000 
#    z 0.000000 0.000000 1.869950 
# 
# From -- ./inp_files/66452.got.cif
#   From: 2010.05.17/outbox.ucp.g08.bks.cvg/sg71_34_cif.got.tgz:66452.got - 2010.06.11 16:29:00.
