data_PCOD9524757
_publ_section_title
;
Structure prediction by ZEFSAII (Michael W. Deem and Ramdas Pophale) SiO2 
 PCOD9524757
Probable space group: I M M M
;
_chemical_formula_sum "Si O2"
_cell_formula_units_Z 52
_cell_length_a 27.000000
_cell_length_b 9.000000
_cell_length_c 24.000000
_cell_angle_alpha 90.000000
_cell_angle_beta 90.000000
_cell_angle_gamma 90.000000
_cell_volume 5832.000000
_symmetry_space_group_name_H-M "I M M M"
_symmetry_group_IT_number 71
_symmetry_cell_setting 'orthorhombic'
loop_
_space_group_symop_operation_xyz
x,y,z
-x,-y,z
x,-y,-z
-x,y,-z
-x,-y,-z
x,y,-z
-x,y,z
x,-y,z
1/2+x,1/2+y,1/2+z
1/2-x,1/2-y,1/2+z
1/2+x,1/2-y,1/2-z
1/2-x,1/2+y,1/2-z
1/2-x,1/2-y,1/2-z
1/2+x,1/2+y,1/2-z
1/2-x,1/2+y,1/2+z
1/2+x,1/2-y,1/2+z
loop_
_atom_site_type_symbol
_atom_site_label
_atom_site_fract_x
_atom_site_fract_y
_atom_site_fract_z
Si Si1 0.500000 0.329911 0.432151
Si Si2 0.399482 0.823526 0.434890
Si Si3 0.203205 0.677422 0.371581
Si Si4 0.182662 0.177874 0.859897
Si Si5 0.652639 0.320864 0.234457
Si Si6 0.944460 0.180207 0.672084
Si Si7 0.616382 0.679342 0.063240
O O1 0.500000 0.500000 0.414063
O O2 0.500000 0.326338 0.500000
O O3 0.549570 0.248359 0.413904
O O4 0.393596 0.783431 0.500000
O O5 0.354485 0.760689 0.400147
O O6 0.402767 0.000000 0.431039
O O7 0.196841 0.500000 0.372632
O O8 0.261047 0.712044 0.376128
O O9 0.185067 0.741955 0.312565
O O10 0.168620 0.751296 0.418245
O O11 0.170262 0.218900 0.796057
O O12 0.175645 0.000000 0.864473
O O13 0.657184 0.500000 0.228174
O O14 0.595956 0.279771 0.218921
O O15 0.922325 0.224573 0.611653
O O16 0.000000 0.236271 0.680867
O O17 0.946458 0.000000 0.671663
O O18 0.620093 0.500000 0.065501
O O19 0.602931 0.721058 0.000000
#
# Coordination Sequence:
#
# PCOD9524757 Si02
#       7
#     8  16  16  16  16  16  16
#     4   9  17  33  57  77  97 131 169 205 248 297
#     4  10  21  36  54  77 105 136 171 212 258 310
#     4  10  20  33  51  73 101 136 172 213 262 310
#     4  10  21  35  51  76 104 133 173 216 258 310
#     4   9  18  34  53  74 101 131 170 213 255 309
#     4   8  14  27  49  75 101 128 160 204 254 300
#     4   9  18  32  50  73 101 134 172 211 253 307
#
# _framework density 8.9163239999999995
#
# number of rings (size 3 to 8) (size 9 to 14) (size 15 to 20)
#    0.000    2.692    0.000    2.538    0.000    4.923 
#    1.385    4.615    0.000    7.385    0.000    4.308 
#    0.000    0.000    0.000    0.000    0.000    0.000 
#
# Total GULP energy -289912.714833 kJ/mol
# GULP energy per Si atom -5575.244516 kJ/mol
# Density = 0.889603 g / cm^3
# Si number density = 8.916324 Si / 1000 Ang^3
#
#
#
# Elastic Constant Matrix: (Units=GPa)
#
#
# Indices 1 2 3 4 5 6 
#
# 1 83.7584 22.1320 -13.6873 0.0000 0.0000 0.0000
# 2 22.1320 0.7263 -1.9755 0.0000 0.0000 0.0000
# 3 -13.6873 -1.9755 -12.4095 0.0000 0.0000 0.0000
# 4 0.0000 0.0000 0.0000 23.5848 0.0000 0.0000
# 5 0.0000 0.0000 0.0000 0.0000 13.1940 0.0000
# 6 0.0000 0.0000 0.0000 0.0000 0.0000 27.0404
#
#
#
# Elastic Compliance Matrix: (Units=1/GPa)
#
#
# Indices 1 2 3 4 5 6 
#
# 1 -0.002132 0.049803 -0.005577 0.000000 0.000000 0.000000
# 2 0.049803 -0.202515 -0.022693 0.000000 0.000000 0.000000
# 3 -0.005577 -0.022693 -0.070820 0.000000 0.000000 0.000000
# 4 0.000000 0.000000 0.000000 0.042400 0.000000 0.000000
# 5 0.000000 0.000000 0.000000 0.000000 0.075792 0.000000
# 6 0.000000 0.000000 0.000000 0.000000 0.000000 0.036982
#
#
# Mechanical properties :
#
#
# Convention : Reuss Voigt Hill
#
# Bulk Modulus (GPa) = -4.30292 9.44598 2.57153
# Shear Modulus (GPa) = -20.76180 17.13757 -1.81211
#
# Velocity S-wave (km/s) = -3.41582 3.10340 -1.00915
# Velocity P-wave (km/s) = 4.23973 4.26028 0.29550
#
# Compressibility (1/GPa) = -0.23240014
#
# Stress axis : x y z
#
# Youngs Moduli (GPa) = -469.02343 -4.93791 -14.12027
#
# Poissons Ratio (x) = 0.24592 -0.07874
# Poissons Ratio (y) = 23.35898 -0.32044
# Poissons Ratio (z) = -2.61556 -0.11206
#
# Static dielectric constant tensor:
#      x y z
#    x 1.616510 0.000000 0.000000 
#    y 0.000000 1.592460 0.000000 
#    z 0.000000 0.000000 1.594820 
# 
# From -- ./inp_files/15260.got.cif
#   From: 2010.05.17/outbox.ucp.g08.bks.cvg/sg71_8_cif.got.tgz:15260.got - 2010.06.11 16:29:00.
