data_PCOD9524536
_publ_section_title
;
Structure prediction by ZEFSAII (Michael W. Deem and Ramdas Pophale) SiO2 
 PCOD9524536
Probable space group: I M M M
;
_chemical_formula_sum "Si O2"
_cell_formula_units_Z 104
_cell_length_a 21.482020
_cell_length_b 7.287703
_cell_length_c 32.939842
_cell_angle_alpha 90.000000
_cell_angle_beta 90.000000
_cell_angle_gamma 90.000000
_cell_volume 5156.883182
_symmetry_space_group_name_H-M "I M M M"
_symmetry_group_IT_number 71
_symmetry_cell_setting 'orthorhombic'
loop_
_space_group_symop_operation_xyz
x,y,z
-x,-y,z
x,-y,-z
-x,y,-z
-x,-y,-z
x,y,-z
-x,y,z
x,-y,z
1/2+x,1/2+y,1/2+z
1/2-x,1/2-y,1/2+z
1/2+x,1/2-y,1/2-z
1/2-x,1/2+y,1/2-z
1/2-x,1/2-y,1/2-z
1/2+x,1/2+y,1/2-z
1/2-x,1/2+y,1/2+z
1/2+x,1/2-y,1/2+z
loop_
_atom_site_type_symbol
_atom_site_label
_atom_site_fract_x
_atom_site_fract_y
_atom_site_fract_z
Si Si1 0.068898 0.780448 0.676372
Si Si2 0.322597 0.777553 0.668633
Si Si3 0.260218 0.723218 0.955242
Si Si4 0.569845 0.217755 0.727750
Si Si5 0.130704 0.277459 0.079800
Si Si6 0.500000 0.776213 0.453258
Si Si7 0.193249 0.224139 0.366776
O O1 0.077927 0.744306 0.724187
O O2 0.127424 0.713081 0.650700
O O3 0.000000 0.711181 0.665104
O O4 0.067745 0.000000 0.671421
O O5 0.369700 0.711921 0.703537
O O6 0.353741 0.728362 0.625774
O O7 0.250809 0.718568 0.662446
O O8 0.320013 0.000000 0.671744
O O9 0.262346 0.500000 0.955251
O O10 0.188212 0.778153 0.948487
O O11 0.294342 0.780411 0.913542
O O12 0.282121 0.782818 0.000000
O O13 0.500000 0.288547 0.716913
O O14 0.567642 0.000000 0.719709
O O15 0.130044 0.500000 0.078218
O O16 0.063446 0.212271 0.066885
O O17 0.500000 0.725530 0.500000
O O18 0.500000 0.000000 0.451158
O O19 0.194061 0.000000 0.366887
#
# Coordination Sequence:
#
# PCOD9524536 Si02
#       7
#    16  16  16  16  16   8  16
#     4   9  17  29  43  57  75 101 130 158 193 234
#     4   8  14  23  34  50  71  96 127 160 190 221
#     4   8  12  19  31  46  66  92 122 154 185 220
#     4   9  17  27  40  58  79 102 130 161 190 223
#     4   8  13  18  25  39  62  93 125 155 185 218
#     4   9  14  16  20  34  58  90 127 159 183 213
#     4   8  14  24  37  53  72  97 128 157 187 228
#
# _framework density 20.167218999999999
#
# number of rings (size 3 to 8) (size 9 to 14) (size 15 to 20)
#    0.000    3.615    0.000    2.308    1.077    2.462 
#    0.000    0.000    0.000    0.462    0.000    3.231 
#    0.000    0.615    0.000    4.308    0.000    9.538 
#
# Total GULP energy -289801.663341 kJ/mol
# GULP energy per Si atom -5573.108910 kJ/mol
# Density = 2.012132 g / cm^3
# Si number density = 20.167219 Si / 1000 Ang^3
#
#
#
# Elastic Constant Matrix: (Units=GPa)
#
#
# Indices 1 2 3 4 5 6 
#
# 1 205.3963 8.8784 111.5695 0.0000 0.0000 0.0000
# 2 8.8784 85.1206 0.3012 0.0000 0.0000 0.0000
# 3 111.5695 0.3012 104.3415 0.0000 0.0000 0.0000
# 4 0.0000 0.0000 0.0000 -27.4071 0.0000 0.0000
# 5 0.0000 0.0000 0.0000 0.0000 36.3039 0.0000
# 6 0.0000 0.0000 0.0000 0.0000 0.0000 -12.5042
#
#
#
# Elastic Compliance Matrix: (Units=1/GPa)
#
#
# Indices 1 2 3 4 5 6 
#
# 1 0.011732 -0.001179 -0.012541 0.000000 0.000000 0.000000
# 2 -0.001179 0.011867 0.001227 0.000000 0.000000 0.000000
# 3 -0.012541 0.001227 0.022990 0.000000 0.000000 0.000000
# 4 0.000000 0.000000 0.000000 -0.036487 0.000000 0.000000
# 5 0.000000 0.000000 0.000000 0.000000 0.027545 0.000000
# 6 0.000000 0.000000 0.000000 0.000000 0.000000 -0.079973
#
#
# Mechanical properties :
#
#
# Convention : Reuss Voigt Hill
#
# Bulk Modulus (GPa) = 46.29324 70.70629 58.49976
# Shear Modulus (GPa) = -493.19961 17.55247 -237.82357
#
# Velocity S-wave (km/s) = -15.65522 2.95336 -10.87115
# Velocity P-wave (km/s) = 17.42919 6.83856 11.33602
#
# Compressibility (1/GPa) = 0.02160143
#
# Stress axis : x y z
#
# Youngs Moduli (GPa) = 85.23793 84.26939 43.49661
#
# Poissons Ratio (x) = 0.09938 0.54550
# Poissons Ratio (y) = 0.10052 -0.05336
# Poissons Ratio (z) = 1.06898 -0.10338
#
# Static dielectric constant tensor:
#      x y z
#    x 1.709600 0.000000 0.000000 
#    y 0.000000 1.995750 0.000000 
#    z 0.000000 0.000000 1.675850 
# 
# From -- ./inp_files/70845.got.cif
#   From: 2010.05.17/outbox.cif.g08.bks.cpg/sg71_36_cif.got.tgz:70845.got - 2010.06.03 16:22:01.
