data_PCOD9524820
_publ_section_title
;
Structure prediction by ZEFSAII (Michael W. Deem and Ramdas Pophale) SiO2 
 PCOD9524820
Probable space group: I M M M
;
_chemical_formula_sum "Si O2"
_cell_formula_units_Z 44
_cell_length_a 18.000000
_cell_length_b 30.000000
_cell_length_c 9.000000
_cell_angle_alpha 90.000000
_cell_angle_beta 90.000000
_cell_angle_gamma 90.000000
_cell_volume 4860.000000
_symmetry_space_group_name_H-M "I M M M"
_symmetry_group_IT_number 71
_symmetry_cell_setting 'orthorhombic'
loop_
_space_group_symop_operation_xyz
x,y,z
-x,-y,z
x,-y,-z
-x,y,-z
-x,-y,-z
x,y,-z
-x,y,z
x,-y,z
1/2+x,1/2+y,1/2+z
1/2-x,1/2-y,1/2+z
1/2+x,1/2-y,1/2-z
1/2-x,1/2+y,1/2-z
1/2-x,1/2-y,1/2-z
1/2+x,1/2+y,1/2-z
1/2-x,1/2+y,1/2+z
1/2+x,1/2-y,1/2+z
loop_
_atom_site_type_symbol
_atom_site_label
_atom_site_fract_x
_atom_site_fract_y
_atom_site_fract_z
Si Si1 0.000000 0.551380 0.822751
Si Si2 0.084785 0.112166 0.679503
Si Si3 0.289915 0.448049 0.321306
Si Si4 0.162127 0.203204 0.321133
Si Si5 0.636458 0.101426 0.178549
Si Si6 0.824899 0.301025 0.321288
O O1 0.927920 0.574963 0.757948
O O2 0.000000 0.500000 0.776428
O O3 0.000000 0.553741 0.000000
O O4 0.088583 0.110054 0.500000
O O5 0.140526 0.076256 0.747282
O O6 0.111024 0.161942 0.724986
O O7 0.000000 0.104421 0.724859
O O8 0.297549 0.446277 0.500000
O O9 0.283283 0.500000 0.278186
O O10 0.215833 0.420350 0.282380
O O11 0.168117 0.201463 0.500000
O O12 0.137905 0.253679 0.281531
O O13 0.243538 0.197563 0.251372
O O14 0.634450 0.153511 0.220584
O O15 0.628014 0.098027 0.000000
O O16 0.815807 0.301849 0.500000
#
# Coordination Sequence:
#
# PCOD9524820 Si02
#       6
#     8  16  16  16  16  16
#     4  11  25  41  57  81 113 147 183 227 280 333
#     4  10  21  36  53  77 111 149 185 223 270 323
#     4  10  21  37  58  82 106 137 181 230 276 323
#     4   9  17  31  52  80 110 142 177 218 267 319
#     4  10  20  37  60  84 110 142 182 225 272 331
#     4   9  17  31  55  84 108 137 177 220 266 319
#
# _framework density 9.0534979999999994
#
# number of rings (size 3 to 8) (size 9 to 14) (size 15 to 20)
#    0.000    2.273    1.818    0.818    0.000    4.000 
#    1.636    1.818    0.000    0.000    0.000    0.000 
#    0.000    0.000    0.000    0.000    0.000    0.000 
#
# Total GULP energy -245414.374045 kJ/mol
# GULP energy per Si atom -5577.599410 kJ/mol
# Density = 0.903289 g / cm^3
# Si number density = 9.053498 Si / 1000 Ang^3
#
#
#
# Elastic Constant Matrix: (Units=GPa)
#
#
# Indices 1 2 3 4 5 6 
#
# 1 69.6902 36.5580 16.8935 -0.0002 0.0000 0.0001
# 2 36.5580 138.9669 26.3155 0.0000 0.0001 0.0001
# 3 16.8935 26.3155 -1.3694 -0.0039 0.0008 0.0006
# 4 -0.0002 0.0000 -0.0039 26.1733 0.0002 0.0001
# 5 0.0000 0.0001 0.0008 0.0002 27.5569 0.0001
# 6 0.0001 0.0001 0.0006 0.0001 0.0001 15.9215
#
#
#
# Elastic Compliance Matrix: (Units=1/GPa)
#
#
# Indices 1 2 3 4 5 6 
#
# 1 0.013206 -0.007399 0.020727 0.000003 -0.000001 -0.000001
# 2 -0.007399 0.005697 0.018196 0.000003 -0.000001 -0.000001
# 3 0.020727 0.018196 -0.124882 -0.000019 0.000003 0.000005
# 4 0.000003 0.000003 -0.000019 0.038207 0.000000 0.000000
# 5 -0.000001 -0.000001 0.000003 0.000000 0.036289 0.000000
# 6 -0.000001 -0.000001 0.000005 0.000000 0.000000 0.062808
#
#
# Mechanical properties :
#
#
# Convention : Reuss Voigt Hill
#
# Bulk Modulus (GPa) = -23.29297 40.75795 8.73249
# Shear Modulus (GPa) = -108.61633 22.43172 -43.09230
#
# Velocity S-wave (km/s) = -7.75345 3.52354 -4.88368
# Velocity P-wave (km/s) = 9.64607 6.25397 5.19301
#
# Compressibility (1/GPa) = -0.04293141
#
# Stress axis : x y z
#
# Youngs Moduli (GPa) = 75.72209 175.53544 -8.00755
#
# Poissons Ratio (x) = 1.29882 0.16598
# Poissons Ratio (y) = 0.56028 0.14570
# Poissons Ratio (z) = -1.56953 -3.19397
#
# Static dielectric constant tensor:
#      x y z
#    x 1.572780 0.000000 0.000000 
#    y 0.000000 1.643940 0.000000 
#    z 0.000000 0.000000 1.605670 
# 
# From -- ./inp_files/8797.got.cif
#   From: 2010.05.17/outbox.ucp.g08.bks.cvg/sg71_5_cif.got.tgz:8797.got - 2010.06.11 16:29:00.
