data_PCOD9524326
_publ_section_title
;
Structure prediction by ZEFSAII (Michael W. Deem and Ramdas Pophale) SiO2 
 PCOD9524326
Probable space group: I M M M
;
_chemical_formula_sum "Si O2"
_cell_formula_units_Z 88
_cell_length_a 15.667354
_cell_length_b 11.628629
_cell_length_c 26.128189
_cell_angle_alpha 90.000000
_cell_angle_beta 90.000000
_cell_angle_gamma 90.000000
_cell_volume 4760.290758
_symmetry_space_group_name_H-M "I M M M"
_symmetry_group_IT_number 71
_symmetry_cell_setting 'orthorhombic'
loop_
_space_group_symop_operation_xyz
x,y,z
-x,-y,z
x,-y,-z
-x,y,-z
-x,-y,-z
x,y,-z
-x,y,z
x,-y,z
1/2+x,1/2+y,1/2+z
1/2-x,1/2-y,1/2+z
1/2+x,1/2-y,1/2-z
1/2-x,1/2+y,1/2-z
1/2-x,1/2-y,1/2-z
1/2+x,1/2+y,1/2-z
1/2-x,1/2+y,1/2+z
1/2+x,1/2-y,1/2+z
loop_
_atom_site_type_symbol
_atom_site_label
_atom_site_fract_x
_atom_site_fract_y
_atom_site_fract_z
Si Si1 0.822448 0.638081 0.388968
Si Si2 0.500000 0.860649 0.058196
Si Si3 0.104043 0.500000 0.084389
Si Si4 0.156450 0.754509 0.940800
Si Si5 0.500000 0.362336 0.621900
Si Si6 0.000000 0.862446 0.756724
Si Si7 0.659352 0.211827 0.228461
Si Si8 0.101206 0.500000 0.796925
O O1 0.810201 0.500000 0.395078
O O2 0.745757 0.704675 0.416721
O O3 0.827819 0.667991 0.329162
O O4 0.913139 0.672146 0.413528
O O5 0.500000 0.000000 0.057307
O O6 0.500000 0.818998 0.000000
O O7 0.140942 0.382534 0.061442
O O8 0.129163 0.500000 0.144339
O O9 0.000000 0.500000 0.079425
O O10 0.082280 0.810392 0.906183
O O11 0.150166 0.792122 0.000000
O O12 0.500000 0.500000 0.617328
O O13 0.500000 0.333602 0.682324
O O14 0.914860 0.807469 0.732399
O O15 0.000000 0.000000 0.751758
O O16 0.750000 0.250000 0.250000
O O17 0.630139 0.109819 0.265430
O O18 0.000000 0.500000 0.798435
#
# Coordination Sequence:
#
# PCOD9524326 Si02
#       8
#    16   8   8  16   8   8  16   8
#     4  11  23  41  64  94 127 159 208 265 319 379
#     4   9  19  36  62  89 116 152 195 249 311 365
#     4  11  23  42  65  91 126 170 224 258 300 376
#     4  12  25  41  64  91 128 171 214 264 315 374
#     4  11  23  40  62  93 131 164 207 262 324 384
#     4  11  25  43  62  92 135 171 209 265 321 380
#     4  12  24  39  64  93 127 167 212 257 319 386
#     4  11  22  39  66  92 123 164 209 264 319 374
#
# _framework density 18.486266000000001
#
# number of rings (size 3 to 8) (size 9 to 14) (size 15 to 20)
#    0.000    0.818    2.727    5.455    1.273    4.364 
#    1.636    0.000    0.000    0.000    0.000    1.909 
#    0.000    0.000    0.000    0.000    0.000    0.000 
#
# Total GULP energy -246021.236165 kJ/mol
# GULP energy per Si atom -5591.391731 kJ/mol
# Density = 1.844419 g / cm^3
# Si number density = 18.486266 Si / 1000 Ang^3
#
#
#
# Elastic Constant Matrix: (Units=GPa)
#
#
# Indices 1 2 3 4 5 6 
#
# 1 135.0544 45.2616 26.2790 0.0000 0.0000 0.0000
# 2 45.2616 92.7854 19.5928 0.0000 0.0000 0.0000
# 3 26.2790 19.5928 87.2692 0.0000 0.0000 0.0000
# 4 0.0000 0.0000 0.0000 -5.2866 0.0000 0.0000
# 5 0.0000 0.0000 0.0000 0.0000 217.8117 0.0000
# 6 0.0000 0.0000 0.0000 0.0000 0.0000 37.4652
#
#
#
# Elastic Compliance Matrix: (Units=1/GPa)
#
#
# Indices 1 2 3 4 5 6 
#
# 1 0.009123 -0.004063 -0.001835 0.000000 0.000000 0.000000
# 2 -0.004063 0.013123 -0.001723 0.000000 0.000000 0.000000
# 3 -0.001835 -0.001723 0.012398 0.000000 0.000000 0.000000
# 4 0.000000 0.000000 0.000000 -0.189159 0.000000 0.000000
# 5 0.000000 0.000000 0.000000 0.000000 0.004591 0.000000
# 6 0.000000 0.000000 0.000000 0.000000 0.000000 0.026691
#
#
# Mechanical properties :
#
#
# Convention : Reuss Voigt Hill
#
# Bulk Modulus (GPa) = 51.53842 55.26397 53.40120
# Shear Modulus (GPa) = -49.25019 64.92978 7.83980
#
# Velocity S-wave (km/s) = -5.16714 5.93292 2.06157
# Velocity P-wave (km/s) = 2.76754 8.76882 5.88357
#
# Compressibility (1/GPa) = 0.01940300
#
# Stress axis : x y z
#
# Youngs Moduli (GPa) = 109.61196 76.20067 80.65705
#
# Poissons Ratio (x) = 0.30959 0.14801
# Poissons Ratio (y) = 0.44534 0.13896
# Poissons Ratio (z) = 0.20114 0.13128
#
# Static dielectric constant tensor:
#      x y z
#    x 1.579850 0.000000 0.000000 
#    y 0.000000 1.617490 0.000000 
#    z 0.000000 0.000000 1.617630 
# 
# From -- ./inp_files/59726.got.cif
#   From: 2010.05.17/outbox.cif.g08.bks.cpg/sg71_30_cif.got.tgz:59726.got - 2010.06.03 16:22:01.
