data_PCOD9524975
_publ_section_title
;
Structure prediction by ZEFSAII (Michael W. Deem and Ramdas Pophale) SiO2 
 PCOD9524975
Probable space group: I B A M
;
_chemical_formula_sum "Si O2"
_cell_formula_units_Z 96
_cell_length_a 13.558440
_cell_length_b 18.186101
_cell_length_c 16.018655
_cell_angle_alpha 90.000000
_cell_angle_beta 90.000000
_cell_angle_gamma 90.000000
_cell_volume 3949.802407
_symmetry_space_group_name_H-M "I B A M"
_symmetry_group_IT_number 72
_symmetry_cell_setting 'orthorhombic'
loop_
_space_group_symop_operation_xyz
x,y,z
-x,-y,z
x,-y,1/2-z
-x,y,1/2-z
-x,-y,-z
x,y,-z
-x,y,1/2+z
x,-y,1/2+z
1/2+x,1/2+y,1/2+z
1/2-x,1/2-y,1/2+z
1/2+x,1/2-y,-z
1/2-x,1/2+y,-z
1/2-x,1/2-y,1/2-z
1/2+x,1/2+y,1/2-z
1/2-x,1/2+y,z
1/2+x,1/2-y,z
loop_
_atom_site_type_symbol
_atom_site_label
_atom_site_fract_x
_atom_site_fract_y
_atom_site_fract_z
Si Si1 0.333034 0.925431 0.899379
Si Si2 0.612640 0.606326 0.160621
Si Si3 0.818699 0.586242 0.596567
Si Si4 0.811482 0.259985 0.835820
Si Si5 0.884806 0.729933 0.906750
Si Si6 0.903360 0.893660 0.145445
O O1 0.217894 0.916526 0.875275
O O2 0.392737 0.852698 0.870130
O O3 0.360346 0.008059 0.872857
O O4 0.340312 0.923797 0.000000
O O5 0.611735 0.695058 0.160147
O O6 0.610144 0.584997 0.258006
O O7 0.511723 0.580268 0.117944
O O8 0.847616 0.597120 0.500000
O O9 0.846629 0.657321 0.650780
O O10 0.697926 0.583626 0.600607
O O11 0.750000 0.250000 0.750000
O O12 0.733823 0.241428 0.908788
O O13 0.910103 0.804890 0.860092
O O14 0.927322 0.732009 0.000000
#
# Coordination Sequence:
#
# PCOD9524975 Si02
#       6
#    16  16  16  16  16  16
#     4   9  20  34  50  73 102 133 172 213 248 298
#     4  10  20  32  49  74 105 130 167 210 254 303
#     4  10  20  35  52  73 101 136 170 206 253 305
#     4  10  16  31  52  73  94 126 171 211 247 288
#     4   9  17  32  51  71  96 133 172 210 248 292
#     4  10  19  32  49  74 103 135 165 208 255 307
#
# _framework density 24.305012999999999
#
# number of rings (size 3 to 8) (size 9 to 14) (size 15 to 20)
#    0.000    2.333    3.333    2.000    0.000    3.333 
#    0.000    3.333    0.000    1.000    0.000    5.833 
#    0.000    0.000    0.000    0.000    0.000    0.000 
#
# Total GULP energy -267628.642591 kJ/mol
# GULP energy per Si atom -5575.596721 kJ/mol
# Density = 2.424969 g / cm^3
# Si number density = 24.305013 Si / 1000 Ang^3
#
#
#
# Elastic Constant Matrix: (Units=GPa)
#
#
# Indices 1 2 3 4 5 6 
#
# 1 35.4044 -1.1077 -2.8038 0.0000 0.0000 0.0000
# 2 -1.1077 247.0612 26.6435 0.0000 0.0000 0.0000
# 3 -2.8038 26.6435 51.1365 0.0000 0.0000 0.0000
# 4 0.0000 0.0000 0.0000 65.9584 0.0000 0.0000
# 5 0.0000 0.0000 0.0000 0.0000 0.5011 0.0000
# 6 0.0000 0.0000 0.0000 0.0000 0.0000 -8.6015
#
#
#
# Elastic Compliance Matrix: (Units=1/GPa)
#
#
# Indices 1 2 3 4 5 6 
#
# 1 0.028369 -0.000043 0.001578 0.000000 0.000000 0.000000
# 2 -0.000043 0.004289 -0.002237 0.000000 0.000000 0.000000
# 3 0.001578 -0.002237 0.020807 0.000000 0.000000 0.000000
# 4 0.000000 0.000000 0.000000 0.015161 0.000000 0.000000
# 5 0.000000 0.000000 0.000000 0.000000 1.995496 0.000000
# 6 0.000000 0.000000 0.000000 0.000000 0.000000 -0.116259
#
#
# Mechanical properties :
#
#
# Convention : Reuss Voigt Hill
#
# Bulk Modulus (GPa) = 19.20830 42.11845 30.66338
# Shear Modulus (GPa) = 2.54243 32.29629 17.41936
#
# Velocity S-wave (km/s) = 1.02388 3.64921 2.68003
# Velocity P-wave (km/s) = 3.05253 5.92642 4.71383
#
# Compressibility (1/GPa) = 0.05206083
#
# Stress axis : x y z
#
# Youngs Moduli (GPa) = 35.25011 233.17572 48.05967
#
# Poissons Ratio (x) = 0.01002 -0.07583
# Poissons Ratio (y) = 0.00151 0.10750
# Poissons Ratio (z) = -0.05562 0.52158
#
# Static dielectric constant tensor:
#      x y z
#    x 2.001360 0.000000 0.000000 
#    y 0.000000 2.038240 0.000000 
#    z 0.000000 0.000000 1.979370 
# 
# From -- ./inp_files/31648.got.cif
#   From: 2010.05.17/outbox.cif.g08.bks.cpg/sg72_16_cif.got.tgz:31648.got - 2010.06.03 17:03:01.
