data_PCOD9524521
_publ_section_title
;
Structure prediction by ZEFSAII (Michael W. Deem and Ramdas Pophale) SiO2 
 PCOD9524521
Probable space group: I M M M
;
_chemical_formula_sum "Si O2"
_cell_formula_units_Z 96
_cell_length_a 24.342234
_cell_length_b 7.266196
_cell_length_c 24.310499
_cell_angle_alpha 90.000000
_cell_angle_beta 90.000000
_cell_angle_gamma 90.000000
_cell_volume 4299.930288
_symmetry_space_group_name_H-M "I M M M"
_symmetry_group_IT_number 71
_symmetry_cell_setting 'orthorhombic'
loop_
_space_group_symop_operation_xyz
x,y,z
-x,-y,z
x,-y,-z
-x,y,-z
-x,-y,-z
x,y,-z
-x,y,z
x,-y,z
1/2+x,1/2+y,1/2+z
1/2-x,1/2-y,1/2+z
1/2+x,1/2-y,1/2-z
1/2-x,1/2+y,1/2-z
1/2-x,1/2-y,1/2-z
1/2+x,1/2+y,1/2-z
1/2-x,1/2+y,1/2+z
1/2+x,1/2-y,1/2+z
loop_
_atom_site_type_symbol
_atom_site_label
_atom_site_fract_x
_atom_site_fract_y
_atom_site_fract_z
Si Si1 0.941208 0.778744 0.934163
Si Si2 0.321286 0.725361 0.563478
Si Si3 0.334807 0.223338 0.752940
Si Si4 0.753076 0.208539 0.159440
Si Si5 0.434007 0.779406 0.940488
Si Si6 0.936858 0.724243 0.680708
O O1 0.881532 0.714092 0.915016
O O2 0.000000 0.710730 0.911943
O O3 0.941502 0.000000 0.927737
O O4 0.941329 0.743750 0.000000
O O5 0.315490 0.778024 0.500000
O O6 0.321314 0.500000 0.565002
O O7 0.272363 0.790860 0.602188
O O8 0.293929 0.287633 0.801765
O O9 0.307960 0.293271 0.697052
O O10 0.395550 0.278902 0.771069
O O11 0.332375 0.000000 0.750087
O O12 0.734847 0.000000 0.148117
O O13 0.500000 0.748578 0.940281
O O14 0.415650 0.715702 0.880032
O O15 0.425798 0.000000 0.941035
O O16 0.413097 0.710638 0.000000
O O17 0.937117 0.500000 0.679539
O O18 0.000000 0.782273 0.687954
#
# Coordination Sequence:
#
# PCOD9524521 Si02
#       6
#    16  16  16  16  16  16
#     4   7   9  14  26  45  69  97 125 148 177 226
#     4   8  13  22  37  56  78 102 126 158 201 240
#     4   9  17  29  44  60  79 107 141 169 194 232
#     4   9  17  29  44  61  81 106 136 167 199 237
#     4   7   9  14  26  46  73 102 127 153 192 240
#     4   8  13  22  37  56  78 105 136 168 201 238
#
# _framework density 22.325944
#
# number of rings (size 3 to 8) (size 9 to 14) (size 15 to 20)
#    0.000    4.000    0.000    3.000    0.000    0.000 
#    0.000    1.667    0.000    7.000    0.000    0.000 
#    0.000    2.000    0.000   12.500    0.000    6.667 
#
# Total GULP energy -267257.236388 kJ/mol
# GULP energy per Si atom -5567.859091 kJ/mol
# Density = 2.227513 g / cm^3
# Si number density = 22.325944 Si / 1000 Ang^3
#
#
#
# Elastic Constant Matrix: (Units=GPa)
#
#
# Indices 1 2 3 4 5 6 
#
# 1 43.9411 -4.6251 23.0058 0.0000 0.0000 0.0000
# 2 -4.6251 96.0497 -7.3320 0.0000 0.0000 0.0000
# 3 23.0058 -7.3320 39.4346 0.0000 0.0000 0.0000
# 4 0.0000 0.0000 0.0000 -30.2671 0.0000 0.0000
# 5 0.0000 0.0000 0.0000 0.0000 28.1745 0.0000
# 6 0.0000 0.0000 0.0000 0.0000 0.0000 -6.6909
#
#
#
# Elastic Compliance Matrix: (Units=1/GPa)
#
#
# Indices 1 2 3 4 5 6 
#
# 1 0.032767 0.000120 -0.019094 0.000000 0.000000 0.000000
# 2 0.000120 0.010562 0.001894 0.000000 0.000000 0.000000
# 3 -0.019094 0.001894 0.036850 0.000000 0.000000 0.000000
# 4 0.000000 0.000000 0.000000 -0.033039 0.000000 0.000000
# 5 0.000000 0.000000 0.000000 0.000000 0.035493 0.000000
# 6 0.000000 0.000000 0.000000 0.000000 0.000000 -0.149457
#
#
# Mechanical properties :
#
#
# Convention : Reuss Voigt Hill
#
# Bulk Modulus (GPa) = 21.73032 22.39140 22.06086
# Shear Modulus (GPa) = -288.58265 9.46842 -139.55711
#
# Velocity S-wave (km/s) = -11.38154 2.06160 -7.91484
# Velocity P-wave (km/s) = 12.76577 3.96460 8.58041
#
# Compressibility (1/GPa) = 0.04601865
#
# Stress axis : x y z
#
# Youngs Moduli (GPa) = 30.51844 94.68250 27.13735
#
# Poissons Ratio (x) = -0.01139 0.51815
# Poissons Ratio (y) = -0.00367 -0.05139
# Poissons Ratio (z) = 0.58271 -0.17928
#
# Static dielectric constant tensor:
#      x y z
#    x 1.837900 0.000000 0.000000 
#    y 0.000000 1.904060 0.000000 
#    z 0.000000 0.000000 1.821280 
# 
# From -- ./inp_files/57881.got.cif
#   From: 2010.05.17/outbox.cif.g08.bks.cpg/sg71_29_cif.got.tgz:57881.got - 2010.06.03 16:22:01.
