data_PCOD9524091
_publ_section_title
;
Structure prediction by ZEFSAII (Michael W. Deem and Ramdas Pophale) SiO2 
 PCOD9524091
Probable space group: I M M M
;
_chemical_formula_sum "Si O2"
_cell_formula_units_Z 82
_cell_length_a 18.763914
_cell_length_b 12.131973
_cell_length_c 19.216379
_cell_angle_alpha 90.000000
_cell_angle_beta 90.000000
_cell_angle_gamma 90.000000
_cell_volume 4374.479892
_symmetry_space_group_name_H-M "I M M M"
_symmetry_group_IT_number 71
_symmetry_cell_setting 'orthorhombic'
loop_
_space_group_symop_operation_xyz
x,y,z
-x,-y,z
x,-y,-z
-x,y,-z
-x,-y,-z
x,y,-z
-x,y,z
x,-y,z
1/2+x,1/2+y,1/2+z
1/2-x,1/2-y,1/2+z
1/2+x,1/2-y,1/2-z
1/2-x,1/2+y,1/2-z
1/2-x,1/2-y,1/2-z
1/2+x,1/2+y,1/2-z
1/2-x,1/2+y,1/2+z
1/2+x,1/2-y,1/2+z
loop_
_atom_site_type_symbol
_atom_site_label
_atom_site_fract_x
_atom_site_fract_y
_atom_site_fract_z
Si Si1 0.392659 0.500000 0.131730
Si Si2 0.000000 0.000000 0.500000
Si Si3 0.417943 0.267189 0.136307
Si Si4 0.609687 0.872651 0.000000
Si Si5 0.331436 0.127358 0.240302
Si Si6 0.219108 0.128201 0.000000
Si Si7 0.689688 0.314212 0.655101
Si Si8 0.081228 0.000000 0.204355
O O1 0.439557 0.500000 0.061831
O O2 0.365205 0.372943 0.129576
O O3 0.419519 0.500000 0.211695
O O4 0.500000 0.305714 0.144907
O O5 0.415121 0.193819 0.067346
O O6 0.393253 0.191453 0.199340
O O7 0.695199 0.872610 0.000000
O O8 0.586084 0.000000 0.000000
O O9 0.318063 0.194322 0.310829
O O10 0.261775 0.137320 0.190464
O O11 0.347297 0.000000 0.251179
O O12 0.195142 0.182715 0.927918
O O13 0.195325 0.000000 0.000000
O O14 0.625392 0.393651 0.679011
O O15 0.000000 0.000000 0.179287
#
# Coordination Sequence:
#
# PCOD9524091 Si02
#       8
#     8   2  16   8  16   8  16   8
#     4  12  24  40  59  92 134 175 213 260 322 365
#     4  12  20  40  60  84 150 182 192 256 326 378
#     4  12  23  38  61  89 127 171 220 263 306 378
#     4  11  24  38  55  86 130 168 217 256 311 382
#     4  11  23  40  62  90 125 174 212 255 319 381
#     4  11  20  40  65  90 121 164 202 266 339 381
#     4  11  23  41  65  90 126 162 213 268 323 388
#     4  12  22  41  68  96 119 156 215 279 317 371
#
# _framework density 18.745086000000001
#
# number of rings (size 3 to 8) (size 9 to 14) (size 15 to 20)
#    0.000    0.585    7.317    1.463    0.000    1.951 
#    0.000    1.463    2.146    0.000    0.000    0.000 
#    0.000    3.122    0.000    0.000    0.000    0.000 
#
# Total GULP energy -228506.487445 kJ/mol
# GULP energy per Si atom -5573.328962 kJ/mol
# Density = 1.870242 g / cm^3
# Si number density = 18.745086 Si / 1000 Ang^3
#
#
#
# Elastic Constant Matrix: (Units=GPa)
#
#
# Indices 1 2 3 4 5 6 
#
# 1 60.9201 10.9604 31.3444 0.0000 0.0000 0.0000
# 2 10.9604 163.9436 61.1885 0.0000 0.0000 0.0000
# 3 31.3444 61.1885 171.1179 0.0000 0.0000 0.0000
# 4 0.0000 0.0000 0.0000 5.2412 0.0000 0.0000
# 5 0.0000 0.0000 0.0000 0.0000 489.1472 0.0000
# 6 0.0000 0.0000 0.0000 0.0000 0.0000 16.9491
#
#
#
# Elastic Compliance Matrix: (Units=1/GPa)
#
#
# Indices 1 2 3 4 5 6 
#
# 1 0.018123 0.000032 -0.003331 0.000000 0.000000 0.000000
# 2 0.000032 0.007039 -0.002523 0.000000 0.000000 0.000000
# 3 -0.003331 -0.002523 0.007356 0.000000 0.000000 0.000000
# 4 0.000000 0.000000 0.000000 0.190796 0.000000 0.000000
# 5 0.000000 0.000000 0.000000 0.000000 0.002044 0.000000
# 6 0.000000 0.000000 0.000000 0.000000 0.000000 0.059000
#
#
# Mechanical properties :
#
#
# Convention : Reuss Voigt Hill
#
# Bulk Modulus (GPa) = 47.90653 66.99646 57.45149
# Shear Modulus (GPa) = 16.50375 121.76673 69.13524
#
# Velocity S-wave (km/s) = 2.97042 8.06848 6.07963
# Velocity P-wave (km/s) = 6.11366 11.07334 8.94415
#
# Compressibility (1/GPa) = 0.02087398
#
# Stress axis : x y z
#
# Youngs Moduli (GPa) = 55.17816 142.06273 135.93979
#
# Poissons Ratio (x) = -0.00449 0.45281
# Poissons Ratio (y) = -0.00174 0.34296
# Poissons Ratio (z) = 0.18380 0.35840
#
# Static dielectric constant tensor:
#      x y z
#    x 1.671360 0.000000 0.000000 
#    y 0.000000 1.696330 0.000000 
#    z 0.000000 0.000000 1.620550 
# 
# From -- ./inp_files/47094.got.cif
#   From: 2010.05.17/outbox.cif.g08.bks.cpg/sg71_24_cif.got.tgz:47094.got - 2010.06.03 16:22:01.
