data_PCOD9524902
_publ_section_title
;
Structure prediction by ZEFSAII (Michael W. Deem and Ramdas Pophale) SiO2 
 PCOD9524902
Probable space group: I M M M
;
_chemical_formula_sum "Si O2"
_cell_formula_units_Z 52
_cell_length_a 21.000000
_cell_length_b 27.000000
_cell_length_c 9.000000
_cell_angle_alpha 90.000000
_cell_angle_beta 90.000000
_cell_angle_gamma 90.000000
_cell_volume 5103.000000
_symmetry_space_group_name_H-M "I M M M"
_symmetry_group_IT_number 71
_symmetry_cell_setting 'orthorhombic'
loop_
_space_group_symop_operation_xyz
x,y,z
-x,-y,z
x,-y,-z
-x,y,-z
-x,-y,-z
x,y,-z
-x,y,z
x,-y,z
1/2+x,1/2+y,1/2+z
1/2-x,1/2-y,1/2+z
1/2+x,1/2-y,1/2-z
1/2-x,1/2+y,1/2-z
1/2-x,1/2-y,1/2-z
1/2+x,1/2+y,1/2-z
1/2-x,1/2+y,1/2+z
1/2+x,1/2-y,1/2+z
loop_
_atom_site_type_symbol
_atom_site_label
_atom_site_fract_x
_atom_site_fract_y
_atom_site_fract_z
Si Si1 0.000000 0.055293 0.317937
Si Si2 0.907056 0.137296 0.325854
Si Si3 0.906364 0.500000 0.672421
Si Si4 0.569957 0.253520 0.181874
Si Si5 0.837401 0.328048 0.673360
Si Si6 0.264595 0.604279 0.171353
Si Si7 0.071838 0.397883 0.831359
Si Si8 0.253538 0.000000 0.831469
O O1 0.941015 0.088453 0.267619
O O2 0.000000 0.051835 0.500000
O O3 0.000000 0.000000 0.260870
O O4 0.925471 0.140186 0.500000
O O5 0.925951 0.190210 0.262921
O O6 0.833257 0.128339 0.318611
O O7 0.928429 0.500000 0.500000
O O8 0.926296 0.547031 0.768128
O O9 0.830028 0.500000 0.665348
O O10 0.500000 0.233598 0.223412
O O11 0.631811 0.222918 0.230771
O O12 0.572402 0.252721 0.000000
O O13 0.821989 0.323956 0.500000
O O14 0.781245 0.354731 0.759168
O O15 0.894049 0.366167 0.705754
O O16 0.264504 0.551204 0.251805
O O17 0.248456 0.595202 0.000000
O O18 0.000000 0.381078 0.842339
O O19 0.099258 0.394831 0.000000
O O20 0.229310 0.000000 0.000000
#
# Coordination Sequence:
#
# PCOD9524902 Si02
#       8
#     8  16   8  16  16  16  16   8
#     4   9  16  28  52  86 126 156 182 235 298 353
#     4   9  18  33  55  87 123 153 189 237 296 353
#     4  11  22  36  57  80 106 147 195 241 291 348
#     4   9  17  33  57  83 115 156 196 244 295 342
#     4  11  22  36  56  82 113 155 205 243 284 343
#     4  11  23  37  58  88 120 153 192 242 300 353
#     4  11  23  37  54  79 111 147 190 243 304 352
#     4  11  23  40  60  82 114 158 201 240 288 348
#
# _framework density 10.190084000000001
#
# number of rings (size 3 to 8) (size 9 to 14) (size 15 to 20)
#    0.000    1.769    2.308    2.538    1.077    4.000 
#    0.000    0.000    0.000    2.769    0.000    2.692 
#    0.000    0.000    0.000    0.000    0.000    0.000 
#
# Total GULP energy -289632.133235 kJ/mol
# GULP energy per Si atom -5569.848716 kJ/mol
# Density = 1.016689 g / cm^3
# Si number density = 10.190084 Si / 1000 Ang^3
#
#
#
# Elastic Constant Matrix: (Units=GPa)
#
#
# Indices 1 2 3 4 5 6 
#
# 1 76.5886 41.2424 21.3030 0.0000 0.0000 0.0000
# 2 41.2424 150.3010 24.6370 0.0000 0.0000 0.0000
# 3 21.3030 24.6370 58.1821 0.0000 0.0000 0.0000
# 4 0.0000 0.0000 0.0000 36.5093 0.0000 0.0000
# 5 0.0000 0.0000 0.0000 0.0000 44.4984 0.0000
# 6 0.0000 0.0000 0.0000 0.0000 0.0000 -116.6871
#
#
#
# Elastic Compliance Matrix: (Units=1/GPa)
#
#
# Indices 1 2 3 4 5 6 
#
# 1 0.016296 -0.003754 -0.004377 0.000000 0.000000 0.000000
# 2 -0.003754 0.008014 -0.002019 0.000000 0.000000 0.000000
# 3 -0.004377 -0.002019 0.019645 0.000000 0.000000 0.000000
# 4 0.000000 0.000000 0.000000 0.027390 0.000000 0.000000
# 5 0.000000 0.000000 0.000000 0.000000 0.022473 0.000000
# 6 0.000000 0.000000 0.000000 0.000000 0.000000 -0.008570
#
#
# Mechanical properties :
#
#
# Convention : Reuss Voigt Hill
#
# Bulk Modulus (GPa) = 42.27460 51.04849 46.66155
# Shear Modulus (GPa) = 44.07869 6.05673 25.06771
#
# Velocity S-wave (km/s) = 4.65566 1.72578 3.51095
# Velocity P-wave (km/s) = 7.04899 5.39199 6.27542
#
# Compressibility (1/GPa) = 0.02365487
#
# Stress axis : x y z
#
# Youngs Moduli (GPa) = 61.36569 124.77532 50.90356
#
# Poissons Ratio (x) = 0.46842 0.22280
# Poissons Ratio (y) = 0.23037 0.10278
# Poissons Ratio (z) = 0.26859 0.25194
#
# Static dielectric constant tensor:
#      x y z
#    x 1.657350 0.000000 0.000000 
#    y 0.000000 1.762540 0.000000 
#    z 0.000000 0.000000 1.708940 
# 
# From -- ./inp_files/11207.got.cif
#   From: 2010.05.17/outbox.ucp.g08.bks.cvg/sg71_6_cif.got.tgz:11207.got - 2010.06.11 16:29:00.
