data_PCOD9524533
_publ_section_title
;
Structure prediction by ZEFSAII (Michael W. Deem and Ramdas Pophale) SiO2 
 PCOD9524533
Probable space group: I M M M
;
_chemical_formula_sum "Si O2"
_cell_formula_units_Z 112
_cell_length_a 13.690204
_cell_length_b 14.142845
_cell_length_c 33.539416
_cell_angle_alpha 90.000000
_cell_angle_beta 90.000000
_cell_angle_gamma 90.000000
_cell_volume 6493.849176
_symmetry_space_group_name_H-M "I M M M"
_symmetry_group_IT_number 71
_symmetry_cell_setting 'orthorhombic'
loop_
_space_group_symop_operation_xyz
x,y,z
-x,-y,z
x,-y,-z
-x,y,-z
-x,-y,-z
x,y,-z
-x,y,z
x,-y,z
1/2+x,1/2+y,1/2+z
1/2-x,1/2-y,1/2+z
1/2+x,1/2-y,1/2-z
1/2-x,1/2+y,1/2-z
1/2-x,1/2-y,1/2-z
1/2+x,1/2+y,1/2-z
1/2-x,1/2+y,1/2+z
1/2+x,1/2-y,1/2+z
loop_
_atom_site_type_symbol
_atom_site_label
_atom_site_fract_x
_atom_site_fract_y
_atom_site_fract_z
Si Si1 0.118931 0.893824 0.208969
Si Si2 0.193475 0.886294 0.543164
Si Si3 0.618986 0.894073 0.748206
Si Si4 0.382564 0.391049 0.871819
Si Si5 0.118748 0.294922 0.833391
Si Si6 0.111814 0.387467 0.916498
Si Si7 0.381204 0.294381 0.790901
O O1 0.148500 0.811377 0.178359
O O2 0.146911 0.862052 0.253893
O O3 0.000000 0.893709 0.208936
O O4 0.150523 0.000000 0.199510
O O5 0.160459 0.849471 0.500000
O O6 0.144451 0.853530 0.584288
O O7 0.309006 0.870016 0.549385
O O8 0.177438 0.000000 0.542632
O O9 0.500000 0.894640 0.748707
O O10 0.647355 0.861073 0.703788
O O11 0.648884 0.811442 0.778585
O O12 0.651682 0.000000 0.757034
O O13 0.500000 0.394449 0.869688
O O14 0.346747 0.500000 0.868087
O O15 0.348077 0.330501 0.833928
O O16 0.145659 0.334399 0.876455
O O17 0.000000 0.296327 0.833583
O O18 0.112897 0.500000 0.908163
O O19 0.000000 0.361495 0.926194
O O20 0.500000 0.295163 0.791541
#
# Coordination Sequence:
#
# PCOD9524533 Si02
#       7
#    16  16  16  16  16  16  16
#     4   8  12  18  30  50  78 109 138 168 197 224
#     4   9  18  30  42  59  81 103 129 159 196 244
#     4   8  12  18  30  50  78 109 138 168 197 224
#     4   9  16  26  41  59  80 106 133 162 194 230
#     4   8  13  20  32  53  78 105 138 167 192 229
#     4   9  16  26  41  59  80 106 133 162 194 230
#     4   8  13  20  32  53  78 105 138 167 192 229
#
# _framework density 17.247091000000001
#
# number of rings (size 3 to 8) (size 9 to 14) (size 15 to 20)
#    0.000    3.571    0.000    2.571    0.000    4.000 
#    0.000    2.857    0.000    3.429    0.000    3.000 
#    0.000    2.286    0.000   11.143    0.000    0.286 
#
# Total GULP energy -312213.428010 kJ/mol
# GULP energy per Si atom -5575.239786 kJ/mol
# Density = 1.720784 g / cm^3
# Si number density = 17.247091 Si / 1000 Ang^3
#
#
#
# Elastic Constant Matrix: (Units=GPa)
#
#
# Indices 1 2 3 4 5 6 
#
# 1 41.5281 -0.9696 2.0449 0.0000 0.0000 0.0000
# 2 -0.9696 86.4489 40.8916 0.0000 0.0000 0.0000
# 3 2.0449 40.8916 106.3731 0.0000 0.0000 0.0000
# 4 0.0000 0.0000 0.0000 17.1547 0.0000 0.0000
# 5 0.0000 0.0000 0.0000 0.0000 9.1309 0.0000
# 6 0.0000 0.0000 0.0000 0.0000 0.0000 2.7637
#
#
#
# Elastic Compliance Matrix: (Units=1/GPa)
#
#
# Indices 1 2 3 4 5 6 
#
# 1 0.024128 0.000599 -0.000694 0.000000 0.000000 0.000000
# 2 0.000599 0.014153 -0.005452 0.000000 0.000000 0.000000
# 3 -0.000694 -0.005452 0.011510 0.000000 0.000000 0.000000
# 4 0.000000 0.000000 0.000000 0.058293 0.000000 0.000000
# 5 0.000000 0.000000 0.000000 0.000000 0.109518 0.000000
# 6 0.000000 0.000000 0.000000 0.000000 0.000000 0.361830
#
#
# Mechanical properties :
#
#
# Convention : Reuss Voigt Hill
#
# Bulk Modulus (GPa) = 25.84192 35.36488 30.60340
# Shear Modulus (GPa) = 8.28602 18.63541 13.46071
#
# Velocity S-wave (km/s) = 2.19425 3.29066 2.79671
# Velocity P-wave (km/s) = 4.62985 5.91500 5.31144
#
# Compressibility (1/GPa) = 0.03869682
#
# Stress axis : x y z
#
# Youngs Moduli (GPa) = 41.44522 70.65515 86.87974
#
# Poissons Ratio (x) = -0.04232 0.06030
# Poissons Ratio (y) = -0.02482 0.47369
# Poissons Ratio (z) = 0.02877 0.38523
#
# Static dielectric constant tensor:
#      x y z
#    x 1.688660 0.000000 0.000000 
#    y 0.000000 1.571150 0.000000 
#    z 0.000000 0.000000 1.571780 
# 
# From -- ./inp_files/70063.got.cif
#   From: 2010.05.17/outbox.cif.g08.bks.cpg/sg71_36_cif.got.tgz:70063.got - 2010.06.03 16:22:01.
