data_PCOD9524389
_publ_section_title
;
Structure prediction by ZEFSAII (Michael W. Deem and Ramdas Pophale) SiO2 
 PCOD9524389
Probable space group: I M M M
;
_chemical_formula_sum "Si O2"
_cell_formula_units_Z 64
_cell_length_a 29.964818
_cell_length_b 12.705613
_cell_length_c 7.980348
_cell_angle_alpha 90.000000
_cell_angle_beta 90.000000
_cell_angle_gamma 90.000000
_cell_volume 3038.289112
_symmetry_space_group_name_H-M "I M M M"
_symmetry_group_IT_number 71
_symmetry_cell_setting 'orthorhombic'
loop_
_space_group_symop_operation_xyz
x,y,z
-x,-y,z
x,-y,-z
-x,y,-z
-x,-y,-z
x,y,-z
-x,y,z
x,-y,z
1/2+x,1/2+y,1/2+z
1/2-x,1/2-y,1/2+z
1/2+x,1/2-y,1/2-z
1/2-x,1/2+y,1/2-z
1/2-x,1/2-y,1/2-z
1/2+x,1/2+y,1/2-z
1/2-x,1/2+y,1/2+z
1/2+x,1/2-y,1/2+z
loop_
_atom_site_type_symbol
_atom_site_label
_atom_site_fract_x
_atom_site_fract_y
_atom_site_fract_z
Si Si1 0.500000 0.622253 0.200905
Si Si2 0.823537 0.192430 0.808993
Si Si3 0.583224 0.231984 0.699842
Si Si4 0.448865 0.000000 0.199635
Si Si5 0.767988 0.384089 0.700675
O O1 0.500000 0.500000 0.261462
O O2 0.542547 0.690813 0.256810
O O3 0.500000 0.618919 0.000000
O O4 0.871413 0.215146 0.728962
O O5 0.798125 0.303909 0.800959
O O6 0.783555 0.120756 0.739609
O O7 0.831023 0.156100 0.000000
O O8 0.588150 0.227936 0.500000
O O9 0.574175 0.111053 0.753097
O O10 0.500000 0.000000 0.267912
O O11 0.451525 0.000000 0.000000
O O12 0.768284 0.357829 0.500000
O O13 0.786140 0.500000 0.718586
#
# Coordination Sequence:
#
# PCOD9524389 Si02
#       5
#     8  16  16   8  16
#     4  11  25  44  63  86 119 155 193 241 290 347
#     4   9  20  36  54  81 114 145 183 235 284 332
#     4  11  23  39  62  90 118 153 197 244 294 348
#     4  11  23  39  61  87 120 158 192 240 298 351
#     4   9  18  34  55  79 109 148 189 228 276 336
#
# _framework density 21.064485999999999
#
# number of rings (size 3 to 8) (size 9 to 14) (size 15 to 20)
#    0.000    2.000    1.250    1.500    1.750    5.000 
#    0.000    2.500    0.000    0.000    0.000    0.000 
#    0.000    0.000    0.000    0.000    0.000    0.000 
#
# Total GULP energy -178343.197761 kJ/mol
# GULP energy per Si atom -5573.224930 kJ/mol
# Density = 2.101654 g / cm^3
# Si number density = 21.064486 Si / 1000 Ang^3
#
#
#
# Elastic Constant Matrix: (Units=GPa)
#
#
# Indices 1 2 3 4 5 6 
#
# 1 120.3717 2.3355 -13.5214 0.0000 0.0000 0.0000
# 2 2.3355 88.3468 -0.8420 0.0000 0.0000 0.0000
# 3 -13.5214 -0.8420 31.1821 0.0000 0.0000 0.0000
# 4 0.0000 0.0000 0.0000 19.5237 0.0000 0.0000
# 5 0.0000 0.0000 0.0000 0.0000 2.9065 0.0000
# 6 0.0000 0.0000 0.0000 0.0000 0.0000 -15.7922
#
#
#
# Elastic Compliance Matrix: (Units=1/GPa)
#
#
# Indices 1 2 3 4 5 6 
#
# 1 0.008736 -0.000195 0.003783 0.000000 0.000000 0.000000
# 2 -0.000195 0.011326 0.000221 0.000000 0.000000 0.000000
# 3 0.003783 0.000221 0.033716 0.000000 0.000000 0.000000
# 4 0.000000 0.000000 0.000000 0.051220 0.000000 0.000000
# 5 0.000000 0.000000 0.000000 0.000000 0.344052 0.000000
# 6 0.000000 0.000000 0.000000 0.000000 0.000000 -0.063322
#
#
# Mechanical properties :
#
#
# Convention : Reuss Voigt Hill
#
# Bulk Modulus (GPa) = 16.28725 23.98275 20.13500
# Shear Modulus (GPa) = 12.54468 18.12283 15.33375
#
# Velocity S-wave (km/s) = 2.44301 2.93635 2.70097
# Velocity P-wave (km/s) = 3.96316 4.78606 4.39391
#
# Compressibility (1/GPa) = 0.06139771
#
# Stress axis : x y z
#
# Youngs Moduli (GPa) = 114.46454 88.29016 29.65941
#
# Poissons Ratio (x) = 0.01721 -0.11220
# Poissons Ratio (y) = 0.02231 -0.00656
# Poissons Ratio (z) = -0.43302 -0.01954
#
# Static dielectric constant tensor:
#      x y z
#    x 1.827110 0.000000 0.000000 
#    y 0.000000 1.747350 0.000000 
#    z 0.000000 0.000000 1.772510 
# 
# From -- ./inp_files/16185.got.cif
#   From: 2010.05.17/outbox.cif.g08.bks.cpg/sg71_9_cif.got.tgz:16185.got - 2010.06.03 16:22:01.
