data_PCOD9524311
_publ_section_title
;
Structure prediction by ZEFSAII (Michael W. Deem and Ramdas Pophale) SiO2 
 PCOD9524311
Probable space group: I M M M
;
_chemical_formula_sum "Si O2"
_cell_formula_units_Z 64
_cell_length_a 8.817011
_cell_length_b 31.197707
_cell_length_c 12.101420
_cell_angle_alpha 90.000000
_cell_angle_beta 90.000000
_cell_angle_gamma 90.000000
_cell_volume 3328.743962
_symmetry_space_group_name_H-M "I M M M"
_symmetry_group_IT_number 71
_symmetry_cell_setting 'orthorhombic'
loop_
_space_group_symop_operation_xyz
x,y,z
-x,-y,z
x,-y,-z
-x,y,-z
-x,-y,-z
x,y,-z
-x,y,z
x,-y,z
1/2+x,1/2+y,1/2+z
1/2-x,1/2-y,1/2+z
1/2+x,1/2-y,1/2-z
1/2-x,1/2+y,1/2-z
1/2-x,1/2-y,1/2-z
1/2+x,1/2+y,1/2-z
1/2-x,1/2+y,1/2+z
1/2+x,1/2-y,1/2+z
loop_
_atom_site_type_symbol
_atom_site_label
_atom_site_fract_x
_atom_site_fract_y
_atom_site_fract_z
Si Si1 0.177111 0.170505 0.500000
Si Si2 0.180325 0.872557 0.868973
Si Si3 0.181187 0.703404 0.772655
Si Si4 0.318918 0.048213 0.264006
Si Si5 0.323290 0.567364 0.000000
O O1 0.258853 0.187620 0.608837
O O2 0.183273 0.119015 0.500000
O O3 0.000000 0.183319 0.500000
O O4 0.260255 0.831221 0.816086
O O5 0.242121 0.914938 0.808615
O O6 0.000000 0.869197 0.848962
O O7 0.206998 0.874775 0.000000
O O8 0.250000 0.750000 0.750000
O O9 0.000000 0.705148 0.771498
O O10 0.500000 0.054533 0.264306
O O11 0.257491 0.051788 0.388907
O O12 0.286398 0.000000 0.222860
O O13 0.500000 0.554605 0.000000
#
# Coordination Sequence:
#
# PCOD9524311 Si02
#       5
#     8  16  16  16   8
#     4  11  23  42  68  99 133 168 214 266 321 379
#     4  11  25  45  67  93 128 168 216 268 319 380
#     4  12  26  44  69  98 132 171 214 264 321 382
#     4  11  24  41  64  95 130 168 213 264 320 383
#     4  11  22  38  65  96 131 168 210 263 319 379
#
# _framework density 19.226469999999999
#
# number of rings (size 3 to 8) (size 9 to 14) (size 15 to 20)
#    0.000    0.750    2.500    4.875    1.750    7.000 
#    0.000    2.500    0.000    0.000    0.000    0.000 
#    0.000    0.000    0.000    0.000    0.000    0.000 
#
# Total GULP energy -179122.092408 kJ/mol
# GULP energy per Si atom -5597.565388 kJ/mol
# Density = 1.918271 g / cm^3
# Si number density = 19.226470 Si / 1000 Ang^3
#
#
#
# Elastic Constant Matrix: (Units=GPa)
#
#
# Indices 1 2 3 4 5 6 
#
# 1 163.1699 93.4261 85.9557 0.0000 0.0000 0.0000
# 2 93.4261 165.8495 74.1657 0.0001 -0.0001 0.0000
# 3 85.9557 74.1657 111.8385 0.0008 -0.0006 0.0000
# 4 0.0000 0.0001 0.0008 26.2184 -0.0005 0.0000
# 5 0.0000 -0.0001 -0.0006 -0.0005 12.0284 0.0000
# 6 0.0000 0.0000 0.0000 0.0000 0.0000 36.7146
#
#
#
# Elastic Compliance Matrix: (Units=1/GPa)
#
#
# Indices 1 2 3 4 5 6 
#
# 1 0.011664 -0.003642 -0.006550 0.000000 0.000000 0.000000
# 2 -0.003642 0.009708 -0.003639 0.000000 0.000000 0.000000
# 3 -0.006550 -0.003639 0.016389 0.000000 0.000001 0.000000
# 4 0.000000 0.000000 0.000000 0.038141 0.000002 0.000000
# 5 0.000000 0.000000 0.000001 0.000002 0.083136 0.000000
# 6 0.000000 0.000000 0.000000 0.000000 0.000000 0.027237
#
#
# Mechanical properties :
#
#
# Convention : Reuss Voigt Hill
#
# Bulk Modulus (GPa) = 99.00996 105.32810 102.16903
# Shear Modulus (GPa) = 23.00933 27.47965 25.24449
#
# Velocity S-wave (km/s) = 3.46316 3.78466 3.62747
# Velocity P-wave (km/s) = 8.22191 8.60232 8.41427
#
# Compressibility (1/GPa) = 0.01009999
#
# Stress axis : x y z
#
# Youngs Moduli (GPa) = 85.73480 103.00382 61.01773
#
# Poissons Ratio (x) = 0.37510 0.39964
# Poissons Ratio (y) = 0.31221 0.22206
# Poissons Ratio (z) = 0.56153 0.37486
#
# Static dielectric constant tensor:
#      x y z
#    x 1.643740 0.000000 0.000000 
#    y 0.000000 1.656750 0.000000 
#    z 0.000000 0.000000 1.638010 
# 
# From -- ./inp_files/18483.got.cif
#   From: 2010.05.17/outbox.cif.g08.bks.cpg/sg71_10_cif.got.tgz:18483.got - 2010.06.03 16:22:01.
