data_PCOD9524173
_publ_section_title
;
Structure prediction by ZEFSAII (Michael W. Deem and Ramdas Pophale) SiO2 
 PCOD9524173
Probable space group: I M M M
;
_chemical_formula_sum "Si O2"
_cell_formula_units_Z 56
_cell_length_a 34.995744
_cell_length_b 8.361774
_cell_length_c 10.594305
_cell_angle_alpha 90.000000
_cell_angle_beta 90.000000
_cell_angle_gamma 90.000000
_cell_volume 3100.174416
_symmetry_space_group_name_H-M "I M M M"
_symmetry_group_IT_number 71
_symmetry_cell_setting 'orthorhombic'
loop_
_space_group_symop_operation_xyz
x,y,z
-x,-y,z
x,-y,-z
-x,y,-z
-x,-y,-z
x,y,-z
-x,y,z
x,-y,z
1/2+x,1/2+y,1/2+z
1/2-x,1/2-y,1/2+z
1/2+x,1/2-y,1/2-z
1/2-x,1/2+y,1/2-z
1/2-x,1/2-y,1/2-z
1/2+x,1/2+y,1/2-z
1/2-x,1/2+y,1/2+z
1/2+x,1/2-y,1/2+z
loop_
_atom_site_type_symbol
_atom_site_label
_atom_site_fract_x
_atom_site_fract_y
_atom_site_fract_z
Si Si1 0.583272 0.193763 0.646896
Si Si2 0.500000 0.185854 0.653526
Si Si3 0.796281 0.195416 0.500000
Si Si4 0.337726 0.308613 0.744625
Si Si5 0.208132 0.308218 0.000000
O O1 0.589199 0.242435 0.500000
O O2 0.541343 0.254151 0.689916
O O3 0.618911 0.250788 0.727649
O O4 0.582199 0.000000 0.647451
O O5 0.500000 0.185626 0.500000
O O6 0.500000 0.000000 0.693956
O O7 0.817986 0.248366 0.626317
O O8 0.752134 0.247056 0.500000
O O9 0.796187 0.000000 0.500000
O O10 0.337480 0.500000 0.744746
O O11 0.313704 0.250025 0.624338
O O12 0.207584 0.500000 0.000000
#
# Coordination Sequence:
#
# PCOD9524173 Si02
#       5
#    16   8   8  16   8
#     4   9  16  29  50  76 105 134 168 207 251 300
#     4   7  12  24  45  72 101 134 165 201 248 296
#     4   9  22  39  53  72 103 140 174 210 254 305
#     4  11  21  35  54  77 105 136 170 211 258 304
#     4  11  21  37  57  76  99 132 175 218 257 301
#
# _framework density 18.063500999999999
#
# number of rings (size 3 to 8) (size 9 to 14) (size 15 to 20)
#    0.000    2.429    1.429    3.857    0.000    0.000 
#    0.000    7.857    0.000    3.429    0.000    6.000 
#    0.000    0.000    0.000    0.000    0.000    0.000 
#
# Total GULP energy -156133.603167 kJ/mol
# GULP energy per Si atom -5576.200113 kJ/mol
# Density = 1.802239 g / cm^3
# Si number density = 18.063501 Si / 1000 Ang^3
#
#
#
# Elastic Constant Matrix: (Units=GPa)
#
#
# Indices 1 2 3 4 5 6 
#
# 1 217.8470 23.0094 85.5291 0.0000 0.0000 0.0000
# 2 23.0094 20.9566 13.7996 0.0000 0.0000 0.0000
# 3 85.5291 13.7996 114.9540 0.0000 0.0000 0.0000
# 4 0.0000 0.0000 0.0000 -5.6267 0.0000 0.0000
# 5 0.0000 0.0000 0.0000 0.0000 56.0245 0.0000
# 6 0.0000 0.0000 0.0000 0.0000 0.0000 25.7722
#
#
#
# Elastic Compliance Matrix: (Units=1/GPa)
#
#
# Indices 1 2 3 4 5 6 
#
# 1 0.006859 -0.004528 -0.004560 0.000000 0.000000 0.000000
# 2 -0.004528 0.054803 -0.003210 0.000000 0.000000 0.000000
# 3 -0.004560 -0.003210 0.012477 0.000000 0.000000 0.000000
# 4 0.000000 0.000000 0.000000 -0.177723 0.000000 0.000000
# 5 0.000000 0.000000 0.000000 0.000000 0.017849 0.000000
# 6 0.000000 0.000000 0.000000 0.000000 0.000000 0.038802
#
#
# Mechanical properties :
#
#
# Convention : Reuss Voigt Hill
#
# Bulk Modulus (GPa) = 20.18419 66.49265 43.33842
# Shear Modulus (GPa) = -858.47212 30.66196 -413.90508
#
# Velocity S-wave (km/s) = -21.82393 4.12449 -15.15376
# Velocity P-wave (km/s) = 24.97693 7.71831 16.79695
#
# Compressibility (1/GPa) = 0.04954372
#
# Stress axis : x y z
#
# Youngs Moduli (GPa) = 145.79840 18.24721 80.14834
#
# Poissons Ratio (x) = 0.08263 0.36544
# Poissons Ratio (y) = 0.66021 0.25725
# Poissons Ratio (z) = 0.66477 0.05857
#
# Static dielectric constant tensor:
#      x y z
#    x 1.649660 0.000000 0.000000 
#    y 0.000000 1.631260 0.000000 
#    z 0.000000 0.000000 1.585340 
# 
# From -- ./inp_files/29410.got.cif
#   From: 2010.05.17/outbox.cif.g08.bks.cpg/sg71_15_cif.got.tgz:29410.got - 2010.06.03 16:22:01.
