data_PCOD9524787
_publ_section_title
;
Structure prediction by ZEFSAII (Michael W. Deem and Ramdas Pophale) SiO2 
 PCOD9524787
Probable space group: I M M M
;
_chemical_formula_sum "Si O2"
_cell_formula_units_Z 48
_cell_length_a 21.000000
_cell_length_b 9.000000
_cell_length_c 27.000000
_cell_angle_alpha 90.000000
_cell_angle_beta 90.000000
_cell_angle_gamma 90.000000
_cell_volume 5103.000000
_symmetry_space_group_name_H-M "I M M M"
_symmetry_group_IT_number 71
_symmetry_cell_setting 'orthorhombic'
loop_
_space_group_symop_operation_xyz
x,y,z
-x,-y,z
x,-y,-z
-x,y,-z
-x,-y,-z
x,y,-z
-x,y,z
x,-y,z
1/2+x,1/2+y,1/2+z
1/2-x,1/2-y,1/2+z
1/2+x,1/2-y,1/2-z
1/2-x,1/2+y,1/2-z
1/2-x,1/2-y,1/2-z
1/2+x,1/2+y,1/2-z
1/2-x,1/2+y,1/2+z
1/2+x,1/2-y,1/2+z
loop_
_atom_site_type_symbol
_atom_site_label
_atom_site_fract_x
_atom_site_fract_y
_atom_site_fract_z
Si Si1 0.690048 0.323732 0.058493
Si Si2 0.574034 0.820600 0.620030
Si Si3 0.574505 0.320595 0.870599
Si Si4 0.809024 0.329099 0.812187
Si Si5 0.823148 0.832463 0.941026
Si Si6 0.823972 0.670220 0.305581
O O1 0.697904 0.500000 0.067071
O O2 0.624800 0.277013 0.085933
O O3 0.756439 0.245760 0.073334
O O4 0.681775 0.299139 0.000000
O O5 0.500000 0.771223 0.624721
O O6 0.625196 0.776463 0.662665
O O7 0.613167 0.755689 0.573808
O O8 0.572440 0.000000 0.618283
O O9 0.500000 0.272350 0.874948
O O10 0.573330 0.500000 0.868751
O O11 0.613440 0.256641 0.823920
O O12 0.798502 0.500000 0.827996
O O13 0.820965 0.327316 0.753664
O O14 0.743390 0.242022 0.821552
O O15 0.825421 0.000000 0.920590
O O16 0.821294 0.839945 0.000000
O O17 0.827382 0.500000 0.322888
#
# Coordination Sequence:
#
# PCOD9524787 Si02
#       6
#    16  16  16  16  16  16
#     4   9  18  34  56  78 100 132 175 217 254 297
#     4  10  21  36  54  76 102 134 172 212 253 299
#     4  10  21  35  51  75 108 141 171 209 258 307
#     4   9  19  36  56  77 103 135 171 213 258 302
#     4  10  21  36  54  77 105 135 167 207 256 307
#     4  10  20  34  55  80 104 134 173 214 255 304
#
# _framework density 9.4062319999999993
#
# number of rings (size 3 to 8) (size 9 to 14) (size 15 to 20)
#    0.000    2.333    0.000    2.000    0.000    9.000 
#    0.000    5.000    0.000    0.000    0.000    3.500 
#    0.000    0.000    0.000    0.000    0.000    0.000 
#
# Total GULP energy -267391.050084 kJ/mol
# GULP energy per Si atom -5570.646877 kJ/mol
# Density = 0.938482 g / cm^3
# Si number density = 9.406232 Si / 1000 Ang^3
#
#
#
# Elastic Constant Matrix: (Units=GPa)
#
#
# Indices 1 2 3 4 5 6 
#
# 1 205.3274 43.1166 26.5840 0.0000 0.0000 0.0000
# 2 43.1166 25.6464 12.5500 0.0000 0.0000 0.0000
# 3 26.5840 12.5500 57.5015 0.0000 0.0000 0.0000
# 4 0.0000 0.0000 0.0000 14.9884 0.0000 0.0000
# 5 0.0000 0.0000 0.0000 0.0000 -83.9002 0.0000
# 6 0.0000 0.0000 0.0000 0.0000 0.0000 18.2444
#
#
#
# Elastic Compliance Matrix: (Units=1/GPa)
#
#
# Indices 1 2 3 4 5 6 
#
# 1 0.007561 -0.012317 -0.000807 0.000000 0.000000 0.000000
# 2 -0.012317 0.063717 -0.008212 0.000000 0.000000 0.000000
# 3 -0.000807 -0.008212 0.019557 0.000000 0.000000 0.000000
# 4 0.000000 0.000000 0.000000 0.066718 0.000000 0.000000
# 5 0.000000 0.000000 0.000000 0.000000 -0.011919 0.000000
# 6 0.000000 0.000000 0.000000 0.000000 0.000000 0.054811
#
#
# Mechanical properties :
#
#
# Convention : Reuss Voigt Hill
#
# Bulk Modulus (GPa) = 20.76330 50.33073 35.54701
# Shear Modulus (GPa) = 19.29214 3.61484 11.45349
#
# Velocity S-wave (km/s) = 3.20581 1.38769 2.47011
# Velocity P-wave (km/s) = 4.97634 5.42029 5.20305
#
# Compressibility (1/GPa) = 0.04816190
#
# Stress axis : x y z
#
# Youngs Moduli (GPa) = 132.25417 15.69431 51.13373
#
# Poissons Ratio (x) = 0.19330 0.04129
# Poissons Ratio (y) = 1.62894 0.41993
# Poissons Ratio (z) = 0.10679 0.12889
#
# Static dielectric constant tensor:
#      x y z
#    x 1.605300 0.000000 0.000000 
#    y 0.000000 1.669060 0.000000 
#    z 0.000000 0.000000 1.726510 
# 
# From -- ./inp_files/10915.got.cif
#   From: 2010.05.17/outbox.ucp.g08.bks.cvg/sg71_6_cif.got.tgz:10915.got - 2010.06.11 16:29:00.
