data_PCOD9524525
_publ_section_title
;
Structure prediction by ZEFSAII (Michael W. Deem and Ramdas Pophale) SiO2 
 PCOD9524525
Probable space group: I M M M
;
_chemical_formula_sum "Si O2"
_cell_formula_units_Z 80
_cell_length_a 7.364583
_cell_length_b 34.736366
_cell_length_c 20.031397
_cell_angle_alpha 90.000000
_cell_angle_beta 90.000000
_cell_angle_gamma 90.000000
_cell_volume 5124.408955
_symmetry_space_group_name_H-M "I M M M"
_symmetry_group_IT_number 71
_symmetry_cell_setting 'orthorhombic'
loop_
_space_group_symop_operation_xyz
x,y,z
-x,-y,z
x,-y,-z
-x,y,-z
-x,-y,-z
x,y,-z
-x,y,z
x,-y,z
1/2+x,1/2+y,1/2+z
1/2-x,1/2-y,1/2+z
1/2+x,1/2-y,1/2-z
1/2-x,1/2+y,1/2-z
1/2-x,1/2-y,1/2-z
1/2+x,1/2+y,1/2-z
1/2-x,1/2+y,1/2+z
1/2+x,1/2-y,1/2+z
loop_
_atom_site_type_symbol
_atom_site_label
_atom_site_fract_x
_atom_site_fract_y
_atom_site_fract_z
Si Si1 0.283139 0.733587 0.646294
Si Si2 0.221086 0.543249 0.077442
Si Si3 0.283443 0.810042 0.277440
Si Si4 0.221481 0.622088 0.866154
Si Si5 0.778656 0.756082 0.000000
Si Si6 0.779789 0.666715 0.000000
O O1 0.500000 0.737947 0.641881
O O2 0.213406 0.773836 0.678395
O O3 0.249233 0.700647 0.700702
O O4 0.216741 0.727110 0.571027
O O5 0.279911 0.500000 0.095157
O O6 0.281850 0.578118 0.124461
O O7 0.000000 0.543159 0.077938
O O8 0.272710 0.550771 0.000000
O O9 0.500000 0.810177 0.286826
O O10 0.217492 0.850932 0.305180
O O11 0.000000 0.620926 0.864770
O O12 0.275743 0.644714 0.933369
O O13 0.725933 0.711104 0.000000
O O14 0.000000 0.757907 0.000000
O O15 0.000000 0.666540 0.000000
#
# Coordination Sequence:
#
# PCOD9524525 Si02
#       6
#    16  16  16  16   8   8
#     4   9  16  25  36  49  65  85 112 145 173 196
#     4   8  12  16  23  39  65  92 113 137 170 198
#     4   9  16  24  34  49  68  89 112 138 169 202
#     4   9  13  18  29  44  64  89 116 143 167 195
#     4   9  14  22  35  48  61  82 116 149 170 193
#     4   9  12  16  27  45  62  81 115 148 166 187
#
# _framework density 15.611556
#
# number of rings (size 3 to 8) (size 9 to 14) (size 15 to 20)
#    0.000    3.200    3.000    0.600    0.000    0.000 
#    0.000    0.500    0.000    0.000    0.000    0.700 
#    0.000    0.800    0.000    3.100    0.000   22.800 
#
# Total GULP energy -222850.022544 kJ/mol
# GULP energy per Si atom -5571.250564 kJ/mol
# Density = 1.557602 g / cm^3
# Si number density = 15.611556 Si / 1000 Ang^3
#
#
#
# Elastic Constant Matrix: (Units=GPa)
#
#
# Indices 1 2 3 4 5 6 
#
# 1 54.7106 2.9486 2.2827 0.0000 0.0000 0.0000
# 2 2.9486 121.7867 81.5194 0.0000 0.0000 0.0000
# 3 2.2827 81.5194 119.4419 0.0000 0.0000 0.0000
# 4 0.0000 0.0000 0.0000 23.8357 0.0000 0.0000
# 5 0.0000 0.0000 0.0000 0.0000 3.6815 0.0000
# 6 0.0000 0.0000 0.0000 0.0000 0.0000 -1.5173
#
#
#
# Elastic Compliance Matrix: (Units=1/GPa)
#
#
# Indices 1 2 3 4 5 6 
#
# 1 0.018302 -0.000385 -0.000087 0.000000 0.000000 0.000000
# 2 -0.000385 0.015125 -0.010316 0.000000 0.000000 0.000000
# 3 -0.000087 -0.010316 0.015414 0.000000 0.000000 0.000000
# 4 0.000000 0.000000 0.000000 0.041954 0.000000 0.000000
# 5 0.000000 0.000000 0.000000 0.000000 0.271627 0.000000
# 6 0.000000 0.000000 0.000000 0.000000 0.000000 -0.659060
#
#
# Mechanical properties :
#
#
# Convention : Reuss Voigt Hill
#
# Bulk Modulus (GPa) = 36.67464 52.16007 44.41735
# Shear Modulus (GPa) = -18.79898 19.14588 0.17345
#
# Velocity S-wave (km/s) = -3.47388 3.50579 0.33368
# Velocity P-wave (km/s) = 2.72993 7.06195 5.35367
#
# Compressibility (1/GPa) = 0.02726680
#
# Stress axis : x y z
#
# Youngs Moduli (GPa) = 54.63778 66.11407 64.87410
#
# Poissons Ratio (x) = 0.02544 0.00566
# Poissons Ratio (y) = 0.02102 0.66923
# Poissons Ratio (z) = 0.00476 0.68202
#
# Static dielectric constant tensor:
#      x y z
#    x 1.647890 0.000000 0.000000 
#    y 0.000000 1.526050 0.000000 
#    z 0.000000 0.000000 1.524640 
# 
# From -- ./inp_files/43882.got.cif
#   From: 2010.05.17/outbox.cif.g08.bks.cpg/sg71_22_cif.got.tgz:43882.got - 2010.06.03 16:22:01.
