data_PCOD9524454
_publ_section_title
;
Structure prediction by ZEFSAII (Michael W. Deem and Ramdas Pophale) SiO2 
 PCOD9524454
Probable space group: I M M M
;
_chemical_formula_sum "Si O2"
_cell_formula_units_Z 108
_cell_length_a 14.668625
_cell_length_b 16.216274
_cell_length_c 22.655367
_cell_angle_alpha 90.000000
_cell_angle_beta 90.000000
_cell_angle_gamma 90.000000
_cell_volume 5389.042167
_symmetry_space_group_name_H-M "I M M M"
_symmetry_group_IT_number 71
_symmetry_cell_setting 'orthorhombic'
loop_
_space_group_symop_operation_xyz
x,y,z
-x,-y,z
x,-y,-z
-x,y,-z
-x,-y,-z
x,y,-z
-x,y,z
x,-y,z
1/2+x,1/2+y,1/2+z
1/2-x,1/2-y,1/2+z
1/2+x,1/2-y,1/2-z
1/2-x,1/2+y,1/2-z
1/2-x,1/2-y,1/2-z
1/2+x,1/2+y,1/2-z
1/2-x,1/2+y,1/2+z
1/2+x,1/2-y,1/2+z
loop_
_atom_site_type_symbol
_atom_site_label
_atom_site_fract_x
_atom_site_fract_y
_atom_site_fract_z
Si Si1 0.603177 0.400509 0.214274
Si Si2 0.601241 0.903339 0.000000
Si Si3 0.325644 0.500000 0.000000
Si Si4 0.392959 0.400488 0.350052
Si Si5 0.398371 0.900449 0.347208
Si Si6 0.391038 0.097576 0.788472
Si Si7 0.214435 0.860811 0.598127
Si Si8 0.713105 0.172291 0.895919
O O1 0.500000 0.371856 0.201285
O O2 0.602672 0.500000 0.214711
O O3 0.625244 0.376311 0.281478
O O4 0.669285 0.374237 0.162344
O O5 0.658607 0.880951 0.057207
O O6 0.500000 0.864247 0.000000
O O7 0.589887 0.000000 0.000000
O O8 0.322382 0.572739 0.051819
O O9 0.500000 0.383229 0.362212
O O10 0.380780 0.500000 0.355018
O O11 0.318523 0.354186 0.389314
O O12 0.500000 0.870225 0.360904
O O13 0.375626 0.877474 0.279600
O O14 0.322171 0.873793 0.392615
O O15 0.400271 0.000000 0.347236
O O16 0.500000 0.103526 0.799395
O O17 0.334431 0.152834 0.833191
O O18 0.366008 0.000000 0.795040
O O19 0.200607 0.765809 0.583486
#
# Coordination Sequence:
#
# PCOD9524454 Si02
#       8
#    16   8   4  16  16  16  16  16
#     4   9  18  36  61  88 120 164 209 246 300 374
#     4  11  25  46  68  87 118 162 204 245 295 368
#     4  12  26  48  64  74 110 168 226 264 306 352
#     4   9  19  37  63  94 130 166 198 238 299 382
#     4   9  18  36  62  90 120 160 205 252 313 381
#     4   9  18  34  60  94 130 162 197 246 311 387
#     4  12  24  40  60  84 118 159 210 272 313 358
#     4  12  24  37  60  94 125 157 205 259 316 361
#
# _framework density 20.040666999999999
#
# number of rings (size 3 to 8) (size 9 to 14) (size 15 to 20)
#    0.000    1.852    1.481    4.889    0.000    7.704 
#    0.000    4.815    0.000    3.111    0.000    0.000 
#    0.000    0.000    0.000    0.000    0.000    0.000 
#
# Total GULP energy -301058.340695 kJ/mol
# GULP energy per Si atom -5575.154457 kJ/mol
# Density = 1.999505 g / cm^3
# Si number density = 20.040667 Si / 1000 Ang^3
#
#
#
# Elastic Constant Matrix: (Units=GPa)
#
#
# Indices 1 2 3 4 5 6 
#
# 1 76.9663 21.7213 35.2802 0.0000 0.0000 0.0000
# 2 21.7213 83.4723 20.1033 0.0000 0.0000 0.0000
# 3 35.2802 20.1033 31.1075 0.0000 0.0000 0.0000
# 4 0.0000 0.0000 0.0000 -4.2121 0.0000 0.0000
# 5 0.0000 0.0000 0.0000 0.0000 2.2469 0.0000
# 6 0.0000 0.0000 0.0000 0.0000 0.0000 76.5004
#
#
#
# Elastic Compliance Matrix: (Units=1/GPa)
#
#
# Indices 1 2 3 4 5 6 
#
# 1 0.027073 0.000414 -0.030972 0.000000 0.000000 0.000000
# 2 0.000414 0.014195 -0.009643 0.000000 0.000000 0.000000
# 3 -0.030972 -0.009643 0.073506 0.000000 0.000000 0.000000
# 4 0.000000 0.000000 0.000000 -0.237413 0.000000 0.000000
# 5 0.000000 0.000000 0.000000 0.000000 0.445065 0.000000
# 6 0.000000 0.000000 0.000000 0.000000 0.000000 0.013072
#
#
# Mechanical properties :
#
#
# Convention : Reuss Voigt Hill
#
# Bulk Modulus (GPa) = 29.09453 38.41731 33.75592
# Shear Modulus (GPa) = 11.69985 22.53647 17.11816
#
# Velocity S-wave (km/s) = 2.41883 3.35705 2.92579
# Velocity P-wave (km/s) = 4.72760 5.85130 5.31921
#
# Compressibility (1/GPa) = 0.03437072
#
# Stress axis : x y z
#
# Youngs Moduli (GPa) = 36.93708 70.44906 13.60440
#
# Poissons Ratio (x) = -0.02919 0.42136
# Poissons Ratio (y) = -0.01530 0.13119
# Poissons Ratio (z) = 1.14403 0.67936
#
# Static dielectric constant tensor:
#      x y z
#    x 1.747090 0.000000 0.000000 
#    y 0.000000 1.703310 0.000000 
#    z 0.000000 0.000000 1.730970 
# 
# From -- ./inp_files/59958.got.cif
#   From: 2010.05.17/outbox.cif.g08.bks.cpg/sg71_30_cif.got.tgz:59958.got - 2010.06.03 16:22:01.
