data_PCOD9524680
_publ_section_title
;
Structure prediction by ZEFSAII (Michael W. Deem and Ramdas Pophale) SiO2 
 PCOD9524680
Probable space group: I M M M
;
_chemical_formula_sum "Si O2"
_cell_formula_units_Z 48
_cell_length_a 24.000000
_cell_length_b 24.000000
_cell_length_c 9.000000
_cell_angle_alpha 90.000000
_cell_angle_beta 90.000000
_cell_angle_gamma 90.000000
_cell_volume 5184.000000
_symmetry_space_group_name_H-M "I M M M"
_symmetry_group_IT_number 71
_symmetry_cell_setting 'orthorhombic'
loop_
_space_group_symop_operation_xyz
x,y,z
-x,-y,z
x,-y,-z
-x,y,-z
-x,-y,-z
x,y,-z
-x,y,z
x,-y,z
1/2+x,1/2+y,1/2+z
1/2-x,1/2-y,1/2+z
1/2+x,1/2-y,1/2-z
1/2-x,1/2+y,1/2-z
1/2-x,1/2-y,1/2-z
1/2+x,1/2+y,1/2-z
1/2-x,1/2+y,1/2+z
1/2+x,1/2-y,1/2+z
loop_
_atom_site_type_symbol
_atom_site_label
_atom_site_fract_x
_atom_site_fract_y
_atom_site_fract_z
Si Si1 0.500000 0.254893 0.324145
Si Si2 0.667506 0.138555 0.820559
Si Si3 0.228159 0.063761 0.818989
Si Si4 0.437462 0.935269 0.819169
Si Si5 0.384854 0.374790 0.320821
Si Si6 0.623604 0.243962 0.324155
Si Si7 0.000000 0.125305 0.675867
O O1 0.500000 0.272090 0.500000
O O2 0.558957 0.225824 0.297654
O O3 0.500000 0.309472 0.222309
O O4 0.722078 0.104597 0.771533
O O5 0.612809 0.104021 0.770289
O O6 0.662833 0.201131 0.760400
O O7 0.667477 0.140170 0.000000
O O8 0.168308 0.088726 0.776688
O O9 0.235882 0.000000 0.769306
O O10 0.229448 0.063138 0.000000
O O11 0.500000 0.918977 0.770363
O O12 0.428086 0.000000 0.777081
O O13 0.437494 0.934000 0.000000
O O14 0.391230 0.376498 0.500000
O O15 0.373829 0.309435 0.282057
O O16 0.442213 0.395365 0.247328
O O17 0.634495 0.240759 0.500000
O O18 0.000000 0.118116 0.500000
#
# Coordination Sequence:
#
# PCOD9524680 Si02
#       7
#     8  16  16  16  16  16   8
#     4   8  16  32  50  69 102 145 180 206 243 298
#     4  10  19  29  47  76 104 130 169 220 260 293
#     4   9  18  34  56  78  98 128 176 227 263 297
#     4   8  14  25  41  63  94 130 165 206 258 301
#     4   9  18  35  56  75 102 139 173 204 250 313
#     4   9  18  31  47  70 101 139 172 202 249 312
#     4  10  18  30  53  83 108 128 157 204 257 305
#
# _framework density 9.2592590000000001
#
# number of rings (size 3 to 8) (size 9 to 14) (size 15 to 20)
#    0.000    3.000    0.000    2.750    1.167    5.333 
#    0.000    1.250    0.000    6.000    0.000    1.167 
#    0.000    0.000    0.000    0.000    0.000    0.000 
#
# Total GULP energy -267468.040981 kJ/mol
# GULP energy per Si atom -5572.250854 kJ/mol
# Density = 0.923818 g / cm^3
# Si number density = 9.259259 Si / 1000 Ang^3
#
#
#
# Elastic Constant Matrix: (Units=GPa)
#
#
# Indices 1 2 3 4 5 6 
#
# 1 86.8426 16.4300 21.8117 0.0000 0.0000 0.0000
# 2 16.4300 32.0407 8.8681 0.0000 0.0000 0.0000
# 3 21.8117 8.8681 12.7856 0.0000 0.0000 0.0000
# 4 0.0000 0.0000 0.0000 17.0004 0.0000 0.0000
# 5 0.0000 0.0000 0.0000 0.0000 15.4009 0.0000
# 6 0.0000 0.0000 0.0000 0.0000 0.0000 33.0504
#
#
#
# Elastic Compliance Matrix: (Units=1/GPa)
#
#
# Indices 1 2 3 4 5 6 
#
# 1 0.020175 -0.001014 -0.033714 0.000000 0.000000 0.000000
# 2 -0.001014 0.038676 -0.025096 0.000000 0.000000 0.000000
# 3 -0.033714 -0.025096 0.153135 0.000000 0.000000 0.000000
# 4 0.000000 0.000000 0.000000 0.058822 0.000000 0.000000
# 5 0.000000 0.000000 0.000000 0.000000 0.064931 0.000000
# 6 0.000000 0.000000 0.000000 0.000000 0.000000 0.030257
#
#
# Mechanical properties :
#
#
# Convention : Reuss Voigt Hill
#
# Bulk Modulus (GPa) = 10.82983 25.09873 17.96428
# Shear Modulus (GPa) = 9.68199 18.72762 14.20480
#
# Velocity S-wave (km/s) = 2.28902 3.18353 2.77259
# Velocity P-wave (km/s) = 3.58427 5.20537 4.46894
#
# Compressibility (1/GPa) = 0.09233752
#
# Stress axis : x y z
#
# Youngs Moduli (GPa) = 49.56715 25.85560 6.53020
#
# Poissons Ratio (x) = 0.02622 0.22016
# Poissons Ratio (y) = 0.05026 0.16388
# Poissons Ratio (z) = 1.67110 0.64888
#
# Static dielectric constant tensor:
#      x y z
#    x 1.664460 0.000000 0.000000 
#    y 0.000000 1.637620 0.000000 
#    z 0.000000 0.000000 1.622090 
# 
# From -- ./inp_files/12930.got.cif
#   From: 2010.05.17/outbox.ucp.g08.bks.cvg/sg71_7_cif.got.tgz:12930.got - 2010.06.11 16:29:00.
