data_PCOD9524674
_publ_section_title
;
Structure prediction by ZEFSAII (Michael W. Deem and Ramdas Pophale) SiO2 
 PCOD9524674
Probable space group: I M M M
;
_chemical_formula_sum "Si O2"
_cell_formula_units_Z 44
_cell_length_a 27.000000
_cell_length_b 12.000000
_cell_length_c 15.000000
_cell_angle_alpha 90.000000
_cell_angle_beta 90.000000
_cell_angle_gamma 90.000000
_cell_volume 4860.000000
_symmetry_space_group_name_H-M "I M M M"
_symmetry_group_IT_number 71
_symmetry_cell_setting 'orthorhombic'
loop_
_space_group_symop_operation_xyz
x,y,z
-x,-y,z
x,-y,-z
-x,y,-z
-x,-y,-z
x,y,-z
-x,y,z
x,-y,z
1/2+x,1/2+y,1/2+z
1/2-x,1/2-y,1/2+z
1/2+x,1/2-y,1/2-z
1/2-x,1/2+y,1/2-z
1/2-x,1/2-y,1/2-z
1/2+x,1/2+y,1/2-z
1/2-x,1/2+y,1/2+z
1/2+x,1/2-y,1/2+z
loop_
_atom_site_type_symbol
_atom_site_label
_atom_site_fract_x
_atom_site_fract_y
_atom_site_fract_z
Si Si1 0.946213 0.794814 0.315004
Si Si2 0.919194 0.877582 0.500000
Si Si3 0.439945 0.500000 0.316240
Si Si4 0.859165 0.369856 0.318641
Si Si5 0.673300 0.218911 0.000000
Si Si6 0.731391 0.134501 0.500000
Si Si7 0.667471 0.500000 0.605767
Si Si8 0.296058 0.738497 0.319598
O O1 0.947748 0.859745 0.408752
O O2 0.931494 0.889006 0.243359
O O3 0.911950 0.688494 0.330773
O O4 0.000000 0.754473 0.288338
O O5 0.877627 0.784646 0.500000
O O6 0.896448 0.000000 0.500000
O O7 0.500000 0.500000 0.341855
O O8 0.392886 0.500000 0.383469
O O9 0.861266 0.500000 0.299746
O O10 0.826535 0.350798 0.408588
O O11 0.838038 0.298062 0.237804
O O12 0.713445 0.315840 0.000000
O O13 0.709947 0.189732 0.409920
O O14 0.728691 0.000000 0.500000
O O15 0.679655 0.500000 0.500000
O O16 0.690318 0.611494 0.652379
O O17 0.250000 0.750000 0.250000
#
# Coordination Sequence:
#
# PCOD9524674 Si02
#       8
#    16   8   8  16   8   8   8  16
#     4  10  20  34  56  87 120 158 204 253 313 376
#     4  10  18  29  50  84 123 160 196 249 311 366
#     4  10  20  38  66  94 121 155 210 275 324 382
#     4  11  23  40  60  86 123 165 206 255 309 369
#     4  10  22  37  57  87 120 162 212 255 307 360
#     4  12  25  42  61  91 121 160 209 252 303 366
#     4  12  26  47  69  93 132 168 210 260 331 391
#     4  12  26  42  64  93 122 165 207 253 306 371
#
# _framework density 9.0534979999999994
#
# number of rings (size 3 to 8) (size 9 to 14) (size 15 to 20)
#    0.000    1.091    5.455    1.364    2.545    0.909 
#    1.636    0.000    0.000    3.273    0.000    0.000 
#    0.000    5.818    0.000    0.000    0.000    0.000 
#
# Total GULP energy -245014.000422 kJ/mol
# GULP energy per Si atom -5568.500010 kJ/mol
# Density = 0.903289 g / cm^3
# Si number density = 9.053498 Si / 1000 Ang^3
#
#
#
# Elastic Constant Matrix: (Units=GPa)
#
#
# Indices 1 2 3 4 5 6 
#
# 1 55.7544 41.8037 32.1598 0.0000 0.0000 0.0000
# 2 41.8037 173.0401 56.9776 0.0000 0.0000 0.0000
# 3 32.1598 56.9776 115.5788 0.0000 0.0000 0.0000
# 4 0.0000 0.0000 0.0000 23.5656 0.0000 0.0000
# 5 0.0000 0.0000 0.0000 0.0000 0.2012 0.0000
# 6 0.0000 0.0000 0.0000 0.0000 0.0000 20.6483
#
#
#
# Elastic Compliance Matrix: (Units=1/GPa)
#
#
# Indices 1 2 3 4 5 6 
#
# 1 0.023719 -0.004246 -0.004507 0.000000 0.000000 0.000000
# 2 -0.004246 0.007659 -0.002594 0.000000 0.000000 0.000000
# 3 -0.004507 -0.002594 0.011185 0.000000 0.000000 0.000000
# 4 0.000000 0.000000 0.000000 0.042435 0.000000 0.000000
# 5 0.000000 0.000000 0.000000 0.000000 4.969801 0.000000
# 6 0.000000 0.000000 0.000000 0.000000 0.000000 0.048430
#
#
# Mechanical properties :
#
#
# Convention : Reuss Voigt Hill
#
# Bulk Modulus (GPa) = 50.32965 67.36173 58.84569
# Shear Modulus (GPa) = 0.97418 23.11186 12.04302
#
# Velocity S-wave (km/s) = 0.73429 3.57656 2.58176
# Velocity P-wave (km/s) = 5.34555 7.37146 6.43869
#
# Compressibility (1/GPa) = 0.01986900
#
# Stress axis : x y z
#
# Youngs Moduli (GPa) = 42.16038 130.56479 89.40607
#
# Poissons Ratio (x) = 0.55441 0.40291
# Poissons Ratio (y) = 0.17902 0.23194
# Poissons Ratio (z) = 0.19000 0.33871
#
# Static dielectric constant tensor:
#      x y z
#    x 1.759260 0.000000 0.000000 
#    y 0.000000 1.571840 0.000000 
#    z 0.000000 0.000000 1.679890 
# 
# From -- ./inp_files/40224.got.cif
#   From: 2010.05.17/outbox.ucp.g08.bks.cvg/sg71_21_cif.got.tgz:40224.got - 2010.06.11 16:29:00.
