data_PCOD9524558
_publ_section_title
;
Structure prediction by ZEFSAII (Michael W. Deem and Ramdas Pophale) SiO2 
 PCOD9524558
Probable space group: I M M M
;
_chemical_formula_sum "Si O2"
_cell_formula_units_Z 112
_cell_length_a 7.407940
_cell_length_b 23.380945
_cell_length_c 30.166825
_cell_angle_alpha 90.000000
_cell_angle_beta 90.000000
_cell_angle_gamma 90.000000
_cell_volume 5225.033995
_symmetry_space_group_name_H-M "I M M M"
_symmetry_group_IT_number 71
_symmetry_cell_setting 'orthorhombic'
loop_
_space_group_symop_operation_xyz
x,y,z
-x,-y,z
x,-y,-z
-x,y,-z
-x,-y,-z
x,y,-z
-x,y,z
x,-y,z
1/2+x,1/2+y,1/2+z
1/2-x,1/2-y,1/2+z
1/2+x,1/2-y,1/2-z
1/2-x,1/2+y,1/2-z
1/2-x,1/2-y,1/2-z
1/2+x,1/2+y,1/2-z
1/2-x,1/2+y,1/2+z
1/2+x,1/2-y,1/2+z
loop_
_atom_site_type_symbol
_atom_site_label
_atom_site_fract_x
_atom_site_fract_y
_atom_site_fract_z
Si Si1 0.713550 0.875802 0.313764
Si Si2 0.280188 0.933724 0.049795
Si Si3 0.217310 0.237194 0.637812
Si Si4 0.787727 0.178354 0.548383
Si Si5 0.218309 0.564655 0.903930
Si Si6 0.220642 0.565888 0.275752
Si Si7 0.279244 0.132827 0.863113
O O1 0.500000 0.886795 0.313027
O O2 0.738217 0.808997 0.324470
O O3 0.783982 0.910801 0.356452
O O4 0.783195 0.898237 0.266938
O O5 0.500000 0.932831 0.049842
O O6 0.220490 0.893630 0.089943
O O7 0.227766 0.000000 0.057225
O O8 0.223052 0.916910 0.000000
O O9 0.286749 0.211668 0.591047
O O10 0.279371 0.301865 0.643820
O O11 0.000000 0.238458 0.635648
O O12 0.710809 0.191329 0.500000
O O13 0.771203 0.111266 0.559649
O O14 0.000000 0.192245 0.546809
O O15 0.279837 0.500000 0.911452
O O16 0.000000 0.564028 0.902818
O O17 0.275591 0.500000 0.272002
O O18 0.278024 0.593961 0.321900
O O19 0.000000 0.566688 0.276058
O O20 0.500000 0.132657 0.863640
#
# Coordination Sequence:
#
# PCOD9524558 Si02
#       7
#    16  16  16  16  16  16  16
#     4   9  17  30  47  65  86 115 149 180 213 256
#     4   8  13  21  34  55  86 121 150 177 216 264
#     4   9  18  31  45  63  88 117 148 180 214 255
#     4   9  18  31  44  59  83 115 147 178 213 255
#     4   9  17  29  45  64  85 109 140 180 222 261
#     4   9  16  26  43  66  88 110 140 180 221 258
#     4   9  16  25  39  61  88 116 146 180 217 256
#
# _framework density 21.435268000000001
#
# number of rings (size 3 to 8) (size 9 to 14) (size 15 to 20)
#    0.000    3.143    0.000    1.286    0.000    5.429 
#    0.000    4.286    0.000    1.286    0.000    0.000 
#    0.000    1.714    0.000    1.571    0.000    2.429 
#
# Total GULP energy -312526.754953 kJ/mol
# GULP energy per Si atom -5580.834910 kJ/mol
# Density = 2.138648 g / cm^3
# Si number density = 21.435268 Si / 1000 Ang^3
#
#
#
# Elastic Constant Matrix: (Units=GPa)
#
#
# Indices 1 2 3 4 5 6 
#
# 1 68.7080 -8.1673 -0.2831 0.0000 0.0000 0.0000
# 2 -8.1673 138.6827 91.9904 0.0000 0.0000 0.0000
# 3 -0.2831 91.9904 161.8619 0.0000 0.0000 -0.0001
# 4 0.0000 0.0000 0.0000 23.3428 0.0000 0.0000
# 5 0.0000 0.0000 0.0000 0.0000 -6.0616 0.0000
# 6 0.0000 0.0000 -0.0001 0.0000 0.0000-1708.9097
#
#
#
# Elastic Compliance Matrix: (Units=1/GPa)
#
#
# Indices 1 2 3 4 5 6 
#
# 1 0.014713 0.001363 -0.000749 0.000000 0.000000 0.000000
# 2 0.001363 0.011700 -0.006647 0.000000 0.000000 0.000000
# 3 -0.000749 -0.006647 0.009955 0.000000 0.000000 0.000000
# 4 0.000000 0.000000 0.000000 0.042840 0.000000 0.000000
# 5 0.000000 0.000000 0.000000 0.000000 -0.164973 0.000000
# 6 0.000000 0.000000 0.000000 0.000000 0.000000 -0.000585
#
#
# Mechanical properties :
#
#
# Convention : Reuss Voigt Hill
#
# Bulk Modulus (GPa) = 41.14834 59.59251 50.37042
# Shear Modulus (GPa) = -75.54679 -319.27819 -197.41249
#
# Velocity S-wave (km/s) = -5.94312 -12.21775 -9.60713
# Velocity P-wave (km/s) = 5.27788 13.08318 9.97561
#
# Compressibility (1/GPa) = 0.02430232
#
# Stress axis : x y z
#
# Youngs Moduli (GPa) = 67.96561 85.46917 100.45687
#
# Poissons Ratio (x) = -0.11653 0.07525
# Poissons Ratio (y) = -0.09266 0.66775
# Poissons Ratio (z) = 0.05091 0.56812
#
# Static dielectric constant tensor:
#      x y z
#    x 1.840310 0.000000 0.000000 
#    y 0.000000 1.732830 0.000000 
#    z 0.000000 0.000000 1.755690 
# 
# From -- ./inp_files/29116.got.cif
#   From: 2010.05.17/outbox.cif.g08.bks.cpg/sg71_15_cif.got.tgz:29116.got - 2010.06.03 16:22:01.
