data_PCOD9524605
_publ_section_title
;
Structure prediction by ZEFSAII (Michael W. Deem and Ramdas Pophale) SiO2 
 PCOD9524605
Probable space group: I M M M
;
_chemical_formula_sum "Si O2"
_cell_formula_units_Z 64
_cell_length_a 17.326240
_cell_length_b 23.182922
_cell_length_c 7.430883
_cell_angle_alpha 90.000000
_cell_angle_beta 90.000000
_cell_angle_gamma 90.000000
_cell_volume 2984.784105
_symmetry_space_group_name_H-M "I M M M"
_symmetry_group_IT_number 71
_symmetry_cell_setting 'orthorhombic'
loop_
_space_group_symop_operation_xyz
x,y,z
-x,-y,z
x,-y,-z
-x,y,-z
-x,-y,-z
x,y,-z
-x,y,z
x,-y,z
1/2+x,1/2+y,1/2+z
1/2-x,1/2-y,1/2+z
1/2+x,1/2-y,1/2-z
1/2-x,1/2+y,1/2-z
1/2-x,1/2-y,1/2-z
1/2+x,1/2+y,1/2-z
1/2-x,1/2+y,1/2+z
1/2+x,1/2-y,1/2+z
loop_
_atom_site_type_symbol
_atom_site_label
_atom_site_fract_x
_atom_site_fract_y
_atom_site_fract_z
Si Si1 0.341381 0.242433 0.712943
Si Si2 0.500000 0.566618 0.779739
Si Si3 0.410441 0.000000 0.719566
Si Si4 0.851972 0.869091 0.707336
Si Si5 0.323582 0.116819 0.279399
O O1 0.354587 0.244207 0.500000
O O2 0.250000 0.250000 0.750000
O O3 0.374481 0.301495 0.789646
O O4 0.361743 0.177998 0.776981
O O5 0.500000 0.500000 0.737109
O O6 0.422122 0.595939 0.711375
O O7 0.500000 0.572694 0.000000
O O8 0.366683 0.941409 0.776462
O O9 0.500000 0.000000 0.774938
O O10 0.409381 0.000000 0.500000
O O11 0.844811 0.887240 0.500000
O O12 0.765964 0.879967 0.782125
O O13 0.323609 0.117811 0.500000
#
# Coordination Sequence:
#
# PCOD9524605 Si02
#       5
#    16   8   8  16  16
#     4   9  16  29  48  72  97 123 158 197 240 287
#     4   9  18  30  47  73  99 126 165 212 248 285
#     4   9  16  26  40  63  94 120 147 189 239 285
#     4   9  17  30  48  71  97 124 160 199 242 291
#     4   8  15  26  43  65  89 120 152 189 235 283
#
# _framework density 21.442086
#
# number of rings (size 3 to 8) (size 9 to 14) (size 15 to 20)
#    0.000    3.250    0.000    2.250    1.750    0.000 
#    2.250    0.625    0.000    1.500    0.000    2.625 
#    0.000   25.000    0.000    0.000    0.000    0.000 
#
# Total GULP energy -178310.333236 kJ/mol
# GULP energy per Si atom -5572.197914 kJ/mol
# Density = 2.139328 g / cm^3
# Si number density = 21.442086 Si / 1000 Ang^3
#
#
#
# Elastic Constant Matrix: (Units=GPa)
#
#
# Indices 1 2 3 4 5 6 
#
# 1 108.8595 100.0563 3.6010 0.0000 0.0000 0.0000
# 2 100.0563 197.3254 -11.3987 0.0000 0.0000 0.0000
# 3 3.6010 -11.3987 64.9938 0.0000 0.0000 0.0000
# 4 0.0000 0.0000 0.0000 15.7337 0.0000 0.0000
# 5 0.0000 0.0000 0.0000 0.0000 -6.0697 0.0000
# 6 0.0000 0.0000 0.0000 0.0000 0.0000 32.7028
#
#
#
# Elastic Compliance Matrix: (Units=1/GPa)
#
#
# Indices 1 2 3 4 5 6 
#
# 1 0.017619 -0.009082 -0.002569 0.000000 0.000000 0.000000
# 2 -0.009082 0.009801 0.002222 0.000000 0.000000 0.000000
# 3 -0.002569 0.002222 0.015918 0.000000 0.000000 0.000000
# 4 0.000000 0.000000 0.000000 0.063558 0.000000 0.000000
# 5 0.000000 0.000000 0.000000 0.000000 -0.164752 0.000000
# 6 0.000000 0.000000 0.000000 0.000000 0.000000 0.030578
#
#
# Mechanical properties :
#
#
# Convention : Reuss Voigt Hill
#
# Bulk Modulus (GPa) = 40.84927 61.74395 51.29661
# Shear Modulus (GPa) = -19348.73010 27.06804 -9660.83103
#
# Velocity S-wave (km/s) = -95.09630 3.55685 -67.19619
# Velocity P-wave (km/s) = 109.72078 6.76213 77.43682
#
# Compressibility (1/GPa) = 0.02448024
#
# Stress axis : x y z
#
# Youngs Moduli (GPa) = 56.75694 102.02574 62.82131
#
# Poissons Ratio (x) = 0.92663 0.16139
# Poissons Ratio (y) = 0.51549 -0.13960
# Poissons Ratio (z) = 0.14581 -0.22672
#
# Static dielectric constant tensor:
#      x y z
#    x 1.756630 0.000000 0.000000 
#    y 0.000000 1.780760 0.000000 
#    z 0.000000 0.000000 1.837650 
# 
# From -- ./inp_files/7522.got.cif
#   From: 2010.05.17/outbox.cif.g08.bks.cpg/sg71_4_cif.got.tgz:7522.got - 2010.06.03 16:22:01.
