data_PCOD9524031
_publ_section_title
;
Structure prediction by ZEFSAII (Michael W. Deem and Ramdas Pophale) SiO2 
 PCOD9524031
Probable space group: I M M M
;
_chemical_formula_sum "Si O2"
_cell_formula_units_Z 120
_cell_length_a 20.640169
_cell_length_b 14.419984
_cell_length_c 20.208016
_cell_angle_alpha 90.000000
_cell_angle_beta 90.000000
_cell_angle_gamma 90.000000
_cell_volume 6014.530125
_symmetry_space_group_name_H-M "I M M M"
_symmetry_group_IT_number 71
_symmetry_cell_setting 'orthorhombic'
loop_
_space_group_symop_operation_xyz
x,y,z
-x,-y,z
x,-y,-z
-x,y,-z
-x,-y,-z
x,y,-z
-x,y,z
x,-y,z
1/2+x,1/2+y,1/2+z
1/2-x,1/2-y,1/2+z
1/2+x,1/2-y,1/2-z
1/2-x,1/2+y,1/2-z
1/2-x,1/2-y,1/2-z
1/2+x,1/2+y,1/2-z
1/2-x,1/2+y,1/2+z
1/2+x,1/2-y,1/2+z
loop_
_atom_site_type_symbol
_atom_site_label
_atom_site_fract_x
_atom_site_fract_y
_atom_site_fract_z
Si Si1 0.182154 0.396275 0.881023
Si Si2 0.421520 0.891050 0.000000
Si Si3 0.384208 0.104312 0.753176
Si Si4 0.197847 0.204676 0.927635
Si Si5 0.424294 0.233327 0.129792
Si Si6 0.260275 0.605371 0.689085
Si Si7 0.068411 0.107088 0.919648
Si Si8 0.671768 0.392420 0.178170
O O1 0.169723 0.500000 0.905475
O O2 0.129059 0.374514 0.823931
O O3 0.182993 0.312192 0.930701
O O4 0.256134 0.394909 0.853381
O O5 0.404456 0.832044 0.066660
O O6 0.500000 0.896441 0.000000
O O7 0.398365 0.000000 0.000000
O O8 0.419868 0.173515 0.802403
O O9 0.310079 0.101153 0.778517
O O10 0.411456 0.000000 0.758562
O O11 0.246954 0.176162 0.871017
O O12 0.132821 0.157559 0.900331
O O13 0.215119 0.168123 0.000000
O O14 0.500000 0.260327 0.119299
O O15 0.376881 0.321431 0.142273
O O16 0.275978 0.500000 0.666814
O O17 0.311922 0.634400 0.745403
O O18 0.000000 0.147283 0.896312
O O19 0.071001 0.000000 0.899940
O O20 0.068057 0.109339 0.000000
O O21 0.648402 0.500000 0.177430
#
# Coordination Sequence:
#
# PCOD9524031 Si02
#       8
#    16   8  16  16  16  16  16  16
#     4   9  19  37  57  74  98 137 184 229 272 319
#     4   9  20  38  55  75 111 153 182 210 262 329
#     4   9  18  35  58  77  96 133 181 223 266 320
#     4  11  20  29  48  77 109 139 168 214 269 322
#     4  11  21  34  56  83 112 145 181 221 268 326
#     4   9  18  34  55  78 105 137 173 216 273 330
#     4   8  15  29  47  66  93 133 172 196 227 293
#     4   9  19  38  60  77 100 140 186 228 268 318
#
# _framework density 19.951682999999999
#
# number of rings (size 3 to 8) (size 9 to 14) (size 15 to 20)
#    0.000    2.600    0.000    4.400    0.000    4.267 
#    4.800    3.000    0.000    3.200    0.000    1.867 
#    0.000    0.000    0.000    0.000    0.000    0.000 
#
# Total GULP energy -334147.381310 kJ/mol
# GULP energy per Si atom -5569.123022 kJ/mol
# Density = 1.990627 g / cm^3
# Si number density = 19.951683 Si / 1000 Ang^3
#
#
#
# Elastic Constant Matrix: (Units=GPa)
#
#
# Indices 1 2 3 4 5 6 
#
# 1 39.6801 14.8162 8.9123 0.0000 0.0000 0.0000
# 2 14.8162 75.1079 33.1606 0.0000 0.0000 0.0000
# 3 8.9123 33.1606 63.3733 0.0000 0.0000 0.0000
# 4 0.0000 0.0000 0.0000 23.5643 0.0000 0.0000
# 5 0.0000 0.0000 0.0000 0.0000 -875.4778 0.0000
# 6 0.0000 0.0000 0.0000 0.0000 0.0000 211.7938
#
#
#
# Elastic Compliance Matrix: (Units=1/GPa)
#
#
# Indices 1 2 3 4 5 6 
#
# 1 0.027291 -0.004797 -0.001328 0.000000 0.000000 0.000000
# 2 -0.004797 0.018157 -0.008826 0.000000 0.000000 0.000000
# 3 -0.001328 -0.008826 0.020585 0.000000 0.000000 0.000000
# 4 0.000000 0.000000 0.000000 0.042437 0.000000 0.000000
# 5 0.000000 0.000000 0.000000 0.000000 -0.001142 0.000000
# 6 0.000000 0.000000 0.000000 0.000000 0.000000 0.004722
#
#
# Mechanical properties :
#
#
# Convention : Reuss Voigt Hill
#
# Bulk Modulus (GPa) = 27.67763 32.43771 30.05767
# Shear Modulus (GPa) = 32.46839 -119.93913 -43.73537
#
# Velocity S-wave (km/s) = 4.03842 -7.76178 -4.68703
# Velocity P-wave (km/s) = 5.97056 8.00210 3.76736
#
# Compressibility (1/GPa) = 0.03613026
#
# Stress axis : x y z
#
# Youngs Moduli (GPa) = 36.64202 55.07390 48.57974
#
# Poissons Ratio (x) = 0.26421 0.06450
# Poissons Ratio (y) = 0.17579 0.42878
# Poissons Ratio (z) = 0.04865 0.48610
#
# Static dielectric constant tensor:
#      x y z
#    x 1.774640 0.000000 0.000000 
#    y 0.000000 1.743850 0.000000 
#    z 0.000000 0.000000 1.739400 
# 
# From -- ./inp_files/55134.got.cif
#   From: 2010.05.17/outbox.cif.g08.bks.cpg/sg71_28_cif.got.tgz:55134.got - 2010.06.03 16:22:01.
