data_PCOD9524540
_publ_section_title
;
Structure prediction by ZEFSAII (Michael W. Deem and Ramdas Pophale) SiO2 
 PCOD9524540
Probable space group: I M M M
;
_chemical_formula_sum "Si O2"
_cell_formula_units_Z 120
_cell_length_a 29.010485
_cell_length_b 7.312273
_cell_length_c 29.210205
_cell_angle_alpha 90.000000
_cell_angle_beta 90.000000
_cell_angle_gamma 90.000000
_cell_volume 6196.436330
_symmetry_space_group_name_H-M "I M M M"
_symmetry_group_IT_number 71
_symmetry_cell_setting 'orthorhombic'
loop_
_space_group_symop_operation_xyz
x,y,z
-x,-y,z
x,-y,-z
-x,y,-z
-x,-y,-z
x,y,-z
-x,y,z
x,-y,z
1/2+x,1/2+y,1/2+z
1/2-x,1/2-y,1/2+z
1/2+x,1/2-y,1/2-z
1/2-x,1/2+y,1/2-z
1/2-x,1/2-y,1/2-z
1/2+x,1/2+y,1/2-z
1/2-x,1/2+y,1/2+z
1/2+x,1/2-y,1/2+z
loop_
_atom_site_type_symbol
_atom_site_label
_atom_site_fract_x
_atom_site_fract_y
_atom_site_fract_z
Si Si1 0.886901 0.777196 0.912420
Si Si2 0.647396 0.718750 0.199583
Si Si3 0.286684 0.276880 0.447807
Si Si4 0.947178 0.222681 0.000000
Si Si5 0.235379 0.718255 0.637129
Si Si6 0.550866 0.722756 0.777507
Si Si7 0.947883 0.777858 0.828655
Si Si8 0.205399 0.783086 0.218280
O O1 0.835200 0.721131 0.925019
O O2 0.909122 0.716530 0.864416
O O3 0.886375 0.000000 0.911145
O O4 0.919975 0.722327 0.954373
O O5 0.646010 0.500000 0.203685
O O6 0.686102 0.751417 0.161122
O O7 0.595128 0.782468 0.193441
O O8 0.665178 0.788921 0.249179
O O9 0.283464 0.214219 0.500000
O O10 0.287173 0.500000 0.449394
O O11 0.245467 0.218946 0.414126
O O12 0.000000 0.282749 0.000000
O O13 0.947308 0.000000 0.000000
O O14 0.240506 0.500000 0.637037
O O15 0.276748 0.789406 0.669925
O O16 0.500000 0.784035 0.792054
O O17 0.549954 0.500000 0.777977
O O18 0.557789 0.776468 0.724230
O O19 0.000000 0.725760 0.843354
O O20 0.946676 0.000000 0.828809
O O21 0.250000 0.750000 0.250000
O O22 0.196843 0.000000 0.212268
#
# Coordination Sequence:
#
# PCOD9524540 Si02
#       8
#    16  16  16   8  16  16  16  16
#     4   9  14  19  27  40  61  92 130 168 201 233
#     4   9  16  26  41  59  80 104 131 162 195 234
#     4   9  16  25  35  49  70  99 136 171 201 238
#     4   9  14  18  24  36  58  90 129 171 208 237
#     4   9  17  27  40  57  78 104 134 167 199 233
#     4   8  14  23  35  53  76 101 128 157 190 231
#     4   8  13  19  27  42  65  94 128 163 196 229
#     4   8  14  23  35  54  76  99 127 158 191 224
#
# _framework density 19.365970000000001
#
# number of rings (size 3 to 8) (size 9 to 14) (size 15 to 20)
#    0.000    3.400    0.667    1.200    1.867    1.600 
#    0.000    0.000    0.000    0.800    0.000    0.000 
#    0.000    0.533    0.000    6.667    0.000    2.800 
#
# Total GULP energy -334393.907409 kJ/mol
# GULP energy per Si atom -5573.231790 kJ/mol
# Density = 1.932189 g / cm^3
# Si number density = 19.365970 Si / 1000 Ang^3
#
#
#
# Elastic Constant Matrix: (Units=GPa)
#
#
# Indices 1 2 3 4 5 6 
#
# 1 154.0480 2.0787 76.2640 0.0000 0.0000 0.0000
# 2 2.0787 77.8025 1.7232 0.0000 0.0000 0.0000
# 3 76.2640 1.7232 92.8243 0.0000 0.0000 0.0000
# 4 0.0000 0.0000 0.0000 4.5557 0.0000 0.0000
# 5 0.0000 0.0000 0.0000 0.0000 28.2047 0.0000
# 6 0.0000 0.0000 0.0000 0.0000 0.0000 -330.3028
#
#
#
# Elastic Compliance Matrix: (Units=1/GPa)
#
#
# Indices 1 2 3 4 5 6 
#
# 1 0.010943 -0.000093 -0.008989 0.000000 0.000000 0.000000
# 2 -0.000093 0.012859 -0.000162 0.000000 0.000000 0.000000
# 3 -0.008989 -0.000162 0.018161 0.000000 0.000000 0.000000
# 4 0.000000 0.000000 0.000000 0.219504 0.000000 0.000000
# 5 0.000000 0.000000 0.000000 0.000000 0.035455 0.000000
# 6 0.000000 0.000000 0.000000 0.000000 0.000000 -0.003028
#
#
# Mechanical properties :
#
#
# Convention : Reuss Voigt Hill
#
# Bulk Modulus (GPa) = 42.59887 53.86741 48.23314
# Shear Modulus (GPa) = 15.61486 -43.20122 -13.79318
#
# Velocity S-wave (km/s) = 2.84263 -4.72824 -2.67167
# Velocity P-wave (km/s) = 5.72875 1.39012 3.92977
#
# Compressibility (1/GPa) = 0.02347480
#
# Stress axis : x y z
#
# Youngs Moduli (GPa) = 91.38422 77.76566 55.06234
#
# Poissons Ratio (x) = 0.00725 0.49495
# Poissons Ratio (y) = 0.00852 0.00892
# Poissons Ratio (z) = 0.82144 0.01260
#
# Static dielectric constant tensor:
#      x y z
#    x 1.696560 0.000000 0.000000 
#    y 0.000000 1.825130 0.000000 
#    z 0.000000 0.000000 1.666320 
# 
# From -- ./inp_files/67228.got.cif
#   From: 2010.05.17/outbox.cif.g08.bks.cpg/sg71_34_cif.got.tgz:67228.got - 2010.06.03 16:22:01.
