data_PCOD9524880
_publ_section_title
;
Structure prediction by ZEFSAII (Michael W. Deem and Ramdas Pophale) SiO2 
 PCOD9524880
Probable space group: I M M M
;
_chemical_formula_sum "Si O2"
_cell_formula_units_Z 36
_cell_length_a 15.000000
_cell_length_b 18.000000
_cell_length_c 15.000000
_cell_angle_alpha 90.000000
_cell_angle_beta 90.000000
_cell_angle_gamma 90.000000
_cell_volume 4050.000000
_symmetry_space_group_name_H-M "I M M M"
_symmetry_group_IT_number 71
_symmetry_cell_setting 'orthorhombic'
loop_
_space_group_symop_operation_xyz
x,y,z
-x,-y,z
x,-y,-z
-x,y,-z
-x,-y,-z
x,y,-z
-x,y,z
x,-y,z
1/2+x,1/2+y,1/2+z
1/2-x,1/2-y,1/2+z
1/2+x,1/2-y,1/2-z
1/2-x,1/2+y,1/2-z
1/2-x,1/2-y,1/2-z
1/2+x,1/2+y,1/2-z
1/2-x,1/2+y,1/2+z
1/2+x,1/2-y,1/2+z
loop_
_atom_site_type_symbol
_atom_site_label
_atom_site_fract_x
_atom_site_fract_y
_atom_site_fract_z
Si Si1 0.394775 0.765245 0.106148
Si Si2 0.394537 0.089274 0.778976
Si Si3 0.106658 0.089486 0.896109
Si Si4 0.701145 0.634667 0.213744
Si Si5 0.107078 0.000000 0.607520
O O1 0.500000 0.743140 0.118813
O O2 0.388502 0.851138 0.139593
O O3 0.330770 0.711966 0.166433
O O4 0.375242 0.758898 0.000000
O O5 0.500000 0.096439 0.746796
O O6 0.308078 0.115729 0.719525
O O7 0.382641 0.000000 0.797965
O O8 0.161707 0.127433 0.815375
O O9 0.000000 0.103502 0.884833
O O10 0.119676 0.000000 0.888025
O O11 0.129623 0.109534 0.000000
O O12 0.652231 0.571189 0.154590
O O13 0.120693 0.000000 0.500000
O O14 0.000000 0.000000 0.623469
#
# Coordination Sequence:
#
# PCOD9524880 Si02
#       5
#    16  16  16  16   8
#     4  10  22  39  62  94 128 160 199 255 318 375
#     4  10  22  41  62  85 116 162 218 264 302 352
#     4   9  17  29  48  79 119 161 202 241 291 361
#     4  12  20  36  60  90 125 161 205 252 311 372
#     4  11  22  34  56  92 130 165 198 238 298 376
#
# _framework density 8.8888890000000007
#
# number of rings (size 3 to 8) (size 9 to 14) (size 15 to 20)
#    0.000    1.667    2.222    4.000    0.000    3.111 
#    0.000    2.222    0.000    3.333    0.000    3.111 
#    0.000    0.000    0.000    0.000    0.000    0.000 
#
# Total GULP energy -200734.125647 kJ/mol
# GULP energy per Si atom -5575.947935 kJ/mol
# Density = 0.886866 g / cm^3
# Si number density = 8.888889 Si / 1000 Ang^3
#
#
#
# Elastic Constant Matrix: (Units=GPa)
#
#
# Indices 1 2 3 4 5 6 
#
# 1 136.1506 38.2829 57.7832 0.0000 0.0000 0.0000
# 2 38.2829 113.7413 39.7601 0.0000 0.0000 0.0000
# 3 57.7832 39.7601 124.5526 0.0000 0.0000 0.0000
# 4 0.0000 0.0000 0.0000 31.7940 0.0000 0.0000
# 5 0.0000 0.0000 0.0000 0.0000 28.6513 0.0000
# 6 0.0000 0.0000 0.0000 0.0000 0.0000 31.7262
#
#
#
# Elastic Compliance Matrix: (Units=1/GPa)
#
#
# Indices 1 2 3 4 5 6 
#
# 1 0.009483 -0.001862 -0.003805 0.000000 0.000000 0.000000
# 2 -0.001862 0.010262 -0.002412 0.000000 0.000000 0.000000
# 3 -0.003805 -0.002412 0.010564 0.000000 0.000000 0.000000
# 4 0.000000 0.000000 0.000000 0.031452 0.000000 0.000000
# 5 0.000000 0.000000 0.000000 0.000000 0.034902 0.000000
# 6 0.000000 0.000000 0.000000 0.000000 0.000000 0.031520
#
#
# Mechanical properties :
#
#
# Convention : Reuss Voigt Hill
#
# Bulk Modulus (GPa) = 70.66642 71.78857 71.22750
# Shear Modulus (GPa) = 33.54386 34.34218 33.94302
#
# Velocity S-wave (km/s) = 4.34849 4.39993 4.37429
# Velocity P-wave (km/s) = 8.06528 8.14133 8.10339
#
# Compressibility (1/GPa) = 0.01415099
#
# Stress axis : x y z
#
# Youngs Moduli (GPa) = 105.44913 97.45010 94.66041
#
# Poissons Ratio (x) = 0.18142 0.36021
# Poissons Ratio (y) = 0.19631 0.22833
# Poissons Ratio (z) = 0.40126 0.23506
#
# Static dielectric constant tensor:
#      x y z
#    x 1.641380 0.000000 0.000000 
#    y 0.000000 1.629610 0.000000 
#    z 0.000000 0.000000 1.599130 
# 
# From -- ./inp_files/34047.got.cif
#   From: 2010.05.17/outbox.ucp.g08.bks.cvg/sg71_18_cif.got.tgz:34047.got - 2010.06.11 16:29:00.
