data_PCOD9524508
_publ_section_title
;
Structure prediction by ZEFSAII (Michael W. Deem and Ramdas Pophale) SiO2 
 PCOD9524508
Probable space group: I M M M
;
_chemical_formula_sum "Si O2"
_cell_formula_units_Z 80
_cell_length_a 27.072776
_cell_length_b 20.205512
_cell_length_c 7.455674
_cell_angle_alpha 90.000000
_cell_angle_beta 90.000000
_cell_angle_gamma 90.000000
_cell_volume 4078.397575
_symmetry_space_group_name_H-M "I M M M"
_symmetry_group_IT_number 71
_symmetry_cell_setting 'orthorhombic'
loop_
_space_group_symop_operation_xyz
x,y,z
-x,-y,z
x,-y,-z
-x,y,-z
-x,-y,-z
x,y,-z
-x,y,z
x,-y,z
1/2+x,1/2+y,1/2+z
1/2-x,1/2-y,1/2+z
1/2+x,1/2-y,1/2-z
1/2-x,1/2+y,1/2-z
1/2-x,1/2-y,1/2-z
1/2+x,1/2+y,1/2-z
1/2-x,1/2+y,1/2+z
1/2+x,1/2-y,1/2+z
loop_
_atom_site_type_symbol
_atom_site_label
_atom_site_fract_x
_atom_site_fract_y
_atom_site_fract_z
Si Si1 0.944006 0.174273 0.781203
Si Si2 0.642137 0.576512 0.719886
Si Si3 0.249810 0.419442 0.292537
Si Si4 0.356848 0.074856 0.785762
Si Si5 0.444962 0.175007 0.715004
O O1 0.901956 0.123867 0.721210
O O2 0.934543 0.249968 0.723192
O O3 0.000000 0.156385 0.727530
O O4 0.943316 0.173638 0.000000
O O5 0.643331 0.577040 0.500000
O O6 0.634421 0.500000 0.772213
O O7 0.696671 0.599096 0.783265
O O8 0.250497 0.397293 0.500000
O O9 0.249425 0.500000 0.291693
O O10 0.196504 0.400448 0.214115
O O11 0.402090 0.123656 0.756724
O O12 0.366539 0.000000 0.718956
O O13 0.350386 0.069796 0.000000
O O14 0.447513 0.178264 0.500000
O O15 0.500000 0.155669 0.779607
#
# Coordination Sequence:
#
# PCOD9524508 Si02
#       5
#    16  16  16  16  16
#     4   8  14  24  36  52  79 113 141 164 196 238
#     4   8  12  19  35  58  81 106 136 167 198 235
#     4   7  11  21  36  55  79 103 126 158 204 247
#     4   9  17  29  45  63  81 102 133 174 210 238
#     4   9  18  31  43  56  81 115 140 160 198 250
#
# _framework density 19.615545999999998
#
# number of rings (size 3 to 8) (size 9 to 14) (size 15 to 20)
#    0.000    3.800    0.000    3.600    0.000    1.600 
#    0.000    5.000    0.000    0.000    0.000    0.000 
#    0.000    2.400    0.000    4.400    0.000    4.400 
#
# Total GULP energy -222694.828988 kJ/mol
# GULP energy per Si atom -5567.370725 kJ/mol
# Density = 1.957090 g / cm^3
# Si number density = 19.615546 Si / 1000 Ang^3
#
#
#
# Elastic Constant Matrix: (Units=GPa)
#
#
# Indices 1 2 3 4 5 6 
#
# 1 251.0905 129.5925 7.8439 0.0000 0.0000 0.0000
# 2 129.5925 94.6310 4.4193 0.0000 0.0000 0.0000
# 3 7.8439 4.4193 56.4318 0.0000 0.0000 0.0000
# 4 0.0000 0.0000 0.0000 0.7327 0.0000 0.0000
# 5 0.0000 0.0000 0.0000 0.0000 -0.9875 0.0000
# 6 0.0000 0.0000 0.0000 0.0000 0.0000 -34.1830
#
#
#
# Elastic Compliance Matrix: (Units=1/GPa)
#
#
# Indices 1 2 3 4 5 6 
#
# 1 0.013594 -0.018596 -0.000433 0.000000 0.000000 0.000000
# 2 -0.018596 0.036044 -0.000238 0.000000 0.000000 0.000000
# 3 -0.000433 -0.000238 0.017799 0.000000 0.000000 0.000000
# 4 0.000000 0.000000 0.000000 1.364798 0.000000 0.000000
# 5 0.000000 0.000000 0.000000 0.000000 -1.012682 0.000000
# 6 0.000000 0.000000 0.000000 0.000000 0.000000 -0.029254
#
#
# Mechanical properties :
#
#
# Convention : Reuss Voigt Hill
#
# Bulk Modulus (GPa) = 34.59760 76.20719 55.40239
# Shear Modulus (GPa) = 11.40334 10.46562 10.93448
#
# Velocity S-wave (km/s) = 2.41372 2.31235 2.36358
# Velocity P-wave (km/s) = 5.04422 6.78705 5.97947
#
# Compressibility (1/GPa) = 0.02890374
#
# Stress axis : x y z
#
# Youngs Moduli (GPa) = 73.56294 27.74349 56.18177
#
# Poissons Ratio (x) = 0.51591 0.02434
# Poissons Ratio (y) = 1.36796 0.01337
# Poissons Ratio (z) = 0.03187 0.00660
#
# Static dielectric constant tensor:
#      x y z
#    x 1.727040 0.000000 0.000000 
#    y 0.000000 1.645230 0.000000 
#    z 0.000000 0.000000 1.808330 
# 
# From -- ./inp_files/8620.got.cif
#   From: 2010.05.17/outbox.cif.g08.bks.cpg/sg71_5_cif.got.tgz:8620.got - 2010.06.03 16:22:01.
