data_PCOD9524325
_publ_section_title
;
Structure prediction by ZEFSAII (Michael W. Deem and Ramdas Pophale) SiO2 
 PCOD9524325
Probable space group: I M M M
;
_chemical_formula_sum "Si O2"
_cell_formula_units_Z 68
_cell_length_a 11.283437
_cell_length_b 19.273182
_cell_length_c 14.648349
_cell_angle_alpha 90.000000
_cell_angle_beta 90.000000
_cell_angle_gamma 90.000000
_cell_volume 3185.543277
_symmetry_space_group_name_H-M "I M M M"
_symmetry_group_IT_number 71
_symmetry_cell_setting 'orthorhombic'
loop_
_space_group_symop_operation_xyz
x,y,z
-x,-y,z
x,-y,-z
-x,y,-z
-x,-y,-z
x,y,-z
-x,y,z
x,-y,z
1/2+x,1/2+y,1/2+z
1/2-x,1/2-y,1/2+z
1/2+x,1/2-y,1/2-z
1/2-x,1/2+y,1/2-z
1/2-x,1/2-y,1/2-z
1/2+x,1/2+y,1/2-z
1/2-x,1/2+y,1/2+z
1/2+x,1/2-y,1/2+z
loop_
_atom_site_type_symbol
_atom_site_label
_atom_site_fract_x
_atom_site_fract_y
_atom_site_fract_z
Si Si1 0.741236 0.642286 0.000000
Si Si2 0.500000 0.865702 0.500000
Si Si3 0.862559 0.287624 0.500000
Si Si4 0.272562 0.133046 0.175896
Si Si5 0.362067 0.580487 0.825855
Si Si6 0.000000 0.582529 0.209334
Si Si7 0.363636 0.500000 0.606597
O O1 0.717766 0.595077 0.087120
O O2 0.649915 0.705157 0.000000
O O3 0.873953 0.672675 0.000000
O O4 0.500000 0.904041 0.599486
O O5 0.803105 0.314846 0.405739
O O6 0.000000 0.310001 0.500000
O O7 0.170725 0.140941 0.253289
O O8 0.386970 0.114649 0.237454
O O9 0.216454 0.066208 0.127606
O O10 0.500000 0.584067 0.849249
O O11 0.337914 0.500000 0.795656
O O12 0.000000 0.500000 0.223234
O O13 0.500000 0.500000 0.646296
O O14 0.381830 0.500000 0.500000
#
# Coordination Sequence:
#
# PCOD9524325 Si02
#       7
#     8   4   8  16  16   8   8
#     4  12  27  49  68  94 138 183 227 286 345 402
#     4  12  27  48  64 104 136 171 232 290 336 430
#     4  12  28  48  68  96 139 183 238 276 331 423
#     4  12  23  41  68 103 136 178 222 284 340 410
#     4  11  23  43  73 106 134 171 228 285 345 410
#     4  12  23  41  74 101 139 174 215 286 359 403
#     4  11  22  39  65 101 144 183 232 289 345 403
#
# _framework density 21.346437999999999
#
# number of rings (size 3 to 8) (size 9 to 14) (size 15 to 20)
#    0.000    0.353    7.059    2.294    0.000    2.824 
#    4.235    1.765    0.000    0.000    0.000    0.000 
#    0.000    0.000    0.000    0.000    0.000    0.000 
#
# Total GULP energy -189521.188877 kJ/mol
# GULP energy per Si atom -5574.152614 kJ/mol
# Density = 2.129785 g / cm^3
# Si number density = 21.346438 Si / 1000 Ang^3
#
#
#
# Elastic Constant Matrix: (Units=GPa)
#
#
# Indices 1 2 3 4 5 6 
#
# 1 109.3187 9.0697 22.6504 0.0000 0.0000 0.0000
# 2 9.0697 39.7866 15.2707 0.0000 0.0000 0.0000
# 3 22.6504 15.2707 131.4980 0.0001 0.0000 0.0000
# 4 0.0000 0.0000 0.0001 29.5550 0.0000 0.0000
# 5 0.0000 0.0000 0.0000 0.0000 43.3533 0.0000
# 6 0.0000 0.0000 0.0000 0.0000 0.0000 26.9624
#
#
#
# Elastic Compliance Matrix: (Units=1/GPa)
#
#
# Indices 1 2 3 4 5 6 
#
# 1 0.009585 -0.001624 -0.001462 0.000000 0.000000 0.000000
# 2 -0.001624 0.026582 -0.002807 0.000000 0.000000 0.000000
# 3 -0.001462 -0.002807 0.008183 0.000000 0.000000 0.000000
# 4 0.000000 0.000000 0.000000 0.033835 0.000000 0.000000
# 5 0.000000 0.000000 0.000000 0.000000 0.023066 0.000000
# 6 0.000000 0.000000 0.000000 0.000000 0.000000 0.037089
#
#
# Mechanical properties :
#
#
# Convention : Reuss Voigt Hill
#
# Bulk Modulus (GPa) = 30.70999 41.62054 36.16527
# Shear Modulus (GPa) = 31.05959 35.54830 33.30394
#
# Velocity S-wave (km/s) = 3.81862 4.08524 3.95418
# Velocity P-wave (km/s) = 5.81895 6.46469 6.15030
#
# Compressibility (1/GPa) = 0.03256269
#
# Stress axis : x y z
#
# Youngs Moduli (GPa) = 104.32639 37.61994 122.21069
#
# Poissons Ratio (x) = 0.06108 0.17873
# Poissons Ratio (y) = 0.16940 0.34307
# Poissons Ratio (z) = 0.15258 0.10561
#
# Static dielectric constant tensor:
#      x y z
#    x 1.895810 0.000000 0.000000 
#    y 0.000000 1.727710 0.000000 
#    z 0.000000 0.000000 1.863600 
# 
# From -- ./inp_files/32510.got.cif
#   From: 2010.05.17/outbox.cif.g08.bks.cpg/sg71_17_cif.got.tgz:32510.got - 2010.06.03 16:22:01.
