data_PCOD9524184
_publ_section_title
;
Structure prediction by ZEFSAII (Michael W. Deem and Ramdas Pophale) SiO2 
 PCOD9524184
Probable space group: I M M M
;
_chemical_formula_sum "Si O2"
_cell_formula_units_Z 56
_cell_length_a 14.583031
_cell_length_b 7.490855
_cell_length_c 26.635607
_cell_angle_alpha 90.000000
_cell_angle_beta 90.000000
_cell_angle_gamma 90.000000
_cell_volume 2909.656946
_symmetry_space_group_name_H-M "I M M M"
_symmetry_group_IT_number 71
_symmetry_cell_setting 'orthorhombic'
loop_
_space_group_symop_operation_xyz
x,y,z
-x,-y,z
x,-y,-z
-x,y,-z
-x,-y,-z
x,y,-z
-x,y,z
x,-y,z
1/2+x,1/2+y,1/2+z
1/2-x,1/2-y,1/2+z
1/2+x,1/2-y,1/2-z
1/2-x,1/2+y,1/2-z
1/2-x,1/2-y,1/2-z
1/2+x,1/2+y,1/2-z
1/2-x,1/2+y,1/2+z
1/2+x,1/2-y,1/2+z
loop_
_atom_site_type_symbol
_atom_site_label
_atom_site_fract_x
_atom_site_fract_y
_atom_site_fract_z
Si Si1 0.106776 0.000000 0.939983
Si Si2 0.895499 0.217675 0.669557
Si Si3 0.107596 0.215138 0.783099
Si Si4 0.216416 0.702811 0.118481
O O1 0.158016 0.829443 0.917034
O O2 0.000000 0.000000 0.924157
O O3 0.110702 0.000000 0.000000
O O4 0.869856 0.273742 0.726353
O O5 0.818983 0.272130 0.629832
O O6 0.000000 0.273821 0.659489
O O7 0.895026 0.000000 0.670241
O O8 0.167923 0.296012 0.826930
O O9 0.000000 0.255189 0.791159
O O10 0.117713 0.000000 0.785681
O O11 0.219973 0.500000 0.099690
#
# Coordination Sequence:
#
# PCOD9524184 Si02
#       4
#     8  16  16  16
#     4  11  26  46  63  81 109 143 184 242 300 341
#     4   8  16  31  52  82 120 158 189 221 266 327
#     4   9  16  29  50  78 118 159 188 220 269 329
#     4  11  21  35  60  85 110 148 192 233 279 336
#
# _framework density 19.246255999999999
#
# number of rings (size 3 to 8) (size 9 to 14) (size 15 to 20)
#    0.000    2.429    1.429    3.429    0.000    2.857 
#    2.571    2.143    0.000    1.714    0.000    4.000 
#    0.000    0.000    0.000    0.000    0.000    0.000 
#
# Total GULP energy -156409.824140 kJ/mol
# GULP energy per Si atom -5586.065148 kJ/mol
# Density = 1.920245 g / cm^3
# Si number density = 19.246256 Si / 1000 Ang^3
#
#
#
# Elastic Constant Matrix: (Units=GPa)
#
#
# Indices 1 2 3 4 5 6 
#
# 1 100.1293 36.0882 60.4149 0.0000 0.0000 0.0000
# 2 36.0882 77.3167 28.4285 0.0000 0.0000 0.0000
# 3 60.4149 28.4285 60.8655 0.0000 0.0000 0.0000
# 4 0.0000 0.0000 0.0000 -7.4446 0.0000 0.0000
# 5 0.0000 0.0000 0.0000 0.0000 28.6419 0.0000
# 6 0.0000 0.0000 0.0000 0.0000 0.0000 14.6345
#
#
#
# Elastic Compliance Matrix: (Units=1/GPa)
#
#
# Indices 1 2 3 4 5 6 
#
# 1 0.025514 -0.003136 -0.023860 0.000000 0.000000 0.000000
# 2 -0.003136 0.016001 -0.004361 0.000000 0.000000 0.000000
# 3 -0.023860 -0.004361 0.042150 0.000000 0.000000 0.000000
# 4 0.000000 0.000000 0.000000 -0.134325 0.000000 0.000000
# 5 0.000000 0.000000 0.000000 0.000000 0.034914 0.000000
# 6 0.000000 0.000000 0.000000 0.000000 0.000000 0.068332
#
#
# Mechanical properties :
#
#
# Convention : Reuss Voigt Hill
#
# Bulk Modulus (GPa) = 47.73088 54.24164 50.98626
# Shear Modulus (GPa) = 40.88841 14.72501 27.80671
#
# Velocity S-wave (km/s) = 4.61422 2.76902 3.80516
# Velocity P-wave (km/s) = 7.29671 6.20221 6.77161
#
# Compressibility (1/GPa) = 0.02095080
#
# Stress axis : x y z
#
# Youngs Moduli (GPa) = 39.19440 62.49635 23.72455
#
# Poissons Ratio (x) = 0.19596 0.56608
# Poissons Ratio (y) = 0.12290 0.10347
# Poissons Ratio (z) = 0.93520 0.27256
#
# Static dielectric constant tensor:
#      x y z
#    x 1.697560 0.000000 0.000000 
#    y 0.000000 1.672940 0.000000 
#    z 0.000000 0.000000 1.623920 
# 
# From -- ./inp_files/5325.got.cif
#   From: 2010.05.17/outbox.cif.g08.bks.cpg/sg71_3_cif.got.tgz:5325.got - 2010.06.03 16:22:01.
