data_PCOD9524945
_publ_section_title
;
Structure prediction by ZEFSAII (Michael W. Deem and Ramdas Pophale) SiO2 
 PCOD9524945
Probable space group: I B A M
;
_chemical_formula_sum "Si O2"
_cell_formula_units_Z 88
_cell_length_a 5.167103
_cell_length_b 26.077178
_cell_length_c 27.976966
_cell_angle_alpha 90.000000
_cell_angle_beta 90.000000
_cell_angle_gamma 90.000000
_cell_volume 3769.713330
_symmetry_space_group_name_H-M "I B A M"
_symmetry_group_IT_number 72
_symmetry_cell_setting 'orthorhombic'
loop_
_space_group_symop_operation_xyz
x,y,z
-x,-y,z
x,-y,1/2-z
-x,y,1/2-z
-x,-y,-z
x,y,-z
-x,y,1/2+z
x,-y,1/2+z
1/2+x,1/2+y,1/2+z
1/2-x,1/2-y,1/2+z
1/2+x,1/2-y,-z
1/2-x,1/2+y,-z
1/2-x,1/2-y,1/2-z
1/2+x,1/2+y,1/2-z
1/2-x,1/2+y,z
1/2+x,1/2-y,z
loop_
_atom_site_type_symbol
_atom_site_label
_atom_site_fract_x
_atom_site_fract_y
_atom_site_fract_z
Si Si1 0.000000 0.840995 0.750000
Si Si2 0.744486 0.462510 0.000000
Si Si3 0.042037 0.062395 0.098393
Si Si4 0.384829 0.282957 0.848123
Si Si5 0.500000 0.091912 0.250000
Si Si6 0.511570 0.285416 0.051587
Si Si7 0.531828 0.059288 0.146317
O O1 0.933729 0.809606 0.702238
O O2 0.252739 0.873830 0.738392
O O3 0.500000 0.500000 0.000000
O O4 0.690261 0.430197 0.952053
O O5 0.000000 0.500000 0.000000
O O6 0.250526 0.081884 0.136315
O O7 0.758148 0.081483 0.113151
O O8 0.000000 0.000000 0.102029
O O9 0.087806 0.264610 0.849525
O O10 0.457733 0.312058 0.897668
O O11 0.585415 0.061890 0.202502
O O12 0.295497 0.239978 0.051892
O O13 0.477752 0.312528 0.000000
O O14 0.500000 0.000000 0.132720
#
# Coordination Sequence:
#
# PCOD9524945 Si02
#       7
#     8   8  16  16   8  16  16
#     4  12  24  37  53  80 109 148 185 222 285 331
#     4  10  16  26  46  80 116 136 160 216 286 348
#     4   9  17  29  50  79 106 132 167 218 278 333
#     4  10  19  34  56  81 111 142 178 221 264 326
#     4  12  25  39  54  76 105 144 189 238 280 331
#     4   8  14  25  45  76 106 130 164 211 256 299
#     4  10  20  36  55  76 102 139 186 235 283 330
#
# _framework density 23.343952000000002
#
# number of rings (size 3 to 8) (size 9 to 14) (size 15 to 20)
#    0.000    2.182    0.000    5.727    0.000    0.000 
#    0.000    3.636    0.000    0.000   14.182    0.000 
#    0.000    0.000    0.000    0.000    0.000    0.000 
#
# Total GULP energy -245240.470481 kJ/mol
# GULP energy per Si atom -5573.647056 kJ/mol
# Density = 2.329082 g / cm^3
# Si number density = 23.343952 Si / 1000 Ang^3
#
#
#
# Elastic Constant Matrix: (Units=GPa)
#
#
# Indices 1 2 3 4 5 6 
#
# 1 139.0465 21.3796 35.6232 0.0000 0.0000 0.0000
# 2 21.3796 28.7894 20.1057 0.0000 0.0000 0.0000
# 3 35.6232 20.1057 188.9556 0.0000 0.0000 0.0000
# 4 0.0000 0.0000 0.0000 -28.9422 0.0000 0.0000
# 5 0.0000 0.0000 0.0000 0.0000 36.3022 0.0000
# 6 0.0000 0.0000 0.0000 0.0000 0.0000 21.2431
#
#
#
# Elastic Compliance Matrix: (Units=1/GPa)
#
#
# Indices 1 2 3 4 5 6 
#
# 1 0.008284 -0.005467 -0.000980 0.000000 0.000000 0.000000
# 2 -0.005467 0.041132 -0.003346 0.000000 0.000000 0.000000
# 3 -0.000980 -0.003346 0.005833 0.000000 0.000000 0.000000
# 4 0.000000 0.000000 0.000000 -0.034552 0.000000 0.000000
# 5 0.000000 0.000000 0.000000 0.000000 0.027547 0.000000
# 6 0.000000 0.000000 0.000000 0.000000 0.000000 0.047074
#
#
# Mechanical properties :
#
#
# Convention : Reuss Voigt Hill
#
# Bulk Modulus (GPa) = 28.04084 56.77871 42.40978
# Shear Modulus (GPa) = 39.43513 24.36617 31.90065
#
# Velocity S-wave (km/s) = 4.11458 3.23428 3.70070
# Velocity P-wave (km/s) = 5.88312 6.19055 6.03879
#
# Compressibility (1/GPa) = 0.03566227
#
# Stress axis : x y z
#
# Youngs Moduli (GPa) = 120.72164 24.31216 171.43816
#
# Poissons Ratio (x) = 0.13292 0.16800
# Poissons Ratio (y) = 0.66000 0.57361
# Poissons Ratio (z) = 0.11830 0.08135
#
# Static dielectric constant tensor:
#      x y z
#    x 1.834390 0.000000 0.000000 
#    y 0.000000 1.903120 0.000000 
#    z 0.000000 0.000000 1.999840 
# 
# From -- ./inp_files/46788.got.cif
#   From: 2010.05.17/outbox.cif.g08.bks.cpg/sg72_24_cif.got.tgz:46788.got - 2010.06.03 17:03:01.
