data_PCOD9524777
_publ_section_title
;
Structure prediction by ZEFSAII (Michael W. Deem and Ramdas Pophale) SiO2 
 PCOD9524777
Probable space group: I M M M
;
_chemical_formula_sum "Si O2"
_cell_formula_units_Z 60
_cell_length_a 27.000000
_cell_length_b 27.000000
_cell_length_c 9.000000
_cell_angle_alpha 90.000000
_cell_angle_beta 90.000000
_cell_angle_gamma 90.000000
_cell_volume 6561.000000
_symmetry_space_group_name_H-M "I M M M"
_symmetry_group_IT_number 71
_symmetry_cell_setting 'orthorhombic'
loop_
_space_group_symop_operation_xyz
x,y,z
-x,-y,z
x,-y,-z
-x,y,-z
-x,-y,-z
x,y,-z
-x,y,z
x,-y,z
1/2+x,1/2+y,1/2+z
1/2-x,1/2-y,1/2+z
1/2+x,1/2-y,1/2-z
1/2-x,1/2+y,1/2-z
1/2-x,1/2-y,1/2-z
1/2+x,1/2+y,1/2-z
1/2-x,1/2+y,1/2+z
1/2+x,1/2-y,1/2+z
loop_
_atom_site_type_symbol
_atom_site_label
_atom_site_fract_x
_atom_site_fract_y
_atom_site_fract_z
Si Si1 0.309638 0.943023 0.826570
Si Si2 0.360652 0.857761 0.671864
Si Si3 0.611777 0.400491 0.322600
Si Si4 0.607115 0.699841 0.825462
Si Si5 0.294619 0.558391 0.175169
Si Si6 0.943528 0.000000 0.819044
Si Si7 0.057550 0.697680 0.332235
Si Si8 0.697122 0.756981 0.323580
O O1 0.349964 0.904079 0.775409
O O2 0.260954 0.932895 0.729187
O O3 0.324559 0.000000 0.801930
O O4 0.297295 0.937440 0.000000
O O5 0.357361 0.871893 0.500000
O O6 0.412745 0.833557 0.713044
O O7 0.321877 0.813155 0.700613
O O8 0.610095 0.397775 0.500000
O O9 0.591183 0.350603 0.252059
O O10 0.667593 0.408271 0.266176
O O11 0.583223 0.449799 0.271291
O O12 0.568178 0.744307 0.807457
O O13 0.657169 0.720551 0.750596
O O14 0.615325 0.691389 0.000000
O O15 0.305212 0.500000 0.204570
O O16 0.299587 0.567273 0.000000
O O17 0.000000 0.000000 0.770473
O O18 0.942352 0.000000 0.000000
O O19 0.076669 0.686841 0.500000
O O20 0.000000 0.687464 0.327568
O O21 0.698769 0.748195 0.500000
O O22 0.750000 0.750000 0.250000
#
# Coordination Sequence:
#
# PCOD9524777 Si02
#       8
#    16  16  16  16  16   8  16  16
#     4  10  21  36  56  83 115 152 192 226 265 323
#     4  10  21  36  56  84 116 148 185 228 277 329
#     4  11  21  35  55  77 105 142 185 233 283 339
#     4  10  21  36  54  79 110 142 181 230 281 331
#     4  10  20  34  53  76 106 143 184 228 275 324
#     4   9  20  38  57  77 103 139 185 237 290 341
#     4   9  19  38  62  84 109 144 185 228 277 334
#     4  10  21  36  53  77 110 148 187 225 273 332
#
# _framework density 9.1449470000000002
#
# number of rings (size 3 to 8) (size 9 to 14) (size 15 to 20)
#    0.000    2.067    0.667    2.400    1.867    4.267 
#    0.000    0.000    0.000    3.200    0.000    2.800 
#    0.000    0.000    0.000    0.000    0.000    0.000 
#
# Total GULP energy -334892.901390 kJ/mol
# GULP energy per Si atom -5581.548357 kJ/mol
# Density = 0.912413 g / cm^3
# Si number density = 9.144947 Si / 1000 Ang^3
#
#
#
# Elastic Constant Matrix: (Units=GPa)
#
#
# Indices 1 2 3 4 5 6 
#
# 1 41.0489 18.0396 17.6368 0.0000 0.0000 0.0000
# 2 18.0396 59.5306 29.4155 0.0000 0.0000 0.0000
# 3 17.6368 29.4155 49.1063 0.0000 0.0000 0.0000
# 4 0.0000 0.0000 0.0000 32.9527 0.0000 0.0000
# 5 0.0000 0.0000 0.0000 0.0000 15.3719 0.0000
# 6 0.0000 0.0000 0.0000 0.0000 0.0000 -3.3422
#
#
#
# Elastic Compliance Matrix: (Units=1/GPa)
#
#
# Indices 1 2 3 4 5 6 
#
# 1 0.029957 -0.005343 -0.007559 0.000000 0.000000 0.000000
# 2 -0.005343 0.024813 -0.012945 0.000000 0.000000 0.000000
# 3 -0.007559 -0.012945 0.030833 0.000000 0.000000 0.000000
# 4 0.000000 0.000000 0.000000 0.030347 0.000000 0.000000
# 5 0.000000 0.000000 0.000000 0.000000 0.065054 0.000000
# 6 0.000000 0.000000 0.000000 0.000000 0.000000 -0.299202
#
#
# Mechanical properties :
#
#
# Convention : Reuss Voigt Hill
#
# Bulk Modulus (GPa) = 29.48941 31.09662 30.29301
# Shear Modulus (GPa) = -90.57481 14.63608 -37.96937
#
# Velocity S-wave (km/s) = -7.04481 2.83190 -4.56123
# Velocity P-wave (km/s) = 7.07206 5.26610 3.33783
#
# Compressibility (1/GPa) = 0.03391048
#
# Stress axis : x y z
#
# Youngs Moduli (GPa) = 33.38138 40.30080 32.43301
#
# Poissons Ratio (x) = 0.21532 0.24515
# Poissons Ratio (y) = 0.17835 0.41984
# Poissons Ratio (z) = 0.25232 0.52168
#
# Static dielectric constant tensor:
#      x y z
#    x 1.614860 0.000000 0.000000 
#    y 0.000000 1.634230 0.000000 
#    z 0.000000 0.000000 1.617500 
# 
# From -- ./inp_files/15668.got.cif
#   From: 2010.05.17/outbox.ucp.g08.bks.cvg/sg71_8_cif.got.tgz:15668.got - 2010.06.11 16:29:00.
