data_PCOD9524000
_publ_section_title
;
Structure prediction by ZEFSAII (Michael W. Deem and Ramdas Pophale) SiO2 
 PCOD9524000
Probable space group: I M M M
;
_chemical_formula_sum "Si O2"
_cell_formula_units_Z 88
_cell_length_a 31.323355
_cell_length_b 8.715224
_cell_length_c 24.858069
_cell_angle_alpha 90.000000
_cell_angle_beta 90.000000
_cell_angle_gamma 90.000000
_cell_volume 6786.005630
_symmetry_space_group_name_H-M "I M M M"
_symmetry_group_IT_number 71
_symmetry_cell_setting 'orthorhombic'
loop_
_space_group_symop_operation_xyz
x,y,z
-x,-y,z
x,-y,-z
-x,y,-z
-x,-y,-z
x,y,-z
-x,y,z
x,-y,z
1/2+x,1/2+y,1/2+z
1/2-x,1/2-y,1/2+z
1/2+x,1/2-y,1/2-z
1/2-x,1/2+y,1/2-z
1/2-x,1/2-y,1/2-z
1/2+x,1/2+y,1/2-z
1/2-x,1/2+y,1/2+z
1/2+x,1/2-y,1/2+z
loop_
_atom_site_type_symbol
_atom_site_label
_atom_site_fract_x
_atom_site_fract_y
_atom_site_fract_z
Si Si1 0.408306 0.316471 0.896156
Si Si2 0.637783 0.818342 0.000000
Si Si3 0.500000 0.687011 0.063023
Si Si4 0.739505 0.817041 0.000000
Si Si5 0.208995 0.683857 0.781243
Si Si6 0.839268 0.315633 0.321401
Si Si7 0.250275 0.185878 0.880741
O O1 0.408148 0.500000 0.894916
O O2 0.382349 0.257720 0.947766
O O3 0.457004 0.264388 0.906363
O O4 0.382137 0.254471 0.845374
O O5 0.688485 0.798271 0.000000
O O6 0.629004 0.000000 0.000000
O O7 0.500000 0.500000 0.061568
O O8 0.500000 0.736581 0.000000
O O9 0.755046 0.758440 0.942053
O O10 0.748141 0.000000 0.000000
O O11 0.211683 0.500000 0.783639
O O12 0.250000 0.750000 0.750000
O O13 0.170433 0.724266 0.740834
O O14 0.214120 0.752385 0.840501
O O15 0.841589 0.500000 0.325797
O O16 0.797196 0.268919 0.356767
O O17 0.249787 0.000000 0.879897
#
# Coordination Sequence:
#
# PCOD9524000 Si02
#       7
#    16   8   8   8  16  16  16
#     4  11  20  30  44  58  71  95 130 162 196 237
#     4  11  19  30  42  53  76 100 124 158 199 237
#     4   9  18  32  42  52  78 102 118 155 206 239
#     4   9  16  27  40  54  77 106 124 149 197 232
#     4   9  17  28  40  54  74  98 121 152 192 225
#     4   9  17  29  42  55  74  98 122 157 199 230
#     4   9  16  27  41  56  76 101 125 151 188 228
#
# _framework density 12.967864000000001
#
# number of rings (size 3 to 8) (size 9 to 14) (size 15 to 20)
#    0.000    2.455    2.727    2.455    0.000    3.636 
#    0.000    2.727    0.000    0.000    0.000    0.000 
#    0.000    0.000    0.000    0.000    0.000    0.909 
#
# Total GULP energy -244956.935429 kJ/mol
# GULP energy per Si atom -5567.203078 kJ/mol
# Density = 1.293835 g / cm^3
# Si number density = 12.967864 Si / 1000 Ang^3
#
#
#
# Elastic Constant Matrix: (Units=GPa)
#
#
# Indices 1 2 3 4 5 6 
#
# 1 52.0585 16.6068 44.4644 0.0000 0.0000 0.0000
# 2 16.6068 15.2643 22.4789 0.0000 0.0000 0.0000
# 3 44.4644 22.4789 111.4094 0.0000 0.0000 0.0000
# 4 0.0000 0.0000 0.0000 20.4997 0.0000 0.0000
# 5 0.0000 0.0000 0.0000 0.0000 16.1806 0.0000
# 6 0.0000 0.0000 0.0000 0.0000 0.0000 14.1162
#
#
#
# Elastic Compliance Matrix: (Units=1/GPa)
#
#
# Indices 1 2 3 4 5 6 
#
# 1 0.034628 -0.024643 -0.008848 0.000000 0.000000 0.000000
# 2 -0.024643 0.110745 -0.012510 0.000000 0.000000 0.000000
# 3 -0.008848 -0.012510 0.015031 0.000000 0.000000 0.000000
# 4 0.000000 0.000000 0.000000 0.048781 0.000000 0.000000
# 5 0.000000 0.000000 0.000000 0.000000 0.061803 0.000000
# 6 0.000000 0.000000 0.000000 0.000000 0.000000 0.070841
#
#
# Mechanical properties :
#
#
# Convention : Reuss Voigt Hill
#
# Bulk Modulus (GPa) = 14.61939 38.42583 26.52261
# Shear Modulus (GPa) = 10.94977 16.50476 13.72727
#
# Velocity S-wave (km/s) = 2.90897 3.57142 3.25708
# Velocity P-wave (km/s) = 4.75193 6.83393 5.88572
#
# Compressibility (1/GPa) = 0.06840229
#
# Stress axis : x y z
#
# Youngs Moduli (GPa) = 28.87861 9.02977 66.52821
#
# Poissons Ratio (x) = 0.22252 0.58864
# Poissons Ratio (y) = 0.71166 0.83223
# Poissons Ratio (z) = 0.25552 0.11296
#
# Static dielectric constant tensor:
#      x y z
#    x 1.408760 0.000000 0.000000 
#    y 0.000000 1.440270 0.000000 
#    z 0.000000 0.000000 1.458080 
# 
# From -- ./inp_files/62257.got.cif
#   From: 2010.05.17/outbox.cif.g08.bks.cpg/sg71_32_cif.got.tgz:62257.got - 2010.06.03 16:22:01.
