data_PCOD9524427
_publ_section_title
;
Structure prediction by ZEFSAII (Michael W. Deem and Ramdas Pophale) SiO2 
 PCOD9524427
Probable space group: I M M M
;
_chemical_formula_sum "Si O2"
_cell_formula_units_Z 80
_cell_length_a 17.937985
_cell_length_b 19.520896
_cell_length_c 11.732449
_cell_angle_alpha 90.000000
_cell_angle_beta 90.000000
_cell_angle_gamma 90.000000
_cell_volume 4108.299335
_symmetry_space_group_name_H-M "I M M M"
_symmetry_group_IT_number 71
_symmetry_cell_setting 'orthorhombic'
loop_
_space_group_symop_operation_xyz
x,y,z
-x,-y,z
x,-y,-z
-x,y,-z
-x,-y,-z
x,y,-z
-x,y,z
x,-y,z
1/2+x,1/2+y,1/2+z
1/2-x,1/2-y,1/2+z
1/2+x,1/2-y,1/2-z
1/2-x,1/2+y,1/2-z
1/2-x,1/2-y,1/2-z
1/2+x,1/2+y,1/2-z
1/2-x,1/2+y,1/2+z
1/2+x,1/2-y,1/2+z
loop_
_atom_site_type_symbol
_atom_site_label
_atom_site_fract_x
_atom_site_fract_y
_atom_site_fract_z
Si Si1 0.336183 0.898596 0.866396
Si Si2 0.087746 0.000000 0.363417
Si Si3 0.589171 0.583387 0.500000
Si Si4 0.818478 0.109657 0.226503
Si Si5 0.161710 0.767776 0.632318
Si Si6 0.500000 0.099702 0.139608
Si Si7 0.000000 0.754918 0.363555
O O1 0.261999 0.922132 0.803695
O O2 0.337465 0.814681 0.860858
O O3 0.417514 0.924766 0.826717
O O4 0.329009 0.915612 0.000000
O O5 0.133072 0.064393 0.313291
O O6 0.088780 0.000000 0.500000
O O7 0.000000 0.000000 0.326811
O O8 0.596238 0.500000 0.500000
O O9 0.500000 0.598761 0.500000
O O10 0.632505 0.611916 0.389149
O O11 0.796749 0.183141 0.281015
O O12 0.178308 0.784333 0.500000
O O13 0.076788 0.789714 0.663450
O O14 0.500000 0.178130 0.181503
O O15 0.500000 0.096936 0.000000
O O16 0.000000 0.747036 0.500000
#
# Coordination Sequence:
#
# PCOD9524427 Si02
#       7
#    16   8   8  16  16   8   8
#     4   9  17  32  52  83 112 143 179 220 277 336
#     4  11  26  43  59  82 107 141 194 247 282 312
#     4  11  24  40  52  71 107 157 197 223 272 335
#     4  12  21  35  56  78 106 147 186 230 276 332
#     4   9  18  30  50  79 110 140 179 230 276 323
#     4   7  12  26  48  71 106 135 165 214 260 310
#     4   7  12  24  42  68  99 134 170 208 264 308
#
# _framework density 19.472778000000002
#
# number of rings (size 3 to 8) (size 9 to 14) (size 15 to 20)
#    0.000    2.400    2.000    4.200    2.800    0.000 
#    0.000    0.000    0.000    0.600    0.000    6.300 
#    0.000    0.000    0.000    0.000    0.000    0.000 
#
# Total GULP energy -222669.612916 kJ/mol
# GULP energy per Si atom -5566.740323 kJ/mol
# Density = 1.942846 g / cm^3
# Si number density = 19.472778 Si / 1000 Ang^3
#
#
#
# Elastic Constant Matrix: (Units=GPa)
#
#
# Indices 1 2 3 4 5 6 
#
# 1 168.1547 18.3047 41.8072 0.0000 0.0000 0.0000
# 2 18.3047 104.8777 31.5062 0.0000 0.0000 0.0000
# 3 41.8072 31.5062 72.8763 0.0000 0.0000 0.0000
# 4 0.0000 0.0000 0.0000 -10.1651 0.0000 0.0000
# 5 0.0000 0.0000 0.0000 0.0000 27.9619 0.0000
# 6 0.0000 0.0000 0.0000 0.0000 0.0000 6.9026
#
#
#
# Elastic Compliance Matrix: (Units=1/GPa)
#
#
# Indices 1 2 3 4 5 6 
#
# 1 0.006936 -0.000018 -0.003972 0.000000 0.000000 0.000000
# 2 -0.000018 0.010958 -0.004727 0.000000 0.000000 0.000000
# 3 -0.003972 -0.004727 0.018044 0.000000 0.000000 0.000000
# 4 0.000000 0.000000 0.000000 -0.098376 0.000000 0.000000
# 5 0.000000 0.000000 0.000000 0.000000 0.035763 0.000000
# 6 0.000000 0.000000 0.000000 0.000000 0.000000 0.144874
#
#
# Mechanical properties :
#
#
# Convention : Reuss Voigt Hill
#
# Bulk Modulus (GPa) = 54.03823 58.79387 56.41605
# Shear Modulus (GPa) = 35.26081 21.89258 28.57669
#
# Velocity S-wave (km/s) = 4.25994 3.35664 3.83498
# Velocity P-wave (km/s) = 7.21159 6.72913 6.97453
#
# Compressibility (1/GPa) = 0.01850542
#
# Stress axis : x y z
#
# Youngs Moduli (GPa) = 144.17047 91.25641 55.41992
#
# Poissons Ratio (x) = 0.00160 0.22010
# Poissons Ratio (y) = 0.00253 0.26199
# Poissons Ratio (z) = 0.57258 0.43141
#
# Static dielectric constant tensor:
#      x y z
#    x 1.861810 0.000000 0.000000 
#    y 0.000000 1.731870 0.000000 
#    z 0.000000 0.000000 1.638810 
# 
# From -- ./inp_files/23905.got.cif
#   From: 2010.05.17/outbox.cif.g08.bks.cpg/sg71_12_cif.got.tgz:23905.got - 2010.06.03 16:22:01.
