data_PCOD9524993
_publ_section_title
;
Structure prediction by ZEFSAII (Michael W. Deem and Ramdas Pophale) SiO2 
 PCOD9524993
Probable space group: I B A M
;
_chemical_formula_sum "Si O2"
_cell_formula_units_Z 52
_cell_length_a 9.053067
_cell_length_b 31.832079
_cell_length_c 8.766317
_cell_angle_alpha 90.000000
_cell_angle_beta 90.000000
_cell_angle_gamma 90.000000
_cell_volume 2526.259209
_symmetry_space_group_name_H-M "I B A M"
_symmetry_group_IT_number 72
_symmetry_cell_setting 'orthorhombic'
loop_
_space_group_symop_operation_xyz
x,y,z
-x,-y,z
x,-y,1/2-z
-x,y,1/2-z
-x,-y,-z
x,y,-z
-x,y,1/2+z
x,-y,1/2+z
1/2+x,1/2+y,1/2+z
1/2-x,1/2-y,1/2+z
1/2+x,1/2-y,-z
1/2-x,1/2+y,-z
1/2-x,1/2-y,1/2-z
1/2+x,1/2+y,1/2-z
1/2-x,1/2+y,z
1/2+x,1/2-y,z
loop_
_atom_site_type_symbol
_atom_site_label
_atom_site_fract_x
_atom_site_fract_y
_atom_site_fract_z
Si Si1 0.832923 0.877943 0.317536
Si Si2 0.665036 0.710165 0.316449
Si Si3 0.284485 0.041824 0.831586
Si Si4 0.000000 0.000000 0.750000
O O1 0.843702 0.875669 0.500000
O O2 0.775261 0.834258 0.246875
O O3 0.726696 0.916266 0.267841
O O4 0.000000 0.883404 0.250000
O O5 0.500000 0.712599 0.250000
O O6 0.664563 0.710114 0.500000
O O7 0.750000 0.750000 0.250000
O O8 0.345594 0.000000 0.750000
O O9 0.111303 0.028586 0.843769
O O10 0.346477 0.048555 0.000000
#
# Coordination Sequence:
#
# PCOD9524993 Si02
#       4
#    16  16  16   4
#     4  11  19  28  43  64  91 126 165 205 251 304
#     4  11  22  38  57  79 106 138 176 219 266 315
#     4  10  17  24  36  55  83 120 159 199 243 297
#     4   8  18  20  34  48  82 116 160 192 242 288
#
# _framework density 20.583794000000001
#
# number of rings (size 3 to 8) (size 9 to 14) (size 15 to 20)
#    0.923    0.615    1.538    8.769    0.000    0.000 
#    0.000    0.000    0.000    0.000    0.000    0.000 
#    0.000    1.231    0.000   12.308    0.000   12.000 
#
# Total GULP energy -144919.566020 kJ/mol
# GULP energy per Si atom -5573.829462 kJ/mol
# Density = 2.053694 g / cm^3
# Si number density = 20.583794 Si / 1000 Ang^3
#
#
#
# Elastic Constant Matrix: (Units=GPa)
#
#
# Indices 1 2 3 4 5 6 
#
# 1 32.5212 31.8120 17.8833 0.0001 -0.0001 0.0000
# 2 31.8120 212.5303 97.9138 0.0004 0.0001 0.0000
# 3 17.8833 97.9138 241.8857 0.0047 -0.0002 -0.0002
# 4 0.0001 0.0004 0.0047 -42.6315 0.0002 0.0004
# 5 -0.0001 0.0001 -0.0002 0.0002 5.7698 -0.0001
# 6 0.0000 0.0000 -0.0002 0.0004 -0.0001 -2.0500
#
#
#
# Elastic Compliance Matrix: (Units=1/GPa)
#
#
# Indices 1 2 3 4 5 6 
#
# 1 0.036093 -0.005130 -0.000592 0.000000 0.000001 0.000000
# 2 -0.005130 0.006513 -0.002257 0.000000 0.000000 0.000000
# 3 -0.000592 -0.002257 0.005092 0.000001 0.000000 -0.000001
# 4 0.000000 0.000000 0.000001 -0.023457 0.000001 -0.000004
# 5 0.000001 0.000000 0.000000 0.000001 0.173317 -0.000007
# 6 0.000000 0.000000 -0.000001 -0.000004 -0.000007 -0.487809
#
#
# Mechanical properties :
#
#
# Convention : Reuss Voigt Hill
#
# Bulk Modulus (GPa) = 31.50647 86.90614 59.20630
# Shear Modulus (GPa) = -18.95995 14.83953 -2.06021
#
# Velocity S-wave (km/s) = -3.03827 2.68793 -1.00153
# Velocity P-wave (km/s) = 1.74113 7.20733 5.24296
#
# Compressibility (1/GPa) = 0.03173951
#
# Stress axis : x y z
#
# Youngs Moduli (GPa) = 27.70655 153.54136 196.40111
#
# Poissons Ratio (x) = 0.78762 0.11626
# Poissons Ratio (y) = 0.14213 0.44330
# Poissons Ratio (z) = 0.01640 0.34656
#
# Static dielectric constant tensor:
#      x y z
#    x 1.839190 0.000000 0.000000 
#    y 0.000000 1.775830 0.000000 
#    z 0.000000 0.000000 1.735910 
# 
# From -- ./inp_files/2492.got.cif
#   From: 2010.05.17/outbox.cif.g08.bks.cpg/sg72_2_cif.got.tgz:2492.got - 2010.06.03 17:03:01.
