data_PCOD9524118
_publ_section_title
;
Structure prediction by ZEFSAII (Michael W. Deem and Ramdas Pophale) SiO2 
 PCOD9524118
Probable space group: I M M M
;
_chemical_formula_sum "Si O2"
_cell_formula_units_Z 96
_cell_length_a 13.590850
_cell_length_b 23.827612
_cell_length_c 18.145433
_cell_angle_alpha 90.000000
_cell_angle_beta 90.000000
_cell_angle_gamma 90.000000
_cell_volume 5876.171669
_symmetry_space_group_name_H-M "I M M M"
_symmetry_group_IT_number 71
_symmetry_cell_setting 'orthorhombic'
loop_
_space_group_symop_operation_xyz
x,y,z
-x,-y,z
x,-y,-z
-x,y,-z
-x,-y,-z
x,y,-z
-x,y,z
x,-y,z
1/2+x,1/2+y,1/2+z
1/2-x,1/2-y,1/2+z
1/2+x,1/2-y,1/2-z
1/2-x,1/2+y,1/2-z
1/2-x,1/2-y,1/2-z
1/2+x,1/2+y,1/2-z
1/2-x,1/2+y,1/2+z
1/2+x,1/2-y,1/2+z
loop_
_atom_site_type_symbol
_atom_site_label
_atom_site_fract_x
_atom_site_fract_y
_atom_site_fract_z
Si Si1 0.388926 0.274835 0.911446
Si Si2 0.697301 0.613012 0.841152
Si Si3 0.810118 0.783941 0.912980
Si Si4 0.117882 0.890202 0.177717
Si Si5 0.884523 0.000000 0.588020
Si Si6 0.386355 0.841290 0.413341
Si Si7 0.880825 0.000000 0.915805
O O1 0.500000 0.257567 0.892545
O O2 0.362971 0.334002 0.874068
O O3 0.302927 0.230882 0.892289
O O4 0.383062 0.282715 0.000000
O O5 0.673846 0.609133 0.755128
O O6 0.663299 0.555835 0.879267
O O7 0.809830 0.626057 0.862466
O O8 0.855079 0.833769 0.865941
O O9 0.867737 0.725260 0.902644
O O10 0.814294 0.797838 0.000000
O O11 0.146664 0.944048 0.128575
O O12 0.000000 0.892485 0.190687
O O13 0.875170 0.000000 0.500000
O O14 0.000000 0.000000 0.607293
O O15 0.363463 0.852522 0.500000
O O16 0.500000 0.854683 0.400063
O O17 0.000000 0.000000 0.919094
O O18 0.844377 0.000000 0.000000
#
# Coordination Sequence:
#
# PCOD9524118 Si02
#       7
#    16  16  16  16   8  16   8
#     4   9  17  31  50  72 101 134 165 202 247 294
#     4  11  21  33  48  73 105 131 162 203 252 302
#     4   9  18  32  51  74  97 129 174 211 243 294
#     4  11  21  32  49  74 104 133 161 203 256 304
#     4  11  21  33  52  73  94 128 169 201 234 288
#     4   9  18  34  54  74 100 135 171 206 242 285
#     4   9  19  35  53  72  96 129 166 203 247 296
#
# _framework density 16.337167999999998
#
# number of rings (size 3 to 8) (size 9 to 14) (size 15 to 20)
#    0.000    2.167    0.000    5.500    0.000    6.333 
#    0.000    2.917    0.000    1.500    0.000    1.750 
#    0.000    5.333    0.000    0.000    0.000    0.000 
#
# Total GULP energy -267854.124225 kJ/mol
# GULP energy per Si atom -5580.294255 kJ/mol
# Density = 1.629998 g / cm^3
# Si number density = 16.337168 Si / 1000 Ang^3
#
#
#
# Elastic Constant Matrix: (Units=GPa)
#
#
# Indices 1 2 3 4 5 6 
#
# 1 108.7287 43.4437 64.0047 0.0000 0.0000 0.0000
# 2 43.4437 92.3354 64.9203 -0.0001 0.0000 0.0000
# 3 64.0047 64.9203 91.8829 -0.0001 0.0000 0.0000
# 4 0.0000 -0.0001 -0.0001 -100.5192 0.0000 0.0000
# 5 0.0000 0.0000 0.0000 0.0000 21.5742 0.0000
# 6 0.0000 0.0000 0.0000 0.0000 0.0000 17.6163
#
#
#
# Elastic Compliance Matrix: (Units=1/GPa)
#
#
# Indices 1 2 3 4 5 6 
#
# 1 0.015607 0.000598 -0.011294 0.000000 0.000000 0.000000
# 2 0.000598 0.021544 -0.015638 0.000000 0.000000 0.000000
# 3 -0.011294 -0.015638 0.029800 0.000000 0.000000 0.000000
# 4 0.000000 0.000000 0.000000 -0.009948 0.000000 0.000000
# 5 0.000000 0.000000 0.000000 0.000000 0.046352 0.000000
# 6 0.000000 0.000000 0.000000 0.000000 0.000000 0.056765
#
#
# Mechanical properties :
#
#
# Convention : Reuss Voigt Hill
#
# Bulk Modulus (GPa) = 70.01969 70.85383 70.43676
# Shear Modulus (GPa) = 22.98339 -4.22716 9.37811
#
# Velocity S-wave (km/s) = 3.75482 -1.61030 2.39850
# Velocity P-wave (km/s) = 7.85814 6.32506 7.13291
#
# Compressibility (1/GPa) = 0.01428170
#
# Stress axis : x y z
#
# Youngs Moduli (GPa) = 64.07563 46.41631 33.55736
#
# Poissons Ratio (x) = -0.02774 0.37898
# Poissons Ratio (y) = -0.03829 0.52478
# Poissons Ratio (z) = 0.72364 0.72587
#
# Static dielectric constant tensor:
#      x y z
#    x 1.554660 0.000000 0.000000 
#    y 0.000000 1.517250 0.000000 
#    z 0.000000 0.000000 1.545260 
# 
# From -- ./inp_files/34777.got.cif
#   From: 2010.05.17/outbox.cif.g08.bks.cpg/sg71_18_cif.got.tgz:34777.got - 2010.06.03 16:22:01.
