data_PCOD9524333
_publ_section_title
;
Structure prediction by ZEFSAII (Michael W. Deem and Ramdas Pophale) SiO2 
 PCOD9524333
Probable space group: I M M M
;
_chemical_formula_sum "Si O2"
_cell_formula_units_Z 72
_cell_length_a 23.997887
_cell_length_b 9.900699
_cell_length_c 16.593775
_cell_angle_alpha 90.000000
_cell_angle_beta 90.000000
_cell_angle_gamma 90.000000
_cell_volume 3942.612172
_symmetry_space_group_name_H-M "I M M M"
_symmetry_group_IT_number 71
_symmetry_cell_setting 'orthorhombic'
loop_
_space_group_symop_operation_xyz
x,y,z
-x,-y,z
x,-y,-z
-x,y,-z
-x,-y,-z
x,y,-z
-x,y,z
x,-y,z
1/2+x,1/2+y,1/2+z
1/2-x,1/2-y,1/2+z
1/2+x,1/2-y,1/2-z
1/2-x,1/2+y,1/2-z
1/2-x,1/2-y,1/2-z
1/2+x,1/2+y,1/2-z
1/2-x,1/2+y,1/2+z
1/2+x,1/2-y,1/2+z
loop_
_atom_site_type_symbol
_atom_site_label
_atom_site_fract_x
_atom_site_fract_y
_atom_site_fract_z
Si Si1 0.432692 0.000000 0.097619
Si Si2 0.062949 0.162633 0.000000
Si Si3 0.870537 0.244236 0.327252
Si Si4 0.853335 0.835091 0.144306
Si Si5 0.935090 0.000000 0.595160
Si Si6 0.254521 0.660241 0.096287
O O1 0.401202 0.124480 0.139231
O O2 0.500000 0.000000 0.111366
O O3 0.424930 0.000000 0.000000
O O4 0.098744 0.196524 0.920958
O O5 0.000000 0.217317 0.000000
O O6 0.059072 0.000000 0.000000
O O7 0.869957 0.220774 0.231710
O O8 0.905981 0.126578 0.366723
O O9 0.807622 0.223753 0.358820
O O10 0.798402 0.753091 0.117555
O O11 0.845130 0.000000 0.146795
O O12 0.926800 0.000000 0.500000
O O13 0.000000 0.000000 0.612491
O O14 0.247855 0.500000 0.118465
O O15 0.263638 0.664250 0.000000
#
# Coordination Sequence:
#
# PCOD9524333 Si02
#       6
#     8   8  16  16   8  16
#     4  11  26  46  65  93 135 175 214 267 332 397
#     4   9  20  40  65  93 131 173 212 265 322 381
#     4  12  24  41  65  97 126 169 222 268 327 394
#     4  11  23  42  65  99 130 169 221 275 328 389
#     4  11  22  40  65  91 125 161 208 267 322 387
#     4  11  23  40  66  94 132 171 214 270 338 393
#
# _framework density 18.262004000000001
#
# number of rings (size 3 to 8) (size 9 to 14) (size 15 to 20)
#    0.000    1.000    3.333    3.333    3.111    3.556 
#    0.000    0.000    0.000    0.667    0.000    0.000 
#    0.000    0.000    0.000    0.000    0.000    0.000 
#
# Total GULP energy -201013.482848 kJ/mol
# GULP energy per Si atom -5583.707857 kJ/mol
# Density = 1.822044 g / cm^3
# Si number density = 18.262004 Si / 1000 Ang^3
#
#
#
# Elastic Constant Matrix: (Units=GPa)
#
#
# Indices 1 2 3 4 5 6 
#
# 1 196.8622 77.3800 90.7382 0.0000 0.0000 0.0000
# 2 77.3800 147.9070 67.2633 0.0000 0.0000 0.0000
# 3 90.7382 67.2633 195.7368 0.0000 0.0000 0.0000
# 4 0.0000 0.0000 0.0000 28.4257 0.0000 0.0000
# 5 0.0000 0.0000 0.0000 0.0000 3.4338 0.0000
# 6 0.0000 0.0000 0.0000 0.0000 0.0000 37.1235
#
#
#
# Elastic Compliance Matrix: (Units=1/GPa)
#
#
# Indices 1 2 3 4 5 6 
#
# 1 0.007262 -0.002689 -0.002443 0.000000 0.000000 0.000000
# 2 -0.002689 0.009009 -0.001849 0.000000 0.000000 0.000000
# 3 -0.002443 -0.001849 0.006877 0.000000 0.000000 0.000000
# 4 0.000000 0.000000 0.000000 0.035179 0.000000 0.000000
# 5 0.000000 0.000000 0.000000 0.000000 0.291226 0.000000
# 6 0.000000 0.000000 0.000000 0.000000 0.000000 0.026937
#
#
# Mechanical properties :
#
#
# Convention : Reuss Voigt Hill
#
# Bulk Modulus (GPa) = 108.85619 112.36323 110.60971
# Shear Modulus (GPa) = 12.70604 34.13821 23.42213
#
# Velocity S-wave (km/s) = 2.64060 4.32830 3.58517
# Velocity P-wave (km/s) = 8.30870 9.30811 8.82256
#
# Compressibility (1/GPa) = 0.00918643
#
# Stress axis : x y z
#
# Youngs Moduli (GPa) = 137.69553 111.00483 145.41603
#
# Poissons Ratio (x) = 0.29844 0.35521
# Poissons Ratio (y) = 0.37020 0.26893
# Poissons Ratio (z) = 0.33636 0.20529
#
# Static dielectric constant tensor:
#      x y z
#    x 1.644230 0.000000 0.000000 
#    y 0.000000 1.644050 0.000000 
#    z 0.000000 0.000000 1.651020 
# 
# From -- ./inp_files/39983.got.cif
#   From: 2010.05.17/outbox.cif.g08.bks.cpg/sg71_20_cif.got.tgz:39983.got - 2010.06.03 16:22:01.
