data_PCOD9524601
_publ_section_title
;
Structure prediction by ZEFSAII (Michael W. Deem and Ramdas Pophale) SiO2 
 PCOD9524601
Probable space group: I M M M
;
_chemical_formula_sum "Si O2"
_cell_formula_units_Z 80
_cell_length_a 8.960081
_cell_length_b 14.465378
_cell_length_c 28.812320
_cell_angle_alpha 90.000000
_cell_angle_beta 90.000000
_cell_angle_gamma 90.000000
_cell_volume 3734.392414
_symmetry_space_group_name_H-M "I M M M"
_symmetry_group_IT_number 71
_symmetry_cell_setting 'orthorhombic'
loop_
_space_group_symop_operation_xyz
x,y,z
-x,-y,z
x,-y,-z
-x,y,-z
-x,-y,-z
x,y,-z
-x,y,z
x,-y,z
1/2+x,1/2+y,1/2+z
1/2-x,1/2-y,1/2+z
1/2+x,1/2-y,1/2-z
1/2-x,1/2+y,1/2-z
1/2-x,1/2-y,1/2-z
1/2+x,1/2+y,1/2-z
1/2-x,1/2+y,1/2+z
1/2+x,1/2-y,1/2+z
loop_
_atom_site_type_symbol
_atom_site_label
_atom_site_fract_x
_atom_site_fract_y
_atom_site_fract_z
Si Si1 0.819769 0.809306 0.948561
Si Si2 0.823805 0.400759 0.931959
Si Si3 0.829911 0.352908 0.645584
Si Si4 0.676540 0.651055 0.261699
Si Si5 0.831841 0.869322 0.340713
O O1 0.768981 0.700598 0.947720
O O2 0.750112 0.861141 0.904277
O O3 0.000000 0.809501 0.943443
O O4 0.783364 0.846263 0.000000
O O5 0.763571 0.500000 0.949415
O O6 0.789719 0.400933 0.877230
O O7 0.000000 0.400579 0.941569
O O8 0.747500 0.389732 0.691589
O O9 0.831672 0.242187 0.655202
O O10 0.000000 0.385270 0.643243
O O11 0.500000 0.662951 0.269457
O O12 0.750000 0.750000 0.250000
O O13 0.695162 0.601681 0.212154
O O14 0.000000 0.897763 0.354397
#
# Coordination Sequence:
#
# PCOD9524601 Si02
#       5
#    16  16  16  16  16
#     4   9  17  28  40  52  68  93 124 158 194 226
#     4   9  17  27  38  52  69  91 122 159 193 222
#     4   9  16  25  37  53  71  90 113 143 180 220
#     4   9  15  23  36  54  73  90 110 137 172 216
#     4   8  15  25  36  51  69  89 112 140 176 218
#
# _framework density 21.422494
#
# number of rings (size 3 to 8) (size 9 to 14) (size 15 to 20)
#    0.000    3.200    0.000    2.400    0.000    6.800 
#    0.000    2.000    0.000    0.000    0.000    5.600 
#    0.000    0.000    0.000    0.000    0.000    1.000 
#
# Total GULP energy -222696.661798 kJ/mol
# GULP energy per Si atom -5567.416545 kJ/mol
# Density = 2.137374 g / cm^3
# Si number density = 21.422494 Si / 1000 Ang^3
#
#
#
# Elastic Constant Matrix: (Units=GPa)
#
#
# Indices 1 2 3 4 5 6 
#
# 1 63.2407 3.0132 75.2285 0.0000 0.0000 0.0000
# 2 3.0132 39.0409 -5.1534 0.0000 0.0000 0.0000
# 3 75.2285 -5.1534 200.2928 0.0000 0.0000 0.0000
# 4 0.0000 0.0000 0.0000 -33.6153 0.0000 0.0000
# 5 0.0000 0.0000 0.0000 0.0000 21.6909 0.0000
# 6 0.0000 0.0000 0.0000 0.0000 0.0000 -14.2666
#
#
#
# Elastic Compliance Matrix: (Units=1/GPa)
#
#
# Indices 1 2 3 4 5 6 
#
# 1 0.029107 -0.003702 -0.011028 0.000000 0.000000 0.000000
# 2 -0.003702 0.026172 0.002064 0.000000 0.000000 0.000000
# 3 -0.011028 0.002064 0.009188 0.000000 0.000000 0.000000
# 4 0.000000 0.000000 0.000000 -0.029748 0.000000 0.000000
# 5 0.000000 0.000000 0.000000 0.000000 0.046102 0.000000
# 6 0.000000 0.000000 0.000000 0.000000 0.000000 -0.070094
#
#
# Mechanical properties :
#
#
# Convention : Reuss Voigt Hill
#
# Bulk Modulus (GPa) = 25.55237 49.86122 37.70679
# Shear Modulus (GPa) = 101.82413 10.06085 55.94249
#
# Velocity S-wave (km/s) = 6.90178 2.16947 5.11572
# Velocity P-wave (km/s) = 8.68715 5.44069 7.24802
#
# Compressibility (1/GPa) = 0.03913531
#
# Stress axis : x y z
#
# Youngs Moduli (GPa) = 34.35597 38.20829 108.84127
#
# Poissons Ratio (x) = 0.14145 1.20026
# Poissons Ratio (y) = 0.12719 -0.22464
# Poissons Ratio (z) = 0.37887 -0.07886
#
# Static dielectric constant tensor:
#      x y z
#    x 1.744130 0.000000 0.000000 
#    y 0.000000 1.829750 0.000000 
#    z 0.000000 0.000000 1.808610 
# 
# From -- ./inp_files/8286.got.cif
#   From: 2010.05.17/outbox.cif.g08.bks.cpg/sg71_5_cif.got.tgz:8286.got - 2010.06.03 16:22:01.
