data_PCOD9524598
_publ_section_title
;
Structure prediction by ZEFSAII (Michael W. Deem and Ramdas Pophale) SiO2 
 PCOD9524598
Probable space group: I M M M
;
_chemical_formula_sum "Si O2"
_cell_formula_units_Z 88
_cell_length_a 7.579813
_cell_length_b 18.107483
_cell_length_c 27.001981
_cell_angle_alpha 90.000000
_cell_angle_beta 90.000000
_cell_angle_gamma 90.000000
_cell_volume 3706.057941
_symmetry_space_group_name_H-M "I M M M"
_symmetry_group_IT_number 71
_symmetry_cell_setting 'orthorhombic'
loop_
_space_group_symop_operation_xyz
x,y,z
-x,-y,z
x,-y,-z
-x,y,-z
-x,-y,-z
x,y,-z
-x,y,z
x,-y,z
1/2+x,1/2+y,1/2+z
1/2-x,1/2-y,1/2+z
1/2+x,1/2-y,1/2-z
1/2-x,1/2+y,1/2-z
1/2-x,1/2-y,1/2-z
1/2+x,1/2+y,1/2-z
1/2-x,1/2+y,1/2+z
1/2+x,1/2-y,1/2+z
loop_
_atom_site_type_symbol
_atom_site_label
_atom_site_fract_x
_atom_site_fract_y
_atom_site_fract_z
Si Si1 0.806772 0.192699 0.058176
Si Si2 0.290638 0.730421 0.693241
Si Si3 0.715705 0.580930 0.729677
Si Si4 0.798351 0.115395 0.340333
Si Si5 0.212486 0.133751 0.554618
Si Si6 0.500000 0.085587 0.061082
O O1 0.751850 0.278571 0.058547
O O2 0.667161 0.134231 0.077718
O O3 0.000000 0.184970 0.081311
O O4 0.820632 0.175360 0.000000
O O5 0.500000 0.736149 0.685525
O O6 0.250000 0.750000 0.750000
O O7 0.228659 0.646095 0.693069
O O8 0.202021 0.795062 0.662372
O O9 0.500000 0.586031 0.732021
O O10 0.765823 0.500000 0.712797
O O11 0.778278 0.591347 0.787080
O O12 0.719873 0.097283 0.394263
O O13 0.000000 0.088708 0.340302
O O14 0.276287 0.109199 0.500000
O O15 0.000000 0.124947 0.554818
O O16 0.500000 0.000000 0.076237
O O17 0.500000 0.085672 0.000000
#
# Coordination Sequence:
#
# PCOD9524598 Si02
#       6
#    16  16  16  16  16   8
#     4   9  16  26  41  61  84 113 153 198 246 295
#     4   9  16  27  45  68  94 123 154 193 239 288
#     4   8  14  26  45  69  96 125 155 187 233 296
#     4   9  17  28  46  71  95 124 161 201 242 287
#     4   9  16  28  45  64  90 123 160 205 254 294
#     4   9  16  26  40  58  82 110 141 187 245 297
#
# _framework density 23.744906
#
# number of rings (size 3 to 8) (size 9 to 14) (size 15 to 20)
#    0.000    3.182    0.909    1.636    0.000    1.091 
#    0.000    1.818    0.000   15.273    0.000    6.364 
#    0.000    0.000    0.000   11.091    0.000   12.000 
#
# Total GULP energy -245290.700384 kJ/mol
# GULP energy per Si atom -5574.788645 kJ/mol
# Density = 2.369086 g / cm^3
# Si number density = 23.744906 Si / 1000 Ang^3
#
#
#
# Elastic Constant Matrix: (Units=GPa)
#
#
# Indices 1 2 3 4 5 6 
#
# 1 68.3951 -6.0631 15.5390 0.0000 0.0000 0.0000
# 2 -6.0631 85.3153 4.2140 0.0000 0.0000 0.0000
# 3 15.5390 4.2140 106.9964 0.0000 0.0000 0.0000
# 4 0.0000 0.0000 0.0000 -4.6958 0.0000 0.0000
# 5 0.0000 0.0000 0.0000 0.0000 -8.3432 0.0000
# 6 0.0000 0.0000 0.0000 0.0000 0.0000 -1.8351
#
#
#
# Elastic Compliance Matrix: (Units=1/GPa)
#
#
# Indices 1 2 3 4 5 6 
#
# 1 0.015240 0.001195 -0.002260 0.000000 0.000000 0.000000
# 2 0.001195 0.011838 -0.000640 0.000000 0.000000 0.000000
# 3 -0.002260 -0.000640 0.009700 0.000000 0.000000 0.000000
# 4 0.000000 0.000000 0.000000 -0.212958 0.000000 0.000000
# 5 0.000000 0.000000 0.000000 0.000000 -0.119859 0.000000
# 6 0.000000 0.000000 0.000000 0.000000 0.000000 -0.544929
#
#
# Mechanical properties :
#
#
# Convention : Reuss Voigt Hill
#
# Bulk Modulus (GPa) = 29.96981 32.00962 30.98971
# Shear Modulus (GPa) = -6.05008 13.49298 3.72145
#
# Velocity S-wave (km/s) = -1.59796 2.38638 1.25326
# Velocity P-wave (km/s) = 3.04045 4.59380 3.89534
#
# Compressibility (1/GPa) = 0.03336692
#
# Stress axis : x y z
#
# Youngs Moduli (GPa) = 65.61505 84.47563 103.09722
#
# Poissons Ratio (x) = -0.10093 0.23304
# Poissons Ratio (y) = -0.07839 0.06595
# Poissons Ratio (z) = 0.14832 0.05404
#
# Static dielectric constant tensor:
#      x y z
#    x 1.903440 0.000000 0.000000 
#    y 0.000000 1.890470 0.000000 
#    z 0.000000 0.000000 2.472830 
# 
# From -- ./inp_files/68031.got.cif
#   From: 2010.05.17/outbox.cif.g08.bks.cpg/sg71_35_cif.got.tgz:68031.got - 2010.06.03 16:22:01.
