data_PCOD9524215
_publ_section_title
;
Structure prediction by ZEFSAII (Michael W. Deem and Ramdas Pophale) SiO2 
 PCOD9524215
Probable space group: I M M M
;
_chemical_formula_sum "Si O2"
_cell_formula_units_Z 56
_cell_length_a 8.612021
_cell_length_b 15.419175
_cell_length_c 19.849556
_cell_angle_alpha 90.000000
_cell_angle_beta 90.000000
_cell_angle_gamma 90.000000
_cell_volume 2635.827680
_symmetry_space_group_name_H-M "I M M M"
_symmetry_group_IT_number 71
_symmetry_cell_setting 'orthorhombic'
loop_
_space_group_symop_operation_xyz
x,y,z
-x,-y,z
x,-y,-z
-x,y,-z
-x,-y,-z
x,y,-z
-x,y,z
x,-y,z
1/2+x,1/2+y,1/2+z
1/2-x,1/2-y,1/2+z
1/2+x,1/2-y,1/2-z
1/2-x,1/2+y,1/2-z
1/2-x,1/2-y,1/2-z
1/2+x,1/2+y,1/2-z
1/2-x,1/2+y,1/2+z
1/2+x,1/2-y,1/2+z
loop_
_atom_site_type_symbol
_atom_site_label
_atom_site_fract_x
_atom_site_fract_y
_atom_site_fract_z
Si Si1 0.323516 0.602654 0.000000
Si Si2 0.814556 0.814169 0.923483
Si Si3 0.686598 0.342151 0.855864
Si Si4 0.316837 0.000000 0.110806
Si Si5 0.318231 0.000000 0.271437
O O1 0.251039 0.625197 0.928607
O O2 0.337649 0.500000 0.000000
O O3 0.500000 0.639480 0.000000
O O4 0.741257 0.757400 0.862557
O O5 0.000000 0.807183 0.919649
O O6 0.761568 0.913039 0.916302
O O7 0.765679 0.786173 0.000000
O O8 0.500000 0.344979 0.853545
O O9 0.746602 0.411624 0.802205
O O10 0.500000 0.000000 0.094374
O O11 0.298956 0.000000 0.191459
O O12 0.500000 0.000000 0.287800
#
# Coordination Sequence:
#
# PCOD9524215 Si02
#       5
#     8  16  16   8   8
#     4   9  16  30  54  89 124 155 198 248 297 359
#     4  11  24  42  66  97 128 158 201 263 322 366
#     4  11  21  37  64  95 127 165 207 251 305 375
#     4  11  26  46  66  87 120 170 218 258 305 370
#     4  11  25  43  61  91 131 167 209 258 309 367
#
# _framework density 21.245699999999999
#
# number of rings (size 3 to 8) (size 9 to 14) (size 15 to 20)
#    0.000    1.286    2.857    3.000    0.000    6.857 
#    0.000    0.714    0.000    0.000    0.000    0.000 
#    0.000    0.000    0.000    0.000    0.000    0.000 
#
# Total GULP energy -156273.238940 kJ/mol
# GULP energy per Si atom -5581.187105 kJ/mol
# Density = 2.119734 g / cm^3
# Si number density = 21.245700 Si / 1000 Ang^3
#
#
#
# Elastic Constant Matrix: (Units=GPa)
#
#
# Indices 1 2 3 4 5 6 
#
# 1 82.5111 41.5416 39.6494 0.0000 0.0000 0.0000
# 2 41.5416 119.1603 22.1409 0.0000 0.0000 0.0000
# 3 39.6494 22.1409 41.1142 0.0000 0.0000 0.0000
# 4 0.0000 0.0000 0.0000 30.1964 0.0000 0.0000
# 5 0.0000 0.0000 0.0000 0.0000 25.2548 0.0000
# 6 0.0000 0.0000 0.0000 0.0000 0.0000 36.9735
#
#
#
# Elastic Compliance Matrix: (Units=1/GPa)
#
#
# Indices 1 2 3 4 5 6 
#
# 1 0.024708 -0.004652 -0.021322 0.000000 0.000000 0.000000
# 2 -0.004652 0.010201 -0.001007 0.000000 0.000000 0.000000
# 3 -0.021322 -0.001007 0.045428 0.000000 0.000000 0.000000
# 4 0.000000 0.000000 0.000000 0.033117 0.000000 0.000000
# 5 0.000000 0.000000 0.000000 0.000000 0.039596 0.000000
# 6 0.000000 0.000000 0.000000 0.000000 0.000000 0.027046
#
#
# Mechanical properties :
#
#
# Convention : Reuss Voigt Hill
#
# Bulk Modulus (GPa) = 37.91711 49.93881 43.92796
# Shear Modulus (GPa) = 20.58885 27.78186 24.18536
#
# Velocity S-wave (km/s) = 3.11639 3.62006 3.37763
# Velocity P-wave (km/s) = 5.55291 6.40543 5.99435
#
# Compressibility (1/GPa) = 0.02637332
#
# Stress axis : x y z
#
# Youngs Moduli (GPa) = 40.47319 98.03035 22.01298
#
# Poissons Ratio (x) = 0.45601 0.46937
# Poissons Ratio (y) = 0.18827 0.02218
# Poissons Ratio (z) = 0.86299 0.09876
#
# Static dielectric constant tensor:
#      x y z
#    x 1.743890 0.000000 0.000000 
#    y 0.000000 1.834900 0.000000 
#    z 0.000000 0.000000 1.797430 
# 
# From -- ./inp_files/49842.got.cif
#   From: 2010.05.17/outbox.cif.g08.bks.cpg/sg71_25_cif.got.tgz:49842.got - 2010.06.03 16:22:01.
