data_PCOD9524148
_publ_section_title
;
Structure prediction by ZEFSAII (Michael W. Deem and Ramdas Pophale) SiO2 
 PCOD9524148
Probable space group: I M M M
;
_chemical_formula_sum "Si O2"
_cell_formula_units_Z 116
_cell_length_a 15.983553
_cell_length_b 24.012648
_cell_length_c 17.064691
_cell_angle_alpha 90.000000
_cell_angle_beta 90.000000
_cell_angle_gamma 90.000000
_cell_volume 6549.555230
_symmetry_space_group_name_H-M "I M M M"
_symmetry_group_IT_number 71
_symmetry_cell_setting 'orthorhombic'
loop_
_space_group_symop_operation_xyz
x,y,z
-x,-y,z
x,-y,-z
-x,y,-z
-x,-y,-z
x,y,-z
-x,y,z
x,-y,z
1/2+x,1/2+y,1/2+z
1/2-x,1/2-y,1/2+z
1/2+x,1/2-y,1/2-z
1/2-x,1/2+y,1/2-z
1/2-x,1/2-y,1/2-z
1/2+x,1/2+y,1/2-z
1/2-x,1/2+y,1/2+z
1/2+x,1/2-y,1/2+z
loop_
_atom_site_type_symbol
_atom_site_label
_atom_site_fract_x
_atom_site_fract_y
_atom_site_fract_z
Si Si1 0.691167 0.830707 0.585974
Si Si2 0.908633 0.848740 0.091557
Si Si3 0.500000 0.746026 0.000000
Si Si4 0.094887 0.743598 0.207193
Si Si5 0.094559 0.435097 0.311891
Si Si6 0.725042 0.865073 0.090319
Si Si7 0.904861 0.564597 0.123169
Si Si8 0.158332 0.242908 0.381336
O O1 0.663757 0.809721 0.500000
O O2 0.641948 0.802697 0.657221
O O3 0.665902 0.895140 0.590084
O O4 0.786444 0.810948 0.596671
O O5 0.907446 0.797382 0.151178
O O6 0.821801 0.880595 0.105713
O O7 0.000000 0.876899 0.100899
O O8 0.903899 0.830595 0.000000
O O9 0.574213 0.745953 0.931880
O O10 0.138571 0.756560 0.289179
O O11 0.000000 0.725303 0.223101
O O12 0.106711 0.500000 0.333805
O O13 0.161869 0.396206 0.352647
O O14 0.099178 0.432371 0.217795
O O15 0.000000 0.418618 0.335148
O O16 0.712509 0.798570 0.100739
O O17 0.704780 0.878465 0.000000
O O18 0.894926 0.500000 0.100977
O O19 0.000000 0.582060 0.100331
#
# Coordination Sequence:
#
# PCOD9524148 Si02
#       8
#    16  16   4  16  16  16  16  16
#     4  12  23  36  55  85 118 149 189 236 282 337
#     4   9  19  35  51  75 112 147 180 227 285 336
#     4  12  24  44  56  72 126 158 188 236 282 346
#     4  11  22  34  54  80 112 150 189 228 277 339
#     4   9  20  37  56  81 114 149 189 238 288 338
#     4  11  21  33  54  78 109 152 193 233 280 342
#     4   9  20  39  59  82 112 148 185 226 284 349
#     4  12  24  39  54  81 115 154 197 229 284 342
#
# _framework density 17.711126
#
# number of rings (size 3 to 8) (size 9 to 14) (size 15 to 20)
#    0.000    1.517    3.448    2.897    2.897    3.586 
#    0.000    1.379    0.000    0.414    0.000    2.897 
#    0.000    0.000    0.000    0.000    0.000    0.000 
#
# Total GULP energy -323105.599070 kJ/mol
# GULP energy per Si atom -5570.786191 kJ/mol
# Density = 1.767081 g / cm^3
# Si number density = 17.711126 Si / 1000 Ang^3
#
#
#
# Elastic Constant Matrix: (Units=GPa)
#
#
# Indices 1 2 3 4 5 6 
#
# 1 132.5325 46.4889 36.7675 -0.0002 0.0000 0.0000
# 2 46.4889 44.2544 24.2874 -0.0006 0.0001 0.0000
# 3 36.7675 24.2874 96.0220 0.0000 0.0001 -0.0001
# 4 -0.0002 -0.0006 0.0000 -244.6147 0.0000 0.0003
# 5 0.0000 0.0001 0.0001 0.0000 26.3976 0.0000
# 6 0.0000 0.0000 -0.0001 0.0003 0.0000 24.5380
#
#
#
# Elastic Compliance Matrix: (Units=1/GPa)
#
#
# Indices 1 2 3 4 5 6 
#
# 1 0.012171 -0.011876 -0.001656 0.000000 0.000000 0.000000
# 2 -0.011876 0.037828 -0.005021 0.000000 0.000000 0.000000
# 3 -0.001656 -0.005021 0.012318 0.000000 0.000000 0.000000
# 4 0.000000 0.000000 0.000000 -0.004088 0.000000 0.000000
# 5 0.000000 0.000000 0.000000 0.000000 0.037882 0.000000
# 6 0.000000 0.000000 0.000000 0.000000 0.000000 0.040753
#
#
# Mechanical properties :
#
#
# Convention : Reuss Voigt Hill
#
# Bulk Modulus (GPa) = 39.66561 54.21073 46.93817
# Shear Modulus (GPa) = 27.41624 -27.71814 -0.15095
#
# Velocity S-wave (km/s) = 3.93869 -3.96032 -0.29226
# Velocity P-wave (km/s) = 6.56726 3.12452 5.14254
#
# Compressibility (1/GPa) = 0.02521076
#
# Stress axis : x y z
#
# Youngs Moduli (GPa) = 82.16471 26.43562 81.17965
#
# Poissons Ratio (x) = 0.31395 0.13446
# Poissons Ratio (y) = 0.97580 0.40756
# Poissons Ratio (z) = 0.13609 0.13272
#
# Static dielectric constant tensor:
#      x y z
#    x 1.626770 0.000000 0.000000 
#    y 0.000000 1.601440 0.000000 
#    z 0.000000 0.000000 1.606040 
# 
# From -- ./inp_files/45202.got.cif
#   From: 2010.05.17/outbox.cif.g08.bks.cpg/sg71_23_cif.got.tgz:45202.got - 2010.06.03 16:22:01.
