data_PCOD9524979
_publ_section_title
;
Structure prediction by ZEFSAII (Michael W. Deem and Ramdas Pophale) SiO2 
 PCOD9524979
Probable space group: I B A M
;
_chemical_formula_sum "Si O2"
_cell_formula_units_Z 96
_cell_length_a 17.504868
_cell_length_b 16.229097
_cell_length_c 19.557995
_cell_angle_alpha 90.000000
_cell_angle_beta 90.000000
_cell_angle_gamma 90.000000
_cell_volume 5556.195610
_symmetry_space_group_name_H-M "I B A M"
_symmetry_group_IT_number 72
_symmetry_cell_setting 'orthorhombic'
loop_
_space_group_symop_operation_xyz
x,y,z
-x,-y,z
x,-y,1/2-z
-x,y,1/2-z
-x,-y,-z
x,y,-z
-x,y,1/2+z
x,-y,1/2+z
1/2+x,1/2+y,1/2+z
1/2-x,1/2-y,1/2+z
1/2+x,1/2-y,-z
1/2-x,1/2+y,-z
1/2-x,1/2-y,1/2-z
1/2+x,1/2+y,1/2-z
1/2-x,1/2+y,z
1/2+x,1/2-y,z
loop_
_atom_site_type_symbol
_atom_site_label
_atom_site_fract_x
_atom_site_fract_y
_atom_site_fract_z
Si Si1 0.834621 0.799907 0.615545
Si Si2 0.094460 0.403468 0.500000
Si Si3 0.409231 0.804223 0.733380
Si Si4 0.081108 0.469233 0.351936
Si Si5 0.768193 0.680210 0.500000
Si Si6 0.445572 0.291326 0.000000
Si Si7 0.330481 0.862565 0.867014
Si Si8 0.384318 0.762353 0.000000
O O1 0.873785 0.764539 0.683397
O O2 0.796260 0.727840 0.568514
O O3 0.903211 0.829257 0.565916
O O4 0.761524 0.857706 0.628347
O O5 0.067250 0.440949 0.429800
O O6 0.187181 0.405231 0.500000
O O7 0.071882 0.307503 0.500000
O O8 0.500000 0.794497 0.750000
O O9 0.396955 0.890277 0.692652
O O10 0.362139 0.810016 0.803312
O O11 0.139485 0.544934 0.354844
O O12 0.000000 0.500000 0.325189
O O13 0.678913 0.690692 0.500000
O O14 0.535973 0.285409 0.000000
O O15 0.368676 0.821701 0.934662
#
# Coordination Sequence:
#
# PCOD9524979 Si02
#       8
#    16   8  16  16   8   8  16   8
#     4   9  19  35  50  70 103 141 177 210 251 306
#     4  10  18  32  52  72 107 142 167 200 256 326
#     4  12  21  34  50  74 111 142 172 210 257 309
#     4  12  21  33  50  81 112 140 166 204 264 319
#     4   8  16  33  52  68 102 135 173 217 253 308
#     4  10  16  33  54  71  98 136 172 218 255 301
#     4  11  22  32  50  75 108 137 174 212 256 318
#     4  10  19  34  51  77  98 133 179 221 263 299
#
# _framework density 17.278009999999998
#
# number of rings (size 3 to 8) (size 9 to 14) (size 15 to 20)
#    0.000    1.667    5.000    4.250    0.000    0.000 
#    0.000    0.000    0.000    0.000    0.000    2.333 
#    0.000    0.000    0.000    0.000    0.000    0.000 
#
# Total GULP energy -267373.574160 kJ/mol
# GULP energy per Si atom -5570.282795 kJ/mol
# Density = 1.723868 g / cm^3
# Si number density = 17.278010 Si / 1000 Ang^3
#
#
#
# Elastic Constant Matrix: (Units=GPa)
#
#
# Indices 1 2 3 4 5 6 
#
# 1 141.6095 22.6868 27.5662 0.0000 0.0000 0.0000
# 2 22.6868 25.9425 10.1257 0.0000 0.0000 0.0000
# 3 27.5662 10.1257 124.8293 0.0000 0.0000 0.0000
# 4 0.0000 0.0000 0.0000 37.8765 0.0000 0.0000
# 5 0.0000 0.0000 0.0000 0.0000 17.1094 0.0000
# 6 0.0000 0.0000 0.0000 0.0000 0.0000 29.7511
#
#
#
# Elastic Compliance Matrix: (Units=1/GPa)
#
#
# Indices 1 2 3 4 5 6 
#
# 1 0.008412 -0.006848 -0.001302 0.000000 0.000000 0.000000
# 2 -0.006848 0.045382 -0.002169 0.000000 0.000000 0.000000
# 3 -0.001302 -0.002169 0.008474 0.000000 0.000000 0.000000
# 4 0.000000 0.000000 0.000000 0.026402 0.000000 0.000000
# 5 0.000000 0.000000 0.000000 0.000000 0.058447 0.000000
# 6 0.000000 0.000000 0.000000 0.000000 0.000000 0.033612
#
#
# Mechanical properties :
#
#
# Convention : Reuss Voigt Hill
#
# Bulk Modulus (GPa) = 24.02104 45.90431 34.96268
# Shear Modulus (GPa) = 23.22924 32.41424 27.82174
#
# Velocity S-wave (km/s) = 3.67064 4.33603 4.01713
# Velocity P-wave (km/s) = 5.64780 7.18985 6.46496
#
# Compressibility (1/GPa) = 0.04163017
#
# Stress axis : x y z
#
# Youngs Moduli (GPa) = 118.87328 22.03501 118.00192
#
# Poissons Ratio (x) = 0.15090 0.15366
# Poissons Ratio (y) = 0.81409 0.25593
# Poissons Ratio (z) = 0.15480 0.04779
#
# Static dielectric constant tensor:
#      x y z
#    x 1.658880 0.000000 0.000000 
#    y 0.000000 1.570550 0.000000 
#    z 0.000000 0.000000 1.618530 
# 
# From -- ./inp_files/31672.got.cif
#   From: 2010.05.17/outbox.cif.g08.bks.cpg/sg72_16_cif.got.tgz:31672.got - 2010.06.03 17:03:01.
