data_PCOD9524638
_publ_section_title
;
Structure prediction by ZEFSAII (Michael W. Deem and Ramdas Pophale) SiO2 
 PCOD9524638
Probable space group: I M M M
;
_chemical_formula_sum "Si O2"
_cell_formula_units_Z 88
_cell_length_a 20.071265
_cell_length_b 9.470529
_cell_length_c 33.100140
_cell_angle_alpha 90.000000
_cell_angle_beta 90.000000
_cell_angle_gamma 90.000000
_cell_volume 6291.856571
_symmetry_space_group_name_H-M "I M M M"
_symmetry_group_IT_number 71
_symmetry_cell_setting 'orthorhombic'
loop_
_space_group_symop_operation_xyz
x,y,z
-x,-y,z
x,-y,-z
-x,y,-z
-x,-y,-z
x,y,-z
-x,y,z
x,-y,z
1/2+x,1/2+y,1/2+z
1/2-x,1/2-y,1/2+z
1/2+x,1/2-y,1/2-z
1/2-x,1/2+y,1/2-z
1/2-x,1/2-y,1/2-z
1/2+x,1/2+y,1/2-z
1/2-x,1/2+y,1/2+z
1/2+x,1/2-y,1/2+z
loop_
_atom_site_type_symbol
_atom_site_label
_atom_site_fract_x
_atom_site_fract_y
_atom_site_fract_z
Si Si1 0.574719 0.666316 0.679158
Si Si2 0.646721 0.162562 0.745498
Si Si3 0.867945 0.832309 0.047157
Si Si4 0.219669 0.837365 0.310440
Si Si5 0.000000 0.339626 0.049020
Si Si6 0.795214 0.833462 0.875150
O O1 0.500000 0.696408 0.664211
O O2 0.578136 0.500000 0.689788
O O3 0.592276 0.759143 0.718178
O O4 0.633003 0.689895 0.646607
O O5 0.714018 0.163185 0.717955
O O6 0.665191 0.249187 0.785571
O O7 0.630012 0.000000 0.753862
O O8 0.808286 0.800561 0.077986
O O9 0.933267 0.744883 0.059519
O O10 0.882677 0.000000 0.051088
O O11 0.853307 0.804119 0.000000
O O12 0.242128 0.760343 0.351421
O O13 0.200445 0.000000 0.316444
O O14 0.000000 0.500000 0.064498
O O15 0.000000 0.345386 0.000000
O O16 0.779395 0.000000 0.870514
#
# Coordination Sequence:
#
# PCOD9524638 Si02
#       6
#    16  16  16  16   8  16
#     4   9  17  27  38  53  74  99 125 153 188 226
#     4   9  16  26  40  55  72  93 118 148 183 221
#     4   9  17  28  41  54  69  93 125 158 192 231
#     4   9  16  26  40  56  73  91 117 149 185 224
#     4   9  17  27  37  49  65  87 117 153 191 229
#     4   9  17  27  40  55  73  95 124 159 193 226
#
# _framework density 13.986333
#
# number of rings (size 3 to 8) (size 9 to 14) (size 15 to 20)
#    0.000    3.000    0.000    1.364    1.273    6.545 
#    0.000    0.000    0.000    0.000    0.000    0.000 
#    0.000    0.000    0.000    0.000    0.000    0.909 
#
# Total GULP energy -245013.908746 kJ/mol
# GULP energy per Si atom -5568.497926 kJ/mol
# Density = 1.395450 g / cm^3
# Si number density = 13.986333 Si / 1000 Ang^3
#
#
#
# Elastic Constant Matrix: (Units=GPa)
#
#
# Indices 1 2 3 4 5 6 
#
# 1 8.3287 9.7048 10.1839 0.0000 0.0000 0.0000
# 2 9.7048 59.2414 43.6250 0.0000 0.0000 0.0000
# 3 10.1839 43.6250 71.8021 0.0000 0.0000 0.0000
# 4 0.0000 0.0000 0.0000 16.2602 0.0000 0.0000
# 5 0.0000 0.0000 0.0000 0.0000 21.3279 0.0000
# 6 0.0000 0.0000 0.0000 0.0000 0.0000 14.0732
#
#
#
# Elastic Compliance Matrix: (Units=1/GPa)
#
#
# Indices 1 2 3 4 5 6 
#
# 1 0.153695 -0.016514 -0.011766 0.000000 0.000000 0.000000
# 2 -0.016514 0.032322 -0.017296 0.000000 0.000000 0.000000
# 3 -0.011766 -0.017296 0.026104 0.000000 0.000000 0.000000
# 4 0.000000 0.000000 0.000000 0.061500 0.000000 0.000000
# 5 0.000000 0.000000 0.000000 0.000000 0.046887 0.000000
# 6 0.000000 0.000000 0.000000 0.000000 0.000000 0.071057
#
#
# Mechanical properties :
#
#
# Convention : Reuss Voigt Hill
#
# Bulk Modulus (GPa) = 8.26645 29.59995 18.93320
# Shear Modulus (GPa) = 9.55952 15.38948 12.47450
#
# Velocity S-wave (km/s) = 2.61720 3.32071 2.98972
# Velocity P-wave (km/s) = 3.88023 5.99268 5.04819
#
# Compressibility (1/GPa) = 0.12097092
#
# Stress axis : x y z
#
# Youngs Moduli (GPa) = 6.50639 30.93897 38.30801
#
# Poissons Ratio (x) = 0.51092 0.45072
# Poissons Ratio (y) = 0.10745 0.66256
# Poissons Ratio (z) = 0.07655 0.53511
#
# Static dielectric constant tensor:
#      x y z
#    x 1.432170 0.000000 0.000000 
#    y 0.000000 1.474130 0.000000 
#    z 0.000000 0.000000 1.472180 
# 
# From -- ./inp_files/13534.got.cif
#   From: 2010.05.17/outbox.cif.g08.bks.cpg/sg71_7_cif.got.tgz:13534.got - 2010.06.03 16:22:01.
