data_PCOD9524737
_publ_section_title
;
Structure prediction by ZEFSAII (Michael W. Deem and Ramdas Pophale) SiO2 
 PCOD9524737
Probable space group: I M M M
;
_chemical_formula_sum "Si O2"
_cell_formula_units_Z 44
_cell_length_a 30.000000
_cell_length_b 18.000000
_cell_length_c 9.000000
_cell_angle_alpha 90.000000
_cell_angle_beta 90.000000
_cell_angle_gamma 90.000000
_cell_volume 4860.000000
_symmetry_space_group_name_H-M "I M M M"
_symmetry_group_IT_number 71
_symmetry_cell_setting 'orthorhombic'
loop_
_space_group_symop_operation_xyz
x,y,z
-x,-y,z
x,-y,-z
-x,y,-z
-x,-y,-z
x,y,-z
-x,y,z
x,-y,z
1/2+x,1/2+y,1/2+z
1/2-x,1/2-y,1/2+z
1/2+x,1/2-y,1/2-z
1/2-x,1/2+y,1/2-z
1/2-x,1/2-y,1/2-z
1/2+x,1/2+y,1/2-z
1/2-x,1/2+y,1/2+z
1/2+x,1/2-y,1/2+z
loop_
_atom_site_type_symbol
_atom_site_label
_atom_site_fract_x
_atom_site_fract_y
_atom_site_fract_z
Si Si1 0.500000 0.912546 0.680849
Si Si2 0.822456 0.000000 0.820848
Si Si3 0.315399 0.805680 0.678480
Si Si4 0.927277 0.000000 0.822822
Si Si5 0.225821 0.853174 0.820959
Si Si6 0.552132 0.656068 0.170011
Si Si7 0.083241 0.693275 0.179669
O O1 0.500000 0.913741 0.500000
O O2 0.455610 0.865280 0.725555
O O3 0.500000 0.000000 0.728362
O O4 0.874581 0.000000 0.794124
O O5 0.799387 0.074282 0.765033
O O6 0.817247 0.000000 0.000000
O O7 0.312186 0.812826 0.500000
O O8 0.275231 0.849648 0.754513
O O9 0.303069 0.720034 0.717009
O O10 0.365796 0.827140 0.721467
O O11 0.944175 0.076491 0.750705
O O12 0.936008 0.000000 0.000000
O O13 0.228978 0.854518 0.000000
O O14 0.500000 0.675159 0.165650
O O15 0.574750 0.724550 0.255236
O O16 0.568578 0.650006 0.000000
O O17 0.081404 0.698084 0.000000
#
# Coordination Sequence:
#
# PCOD9524737 Si02
#       7
#     8   8  16   8  16  16  16
#     4   9  18  34  57  84 109 134 173 229 282 325
#     4   9  18  34  54  77 104 137 177 222 263 311
#     4   9  18  32  51  78 105 133 172 220 262 310
#     4  11  22  36  57  82 110 148 191 227 264 316
#     4   9  17  32  52  72 102 138 172 209 259 315
#     4  11  23  37  53  78 115 149 182 227 275 320
#     4  10  19  35  59  82 106 141 186 227 272 332
#
# _framework density 9.0534979999999994
#
# number of rings (size 3 to 8) (size 9 to 14) (size 15 to 20)
#    0.000    2.273    0.909    2.182    0.000    5.818 
#    1.636    5.909    0.000    1.091    0.000    0.000 
#    0.000    0.000    0.000    0.000    0.000    0.000 
#
# Total GULP energy -245310.206677 kJ/mol
# GULP energy per Si atom -5575.231970 kJ/mol
# Density = 0.903289 g / cm^3
# Si number density = 9.053498 Si / 1000 Ang^3
#
#
#
# Elastic Constant Matrix: (Units=GPa)
#
#
# Indices 1 2 3 4 5 6 
#
# 1 115.7597 24.7014 19.2475 0.0000 0.0000 0.0000
# 2 24.7014 57.3160 12.3756 0.0000 0.0000 0.0000
# 3 19.2475 12.3756 24.5112 0.0000 0.0000 0.0000
# 4 0.0000 0.0000 0.0000 17.0268 0.0000 0.0000
# 5 0.0000 0.0000 0.0000 0.0000 27.4691 0.0000
# 6 0.0000 0.0000 0.0000 0.0000 0.0000 25.5346
#
#
#
# Elastic Compliance Matrix: (Units=1/GPa)
#
#
# Indices 1 2 3 4 5 6 
#
# 1 0.010390 -0.003048 -0.006619 0.000000 0.000000 0.000000
# 2 -0.003048 0.020476 -0.007945 0.000000 0.000000 0.000000
# 3 -0.006619 -0.007945 0.050007 0.000000 0.000000 0.000000
# 4 0.000000 0.000000 0.000000 0.058731 0.000000 0.000000
# 5 0.000000 0.000000 0.000000 0.000000 0.036405 0.000000
# 6 0.000000 0.000000 0.000000 0.000000 0.000000 0.039163
#
#
# Mechanical properties :
#
#
# Convention : Reuss Voigt Hill
#
# Bulk Modulus (GPa) = 21.90683 34.47066 28.18874
# Shear Modulus (GPa) = 18.82449 23.42359 21.12404
#
# Velocity S-wave (km/s) = 3.22782 3.60060 3.41929
# Velocity P-wave (km/s) = 5.10064 6.03028 5.58484
#
# Compressibility (1/GPa) = 0.04564787
#
# Stress axis : x y z
#
# Youngs Moduli (GPa) = 96.24931 48.83705 19.99731
#
# Poissons Ratio (x) = 0.14887 0.13237
# Poissons Ratio (y) = 0.29340 0.15887
# Poissons Ratio (z) = 0.63712 0.38799
#
# Static dielectric constant tensor:
#      x y z
#    x 1.635700 0.000000 0.000000 
#    y 0.000000 1.610170 0.000000 
#    z 0.000000 0.000000 1.622870 
# 
# From -- ./inp_files/8935.got.cif
#   From: 2010.05.17/outbox.ucp.g08.bks.cvg/sg71_5_cif.got.tgz:8935.got - 2010.06.11 16:29:00.
