data_PCOD9524414
_publ_section_title
;
Structure prediction by ZEFSAII (Michael W. Deem and Ramdas Pophale) SiO2 
 PCOD9524414
Probable space group: I M M M
;
_chemical_formula_sum "Si O2"
_cell_formula_units_Z 44
_cell_length_a 29.207957
_cell_length_b 7.703760
_cell_length_c 9.656348
_cell_angle_alpha 90.000000
_cell_angle_beta 90.000000
_cell_angle_gamma 90.000000
_cell_volume 2172.785397
_symmetry_space_group_name_H-M "I M M M"
_symmetry_group_IT_number 71
_symmetry_cell_setting 'orthorhombic'
loop_
_space_group_symop_operation_xyz
x,y,z
-x,-y,z
x,-y,-z
-x,y,-z
-x,-y,-z
x,y,-z
-x,y,z
x,-y,z
1/2+x,1/2+y,1/2+z
1/2-x,1/2-y,1/2+z
1/2+x,1/2-y,1/2-z
1/2-x,1/2+y,1/2-z
1/2-x,1/2-y,1/2-z
1/2+x,1/2+y,1/2-z
1/2-x,1/2+y,1/2+z
1/2+x,1/2-y,1/2+z
loop_
_atom_site_type_symbol
_atom_site_label
_atom_site_fract_x
_atom_site_fract_y
_atom_site_fract_z
Si Si1 0.553745 0.291343 0.000000
Si Si2 0.294657 0.292305 0.839701
Si Si3 0.892478 0.693595 0.774866
Si Si4 0.094796 0.000000 0.000000
O O1 0.577960 0.218790 0.863817
O O2 0.559513 0.500000 0.000000
O O3 0.500000 0.251555 0.000000
O O4 0.301144 0.500000 0.839749
O O5 0.250000 0.250000 0.750000
O O6 0.339405 0.211254 0.770339
O O7 0.289625 0.235944 0.000000
O O8 0.900307 0.500000 0.830375
O O9 0.903870 0.846963 0.880076
#
# Coordination Sequence:
#
# PCOD9524414 Si02
#       4
#     8  16  16   4
#     4  11  23  47  80 108 141 186 240 303 363 423
#     4  11  24  41  63  95 139 183 233 288 350 418
#     4  12  25  45  72 104 140 187 239 293 359 425
#     4  12  26  46  69  96 148 186 224 288 357 418
#
# _framework density 20.250502999999998
#
# number of rings (size 3 to 8) (size 9 to 14) (size 15 to 20)
#    0.000    0.545    5.455    2.182    2.545    3.636 
#    0.000    1.818    0.000    2.182    0.000    0.000 
#    0.000    0.000    0.000    0.000    0.000    0.000 
#
# Total GULP energy -122578.032363 kJ/mol
# GULP energy per Si atom -5571.728744 kJ/mol
# Density = 2.020441 g / cm^3
# Si number density = 20.250503 Si / 1000 Ang^3
#
#
#
# Elastic Constant Matrix: (Units=GPa)
#
#
# Indices 1 2 3 4 5 6 
#
# 1 89.5761 35.9644 27.2465 0.0000 0.0000 0.0000
# 2 35.9644 190.9643 79.0268 0.0000 0.0000 0.0000
# 3 27.2465 79.0268 161.3039 0.0000 0.0000 0.0000
# 4 0.0000 0.0000 0.0000 9.1143 0.0000 0.0000
# 5 0.0000 0.0000 0.0000 0.0000 27.3944 0.0000
# 6 0.0000 0.0000 0.0000 0.0000 0.0000 21.9268
#
#
#
# Elastic Compliance Matrix: (Units=1/GPa)
#
#
# Indices 1 2 3 4 5 6 
#
# 1 0.012253 -0.001820 -0.001178 0.000000 0.000000 0.000000
# 2 -0.001820 0.006839 -0.003043 0.000000 0.000000 0.000000
# 3 -0.001178 -0.003043 0.007889 0.000000 0.000000 0.000000
# 4 0.000000 0.000000 0.000000 0.109718 0.000000 0.000000
# 5 0.000000 0.000000 0.000000 0.000000 0.036504 0.000000
# 6 0.000000 0.000000 0.000000 0.000000 0.000000 0.045606
#
#
# Mechanical properties :
#
#
# Convention : Reuss Voigt Hill
#
# Bulk Modulus (GPa) = 67.12035 80.70222 73.91128
# Shear Modulus (GPa) = 21.19931 31.66087 26.43009
#
# Velocity S-wave (km/s) = 3.23902 3.95835 3.61662
# Velocity P-wave (km/s) = 6.87061 7.79935 7.34967
#
# Compressibility (1/GPa) = 0.01489861
#
# Stress axis : x y z
#
# Youngs Moduli (GPa) = 81.61433 146.22795 126.75425
#
# Poissons Ratio (x) = 0.26615 0.14931
# Poissons Ratio (y) = 0.14855 0.38571
# Poissons Ratio (z) = 0.09614 0.44497
#
# Static dielectric constant tensor:
#      x y z
#    x 1.688050 0.000000 0.000000 
#    y 0.000000 1.730980 0.000000 
#    z 0.000000 0.000000 1.672820 
# 
# From -- ./inp_files/2085.got.cif
#   From: 2010.05.17/outbox.cif.g08.bks.cpg/sg71_2_cif.got.tgz:2085.got - 2010.06.03 16:22:01.
