data_PCOD9524969
_publ_section_title
;
Structure prediction by ZEFSAII (Michael W. Deem and Ramdas Pophale) SiO2 
 PCOD9524969
Probable space group: I B A M
;
_chemical_formula_sum "Si O2"
_cell_formula_units_Z 88
_cell_length_a 32.862728
_cell_length_b 5.081951
_cell_length_c 32.666748
_cell_angle_alpha 90.000000
_cell_angle_beta 90.000000
_cell_angle_gamma 90.000000
_cell_volume 5455.568182
_symmetry_space_group_name_H-M "I B A M"
_symmetry_group_IT_number 72
_symmetry_cell_setting 'orthorhombic'
loop_
_space_group_symop_operation_xyz
x,y,z
-x,-y,z
x,-y,1/2-z
-x,y,1/2-z
-x,-y,-z
x,y,-z
-x,y,1/2+z
x,-y,1/2+z
1/2+x,1/2+y,1/2+z
1/2-x,1/2-y,1/2+z
1/2+x,1/2-y,-z
1/2-x,1/2+y,-z
1/2-x,1/2-y,1/2-z
1/2+x,1/2+y,1/2-z
1/2-x,1/2+y,z
1/2+x,1/2-y,z
loop_
_atom_site_type_symbol
_atom_site_label
_atom_site_fract_x
_atom_site_fract_y
_atom_site_fract_z
Si Si1 0.888132 0.468856 0.952065
Si Si2 0.161512 0.037999 0.930050
Si Si3 0.027093 0.760885 0.047018
Si Si4 0.776840 0.117979 0.500000
Si Si5 0.777142 0.815348 0.634758
Si Si6 0.204445 0.245213 0.730568
O O1 0.871430 0.725189 0.928025
O O2 0.930006 0.340059 0.935454
O O3 0.857257 0.224204 0.950186
O O4 0.893911 0.549048 0.000000
O O5 0.184567 0.927256 0.890181
O O6 0.195609 0.154594 0.960257
O O7 0.000000 0.500000 0.045709
O O8 0.036860 0.845600 0.000000
O O9 0.000000 0.000000 0.064885
O O10 0.740660 0.325042 0.500000
O O11 0.759007 0.525920 0.625888
O O12 0.789179 0.793631 0.682579
O O13 0.184383 0.500000 0.750000
O O14 0.250000 0.250000 0.750000
O O15 0.182164 0.000000 0.750000
#
# Coordination Sequence:
#
# PCOD9524969 Si02
#       6
#    16  16  16   8  16  16
#     4  11  20  36  50  64  93 125 154 194 244 304
#     4  12  23  34  47  65  88 126 162 197 257 284
#     4   9  17  29  49  73  88 107 146 194 236 281
#     4  12  22  36  46  56  80 118 172 212 232 272
#     4  12  21  33  48  67  89 115 160 215 240 287
#     4  10  16  30  49  67  85 107 142 195 258 300
#
# _framework density 16.130310000000001
#
# number of rings (size 3 to 8) (size 9 to 14) (size 15 to 20)
#    0.000    1.091    5.455    4.364    0.000    2.909 
#    0.000    0.000    0.000    0.000    0.000    0.000 
#    0.000    0.000    0.000    0.000    0.000   25.455 
#
# Total GULP energy -245047.643380 kJ/mol
# GULP energy per Si atom -5569.264622 kJ/mol
# Density = 1.609360 g / cm^3
# Si number density = 16.130310 Si / 1000 Ang^3
#
#
#
# Elastic Constant Matrix: (Units=GPa)
#
#
# Indices 1 2 3 4 5 6 
#
# 1 58.3782 20.3012 29.9888 0.0000 0.0000 0.0000
# 2 20.3012 118.6340 18.3567 0.0000 0.0000 0.0000
# 3 29.9888 18.3567 65.9321 0.0000 0.0000 0.0000
# 4 0.0000 0.0000 0.0000 17.3050 0.0000 0.0000
# 5 0.0000 0.0000 0.0000 0.0000 3.5193 0.0000
# 6 0.0000 0.0000 0.0000 0.0000 0.0000 30.5571
#
#
#
# Elastic Compliance Matrix: (Units=1/GPa)
#
#
# Indices 1 2 3 4 5 6 
#
# 1 0.022999 -0.002421 -0.009787 0.000000 0.000000 0.000000
# 2 -0.002421 0.009064 -0.001422 0.000000 0.000000 0.000000
# 3 -0.009787 -0.001422 0.020015 0.000000 0.000000 0.000000
# 4 0.000000 0.000000 0.000000 0.057787 0.000000 0.000000
# 5 0.000000 0.000000 0.000000 0.000000 0.284145 0.000000
# 6 0.000000 0.000000 0.000000 0.000000 0.000000 0.032726
#
#
# Mechanical properties :
#
#
# Convention : Reuss Voigt Hill
#
# Bulk Modulus (GPa) = 40.29550 42.24863 41.27207
# Shear Modulus (GPa) = 10.81624 21.89612 16.35618
#
# Velocity S-wave (km/s) = 2.59232 3.68836 3.18780
# Velocity P-wave (km/s) = 5.83057 6.66240 6.26032
#
# Compressibility (1/GPa) = 0.02481667
#
# Stress axis : x y z
#
# Youngs Moduli (GPa) = 43.47964 110.33025 49.96354
#
# Poissons Ratio (x) = 0.26715 0.48899
# Poissons Ratio (y) = 0.10528 0.07106
# Poissons Ratio (z) = 0.42553 0.15691
#
# Static dielectric constant tensor:
#      x y z
#    x 1.553750 0.000000 0.000000 
#    y 0.000000 1.571250 0.000000 
#    z 0.000000 0.000000 1.531440 
# 
# From -- ./inp_files/52486.got.cif
#   From: 2010.05.17/outbox.cif.g08.bks.cpg/sg72_27_cif.got.tgz:52486.got - 2010.06.03 17:03:01.
