data_PCOD9524875
_publ_section_title
;
Structure prediction by ZEFSAII (Michael W. Deem and Ramdas Pophale) SiO2 
 PCOD9524875
Probable space group: I M M M
;
_chemical_formula_sum "Si O2"
_cell_formula_units_Z 48
_cell_length_a 30.000000
_cell_length_b 12.000000
_cell_length_c 15.000000
_cell_angle_alpha 90.000000
_cell_angle_beta 90.000000
_cell_angle_gamma 90.000000
_cell_volume 5400.000000
_symmetry_space_group_name_H-M "I M M M"
_symmetry_group_IT_number 71
_symmetry_cell_setting 'orthorhombic'
loop_
_space_group_symop_operation_xyz
x,y,z
-x,-y,z
x,-y,-z
-x,y,-z
-x,-y,-z
x,y,-z
-x,y,z
x,-y,z
1/2+x,1/2+y,1/2+z
1/2-x,1/2-y,1/2+z
1/2+x,1/2-y,1/2-z
1/2-x,1/2+y,1/2-z
1/2-x,1/2-y,1/2-z
1/2+x,1/2+y,1/2-z
1/2-x,1/2+y,1/2+z
1/2+x,1/2-y,1/2+z
loop_
_atom_site_type_symbol
_atom_site_label
_atom_site_fract_x
_atom_site_fract_y
_atom_site_fract_z
Si Si1 0.170981 0.000000 0.391278
Si Si2 0.699227 0.133150 0.895696
Si Si3 0.946743 0.875293 0.500000
Si Si4 0.296413 0.748280 0.606577
Si Si5 0.946543 0.500000 0.600116
Si Si6 0.775434 0.500000 0.893153
Si Si7 0.355869 0.707438 0.771526
Si Si8 0.052975 0.261527 0.679402
O O1 0.223562 0.000000 0.369294
O O2 0.151210 0.893477 0.340923
O O3 0.167668 0.000000 0.500000
O O4 0.747090 0.194509 0.883559
O O5 0.664981 0.188470 0.826764
O O6 0.703427 0.000000 0.882494
O O7 0.686086 0.152159 0.000000
O O8 0.937288 0.806978 0.588800
O O9 0.000000 0.885625 0.500000
O O10 0.927802 0.000000 0.500000
O O11 0.307668 0.738323 0.500000
O O12 0.329168 0.693137 0.678961
O O13 0.295139 0.879986 0.632637
O O14 0.926715 0.500000 0.500000
O O15 0.937157 0.611045 0.654038
O O16 0.000000 0.500000 0.588947
O O17 0.777679 0.500000 0.000000
O O18 0.408585 0.722954 0.753712
O O19 0.000000 0.248909 0.701407
#
# Coordination Sequence:
#
# PCOD9524875 Si02
#       8
#     8  16   8  16   8   8  16  16
#     4  11  24  38  55  86 119 146 186 223 271 339
#     4  10  22  37  55  84 120 148 177 226 281 335
#     4   9  18  33  51  71 103 146 179 217 269 321
#     4  10  22  40  59  82 112 147 190 235 280 329
#     4   9  16  31  52  72 101 144 182 213 266 336
#     4   9  18  37  59  79 113 150 178 226 280 328
#     4  12  25  35  59  83 110 151 191 229 278 329
#     4  10  22  36  51  76 109 144 184 228 275 326
#
# _framework density 8.8888890000000007
#
# number of rings (size 3 to 8) (size 9 to 14) (size 15 to 20)
#    0.000    1.833    2.500    1.000    7.000    0.000 
#    0.000    0.000    0.000    0.500    0.000    0.000 
#    0.000    5.333    0.000    0.000    0.000    0.000 
#
# Total GULP energy -267750.691705 kJ/mol
# GULP energy per Si atom -5578.139411 kJ/mol
# Density = 0.886866 g / cm^3
# Si number density = 8.888889 Si / 1000 Ang^3
#
#
#
# Elastic Constant Matrix: (Units=GPa)
#
#
# Indices 1 2 3 4 5 6 
#
# 1 93.4641 11.4688 46.7612 0.0000 0.0000 0.0000
# 2 11.4688 98.0641 25.2656 0.0000 0.0000 0.0000
# 3 46.7612 25.2656 66.9061 0.0000 0.0000 0.0000
# 4 0.0000 0.0000 0.0000 17.0025 0.0000 0.0000
# 5 0.0000 0.0000 0.0000 0.0000 10.5307 0.0000
# 6 0.0000 0.0000 0.0000 0.0000 0.0000 -130.3287
#
#
#
# Elastic Compliance Matrix: (Units=1/GPa)
#
#
# Indices 1 2 3 4 5 6 
#
# 1 0.016570 0.001159 -0.012019 0.000000 0.000000 0.000000
# 2 0.001159 0.011377 -0.005106 0.000000 0.000000 0.000000
# 3 -0.012019 -0.005106 0.025274 0.000000 0.000000 0.000000
# 4 0.000000 0.000000 0.000000 0.058815 0.000000 0.000000
# 5 0.000000 0.000000 0.000000 0.000000 0.094960 0.000000
# 6 0.000000 0.000000 0.000000 0.000000 0.000000 -0.007673
#
#
# Mechanical properties :
#
#
# Convention : Reuss Voigt Hill
#
# Bulk Modulus (GPa) = 46.97094 47.26951 47.12023
# Shear Modulus (GPa) = 20.97727 -8.89652 6.04038
#
# Velocity S-wave (km/s) = 3.43880 -2.23945 1.84529
# Velocity P-wave (km/s) = 6.49966 4.46766 5.57699
#
# Compressibility (1/GPa) = 0.02128976
#
# Stress axis : x y z
#
# Youngs Moduli (GPa) = 60.34947 87.89280 39.56571
#
# Poissons Ratio (x) = -0.10183 0.47552
# Poissons Ratio (y) = -0.06992 0.20203
# Poissons Ratio (z) = 0.72531 0.44880
#
# Static dielectric constant tensor:
#      x y z
#    x 1.627910 0.000000 0.000000 
#    y 0.000000 1.667780 0.000000 
#    z 0.000000 0.000000 1.596150 
# 
# From -- ./inp_files/40936.got.cif
#   From: 2010.05.17/outbox.ucp.g08.bks.cvg/sg71_21_cif.got.tgz:40936.got - 2010.06.11 16:29:00.
