data_PCOD9524652
_publ_section_title
;
Structure prediction by ZEFSAII (Michael W. Deem and Ramdas Pophale) SiO2 
 PCOD9524652
Probable space group: I M M M
;
_chemical_formula_sum "Si O2"
_cell_formula_units_Z 72
_cell_length_a 29.911877
_cell_length_b 7.386053
_cell_length_c 16.144583
_cell_angle_alpha 90.000000
_cell_angle_beta 90.000000
_cell_angle_gamma 90.000000
_cell_volume 3566.834166
_symmetry_space_group_name_H-M "I M M M"
_symmetry_group_IT_number 71
_symmetry_cell_setting 'orthorhombic'
loop_
_space_group_symop_operation_xyz
x,y,z
-x,-y,z
x,-y,-z
-x,y,-z
-x,-y,-z
x,y,-z
-x,y,z
x,-y,z
1/2+x,1/2+y,1/2+z
1/2-x,1/2-y,1/2+z
1/2+x,1/2-y,1/2-z
1/2-x,1/2+y,1/2-z
1/2-x,1/2-y,1/2-z
1/2+x,1/2+y,1/2-z
1/2-x,1/2+y,1/2+z
1/2+x,1/2-y,1/2+z
loop_
_atom_site_type_symbol
_atom_site_label
_atom_site_fract_x
_atom_site_fract_y
_atom_site_fract_z
Si Si1 0.318764 0.710852 0.592637
Si Si2 0.949217 0.215874 0.771322
Si Si3 0.645448 0.279802 0.767885
Si Si4 0.214353 0.219036 0.593072
Si Si5 0.553314 0.000000 0.590246
O O1 0.327371 0.787161 0.500000
O O2 0.331938 0.500000 0.589047
O O3 0.340997 0.786511 0.675963
O O4 0.265311 0.720579 0.606257
O O5 0.906596 0.262841 0.714632
O O6 0.938503 0.321585 0.855880
O O7 0.000000 0.266088 0.745076
O O8 0.948936 0.000000 0.784106
O O9 0.648753 0.500000 0.766474
O O10 0.680311 0.216631 0.836793
O O11 0.201055 0.274236 0.500000
O O12 0.214909 0.000000 0.595154
O O13 0.500000 0.000000 0.580653
O O14 0.574434 0.000000 0.500000
#
# Coordination Sequence:
#
# PCOD9524652 Si02
#       5
#    16  16  16  16   8
#     4   9  17  29  44  64  93 124 154 193 237 285
#     4   9  18  33  51  70  96 131 167 202 244 290
#     4   9  17  30  48  69  92 124 162 196 240 292
#     4   9  17  30  47  67  94 123 154 198 245 289
#     4   9  18  32  48  70  99 127 163 207 244 286
#
# _framework density 20.185967000000002
#
# number of rings (size 3 to 8) (size 9 to 14) (size 15 to 20)
#    0.000    3.000    0.000    0.667    0.000    1.333 
#    4.000    4.444    0.000    0.667    0.000    4.667 
#    0.000    2.667    0.000    0.222    0.000    0.000 
#
# Total GULP energy -200591.911308 kJ/mol
# GULP energy per Si atom -5571.997536 kJ/mol
# Density = 2.014002 g / cm^3
# Si number density = 20.185967 Si / 1000 Ang^3
#
#
#
# Elastic Constant Matrix: (Units=GPa)
#
#
# Indices 1 2 3 4 5 6 
#
# 1 129.1342 1.3428 73.1646 0.0000 0.0000 0.0000
# 2 1.3428 63.5641 1.0436 0.0000 0.0000 0.0000
# 3 73.1646 1.0436 88.0918 0.0000 0.0000 0.0000
# 4 0.0000 0.0000 0.0000 3.6998 0.0000 0.0000
# 5 0.0000 0.0000 0.0000 0.0000 7.3727 0.0000
# 6 0.0000 0.0000 0.0000 0.0000 0.0000 10.8741
#
#
#
# Elastic Compliance Matrix: (Units=1/GPa)
#
#
# Indices 1 2 3 4 5 6 
#
# 1 0.014628 -0.000110 -0.012148 0.000000 0.000000 0.000000
# 2 -0.000110 0.015736 -0.000095 0.000000 0.000000 0.000000
# 3 -0.012148 -0.000095 0.021442 0.000000 0.000000 0.000000
# 4 0.000000 0.000000 0.000000 0.270282 0.000000 0.000000
# 5 0.000000 0.000000 0.000000 0.000000 0.135635 0.000000
# 6 0.000000 0.000000 0.000000 0.000000 0.000000 0.091962
#
#
# Mechanical properties :
#
#
# Convention : Reuss Voigt Hill
#
# Bulk Modulus (GPa) = 36.89969 47.98803 42.44386
# Shear Modulus (GPa) = 8.57011 18.07194 13.32103
#
# Velocity S-wave (km/s) = 2.06272 2.99536 2.57167
# Velocity P-wave (km/s) = 4.89823 5.98226 5.46718
#
# Compressibility (1/GPa) = 0.02710050
#
# Stress axis : x y z
#
# Youngs Moduli (GPa) = 68.36383 63.54843 46.63710
#
# Poissons Ratio (x) = 0.00696 0.56653
# Poissons Ratio (y) = 0.00749 0.00445
# Poissons Ratio (z) = 0.83046 0.00606
#
# Static dielectric constant tensor:
#      x y z
#    x 1.730790 0.000000 0.000000 
#    y 0.000000 1.700610 0.000000 
#    z 0.000000 0.000000 1.713630 
# 
# From -- ./inp_files/6488.got.cif
#   From: 2010.05.17/outbox.cif.g08.bks.cpg/sg71_4_cif.got.tgz:6488.got - 2010.06.03 16:22:01.
