data_PCOD9524662
_publ_section_title
;
Structure prediction by ZEFSAII (Michael W. Deem and Ramdas Pophale) SiO2 
 PCOD9524662
Probable space group: I M M M
;
_chemical_formula_sum "Si O2"
_cell_formula_units_Z 40
_cell_length_a 24.000000
_cell_length_b 27.000000
_cell_length_c 9.000000
_cell_angle_alpha 90.000000
_cell_angle_beta 90.000000
_cell_angle_gamma 90.000000
_cell_volume 5832.000000
_symmetry_space_group_name_H-M "I M M M"
_symmetry_group_IT_number 71
_symmetry_cell_setting 'orthorhombic'
loop_
_space_group_symop_operation_xyz
x,y,z
-x,-y,z
x,-y,-z
-x,y,-z
-x,-y,-z
x,y,-z
-x,y,z
x,-y,z
1/2+x,1/2+y,1/2+z
1/2-x,1/2-y,1/2+z
1/2+x,1/2-y,1/2-z
1/2-x,1/2+y,1/2-z
1/2-x,1/2-y,1/2-z
1/2+x,1/2+y,1/2-z
1/2-x,1/2+y,1/2+z
1/2+x,1/2-y,1/2+z
loop_
_atom_site_type_symbol
_atom_site_label
_atom_site_fract_x
_atom_site_fract_y
_atom_site_fract_z
Si Si1 0.189501 0.850834 0.679812
Si Si2 0.000000 0.897042 0.679559
Si Si3 0.616603 0.555621 0.180475
Si Si4 0.215961 0.703616 0.321006
Si Si5 0.377188 0.258798 0.678329
Si Si6 0.500000 0.710336 0.675518
O O1 0.192062 0.844921 0.500000
O O2 0.162699 0.903594 0.718058
O O3 0.249655 0.842192 0.754278
O O4 0.148956 0.808573 0.748437
O O5 0.943979 0.924808 0.729469
O O6 0.000000 0.840986 0.735926
O O7 0.000000 0.896571 0.500000
O O8 0.627280 0.500000 0.233716
O O9 0.614848 0.554237 0.000000
O O10 0.217343 0.705016 0.500000
O O11 0.250000 0.750000 0.250000
O O12 0.154626 0.713283 0.256357
O O13 0.366750 0.259031 0.500000
O O14 0.443086 0.260403 0.705569
O O15 0.500000 0.698035 0.500000
#
# Coordination Sequence:
#
# PCOD9524662 Si02
#       6
#    16   8  16  16  16   8
#     4  10  17  27  43  60  78 102 134 171 208 243
#     4  10  17  28  44  58  76 106 144 181 209 241
#     4   9  17  27  41  61  81 104 139 180 214 241
#     4  10  18  28  42  59  78 100 129 165 204 246
#     4  10  18  29  42  58  80 105 133 164 202 245
#     4  10  20  29  41  59  84 110 133 169 210 243
#
# _framework density 6.8587109999999996
#
# number of rings (size 3 to 8) (size 9 to 14) (size 15 to 20)
#    0.000    2.200    2.000    5.700    0.000    2.000 
#    0.000    0.000    0.000    6.000    0.000    0.000 
#    0.000    0.000    0.000    0.900    0.000   20.600 
#
# Total GULP energy -222814.836991 kJ/mol
# GULP energy per Si atom -5570.370925 kJ/mol
# Density = 0.684310 g / cm^3
# Si number density = 6.858711 Si / 1000 Ang^3
#
#
#
# Elastic Constant Matrix: (Units=GPa)
#
#
# Indices 1 2 3 4 5 6 
#
# 1 106.9575 65.8722 43.5664 0.0000 0.0000 0.0000
# 2 65.8722 76.5100 29.1365 0.0000 0.0000 0.0000
# 3 43.5664 29.1365 73.8109 0.0000 0.0000 0.0000
# 4 0.0000 0.0000 0.0000 12.8598 0.0000 0.0000
# 5 0.0000 0.0000 0.0000 0.0000 16.8376 0.0000
# 6 0.0000 0.0000 0.0000 0.0000 0.0000 10.4249
#
#
#
# Elastic Compliance Matrix: (Units=1/GPa)
#
#
# Indices 1 2 3 4 5 6 
#
# 1 0.022322 -0.016714 -0.006578 0.000000 0.000000 0.000000
# 2 -0.016714 0.027897 -0.001147 0.000000 0.000000 0.000000
# 3 -0.006578 -0.001147 0.017884 0.000000 0.000000 0.000000
# 4 0.000000 0.000000 0.000000 0.077761 0.000000 0.000000
# 5 0.000000 0.000000 0.000000 0.000000 0.059391 0.000000
# 6 0.000000 0.000000 0.000000 0.000000 0.000000 0.095924
#
#
# Mechanical properties :
#
#
# Convention : Reuss Voigt Hill
#
# Bulk Modulus (GPa) = 52.01460 59.38095 55.69777
# Shear Modulus (GPa) = 14.02664 15.93803 14.98234
#
# Velocity S-wave (km/s) = 3.20119 3.41234 3.30845
# Velocity P-wave (km/s) = 7.18780 7.67516 7.43547
#
# Compressibility (1/GPa) = 0.01922537
#
# Stress axis : x y z
#
# Youngs Moduli (GPa) = 44.79809 35.84634 55.91745
#
# Poissons Ratio (x) = 0.59912 0.36782
# Poissons Ratio (y) = 0.74874 0.06414
# Poissons Ratio (z) = 0.29468 0.04112
#
# Static dielectric constant tensor:
#      x y z
#    x 1.488720 0.000000 0.000000 
#    y 0.000000 1.446070 0.000000 
#    z 0.000000 0.000000 1.460380 
# 
# From -- ./inp_files/13051.got.cif
#   From: 2010.05.17/outbox.ucp.g08.bks.cvg/sg71_7_cif.got.tgz:13051.got - 2010.06.11 16:29:00.
