data_PCOD9524626
_publ_section_title
;
Structure prediction by ZEFSAII (Michael W. Deem and Ramdas Pophale) SiO2 
 PCOD9524626
Probable space group: I M M M
;
_chemical_formula_sum "Si O2"
_cell_formula_units_Z 104
_cell_length_a 21.154998
_cell_length_b 9.328808
_cell_length_c 33.138637
_cell_angle_alpha 90.000000
_cell_angle_beta 90.000000
_cell_angle_gamma 90.000000
_cell_volume 6539.940320
_symmetry_space_group_name_H-M "I M M M"
_symmetry_group_IT_number 71
_symmetry_cell_setting 'orthorhombic'
loop_
_space_group_symop_operation_xyz
x,y,z
-x,-y,z
x,-y,-z
-x,y,-z
-x,-y,-z
x,y,-z
-x,y,z
x,-y,z
1/2+x,1/2+y,1/2+z
1/2-x,1/2-y,1/2+z
1/2+x,1/2-y,1/2-z
1/2-x,1/2+y,1/2-z
1/2-x,1/2-y,1/2-z
1/2+x,1/2+y,1/2-z
1/2-x,1/2+y,1/2+z
1/2+x,1/2-y,1/2+z
loop_
_atom_site_type_symbol
_atom_site_label
_atom_site_fract_x
_atom_site_fract_y
_atom_site_fract_z
Si Si1 0.572843 0.671601 0.314872
Si Si2 0.746573 0.671190 0.453802
Si Si3 0.624717 0.664064 0.048999
Si Si4 0.313460 0.670914 0.372986
Si Si5 0.348989 0.835669 0.750299
Si Si6 0.500000 0.834252 0.049306
Si Si7 0.270735 0.335892 0.188715
O O1 0.500000 0.705538 0.323426
O O2 0.578103 0.500000 0.308210
O O3 0.620239 0.708507 0.351684
O O4 0.598184 0.754029 0.275586
O O5 0.730065 0.709719 0.500000
O O6 0.758968 0.500000 0.453100
O O7 0.810448 0.753808 0.441849
O O8 0.693582 0.701921 0.420347
O O9 0.624808 0.500000 0.063408
O O10 0.563045 0.751234 0.062636
O O11 0.621368 0.659934 0.000000
O O12 0.304608 0.500000 0.367295
O O13 0.258324 0.753442 0.349269
O O14 0.327140 0.749380 0.789733
O O15 0.287232 0.838409 0.721011
O O16 0.365931 0.000000 0.759099
O O17 0.500000 0.000000 0.061888
O O18 0.500000 0.833730 0.000000
O O19 0.287515 0.500000 0.179620
#
# Coordination Sequence:
#
# PCOD9524626 Si02
#       7
#    16  16  16  16  16   8  16
#     4   9  17  29  45  66  93 124 157 193 234 279
#     4   9  17  29  44  62  86 118 157 200 245 289
#     4   9  16  25  38  58  83 108 137 177 223 269
#     4   9  17  29  45  65  90 121 157 197 239 281
#     4   9  16  26  42  65  92 118 144 176 215 263
#     4   9  15  23  37  57  81 107 133 163 205 259
#     4   9  16  26  42  65  91 116 143 177 218 265
#
# _framework density 15.902284999999999
#
# number of rings (size 3 to 8) (size 9 to 14) (size 15 to 20)
#    0.000    3.000    0.000    1.615    0.000    7.385 
#    0.000    0.000    0.000    0.462    2.000    3.231 
#    0.000    0.000    0.000   11.538    0.000   12.000 
#
# Total GULP energy -289516.203292 kJ/mol
# GULP energy per Si atom -5567.619294 kJ/mol
# Density = 1.586609 g / cm^3
# Si number density = 15.902285 Si / 1000 Ang^3
#
#
#
# Elastic Constant Matrix: (Units=GPa)
#
#
# Indices 1 2 3 4 5 6 
#
# 1 94.7994 49.8849 52.7480 0.0000 0.0000 0.0000
# 2 49.8849 67.6152 41.0951 0.0000 0.0000 0.0000
# 3 52.7480 41.0951 74.6793 0.0000 0.0000 0.0000
# 4 0.0000 0.0000 0.0000 14.9140 0.0000 0.0000
# 5 0.0000 0.0000 0.0000 0.0000 15.1596 0.0000
# 6 0.0000 0.0000 0.0000 0.0000 0.0000 15.5362
#
#
#
# Elastic Compliance Matrix: (Units=1/GPa)
#
#
# Indices 1 2 3 4 5 6 
#
# 1 0.020888 -0.009682 -0.009426 0.000000 0.000000 0.000000
# 2 -0.009682 0.026709 -0.007859 0.000000 0.000000 0.000000
# 3 -0.009426 -0.007859 0.024373 0.000000 0.000000 0.000000
# 4 0.000000 0.000000 0.000000 0.067051 0.000000 0.000000
# 5 0.000000 0.000000 0.000000 0.000000 0.065965 0.000000
# 6 0.000000 0.000000 0.000000 0.000000 0.000000 0.064366
#
#
# Mechanical properties :
#
#
# Convention : Reuss Voigt Hill
#
# Bulk Modulus (GPa) = 55.44324 58.28332 56.86328
# Shear Modulus (GPa) = 15.18377 15.34635 15.26506
#
# Velocity S-wave (km/s) = 3.09336 3.10988 3.10163
# Velocity P-wave (km/s) = 6.90646 7.04455 6.97584
#
# Compressibility (1/GPa) = 0.01803646
#
# Stress axis : x y z
#
# Youngs Moduli (GPa) = 47.87403 37.44019 41.02839
#
# Poissons Ratio (x) = 0.36249 0.38674
# Poissons Ratio (y) = 0.46351 0.32245
# Poissons Ratio (z) = 0.45127 0.29425
#
# Static dielectric constant tensor:
#      x y z
#    x 1.513560 0.000000 0.000000 
#    y 0.000000 1.538670 0.000000 
#    z 0.000000 0.000000 1.529560 
# 
# From -- ./inp_files/70730.got.cif
#   From: 2010.05.17/outbox.cif.g08.bks.cpg/sg71_36_cif.got.tgz:70730.got - 2010.06.03 16:22:01.
