data_PCOD9524627
_publ_section_title
;
Structure prediction by ZEFSAII (Michael W. Deem and Ramdas Pophale) SiO2 
 PCOD9524627
Probable space group: I M M M
;
_chemical_formula_sum "Si O2"
_cell_formula_units_Z 120
_cell_length_a 23.151529
_cell_length_b 33.040063
_cell_length_c 7.379203
_cell_angle_alpha 90.000000
_cell_angle_beta 90.000000
_cell_angle_gamma 90.000000
_cell_volume 5644.558820
_symmetry_space_group_name_H-M "I M M M"
_symmetry_group_IT_number 71
_symmetry_cell_setting 'orthorhombic'
loop_
_space_group_symop_operation_xyz
x,y,z
-x,-y,z
x,-y,-z
-x,y,-z
-x,-y,-z
x,y,-z
-x,y,z
x,-y,z
1/2+x,1/2+y,1/2+z
1/2-x,1/2-y,1/2+z
1/2+x,1/2-y,1/2-z
1/2-x,1/2+y,1/2-z
1/2-x,1/2-y,1/2-z
1/2+x,1/2+y,1/2-z
1/2-x,1/2+y,1/2+z
1/2+x,1/2-y,1/2+z
loop_
_atom_site_type_symbol
_atom_site_label
_atom_site_fract_x
_atom_site_fract_y
_atom_site_fract_z
Si Si1 0.779235 0.045734 0.221348
Si Si2 0.564348 0.859291 0.282943
Si Si3 0.000000 0.953214 0.221265
Si Si4 0.767250 0.313510 0.719351
Si Si5 0.115227 0.274753 0.790664
Si Si6 0.319822 0.101313 0.215335
Si Si7 0.134157 0.811261 0.778086
Si Si8 0.610916 0.598486 0.720929
O O1 0.717421 0.063493 0.280928
O O2 0.829869 0.076435 0.276332
O O3 0.789454 0.000000 0.282310
O O4 0.780376 0.044859 0.000000
O O5 0.562142 0.855809 0.500000
O O6 0.500000 0.867837 0.216528
O O7 0.587030 0.815568 0.211658
O O8 0.612416 0.893250 0.247339
O O9 0.056732 0.928555 0.278025
O O10 0.000000 0.000000 0.279729
O O11 0.000000 0.953841 0.000000
O O12 0.768277 0.312376 0.500000
O O13 0.815507 0.282064 0.784344
O O14 0.790229 0.357289 0.782294
O O15 0.701423 0.308894 0.776973
O O16 0.103824 0.230106 0.714964
O O17 0.096919 0.273551 0.000000
O O18 0.312225 0.101692 0.000000
O O19 0.109499 0.854687 0.721188
O O20 0.133284 0.810799 0.000000
O O21 0.610904 0.599023 0.500000
#
# Coordination Sequence:
#
# PCOD9524627 Si02
#       8
#    16  16   8  16  16  16  16  16
#     4   9  15  24  41  64  89 114 140 176 223 267
#     4   9  18  32  46  61  85 117 151 183 220 265
#     4   9  16  24  34  52  82 120 159 189 213 255
#     4   9  15  25  41  60  85 114 144 176 214 260
#     4   9  17  27  40  60  84 113 147 182 215 250
#     4   9  16  27  45  68  89 111 145 185 221 261
#     4   9  15  24  37  55  82 113 145 180 216 256
#     4   9  15  24  36  55  83 118 154 183 215 256
#
# _framework density 21.259412000000001
#
# number of rings (size 3 to 8) (size 9 to 14) (size 15 to 20)
#    0.000    3.000    1.333    0.800    0.000    1.867 
#    1.200    0.000    0.000    0.800    0.000    2.800 
#    0.000    0.000    0.000    3.000    0.000   13.600 
#
# Total GULP energy -334718.342275 kJ/mol
# GULP energy per Si atom -5578.639038 kJ/mol
# Density = 2.121102 g / cm^3
# Si number density = 21.259412 Si / 1000 Ang^3
#
#
#
# Elastic Constant Matrix: (Units=GPa)
#
#
# Indices 1 2 3 4 5 6 
#
# 1 106.1529 37.6982 -4.7495 0.0000 0.0000 0.0000
# 2 37.6982 109.7615 2.0078 0.0000 0.0000 0.0000
# 3 -4.7495 2.0078 72.9488 0.0000 0.0000 0.0000
# 4 0.0000 0.0000 0.0000 -4.6260 0.0000 0.0000
# 5 0.0000 0.0000 0.0000 0.0000 23.2396 0.0000
# 6 0.0000 0.0000 0.0000 0.0000 0.0000 12.8011
#
#
#
# Elastic Compliance Matrix: (Units=1/GPa)
#
#
# Indices 1 2 3 4 5 6 
#
# 1 0.010776 -0.003716 0.000804 0.000000 0.000000 0.000000
# 2 -0.003716 0.010397 -0.000528 0.000000 0.000000 0.000000
# 3 0.000804 -0.000528 0.013775 0.000000 0.000000 0.000000
# 4 0.000000 0.000000 0.000000 -0.216171 0.000000 0.000000
# 5 0.000000 0.000000 0.000000 0.000000 0.043030 0.000000
# 6 0.000000 0.000000 0.000000 0.000000 0.000000 0.078118
#
#
# Mechanical properties :
#
#
# Convention : Reuss Voigt Hill
#
# Bulk Modulus (GPa) = 35.62824 39.86403 37.74613
# Shear Modulus (GPa) = -114.05340 23.21005 -45.42167
#
# Velocity S-wave (km/s) = -7.33245 3.30776 -4.62729
# Velocity P-wave (km/s) = 7.40887 5.77757 3.27956
#
# Compressibility (1/GPa) = 0.02806763
#
# Stress axis : x y z
#
# Youngs Moduli (GPa) = 92.79949 96.18609 72.59463
#
# Poissons Ratio (x) = 0.35740 -0.05836
# Poissons Ratio (y) = 0.34482 0.03834
# Poissons Ratio (z) = -0.07460 0.05079
#
# Static dielectric constant tensor:
#      x y z
#    x 1.756870 0.000000 0.000000 
#    y 0.000000 1.759110 0.000000 
#    z 0.000000 0.000000 1.857290 
# 
# From -- ./inp_files/26630.got.cif
#   From: 2010.05.17/outbox.cif.g08.bks.cpg/sg71_14_cif.got.tgz:26630.got - 2010.06.03 16:22:01.
