data_PCOD9524519
_publ_section_title
;
Structure prediction by ZEFSAII (Michael W. Deem and Ramdas Pophale) SiO2 
 PCOD9524519
Probable space group: I M M M
;
_chemical_formula_sum "Si O2"
_cell_formula_units_Z 80
_cell_length_a 7.377035
_cell_length_b 14.602968
_cell_length_c 34.549333
_cell_angle_alpha 90.000000
_cell_angle_beta 90.000000
_cell_angle_gamma 90.000000
_cell_volume 3721.882385
_symmetry_space_group_name_H-M "I M M M"
_symmetry_group_IT_number 71
_symmetry_cell_setting 'orthorhombic'
loop_
_space_group_symop_operation_xyz
x,y,z
-x,-y,z
x,-y,-z
-x,y,-z
-x,-y,-z
x,y,-z
-x,y,z
x,-y,z
1/2+x,1/2+y,1/2+z
1/2-x,1/2-y,1/2+z
1/2+x,1/2-y,1/2-z
1/2-x,1/2+y,1/2-z
1/2-x,1/2-y,1/2-z
1/2+x,1/2+y,1/2-z
1/2-x,1/2+y,1/2+z
1/2+x,1/2-y,1/2+z
loop_
_atom_site_type_symbol
_atom_site_label
_atom_site_fract_x
_atom_site_fract_y
_atom_site_fract_z
Si Si1 0.282537 0.279808 0.190999
Si Si2 0.284201 0.097789 0.046692
Si Si3 0.215488 0.896452 0.235315
Si Si4 0.278316 0.298944 0.044319
Si Si5 0.721186 0.602231 0.119673
O O1 0.500000 0.287089 0.191046
O O2 0.242549 0.174058 0.200048
O O3 0.213702 0.342426 0.226761
O O4 0.218247 0.323100 0.150935
O O5 0.500000 0.097052 0.054463
O O6 0.217376 0.197748 0.058348
O O7 0.211075 0.000000 0.061191
O O8 0.263389 0.097441 0.000000
O O9 0.000000 0.904029 0.240625
O O10 0.285853 0.000000 0.230925
O O11 0.500000 0.297283 0.043372
O O12 0.222583 0.371606 0.076339
O O13 0.220337 0.314884 0.000000
O O14 0.500000 0.603026 0.119816
O O15 0.777786 0.500000 0.130675
#
# Coordination Sequence:
#
# PCOD9524519 Si02
#       5
#    16  16  16  16  16
#     4   9  17  29  45  66  91 118 148 180 215 259
#     4   7   9  14  24  36  52  79 116 156 196 236
#     4   9  17  30  48  67  88 117 150 181 216 260
#     4   8  13  20  30  47  72 103 141 179 210 247
#     4   9  16  25  37  53  77 112 149 181 216 260
#
# _framework density 21.494499000000001
#
# number of rings (size 3 to 8) (size 9 to 14) (size 15 to 20)
#    0.000    3.600    0.000    2.400    0.000    3.200 
#    0.000    3.000    0.000    5.400    0.000    0.000 
#    0.000    0.800    0.000    4.000    0.000    3.600 
#
# Total GULP energy -222843.585114 kJ/mol
# GULP energy per Si atom -5571.089628 kJ/mol
# Density = 2.144558 g / cm^3
# Si number density = 21.494499 Si / 1000 Ang^3
#
#
#
# Elastic Constant Matrix: (Units=GPa)
#
#
# Indices 1 2 3 4 5 6 
#
# 1 71.8488 2.3241 -1.0190 0.0000 0.0000 0.0000
# 2 2.3241 151.5144 60.2091 0.0000 0.0000 0.0000
# 3 -1.0190 60.2091 88.7188 0.0000 0.0000 0.0000
# 4 0.0000 0.0000 0.0000 23.2504 0.0000 0.0000
# 5 0.0000 0.0000 0.0000 0.0000 -26.4331 0.0000
# 6 0.0000 0.0000 0.0000 0.0000 0.0000 1.0158
#
#
#
# Elastic Compliance Matrix: (Units=1/GPa)
#
#
# Indices 1 2 3 4 5 6 
#
# 1 0.013936 -0.000380 0.000418 0.000000 0.000000 0.000000
# 2 -0.000380 0.009048 -0.006145 0.000000 0.000000 0.000000
# 3 0.000418 -0.006145 0.015446 0.000000 0.000000 0.000000
# 4 0.000000 0.000000 0.000000 0.043010 0.000000 0.000000
# 5 0.000000 0.000000 0.000000 0.000000 -0.037831 0.000000
# 6 0.000000 0.000000 0.000000 0.000000 0.000000 0.984437
#
#
# Mechanical properties :
#
#
# Convention : Reuss Voigt Hill
#
# Bulk Modulus (GPa) = 38.14281 48.34560 43.24420
# Shear Modulus (GPa) = 4.76645 16.27113 10.51879
#
# Velocity S-wave (km/s) = 1.49075 2.75433 2.21457
# Velocity P-wave (km/s) = 4.55489 5.71455 5.16735
#
# Compressibility (1/GPa) = 0.02621726
#
# Stress axis : x y z
#
# Youngs Moduli (GPa) = 71.75490 110.52687 64.74025
#
# Poissons Ratio (x) = 0.04198 -0.02705
# Poissons Ratio (y) = 0.02725 0.39780
# Poissons Ratio (z) = -0.02998 0.67913
#
# Static dielectric constant tensor:
#      x y z
#    x 1.912330 0.000000 0.000000 
#    y 0.000000 1.808270 0.000000 
#    z 0.000000 0.000000 1.745550 
# 
# From -- ./inp_files/69156.got.cif
#   From: 2010.05.17/outbox.cif.g08.bks.cpg/sg71_35_cif.got.tgz:69156.got - 2010.06.03 16:22:01.
