data_PCOD9524596
_publ_section_title
;
Structure prediction by ZEFSAII (Michael W. Deem and Ramdas Pophale) SiO2 
 PCOD9524596
Probable space group: I M M M
;
_chemical_formula_sum "Si O2"
_cell_formula_units_Z 80
_cell_length_a 20.233407
_cell_length_b 7.735885
_cell_length_c 26.851071
_cell_angle_alpha 90.000000
_cell_angle_beta 90.000000
_cell_angle_gamma 90.000000
_cell_volume 4202.818502
_symmetry_space_group_name_H-M "I M M M"
_symmetry_group_IT_number 71
_symmetry_cell_setting 'orthorhombic'
loop_
_space_group_symop_operation_xyz
x,y,z
-x,-y,z
x,-y,-z
-x,y,-z
-x,-y,-z
x,y,-z
-x,y,z
x,-y,z
1/2+x,1/2+y,1/2+z
1/2-x,1/2-y,1/2+z
1/2+x,1/2-y,1/2-z
1/2-x,1/2+y,1/2-z
1/2-x,1/2-y,1/2-z
1/2+x,1/2+y,1/2-z
1/2-x,1/2+y,1/2+z
1/2+x,1/2-y,1/2+z
loop_
_atom_site_type_symbol
_atom_site_label
_atom_site_fract_x
_atom_site_fract_y
_atom_site_fract_z
Si Si1 0.575377 0.208246 0.944123
Si Si2 0.322406 0.796328 0.362021
Si Si3 0.672682 0.707186 0.145359
Si Si4 0.672063 0.294377 0.746911
Si Si5 0.075290 0.288621 0.943248
O O1 0.500000 0.267849 0.934539
O O2 0.625300 0.258306 0.900757
O O3 0.573892 0.000000 0.945366
O O4 0.594525 0.267619 0.000000
O O5 0.247443 0.724117 0.363015
O O6 0.350442 0.778834 0.305989
O O7 0.371978 0.724136 0.403196
O O8 0.316124 0.000000 0.372544
O O9 0.678601 0.500000 0.150599
O O10 0.645913 0.769107 0.199391
O O11 0.663594 0.500000 0.743748
O O12 0.750000 0.250000 0.750000
O O13 0.075271 0.500000 0.942048
O O14 0.000000 0.234481 0.932300
O O15 0.091461 0.238343 0.000000
#
# Coordination Sequence:
#
# PCOD9524596 Si02
#       5
#    16  16  16  16  16
#     4   9  19  35  51  67  90 120 153 190 232 276
#     4   9  17  29  47  72  98 122 153 193 231 269
#     4   9  18  30  46  70  95 120 151 187 230 277
#     4   9  17  30  47  68  95 124 153 187 229 274
#     4   8  14  26  45  68  94 125 159 193 228 266
#
# _framework density 19.034846000000002
#
# number of rings (size 3 to 8) (size 9 to 14) (size 15 to 20)
#    0.000    3.200    0.000    3.000    0.000    5.600 
#    0.000    4.000    0.000    4.800    0.000    1.400 
#    0.000    0.000    0.000    0.000    0.000    0.000 
#
# Total GULP energy -222713.621332 kJ/mol
# GULP energy per Si atom -5567.840533 kJ/mol
# Density = 1.899152 g / cm^3
# Si number density = 19.034846 Si / 1000 Ang^3
#
#
#
# Elastic Constant Matrix: (Units=GPa)
#
#
# Indices 1 2 3 4 5 6 
#
# 1 84.5133 1.2513 102.1855 0.0000 0.0000 0.0000
# 2 1.2513 19.1943 -10.4687 0.0000 0.0000 0.0000
# 3 102.1855 -10.4687 183.4118 0.0000 0.0000 0.0000
# 4 0.0000 0.0000 0.0000 23.6921 0.0000 0.0000
# 5 0.0000 0.0000 0.0000 0.0000 -28.9306 0.0000
# 6 0.0000 0.0000 0.0000 0.0000 0.0000 12.5834
#
#
#
# Elastic Compliance Matrix: (Units=1/GPa)
#
#
# Indices 1 2 3 4 5 6 
#
# 1 0.040187 -0.015308 -0.023263 0.000000 0.000000 0.000000
# 2 -0.015308 0.059604 0.011931 0.000000 0.000000 0.000000
# 3 -0.023263 0.011931 0.019094 0.000000 0.000000 0.000000
# 4 0.000000 0.000000 0.000000 0.042208 0.000000 0.000000
# 5 0.000000 0.000000 0.000000 0.000000 -0.034566 0.000000
# 6 0.000000 0.000000 0.000000 0.000000 0.000000 0.079470
#
#
# Mechanical properties :
#
#
# Convention : Reuss Voigt Hill
#
# Bulk Modulus (GPa) = 15.24306 52.56173 33.90240
# Shear Modulus (GPa) = 17.78434 14.41241 16.09838
#
# Velocity S-wave (km/s) = 3.05996 2.75464 2.91130
# Velocity P-wave (km/s) = 4.52877 6.14742 5.39910
#
# Compressibility (1/GPa) = 0.06560361
#
# Stress axis : x y z
#
# Youngs Moduli (GPa) = 24.88372 16.77744 52.37236
#
# Poissons Ratio (x) = 0.25683 1.21836
# Poissons Ratio (y) = 0.38092 -0.62484
# Poissons Ratio (z) = 0.57888 -0.20017
#
# Static dielectric constant tensor:
#      x y z
#    x 1.643630 0.000000 0.000000 
#    y 0.000000 1.724700 0.000000 
#    z 0.000000 0.000000 1.691110 
# 
# From -- ./inp_files/8298.got.cif
#   From: 2010.05.17/outbox.cif.g08.bks.cpg/sg71_5_cif.got.tgz:8298.got - 2010.06.03 16:22:01.
