data_PCOD9524684
_publ_section_title
;
Structure prediction by ZEFSAII (Michael W. Deem and Ramdas Pophale) SiO2 
 PCOD9524684
Probable space group: I M M M
;
_chemical_formula_sum "Si O2"
_cell_formula_units_Z 48
_cell_length_a 9.000000
_cell_length_b 21.000000
_cell_length_c 27.000000
_cell_angle_alpha 90.000000
_cell_angle_beta 90.000000
_cell_angle_gamma 90.000000
_cell_volume 5103.000000
_symmetry_space_group_name_H-M "I M M M"
_symmetry_group_IT_number 71
_symmetry_cell_setting 'orthorhombic'
loop_
_space_group_symop_operation_xyz
x,y,z
-x,-y,z
x,-y,-z
-x,y,-z
-x,-y,-z
x,y,-z
-x,y,z
x,-y,z
1/2+x,1/2+y,1/2+z
1/2-x,1/2-y,1/2+z
1/2+x,1/2-y,1/2-z
1/2-x,1/2+y,1/2-z
1/2-x,1/2-y,1/2-z
1/2+x,1/2+y,1/2-z
1/2-x,1/2+y,1/2+z
1/2+x,1/2-y,1/2+z
loop_
_atom_site_type_symbol
_atom_site_label
_atom_site_fract_x
_atom_site_fract_y
_atom_site_fract_z
Si Si1 0.673088 0.148020 0.721154
Si Si2 0.332414 0.774894 0.808640
Si Si3 0.824156 0.337935 0.944928
Si Si4 0.671410 0.067856 0.059198
Si Si5 0.322955 0.573341 0.137799
Si Si6 0.829263 0.293783 0.575425
O O1 0.500000 0.134781 0.712849
O O2 0.701752 0.160169 0.779202
O O3 0.718357 0.218167 0.701375
O O4 0.768341 0.097531 0.691254
O O5 0.500000 0.754971 0.792247
O O6 0.337469 0.785234 0.866171
O O7 0.748054 0.380401 0.903005
O O8 0.759459 0.266610 0.944105
O O9 0.000000 0.335820 0.936017
O O10 0.797143 0.364835 0.000000
O O11 0.500000 0.071165 0.078018
O O12 0.741098 0.136660 0.068158
O O13 0.735812 0.000000 0.076986
O O14 0.663367 0.063981 0.000000
O O15 0.500000 0.578798 0.134902
O O16 0.279976 0.500000 0.129642
O O17 0.000000 0.293359 0.556087
#
# Coordination Sequence:
#
# PCOD9524684 Si02
#       6
#    16  16  16  16  16  16
#     4  10  19  33  54  80 109 142 178 219 271 325
#     4   9  18  31  51  81 112 140 175 220 267 319
#     4  11  24  39  56  82 113 143 182 233 287 343
#     4   8  14  25  43  70 103 138 176 216 259 307
#     4  11  24  41  60  81 108 145 190 238 286 339
#     4  10  18  31  54  82 110 143 183 227 272 319
#
# _framework density 9.4062319999999993
#
# number of rings (size 3 to 8) (size 9 to 14) (size 15 to 20)
#    0.000    2.167    1.667    2.500    0.000    4.333 
#    0.000    2.500    0.000    3.500    0.000    2.333 
#    0.000    0.000    0.000    0.000    0.000    0.000 
#
# Total GULP energy -267255.049962 kJ/mol
# GULP energy per Si atom -5567.813541 kJ/mol
# Density = 0.938482 g / cm^3
# Si number density = 9.406232 Si / 1000 Ang^3
#
#
#
# Elastic Constant Matrix: (Units=GPa)
#
#
# Indices 1 2 3 4 5 6 
#
# 1 33.6641 27.9573 23.2003 0.0000 0.0000 0.0000
# 2 27.9573 99.8526 18.5411 0.0000 0.0000 0.0000
# 3 23.2003 18.5411 75.8433 0.0000 0.0000 0.0000
# 4 0.0000 0.0000 0.0000 54.7672 0.0000 0.0000
# 5 0.0000 0.0000 0.0000 0.0000 0.5726 0.0000
# 6 0.0000 0.0000 0.0000 0.0000 0.0000 5.7744
#
#
#
# Elastic Compliance Matrix: (Units=1/GPa)
#
#
# Indices 1 2 3 4 5 6 
#
# 1 0.046823 -0.010947 -0.011647 0.000000 0.000000 0.000000
# 2 -0.010947 0.013050 0.000158 0.000000 0.000000 0.000000
# 3 -0.011647 0.000158 0.016709 0.000000 0.000000 0.000000
# 4 0.000000 0.000000 0.000000 0.018259 0.000000 0.000000
# 5 0.000000 0.000000 0.000000 0.000000 1.746287 0.000000
# 6 0.000000 0.000000 0.000000 0.000000 0.000000 0.173178
#
#
# Mechanical properties :
#
#
# Convention : Reuss Voigt Hill
#
# Bulk Modulus (GPa) = 31.53450 38.75083 35.14267
# Shear Modulus (GPa) = 2.41575 21.53360 11.97468
#
# Velocity S-wave (km/s) = 1.13442 3.38693 2.52569
# Velocity P-wave (km/s) = 4.30289 5.99485 5.21791
#
# Compressibility (1/GPa) = 0.03171130
#
# Stress axis : x y z
#
# Youngs Moduli (GPa) = 21.35690 76.62587 59.84753
#
# Poissons Ratio (x) = 0.83884 0.69704
# Poissons Ratio (y) = 0.23380 -0.00948
# Poissons Ratio (z) = 0.24874 -0.01213
#
# Static dielectric constant tensor:
#      x y z
#    x 1.662140 0.000000 0.000000 
#    y 0.000000 1.674780 0.000000 
#    z 0.000000 0.000000 1.699290 
# 
# From -- ./inp_files/63212.got.cif
#   From: 2010.05.17/outbox.ucp.g08.bks.cvg/sg71_32_cif.got.tgz:63212.got - 2010.06.11 16:29:00.
