data_PCOD9524571
_publ_section_title
;
Structure prediction by ZEFSAII (Michael W. Deem and Ramdas Pophale) SiO2 
 PCOD9524571
Probable space group: I M M M
;
_chemical_formula_sum "Si O2"
_cell_formula_units_Z 64
_cell_length_a 12.977787
_cell_length_b 25.378439
_cell_length_c 7.490915
_cell_angle_alpha 90.000000
_cell_angle_beta 90.000000
_cell_angle_gamma 90.000000
_cell_volume 2467.177619
_symmetry_space_group_name_H-M "I M M M"
_symmetry_group_IT_number 71
_symmetry_cell_setting 'orthorhombic'
loop_
_space_group_symop_operation_xyz
x,y,z
-x,-y,z
x,-y,-z
-x,y,-z
-x,-y,-z
x,y,-z
-x,y,z
x,-y,z
1/2+x,1/2+y,1/2+z
1/2-x,1/2-y,1/2+z
1/2+x,1/2-y,1/2-z
1/2-x,1/2+y,1/2-z
1/2-x,1/2-y,1/2-z
1/2+x,1/2+y,1/2-z
1/2-x,1/2+y,1/2+z
1/2+x,1/2-y,1/2+z
loop_
_atom_site_type_symbol
_atom_site_label
_atom_site_fract_x
_atom_site_fract_y
_atom_site_fract_z
Si Si1 0.832997 0.829368 0.709862
Si Si2 0.113041 0.286622 0.715724
Si Si3 0.111234 0.437104 0.297183
Si Si4 0.156674 0.058686 0.703976
O O1 0.859314 0.830927 0.500000
O O2 0.873575 0.773654 0.781705
O O3 0.709218 0.821433 0.724436
O O4 0.874028 0.884845 0.786319
O O5 0.117721 0.284915 0.500000
O O6 0.000000 0.305005 0.768640
O O7 0.121350 0.415282 0.500000
O O8 0.102755 0.500000 0.314225
O O9 0.219516 0.432969 0.199422
O O10 0.000000 0.419814 0.223386
O O11 0.119711 0.056494 0.500000
O O12 0.136243 0.000000 0.782806
#
# Coordination Sequence:
#
# PCOD9524571 Si02
#       4
#    16  16  16  16
#     4   9  18  32  49  70  95 121 152 190 230 274
#     4   9  18  33  52  71  91 118 153 194 237 275
#     4   8  14  24  36  51  75 109 147 182 213 249
#     4   9  17  28  42  61  87 119 149 177 215 265
#
# _framework density 25.940573000000001
#
# number of rings (size 3 to 8) (size 9 to 14) (size 15 to 20)
#    0.000    3.250    0.000    0.750    0.000    3.000 
#    0.000    7.500    0.000    0.750    0.000    5.250 
#    0.000    0.000    0.000   18.750    0.000   19.500 
#
# Total GULP energy -178409.525265 kJ/mol
# GULP energy per Si atom -5575.297665 kJ/mol
# Density = 2.588153 g / cm^3
# Si number density = 25.940573 Si / 1000 Ang^3
#
#
#
# Elastic Constant Matrix: (Units=GPa)
#
#
# Indices 1 2 3 4 5 6 
#
# 1 115.5270 7.2104 0.6466 -0.0001 -0.0001 0.0001
# 2 7.2104 283.8752 1.1658 -0.0004 0.0002 0.0001
# 3 0.6466 1.1658 76.1148 0.0001 0.0028 -0.0004
# 4 -0.0001 -0.0004 0.0001 4.9943 0.0000 0.0001
# 5 -0.0001 0.0002 0.0028 0.0000 -19.6639 -0.0005
# 6 0.0001 0.0001 -0.0004 0.0001 -0.0005 -23.4014
#
#
#
# Elastic Compliance Matrix: (Units=1/GPa)
#
#
# Indices 1 2 3 4 5 6 
#
# 1 0.008670 -0.000220 -0.000070 0.000000 0.000000 0.000000
# 2 -0.000220 0.003528 -0.000052 0.000000 0.000000 0.000000
# 3 -0.000070 -0.000052 0.013139 0.000000 0.000002 0.000000
# 4 0.000000 0.000000 0.000000 0.200229 0.000000 0.000001
# 5 0.000000 0.000000 0.000002 0.000000 -0.050855 0.000001
# 6 0.000000 0.000000 0.000000 0.000001 0.000001 -0.042733
#
#
# Mechanical properties :
#
#
# Convention : Reuss Voigt Hill
#
# Bulk Modulus (GPa) = 40.56262 54.84028 47.70145
# Shear Modulus (GPa) = 35.49058 23.48541 29.48800
#
# Velocity S-wave (km/s) = 3.70286 3.01218 3.37523
# Velocity P-wave (km/s) = 5.82686 5.76925 5.79813
#
# Compressibility (1/GPa) = 0.02465324
#
# Stress axis : x y z
#
# Youngs Moduli (GPa) = 115.33883 283.40850 76.10672
#
# Poissons Ratio (x) = 0.06233 0.00535
# Poissons Ratio (y) = 0.02537 0.00397
# Poissons Ratio (z) = 0.00811 0.01479
#
# Static dielectric constant tensor:
#      x y z
#    x 2.044030 0.000000 0.000000 
#    y 0.000000 2.105520 0.000000 
#    z 0.000000 0.000000 2.024470 
# 
# From -- ./inp_files/5475.got.cif
#   From: 2010.05.17/outbox.cif.g08.bks.cpg/sg71_3_cif.got.tgz:5475.got - 2010.06.03 16:22:01.
