data_PCOD9524445
_publ_section_title
;
Structure prediction by ZEFSAII (Michael W. Deem and Ramdas Pophale) SiO2 
 PCOD9524445
Probable space group: I M M M
;
_chemical_formula_sum "Si O2"
_cell_formula_units_Z 44
_cell_length_a 7.470073
_cell_length_b 10.580150
_cell_length_c 25.296937
_cell_angle_alpha 90.000000
_cell_angle_beta 90.000000
_cell_angle_gamma 90.000000
_cell_volume 1999.330586
_symmetry_space_group_name_H-M "I M M M"
_symmetry_group_IT_number 71
_symmetry_cell_setting 'orthorhombic'
loop_
_space_group_symop_operation_xyz
x,y,z
-x,-y,z
x,-y,-z
-x,y,-z
-x,-y,-z
x,y,-z
-x,y,z
x,-y,z
1/2+x,1/2+y,1/2+z
1/2-x,1/2-y,1/2+z
1/2+x,1/2-y,1/2-z
1/2-x,1/2+y,1/2-z
1/2-x,1/2-y,1/2-z
1/2+x,1/2+y,1/2-z
1/2-x,1/2+y,1/2+z
1/2+x,1/2-y,1/2+z
loop_
_atom_site_type_symbol
_atom_site_label
_atom_site_fract_x
_atom_site_fract_y
_atom_site_fract_z
Si Si1 0.212755 0.638437 0.209053
Si Si2 0.705587 0.217376 0.107694
Si Si3 0.500000 0.500000 0.371764
Si Si4 0.717176 0.355318 0.000000
O O1 0.275930 0.500000 0.227699
O O2 0.250000 0.750000 0.250000
O O3 0.293506 0.675870 0.152914
O O4 0.000000 0.632830 0.202709
O O5 0.500000 0.171520 0.101766
O O6 0.767292 0.278992 0.052527
O O7 0.842598 0.110084 0.125476
O O8 0.781775 0.500000 0.000000
O O9 0.500000 0.360651 0.000000
#
# Coordination Sequence:
#
# PCOD9524445 Si02
#       4
#    16  16   4   8
#     4  11  25  44  68 101 139 181 231 283 343 411
#     4  11  24  44  70 100 135 185 230 286 348 413
#     4  12  26  45  66  98 148 174 240 279 354 412
#     4   9  20  41  70 100 136 178 233 291 349 411
#
# _framework density 22.007365
#
# number of rings (size 3 to 8) (size 9 to 14) (size 15 to 20)
#    0.000    1.273    1.818    2.727    2.545    6.545 
#    0.000    3.636    0.000    0.000    0.000    0.000 
#    0.000    0.000    0.000    0.000    0.000    0.000 
#
# Total GULP energy -122531.230077 kJ/mol
# GULP energy per Si atom -5569.601367 kJ/mol
# Density = 2.195728 g / cm^3
# Si number density = 22.007365 Si / 1000 Ang^3
#
#
#
# Elastic Constant Matrix: (Units=GPa)
#
#
# Indices 1 2 3 4 5 6 
#
# 1 133.7486 32.5999 -8.8148 0.0000 0.0000 0.0000
# 2 32.5999 165.7906 35.4238 0.0000 0.0000 0.0000
# 3 -8.8148 35.4238 112.5635 0.0000 0.0000 0.0000
# 4 0.0000 0.0000 0.0000 -2.3376 0.0000 0.0000
# 5 0.0000 0.0000 0.0000 0.0000 10.9808 0.0000
# 6 0.0000 0.0000 0.0000 0.0000 0.0000 51.7255
#
#
#
# Elastic Compliance Matrix: (Units=1/GPa)
#
#
# Indices 1 2 3 4 5 6 
#
# 1 0.008002 -0.001830 0.001203 0.000000 0.000000 0.000000
# 2 -0.001830 0.006885 -0.002310 0.000000 0.000000 0.000000
# 3 0.001203 -0.002310 0.009705 0.000000 0.000000 0.000000
# 4 0.000000 0.000000 0.000000 -0.427782 0.000000 0.000000
# 5 0.000000 0.000000 0.000000 0.000000 0.091068 0.000000
# 6 0.000000 0.000000 0.000000 0.000000 0.000000 0.019333
#
#
# Mechanical properties :
#
#
# Convention : Reuss Voigt Hill
#
# Bulk Modulus (GPa) = 53.42843 58.94672 56.18758
# Shear Modulus (GPa) = -17.81429 35.59998 8.89284
#
# Velocity S-wave (km/s) = -2.84820 4.02635 2.01237
# Velocity P-wave (km/s) = 3.67612 6.96121 5.56652
#
# Compressibility (1/GPa) = 0.01871663
#
# Stress axis : x y z
#
# Youngs Moduli (GPa) = 124.96666 145.23847 103.03909
#
# Poissons Ratio (x) = 0.26585 -0.12392
# Poissons Ratio (y) = 0.22875 0.23803
# Poissons Ratio (z) = -0.15030 0.33552
#
# Static dielectric constant tensor:
#      x y z
#    x 1.822580 0.000000 0.000000 
#    y 0.000000 1.928770 0.000000 
#    z 0.000000 0.000000 1.786370 
# 
# From -- ./inp_files/3064.got.cif
#   From: 2010.05.17/outbox.cif.g08.bks.cpg/sg71_2_cif.got.tgz:3064.got - 2010.06.03 16:22:01.
