data_PCOD9524889
_publ_section_title
;
Structure prediction by ZEFSAII (Michael W. Deem and Ramdas Pophale) SiO2 
 PCOD9524889
Probable space group: I M M M
;
_chemical_formula_sum "Si O2"
_cell_formula_units_Z 36
_cell_length_a 12.000000
_cell_length_b 18.000000
_cell_length_c 18.000000
_cell_angle_alpha 90.000000
_cell_angle_beta 90.000000
_cell_angle_gamma 90.000000
_cell_volume 3888.000000
_symmetry_space_group_name_H-M "I M M M"
_symmetry_group_IT_number 71
_symmetry_cell_setting 'orthorhombic'
loop_
_space_group_symop_operation_xyz
x,y,z
-x,-y,z
x,-y,-z
-x,y,-z
-x,-y,-z
x,y,-z
-x,y,z
x,-y,z
1/2+x,1/2+y,1/2+z
1/2-x,1/2-y,1/2+z
1/2+x,1/2-y,1/2-z
1/2-x,1/2+y,1/2-z
1/2-x,1/2-y,1/2-z
1/2+x,1/2+y,1/2-z
1/2-x,1/2+y,1/2+z
1/2+x,1/2-y,1/2+z
loop_
_atom_site_type_symbol
_atom_site_label
_atom_site_fract_x
_atom_site_fract_y
_atom_site_fract_z
Si Si1 0.864767 0.000000 0.083899
Si Si2 0.727896 0.911337 0.692199
Si Si3 0.500000 0.789917 0.913865
Si Si4 0.242967 0.779801 0.412573
Si Si5 0.366139 0.352225 0.326402
Si Si6 0.500000 0.086066 0.214215
O O1 0.831781 0.924752 0.125294
O O2 0.000000 0.000000 0.082690
O O3 0.823205 0.000000 0.000000
O O4 0.730824 0.862071 0.617878
O O5 0.818717 0.872070 0.745621
O O6 0.609808 0.903338 0.735018
O O7 0.748899 0.000000 0.682838
O O8 0.387528 0.741784 0.903909
O O9 0.500000 0.856416 0.854001
O O10 0.500000 0.816854 0.000000
O O11 0.270913 0.772287 0.500000
O O12 0.311751 0.720334 0.363227
O O13 0.500000 0.345728 0.325878
O O14 0.500000 0.000000 0.188243
#
# Coordination Sequence:
#
# PCOD9524889 Si02
#       6
#     8  16   8  16  16   8
#     4   9  18  34  54  85 128 158 187 239 299 365
#     4  11  24  42  65  90 121 162 208 255 302 361
#     4  10  22  41  63  91 123 160 204 248 302 365
#     4  11  25  42  63  90 123 163 206 254 305 359
#     4  11  22  37  63  94 121 160 202 246 308 369
#     4  10  22  41  63  91 121 160 208 248 298 364
#
# _framework density 9.2592590000000001
#
# number of rings (size 3 to 8) (size 9 to 14) (size 15 to 20)
#    0.000    1.444    3.333    1.333    3.111    2.000 
#    0.000    0.000    0.000    4.000    0.000    0.000 
#    0.000    0.000    0.000    0.000    0.000    0.000 
#
# Total GULP energy -201151.415327 kJ/mol
# GULP energy per Si atom -5587.539315 kJ/mol
# Density = 0.923818 g / cm^3
# Si number density = 9.259259 Si / 1000 Ang^3
#
#
#
# Elastic Constant Matrix: (Units=GPa)
#
#
# Indices 1 2 3 4 5 6 
#
# 1 92.6494 36.6595 19.6283 0.0000 0.0000 0.0000
# 2 36.6595 127.1486 52.6886 0.0000 0.0000 0.0000
# 3 19.6283 52.6886 60.2947 0.0000 0.0000 0.0000
# 4 0.0000 0.0000 0.0000 28.8269 0.0000 0.0000
# 5 0.0000 0.0000 0.0000 0.0000 18.3216 0.0000
# 6 0.0000 0.0000 0.0000 0.0000 0.0000 18.1158
#
#
#
# Elastic Compliance Matrix: (Units=1/GPa)
#
#
# Indices 1 2 3 4 5 6 
#
# 1 0.012260 -0.002949 -0.001414 0.000000 0.000000 0.000000
# 2 -0.002949 0.013039 -0.010434 0.000000 0.000000 0.000000
# 3 -0.001414 -0.010434 0.026163 0.000000 0.000000 0.000000
# 4 0.000000 0.000000 0.000000 0.034690 0.000000 0.000000
# 5 0.000000 0.000000 0.000000 0.000000 0.054580 0.000000
# 6 0.000000 0.000000 0.000000 0.000000 0.000000 0.055200
#
#
# Mechanical properties :
#
#
# Convention : Reuss Voigt Hill
#
# Bulk Modulus (GPa) = 45.72920 55.33840 50.53380
# Shear Modulus (GPa) = 21.47623 24.46061 22.96842
#
# Velocity S-wave (km/s) = 3.40916 3.63832 3.52560
# Velocity P-wave (km/s) = 6.34380 6.89909 6.62727
#
# Compressibility (1/GPa) = 0.02186786
#
# Stress axis : x y z
#
# Youngs Moduli (GPa) = 81.56784 76.69505 38.22135
#
# Poissons Ratio (x) = 0.22615 0.05406
# Poissons Ratio (y) = 0.24051 0.39880
# Poissons Ratio (z) = 0.11537 0.80023
#
# Static dielectric constant tensor:
#      x y z
#    x 1.632720 0.000000 0.000000 
#    y 0.000000 1.622190 0.000000 
#    z 0.000000 0.000000 1.648330 
# 
# From -- ./inp_files/23550.got.cif
#   From: 2010.05.17/outbox.ucp.g08.bks.cvg/sg71_12_cif.got.tgz:23550.got - 2010.06.11 16:29:00.
