data_PCOD9524277
_publ_section_title
;
Structure prediction by ZEFSAII (Michael W. Deem and Ramdas Pophale) SiO2 
 PCOD9524277
Probable space group: I M M M
;
_chemical_formula_sum "Si O2"
_cell_formula_units_Z 64
_cell_length_a 13.941309
_cell_length_b 11.418631
_cell_length_c 23.108836
_cell_angle_alpha 90.000000
_cell_angle_beta 90.000000
_cell_angle_gamma 90.000000
_cell_volume 3678.710927
_symmetry_space_group_name_H-M "I M M M"
_symmetry_group_IT_number 71
_symmetry_cell_setting 'orthorhombic'
loop_
_space_group_symop_operation_xyz
x,y,z
-x,-y,z
x,-y,-z
-x,y,-z
-x,-y,-z
x,y,-z
-x,y,z
x,-y,z
1/2+x,1/2+y,1/2+z
1/2-x,1/2-y,1/2+z
1/2+x,1/2-y,1/2-z
1/2-x,1/2+y,1/2-z
1/2-x,1/2-y,1/2-z
1/2+x,1/2+y,1/2-z
1/2-x,1/2+y,1/2+z
1/2+x,1/2-y,1/2+z
loop_
_atom_site_type_symbol
_atom_site_label
_atom_site_fract_x
_atom_site_fract_y
_atom_site_fract_z
Si Si1 0.114045 0.363549 0.284545
Si Si2 0.295301 0.760504 0.108044
Si Si3 0.607464 0.361059 0.000000
Si Si4 0.387449 0.861720 0.647553
Si Si5 0.111524 0.500000 0.568436
O O1 0.143636 0.500000 0.296243
O O2 0.162979 0.268820 0.326462
O O3 0.128914 0.343788 0.216341
O O4 0.000000 0.357436 0.294345
O O5 0.185268 0.721706 0.113695
O O6 0.327425 0.887641 0.086237
O O7 0.342482 0.677961 0.059536
O O8 0.602445 0.500000 0.000000
O O9 0.500000 0.308946 0.000000
O O10 0.500000 0.840579 0.635708
O O11 0.368196 0.000000 0.635543
O O12 0.103684 0.500000 0.500000
O O13 0.000000 0.500000 0.590366
#
# Coordination Sequence:
#
# PCOD9524277 Si02
#       5
#    16  16   8  16   8
#     4   9  17  31  55  85 113 142 182 228 277 333
#     4  12  20  34  58  83 111 146 187 227 276 334
#     4  11  24  37  52  80 115 145 179 230 286 336
#     4   9  20  38  57  80 111 149 192 232 270 322
#     4  11  22  36  57  87 115 145 182 225 280 339
#
# _framework density 17.397397999999999
#
# number of rings (size 3 to 8) (size 9 to 14) (size 15 to 20)
#    0.000    1.750    2.500    5.250    0.000    0.000 
#    0.000    1.250    0.000    3.000    0.000    0.000 
#    0.000    0.000    0.000    0.000    0.000    0.000 
#
# Total GULP energy -178228.123986 kJ/mol
# GULP energy per Si atom -5569.628875 kJ/mol
# Density = 1.735780 g / cm^3
# Si number density = 17.397398 Si / 1000 Ang^3
#
#
#
# Elastic Constant Matrix: (Units=GPa)
#
#
# Indices 1 2 3 4 5 6 
#
# 1 127.7103 63.0969 63.6460 0.0000 0.0000 0.0000
# 2 63.0969 84.2928 37.3119 0.0000 0.0000 0.0000
# 3 63.6460 37.3119 57.8386 0.0000 0.0000 0.0000
# 4 0.0000 0.0000 0.0000 0.6676 0.0000 0.0000
# 5 0.0000 0.0000 0.0000 0.0000 29.5994 0.0000
# 6 0.0000 0.0000 0.0000 0.0000 0.0000 102.0058
#
#
#
# Elastic Compliance Matrix: (Units=1/GPa)
#
#
# Indices 1 2 3 4 5 6 
#
# 1 0.020158 -0.007377 -0.017423 0.000000 0.000000 0.000000
# 2 -0.007377 0.019305 -0.004336 0.000000 0.000000 0.000000
# 3 -0.017423 -0.004336 0.039259 0.000000 0.000000 0.000000
# 4 0.000000 0.000000 0.000000 1.497977 0.000000 0.000000
# 5 0.000000 0.000000 0.000000 0.000000 0.033784 0.000000
# 6 0.000000 0.000000 0.000000 0.000000 0.000000 0.009803
#
#
# Mechanical properties :
#
#
# Convention : Reuss Voigt Hill
#
# Bulk Modulus (GPa) = 48.90006 66.43903 57.66955
# Shear Modulus (GPa) = 2.96670 33.50701 18.23685
#
# Velocity S-wave (km/s) = 1.30727 4.39336 3.24118
# Velocity P-wave (km/s) = 5.51791 8.00046 6.87222
#
# Compressibility (1/GPa) = 0.02044987
#
# Stress axis : x y z
#
# Youngs Moduli (GPa) = 49.60880 51.80121 25.47189
#
# Poissons Ratio (x) = 0.38212 0.44379
# Poissons Ratio (y) = 0.36595 0.11045
# Poissons Ratio (z) = 0.86433 0.22461
#
# Static dielectric constant tensor:
#      x y z
#    x 1.583080 0.000000 0.000000 
#    y 0.000000 1.594860 0.000000 
#    z 0.000000 0.000000 1.651080 
# 
# From -- ./inp_files/58485.got.cif
#   From: 2010.05.17/outbox.cif.g08.bks.cpg/sg71_30_cif.got.tgz:58485.got - 2010.06.03 16:22:01.
