data_PCOD9524967
_publ_section_title
;
Structure prediction by ZEFSAII (Michael W. Deem and Ramdas Pophale) SiO2 
 PCOD9524967
Probable space group: I B A M
;
_chemical_formula_sum "Si O2"
_cell_formula_units_Z 80
_cell_length_a 19.785202
_cell_length_b 20.909239
_cell_length_c 10.555521
_cell_angle_alpha 90.000000
_cell_angle_beta 90.000000
_cell_angle_gamma 90.000000
_cell_volume 4366.750609
_symmetry_space_group_name_H-M "I B A M"
_symmetry_group_IT_number 72
_symmetry_cell_setting 'orthorhombic'
loop_
_space_group_symop_operation_xyz
x,y,z
-x,-y,z
x,-y,1/2-z
-x,y,1/2-z
-x,-y,-z
x,y,-z
-x,y,1/2+z
x,-y,1/2+z
1/2+x,1/2+y,1/2+z
1/2-x,1/2-y,1/2+z
1/2+x,1/2-y,-z
1/2-x,1/2+y,-z
1/2-x,1/2-y,1/2-z
1/2+x,1/2+y,1/2-z
1/2-x,1/2+y,z
1/2+x,1/2-y,z
loop_
_atom_site_type_symbol
_atom_site_label
_atom_site_fract_x
_atom_site_fract_y
_atom_site_fract_z
Si Si1 0.924079 0.594972 0.228425
Si Si2 0.810292 0.773319 0.500000
Si Si3 0.449251 0.192736 0.500000
Si Si4 0.216700 0.178925 0.740738
Si Si5 0.212253 0.551475 0.648155
Si Si6 0.831285 0.789542 0.000000
Si Si7 0.600363 0.845978 0.000000
O O1 0.869153 0.550843 0.160670
O O2 0.899073 0.614916 0.368894
O O3 0.000000 0.570594 0.250000
O O4 0.930917 0.653853 0.128660
O O5 0.833392 0.810349 0.623843
O O6 0.727825 0.766266 0.500000
O O7 0.836975 0.701709 0.500000
O O8 0.403468 0.255508 0.500000
O O9 0.530628 0.194862 0.500000
O O10 0.250000 0.250000 0.750000
O O11 0.264854 0.121387 0.698518
O O12 0.182134 0.169634 0.874845
O O13 0.238853 0.500000 0.750000
O O14 0.230771 0.542772 0.500000
#
# Coordination Sequence:
#
# PCOD9524967 Si02
#       7
#    16   8   8  16  16   8   8
#     4  10  20  35  54  75 108 157 200 237 277 326
#     4  10  16  30  48  79 106 148 184 234 277 345
#     4  10  18  34  52  84 120 156 184 247 286 337
#     4  10  20  34  58  82 106 142 187 235 293 345
#     4  12  26  42  57  80 117 153 197 250 292 338
#     4  10  18  28  54  79 110 144 188 224 291 347
#     4  10  20  30  54  86 120 146 198 235 292 337
#
# _framework density 18.320257999999999
#
# number of rings (size 3 to 8) (size 9 to 14) (size 15 to 20)
#    0.000    1.600    2.000    6.000    2.800    0.400 
#    0.000    1.000    0.000    0.000    0.000    0.000 
#    0.000    4.800    0.000    0.000    0.000    0.000 
#
# Total GULP energy -222821.375360 kJ/mol
# GULP energy per Si atom -5570.534384 kJ/mol
# Density = 1.827856 g / cm^3
# Si number density = 18.320258 Si / 1000 Ang^3
#
#
#
# Elastic Constant Matrix: (Units=GPa)
#
#
# Indices 1 2 3 4 5 6 
#
# 1 27.0534 16.5460 15.4310 0.0000 0.0000 0.0000
# 2 16.5460 75.3582 38.4905 0.0000 0.0000 0.0000
# 3 15.4310 38.4905 192.2411 0.0000 0.0000 0.0000
# 4 0.0000 0.0000 0.0000 6.6444 0.0000 0.0000
# 5 0.0000 0.0000 0.0000 0.0000 23.1395 0.0000
# 6 0.0000 0.0000 0.0000 0.0000 0.0000 7.5772
#
#
#
# Elastic Compliance Matrix: (Units=1/GPa)
#
#
# Indices 1 2 3 4 5 6 
#
# 1 0.043219 -0.008597 -0.001748 0.000000 0.000000 0.000000
# 2 -0.008597 0.016492 -0.002612 0.000000 0.000000 0.000000
# 3 -0.001748 -0.002612 0.005865 0.000000 0.000000 0.000000
# 4 0.000000 0.000000 0.000000 0.150502 0.000000 0.000000
# 5 0.000000 0.000000 0.000000 0.000000 0.043216 0.000000
# 6 0.000000 0.000000 0.000000 0.000000 0.000000 0.131975
#
#
# Mechanical properties :
#
#
# Convention : Reuss Voigt Hill
#
# Bulk Modulus (GPa) = 25.21274 48.39865 36.80569
# Shear Modulus (GPa) = 11.61707 22.41791 17.01749
#
# Velocity S-wave (km/s) = 2.52089 3.50189 3.05108
# Velocity P-wave (km/s) = 4.71861 6.54419 5.70490
#
# Compressibility (1/GPa) = 0.03966250
#
# Stress axis : x y z
#
# Youngs Moduli (GPa) = 23.13820 60.63725 170.50130
#
# Poissons Ratio (x) = 0.52127 0.29802
# Poissons Ratio (y) = 0.19891 0.44533
# Poissons Ratio (z) = 0.04044 0.15838
#
# Static dielectric constant tensor:
#      x y z
#    x 1.632870 0.000000 0.000000 
#    y 0.000000 1.679900 0.000000 
#    z 0.000000 0.000000 1.841180 
# 
# From -- ./inp_files/14624.got.cif
#   From: 2010.05.17/outbox.cif.g08.bks.cpg/sg72_8_cif.got.tgz:14624.got - 2010.06.03 17:03:01.
