data_PCOD9524716
_publ_section_title
;
Structure prediction by ZEFSAII (Michael W. Deem and Ramdas Pophale) SiO2 
 PCOD9524716
Probable space group: I M M M
;
_chemical_formula_sum "Si O2"
_cell_formula_units_Z 44
_cell_length_a 27.000000
_cell_length_b 15.000000
_cell_length_c 12.000000
_cell_angle_alpha 90.000000
_cell_angle_beta 90.000000
_cell_angle_gamma 90.000000
_cell_volume 4860.000000
_symmetry_space_group_name_H-M "I M M M"
_symmetry_group_IT_number 71
_symmetry_cell_setting 'orthorhombic'
loop_
_space_group_symop_operation_xyz
x,y,z
-x,-y,z
x,-y,-z
-x,y,-z
-x,-y,-z
x,y,-z
-x,y,z
x,-y,z
1/2+x,1/2+y,1/2+z
1/2-x,1/2-y,1/2+z
1/2+x,1/2-y,1/2-z
1/2-x,1/2+y,1/2-z
1/2-x,1/2-y,1/2-z
1/2+x,1/2+y,1/2-z
1/2-x,1/2+y,1/2+z
1/2+x,1/2-y,1/2+z
loop_
_atom_site_type_symbol
_atom_site_label
_atom_site_fract_x
_atom_site_fract_y
_atom_site_fract_z
Si Si1 0.185738 0.000000 0.868044
Si Si2 0.941612 0.000000 0.366417
Si Si3 0.623298 0.348752 0.252558
Si Si4 0.800618 0.500000 0.635738
Si Si5 0.056453 0.602278 0.338865
Si Si6 0.557476 0.204229 0.375597
Si Si7 0.343854 0.186562 0.877568
O O1 0.157594 0.085679 0.821950
O O2 0.243100 0.000000 0.835848
O O3 0.183552 0.000000 0.000000
O O4 0.912680 0.912615 0.320406
O O5 0.939416 0.000000 0.500000
O O6 0.000000 0.000000 0.333262
O O7 0.589749 0.284952 0.328801
O O8 0.658010 0.279631 0.185442
O O9 0.807686 0.500000 0.500000
O O10 0.823650 0.405747 0.674955
O O11 0.066603 0.500000 0.367522
O O12 0.060789 0.620563 0.207141
O O13 0.097463 0.666707 0.387132
O O14 0.000000 0.622769 0.370771
O O15 0.572281 0.181038 0.500000
O O16 0.500000 0.232055 0.374533
O O17 0.321230 0.195342 0.000000
#
# Coordination Sequence:
#
# PCOD9524716 Si02
#       7
#     8   8  16   8  16  16  16
#     4  10  21  37  55  75  97 124 166 217 263 306
#     4  10  20  34  51  74 107 141 170 204 248 298
#     4  10  20  33  52  76  99 130 171 208 249 300
#     4   9  19  35  54  75  99 129 165 206 258 311
#     4   9  17  28  44  70 101 133 169 202 235 285
#     4   9  17  29  45  67  97 130 162 199 242 287
#     4  10  19  33  52  75 104 135 166 205 250 302
#
# _framework density 9.0534979999999994
#
# number of rings (size 3 to 8) (size 9 to 14) (size 15 to 20)
#    0.000    2.455    0.909    1.636    0.000    2.182 
#    0.000    2.727    0.000    4.364    0.000   17.818 
#    0.000    0.000    0.000    0.000    0.000    0.000 
#
# Total GULP energy -244952.697381 kJ/mol
# GULP energy per Si atom -5567.106759 kJ/mol
# Density = 0.903289 g / cm^3
# Si number density = 9.053498 Si / 1000 Ang^3
#
#
#
# Elastic Constant Matrix: (Units=GPa)
#
#
# Indices 1 2 3 4 5 6 
#
# 1 56.4082 24.8533 16.2654 0.0000 0.0000 0.0000
# 2 24.8533 85.4280 25.1022 0.0000 0.0000 0.0000
# 3 16.2654 25.1022 82.4864 0.0000 0.0000 0.0000
# 4 0.0000 0.0000 0.0000 28.3791 0.0000 0.0000
# 5 0.0000 0.0000 0.0000 0.0000 14.6703 0.0000
# 6 0.0000 0.0000 0.0000 0.0000 0.0000 14.3237
#
#
#
# Elastic Compliance Matrix: (Units=1/GPa)
#
#
# Indices 1 2 3 4 5 6 
#
# 1 0.020786 -0.005319 -0.002480 0.000000 0.000000 0.000000
# 2 -0.005319 0.014216 -0.003277 0.000000 0.000000 0.000000
# 3 -0.002480 -0.003277 0.013610 0.000000 0.000000 0.000000
# 4 0.000000 0.000000 0.000000 0.035237 0.000000 0.000000
# 5 0.000000 0.000000 0.000000 0.000000 0.068165 0.000000
# 6 0.000000 0.000000 0.000000 0.000000 0.000000 0.069815
#
#
# Mechanical properties :
#
#
# Convention : Reuss Voigt Hill
#
# Bulk Modulus (GPa) = 37.79345 39.64049 38.71697
# Shear Modulus (GPa) = 19.77836 22.01473 20.89654
#
# Velocity S-wave (km/s) = 3.30859 3.49063 3.40083
# Velocity P-wave (km/s) = 5.95930 6.17948 6.07039
#
# Compressibility (1/GPa) = 0.02645961
#
# Stress axis : x y z
#
# Youngs Moduli (GPa) = 48.10828 70.34267 73.47702
#
# Poissons Ratio (x) = 0.37412 0.18225
# Poissons Ratio (y) = 0.25586 0.24082
# Poissons Ratio (z) = 0.11932 0.23055
#
# Static dielectric constant tensor:
#      x y z
#    x 1.617620 0.000000 0.000000 
#    y 0.000000 1.630170 0.000000 
#    z 0.000000 0.000000 1.685040 
# 
# From -- ./inp_files/28660.got.cif
#   From: 2010.05.17/outbox.ucp.g08.bks.cvg/sg71_15_cif.got.tgz:28660.got - 2010.06.11 16:29:00.
