data_PCOD9524110
_publ_section_title
;
Structure prediction by ZEFSAII (Michael W. Deem and Ramdas Pophale) SiO2 
 PCOD9524110
Probable space group: I M M M
;
_chemical_formula_sum "Si O2"
_cell_formula_units_Z 88
_cell_length_a 31.628372
_cell_length_b 16.960506
_cell_length_c 10.410614
_cell_angle_alpha 90.000000
_cell_angle_beta 90.000000
_cell_angle_gamma 90.000000
_cell_volume 5584.598910
_symmetry_space_group_name_H-M "I M M M"
_symmetry_group_IT_number 71
_symmetry_cell_setting 'orthorhombic'
loop_
_space_group_symop_operation_xyz
x,y,z
-x,-y,z
x,-y,-z
-x,y,-z
-x,-y,-z
x,y,-z
-x,y,z
x,-y,z
1/2+x,1/2+y,1/2+z
1/2-x,1/2-y,1/2+z
1/2+x,1/2-y,1/2-z
1/2-x,1/2+y,1/2-z
1/2-x,1/2-y,1/2-z
1/2+x,1/2+y,1/2-z
1/2-x,1/2+y,1/2+z
1/2+x,1/2-y,1/2+z
loop_
_atom_site_type_symbol
_atom_site_label
_atom_site_fract_x
_atom_site_fract_y
_atom_site_fract_z
Si Si1 0.788856 0.311601 0.251858
Si Si2 0.364792 0.689926 0.754253
Si Si3 0.268078 0.093680 0.500000
Si Si4 0.050623 0.000000 0.644196
Si Si5 0.451098 0.325378 0.843288
Si Si6 0.159448 0.905350 0.000000
Si Si7 0.667192 0.406115 0.000000
Si Si8 0.761614 0.406647 0.500000
O O1 0.750000 0.250000 0.250000
O O2 0.831532 0.261160 0.254133
O O3 0.786406 0.365152 0.125820
O O4 0.781434 0.365606 0.375722
O O5 0.412439 0.720710 0.780169
O O6 0.358593 0.638592 0.625540
O O7 0.352447 0.634264 0.874720
O O8 0.217523 0.108225 0.500000
O O9 0.274882 0.000000 0.500000
O O10 0.059340 0.915276 0.702583
O O11 0.068636 0.000000 0.500000
O O12 0.000000 0.000000 0.631130
O O13 0.500000 0.306792 0.810608
O O14 0.448844 0.324012 0.000000
O O15 0.210597 0.894907 0.000000
O O16 0.151073 0.000000 0.000000
O O17 0.661423 0.500000 0.000000
O O18 0.769003 0.500000 0.500000
#
# Coordination Sequence:
#
# PCOD9524110 Si02
#       8
#    16  16   8   8  16   8   8   8
#     4  12  21  35  54  78 107 136 175 217 260 305
#     4  12  22  33  52  75 103 139 174 221 260 301
#     4  11  22  38  54  74 105 143 182 215 248 304
#     4   7  12  24  42  63  89 123 159 205 245 275
#     4   9  18  31  49  73  99 129 173 218 260 298
#     4  11  23  35  46  70 107 147 176 205 260 313
#     4  11  21  31  50  78 101 133 184 225 246 289
#     4  11  22  38  54  72 107 145 174 211 262 310
#
# _framework density 15.757622
#
# number of rings (size 3 to 8) (size 9 to 14) (size 15 to 20)
#    0.000    1.364    4.545    3.818    2.545    2.909 
#    0.000    0.455    0.000    0.545    0.000    0.000 
#    0.000    4.364    0.000    0.000    0.000    0.000 
#
# Total GULP energy -245473.666553 kJ/mol
# GULP energy per Si atom -5578.946967 kJ/mol
# Density = 1.572176 g / cm^3
# Si number density = 15.757622 Si / 1000 Ang^3
#
#
#
# Elastic Constant Matrix: (Units=GPa)
#
#
# Indices 1 2 3 4 5 6 
#
# 1 144.5982 51.6924 45.7763 0.0000 0.0000 0.0000
# 2 51.6924 72.2124 55.2365 0.0000 0.0000 0.0000
# 3 45.7763 55.2365 140.1173 0.0000 0.0000 0.0000
# 4 0.0000 0.0000 0.0000 30.1006 0.0000 0.0000
# 5 0.0000 0.0000 0.0000 0.0000 0.0880 0.0000
# 6 0.0000 0.0000 0.0000 0.0000 0.0000 21.5108
#
#
#
# Elastic Compliance Matrix: (Units=1/GPa)
#
#
# Indices 1 2 3 4 5 6 
#
# 1 0.009329 -0.006223 -0.000594 0.000000 0.000000 0.000000
# 2 -0.006223 0.023978 -0.007419 0.000000 0.000000 0.000000
# 3 -0.000594 -0.007419 0.010256 0.000000 0.000000 0.000000
# 4 0.000000 0.000000 0.000000 0.033222 0.000000 0.000000
# 5 0.000000 0.000000 0.000000 0.000000 11.360975 0.000000
# 6 0.000000 0.000000 0.000000 0.000000 0.000000 0.046488
#
#
# Mechanical properties :
#
#
# Convention : Reuss Voigt Hill
#
# Bulk Modulus (GPa) = 66.27489 73.59316 69.93403
# Shear Modulus (GPa) = 0.43411 23.95473 12.19442
#
# Velocity S-wave (km/s) = 0.52544 3.90320 2.78488
# Velocity P-wave (km/s) = 6.52061 8.19255 7.40393
#
# Compressibility (1/GPa) = 0.01508867
#
# Stress axis : x y z
#
# Youngs Moduli (GPa) = 107.19745 41.70480 97.50441
#
# Poissons Ratio (x) = 0.25953 0.05796
# Poissons Ratio (y) = 0.66710 0.72343
# Poissons Ratio (z) = 0.06372 0.30943
#
# Static dielectric constant tensor:
#      x y z
#    x 1.556110 0.000000 0.000000 
#    y 0.000000 1.540930 0.000000 
#    z 0.000000 0.000000 1.526550 
# 
# From -- ./inp_files/16778.got.cif
#   From: 2010.05.17/outbox.cif.g08.bks.cpg/sg71_9_cif.got.tgz:16778.got - 2010.06.03 16:22:01.
