data_PCOD9524151
_publ_section_title
;
Structure prediction by ZEFSAII (Michael W. Deem and Ramdas Pophale) SiO2 
 PCOD9524151
Probable space group: I M M M
;
_chemical_formula_sum "Si O2"
_cell_formula_units_Z 96
_cell_length_a 26.776986
_cell_length_b 8.746391
_cell_length_c 20.981268
_cell_angle_alpha 90.000000
_cell_angle_beta 90.000000
_cell_angle_gamma 90.000000
_cell_volume 4913.854705
_symmetry_space_group_name_H-M "I M M M"
_symmetry_group_IT_number 71
_symmetry_cell_setting 'orthorhombic'
loop_
_space_group_symop_operation_xyz
x,y,z
-x,-y,z
x,-y,-z
-x,y,-z
-x,-y,-z
x,y,-z
-x,y,z
x,-y,z
1/2+x,1/2+y,1/2+z
1/2-x,1/2-y,1/2+z
1/2+x,1/2-y,1/2-z
1/2-x,1/2+y,1/2-z
1/2-x,1/2-y,1/2-z
1/2+x,1/2+y,1/2-z
1/2-x,1/2+y,1/2+z
1/2+x,1/2-y,1/2+z
loop_
_atom_site_type_symbol
_atom_site_label
_atom_site_fract_x
_atom_site_fract_y
_atom_site_fract_z
Si Si1 0.198108 0.828855 0.738749
Si Si2 0.385257 0.182064 0.930539
Si Si3 0.329205 0.316510 0.574005
Si Si4 0.058780 0.177732 0.307240
Si Si5 0.218521 0.173459 0.407611
Si Si6 0.610300 0.178911 0.689665
O O1 0.250000 0.750000 0.750000
O O2 0.198593 0.842337 0.663837
O O3 0.157945 0.713872 0.766033
O O4 0.192945 0.000000 0.766900
O O5 0.411530 0.251556 0.867561
O O6 0.326703 0.226713 0.934560
O O7 0.389542 0.000000 0.925345
O O8 0.407265 0.230573 0.000000
O O9 0.340275 0.277915 0.500000
O O10 0.326548 0.500000 0.579374
O O11 0.273845 0.247432 0.589136
O O12 0.371436 0.254249 0.622910
O O13 0.068684 0.250636 0.237064
O O14 0.000000 0.188330 0.320905
O O15 0.074105 0.000000 0.302312
O O16 0.221729 0.000000 0.432697
O O17 0.601627 0.000000 0.679950
#
# Coordination Sequence:
#
# PCOD9524151 Si02
#       6
#    16  16  16  16  16  16
#     4  11  21  33  54  85 118 156 201 246 293 346
#     4  11  24  40  60  88 124 165 206 249 298 353
#     4  11  24  40  60  88 125 167 206 246 295 355
#     4  11  25  45  68  92 117 150 197 252 308 365
#     4  11  22  35  56  86 123 166 208 248 289 343
#     4  12  24  39  63  90 119 157 198 248 305 360
#
# _framework density 19.536598000000001
#
# number of rings (size 3 to 8) (size 9 to 14) (size 15 to 20)
#    0.000    0.833    3.333    4.500    0.000    7.667 
#    0.000    1.667    0.000    0.500    0.000    3.500 
#    0.000    0.000    0.000    0.000    0.000    0.000 
#
# Total GULP energy -267563.477747 kJ/mol
# GULP energy per Si atom -5574.239120 kJ/mol
# Density = 1.949213 g / cm^3
# Si number density = 19.536598 Si / 1000 Ang^3
#
#
#
# Elastic Constant Matrix: (Units=GPa)
#
#
# Indices 1 2 3 4 5 6 
#
# 1 61.4900 28.7887 26.7340 0.0000 0.0000 0.0000
# 2 28.7887 111.5746 48.9097 0.0000 0.0000 0.0000
# 3 26.7340 48.9097 159.0882 0.0000 0.0000 0.0000
# 4 0.0000 0.0000 0.0000 13.5221 0.0000 0.0000
# 5 0.0000 0.0000 0.0000 0.0000 -9.1314 0.0000
# 6 0.0000 0.0000 0.0000 0.0000 0.0000 21.3444
#
#
#
# Elastic Compliance Matrix: (Units=1/GPa)
#
#
# Indices 1 2 3 4 5 6 
#
# 1 0.019006 -0.004050 -0.001949 0.000000 0.000000 0.000000
# 2 -0.004050 0.011222 -0.002769 0.000000 0.000000 0.000000
# 3 -0.001949 -0.002769 0.007465 0.000000 0.000000 0.000000
# 4 0.000000 0.000000 0.000000 0.073953 0.000000 0.000000
# 5 0.000000 0.000000 0.000000 0.000000 -0.109512 0.000000
# 6 0.000000 0.000000 0.000000 0.000000 0.000000 0.046851
#
#
# Mechanical properties :
#
#
# Convention : Reuss Voigt Hill
#
# Bulk Modulus (GPa) = 49.61184 60.11307 54.86245
# Shear Modulus (GPa) = 68.26981 20.32838 44.29909
#
# Velocity S-wave (km/s) = 5.91781 3.22922 4.76699
# Velocity P-wave (km/s) = 8.49372 6.68880 7.64472
#
# Compressibility (1/GPa) = 0.02015648
#
# Stress axis : x y z
#
# Youngs Moduli (GPa) = 52.61459 89.11460 133.96333
#
# Poissons Ratio (x) = 0.36089 0.26108
# Poissons Ratio (y) = 0.21307 0.37099
# Poissons Ratio (z) = 0.10254 0.24679
#
# Static dielectric constant tensor:
#      x y z
#    x 1.628880 0.000000 0.000000 
#    y 0.000000 1.708860 0.000000 
#    z 0.000000 0.000000 1.766110 
# 
# From -- ./inp_files/56150.got.cif
#   From: 2010.05.17/outbox.cif.g08.bks.cpg/sg71_29_cif.got.tgz:56150.got - 2010.06.03 16:22:01.
