data_PCOD9524188
_publ_section_title
;
Structure prediction by ZEFSAII (Michael W. Deem and Ramdas Pophale) SiO2 
 PCOD9524188
Probable space group: I M M M
;
_chemical_formula_sum "Si O2"
_cell_formula_units_Z 72
_cell_length_a 14.948285
_cell_length_b 30.952273
_cell_length_c 8.175495
_cell_angle_alpha 90.000000
_cell_angle_beta 90.000000
_cell_angle_gamma 90.000000
_cell_volume 3782.665809
_symmetry_space_group_name_H-M "I M M M"
_symmetry_group_IT_number 71
_symmetry_cell_setting 'orthorhombic'
loop_
_space_group_symop_operation_xyz
x,y,z
-x,-y,z
x,-y,-z
-x,y,-z
-x,-y,-z
x,y,-z
-x,y,z
x,-y,z
1/2+x,1/2+y,1/2+z
1/2-x,1/2-y,1/2+z
1/2+x,1/2-y,1/2-z
1/2-x,1/2+y,1/2-z
1/2-x,1/2-y,1/2-z
1/2+x,1/2+y,1/2-z
1/2-x,1/2+y,1/2+z
1/2+x,1/2-y,1/2+z
loop_
_atom_site_type_symbol
_atom_site_label
_atom_site_fract_x
_atom_site_fract_y
_atom_site_fract_z
Si Si1 0.500000 0.264366 0.800403
Si Si2 0.000000 0.336280 0.299705
Si Si3 0.000000 0.947342 0.311983
Si Si4 0.805572 0.792099 0.303662
Si Si5 0.688912 0.872889 0.805514
Si Si6 0.194492 0.950830 0.302754
O O1 0.500000 0.214022 0.750095
O O2 0.408044 0.286632 0.746709
O O3 0.500000 0.264651 0.000000
O O4 0.909458 0.359570 0.243438
O O5 0.000000 0.336253 0.500000
O O6 0.903609 0.935606 0.238750
O O7 0.000000 0.931280 0.500000
O O8 0.000000 0.000000 0.317284
O O9 0.805927 0.793808 0.500000
O O10 0.750000 0.750000 0.250000
O O11 0.756698 0.834442 0.238875
O O12 0.728815 0.917487 0.741011
O O13 0.683006 0.875871 0.000000
O O14 0.186637 0.952327 0.500000
O O15 0.210798 0.000000 0.246134
#
# Coordination Sequence:
#
# PCOD9524188 Si02
#       6
#     8   8   8  16  16  16
#     4   9  18  35  57  77 107 148 184 214 263 330
#     4   9  18  36  56  74 102 147 189 218 263 330
#     4   7  12  27  53  78 102 139 177 207 256 329
#     4  11  21  36  57  81 108 141 180 223 269 320
#     4  11  22  37  57  80 109 144 185 228 271 325
#     4   9  18  35  58  83 111 143 182 226 270 321
#
# _framework density 19.034196000000001
#
# number of rings (size 3 to 8) (size 9 to 14) (size 15 to 20)
#    0.000    2.333    2.222    2.667    0.000    1.333 
#    0.000   11.111    0.000    5.333    0.000    0.000 
#    0.000    0.000    0.000    0.000    0.000    0.000 
#
# Total GULP energy -200837.074567 kJ/mol
# GULP energy per Si atom -5578.807627 kJ/mol
# Density = 1.899087 g / cm^3
# Si number density = 19.034196 Si / 1000 Ang^3
#
#
#
# Elastic Constant Matrix: (Units=GPa)
#
#
# Indices 1 2 3 4 5 6 
#
# 1 194.1700 84.3471 8.0483 -0.0001 -0.0001 -0.0002
# 2 84.3471 111.7790 6.7914 -0.0003 0.0002 0.0000
# 3 8.0483 6.7914 13.3737 0.0040 0.0002 0.0005
# 4 -0.0001 -0.0003 0.0040 27.7814 -0.0003 0.0003
# 5 -0.0001 0.0002 0.0002 -0.0003 23.9667 0.0000
# 6 -0.0002 0.0000 0.0005 0.0003 0.0000 26.1943
#
#
#
# Elastic Compliance Matrix: (Units=1/GPa)
#
#
# Indices 1 2 3 4 5 6 
#
# 1 0.007700 -0.005705 -0.001737 0.000000 0.000000 0.000000
# 2 -0.005705 0.013458 -0.003401 0.000001 0.000000 0.000000
# 3 -0.001737 -0.003401 0.077546 -0.000011 0.000000 -0.000001
# 4 0.000000 0.000001 -0.000011 0.035995 0.000000 0.000000
# 5 0.000000 0.000000 0.000000 0.000000 0.041725 0.000000
# 6 0.000000 0.000000 -0.000001 0.000000 0.000000 0.038176
#
#
# Mechanical properties :
#
#
# Convention : Reuss Voigt Hill
#
# Bulk Modulus (GPa) = 12.98394 57.52180 35.25287
# Shear Modulus (GPa) = 19.08699 30.26420 24.67559
#
# Velocity S-wave (km/s) = 3.17010 3.99179 3.60444
# Velocity P-wave (km/s) = 4.49839 7.17856 5.99030
#
# Compressibility (1/GPa) = 0.07701820
#
# Stress axis : x y z
#
# Youngs Moduli (GPa) = 129.86322 74.30603 12.89563
#
# Poissons Ratio (x) = 0.42392 0.02240
# Poissons Ratio (y) = 0.74088 0.04386
# Poissons Ratio (z) = 0.22556 0.25270
#
# Static dielectric constant tensor:
#      x y z
#    x 1.690320 0.000000 0.000000 
#    y 0.000000 1.626020 0.000000 
#    z 0.000000 0.000000 1.682410 
# 
# From -- ./inp_files/6562.got.cif
#   From: 2010.05.17/outbox.cif.g08.bks.cpg/sg71_4_cif.got.tgz:6562.got - 2010.06.03 16:22:01.
