data_PCOD9524407
_publ_section_title
;
Structure prediction by ZEFSAII (Michael W. Deem and Ramdas Pophale) SiO2 
 PCOD9524407
Probable space group: I M M M
;
_chemical_formula_sum "Si O2"
_cell_formula_units_Z 68
_cell_length_a 18.234975
_cell_length_b 20.204760
_cell_length_c 9.739076
_cell_angle_alpha 90.000000
_cell_angle_beta 90.000000
_cell_angle_gamma 90.000000
_cell_volume 3588.199846
_symmetry_space_group_name_H-M "I M M M"
_symmetry_group_IT_number 71
_symmetry_cell_setting 'orthorhombic'
loop_
_space_group_symop_operation_xyz
x,y,z
-x,-y,z
x,-y,-z
-x,y,-z
-x,-y,-z
x,y,-z
-x,y,z
x,-y,z
1/2+x,1/2+y,1/2+z
1/2-x,1/2-y,1/2+z
1/2+x,1/2-y,1/2-z
1/2-x,1/2+y,1/2-z
1/2-x,1/2-y,1/2-z
1/2+x,1/2+y,1/2-z
1/2-x,1/2+y,1/2+z
1/2+x,1/2-y,1/2+z
loop_
_atom_site_type_symbol
_atom_site_label
_atom_site_fract_x
_atom_site_fract_y
_atom_site_fract_z
Si Si1 0.000000 0.870871 0.000000
Si Si2 0.201320 0.273613 0.500000
Si Si3 0.000000 0.576162 0.664695
Si Si4 0.137394 0.657911 0.230491
Si Si5 0.122391 0.760054 0.000000
Si Si6 0.122856 0.129540 0.500000
Si Si7 0.500000 0.421716 0.198093
Si Si8 0.779372 0.423989 0.000000
O O1 0.072250 0.824393 0.000000
O O2 0.000000 0.912352 0.860562
O O3 0.177473 0.311842 0.637503
O O4 0.289409 0.268697 0.500000
O O5 0.159073 0.202754 0.500000
O O6 0.928535 0.612412 0.720000
O O7 0.000000 0.500000 0.707656
O O8 0.000000 0.579497 0.500000
O O9 0.106512 0.716636 0.135086
O O10 0.190336 0.615042 0.132646
O O11 0.070524 0.113861 0.629446
O O12 0.191966 0.080972 0.500000
O O13 0.500000 0.500000 0.163585
O O14 0.803858 0.500000 0.000000
#
# Coordination Sequence:
#
# PCOD9524407 Si02
#       8
#     4   8   8  16   8   8   8   8
#     4  12  25  40  68  96 135 174 210 266 340 372
#     4  12  23  41  68  98 135 165 218 274 324 382
#     4  11  23  42  63  93 134 172 215 261 312 393
#     4  11  23  41  67  95 131 173 213 266 326 380
#     4  11  24  41  63  98 135 162 216 269 330 393
#     4  11  23  44  69  92 126 173 214 274 326 380
#     4  11  25  44  66  95 129 173 228 268 316 389
#     4  11  24  42  65  95 128 172 221 263 320 385
#
# _framework density 18.951008000000002
#
# number of rings (size 3 to 8) (size 9 to 14) (size 15 to 20)
#    0.000    0.824    3.529    5.118    3.294    3.294 
#    0.000    2.941    0.000    0.000    0.000    0.000 
#    0.000    0.000    0.000    0.000    0.000    0.000 
#
# Total GULP energy -190103.055904 kJ/mol
# GULP energy per Si atom -5591.266350 kJ/mol
# Density = 1.890787 g / cm^3
# Si number density = 18.951008 Si / 1000 Ang^3
#
#
#
# Elastic Constant Matrix: (Units=GPa)
#
#
# Indices 1 2 3 4 5 6 
#
# 1 126.0210 59.3670 33.1037 0.0000 0.0000 0.0000
# 2 59.3670 122.8830 59.0708 0.0000 0.0000 0.0000
# 3 33.1037 59.0708 135.1451 0.0000 0.0000 0.0000
# 4 0.0000 0.0000 0.0000 49.1951 0.0000 0.0000
# 5 0.0000 0.0000 0.0000 0.0000 19.2847 0.0000
# 6 0.0000 0.0000 0.0000 0.0000 0.0000 5.3836
#
#
#
# Elastic Compliance Matrix: (Units=1/GPa)
#
#
# Indices 1 2 3 4 5 6 
#
# 1 0.010294 -0.004762 -0.000440 0.000000 0.000000 0.000000
# 2 -0.004762 0.012505 -0.004299 0.000000 0.000000 0.000000
# 3 -0.000440 -0.004299 0.009387 0.000000 0.000000 0.000000
# 4 0.000000 0.000000 0.000000 0.020327 0.000000 0.000000
# 5 0.000000 0.000000 0.000000 0.000000 0.051855 0.000000
# 6 0.000000 0.000000 0.000000 0.000000 0.000000 0.185750
#
#
# Mechanical properties :
#
#
# Convention : Reuss Voigt Hill
#
# Bulk Modulus (GPa) = 75.85580 76.34800 76.10190
# Shear Modulus (GPa) = 15.94822 30.27318 23.11070
#
# Velocity S-wave (km/s) = 2.90410 4.00114 3.49592
# Velocity P-wave (km/s) = 7.16654 7.85621 7.51928
#
# Compressibility (1/GPa) = 0.01318291
#
# Stress axis : x y z
#
# Youngs Moduli (GPa) = 97.14448 79.96796 106.53525
#
# Poissons Ratio (x) = 0.38077 0.04690
# Poissons Ratio (y) = 0.46256 0.45805
# Poissons Ratio (z) = 0.04277 0.34382
#
# Static dielectric constant tensor:
#      x y z
#    x 1.633030 0.000000 0.000000 
#    y 0.000000 1.642580 0.000000 
#    z 0.000000 0.000000 1.645470 
# 
# From -- ./inp_files/7737.got.cif
#   From: 2010.05.17/outbox.cif.g08.bks.cpg/sg71_4_cif.got.tgz:7737.got - 2010.06.03 16:22:01.
