data_PCOD9524648
_publ_section_title
;
Structure prediction by ZEFSAII (Michael W. Deem and Ramdas Pophale) SiO2 
 PCOD9524648
Probable space group: I M M M
;
_chemical_formula_sum "Si O2"
_cell_formula_units_Z 96
_cell_length_a 7.601579
_cell_length_b 19.585624
_cell_length_c 33.565100
_cell_angle_alpha 90.000000
_cell_angle_beta 90.000000
_cell_angle_gamma 90.000000
_cell_volume 4997.228078
_symmetry_space_group_name_H-M "I M M M"
_symmetry_group_IT_number 71
_symmetry_cell_setting 'orthorhombic'
loop_
_space_group_symop_operation_xyz
x,y,z
-x,-y,z
x,-y,-z
-x,y,-z
-x,-y,-z
x,y,-z
-x,y,z
x,-y,z
1/2+x,1/2+y,1/2+z
1/2-x,1/2-y,1/2+z
1/2+x,1/2-y,1/2-z
1/2-x,1/2+y,1/2-z
1/2-x,1/2-y,1/2-z
1/2+x,1/2+y,1/2-z
1/2-x,1/2+y,1/2+z
1/2+x,1/2-y,1/2+z
loop_
_atom_site_type_symbol
_atom_site_label
_atom_site_fract_x
_atom_site_fract_y
_atom_site_fract_z
Si Si1 0.788927 0.344971 0.831557
Si Si2 0.211362 0.924008 0.410715
Si Si3 0.288012 0.710569 0.955381
Si Si4 0.710702 0.711365 0.623345
Si Si5 0.291247 0.576567 0.336584
Si Si6 0.212701 0.578139 0.754660
O O1 0.751303 0.400791 0.865675
O O2 0.720385 0.272969 0.848591
O O3 0.722565 0.371258 0.789059
O O4 0.000000 0.338927 0.828472
O O5 0.277051 0.862818 0.438908
O O6 0.000000 0.925821 0.414975
O O7 0.279032 0.000000 0.418979
O O8 0.500000 0.706886 0.956685
O O9 0.243345 0.766166 0.921946
O O10 0.224190 0.724408 0.000000
O O11 0.500000 0.709832 0.628794
O O12 0.780736 0.637784 0.636482
O O13 0.500000 0.572084 0.344136
O O14 0.217314 0.500000 0.342247
O O15 0.267931 0.595467 0.290143
O O16 0.270205 0.500000 0.762782
O O17 0.000000 0.578393 0.755545
#
# Coordination Sequence:
#
# PCOD9524648 Si02
#       6
#    16  16  16  16  16  16
#     4   9  17  29  44  63  90 123 156 188 220 254
#     4   9  17  28  43  65  92 122 155 186 215 251
#     4   9  18  32  49  69  92 117 145 179 221 266
#     4   9  18  32  49  68  89 115 148 184 223 267
#     4   9  18  32  48  66  89 116 146 183 227 270
#     4   9  17  28  42  62  89 121 154 184 216 256
#
# _framework density 19.210650000000001
#
# number of rings (size 3 to 8) (size 9 to 14) (size 15 to 20)
#    0.000    3.000    0.000    0.500    0.000    3.667 
#    0.000    3.333    0.000    0.500    0.000    8.167 
#    0.000    0.000    0.000    0.000    0.000    0.000 
#
# Total GULP energy -267635.115912 kJ/mol
# GULP energy per Si atom -5575.731581 kJ/mol
# Density = 1.916693 g / cm^3
# Si number density = 19.210650 Si / 1000 Ang^3
#
#
#
# Elastic Constant Matrix: (Units=GPa)
#
#
# Indices 1 2 3 4 5 6 
#
# 1 40.4700 7.7933 -2.7495 0.0000 0.0000 0.0000
# 2 7.7933 133.4590 118.1973 0.0000 0.0000 0.0000
# 3 -2.7495 118.1973 133.8901 0.0000 0.0000 0.0000
# 4 0.0000 0.0000 0.0000 8.8456 0.0000 0.0000
# 5 0.0000 0.0000 0.0000 0.0000 19.8867 0.0000
# 6 0.0000 0.0000 0.0000 0.0000 0.0000 9.4413
#
#
#
# Elastic Compliance Matrix: (Units=1/GPa)
#
#
# Indices 1 2 3 4 5 6 
#
# 1 0.027155 -0.009532 0.008973 0.000000 0.000000 0.000000
# 2 -0.009532 0.037693 -0.033471 0.000000 0.000000 0.000000
# 3 0.008973 -0.033471 0.037201 0.000000 0.000000 0.000000
# 4 0.000000 0.000000 0.000000 0.113050 0.000000 0.000000
# 5 0.000000 0.000000 0.000000 0.000000 0.050285 0.000000
# 6 0.000000 0.000000 0.000000 0.000000 0.000000 0.105917
#
#
# Mechanical properties :
#
#
# Convention : Reuss Voigt Hill
#
# Bulk Modulus (GPa) = 29.42230 61.58905 45.50568
# Shear Modulus (GPa) = 11.09411 19.93994 15.51703
#
# Velocity S-wave (km/s) = 2.40573 3.22524 2.84514
# Velocity P-wave (km/s) = 4.80266 6.78226 5.87642
#
# Compressibility (1/GPa) = 0.03398783
#
# Stress axis : x y z
#
# Youngs Moduli (GPa) = 36.82577 26.53043 26.88127
#
# Poissons Ratio (x) = 0.25290 -0.24120
# Poissons Ratio (y) = 0.35104 0.89973
# Poissons Ratio (z) = -0.33043 0.88799
#
# Static dielectric constant tensor:
#      x y z
#    x 1.714260 0.000000 0.000000 
#    y 0.000000 1.691280 0.000000 
#    z 0.000000 0.000000 1.642210 
# 
# From -- ./inp_files/10892.got.cif
#   From: 2010.05.17/outbox.cif.g08.bks.cpg/sg71_6_cif.got.tgz:10892.got - 2010.06.03 16:22:01.
