data_PCOD9524497
_publ_section_title
;
Structure prediction by ZEFSAII (Michael W. Deem and Ramdas Pophale) SiO2 
 PCOD9524497
Probable space group: I M M M
;
_chemical_formula_sum "Si O2"
_cell_formula_units_Z 112
_cell_length_a 24.291432
_cell_length_b 16.713818
_cell_length_c 17.099222
_cell_angle_alpha 90.000000
_cell_angle_beta 90.000000
_cell_angle_gamma 90.000000
_cell_volume 6942.328135
_symmetry_space_group_name_H-M "I M M M"
_symmetry_group_IT_number 71
_symmetry_cell_setting 'orthorhombic'
loop_
_space_group_symop_operation_xyz
x,y,z
-x,-y,z
x,-y,-z
-x,y,-z
-x,-y,-z
x,y,-z
-x,y,z
x,-y,z
1/2+x,1/2+y,1/2+z
1/2-x,1/2-y,1/2+z
1/2+x,1/2-y,1/2-z
1/2-x,1/2+y,1/2-z
1/2-x,1/2-y,1/2-z
1/2+x,1/2+y,1/2-z
1/2-x,1/2+y,1/2+z
1/2+x,1/2-y,1/2+z
loop_
_atom_site_type_symbol
_atom_site_label
_atom_site_fract_x
_atom_site_fract_y
_atom_site_fract_z
Si Si1 0.434921 0.404129 0.742825
Si Si2 0.248238 0.091880 0.715160
Si Si3 0.660910 0.172141 0.811319
Si Si4 0.248473 0.731945 0.908539
Si Si5 0.936751 0.403657 0.408367
Si Si6 0.566260 0.404144 0.083850
Si Si7 0.158056 0.188000 0.187024
O O1 0.500000 0.388513 0.736925
O O2 0.427511 0.500000 0.738712
O O3 0.415123 0.376495 0.830454
O O4 0.398903 0.358579 0.679095
O O5 0.302900 0.104636 0.767540
O O6 0.252202 0.149256 0.639945
O O7 0.198951 0.127540 0.767486
O O8 0.239171 0.000000 0.695441
O O9 0.701646 0.215874 0.872615
O O10 0.607521 0.139036 0.854180
O O11 0.648464 0.236756 0.744139
O O12 0.192277 0.778988 0.886204
O O13 0.254358 0.720178 0.000000
O O14 0.927144 0.384554 0.500000
O O15 0.932328 0.500000 0.400617
O O16 0.000000 0.381141 0.389911
O O17 0.500000 0.393226 0.083468
O O18 0.575521 0.500000 0.082990
O O19 0.587578 0.371700 0.000000
#
# Coordination Sequence:
#
# PCOD9524497 Si02
#       7
#    16  16  16  16  16  16  16
#     4   9  16  26  42  62  86 121 158 186 215 255
#     4   9  17  30  49  70  91 116 146 184 226 264
#     4   9  17  30  47  66  90 121 150 176 215 268
#     4   9  18  32  49  68  89 116 150 186 227 271
#     4   9  17  28  43  65  92 120 149 183 221 259
#     4   7  10  18  32  50  74 105 141 177 207 238
#     4   9  18  30  45  66  91 118 148 185 223 261
#
# _framework density 16.132916999999999
#
# number of rings (size 3 to 8) (size 9 to 14) (size 15 to 20)
#    0.000    3.286    0.000    4.714    0.000    0.857 
#    0.000    3.571    0.000   14.143    0.000    1.000 
#    0.000    0.000    0.000   20.571    0.000    0.000 
#
# Total GULP energy -311828.990785 kJ/mol
# GULP energy per Si atom -5568.374835 kJ/mol
# Density = 1.609620 g / cm^3
# Si number density = 16.132917 Si / 1000 Ang^3
#
#
#
# Elastic Constant Matrix: (Units=GPa)
#
#
# Indices 1 2 3 4 5 6 
#
# 1 56.5840 19.2978 15.1667 0.0000 0.0000 0.0000
# 2 19.2978 51.4167 18.5909 0.0000 0.0000 0.0000
# 3 15.1667 18.5909 59.1785 0.0000 0.0000 0.0000
# 4 0.0000 0.0000 0.0000 10.1122 0.0000 0.0000
# 5 0.0000 0.0000 0.0000 0.0000 20.2755 0.0000
# 6 0.0000 0.0000 0.0000 0.0000 0.0000 21.7800
#
#
#
# Elastic Compliance Matrix: (Units=1/GPa)
#
#
# Indices 1 2 3 4 5 6 
#
# 1 0.020806 -0.006635 -0.003248 0.000000 0.000000 0.000000
# 2 -0.006635 0.024057 -0.005857 0.000000 0.000000 0.000000
# 3 -0.003248 -0.005857 0.019570 0.000000 0.000000 0.000000
# 4 0.000000 0.000000 0.000000 0.098890 0.000000 0.000000
# 5 0.000000 0.000000 0.000000 0.000000 0.049321 0.000000
# 6 0.000000 0.000000 0.000000 0.000000 0.000000 0.045914
#
#
# Mechanical properties :
#
#
# Convention : Reuss Voigt Hill
#
# Bulk Modulus (GPa) = 30.34542 30.36557 30.35549
# Shear Modulus (GPa) = 16.61007 18.04179 17.32593
#
# Velocity S-wave (km/s) = 3.21218 3.34776 3.28067
# Velocity P-wave (km/s) = 5.71034 5.81432 5.76256
#
# Compressibility (1/GPa) = 0.03295391
#
# Stress axis : x y z
#
# Youngs Moduli (GPa) = 48.06270 41.56825 51.09735
#
# Poissons Ratio (x) = 0.27579 0.16597
# Poissons Ratio (y) = 0.31887 0.29928
# Poissons Ratio (z) = 0.15611 0.24347
#
# Static dielectric constant tensor:
#      x y z
#    x 1.552820 0.000000 0.000000 
#    y 0.000000 1.544950 0.000000 
#    z 0.000000 0.000000 1.542900 
# 
# From -- ./inp_files/40384.got.cif
#   From: 2010.05.17/outbox.cif.g08.bks.cpg/sg71_21_cif.got.tgz:40384.got - 2010.06.03 16:22:01.
