data_PCOD9524551
_publ_section_title
;
Structure prediction by ZEFSAII (Michael W. Deem and Ramdas Pophale) SiO2 
 PCOD9524551
Probable space group: I M M M
;
_chemical_formula_sum "Si O2"
_cell_formula_units_Z 112
_cell_length_a 29.681067
_cell_length_b 7.400697
_cell_length_c 25.600164
_cell_angle_alpha 90.000000
_cell_angle_beta 90.000000
_cell_angle_gamma 90.000000
_cell_volume 5623.346962
_symmetry_space_group_name_H-M "I M M M"
_symmetry_group_IT_number 71
_symmetry_cell_setting 'orthorhombic'
loop_
_space_group_symop_operation_xyz
x,y,z
-x,-y,z
x,-y,-z
-x,y,-z
-x,-y,-z
x,y,-z
-x,y,z
x,-y,z
1/2+x,1/2+y,1/2+z
1/2-x,1/2-y,1/2+z
1/2+x,1/2-y,1/2-z
1/2-x,1/2+y,1/2-z
1/2-x,1/2-y,1/2-z
1/2+x,1/2+y,1/2-z
1/2-x,1/2+y,1/2+z
1/2+x,1/2-y,1/2+z
loop_
_atom_site_type_symbol
_atom_site_label
_atom_site_fract_x
_atom_site_fract_y
_atom_site_fract_z
Si Si1 0.696748 0.215542 0.751732
Si Si2 0.669862 0.778822 0.440360
Si Si3 0.232434 0.203364 0.562761
Si Si4 0.131900 0.294906 0.441705
Si Si5 0.372645 0.779660 0.336758
Si Si6 0.620782 0.778754 0.170243
Si Si7 0.448729 0.220120 0.259590
O O1 0.750000 0.250000 0.750000
O O2 0.668699 0.278494 0.700861
O O3 0.667889 0.278790 0.802262
O O4 0.692208 0.000000 0.752088
O O5 0.661673 0.720060 0.500000
O O6 0.719599 0.719870 0.420670
O O7 0.634982 0.722621 0.396172
O O8 0.671724 0.000000 0.441583
O O9 0.237647 0.191678 0.500000
O O10 0.185545 0.301408 0.570228
O O11 0.227441 0.000000 0.583742
O O12 0.126571 0.213379 0.500000
O O13 0.115016 0.500000 0.445225
O O14 0.113239 0.211374 0.388608
O O15 0.418870 0.723385 0.309271
O O16 0.372127 0.000000 0.336742
O O17 0.580571 0.727478 0.209093
O O18 0.621734 0.000000 0.167679
O O19 0.500000 0.282908 0.259402
O O20 0.449563 0.000000 0.259727
#
# Coordination Sequence:
#
# PCOD9524551 Si02
#       7
#    16  16  16  16  16  16  16
#     4   9  17  27  38  53  76 104 128 156 190 221
#     4   8  13  21  33  49  71  98 125 155 190 222
#     4   8  14  23  34  50  72 101 136 163 178 204
#     4   9  16  25  37  52  74 105 132 153 186 229
#     4   8  14  23  35  53  73  94 125 159 191 227
#     4   8  15  26  37  53  76  98 124 158 195 229
#     4   8  13  23  39  54  69  94 127 161 195 232
#
# _framework density 19.916964
#
# number of rings (size 3 to 8) (size 9 to 14) (size 15 to 20)
#    0.000    3.714    0.000    2.571    2.000    0.000 
#    0.000    0.000    0.000    0.857    0.000    6.000 
#    0.000   14.286    0.000    3.571    0.000    3.714 
#
# Total GULP energy -311800.675187 kJ/mol
# GULP energy per Si atom -5567.869200 kJ/mol
# Density = 1.987163 g / cm^3
# Si number density = 19.916964 Si / 1000 Ang^3
#
#
#
# Elastic Constant Matrix: (Units=GPa)
#
#
# Indices 1 2 3 4 5 6 
#
# 1 103.7653 -2.6527 33.4882 0.0000 0.0000 0.0000
# 2 -2.6527 64.1647 1.8933 0.0000 0.0000 0.0000
# 3 33.4882 1.8933 109.0908 0.0000 0.0000 0.0000
# 4 0.0000 0.0000 0.0000 -7.6339 0.0000 0.0000
# 5 0.0000 0.0000 0.0000 0.0000 14.6426 0.0000
# 6 0.0000 0.0000 0.0000 0.0000 0.0000 8.6150
#
#
#
# Elastic Compliance Matrix: (Units=1/GPa)
#
#
# Indices 1 2 3 4 5 6 
#
# 1 0.010716 0.000540 -0.003299 0.000000 0.000000 0.000000
# 2 0.000540 0.015620 -0.000437 0.000000 0.000000 0.000000
# 3 -0.003299 -0.000437 0.010187 0.000000 0.000000 0.000000
# 4 0.000000 0.000000 0.000000 -0.130994 0.000000 0.000000
# 5 0.000000 0.000000 0.000000 0.000000 0.068294 0.000000
# 6 0.000000 0.000000 0.000000 0.000000 0.000000 0.116077
#
#
# Mechanical properties :
#
#
# Convention : Reuss Voigt Hill
#
# Bulk Modulus (GPa) = 33.18755 38.05314 35.62035
# Shear Modulus (GPa) = 47.02187 19.41087 33.21637
#
# Velocity S-wave (km/s) = 4.86418 3.12523 4.08823
# Velocity P-wave (km/s) = 6.94594 5.67187 6.34099
#
# Compressibility (1/GPa) = 0.03013178
#
# Stress axis : x y z
#
# Youngs Moduli (GPa) = 93.32220 64.01994 98.16520
#
# Poissons Ratio (x) = -0.03459 0.32383
# Poissons Ratio (y) = -0.05043 0.04289
# Poissons Ratio (z) = 0.30785 0.02797
#
# Static dielectric constant tensor:
#      x y z
#    x 1.682610 0.000000 0.000000 
#    y 0.000000 1.619210 0.000000 
#    z 0.000000 0.000000 1.736000 
# 
# From -- ./inp_files/27970.got.cif
#   From: 2010.05.17/outbox.cif.g08.bks.cpg/sg71_14_cif.got.tgz:27970.got - 2010.06.03 16:22:01.
