data_PCOD9524585
_publ_section_title
;
Structure prediction by ZEFSAII (Michael W. Deem and Ramdas Pophale) SiO2 
 PCOD9524585
Probable space group: I M M M
;
_chemical_formula_sum "Si O2"
_cell_formula_units_Z 72
_cell_length_a 28.739241
_cell_length_b 7.366931
_cell_length_c 14.998079
_cell_angle_alpha 90.000000
_cell_angle_beta 90.000000
_cell_angle_gamma 90.000000
_cell_volume 3175.393367
_symmetry_space_group_name_H-M "I M M M"
_symmetry_group_IT_number 71
_symmetry_cell_setting 'orthorhombic'
loop_
_space_group_symop_operation_xyz
x,y,z
-x,-y,z
x,-y,-z
-x,y,-z
-x,-y,-z
x,y,-z
-x,y,z
x,-y,z
1/2+x,1/2+y,1/2+z
1/2-x,1/2-y,1/2+z
1/2+x,1/2-y,1/2-z
1/2-x,1/2+y,1/2-z
1/2-x,1/2-y,1/2-z
1/2+x,1/2+y,1/2-z
1/2-x,1/2+y,1/2+z
1/2+x,1/2-y,1/2+z
loop_
_atom_site_type_symbol
_atom_site_label
_atom_site_fract_x
_atom_site_fract_y
_atom_site_fract_z
Si Si1 0.407031 0.277895 0.203353
Si Si2 0.605685 0.293382 0.404555
Si Si3 0.193599 0.219885 0.336239
Si Si4 0.208894 0.290037 0.127734
Si Si5 0.000000 0.778541 0.602421
O O1 0.405725 0.500000 0.206543
O O2 0.406173 0.214979 0.306946
O O3 0.359840 0.223500 0.150746
O O4 0.453488 0.221424 0.153538
O O5 0.590829 0.211198 0.500000
O O6 0.587971 0.500000 0.403494
O O7 0.661987 0.299422 0.406163
O O8 0.203167 0.277290 0.234531
O O9 0.239045 0.281650 0.391045
O O10 0.194923 0.000000 0.340659
O O11 0.206784 0.500000 0.101051
O O12 0.000000 0.720599 0.500000
O O13 0.000000 0.000000 0.602827
#
# Coordination Sequence:
#
# PCOD9524585 Si02
#       5
#    16  16  16  16   8
#     4   8  14  26  42  60  85 115 145 176 214 265
#     4   9  17  29  43  59  86 124 154 177 215 263
#     4   8  14  25  40  59  87 120 147 175 215 258
#     4   9  15  23  39  63  88 116 150 184 213 246
#     4   9  16  26  43  67  90 109 133 175 230 274
#
# _framework density 22.674356
#
# number of rings (size 3 to 8) (size 9 to 14) (size 15 to 20)
#    0.000    3.444    0.000    2.000    0.000    1.333 
#    0.000    1.667    0.000    7.333    0.000   12.444 
#    0.000   29.333    0.000    0.000    0.000    0.000 
#
# Total GULP energy -200447.033873 kJ/mol
# GULP energy per Si atom -5567.973163 kJ/mol
# Density = 2.262275 g / cm^3
# Si number density = 22.674356 Si / 1000 Ang^3
#
#
#
# Elastic Constant Matrix: (Units=GPa)
#
#
# Indices 1 2 3 4 5 6 
#
# 1 166.5430 2.9139 73.0585 0.0000 0.0000 0.0000
# 2 2.9139 76.1234 -8.0962 0.0000 0.0000 0.0000
# 3 73.0585 -8.0962 117.3108 0.0000 0.0000 0.0000
# 4 0.0000 0.0000 0.0000 -20.0755 0.0000 0.0000
# 5 0.0000 0.0000 0.0000 0.0000 -12.2780 0.0000
# 6 0.0000 0.0000 0.0000 0.0000 0.0000 8.4322
#
#
#
# Elastic Compliance Matrix: (Units=1/GPa)
#
#
# Indices 1 2 3 4 5 6 
#
# 1 0.008319 -0.000876 -0.005241 0.000000 0.000000 0.000000
# 2 -0.000876 0.013326 0.001465 0.000000 0.000000 0.000000
# 3 -0.005241 0.001465 0.011890 0.000000 0.000000 0.000000
# 4 0.000000 0.000000 0.000000 -0.049812 0.000000 0.000000
# 5 0.000000 0.000000 0.000000 0.000000 -0.081446 0.000000
# 6 0.000000 0.000000 0.000000 0.000000 0.000000 0.118593
#
#
# Mechanical properties :
#
#
# Convention : Reuss Voigt Hill
#
# Bulk Modulus (GPa) = 41.27035 55.08108 48.17572
# Shear Modulus (GPa) = 130.71802 14.68913 72.70358
#
# Velocity S-wave (km/s) = 7.60101 2.54801 5.66867
# Velocity P-wave (km/s) = 9.76087 5.74469 8.00862
#
# Compressibility (1/GPa) = 0.02423047
#
# Stress axis : x y z
#
# Youngs Moduli (GPa) = 120.20615 75.04176 84.10654
#
# Poissons Ratio (x) = 0.06573 0.44083
# Poissons Ratio (y) = 0.10529 -0.12323
# Poissons Ratio (z) = 0.63004 -0.10995
#
# Static dielectric constant tensor:
#      x y z
#    x 1.843840 0.000000 0.000000 
#    y 0.000000 1.955920 0.000000 
#    z 0.000000 0.000000 1.883240 
# 
# From -- ./inp_files/16365.got.cif
#   From: 2010.05.17/outbox.cif.g08.bks.cpg/sg71_9_cif.got.tgz:16365.got - 2010.06.03 16:22:01.
