data_PCOD9524988
_publ_section_title
;
Structure prediction by ZEFSAII (Michael W. Deem and Ramdas Pophale) SiO2 
 PCOD9524988
Probable space group: I B A M
;
_chemical_formula_sum "Si O2"
_cell_formula_units_Z 84
_cell_length_a 13.335613
_cell_length_b 12.572249
_cell_length_c 19.923653
_cell_angle_alpha 90.000000
_cell_angle_beta 90.000000
_cell_angle_gamma 90.000000
_cell_volume 3340.372709
_symmetry_space_group_name_H-M "I B A M"
_symmetry_group_IT_number 72
_symmetry_cell_setting 'orthorhombic'
loop_
_space_group_symop_operation_xyz
x,y,z
-x,-y,z
x,-y,1/2-z
-x,y,1/2-z
-x,-y,-z
x,y,-z
-x,y,1/2+z
x,-y,1/2+z
1/2+x,1/2+y,1/2+z
1/2-x,1/2-y,1/2+z
1/2+x,1/2-y,-z
1/2-x,1/2+y,-z
1/2-x,1/2-y,1/2-z
1/2+x,1/2+y,1/2-z
1/2-x,1/2+y,z
1/2+x,1/2-y,z
loop_
_atom_site_type_symbol
_atom_site_label
_atom_site_fract_x
_atom_site_fract_y
_atom_site_fract_z
Si Si1 0.153193 0.134384 0.855058
Si Si2 0.000000 0.136400 0.750000
Si Si3 0.699495 0.381702 0.000000
Si Si4 0.627269 0.219143 0.646379
Si Si5 0.073789 0.375014 0.136335
Si Si6 0.500000 0.000000 0.250000
Si Si7 0.380314 0.855013 0.000000
Si Si8 0.109976 0.724756 0.000000
O O1 0.155333 0.081463 0.929047
O O2 0.267593 0.164031 0.835969
O O3 0.106424 0.252662 0.861409
O O4 0.078523 0.081486 0.801708
O O5 0.922811 0.207930 0.796114
O O6 0.683780 0.252433 0.000000
O O7 0.819156 0.379204 0.000000
O O8 0.546817 0.126798 0.630507
O O9 0.631821 0.277850 0.573183
O O10 0.078280 0.429417 0.207449
O O11 0.128377 0.415516 0.070089
O O12 0.493512 0.807038 0.000000
#
# Coordination Sequence:
#
# PCOD9524988 Si02
#       8
#    16   8   8  16  16   4   8   8
#     4   9  16  28  43  60  82 106 138 175 213 253
#     4  10  17  20  32  57  82 107 129 154 196 242
#     4   8  14  24  41  59  76 103 133 170 214 252
#     4   9  16  28  43  60  82 106 138 175 213 253
#     4   9  18  29  43  63  85 113 140 170 207 246
#     4  12  22  30  36  52  88 120 154 174 192 238
#     4   8  14  27  42  58  82 108 140 169 200 244
#     4   8  14  24  41  59  76 103 133 170 214 252
#
# _framework density 25.146892999999999
#
# number of rings (size 3 to 8) (size 9 to 14) (size 15 to 20)
#    0.000    3.048    0.000    4.000    0.000    0.381 
#    0.000    0.000    0.000    0.000    0.000    0.000 
#    0.000   27.429    0.000    1.143    0.000  896.762 
#
# Total GULP energy -233843.896381 kJ/mol
# GULP energy per Si atom -5567.711819 kJ/mol
# Density = 2.508966 g / cm^3
# Si number density = 25.146893 Si / 1000 Ang^3
#
#
#
# Elastic Constant Matrix: (Units=GPa)
#
#
# Indices 1 2 3 4 5 6 
#
# 1 126.8031 0.4473 39.2677 0.0000 0.0000 0.0000
# 2 0.4473 36.7555 10.3519 0.0000 0.0000 0.0000
# 3 39.2677 10.3519 170.2324 0.0000 0.0000 0.0000
# 4 0.0000 0.0000 0.0000 24.0969 0.0000 0.0000
# 5 0.0000 0.0000 0.0000 0.0000 42.2857 0.0000
# 6 0.0000 0.0000 0.0000 0.0000 0.0000 8.8064
#
#
#
# Elastic Compliance Matrix: (Units=1/GPa)
#
#
# Indices 1 2 3 4 5 6 
#
# 1 0.008500 0.000457 -0.001989 0.000000 0.000000 0.000000
# 2 0.000457 0.027705 -0.001790 0.000000 0.000000 0.000000
# 3 -0.001989 -0.001790 0.006442 0.000000 0.000000 0.000000
# 4 0.000000 0.000000 0.000000 0.041499 0.000000 0.000000
# 5 0.000000 0.000000 0.000000 0.000000 0.023649 0.000000
# 6 0.000000 0.000000 0.000000 0.000000 0.000000 0.113554
#
#
# Mechanical properties :
#
#
# Convention : Reuss Voigt Hill
#
# Bulk Modulus (GPa) = 27.77498 48.21387 37.99443
# Shear Modulus (GPa) = 20.83376 33.95273 27.39325
#
# Velocity S-wave (km/s) = 2.88146 3.67846 3.30408
# Velocity P-wave (km/s) = 4.70526 6.10376 5.44956
#
# Compressibility (1/GPa) = 0.03600363
#
# Stress axis : x y z
#
# Youngs Moduli (GPa) = 117.64095 36.09402 155.23398
#
# Poissons Ratio (x) = -0.01648 0.30869
# Poissons Ratio (y) = -0.05372 0.27789
# Poissons Ratio (z) = 0.23394 0.06461
#
# Static dielectric constant tensor:
#      x y z
#    x 2.032690 0.000000 0.000000 
#    y 0.000000 2.070500 0.000000 
#    z 0.000000 0.000000 2.287340 
# 
# From -- ./inp_files/37080.got.cif
#   From: 2010.05.17/outbox.cif.g08.bks.cpg/sg72_19_cif.got.tgz:37080.got - 2010.06.03 17:03:01.
