data_PCOD9524943
_publ_section_title
;
Structure prediction by ZEFSAII (Michael W. Deem and Ramdas Pophale) SiO2 
 PCOD9524943
Probable space group: I B A M
;
_chemical_formula_sum "Si O2"
_cell_formula_units_Z 56
_cell_length_a 14.204132
_cell_length_b 5.087191
_cell_length_c 34.143886
_cell_angle_alpha 90.000000
_cell_angle_beta 90.000000
_cell_angle_gamma 90.000000
_cell_volume 2467.207582
_symmetry_space_group_name_H-M "I B A M"
_symmetry_group_IT_number 72
_symmetry_cell_setting 'orthorhombic'
loop_
_space_group_symop_operation_xyz
x,y,z
-x,-y,z
x,-y,1/2-z
-x,y,1/2-z
-x,-y,-z
x,y,-z
-x,y,1/2+z
x,-y,1/2+z
1/2+x,1/2+y,1/2+z
1/2-x,1/2-y,1/2+z
1/2+x,1/2-y,-z
1/2-x,1/2+y,-z
1/2-x,1/2-y,1/2-z
1/2+x,1/2+y,1/2-z
1/2-x,1/2+y,z
1/2+x,1/2-y,z
loop_
_atom_site_type_symbol
_atom_site_label
_atom_site_fract_x
_atom_site_fract_y
_atom_site_fract_z
Si Si1 0.611738 0.021115 0.123549
Si Si2 0.070601 0.243342 0.500000
Si Si3 0.385839 0.531841 0.419718
Si Si4 0.312584 0.024361 0.207223
O O1 0.647013 0.242412 0.092951
O O2 0.630121 0.063097 0.169140
O O3 0.500000 0.000000 0.117466
O O4 0.648676 0.733265 0.112953
O O5 0.130570 0.184575 0.539169
O O6 0.000000 0.500000 0.500000
O O7 0.000000 0.000000 0.500000
O O8 0.500000 0.500000 0.418164
O O9 0.224220 0.823273 0.206009
O O10 0.359472 0.000000 0.250000
#
# Coordination Sequence:
#
# PCOD9524943 Si02
#       4
#    16   8  16  16
#     4  10  19  32  51  77 105 131 167 215 261 303
#     4  10  16  26  44  70 106 142 170 204 255 304
#     4   9  17  28  45  73 105 134 166 208 254 301
#     4  10  21  37  55  75 100 133 173 212 256 318
#
# _framework density 22.697724000000001
#
# number of rings (size 3 to 8) (size 9 to 14) (size 15 to 20)
#    0.000    2.286    0.000    6.000    0.000    0.571 
#    0.000    0.000    0.000   10.286    0.000   20.000 
#    0.000    0.000    0.000    0.000    0.000    0.000 
#
# Total GULP energy -155898.963493 kJ/mol
# GULP energy per Si atom -5567.820125 kJ/mol
# Density = 2.264606 g / cm^3
# Si number density = 22.697724 Si / 1000 Ang^3
#
#
#
# Elastic Constant Matrix: (Units=GPa)
#
#
# Indices 1 2 3 4 5 6 
#
# 1 44.7262 -6.1949 1.2002 0.0000 0.0000 0.0000
# 2 -6.1949 135.0862 54.8009 0.0000 0.0000 0.0000
# 3 1.2002 54.8009 166.7587 0.0000 0.0000 0.0000
# 4 0.0000 0.0000 0.0000 33.7603 0.0000 0.0000
# 5 0.0000 0.0000 0.0000 0.0000 0.1092 0.0000
# 6 0.0000 0.0000 0.0000 0.0000 0.0000 -3.8669
#
#
#
# Elastic Compliance Matrix: (Units=1/GPa)
#
#
# Indices 1 2 3 4 5 6 
#
# 1 0.022550 0.001269 -0.000579 0.000000 0.000000 0.000000
# 2 0.001269 0.008613 -0.002840 0.000000 0.000000 0.000000
# 3 -0.000579 -0.002840 0.006934 0.000000 0.000000 0.000000
# 4 0.000000 0.000000 0.000000 0.029621 0.000000 0.000000
# 5 0.000000 0.000000 0.000000 0.000000 9.161656 0.000000
# 6 0.000000 0.000000 0.000000 0.000000 0.000000 -0.258605
#
#
# Mechanical properties :
#
#
# Convention : Reuss Voigt Hill
#
# Bulk Modulus (GPa) = 29.58848 49.57593 39.58220
# Shear Modulus (GPa) = 0.55640 25.78484 13.17062
#
# Velocity S-wave (km/s) = 0.49565 3.37413 2.41148
# Velocity P-wave (km/s) = 3.65947 6.08842 5.02298
#
# Compressibility (1/GPa) = 0.03379694
#
# Stress axis : x y z
#
# Youngs Moduli (GPa) = 44.34666 116.10630 144.21718
#
# Poissons Ratio (x) = -0.14735 0.08355
# Poissons Ratio (y) = -0.05628 0.40951
# Poissons Ratio (z) = 0.02569 0.32968
#
# Static dielectric constant tensor:
#      x y z
#    x 1.701670 0.000000 0.000000 
#    y 0.000000 1.832520 0.000000 
#    z 0.000000 0.000000 1.966800 
# 
# From -- ./inp_files/50131.got.cif
#   From: 2010.05.17/outbox.cif.g08.bks.cpg/sg72_26_cif.got.tgz:50131.got - 2010.06.03 17:03:01.
