data_PCOD9524020
_publ_section_title
;
Structure prediction by ZEFSAII (Michael W. Deem and Ramdas Pophale) SiO2 
 PCOD9524020
Probable space group: I M M M
;
_chemical_formula_sum "Si O2"
_cell_formula_units_Z 96
_cell_length_a 20.746302
_cell_length_b 15.308139
_cell_length_c 15.043023
_cell_angle_alpha 90.000000
_cell_angle_beta 90.000000
_cell_angle_gamma 90.000000
_cell_volume 4777.472679
_symmetry_space_group_name_H-M "I M M M"
_symmetry_group_IT_number 71
_symmetry_cell_setting 'orthorhombic'
loop_
_space_group_symop_operation_xyz
x,y,z
-x,-y,z
x,-y,-z
-x,y,-z
-x,-y,-z
x,y,-z
-x,y,z
x,-y,z
1/2+x,1/2+y,1/2+z
1/2-x,1/2-y,1/2+z
1/2+x,1/2-y,1/2-z
1/2-x,1/2+y,1/2-z
1/2-x,1/2-y,1/2-z
1/2+x,1/2+y,1/2-z
1/2-x,1/2+y,1/2+z
1/2+x,1/2-y,1/2+z
loop_
_atom_site_type_symbol
_atom_site_label
_atom_site_fract_x
_atom_site_fract_y
_atom_site_fract_z
Si Si1 0.301886 0.095878 0.141997
Si Si2 0.706085 0.164974 0.337038
Si Si3 0.154444 0.208595 0.600449
Si Si4 0.068066 0.598699 0.105805
Si Si5 0.832884 0.846729 0.897722
Si Si6 0.923697 0.100767 0.745686
O O1 0.289822 0.111423 0.246649
O O2 0.337306 0.185786 0.112319
O O3 0.231288 0.095791 0.098480
O O4 0.332396 0.000000 0.126963
O O5 0.774278 0.164626 0.387614
O O6 0.638337 0.135556 0.377716
O O7 0.691968 0.268181 0.333780
O O8 0.132090 0.192152 0.500000
O O9 0.109025 0.165663 0.674544
O O10 0.068212 0.500000 0.141366
O O11 0.000000 0.641405 0.137874
O O12 0.063340 0.595334 0.000000
O O13 0.891514 0.886624 0.842861
O O14 0.848375 0.820137 0.000000
O O15 0.000000 0.115631 0.750183
O O16 0.911870 0.000000 0.718431
#
# Coordination Sequence:
#
# PCOD9524020 Si02
#       6
#    16  16  16  16  16  16
#     4  11  21  37  64  96 132 170 206 260 325 383
#     4  11  19  36  60  91 125 165 211 260 311 375
#     4  11  23  42  66  94 127 166 217 271 322 381
#     4   9  18  31  47  75 118 161 201 249 305 369
#     4  11  22  39  64  94 131 169 207 259 324 386
#     4  11  25  45  66  93 130 169 217 273 325 381
#
# _framework density 20.094306
#
# number of rings (size 3 to 8) (size 9 to 14) (size 15 to 20)
#    0.000    1.333    3.333    5.500    0.000    4.667 
#    0.000    1.667    0.000    0.500    0.000    1.167 
#    0.000    0.000    0.000    0.000    0.000    0.000 
#
# Total GULP energy -267261.066020 kJ/mol
# GULP energy per Si atom -5567.938875 kJ/mol
# Density = 2.004857 g / cm^3
# Si number density = 20.094306 Si / 1000 Ang^3
#
#
#
# Elastic Constant Matrix: (Units=GPa)
#
#
# Indices 1 2 3 4 5 6 
#
# 1 109.1374 46.0349 31.2467 0.0000 0.0000 0.0000
# 2 46.0349 79.2249 22.4203 0.0000 0.0000 0.0000
# 3 31.2467 22.4203 101.4544 0.0000 0.0000 0.0000
# 4 0.0000 0.0000 0.0000 26.5143 0.0000 0.0000
# 5 0.0000 0.0000 0.0000 0.0000 18.5106 0.0000
# 6 0.0000 0.0000 0.0000 0.0000 0.0000 134.3786
#
#
#
# Elastic Compliance Matrix: (Units=1/GPa)
#
#
# Indices 1 2 3 4 5 6 
#
# 1 0.012675 -0.006678 -0.002428 0.000000 0.000000 0.000000
# 2 -0.006678 0.016983 -0.001696 0.000000 0.000000 0.000000
# 3 -0.002428 -0.001696 0.010979 0.000000 0.000000 0.000000
# 4 0.000000 0.000000 0.000000 0.037716 0.000000 0.000000
# 5 0.000000 0.000000 0.000000 0.000000 0.054023 0.000000
# 6 0.000000 0.000000 0.000000 0.000000 0.000000 0.007442
#
#
# Mechanical properties :
#
#
# Convention : Reuss Voigt Hill
#
# Bulk Modulus (GPa) = 52.54153 54.35784 53.44968
# Shear Modulus (GPa) = 29.80366 48.55500 39.17933
#
# Velocity S-wave (km/s) = 3.85540 4.92098 4.42041
# Velocity P-wave (km/s) = 6.78403 7.70702 7.26020
#
# Compressibility (1/GPa) = 0.01903256
#
# Stress axis : x y z
#
# Youngs Moduli (GPa) = 78.89806 58.88407 91.08060
#
# Poissons Ratio (x) = 0.39321 0.22114
# Poissons Ratio (y) = 0.52686 0.15450
# Poissons Ratio (z) = 0.19156 0.09989
#
# Static dielectric constant tensor:
#      x y z
#    x 1.792110 0.000000 0.000000 
#    y 0.000000 1.830060 0.000000 
#    z 0.000000 0.000000 1.712130 
# 
# From -- ./inp_files/34518.got.cif
#   From: 2010.05.17/outbox.cif.g08.bks.cpg/sg71_18_cif.got.tgz:34518.got - 2010.06.03 16:22:01.
