data_PCOD9524727
_publ_section_title
;
Structure prediction by ZEFSAII (Michael W. Deem and Ramdas Pophale) SiO2 
 PCOD9524727
Probable space group: I M M M
;
_chemical_formula_sum "Si O2"
_cell_formula_units_Z 48
_cell_length_a 15.000000
_cell_length_b 15.000000
_cell_length_c 21.000000
_cell_angle_alpha 90.000000
_cell_angle_beta 90.000000
_cell_angle_gamma 90.000000
_cell_volume 4725.000000
_symmetry_space_group_name_H-M "I M M M"
_symmetry_group_IT_number 71
_symmetry_cell_setting 'orthorhombic'
loop_
_space_group_symop_operation_xyz
x,y,z
-x,-y,z
x,-y,-z
-x,y,-z
-x,-y,-z
x,y,-z
-x,y,z
x,-y,z
1/2+x,1/2+y,1/2+z
1/2-x,1/2-y,1/2+z
1/2+x,1/2-y,1/2-z
1/2-x,1/2+y,1/2-z
1/2-x,1/2-y,1/2-z
1/2+x,1/2+y,1/2-z
1/2-x,1/2+y,1/2+z
1/2+x,1/2-y,1/2+z
loop_
_atom_site_type_symbol
_atom_site_label
_atom_site_fract_x
_atom_site_fract_y
_atom_site_fract_z
Si Si1 0.893703 0.101738 0.640294
Si Si2 0.899283 0.636784 0.703709
Si Si3 0.392669 0.225862 0.930763
Si Si4 0.108740 0.399847 0.073095
Si Si5 0.101239 0.751560 0.171821
Si Si6 0.796638 0.904728 0.226000
O O1 0.865988 0.173930 0.588237
O O2 0.836141 0.114074 0.704028
O O3 0.000000 0.115251 0.654831
O O4 0.883445 0.000000 0.618605
O O5 0.877726 0.666874 0.631852
O O6 0.904767 0.714524 0.756213
O O7 0.809723 0.590076 0.726914
O O8 0.000000 0.597489 0.704156
O O9 0.500000 0.226798 0.935787
O O10 0.356661 0.198419 0.000000
O O11 0.139417 0.500000 0.090022
O O12 0.133447 0.325585 0.124230
O O13 0.000000 0.402185 0.074283
O O14 0.134760 0.380597 0.000000
O O15 0.169921 0.831256 0.176961
O O16 0.000000 0.777849 0.153374
O O17 0.834786 0.000000 0.206895
#
# Coordination Sequence:
#
# PCOD9524727 Si02
#       6
#    16  16  16  16  16  16
#     4   9  17  30  51  83 120 152 184 225 279 349
#     4  10  21  37  56  80 108 144 199 253 295 342
#     4   9  17  31  53  79 108 147 191 236 290 344
#     4   8  15  30  54  85 119 153 188 228 283 351
#     4  10  19  33  57  85 115 152 190 232 287 350
#     4  11  22  35  55  81 114 155 194 239 291 340
#
# _framework density 10.15873
#
# number of rings (size 3 to 8) (size 9 to 14) (size 15 to 20)
#    0.000    2.500    1.667    1.500    0.000    2.333 
#    0.000    4.167    0.000    2.000    0.000    4.667 
#    0.000    0.000    0.000    0.000    0.000    0.000 
#
# Total GULP energy -267372.460729 kJ/mol
# GULP energy per Si atom -5570.259599 kJ/mol
# Density = 1.013561 g / cm^3
# Si number density = 10.158730 Si / 1000 Ang^3
#
#
#
# Elastic Constant Matrix: (Units=GPa)
#
#
# Indices 1 2 3 4 5 6 
#
# 1 69.0786 22.8385 19.5317 0.0000 0.0000 0.0000
# 2 22.8385 60.2415 31.5088 0.0000 0.0000 0.0000
# 3 19.5317 31.5088 85.2336 0.0000 0.0000 0.0000
# 4 0.0000 0.0000 0.0000 19.7202 0.0000 0.0000
# 5 0.0000 0.0000 0.0000 0.0000 2.4869 0.0000
# 6 0.0000 0.0000 0.0000 0.0000 0.0000 -15.1562
#
#
#
# Elastic Compliance Matrix: (Units=1/GPa)
#
#
# Indices 1 2 3 4 5 6 
#
# 1 0.016783 -0.005394 -0.001852 0.000000 0.000000 0.000000
# 2 -0.005394 0.022313 -0.007012 0.000000 0.000000 0.000000
# 3 -0.001852 -0.007012 0.014749 0.000000 0.000000 0.000000
# 4 0.000000 0.000000 0.000000 0.050709 0.000000 0.000000
# 5 0.000000 0.000000 0.000000 0.000000 0.402105 0.000000
# 6 0.000000 0.000000 0.000000 0.000000 0.000000 -0.065980
#
#
# Mechanical properties :
#
#
# Convention : Reuss Voigt Hill
#
# Bulk Modulus (GPa) = 39.48168 40.25688 39.86928
# Shear Modulus (GPa) = 10.46815 10.78850 10.62833
#
# Velocity S-wave (km/s) = 2.27233 2.30684 2.28965
# Velocity P-wave (km/s) = 5.13412 5.19156 5.16292
#
# Compressibility (1/GPa) = 0.02532821
#
# Stress axis : x y z
#
# Youngs Moduli (GPa) = 59.58306 44.81770 67.80070
#
# Poissons Ratio (x) = 0.24176 0.12556
# Poissons Ratio (y) = 0.32140 0.47544
# Poissons Ratio (z) = 0.11034 0.31428
#
# Static dielectric constant tensor:
#      x y z
#    x 1.756920 0.000000 0.000000 
#    y 0.000000 1.825440 0.000000 
#    z 0.000000 0.000000 1.724820 
# 
# From -- ./inp_files/37836.got.cif
#   From: 2010.05.17/outbox.ucp.g08.bks.cvg/sg71_19_cif.got.tgz:37836.got - 2010.06.11 16:29:00.
