data_PCOD9524451
_publ_section_title
;
Structure prediction by ZEFSAII (Michael W. Deem and Ramdas Pophale) SiO2 
 PCOD9524451
Probable space group: I M M M
;
_chemical_formula_sum "Si O2"
_cell_formula_units_Z 68
_cell_length_a 17.081137
_cell_length_b 8.286545
_cell_length_c 23.335059
_cell_angle_alpha 90.000000
_cell_angle_beta 90.000000
_cell_angle_gamma 90.000000
_cell_volume 3302.928500
_symmetry_space_group_name_H-M "I M M M"
_symmetry_group_IT_number 71
_symmetry_cell_setting 'orthorhombic'
loop_
_space_group_symop_operation_xyz
x,y,z
-x,-y,z
x,-y,-z
-x,y,-z
-x,-y,-z
x,y,-z
-x,y,z
x,-y,z
1/2+x,1/2+y,1/2+z
1/2-x,1/2-y,1/2+z
1/2+x,1/2-y,1/2-z
1/2-x,1/2+y,1/2-z
1/2-x,1/2-y,1/2-z
1/2+x,1/2+y,1/2-z
1/2-x,1/2+y,1/2+z
1/2+x,1/2-y,1/2+z
loop_
_atom_site_type_symbol
_atom_site_label
_atom_site_fract_x
_atom_site_fract_y
_atom_site_fract_z
Si Si1 0.300288 0.808860 0.936679
Si Si2 0.909439 0.804604 0.334242
Si Si3 0.500000 0.699827 0.500000
Si Si4 0.128744 0.315692 0.914545
Si Si5 0.905325 0.813351 0.207825
O O1 0.356844 0.757501 0.885624
O O2 0.217474 0.719677 0.931489
O O3 0.285390 0.000000 0.932768
O O4 0.333973 0.774418 0.000000
O O5 0.880559 0.753651 0.270823
O O6 0.000000 0.753496 0.341204
O O7 0.908490 0.000000 0.333806
O O8 0.568471 0.706976 0.450060
O O9 0.106717 0.500000 0.928654
O O10 0.121499 0.285862 0.846857
O O11 0.000000 0.812490 0.208785
O O12 0.880128 0.000000 0.200487
#
# Coordination Sequence:
#
# PCOD9524451 Si02
#       5
#    16  16   4  16  16
#     4  11  25  42  59  87 123 158 200 249 301 356
#     4   9  20  41  67  91 118 155 199 247 300 358
#     4  12  25  40  61  94 127 160 203 246 289 350
#     4  12  23  39  62  89 123 161 202 247 294 351
#     4   9  19  37  60  89 122 155 197 247 296 353
#
# _framework density 20.587789999999998
#
# number of rings (size 3 to 8) (size 9 to 14) (size 15 to 20)
#    0.000    1.647    2.353    3.882    0.000    4.235 
#    0.000    7.059    0.000    0.000    0.000    0.000 
#    0.000    0.000    0.000    0.000    0.000    0.000 
#
# Total GULP energy -189497.102426 kJ/mol
# GULP energy per Si atom -5573.444189 kJ/mol
# Density = 2.054093 g / cm^3
# Si number density = 20.587790 Si / 1000 Ang^3
#
#
#
# Elastic Constant Matrix: (Units=GPa)
#
#
# Indices 1 2 3 4 5 6 
#
# 1 61.0931 6.2884 50.7752 0.0000 0.0000 0.0000
# 2 6.2884 34.8783 26.1584 0.0000 0.0000 0.0000
# 3 50.7752 26.1584 190.1462 0.0000 0.0000 0.0000
# 4 0.0000 0.0000 0.0000 98.4700 0.0000 0.0000
# 5 0.0000 0.0000 0.0000 0.0000 46.2709 0.0000
# 6 0.0000 0.0000 0.0000 0.0000 0.0000 -7.5002
#
#
#
# Elastic Compliance Matrix: (Units=1/GPa)
#
#
# Indices 1 2 3 4 5 6 
#
# 1 0.021044 0.000469 -0.005684 0.000000 0.000000 0.000000
# 2 0.000469 0.031980 -0.004525 0.000000 0.000000 0.000000
# 3 -0.005684 -0.004525 0.007399 0.000000 0.000000 0.000000
# 4 0.000000 0.000000 0.000000 0.010155 0.000000 0.000000
# 5 0.000000 0.000000 0.000000 0.000000 0.021612 0.000000
# 6 0.000000 0.000000 0.000000 0.000000 0.000000 -0.133329
#
#
# Mechanical properties :
#
#
# Convention : Reuss Voigt Hill
#
# Bulk Modulus (GPa) = 24.42367 50.28461 37.35414
# Shear Modulus (GPa) = -624.14856 40.97451 -291.58702
#
# Velocity S-wave (km/s) = -17.43051 4.46604 -11.91380
# Velocity P-wave (km/s) = 19.82947 7.14644 13.07930
#
# Compressibility (1/GPa) = 0.04094388
#
# Stress axis : x y z
#
# Youngs Moduli (GPa) = 47.51900 31.26952 135.14656
#
# Poissons Ratio (x) = -0.01466 0.76817
# Poissons Ratio (y) = -0.02228 0.61149
# Poissons Ratio (z) = 0.27010 0.14148
#
# Static dielectric constant tensor:
#      x y z
#    x 1.684020 0.000000 0.000000 
#    y 0.000000 1.774450 0.000000 
#    z 0.000000 0.000000 1.735270 
# 
# From -- ./inp_files/9626.got.cif
#   From: 2010.05.17/outbox.cif.g08.bks.cpg/sg71_5_cif.got.tgz:9626.got - 2010.06.03 16:22:01.
