data_PCOD9524873
_publ_section_title
;
Structure prediction by ZEFSAII (Michael W. Deem and Ramdas Pophale) SiO2 
 PCOD9524873
Probable space group: I M M M
;
_chemical_formula_sum "Si O2"
_cell_formula_units_Z 36
_cell_length_a 9.000000
_cell_length_b 27.000000
_cell_length_c 15.000000
_cell_angle_alpha 90.000000
_cell_angle_beta 90.000000
_cell_angle_gamma 90.000000
_cell_volume 3645.000000
_symmetry_space_group_name_H-M "I M M M"
_symmetry_group_IT_number 71
_symmetry_cell_setting 'orthorhombic'
loop_
_space_group_symop_operation_xyz
x,y,z
-x,-y,z
x,-y,-z
-x,y,-z
-x,-y,-z
x,y,-z
-x,y,z
x,-y,z
1/2+x,1/2+y,1/2+z
1/2-x,1/2-y,1/2+z
1/2+x,1/2-y,1/2-z
1/2-x,1/2+y,1/2-z
1/2-x,1/2-y,1/2-z
1/2+x,1/2+y,1/2-z
1/2-x,1/2+y,1/2+z
1/2+x,1/2-y,1/2+z
loop_
_atom_site_type_symbol
_atom_site_label
_atom_site_fract_x
_atom_site_fract_y
_atom_site_fract_z
Si Si1 0.674848 0.598301 0.671880
Si Si2 0.675124 0.716583 0.325693
Si Si3 0.677912 0.260932 0.000000
Si Si4 0.000000 0.557072 0.393819
Si Si5 0.671742 0.443235 0.868275
Si Si6 0.324216 0.869429 0.500000
O O1 0.500000 0.591361 0.633410
O O2 0.686803 0.657431 0.688700
O O3 0.836671 0.581871 0.629799
O O4 0.672617 0.568141 0.763752
O O5 0.500000 0.728418 0.331881
O O6 0.750000 0.750000 0.250000
O O7 0.758632 0.732042 0.415248
O O8 0.740455 0.316967 0.000000
O O9 0.500000 0.262057 0.000000
O O10 0.000000 0.500000 0.358552
O O11 0.000000 0.555294 0.500000
O O12 0.500000 0.437511 0.897929
O O13 0.717167 0.500000 0.886036
O O14 0.772865 0.403000 0.916832
O O15 0.500000 0.861109 0.500000
#
# Coordination Sequence:
#
# PCOD9524873 Si02
#       6
#    16  16   8   8  16   8
#     4  10  24  43  68  97 133 173 219 271 330 393
#     4  11  24  42  67  99 132 172 221 272 329 397
#     4  12  26  43  67  92 130 176 217 270 331 386
#     4  11  26  44  68  99 131 169 221 276 332 397
#     4  10  21  40  65  92 127 172 217 263 322 387
#     4  12  25  39  60  93 132 170 217 269 318 389
#
# _framework density 9.8765429999999999
#
# number of rings (size 3 to 8) (size 9 to 14) (size 15 to 20)
#    0.000    1.222    0.000    5.000    6.222    5.333 
#    0.000    1.111    0.000    0.000    0.000    0.000 
#    0.000    0.000    0.000    0.000    0.000    0.000 
#
# Total GULP energy -200832.499569 kJ/mol
# GULP energy per Si atom -5578.680544 kJ/mol
# Density = 0.985406 g / cm^3
# Si number density = 9.876543 Si / 1000 Ang^3
#
#
#
# Elastic Constant Matrix: (Units=GPa)
#
#
# Indices 1 2 3 4 5 6 
#
# 1 193.8708 50.2068 37.1112 0.0000 0.0000 0.0000
# 2 50.2068 105.2927 12.8432 0.0000 0.0000 0.0000
# 3 37.1112 12.8432 84.4959 0.0000 0.0000 0.0000
# 4 0.0000 0.0000 0.0000 41.9909 0.0000 0.0000
# 5 0.0000 0.0000 0.0000 0.0000 35.5154 0.0000
# 6 0.0000 0.0000 0.0000 0.0000 0.0000 43.5768
#
#
#
# Elastic Compliance Matrix: (Units=1/GPa)
#
#
# Indices 1 2 3 4 5 6 
#
# 1 0.006315 -0.002723 -0.002360 0.000000 0.000000 0.000000
# 2 -0.002723 0.010851 -0.000453 0.000000 0.000000 0.000000
# 3 -0.002360 -0.000453 0.012940 0.000000 0.000000 0.000000
# 4 0.000000 0.000000 0.000000 0.023815 0.000000 0.000000
# 5 0.000000 0.000000 0.000000 0.000000 0.028157 0.000000
# 6 0.000000 0.000000 0.000000 0.000000 0.000000 0.022948
#
#
# Mechanical properties :
#
#
# Convention : Reuss Voigt Hill
#
# Bulk Modulus (GPa) = 52.53793 64.88685 58.71239
# Shear Modulus (GPa) = 40.83529 43.11649 41.97589
#
# Velocity S-wave (km/s) = 4.55168 4.67708 4.61481
# Velocity P-wave (km/s) = 7.36741 7.87954 7.62777
#
# Compressibility (1/GPa) = 0.01903387
#
# Stress axis : x y z
#
# Youngs Moduli (GPa) = 158.35208 92.15562 77.27875
#
# Poissons Ratio (x) = 0.25098 0.18235
# Poissons Ratio (y) = 0.43125 0.03503
# Poissons Ratio (z) = 0.37366 0.04177
#
# Static dielectric constant tensor:
#      x y z
#    x 1.705070 0.000000 0.000000 
#    y 0.000000 1.514770 0.000000 
#    z 0.000000 0.000000 1.684500 
# 
# From -- ./inp_files/31484.got.cif
#   From: 2010.05.17/outbox.ucp.g08.bks.cvg/sg71_16_cif.got.tgz:31484.got - 2010.06.11 16:29:00.
