data_PCOD9524682
_publ_section_title
;
Structure prediction by ZEFSAII (Michael W. Deem and Ramdas Pophale) SiO2 
 PCOD9524682
Probable space group: I M M M
;
_chemical_formula_sum "Si O2"
_cell_formula_units_Z 52
_cell_length_a 24.000000
_cell_length_b 30.000000
_cell_length_c 9.000000
_cell_angle_alpha 90.000000
_cell_angle_beta 90.000000
_cell_angle_gamma 90.000000
_cell_volume 6480.000000
_symmetry_space_group_name_H-M "I M M M"
_symmetry_group_IT_number 71
_symmetry_cell_setting 'orthorhombic'
loop_
_space_group_symop_operation_xyz
x,y,z
-x,-y,z
x,-y,-z
-x,y,-z
-x,-y,-z
x,y,-z
-x,y,z
x,-y,z
1/2+x,1/2+y,1/2+z
1/2-x,1/2-y,1/2+z
1/2+x,1/2-y,1/2-z
1/2-x,1/2+y,1/2-z
1/2-x,1/2-y,1/2-z
1/2+x,1/2+y,1/2-z
1/2-x,1/2+y,1/2+z
1/2+x,1/2-y,1/2+z
loop_
_atom_site_type_symbol
_atom_site_label
_atom_site_fract_x
_atom_site_fract_y
_atom_site_fract_z
Si Si1 0.564478 0.195218 0.180625
Si Si2 0.432507 0.292932 0.170932
Si Si3 0.500000 0.053131 0.323267
Si Si4 0.434659 0.614258 0.677678
Si Si5 0.607566 0.100123 0.180010
Si Si6 0.277221 0.947372 0.178124
Si Si7 0.340858 0.552870 0.822812
O O1 0.500000 0.188626 0.228891
O O2 0.585453 0.244116 0.228264
O O3 0.600001 0.152066 0.222321
O O4 0.563333 0.197157 0.000000
O O5 0.500000 0.290040 0.167149
O O6 0.418924 0.335979 0.267743
O O7 0.413746 0.299388 0.000000
O O8 0.500000 0.061778 0.500000
O O9 0.555470 0.073984 0.250436
O O10 0.500000 0.000000 0.299535
O O11 0.431337 0.611451 0.500000
O O12 0.500000 0.606515 0.720410
O O13 0.391678 0.579977 0.751026
O O14 0.667349 0.079615 0.222990
O O15 0.603112 0.096841 0.000000
O O16 0.219491 0.933779 0.256402
O O17 0.286395 0.000000 0.209587
O O18 0.270426 0.942592 0.000000
O O19 0.347532 0.500000 0.791743
O O20 0.340823 0.559211 0.000000
#
# Coordination Sequence:
#
# PCOD9524682 Si02
#       7
#    16  16   8  16  16  16  16
#     4   8  13  24  45  72  98 125 161 205 247 289
#     4   8  14  26  46  70  98 131 162 193 235 289
#     4  11  23  33  41  63 101 137 167 209 264 307
#     4  10  20  33  51  77 106 131 156 192 240 287
#     4  10  18  31  52  73  95 127 170 213 251 300
#     4   9  18  32  50  72  96 126 166 208 249 293
#     4  10  21  36  54  74  97 129 165 199 237 287
#
# _framework density 8.0246910000000007
#
# number of rings (size 3 to 8) (size 9 to 14) (size 15 to 20)
#    0.000    2.692    0.769    2.538    0.000    4.000 
#    0.000    3.846    0.000    0.923    0.000    0.000 
#    0.000    0.000    0.000    0.000    0.000    0.000 
#
# Total GULP energy -289753.555343 kJ/mol
# GULP energy per Si atom -5572.183757 kJ/mol
# Density = 0.800643 g / cm^3
# Si number density = 8.024691 Si / 1000 Ang^3
#
#
#
# Elastic Constant Matrix: (Units=GPa)
#
#
# Indices 1 2 3 4 5 6 
#
# 1 126.1642 83.7397 46.9189 0.0000 0.0000 0.0000
# 2 83.7397 116.7797 46.3224 0.0000 0.0000 0.0000
# 3 46.9189 46.3224 41.0109 0.0000 0.0000 0.0000
# 4 0.0000 0.0000 0.0000 17.6213 0.0000 0.0000
# 5 0.0000 0.0000 0.0000 0.0000 19.2115 0.0000
# 6 0.0000 0.0000 0.0000 0.0000 0.0000 21.0342
#
#
#
# Elastic Compliance Matrix: (Units=1/GPa)
#
#
# Indices 1 2 3 4 5 6 
#
# 1 0.017294 -0.008249 -0.010469 0.000000 0.000000 0.000000
# 2 -0.008249 0.019448 -0.012530 0.000000 0.000000 0.000000
# 3 -0.010469 -0.012530 0.050513 0.000000 0.000000 0.000000
# 4 0.000000 0.000000 0.000000 0.056749 0.000000 0.000000
# 5 0.000000 0.000000 0.000000 0.000000 0.052052 0.000000
# 6 0.000000 0.000000 0.000000 0.000000 0.000000 0.047542
#
#
# Mechanical properties :
#
#
# Convention : Reuss Voigt Hill
#
# Bulk Modulus (GPa) = 40.38595 70.87966 55.63280
# Shear Modulus (GPa) = 15.90594 18.70500 17.30547
#
# Velocity S-wave (km/s) = 3.15153 3.41760 3.28726
# Velocity P-wave (km/s) = 6.20170 7.73516 7.01048
#
# Compressibility (1/GPa) = 0.02476109
#
# Stress axis : x y z
#
# Youngs Moduli (GPa) = 57.82226 51.41818 19.79671
#
# Poissons Ratio (x) = 0.42414 0.20725
# Poissons Ratio (y) = 0.47696 0.24805
# Poissons Ratio (z) = 0.60532 0.64427
#
# Static dielectric constant tensor:
#      x y z
#    x 1.508860 0.000000 0.000000 
#    y 0.000000 1.558230 0.000000 
#    z 0.000000 0.000000 1.537260 
# 
# From -- ./inp_files/13620.got.cif
#   From: 2010.05.17/outbox.ucp.g08.bks.cvg/sg71_7_cif.got.tgz:13620.got - 2010.06.11 16:29:00.
