data_PCOD9524327
_publ_section_title
;
Structure prediction by ZEFSAII (Michael W. Deem and Ramdas Pophale) SiO2 
 PCOD9524327
Probable space group: I M M M
;
_chemical_formula_sum "Si O2"
_cell_formula_units_Z 72
_cell_length_a 16.081649
_cell_length_b 17.875131
_cell_length_c 13.542195
_cell_angle_alpha 90.000000
_cell_angle_beta 90.000000
_cell_angle_gamma 90.000000
_cell_volume 3892.860806
_symmetry_space_group_name_H-M "I M M M"
_symmetry_group_IT_number 71
_symmetry_cell_setting 'orthorhombic'
loop_
_space_group_symop_operation_xyz
x,y,z
-x,-y,z
x,-y,-z
-x,y,-z
-x,-y,-z
x,y,-z
-x,y,z
x,-y,z
1/2+x,1/2+y,1/2+z
1/2-x,1/2-y,1/2+z
1/2+x,1/2-y,1/2-z
1/2-x,1/2+y,1/2-z
1/2-x,1/2-y,1/2-z
1/2+x,1/2+y,1/2-z
1/2-x,1/2+y,1/2+z
1/2+x,1/2-y,1/2+z
loop_
_atom_site_type_symbol
_atom_site_label
_atom_site_fract_x
_atom_site_fract_y
_atom_site_fract_z
Si Si1 0.219732 0.642720 0.331316
Si Si2 0.000000 0.841163 0.881065
Si Si3 0.309500 0.500000 0.777167
Si Si4 0.404260 0.910553 0.000000
Si Si5 0.766415 0.500000 0.000000
Si Si6 0.593133 0.126176 0.500000
Si Si7 0.000000 0.000000 0.793243
Si Si8 0.147080 0.743751 0.841690
O O1 0.268937 0.573290 0.278439
O O2 0.149287 0.613665 0.404945
O O3 0.179425 0.695445 0.248661
O O4 0.280656 0.702665 0.384124
O O5 0.922902 0.804963 0.824699
O O6 0.000000 0.928339 0.863282
O O7 0.000000 0.824873 0.000000
O O8 0.283536 0.500000 0.894605
O O9 0.410529 0.500000 0.764637
O O10 0.500000 0.882355 0.000000
O O11 0.407990 0.000000 0.000000
O O12 0.830352 0.569423 0.000000
O O13 0.500000 0.093223 0.500000
O O14 0.605284 0.181931 0.409667
#
# Coordination Sequence:
#
# PCOD9524327 Si02
#       8
#    16   8   8   8   4   8   4  16
#     4  11  24  42  66  92 128 182 215 272 324 388
#     4  12  23  40  67 103 135 166 214 282 330 383
#     4  12  24  46  69  91 134 175 216 273 330 402
#     4  11  25  42  63  95 132 173 224 263 321 398
#     4  12  27  45  66  96 128 178 228 259 335 406
#     4  12  22  39  65  99 131 161 214 282 326 389
#     4  12  27  43  66 102 136 172 224 262 332 404
#     4  11  22  39  67  94 128 169 219 265 339 384
#
# _framework density 18.495394999999998
#
# number of rings (size 3 to 8) (size 9 to 14) (size 15 to 20)
#    0.000    0.556    7.778    1.000    1.556    0.222 
#    2.000    0.000    0.000    0.000    0.000    0.000 
#    0.000    0.000    0.000    0.000    0.000    0.000 
#
# Total GULP energy -200460.886144 kJ/mol
# GULP energy per Si atom -5568.357948 kJ/mol
# Density = 1.845330 g / cm^3
# Si number density = 18.495395 Si / 1000 Ang^3
#
#
#
# Elastic Constant Matrix: (Units=GPa)
#
#
# Indices 1 2 3 4 5 6 
#
# 1 158.0818 53.1554 59.3790 0.0000 0.0000 0.0000
# 2 53.1554 126.9622 36.8663 0.0000 0.0000 0.0000
# 3 59.3790 36.8663 86.9236 0.0000 0.0000 0.0000
# 4 0.0000 0.0000 0.0000 36.1291 0.0000 0.0000
# 5 0.0000 0.0000 0.0000 0.0000 23.5723 0.0000
# 6 0.0000 0.0000 0.0000 0.0000 0.0000 52.3980
#
#
#
# Elastic Compliance Matrix: (Units=1/GPa)
#
#
# Indices 1 2 3 4 5 6 
#
# 1 0.009051 -0.002274 -0.005218 0.000000 0.000000 0.000000
# 2 -0.002274 0.009554 -0.002499 0.000000 0.000000 0.000000
# 3 -0.005218 -0.002499 0.016129 0.000000 0.000000 0.000000
# 4 0.000000 0.000000 0.000000 0.027679 0.000000 0.000000
# 5 0.000000 0.000000 0.000000 0.000000 0.042423 0.000000
# 6 0.000000 0.000000 0.000000 0.000000 0.000000 0.019085
#
#
# Mechanical properties :
#
#
# Convention : Reuss Voigt Hill
#
# Bulk Modulus (GPa) = 67.78911 74.52991 71.15951
# Shear Modulus (GPa) = 33.59813 37.25766 35.42789
#
# Velocity S-wave (km/s) = 4.26674 4.49311 4.38139
# Velocity P-wave (km/s) = 7.81057 8.20374 8.00956
#
# Compressibility (1/GPa) = 0.01475163
#
# Stress axis : x y z
#
# Youngs Moduli (GPa) = 110.49099 104.66872 62.00144
#
# Poissons Ratio (x) = 0.23802 0.32353
# Poissons Ratio (y) = 0.25126 0.15492
# Poissons Ratio (z) = 0.57655 0.26153
#
# Static dielectric constant tensor:
#      x y z
#    x 1.711660 0.000000 0.000000 
#    y 0.000000 1.637030 0.000000 
#    z 0.000000 0.000000 1.608510 
# 
# From -- ./inp_files/34163.got.cif
#   From: 2010.05.17/outbox.cif.g08.bks.cpg/sg71_18_cif.got.tgz:34163.got - 2010.06.03 16:22:01.
