data_PCOD9524470
_publ_section_title
;
Structure prediction by ZEFSAII (Michael W. Deem and Ramdas Pophale) SiO2 
 PCOD9524470
Probable space group: I M M M
;
_chemical_formula_sum "Si O2"
_cell_formula_units_Z 72
_cell_length_a 10.413829
_cell_length_b 27.612162
_cell_length_c 14.050940
_cell_angle_alpha 90.000000
_cell_angle_beta 90.000000
_cell_angle_gamma 90.000000
_cell_volume 4040.324380
_symmetry_space_group_name_H-M "I M M M"
_symmetry_group_IT_number 71
_symmetry_cell_setting 'orthorhombic'
loop_
_space_group_symop_operation_xyz
x,y,z
-x,-y,z
x,-y,-z
-x,y,-z
-x,-y,-z
x,y,-z
-x,y,z
x,-y,z
1/2+x,1/2+y,1/2+z
1/2-x,1/2-y,1/2+z
1/2+x,1/2-y,1/2-z
1/2-x,1/2+y,1/2-z
1/2-x,1/2-y,1/2-z
1/2+x,1/2+y,1/2-z
1/2-x,1/2+y,1/2+z
1/2+x,1/2-y,1/2+z
loop_
_atom_site_type_symbol
_atom_site_label
_atom_site_fract_x
_atom_site_fract_y
_atom_site_fract_z
Si Si1 0.500000 0.236405 0.000000
Si Si2 0.758512 0.300407 0.000000
Si Si3 0.500000 0.700307 0.709770
Si Si4 0.851428 0.058924 0.000000
Si Si5 0.000000 0.772226 0.000000
Si Si6 0.500000 0.191853 0.793432
Si Si7 0.844147 0.943291 0.209744
Si Si8 0.248727 0.148652 0.298267
O O1 0.374263 0.270416 0.000000
O O2 0.500000 0.204617 0.904640
O O3 0.764974 0.332839 0.094458
O O4 0.875017 0.262169 0.000000
O O5 0.500000 0.696790 0.596060
O O6 0.500000 0.756698 0.738169
O O7 0.625955 0.676044 0.753653
O O8 0.798719 0.072962 0.103364
O O9 0.000000 0.074181 0.000000
O O10 0.851240 0.000000 0.000000
O O11 0.626202 0.163592 0.760821
O O12 0.781786 0.907898 0.285934
O O13 0.000000 0.938917 0.212040
O O14 0.814475 0.000000 0.222376
#
# Coordination Sequence:
#
# PCOD9524470 Si02
#       8
#     4   8   8   8   4   8  16  16
#     4  12  24  38  60  84 122 160 184 244 298 346
#     4  12  22  38  60  81 116 161 203 228 297 347
#     4  12  22  40  59  86 113 150 200 239 285 345
#     4   7  12  26  52  79 109 143 174 229 298 334
#     4  12  24  38  62  84 112 158 198 246 280 346
#     4  12  24  40  57  86 123 152 194 243 291 347
#     4   9  18  35  58  86 117 148 192 246 290 341
#     4  12  23  39  61  87 117 159 198 240 293 349
#
# _framework density 17.820352
#
# number of rings (size 3 to 8) (size 9 to 14) (size 15 to 20)
#    0.000    1.222    5.556    3.333    0.000    1.778 
#    0.000    1.111    0.000    1.333    0.000    5.444 
#    0.000    0.000    0.000    0.000    0.000    0.000 
#
# Total GULP energy -201043.172772 kJ/mol
# GULP energy per Si atom -5584.532577 kJ/mol
# Density = 1.777979 g / cm^3
# Si number density = 17.820352 Si / 1000 Ang^3
#
#
#
# Elastic Constant Matrix: (Units=GPa)
#
#
# Indices 1 2 3 4 5 6 
#
# 1 90.9874 24.9288 9.6141 0.0000 0.0000 0.0000
# 2 24.9288 69.7251 17.4982 0.0000 0.0000 0.0000
# 3 9.6141 17.4982 117.5768 0.0002 -0.0001 0.0000
# 4 0.0000 0.0000 0.0002 18.7163 0.0000 0.0000
# 5 0.0000 0.0000 -0.0001 0.0000 28.2311 0.0000
# 6 0.0000 0.0000 0.0000 0.0000 0.0000 -8.9546
#
#
#
# Elastic Compliance Matrix: (Units=1/GPa)
#
#
# Indices 1 2 3 4 5 6 
#
# 1 0.012199 -0.004271 -0.000362 0.000000 0.000000 0.000000
# 2 -0.004271 0.016394 -0.002091 0.000000 0.000000 0.000000
# 3 -0.000362 -0.002091 0.008846 0.000000 0.000000 0.000000
# 4 0.000000 0.000000 0.000000 0.053429 0.000000 0.000000
# 5 0.000000 0.000000 0.000000 0.000000 0.035422 0.000000
# 6 0.000000 0.000000 0.000000 0.000000 0.000000 -0.111674
#
#
# Mechanical properties :
#
#
# Convention : Reuss Voigt Hill
#
# Bulk Modulus (GPa) = 41.68050 42.48572 42.08311
# Shear Modulus (GPa) = 138.66155 22.68178 80.67167
#
# Velocity S-wave (km/s) = 8.83061 3.57151 6.73555
# Velocity P-wave (km/s) = 11.28774 6.39534 9.17370
#
# Compressibility (1/GPa) = 0.02399203
#
# Stress axis : x y z
#
# Youngs Moduli (GPa) = 81.97501 60.99964 113.04811
#
# Poissons Ratio (x) = 0.26051 0.04091
# Poissons Ratio (y) = 0.35008 0.23633
# Poissons Ratio (z) = 0.02967 0.12752
#
# Static dielectric constant tensor:
#      x y z
#    x 1.586040 0.000000 0.000000 
#    y 0.000000 1.607780 0.000000 
#    z 0.000000 0.000000 1.627450 
# 
# From -- ./inp_files/31537.got.cif
#   From: 2010.05.17/outbox.cif.g08.bks.cpg/sg71_16_cif.got.tgz:31537.got - 2010.06.03 16:22:01.
