data_PCOD9524386
_publ_section_title
;
Structure prediction by ZEFSAII (Michael W. Deem and Ramdas Pophale) SiO2 
 PCOD9524386
Probable space group: I M M M
;
_chemical_formula_sum "Si O2"
_cell_formula_units_Z 64
_cell_length_a 26.509256
_cell_length_b 8.593906
_cell_length_c 15.124844
_cell_angle_alpha 90.000000
_cell_angle_beta 90.000000
_cell_angle_gamma 90.000000
_cell_volume 3445.712530
_symmetry_space_group_name_H-M "I M M M"
_symmetry_group_IT_number 71
_symmetry_cell_setting 'orthorhombic'
loop_
_space_group_symop_operation_xyz
x,y,z
-x,-y,z
x,-y,-z
-x,y,-z
-x,-y,-z
x,y,-z
-x,y,z
x,-y,z
1/2+x,1/2+y,1/2+z
1/2-x,1/2-y,1/2+z
1/2+x,1/2-y,1/2-z
1/2-x,1/2+y,1/2-z
1/2-x,1/2-y,1/2-z
1/2+x,1/2+y,1/2-z
1/2-x,1/2+y,1/2+z
1/2+x,1/2-y,1/2+z
loop_
_atom_site_type_symbol
_atom_site_label
_atom_site_fract_x
_atom_site_fract_y
_atom_site_fract_z
Si Si1 0.000000 0.186815 0.395715
Si Si2 0.860614 0.311854 0.859876
Si Si3 0.107122 0.312993 0.664695
Si Si4 0.670013 0.685350 0.000000
Si Si5 0.717387 0.685117 0.500000
Si Si6 0.443480 0.188751 0.500000
O O1 0.050621 0.249966 0.350095
O O2 0.000000 0.233226 0.500000
O O3 0.000000 0.000000 0.392616
O O4 0.855434 0.500000 0.864261
O O5 0.868794 0.265790 0.758676
O O6 0.814360 0.239154 0.913965
O O7 0.910784 0.267444 0.914713
O O8 0.105206 0.500000 0.662527
O O9 0.141482 0.251427 0.585486
O O10 0.666287 0.500000 0.000000
O O11 0.727873 0.737997 0.000000
O O12 0.722218 0.500000 0.500000
O O13 0.500000 0.250198 0.500000
O O14 0.446010 0.000000 0.500000
#
# Coordination Sequence:
#
# PCOD9524386 Si02
#       6
#     8  16  16   8   8   8
#     4  11  23  39  59  86 126 169 200 242 305 357
#     4   9  20  38  60  88 121 156 197 247 302 352
#     4  11  23  39  63  92 121 157 206 252 297 357
#     4  12  25  42  63  86 119 158 200 251 308 359
#     4  11  23  41  65  89 119 157 199 247 300 358
#     4   8  14  28  54  83 114 149 190 234 283 348
#
# _framework density 18.573806999999999
#
# number of rings (size 3 to 8) (size 9 to 14) (size 15 to 20)
#    0.000    1.750    1.250    4.125    1.750    3.500 
#    0.000    0.000    0.000    1.500    0.000    0.000 
#    0.000    0.000    0.000    0.000    0.000    0.000 
#
# Total GULP energy -178767.374069 kJ/mol
# GULP energy per Si atom -5586.480440 kJ/mol
# Density = 1.853153 g / cm^3
# Si number density = 18.573807 Si / 1000 Ang^3
#
#
#
# Elastic Constant Matrix: (Units=GPa)
#
#
# Indices 1 2 3 4 5 6 
#
# 1 151.4275 26.8611 76.0066 0.0000 0.0000 0.0000
# 2 26.8611 56.0838 43.4184 0.0000 0.0000 0.0000
# 3 76.0066 43.4184 181.6802 0.0000 0.0000 0.0000
# 4 0.0000 0.0000 0.0000 19.6051 0.0000 0.0000
# 5 0.0000 0.0000 0.0000 0.0000 -24.1149 0.0000
# 6 0.0000 0.0000 0.0000 0.0000 0.0000 31.5352
#
#
#
# Elastic Compliance Matrix: (Units=1/GPa)
#
#
# Indices 1 2 3 4 5 6 
#
# 1 0.008476 -0.001613 -0.003161 0.000000 0.000000 0.000000
# 2 -0.001613 0.022185 -0.004627 0.000000 0.000000 0.000000
# 3 -0.003161 -0.004627 0.007932 0.000000 0.000000 0.000000
# 4 0.000000 0.000000 0.000000 0.051007 0.000000 0.000000
# 5 0.000000 0.000000 0.000000 0.000000 -0.041468 0.000000
# 6 0.000000 0.000000 0.000000 0.000000 0.000000 0.031711
#
#
# Mechanical properties :
#
#
# Convention : Reuss Voigt Hill
#
# Bulk Modulus (GPa) = 50.52423 75.75153 63.13788
# Shear Modulus (GPa) = 47.50949 21.59878 34.55414
#
# Velocity S-wave (km/s) = 5.06303 3.41378 4.31788
# Velocity P-wave (km/s) = 7.83837 7.51073 7.67630
#
# Compressibility (1/GPa) = 0.01979248
#
# Stress axis : x y z
#
# Youngs Moduli (GPa) = 117.97511 45.07528 126.06747
#
# Poissons Ratio (x) = 0.07270 0.39846
# Poissons Ratio (y) = 0.19027 0.58333
# Poissons Ratio (z) = 0.37288 0.20857
#
# Static dielectric constant tensor:
#      x y z
#    x 1.610090 0.000000 0.000000 
#    y 0.000000 1.627520 0.000000 
#    z 0.000000 0.000000 2.029110 
# 
# From -- ./inp_files/38795.got.cif
#   From: 2010.05.17/outbox.cif.g08.bks.cpg/sg71_20_cif.got.tgz:38795.got - 2010.06.03 16:22:01.
