data_PCOD9524193
_publ_section_title
;
Structure prediction by ZEFSAII (Michael W. Deem and Ramdas Pophale) SiO2 
 PCOD9524193
Probable space group: I M M M
;
_chemical_formula_sum "Si O2"
_cell_formula_units_Z 92
_cell_length_a 15.081854
_cell_length_b 16.864022
_cell_length_c 21.034353
_cell_angle_alpha 90.000000
_cell_angle_beta 90.000000
_cell_angle_gamma 90.000000
_cell_volume 5349.892437
_symmetry_space_group_name_H-M "I M M M"
_symmetry_group_IT_number 71
_symmetry_cell_setting 'orthorhombic'
loop_
_space_group_symop_operation_xyz
x,y,z
-x,-y,z
x,-y,-z
-x,y,-z
-x,-y,-z
x,y,-z
-x,y,z
x,-y,z
1/2+x,1/2+y,1/2+z
1/2-x,1/2-y,1/2+z
1/2+x,1/2-y,1/2-z
1/2-x,1/2+y,1/2-z
1/2-x,1/2-y,1/2-z
1/2+x,1/2+y,1/2-z
1/2-x,1/2+y,1/2+z
1/2+x,1/2-y,1/2+z
loop_
_atom_site_type_symbol
_atom_site_label
_atom_site_fract_x
_atom_site_fract_y
_atom_site_fract_z
Si Si1 0.000000 0.500000 0.677598
Si Si2 0.394314 0.500000 0.428228
Si Si3 0.728494 0.906295 0.661683
Si Si4 0.837041 0.847196 0.850338
Si Si5 0.598465 0.322653 0.207432
Si Si6 0.603953 0.810884 0.575758
Si Si7 0.642814 0.139066 0.203139
O O1 0.077248 0.570417 0.680433
O O2 0.500000 0.500000 0.431835
O O3 0.358193 0.500000 0.500000
O O4 0.365717 0.422674 0.390318
O O5 0.821920 0.860314 0.666605
O O6 0.667962 0.878576 0.603190
O O7 0.674406 0.882485 0.725394
O O8 0.743335 0.000000 0.661806
O O9 0.881711 0.845685 0.780704
O O10 0.866084 0.768726 0.887902
O O11 0.732139 0.853262 0.838180
O O12 0.500000 0.349610 0.189232
O O13 0.602887 0.227297 0.204101
O O14 0.612767 0.801608 0.500000
O O15 0.500000 0.826606 0.589918
#
# Coordination Sequence:
#
# PCOD9524193 Si02
#       7
#     4   8  16  16  16  16  16
#     4  12  22  32  62  96 122 152 188 230 304 370
#     4  11  23  36  53  83 119 160 200 236 279 343
#     4  11  23  38  56  84 122 156 196 244 296 357
#     4  11  21  38  57  83 123 156 196 242 292 351
#     4  11  21  37  61  88 117 152 193 246 301 352
#     4  11  23  38  60  87 117 161 205 241 292 358
#     4  11  21  36  57  90 118 153 191 236 303 358
#
# _framework density 17.196608000000001
#
# number of rings (size 3 to 8) (size 9 to 14) (size 15 to 20)
#    0.000    0.957    5.217    3.652    4.870    2.435 
#    0.000    0.870    0.000    0.522    0.000   11.565 
#    0.000    0.000    0.000    0.000    0.000    0.000 
#
# Total GULP energy -256382.332363 kJ/mol
# GULP energy per Si atom -5573.528964 kJ/mol
# Density = 1.715747 g / cm^3
# Si number density = 17.196608 Si / 1000 Ang^3
#
#
#
# Elastic Constant Matrix: (Units=GPa)
#
#
# Indices 1 2 3 4 5 6 
#
# 1 144.1595 35.8828 40.3891 0.0000 0.0000 0.0000
# 2 35.8828 89.9639 13.1271 0.0000 0.0000 0.0000
# 3 40.3891 13.1271 59.9959 0.0000 0.0000 0.0000
# 4 0.0000 0.0000 0.0000 11.6751 0.0000 0.0000
# 5 0.0000 0.0000 0.0000 0.0000 -104.3271 -0.0001
# 6 0.0000 0.0000 0.0000 0.0000 -0.0001 -71.7384
#
#
#
# Elastic Compliance Matrix: (Units=1/GPa)
#
#
# Indices 1 2 3 4 5 6 
#
# 1 0.009211 -0.002860 -0.005575 0.000000 0.000000 0.000000
# 2 -0.002860 0.012370 -0.000781 0.000000 0.000000 0.000000
# 3 -0.005575 -0.000781 0.020592 0.000000 0.000000 0.000000
# 4 0.000000 0.000000 0.000000 0.085652 0.000000 0.000000
# 5 0.000000 0.000000 0.000000 0.000000 -0.009585 0.000000
# 6 0.000000 0.000000 0.000000 0.000000 0.000000 -0.013940
#
#
# Mechanical properties :
#
#
# Convention : Reuss Voigt Hill
#
# Bulk Modulus (GPa) = 42.12236 52.54637 47.33437
# Shear Modulus (GPa) = 38.27144 -19.23006 9.52069
#
# Velocity S-wave (km/s) = 4.72266 -3.34765 2.35550
# Velocity P-wave (km/s) = 7.36789 3.95983 5.91465
#
# Compressibility (1/GPa) = 0.02374036
#
# Stress axis : x y z
#
# Youngs Moduli (GPa) = 108.57080 80.83821 48.56352
#
# Poissons Ratio (x) = 0.23122 0.27073
# Poissons Ratio (y) = 0.31054 0.03793
# Poissons Ratio (z) = 0.60525 0.06314
#
# Static dielectric constant tensor:
#      x y z
#    x 1.594410 0.000000 0.000000 
#    y 0.000000 1.574570 0.000000 
#    z 0.000000 0.000000 1.562460 
# 
# From -- ./inp_files/34536.got.cif
#   From: 2010.05.17/outbox.cif.g08.bks.cpg/sg71_18_cif.got.tgz:34536.got - 2010.06.03 16:22:01.
