data_PCOD9524099
_publ_section_title
;
Structure prediction by ZEFSAII (Michael W. Deem and Ramdas Pophale) SiO2 
 PCOD9524099
Probable space group: I M M M
;
_chemical_formula_sum "Si O2"
_cell_formula_units_Z 72
_cell_length_a 29.875957
_cell_length_b 15.918590
_cell_length_c 7.886446
_cell_angle_alpha 90.000000
_cell_angle_beta 90.000000
_cell_angle_gamma 90.000000
_cell_volume 3750.660518
_symmetry_space_group_name_H-M "I M M M"
_symmetry_group_IT_number 71
_symmetry_cell_setting 'orthorhombic'
loop_
_space_group_symop_operation_xyz
x,y,z
-x,-y,z
x,-y,-z
-x,y,-z
-x,-y,-z
x,y,-z
-x,y,z
x,-y,z
1/2+x,1/2+y,1/2+z
1/2-x,1/2-y,1/2+z
1/2+x,1/2-y,1/2-z
1/2-x,1/2+y,1/2-z
1/2-x,1/2-y,1/2-z
1/2+x,1/2+y,1/2-z
1/2-x,1/2+y,1/2+z
1/2+x,1/2-y,1/2+z
loop_
_atom_site_type_symbol
_atom_site_label
_atom_site_fract_x
_atom_site_fract_y
_atom_site_fract_z
Si Si1 0.806094 0.905630 0.704898
Si Si2 0.550312 0.317582 0.203199
Si Si3 0.554462 0.500000 0.807031
Si Si4 0.139004 0.258356 0.199796
Si Si5 0.702915 0.905142 0.292865
O O1 0.807147 0.905747 0.500000
O O2 0.836522 0.829714 0.764427
O O3 0.754512 0.890727 0.758748
O O4 0.819441 0.000000 0.760432
O O5 0.500000 0.298350 0.264428
O O6 0.565166 0.409731 0.272190
O O7 0.588362 0.250248 0.237355
O O8 0.547563 0.328236 0.000000
O O9 0.500000 0.500000 0.817862
O O10 0.573153 0.500000 0.000000
O O11 0.169294 0.333921 0.270966
O O12 0.136792 0.270760 0.000000
O O13 0.703118 0.903028 0.500000
O O14 0.690359 0.000000 0.242763
#
# Coordination Sequence:
#
# PCOD9524099 Si02
#       5
#    16  16   8  16  16
#     4   9  18  33  52  71  96 134 172 197 225 284
#     4   9  18  33  51  69  93 129 170 202 231 283
#     4   7  12  26  47  65  81 113 161 197 217 257
#     4  11  21  30  48  77 104 126 155 205 256 290
#     4   8  16  33  53  71  94 129 170 204 237 284
#
# _framework density 19.196618999999998
#
# number of rings (size 3 to 8) (size 9 to 14) (size 15 to 20)
#    0.000    3.000    0.000    4.000    1.556    0.889 
#    0.000    1.111    0.000    8.000    0.000    4.667 
#    0.000    0.000    0.000    0.000    0.000    0.000 
#
# Total GULP energy -200717.972917 kJ/mol
# GULP energy per Si atom -5575.499248 kJ/mol
# Density = 1.915293 g / cm^3
# Si number density = 19.196619 Si / 1000 Ang^3
#
#
#
# Elastic Constant Matrix: (Units=GPa)
#
#
# Indices 1 2 3 4 5 6 
#
# 1 113.0405 74.0196 4.0130 0.0000 0.0000 0.0000
# 2 74.0196 83.3410 -1.2000 0.0000 0.0000 0.0000
# 3 4.0130 -1.2000 17.2502 0.0000 0.0000 0.0000
# 4 0.0000 0.0000 0.0000 16.6536 0.0000 0.0000
# 5 0.0000 0.0000 0.0000 0.0000 22.0018 0.0000
# 6 0.0000 0.0000 0.0000 0.0000 0.0000 28.0177
#
#
#
# Elastic Compliance Matrix: (Units=1/GPa)
#
#
# Indices 1 2 3 4 5 6 
#
# 1 0.021833 -0.019483 -0.006434 0.000000 0.000000 0.000000
# 2 -0.019483 0.029398 0.006578 0.000000 0.000000 0.000000
# 3 -0.006434 0.006578 0.059925 0.000000 0.000000 0.000000
# 4 0.000000 0.000000 0.000000 0.060047 0.000000 0.000000
# 5 0.000000 0.000000 0.000000 0.000000 0.045451 0.000000
# 6 0.000000 0.000000 0.000000 0.000000 0.000000 0.035692
#
#
# Mechanical properties :
#
#
# Convention : Reuss Voigt Hill
#
# Bulk Modulus (GPa) = 13.79791 40.81075 27.30433
# Shear Modulus (GPa) = 15.86379 22.45457 19.15918
#
# Velocity S-wave (km/s) = 2.87781 3.42382 3.16262
# Velocity P-wave (km/s) = 4.27149 6.07746 5.25268
#
# Compressibility (1/GPa) = 0.07247473
#
# Stress axis : x y z
#
# Youngs Moduli (GPa) = 45.80300 34.01613 16.68763
#
# Poissons Ratio (x) = 0.66275 0.10737
# Poissons Ratio (y) = 0.89240 -0.10976
# Poissons Ratio (z) = 0.29471 -0.22374
#
# Static dielectric constant tensor:
#      x y z
#    x 1.684560 0.000000 0.000000 
#    y 0.000000 1.684420 0.000000 
#    z 0.000000 0.000000 1.717430 
# 
# From -- ./inp_files/6465.got.cif
#   From: 2010.05.17/outbox.cif.g08.bks.cpg/sg71_4_cif.got.tgz:6465.got - 2010.06.03 16:22:01.
