data_PCOD9524584
_publ_section_title
;
Structure prediction by ZEFSAII (Michael W. Deem and Ramdas Pophale) SiO2 
 PCOD9524584
Probable space group: I M M M
;
_chemical_formula_sum "Si O2"
_cell_formula_units_Z 112
_cell_length_a 11.200772
_cell_length_b 18.337726
_cell_length_c 26.141738
_cell_angle_alpha 90.000000
_cell_angle_beta 90.000000
_cell_angle_gamma 90.000000
_cell_volume 5369.426402
_symmetry_space_group_name_H-M "I M M M"
_symmetry_group_IT_number 71
_symmetry_cell_setting 'orthorhombic'
loop_
_space_group_symop_operation_xyz
x,y,z
-x,-y,z
x,-y,-z
-x,y,-z
-x,-y,-z
x,y,-z
-x,y,z
x,-y,z
1/2+x,1/2+y,1/2+z
1/2-x,1/2-y,1/2+z
1/2+x,1/2-y,1/2-z
1/2-x,1/2+y,1/2-z
1/2-x,1/2-y,1/2-z
1/2+x,1/2+y,1/2-z
1/2-x,1/2+y,1/2+z
1/2+x,1/2-y,1/2+z
loop_
_atom_site_type_symbol
_atom_site_label
_atom_site_fract_x
_atom_site_fract_y
_atom_site_fract_z
Si Si1 0.368121 0.282438 0.880321
Si Si2 0.869086 0.109163 0.940178
Si Si3 0.370513 0.124836 0.769488
Si Si4 0.125231 0.000000 0.312702
Si Si5 0.631243 0.894136 0.883405
Si Si6 0.628457 0.341656 0.765454
Si Si7 0.367373 0.786385 0.560036
Si Si8 0.625301 0.000000 0.683736
O O1 0.500000 0.306202 0.900031
O O2 0.367029 0.194528 0.883538
O O3 0.363439 0.306196 0.821381
O O4 0.249761 0.310690 0.908959
O O5 0.750393 0.082405 0.912188
O O6 0.867706 0.197747 0.937436
O O7 0.000000 0.086086 0.920203
O O8 0.863060 0.089949 0.000000
O O9 0.500000 0.163544 0.769675
O O10 0.363405 0.084952 0.823857
O O11 0.250139 0.171277 0.764949
O O12 0.373931 0.069381 0.721983
O O13 0.126024 0.071514 0.277356
O O14 0.247949 0.000000 0.344196
O O15 0.000000 0.000000 0.342163
O O16 0.500000 0.915668 0.903958
O O17 0.500000 0.323373 0.740968
O O18 0.356644 0.805335 0.500000
O O19 0.500000 0.810401 0.578432
O O20 0.500000 0.000000 0.654681
#
# Coordination Sequence:
#
# PCOD9524584 Si02
#       8
#    16  16  16   8  16  16  16   8
#     4   9  17  27  38  56  82 106 127 153 188 231
#     4   8  14  25  40  57  77 101 129 159 189 223
#     4   9  17  28  41  57  77 102 131 161 191 223
#     4   8  14  26  42  56  71  94 127 165 196 219
#     4   9  17  27  38  56  82 106 127 153 188 231
#     4   9  17  28  41  57  77 102 131 161 191 223
#     4   8  14  25  40  57  77 101 129 159 189 223
#     4   8  14  26  42  56  71  94 127 165 196 219
#
# _framework density 20.858837999999999
#
# number of rings (size 3 to 8) (size 9 to 14) (size 15 to 20)
#    0.000    3.429    0.000    0.857    0.000    2.286 
#    0.000    2.857    0.000    0.000    0.000    1.000 
#    0.000    8.000    0.000    0.000    0.000    0.000 
#
# Total GULP energy -311793.321053 kJ/mol
# GULP energy per Si atom -5567.737876 kJ/mol
# Density = 2.081136 g / cm^3
# Si number density = 20.858838 Si / 1000 Ang^3
#
#
#
# Elastic Constant Matrix: (Units=GPa)
#
#
# Indices 1 2 3 4 5 6 
#
# 1 294.7117 8.4645 64.9902 0.0000 0.0000 0.0000
# 2 8.4645 51.3773 0.0278 0.0000 0.0000 0.0000
# 3 64.9902 0.0278 31.6239 0.0000 0.0000 0.0000
# 4 0.0000 0.0000 0.0000 -6.7937 0.0000 0.0000
# 5 0.0000 0.0000 0.0000 0.0000 39.9348 0.0000
# 6 0.0000 0.0000 0.0000 0.0000 0.0000 -27.5482
#
#
#
# Elastic Compliance Matrix: (Units=1/GPa)
#
#
# Indices 1 2 3 4 5 6 
#
# 1 0.006259 -0.001024 -0.012862 0.000000 0.000000 0.000000
# 2 -0.001024 0.019631 0.002088 0.000000 0.000000 0.000000
# 3 -0.012862 0.002088 0.058052 0.000000 0.000000 0.000000
# 4 0.000000 0.000000 0.000000 -0.147194 0.000000 0.000000
# 5 0.000000 0.000000 0.000000 0.000000 0.025041 0.000000
# 6 0.000000 0.000000 0.000000 0.000000 0.000000 -0.036300
#
#
# Mechanical properties :
#
#
# Convention : Reuss Voigt Hill
#
# Bulk Modulus (GPa) = 16.57127 58.29756 37.43441
# Shear Modulus (GPa) = -162.33855 21.40058 -70.46898
#
# Velocity S-wave (km/s) = -8.83154 3.20655 -5.81869
# Velocity P-wave (km/s) = 9.79965 6.45899 5.21127
#
# Compressibility (1/GPa) = 0.06034541
#
# Stress axis : x y z
#
# Youngs Moduli (GPa) = 159.77468 50.93865 17.22605
#
# Poissons Ratio (x) = 0.05217 0.22155
# Poissons Ratio (y) = 0.16364 -0.03596
# Poissons Ratio (z) = 2.05495 -0.10634
#
# Static dielectric constant tensor:
#      x y z
#    x 1.862290 0.000000 0.000000 
#    y 0.000000 1.811040 0.000000 
#    z 0.000000 0.000000 1.683240 
# 
# From -- ./inp_files/68699.got.cif
#   From: 2010.05.17/outbox.cif.g08.bks.cpg/sg71_35_cif.got.tgz:68699.got - 2010.06.03 16:22:01.
