data_PCOD9524005
_publ_section_title
;
Structure prediction by ZEFSAII (Michael W. Deem and Ramdas Pophale) SiO2 
 PCOD9524005
Probable space group: I M M M
;
_chemical_formula_sum "Si O2"
_cell_formula_units_Z 120
_cell_length_a 29.112104
_cell_length_b 18.291953
_cell_length_c 14.075941
_cell_angle_alpha 90.000000
_cell_angle_beta 90.000000
_cell_angle_gamma 90.000000
_cell_volume 7495.681225
_symmetry_space_group_name_H-M "I M M M"
_symmetry_group_IT_number 71
_symmetry_cell_setting 'orthorhombic'
loop_
_space_group_symop_operation_xyz
x,y,z
-x,-y,z
x,-y,-z
-x,y,-z
-x,-y,-z
x,y,-z
-x,y,z
x,-y,z
1/2+x,1/2+y,1/2+z
1/2-x,1/2-y,1/2+z
1/2+x,1/2-y,1/2-z
1/2-x,1/2+y,1/2-z
1/2-x,1/2-y,1/2-z
1/2+x,1/2+y,1/2-z
1/2-x,1/2+y,1/2+z
1/2+x,1/2-y,1/2+z
loop_
_atom_site_type_symbol
_atom_site_label
_atom_site_fract_x
_atom_site_fract_y
_atom_site_fract_z
Si Si1 0.568007 0.081931 0.611025
Si Si2 0.610099 0.855579 0.886494
Si Si3 0.704053 0.086936 0.197441
Si Si4 0.552206 0.776548 0.262921
Si Si5 0.303301 0.584109 0.614442
Si Si6 0.125816 0.792191 0.887903
Si Si7 0.171069 0.366934 0.106999
Si Si8 0.052348 0.500000 0.385077
O O1 0.555216 0.092422 0.500000
O O2 0.550952 0.148199 0.675221
O O3 0.623377 0.088292 0.614442
O O4 0.554439 0.000000 0.640079
O O5 0.661761 0.869901 0.850587
O O6 0.583821 0.792898 0.828595
O O7 0.581057 0.928367 0.860204
O O8 0.609210 0.846021 0.000000
O O9 0.753360 0.105359 0.153774
O O10 0.702889 0.105944 0.308720
O O11 0.696305 0.000000 0.182754
O O12 0.500000 0.756696 0.239328
O O13 0.579755 0.719549 0.328139
O O14 0.300846 0.586668 0.500000
O O15 0.312498 0.500000 0.642503
O O16 0.342961 0.640137 0.643555
O O17 0.155357 0.717193 0.878381
O O18 0.115109 0.799194 0.000000
O O19 0.189178 0.375002 0.000000
O O20 0.049756 0.500000 0.500000
O O21 0.000000 0.500000 0.349692
#
# Coordination Sequence:
#
# PCOD9524005 Si02
#       8
#    16  16  16  16  16  16  16   8
#     4   9  17  29  43  61  90 126 163 201 236 273
#     4  11  21  32  44  64  96 132 169 210 245 277
#     4  11  19  30  50  73  98 134 175 211 244 281
#     4  11  22  33  48  69  92 126 168 206 246 295
#     4   9  19  34  54  79 102 126 158 197 248 309
#     4   9  18  35  54  72  98 129 159 200 251 301
#     4   9  17  29  45  68  97 132 170 202 238 284
#     4   9  18  30  42  56  83 129 175 209 239 267
#
# _framework density 16.009219000000002
#
# number of rings (size 3 to 8) (size 9 to 14) (size 15 to 20)
#    0.000    2.200    3.333    2.400    0.933    4.000 
#    0.000    0.667    0.000    0.400    0.000    1.867 
#    0.000    0.000    0.000    1.200    0.000    0.000 
#
# Total GULP energy -334710.450299 kJ/mol
# GULP energy per Si atom -5578.507505 kJ/mol
# Density = 1.597278 g / cm^3
# Si number density = 16.009219 Si / 1000 Ang^3
#
#
#
# Elastic Constant Matrix: (Units=GPa)
#
#
# Indices 1 2 3 4 5 6 
#
# 1 99.1567 55.6185 42.6462 0.0000 0.0000 0.0000
# 2 55.6185 49.5906 23.1361 0.0000 0.0000 0.0000
# 3 42.6462 23.1361 69.2705 0.0000 0.0000 0.0000
# 4 0.0000 0.0000 0.0000 13.0683 0.0000 0.0000
# 5 0.0000 0.0000 0.0000 0.0000 14.7577 0.0000
# 6 0.0000 0.0000 0.0000 0.0000 0.0000 7.1981
#
#
#
# Elastic Compliance Matrix: (Units=1/GPa)
#
#
# Indices 1 2 3 4 5 6 
#
# 1 0.031241 -0.030876 -0.008921 0.000000 0.000000 0.000000
# 2 -0.030876 0.054403 0.000838 0.000000 0.000000 0.000000
# 3 -0.008921 0.000838 0.019648 0.000000 0.000000 0.000000
# 4 0.000000 0.000000 0.000000 0.076521 0.000000 0.000000
# 5 0.000000 0.000000 0.000000 0.000000 0.067761 0.000000
# 6 0.000000 0.000000 0.000000 0.000000 0.000000 0.138925
#
#
# Mechanical properties :
#
#
# Convention : Reuss Voigt Hill
#
# Bulk Modulus (GPa) = 36.52967 51.20215 43.86591
# Shear Modulus (GPa) = 10.51434 13.44597 11.98015
#
# Velocity S-wave (km/s) = 2.56553 2.90123 2.73853
# Velocity P-wave (km/s) = 5.62524 6.57839 6.12040
#
# Compressibility (1/GPa) = 0.02737501
#
# Stress axis : x y z
#
# Youngs Moduli (GPa) = 32.00960 18.38126 50.89540
#
# Poissons Ratio (x) = 0.56754 0.45402
# Poissons Ratio (y) = 0.98833 -0.04267
# Poissons Ratio (z) = 0.28555 -0.01541
#
# Static dielectric constant tensor:
#      x y z
#    x 1.528200 0.000000 0.000000 
#    y 0.000000 1.531260 0.000000 
#    z 0.000000 0.000000 1.560530 
# 
# From -- ./inp_files/40556.got.cif
#   From: 2010.05.17/outbox.cif.g08.bks.cpg/sg71_21_cif.got.tgz:40556.got - 2010.06.03 16:22:01.
