data_PCOD9524109
_publ_section_title
;
Structure prediction by ZEFSAII (Michael W. Deem and Ramdas Pophale) SiO2 
 PCOD9524109
Probable space group: I M M M
;
_chemical_formula_sum "Si O2"
_cell_formula_units_Z 104
_cell_length_a 26.398893
_cell_length_b 26.954702
_cell_length_c 8.452075
_cell_angle_alpha 90.000000
_cell_angle_beta 90.000000
_cell_angle_gamma 90.000000
_cell_volume 6014.279300
_symmetry_space_group_name_H-M "I M M M"
_symmetry_group_IT_number 71
_symmetry_cell_setting 'orthorhombic'
loop_
_space_group_symop_operation_xyz
x,y,z
-x,-y,z
x,-y,-z
-x,y,-z
-x,-y,-z
x,y,-z
-x,y,z
x,-y,z
1/2+x,1/2+y,1/2+z
1/2-x,1/2-y,1/2+z
1/2+x,1/2-y,1/2-z
1/2-x,1/2+y,1/2-z
1/2-x,1/2-y,1/2-z
1/2+x,1/2+y,1/2-z
1/2-x,1/2+y,1/2+z
1/2+x,1/2-y,1/2+z
loop_
_atom_site_type_symbol
_atom_site_label
_atom_site_fract_x
_atom_site_fract_y
_atom_site_fract_z
Si Si1 0.324866 0.059662 0.000000
Si Si2 0.058942 0.108925 0.191299
Si Si3 0.561551 0.500000 0.317561
Si Si4 0.205220 0.941746 0.000000
Si Si5 0.818529 0.611271 0.816428
Si Si6 0.135842 0.809877 0.320936
Si Si7 0.801349 0.725081 0.813923
Si Si8 0.700505 0.597077 0.830231
O O1 0.264582 0.073112 0.000000
O O2 0.343788 0.081997 0.831303
O O3 0.329750 0.000000 0.000000
O O4 0.074379 0.053838 0.253455
O O5 0.093167 0.153858 0.251717
O O6 0.000000 0.116766 0.233848
O O7 0.061649 0.107009 0.000000
O O8 0.500000 0.500000 0.325345
O O9 0.580239 0.500000 0.500000
O O10 0.181558 0.923509 0.163421
O O11 0.203933 0.000000 0.000000
O O12 0.812708 0.668706 0.763346
O O13 0.760919 0.590969 0.830662
O O14 0.838975 0.608649 0.000000
O O15 0.122556 0.796373 0.500000
O O16 0.152087 0.761273 0.227713
O O17 0.185442 0.845298 0.326460
O O18 0.750000 0.750000 0.750000
O O19 0.794864 0.722392 0.000000
O O20 0.681175 0.577242 0.000000
#
# Coordination Sequence:
#
# PCOD9524109 Si02
#       8
#     8  16   8   8  16  16  16  16
#     4   9  18  30  48  66  88 123 161 198 237 282
#     4   9  18  34  54  73  93 121 161 212 264 319
#     4   7  12  28  53  73  87 111 155 209 265 315
#     4   9  18  30  44  60  79 118 157 187 240 292
#     4   9  18  31  46  67  93 121 159 198 242 289
#     4  11  22  33  46  68  95 123 158 198 253 304
#     4  11  21  31  50  73  95 126 158 203 254 298
#     4   9  18  31  43  61  89 114 147 195 238 291
#
# _framework density 17.292179000000001
#
# number of rings (size 3 to 8) (size 9 to 14) (size 15 to 20)
#    0.000    2.538    1.538    1.846    4.308    0.923 
#    1.385    3.462    0.000    1.385    0.000    0.000 
#    0.000    0.000    0.000    0.000    0.000    1.538 
#
# Total GULP energy -289478.702906 kJ/mol
# GULP energy per Si atom -5566.898133 kJ/mol
# Density = 1.725282 g / cm^3
# Si number density = 17.292179 Si / 1000 Ang^3
#
#
#
# Elastic Constant Matrix: (Units=GPa)
#
#
# Indices 1 2 3 4 5 6 
#
# 1 27.2877 17.3657 -3.7659 0.0000 0.0000 0.0000
# 2 17.3657 63.7345 49.7942 0.0000 0.0000 0.0000
# 3 -3.7659 49.7942 92.3208 0.0000 0.0000 0.0000
# 4 0.0000 0.0000 0.0000 20.6199 0.0000 0.0000
# 5 0.0000 0.0000 0.0000 0.0000 27.7374 0.0000
# 6 0.0000 0.0000 0.0000 0.0000 0.0000 17.5877
#
#
#
# Elastic Compliance Matrix: (Units=1/GPa)
#
#
# Indices 1 2 3 4 5 6 
#
# 1 0.059061 -0.031065 0.019164 0.000000 0.000000 0.000000
# 2 -0.031065 0.043456 -0.024706 0.000000 0.000000 0.000000
# 3 0.019164 -0.024706 0.024939 0.000000 0.000000 0.000000
# 4 0.000000 0.000000 0.000000 0.048497 0.000000 0.000000
# 5 0.000000 0.000000 0.000000 0.000000 0.036052 0.000000
# 6 0.000000 0.000000 0.000000 0.000000 0.000000 0.056858
#
#
# Mechanical properties :
#
#
# Convention : Reuss Voigt Hill
#
# Bulk Modulus (GPa) = 18.43541 34.45899 26.44720
# Shear Modulus (GPa) = 13.88281 21.18560 17.53420
#
# Velocity S-wave (km/s) = 2.83651 3.50402 3.18779
# Velocity P-wave (km/s) = 4.62731 6.02840 5.37372
#
# Compressibility (1/GPa) = 0.05424343
#
# Stress axis : x y z
#
# Youngs Moduli (GPa) = 16.93166 23.01155 40.09797
#
# Poissons Ratio (x) = 0.71485 -0.76845
# Poissons Ratio (y) = 0.52598 0.99066
# Poissons Ratio (z) = -0.32449 0.56852
#
# Static dielectric constant tensor:
#      x y z
#    x 1.591730 0.000000 0.000000 
#    y 0.000000 1.623480 0.000000 
#    z 0.000000 0.000000 1.636720 
# 
# From -- ./inp_files/15584.got.cif
#   From: 2010.05.17/outbox.cif.g08.bks.cpg/sg71_8_cif.got.tgz:15584.got - 2010.06.03 16:22:01.
