data_PCOD9524850
_publ_section_title
;
Structure prediction by ZEFSAII (Michael W. Deem and Ramdas Pophale) SiO2 
 PCOD9524850
Probable space group: I M M M
;
_chemical_formula_sum "Si O2"
_cell_formula_units_Z 48
_cell_length_a 24.000000
_cell_length_b 24.000000
_cell_length_c 9.000000
_cell_angle_alpha 90.000000
_cell_angle_beta 90.000000
_cell_angle_gamma 90.000000
_cell_volume 5184.000000
_symmetry_space_group_name_H-M "I M M M"
_symmetry_group_IT_number 71
_symmetry_cell_setting 'orthorhombic'
loop_
_space_group_symop_operation_xyz
x,y,z
-x,-y,z
x,-y,-z
-x,y,-z
-x,-y,-z
x,y,-z
-x,y,z
x,-y,z
1/2+x,1/2+y,1/2+z
1/2-x,1/2-y,1/2+z
1/2+x,1/2-y,1/2-z
1/2-x,1/2+y,1/2-z
1/2-x,1/2-y,1/2-z
1/2+x,1/2+y,1/2-z
1/2-x,1/2+y,1/2+z
1/2+x,1/2-y,1/2+z
loop_
_atom_site_type_symbol
_atom_site_label
_atom_site_fract_x
_atom_site_fract_y
_atom_site_fract_z
Si Si1 0.776760 0.500000 0.822424
Si Si2 0.064950 0.390237 0.832503
Si Si3 0.860686 0.300563 0.677886
Si Si4 0.565098 0.562940 0.180120
Si Si5 0.142656 0.831578 0.319973
Si Si6 0.603313 0.000000 0.823493
Si Si7 0.246669 0.379686 0.677866
O O1 0.840526 0.500000 0.771275
O O2 0.755967 0.559112 0.754575
O O3 0.768752 0.500000 0.000000
O O4 0.094150 0.336463 0.765015
O O5 0.073370 0.443604 0.727031
O O6 0.000000 0.379596 0.842258
O O7 0.086333 0.402610 0.000000
O O8 0.869045 0.304282 0.500000
O O9 0.864762 0.234563 0.716127
O O10 0.803944 0.336071 0.709977
O O11 0.500000 0.567246 0.223374
O O12 0.585212 0.500000 0.228024
O O13 0.598006 0.619585 0.223422
O O14 0.567175 0.561919 0.000000
O O15 0.147866 0.834161 0.500000
O O16 0.198666 0.850327 0.239626
O O17 0.613810 0.000000 0.000000
O O18 0.247499 0.387867 0.500000
#
# Coordination Sequence:
#
# PCOD9524850 Si02
#       7
#     8  16  16  16  16   8  16
#     4  12  24  39  63  90 117 156 198 245 296 350
#     4  11  24  40  60  87 118 157 207 255 300 356
#     4  10  22  39  58  82 118 160 201 247 300 354
#     4   8  15  30  53  82 115 147 185 239 294 342
#     4  10  21  36  59  90 117 153 203 246 290 355
#     4  12  23  39  62  89 120 155 197 247 308 363
#     4  11  23  39  58  85 121 158 194 241 298 355
#
# _framework density 9.2592590000000001
#
# number of rings (size 3 to 8) (size 9 to 14) (size 15 to 20)
#    0.000    1.667    1.667    3.750    1.167    4.333 
#    0.000    1.667    0.000    0.500    0.000    1.167 
#    0.000    0.000    0.000    0.000    0.000    0.000 
#
# Total GULP energy -267538.730109 kJ/mol
# GULP energy per Si atom -5573.723544 kJ/mol
# Density = 0.923818 g / cm^3
# Si number density = 9.259259 Si / 1000 Ang^3
#
#
#
# Elastic Constant Matrix: (Units=GPa)
#
#
# Indices 1 2 3 4 5 6 
#
# 1 19.3328 49.7053 16.3799 0.0000 0.0000 0.0000
# 2 49.7053 204.7181 57.4962 0.0000 0.0000 0.0000
# 3 16.3799 57.4962 43.2422 0.0000 0.0000 0.0000
# 4 0.0000 0.0000 0.0000 57.5754 0.0000 0.0000
# 5 0.0000 0.0000 0.0000 0.0000 17.1484 0.0000
# 6 0.0000 0.0000 0.0000 0.0000 0.0000 28.4900
#
#
#
# Elastic Compliance Matrix: (Units=1/GPa)
#
#
# Indices 1 2 3 4 5 6 
#
# 1 0.141879 -0.030889 -0.012672 0.000000 0.000000 0.000000
# 2 -0.030889 0.014521 -0.007607 0.000000 0.000000 0.000000
# 3 -0.012672 -0.007607 0.038040 0.000000 0.000000 0.000000
# 4 0.000000 0.000000 0.000000 0.017369 0.000000 0.000000
# 5 0.000000 0.000000 0.000000 0.000000 0.058314 0.000000
# 6 0.000000 0.000000 0.000000 0.000000 0.000000 0.035100
#
#
# Mechanical properties :
#
#
# Convention : Reuss Voigt Hill
#
# Bulk Modulus (GPa) = 10.85728 57.16178 34.00953
# Shear Modulus (GPa) = 11.40876 30.22355 20.81615
#
# Velocity S-wave (km/s) = 2.48477 4.04427 3.35636
# Velocity P-wave (km/s) = 3.75604 7.26241 5.78145
#
# Compressibility (1/GPa) = 0.09210407
#
# Stress axis : x y z
#
# Youngs Moduli (GPa) = 7.04828 68.86542 26.28801
#
# Poissons Ratio (x) = 2.12718 0.33311
# Poissons Ratio (y) = 0.21771 0.19998
# Poissons Ratio (z) = 0.08931 0.52387
#
# Static dielectric constant tensor:
#      x y z
#    x 1.661290 0.000000 0.000000 
#    y 0.000000 1.526800 0.000000 
#    z 0.000000 0.000000 1.633150 
# 
# From -- ./inp_files/12942.got.cif
#   From: 2010.05.17/outbox.ucp.g08.bks.cvg/sg71_7_cif.got.tgz:12942.got - 2010.06.11 16:29:00.
