data_PCOD9524917
_publ_section_title
;
Structure prediction by ZEFSAII (Michael W. Deem and Ramdas Pophale) SiO2 
 PCOD9524917
Probable space group: I B A M
;
_chemical_formula_sum "Si O2"
_cell_formula_units_Z 44
_cell_length_a 20.300672
_cell_length_b 7.221419
_cell_length_c 11.361891
_cell_angle_alpha 90.000000
_cell_angle_beta 90.000000
_cell_angle_gamma 90.000000
_cell_volume 1665.649340
_symmetry_space_group_name_H-M "I B A M"
_symmetry_group_IT_number 72
_symmetry_cell_setting 'orthorhombic'
loop_
_space_group_symop_operation_xyz
x,y,z
-x,-y,z
x,-y,1/2-z
-x,y,1/2-z
-x,-y,-z
x,y,-z
-x,y,1/2+z
x,-y,1/2+z
1/2+x,1/2+y,1/2+z
1/2-x,1/2-y,1/2+z
1/2+x,1/2-y,-z
1/2-x,1/2+y,-z
1/2-x,1/2-y,1/2-z
1/2+x,1/2+y,1/2-z
1/2-x,1/2+y,z
1/2+x,1/2-y,z
loop_
_atom_site_type_symbol
_atom_site_label
_atom_site_fract_x
_atom_site_fract_y
_atom_site_fract_z
Si Si1 0.638231 0.475694 0.500000
Si Si2 0.067884 0.767789 0.812314
Si Si3 0.824103 0.500000 0.750000
Si Si4 0.000000 0.500000 0.500000
Si Si5 0.267093 0.116935 0.000000
O O1 0.593023 0.443470 0.387047
O O2 0.688254 0.644050 0.500000
O O3 0.688190 0.300232 0.500000
O O4 0.128714 0.680069 0.742025
O O5 0.045874 0.602667 0.900301
O O6 0.000000 0.806399 0.750000
O O7 0.784181 0.524889 0.627761
#
# Coordination Sequence:
#
# PCOD9524917 Si02
#       5
#     8  16   8   4   8
#     4   9  22  36  55  86 120 151 198 233 297 356
#     4  10  17  27  51  83 116 143 184 251 300 329
#     4  10  19  32  58  80 119 148 194 234 292 346
#     4  10  14  24  44  74 122 132 166 234 316 328
#     4  10  22  37  54  85 118 159 193 233 289 357
#
# _framework density 26.416124
#
# number of rings (size 3 to 8) (size 9 to 14) (size 15 to 20)
#    0.000    2.182    3.636    1.091    0.000    5.818 
#    0.000    0.000    0.000    2.182    0.000   31.818 
#    0.000    0.000    0.000    0.000    0.000    0.000 
#
# Total GULP energy -122604.409990 kJ/mol
# GULP energy per Si atom -5572.927727 kJ/mol
# Density = 2.635600 g / cm^3
# Si number density = 26.416124 Si / 1000 Ang^3
#
#
#
# Elastic Constant Matrix: (Units=GPa)
#
#
# Indices 1 2 3 4 5 6 
#
# 1 158.1811 10.5423 82.8760 0.0000 0.0000 0.0000
# 2 10.5423 40.3330 29.2324 0.0000 0.0000 0.0000
# 3 82.8760 29.2324 168.6841 0.0000 0.0000 0.0000
# 4 0.0000 0.0000 0.0000 -0.1100 0.0000 0.0000
# 5 0.0000 0.0000 0.0000 0.0000 3.5804 0.0000
# 6 0.0000 0.0000 0.0000 0.0000 0.0000 49.1215
#
#
#
# Elastic Compliance Matrix: (Units=1/GPa)
#
#
# Indices 1 2 3 4 5 6 
#
# 1 0.008543 0.000925 -0.004358 0.000000 0.000000 0.000000
# 2 0.000925 0.028455 -0.005386 0.000000 0.000000 0.000000
# 3 -0.004358 -0.005386 0.009003 0.000000 0.000000 0.000000
# 4 0.000000 0.000000 0.000000 -9.092356 0.000000 0.000000
# 5 0.000000 0.000000 0.000000 0.000000 0.279298 0.000000
# 6 0.000000 0.000000 0.000000 0.000000 0.000000 0.020358
#
#
# Mechanical properties :
#
#
# Convention : Reuss Voigt Hill
#
# Bulk Modulus (GPa) = 35.25516 68.05551 51.65534
# Shear Modulus (GPa) = -0.57342 26.82155 13.12407
#
# Velocity S-wave (km/s) = -0.46642 3.18991 2.23136
# Velocity P-wave (km/s) = 3.61732 6.27584 5.12207
#
# Compressibility (1/GPa) = 0.02836464
#
# Stress axis : x y z
#
# Youngs Moduli (GPa) = 117.04966 35.14294 111.07886
#
# Poissons Ratio (x) = -0.03252 0.48406
# Poissons Ratio (y) = -0.10831 0.59825
# Poissons Ratio (z) = 0.51008 0.18927
#
# Static dielectric constant tensor:
#      x y z
#    x 2.010590 0.000000 0.000000 
#    y 0.000000 2.164250 0.000000 
#    z 0.000000 0.000000 2.039610 
# 
# From -- ./inp_files/10171.got.cif
#   From: 2010.05.17/outbox.cif.g08.bks.cpg/sg72_6_cif.got.tgz:10171.got - 2010.06.03 17:03:01.
