data_PCOD9524921
_publ_section_title
;
Structure prediction by ZEFSAII (Michael W. Deem and Ramdas Pophale) SiO2 
 PCOD9524921
Probable space group: I B A M
;
_chemical_formula_sum "Si O2"
_cell_formula_units_Z 72
_cell_length_a 9.051768
_cell_length_b 18.064138
_cell_length_c 23.657111
_cell_angle_alpha 90.000000
_cell_angle_beta 90.000000
_cell_angle_gamma 90.000000
_cell_volume 3868.230672
_symmetry_space_group_name_H-M "I B A M"
_symmetry_group_IT_number 72
_symmetry_cell_setting 'orthorhombic'
loop_
_space_group_symop_operation_xyz
x,y,z
-x,-y,z
x,-y,1/2-z
-x,y,1/2-z
-x,-y,-z
x,y,-z
-x,y,1/2+z
x,-y,1/2+z
1/2+x,1/2+y,1/2+z
1/2-x,1/2-y,1/2+z
1/2+x,1/2-y,-z
1/2-x,1/2+y,-z
1/2-x,1/2-y,1/2-z
1/2+x,1/2+y,1/2-z
1/2-x,1/2+y,z
1/2+x,1/2-y,z
loop_
_atom_site_type_symbol
_atom_site_label
_atom_site_fract_x
_atom_site_fract_y
_atom_site_fract_z
Si Si1 0.923063 0.889696 0.667947
Si Si2 0.121835 0.725579 0.792851
Si Si3 0.827217 0.974968 0.436674
Si Si4 0.730720 0.914013 0.852312
Si Si5 0.248216 0.000000 0.250000
O O1 0.927854 0.802901 0.680030
O O2 0.832936 0.911593 0.611350
O O3 0.092528 0.913824 0.660073
O O4 0.847803 0.935855 0.718684
O O5 0.250000 0.750000 0.750000
O O6 0.169809 0.667615 0.840883
O O7 0.000000 0.693479 0.750000
O O8 0.782114 0.953648 0.500000
O O9 0.727502 0.041880 0.411196
O O10 0.000000 0.000000 0.440084
O O11 0.665419 0.962367 0.801162
#
# Coordination Sequence:
#
# PCOD9524921 Si02
#       5
#    16  16  16  16   8
#     4  10  17  28  49  73 100 135 172 212 262 306
#     4  12  21  32  48  75 112 139 165 204 264 329
#     4   8  16  31  53  77  99 130 183 231 256 297
#     4  10  18  29  49  73 102 133 171 213 263 306
#     4  10  15  26  47  72  95 132 167 208 255 312
#
# _framework density 18.613160000000001
#
# number of rings (size 3 to 8) (size 9 to 14) (size 15 to 20)
#    0.000    2.000    4.444    3.333    0.000    0.000 
#    0.000    1.667    0.000    0.000    0.000    1.556 
#    0.000    0.000    0.000    0.000    0.000    0.000 
#
# Total GULP energy -200477.182675 kJ/mol
# GULP energy per Si atom -5568.810630 kJ/mol
# Density = 1.857080 g / cm^3
# Si number density = 18.613160 Si / 1000 Ang^3
#
#
#
# Elastic Constant Matrix: (Units=GPa)
#
#
# Indices 1 2 3 4 5 6 
#
# 1 26.5624 -1.0283 7.2262 0.0000 0.0000 0.0000
# 2 -1.0283 81.5800 32.1739 0.0000 0.0000 0.0000
# 3 7.2262 32.1739 139.5130 0.0000 0.0000 0.0000
# 4 0.0000 0.0000 0.0000 19.9266 0.0000 0.0000
# 5 0.0000 0.0000 0.0000 0.0000 9.8551 0.0000
# 6 0.0000 0.0000 0.0000 0.0000 0.0000 21.1883
#
#
#
# Elastic Compliance Matrix: (Units=1/GPa)
#
#
# Indices 1 2 3 4 5 6 
#
# 1 0.038329 0.001393 -0.002306 0.000000 0.000000 0.000000
# 2 0.001393 0.013535 -0.003194 0.000000 0.000000 0.000000
# 3 -0.002306 -0.003194 0.008024 0.000000 0.000000 0.000000
# 4 0.000000 0.000000 0.000000 0.050184 0.000000 0.000000
# 5 0.000000 0.000000 0.000000 0.000000 0.101471 0.000000
# 6 0.000000 0.000000 0.000000 0.000000 0.000000 0.047196
#
#
# Mechanical properties :
#
#
# Convention : Reuss Voigt Hill
#
# Bulk Modulus (GPa) = 19.35253 36.04432 27.69842
# Shear Modulus (GPa) = 17.59471 24.14625 20.87048
#
# Velocity S-wave (km/s) = 3.07788 3.60567 3.35218
# Velocity P-wave (km/s) = 4.80114 6.06147 5.46774
#
# Compressibility (1/GPa) = 0.05167284
#
# Stress axis : x y z
#
# Youngs Moduli (GPa) = 26.09018 73.88289 124.63039
#
# Poissons Ratio (x) = -0.10290 0.28745
# Poissons Ratio (y) = -0.03634 0.39801
# Poissons Ratio (z) = 0.06018 0.23595
#
# Static dielectric constant tensor:
#      x y z
#    x 1.729950 0.000000 0.000000 
#    y 0.000000 1.691800 0.000000 
#    z 0.000000 0.000000 1.658150 
# 
# From -- ./inp_files/42076.got.cif
#   From: 2010.05.17/outbox.cif.g08.bks.cpg/sg72_22_cif.got.tgz:42076.got - 2010.06.03 17:03:01.
