data_PCOD9524292
_publ_section_title
;
Structure prediction by ZEFSAII (Michael W. Deem and Ramdas Pophale) SiO2 
 PCOD9524292
Probable space group: I M M M
;
_chemical_formula_sum "Si O2"
_cell_formula_units_Z 104
_cell_length_a 7.831245
_cell_length_b 20.250507
_cell_length_c 29.132182
_cell_angle_alpha 90.000000
_cell_angle_beta 90.000000
_cell_angle_gamma 90.000000
_cell_volume 4619.976074
_symmetry_space_group_name_H-M "I M M M"
_symmetry_group_IT_number 71
_symmetry_cell_setting 'orthorhombic'
loop_
_space_group_symop_operation_xyz
x,y,z
-x,-y,z
x,-y,-z
-x,y,-z
-x,-y,-z
x,y,-z
-x,y,z
x,-y,z
1/2+x,1/2+y,1/2+z
1/2-x,1/2-y,1/2+z
1/2+x,1/2-y,1/2-z
1/2-x,1/2+y,1/2-z
1/2-x,1/2-y,1/2-z
1/2+x,1/2+y,1/2-z
1/2-x,1/2+y,1/2+z
1/2+x,1/2-y,1/2+z
loop_
_atom_site_type_symbol
_atom_site_label
_atom_site_fract_x
_atom_site_fract_y
_atom_site_fract_z
Si Si1 0.188889 0.578912 0.500000
Si Si2 0.209636 0.427037 0.399400
Si Si3 0.296547 0.703953 0.707970
Si Si4 0.198143 0.713529 0.613501
Si Si5 0.795974 0.074600 0.365284
Si Si6 0.198474 0.671477 0.948123
Si Si7 0.791550 0.076104 0.739101
O O1 0.166430 0.500000 0.500000
O O2 0.270345 0.590112 0.548806
O O3 0.000000 0.610552 0.500000
O O4 0.269206 0.500000 0.385586
O O5 0.263954 0.360505 0.375149
O O6 0.000000 0.430414 0.400035
O O7 0.500000 0.701200 0.701354
O O8 0.250000 0.750000 0.750000
O O9 0.217531 0.741730 0.664075
O O10 0.232744 0.631061 0.724467
O O11 0.282126 0.755376 0.573480
O O12 0.000000 0.709426 0.600948
O O13 0.763027 0.123252 0.407797
O O14 0.734372 0.091543 0.313493
O O15 0.000000 0.071694 0.361066
O O16 0.733678 0.000000 0.375744
O O17 0.000000 0.656908 0.952339
O O18 0.273717 0.666617 0.000000
O O19 0.000000 0.077828 0.739711
O O20 0.741373 0.000000 0.749605
#
# Coordination Sequence:
#
# PCOD9524292 Si02
#       7
#     8  16  16  16  16  16  16
#     4   7  10  20  40  66  95 127 166 213 264 313
#     4   8  15  28  48  76 108 140 179 230 282 331
#     4  11  22  37  59  84 114 151 192 235 283 342
#     4  11  23  37  57  84 115 151 193 241 294 348
#     4   9  18  36  64  94 120 147 187 239 290 348
#     4  11  25  42  58  80 115 157 200 248 298 349
#     4   8  16  33  58  87 116 148 186 228 278 338
#
# _framework density 22.510940999999999
#
# number of rings (size 3 to 8) (size 9 to 14) (size 15 to 20)
#    0.000    2.538    0.000    4.154    1.077    3.692 
#    0.000    2.308    0.000    4.615    0.000    1.077 
#    0.000    0.000    0.000    0.000    0.000    0.000 
#
# Total GULP energy -289626.331612 kJ/mol
# GULP energy per Si atom -5569.737146 kJ/mol
# Density = 2.245970 g / cm^3
# Si number density = 22.510941 Si / 1000 Ang^3
#
#
#
# Elastic Constant Matrix: (Units=GPa)
#
#
# Indices 1 2 3 4 5 6 
#
# 1 34.0766 -4.0693 -4.8723 0.0000 0.0000 0.0000
# 2 -4.0693 83.7365 23.2049 0.0000 0.0000 0.0000
# 3 -4.8723 23.2049 110.5282 0.0000 0.0000 0.0000
# 4 0.0000 0.0000 0.0000 31.0793 0.0000 0.0000
# 5 0.0000 0.0000 0.0000 0.0000 17.0410 0.0000
# 6 0.0000 0.0000 0.0000 0.0000 0.0000 1.3903
#
#
#
# Elastic Compliance Matrix: (Units=1/GPa)
#
#
# Indices 1 2 3 4 5 6 
#
# 1 0.029635 0.001145 0.001066 0.000000 0.000000 0.000000
# 2 0.001145 0.012724 -0.002621 0.000000 0.000000 0.000000
# 3 0.001066 -0.002621 0.009645 0.000000 0.000000 0.000000
# 4 0.000000 0.000000 0.000000 0.032176 0.000000 0.000000
# 5 0.000000 0.000000 0.000000 0.000000 0.058682 0.000000
# 6 0.000000 0.000000 0.000000 0.000000 0.000000 0.719265
#
#
# Mechanical properties :
#
#
# Convention : Reuss Voigt Hill
#
# Bulk Modulus (GPa) = 19.53762 28.54087 24.03924
# Shear Modulus (GPa) = 5.68177 24.17398 14.92787
#
# Velocity S-wave (km/s) = 1.59043 3.28056 2.57794
# Velocity P-wave (km/s) = 3.47428 5.20150 4.42302
#
# Compressibility (1/GPa) = 0.05118330
#
# Stress axis : x y z
#
# Youngs Moduli (GPa) = 33.74415 78.59066 103.68381
#
# Poissons Ratio (x) = -0.08996 -0.11053
# Poissons Ratio (y) = -0.03863 0.27175
# Poissons Ratio (z) = -0.03597 0.20598
#
# Static dielectric constant tensor:
#      x y z
#    x 1.877530 0.000000 0.000000 
#    y 0.000000 1.884360 0.000000 
#    z 0.000000 0.000000 1.708600 
# 
# From -- ./inp_files/63329.got.cif
#   From: 2010.05.17/outbox.cif.g08.bks.cpg/sg71_32_cif.got.tgz:63329.got - 2010.06.03 16:22:01.
