data_PCOD9524566
_publ_section_title
;
Structure prediction by ZEFSAII (Michael W. Deem and Ramdas Pophale) SiO2 
 PCOD9524566
Probable space group: I M M M
;
_chemical_formula_sum "Si O2"
_cell_formula_units_Z 88
_cell_length_a 27.661076
_cell_length_b 18.903983
_cell_length_c 7.691197
_cell_angle_alpha 90.000000
_cell_angle_beta 90.000000
_cell_angle_gamma 90.000000
_cell_volume 4021.761602
_symmetry_space_group_name_H-M "I M M M"
_symmetry_group_IT_number 71
_symmetry_cell_setting 'orthorhombic'
loop_
_space_group_symop_operation_xyz
x,y,z
-x,-y,z
x,-y,-z
-x,y,-z
-x,-y,-z
x,y,-z
-x,y,z
x,-y,z
1/2+x,1/2+y,1/2+z
1/2-x,1/2-y,1/2+z
1/2+x,1/2-y,1/2-z
1/2-x,1/2+y,1/2-z
1/2-x,1/2-y,1/2-z
1/2+x,1/2+y,1/2-z
1/2-x,1/2+y,1/2+z
1/2+x,1/2-y,1/2+z
loop_
_atom_site_type_symbol
_atom_site_label
_atom_site_fract_x
_atom_site_fract_y
_atom_site_fract_z
Si Si1 0.757800 0.922865 0.707118
Si Si2 0.940481 0.917684 0.500000
Si Si3 0.557085 0.683212 0.305691
Si Si4 0.802100 0.783085 0.204996
Si Si5 0.844105 0.641138 0.213460
Si Si6 0.947272 0.349333 0.788549
O O1 0.752319 0.927027 0.500000
O O2 0.797964 0.863248 0.736222
O O3 0.704500 0.898516 0.772889
O O4 0.770160 0.000000 0.776353
O O5 0.923486 0.872664 0.667236
O O6 0.000000 0.916945 0.500000
O O7 0.925772 0.000000 0.500000
O O8 0.578684 0.678129 0.500000
O O9 0.500000 0.666715 0.320673
O O10 0.557413 0.765386 0.249746
O O11 0.750000 0.750000 0.250000
O O12 0.838474 0.723300 0.270911
O O13 0.807162 0.784372 0.000000
O O14 0.897068 0.615190 0.268904
O O15 0.843429 0.639718 0.000000
O O16 0.000000 0.373960 0.725258
O O17 0.948467 0.353924 0.000000
#
# Coordination Sequence:
#
# PCOD9524566 Si02
#       6
#    16   8  16  16  16  16
#     4   9  17  29  46  68  96 128 156 186 229 281
#     4   9  16  24  36  54  76 102 133 177 229 277
#     4   8  14  24  38  56  77 104 141 183 227 272
#     4   9  16  27  45  68  94 122 152 189 232 278
#     4   8  14  25  43  67  92 119 154 192 229 275
#     4   8  13  23  42  65  86 112 148 189 231 270
#
# _framework density 21.880958
#
# number of rings (size 3 to 8) (size 9 to 14) (size 15 to 20)
#    0.000    3.545    0.000    2.727    0.000    0.727 
#    0.000    1.818   10.000    1.636    0.000    8.909 
#    0.000    0.000    0.000    6.545    0.000    7.273 
#
# Total GULP energy -244986.828439 kJ/mol
# GULP energy per Si atom -5567.882465 kJ/mol
# Density = 2.183116 g / cm^3
# Si number density = 21.880958 Si / 1000 Ang^3
#
#
#
# Elastic Constant Matrix: (Units=GPa)
#
#
# Indices 1 2 3 4 5 6 
#
# 1 77.1512 -16.9854 -9.1580 0.0000 0.0000 0.0000
# 2 -16.9854 42.5899 0.2846 0.0000 0.0000 0.0000
# 3 -9.1580 0.2846 44.5857 0.0000 0.0000 0.0000
# 4 0.0000 0.0000 0.0000 -18.0192 0.0000 0.0000
# 5 0.0000 0.0000 0.0000 0.0000 0.0490 0.0000
# 6 0.0000 0.0000 0.0000 0.0000 0.0000 8.7831
#
#
#
# Elastic Compliance Matrix: (Units=1/GPa)
#
#
# Indices 1 2 3 4 5 6 
#
# 1 0.014590 0.005799 0.002960 0.000000 0.000000 0.000000
# 2 0.005799 0.025785 0.001026 0.000000 0.000000 0.000000
# 3 0.002960 0.001026 0.023030 0.000000 0.000000 0.000000
# 4 0.000000 0.000000 0.000000 -0.055496 0.000000 0.000000
# 5 0.000000 0.000000 0.000000 0.000000 20.391840 0.000000
# 6 0.000000 0.000000 0.000000 0.000000 0.000000 0.113855
#
#
# Mechanical properties :
#
#
# Convention : Reuss Voigt Hill
#
# Bulk Modulus (GPa) = 12.05184 12.51213 12.28199
# Shear Modulus (GPa) = 0.24364 10.84164 5.54264
#
# Velocity S-wave (km/s) = 0.33405 2.22836 1.59329
# Velocity P-wave (km/s) = 2.38089 3.51447 3.00168
#
# Compressibility (1/GPa) = 0.08297486
#
# Stress axis : x y z
#
# Youngs Moduli (GPa) = 68.54238 38.78151 43.42149
#
# Poissons Ratio (x) = -0.22488 -0.12851
# Poissons Ratio (y) = -0.39746 -0.04457
# Poissons Ratio (z) = -0.20286 -0.03981
#
# Static dielectric constant tensor:
#      x y z
#    x 1.843420 0.000000 0.000000 
#    y 0.000000 1.804360 0.000000 
#    z 0.000000 0.000000 1.816340 
# 
# From -- ./inp_files/16862.got.cif
#   From: 2010.05.17/outbox.cif.g08.bks.cpg/sg71_9_cif.got.tgz:16862.got - 2010.06.03 16:22:01.
