data_PCOD9524371
_publ_section_title
;
Structure prediction by ZEFSAII (Michael W. Deem and Ramdas Pophale) SiO2 
 PCOD9524371
Probable space group: I M M M
;
_chemical_formula_sum "Si O2"
_cell_formula_units_Z 72
_cell_length_a 8.219500
_cell_length_b 32.922717
_cell_length_c 13.423050
_cell_angle_alpha 90.000000
_cell_angle_beta 90.000000
_cell_angle_gamma 90.000000
_cell_volume 3632.388371
_symmetry_space_group_name_H-M "I M M M"
_symmetry_group_IT_number 71
_symmetry_cell_setting 'orthorhombic'
loop_
_space_group_symop_operation_xyz
x,y,z
-x,-y,z
x,-y,-z
-x,y,-z
-x,-y,-z
x,y,-z
-x,y,z
x,-y,z
1/2+x,1/2+y,1/2+z
1/2-x,1/2-y,1/2+z
1/2+x,1/2-y,1/2-z
1/2-x,1/2+y,1/2-z
1/2-x,1/2-y,1/2-z
1/2+x,1/2+y,1/2-z
1/2-x,1/2+y,1/2+z
1/2+x,1/2-y,1/2+z
loop_
_atom_site_type_symbol
_atom_site_label
_atom_site_fract_x
_atom_site_fract_y
_atom_site_fract_z
Si Si1 0.805211 0.546174 0.000000
Si Si2 0.307539 0.686390 0.807161
Si Si3 0.696937 0.771511 0.888559
Si Si4 0.305248 0.404547 0.806923
Si Si5 0.803560 0.547016 0.612834
O O1 0.749009 0.568636 0.099775
O O2 0.743672 0.500000 0.000000
O O3 0.000000 0.545391 0.000000
O O4 0.500000 0.684171 0.827498
O O5 0.246623 0.724920 0.870674
O O6 0.276612 0.700351 0.694141
O O7 0.239409 0.641387 0.821394
O O8 0.500000 0.772486 0.875415
O O9 0.734917 0.784412 0.000000
O O10 0.500000 0.402666 0.806539
O O11 0.253060 0.424319 0.702126
O O12 0.750725 0.558476 0.500000
O O13 0.752326 0.500000 0.630393
O O14 0.000000 0.547344 0.613014
#
# Coordination Sequence:
#
# PCOD9524371 Si02
#       5
#     8  16  16  16  16
#     4  11  25  43  61  83 115 155 195 239 289 341
#     4   9  20  36  53  78 111 143 177 222 276 329
#     4   9  18  34  57  78 103 143 185 225 269 323
#     4  11  23  37  58  86 116 150 187 234 289 343
#     4   9  19  37  59  81 109 148 189 231 282 337
#
# _framework density 19.821669
#
# number of rings (size 3 to 8) (size 9 to 14) (size 15 to 20)
#    0.000    2.333    0.000    2.333    1.556    7.556 
#    0.000    5.556    0.000    0.000    0.000    0.000 
#    0.000    0.000    0.000    0.000    0.000    0.000 
#
# Total GULP energy -200891.840517 kJ/mol
# GULP energy per Si atom -5580.328903 kJ/mol
# Density = 1.977655 g / cm^3
# Si number density = 19.821669 Si / 1000 Ang^3
#
#
#
# Elastic Constant Matrix: (Units=GPa)
#
#
# Indices 1 2 3 4 5 6 
#
# 1 10.1618 3.7780 -7.0440 -0.0001 0.0000 0.0000
# 2 3.7780 125.2389 30.9452 -0.0001 0.0000 0.0000
# 3 -7.0440 30.9452 68.4104 -0.0002 0.0000 0.0001
# 4 -0.0001 -0.0001 -0.0002 10.5821 0.0000 0.0001
# 5 0.0000 0.0000 0.0000 0.0000 49.1696 0.0000
# 6 0.0000 0.0000 0.0001 0.0001 0.0000 6.9960
#
#
#
# Elastic Compliance Matrix: (Units=1/GPa)
#
#
# Indices 1 2 3 4 5 6 
#
# 1 0.111105 -0.006956 0.014586 0.000001 0.000000 0.000000
# 2 -0.006956 0.009425 -0.004980 0.000000 0.000000 0.000000
# 3 0.014586 -0.004980 0.018372 0.000000 0.000000 0.000000
# 4 0.000001 0.000000 0.000000 0.094499 0.000000 -0.000002
# 5 0.000000 0.000000 0.000000 0.000000 0.020338 0.000000
# 6 0.000000 0.000000 0.000000 -0.000002 0.000000 0.142939
#
#
# Mechanical properties :
#
#
# Convention : Reuss Voigt Hill
#
# Bulk Modulus (GPa) = 6.93463 28.79662 17.86563
# Shear Modulus (GPa) = 11.37803 25.09167 18.23485
#
# Velocity S-wave (km/s) = 2.39847 3.56177 3.03635
# Velocity P-wave (km/s) = 3.34310 5.61020 4.61793
#
# Compressibility (1/GPa) = 0.14420377
#
# Stress axis : x y z
#
# Youngs Moduli (GPa) = 9.00054 106.10123 54.43052
#
# Poissons Ratio (x) = 0.73802 -0.79395
# Poissons Ratio (y) = 0.06261 0.27104
# Poissons Ratio (z) = -0.13129 0.52834
#
# Static dielectric constant tensor:
#      x y z
#    x 1.701360 0.000000 0.000000 
#    y 0.000000 1.714830 0.000000 
#    z 0.000000 0.000000 1.718090 
# 
# From -- ./inp_files/31670.got.cif
#   From: 2010.05.17/outbox.cif.g08.bks.cpg/sg71_16_cif.got.tgz:31670.got - 2010.06.03 16:22:01.
