data_PCOD9524614
_publ_section_title
;
Structure prediction by ZEFSAII (Michael W. Deem and Ramdas Pophale) SiO2 
 PCOD9524614
Probable space group: I M M M
;
_chemical_formula_sum "Si O2"
_cell_formula_units_Z 72
_cell_length_a 7.346302
_cell_length_b 20.294980
_cell_length_c 22.652524
_cell_angle_alpha 90.000000
_cell_angle_beta 90.000000
_cell_angle_gamma 90.000000
_cell_volume 3377.333942
_symmetry_space_group_name_H-M "I M M M"
_symmetry_group_IT_number 71
_symmetry_cell_setting 'orthorhombic'
loop_
_space_group_symop_operation_xyz
x,y,z
-x,-y,z
x,-y,-z
-x,y,-z
-x,-y,-z
x,y,-z
-x,y,z
x,-y,z
1/2+x,1/2+y,1/2+z
1/2-x,1/2-y,1/2+z
1/2+x,1/2-y,1/2-z
1/2-x,1/2+y,1/2-z
1/2-x,1/2-y,1/2-z
1/2+x,1/2+y,1/2-z
1/2-x,1/2+y,1/2+z
1/2+x,1/2-y,1/2+z
loop_
_atom_site_type_symbol
_atom_site_label
_atom_site_fract_x
_atom_site_fract_y
_atom_site_fract_z
Si Si1 0.777886 0.159752 0.614182
Si Si2 0.285424 0.073893 0.860464
Si Si3 0.722435 0.800437 0.931644
Si Si4 0.219073 0.074822 0.276196
Si Si5 0.721836 0.575743 0.000000
O O1 0.720013 0.234554 0.602584
O O2 0.716611 0.126311 0.674937
O O3 0.722448 0.114836 0.558601
O O4 0.000000 0.159891 0.614648
O O5 0.500000 0.069880 0.873351
O O6 0.212994 0.132800 0.900480
O O7 0.267008 0.090590 0.791225
O O8 0.209672 0.000000 0.869311
O O9 0.500000 0.800674 0.930759
O O10 0.776524 0.796628 0.000000
O O11 0.000000 0.073649 0.279444
O O12 0.282383 0.000000 0.288810
O O13 0.781147 0.500000 0.000000
O O14 0.500000 0.575347 0.000000
#
# Coordination Sequence:
#
# PCOD9524614 Si02
#       5
#    16  16  16  16   8
#     4   9  15  24  39  62  90 117 143 175 218 263
#     4   9  18  31  46  65  88 115 149 185 219 258
#     4   9  16  27  43  63  88 115 144 183 226 261
#     4   9  17  29  45  66  92 118 144 177 217 261
#     4   9  14  20  34  58  88 118 144 173 213 259
#
# _framework density 21.31859
#
# number of rings (size 3 to 8) (size 9 to 14) (size 15 to 20)
#    0.000    3.000    1.111    0.667    0.000    4.000 
#    0.000    2.222    0.000    0.667    0.000    3.889 
#    0.000    4.444    0.000    0.000    0.000    0.000 
#
# Total GULP energy -201009.197053 kJ/mol
# GULP energy per Si atom -5583.588807 kJ/mol
# Density = 2.127007 g / cm^3
# Si number density = 21.318590 Si / 1000 Ang^3
#
#
#
# Elastic Constant Matrix: (Units=GPa)
#
#
# Indices 1 2 3 4 5 6 
#
# 1 80.5674 6.5511 -3.5656 0.0000 0.0000 0.0000
# 2 6.5511 180.1136 96.9850 0.0000 0.0000 0.0000
# 3 -3.5656 96.9850 84.7057 0.0000 0.0000 0.0000
# 4 0.0000 0.0000 0.0000 42.2093 0.0000 0.0000
# 5 0.0000 0.0000 0.0000 0.0000 11.7437 0.0000
# 6 0.0000 0.0000 0.0000 0.0000 0.0000 -11.2897
#
#
#
# Elastic Compliance Matrix: (Units=1/GPa)
#
#
# Indices 1 2 3 4 5 6 
#
# 1 0.012694 -0.001954 0.002772 0.000000 0.000000 0.000000
# 2 -0.001954 0.014779 -0.017004 0.000000 0.000000 0.000000
# 3 0.002772 -0.017004 0.031391 0.000000 0.000000 0.000000
# 4 0.000000 0.000000 0.000000 0.023691 0.000000 0.000000
# 5 0.000000 0.000000 0.000000 0.000000 0.085152 0.000000
# 6 0.000000 0.000000 0.000000 0.000000 0.000000 -0.088577
#
#
# Mechanical properties :
#
#
# Convention : Reuss Voigt Hill
#
# Bulk Modulus (GPa) = 37.74825 60.59196 49.17010
# Shear Modulus (GPa) = 41.55120 24.89374 33.22247
#
# Velocity S-wave (km/s) = 4.41960 3.42087 3.95192
# Velocity P-wave (km/s) = 6.61733 6.63980 6.62858
#
# Compressibility (1/GPa) = 0.02649129
#
# Stress axis : x y z
#
# Youngs Moduli (GPa) = 78.78015 67.66324 31.85631
#
# Poissons Ratio (x) = 0.13223 -0.08830
# Poissons Ratio (y) = 0.15396 0.54168
# Poissons Ratio (z) = -0.21837 1.15053
#
# Static dielectric constant tensor:
#      x y z
#    x 1.849930 0.000000 0.000000 
#    y 0.000000 1.748400 0.000000 
#    z 0.000000 0.000000 1.708100 
# 
# From -- ./inp_files/7931.got.cif
#   From: 2010.05.17/outbox.cif.g08.bks.cpg/sg71_4_cif.got.tgz:7931.got - 2010.06.03 16:22:01.
