data_PCOD9524761
_publ_section_title
;
Structure prediction by ZEFSAII (Michael W. Deem and Ramdas Pophale) SiO2 
 PCOD9524761
Probable space group: I M M M
;
_chemical_formula_sum "Si O2"
_cell_formula_units_Z 56
_cell_length_a 15.000000
_cell_length_b 24.000000
_cell_length_c 15.000000
_cell_angle_alpha 90.000000
_cell_angle_beta 90.000000
_cell_angle_gamma 90.000000
_cell_volume 5400.000000
_symmetry_space_group_name_H-M "I M M M"
_symmetry_group_IT_number 71
_symmetry_cell_setting 'orthorhombic'
loop_
_space_group_symop_operation_xyz
x,y,z
-x,-y,z
x,-y,-z
-x,y,-z
-x,-y,-z
x,y,-z
-x,y,z
x,-y,z
1/2+x,1/2+y,1/2+z
1/2-x,1/2-y,1/2+z
1/2+x,1/2-y,1/2-z
1/2-x,1/2+y,1/2-z
1/2-x,1/2-y,1/2-z
1/2+x,1/2+y,1/2-z
1/2-x,1/2+y,1/2+z
1/2+x,1/2-y,1/2+z
loop_
_atom_site_type_symbol
_atom_site_label
_atom_site_fract_x
_atom_site_fract_y
_atom_site_fract_z
Si Si1 0.400802 0.293097 0.134379
Si Si2 0.397724 0.723188 0.659888
Si Si3 0.784057 0.124513 0.101136
Si Si4 0.199365 0.325861 0.100279
Si Si5 0.404786 0.160256 0.106567
Si Si6 0.765640 0.063019 0.394389
Si Si7 0.598563 0.566040 0.254935
O O1 0.500000 0.312577 0.103494
O O2 0.396380 0.300941 0.240575
O O3 0.305869 0.313850 0.098636
O O4 0.399980 0.226649 0.118200
O O5 0.500000 0.725080 0.629011
O O6 0.333722 0.684187 0.602270
O O7 0.353063 0.783728 0.662204
O O8 0.685421 0.132704 0.139875
O O9 0.841316 0.086532 0.164961
O O10 0.780802 0.103864 0.000000
O O11 0.193099 0.390206 0.126451
O O12 0.165022 0.317360 0.000000
O O13 0.500000 0.141144 0.143835
O O14 0.404766 0.150483 0.000000
O O15 0.782978 0.065782 0.500000
O O16 0.853690 0.077295 0.338548
O O17 0.739401 0.000000 0.371850
O O18 0.500000 0.589961 0.260845
O O19 0.592157 0.500000 0.261020
#
# Coordination Sequence:
#
# PCOD9524761 Si02
#       7
#    16  16  16  16  16  16  16
#     4  10  20  33  51  77 108 142 179 225 276 329
#     4  11  23  35  50  78 113 150 188 225 273 328
#     4  11  22  36  57  82 114 157 195 231 275 325
#     4  11  21  33  53  78 107 143 179 222 274 332
#     4   9  18  33  53  79 110 143 183 230 282 336
#     4   9  20  38  59  82 107 140 184 235 292 344
#     4  10  22  39  59  84 114 151 192 232 276 329
#
# _framework density 10.370369999999999
#
# number of rings (size 3 to 8) (size 9 to 14) (size 15 to 20)
#    0.000    1.857    1.429    2.571    2.000    5.143 
#    0.000    3.571    0.000    0.857    0.000    6.000 
#    0.000    0.000    0.000    0.000    0.000    0.286 
#
# Total GULP energy -312395.927245 kJ/mol
# GULP energy per Si atom -5578.498701 kJ/mol
# Density = 1.034677 g / cm^3
# Si number density = 10.370370 Si / 1000 Ang^3
#
#
#
# Elastic Constant Matrix: (Units=GPa)
#
#
# Indices 1 2 3 4 5 6 
#
# 1 60.0583 39.4764 20.1448 -0.0002 -0.0006 0.0000
# 2 39.4764 53.3558 28.8071 -0.0002 -0.0019 0.0000
# 3 20.1448 28.8071 56.1185 -0.0002 -0.0013 0.0000
# 4 -0.0002 -0.0002 -0.0002 27.4785 -0.0009 0.0000
# 5 -0.0006 -0.0019 -0.0013 -0.0009 80.8031 0.0001
# 6 0.0000 0.0000 0.0000 0.0000 0.0001 22.4601
#
#
#
# Elastic Compliance Matrix: (Units=1/GPa)
#
#
# Indices 1 2 3 4 5 6 
#
# 1 0.032449 -0.024513 0.000935 0.000000 0.000000 0.000000
# 2 -0.024513 0.044446 -0.014016 0.000000 0.000001 0.000000
# 3 0.000935 -0.014016 0.024678 0.000000 0.000000 0.000000
# 4 0.000000 0.000000 0.000000 0.036392 0.000000 0.000000
# 5 0.000000 0.000001 0.000000 0.000000 0.012376 0.000000
# 6 0.000000 0.000000 0.000000 0.000000 0.000000 0.044523
#
#
# Mechanical properties :
#
#
# Convention : Reuss Voigt Hill
#
# Bulk Modulus (GPa) = 37.89923 38.48769 38.19346
# Shear Modulus (GPa) = 17.93092 31.55530 24.74311
#
# Velocity S-wave (km/s) = 2.94347 3.90476 3.45769
# Velocity P-wave (km/s) = 5.46485 6.23911 5.86477
#
# Compressibility (1/GPa) = 0.02638576
#
# Stress axis : x y z
#
# Youngs Moduli (GPa) = 30.81723 22.49934 40.52119
#
# Poissons Ratio (x) = 0.55153 -0.03788
# Poissons Ratio (y) = 0.75543 0.56793
# Poissons Ratio (z) = -0.02881 0.31534
#
# Static dielectric constant tensor:
#      x y z
#    x 1.745750 0.000000 0.000000 
#    y 0.000000 1.800670 0.000000 
#    z 0.000000 0.000000 1.745250 
# 
# From -- ./inp_files/34849.got.cif
#   From: 2010.05.17/outbox.ucp.g08.bks.cvg/sg71_18_cif.got.tgz:34849.got - 2010.06.11 16:29:00.
