data_PCOD9524643
_publ_section_title
;
Structure prediction by ZEFSAII (Michael W. Deem and Ramdas Pophale) SiO2 
 PCOD9524643
Probable space group: I M M M
;
_chemical_formula_sum "Si O2"
_cell_formula_units_Z 80
_cell_length_a 18.412800
_cell_length_b 28.511278
_cell_length_c 7.414228
_cell_angle_alpha 90.000000
_cell_angle_beta 90.000000
_cell_angle_gamma 90.000000
_cell_volume 3892.265509
_symmetry_space_group_name_H-M "I M M M"
_symmetry_group_IT_number 71
_symmetry_cell_setting 'orthorhombic'
loop_
_space_group_symop_operation_xyz
x,y,z
-x,-y,z
x,-y,-z
-x,y,-z
-x,-y,-z
x,y,-z
-x,y,z
x,-y,z
1/2+x,1/2+y,1/2+z
1/2-x,1/2-y,1/2+z
1/2+x,1/2-y,1/2-z
1/2-x,1/2+y,1/2-z
1/2-x,1/2-y,1/2-z
1/2+x,1/2+y,1/2-z
1/2-x,1/2+y,1/2+z
1/2+x,1/2-y,1/2+z
loop_
_atom_site_type_symbol
_atom_site_label
_atom_site_fract_x
_atom_site_fract_y
_atom_site_fract_z
Si Si1 0.920613 0.083500 0.718811
Si Si2 0.580869 0.211037 0.220537
Si Si3 0.280315 0.847499 0.218704
Si Si4 0.621774 0.313813 0.210386
Si Si5 0.737758 0.449469 0.710425
O O1 0.918386 0.083349 0.500000
O O2 0.910373 0.137445 0.782823
O O3 0.849475 0.056091 0.779404
O O4 0.000000 0.065996 0.773931
O O5 0.500000 0.196111 0.273338
O O6 0.646157 0.177457 0.278898
O O7 0.595259 0.264296 0.283998
O O8 0.583220 0.211599 0.000000
O O9 0.208665 0.818785 0.274331
O O10 0.269991 0.900949 0.285245
O O11 0.279585 0.848428 0.000000
O O12 0.601321 0.313506 0.000000
O O13 0.758065 0.450276 0.500000
O O14 0.758354 0.500000 0.789456
#
# Coordination Sequence:
#
# PCOD9524643 Si02
#       5
#    16  16  16  16  16
#     4   9  17  28  42  62  87 111 136 168 203 240
#     4   9  16  26  43  66  88 110 137 168 203 245
#     4   9  17  29  45  63  83 109 141 174 204 239
#     4   9  16  27  44  64  87 114 139 163 197 243
#     4   9  18  31  44  58  79 109 142 174 210 248
#
# _framework density 20.553581000000001
#
# number of rings (size 3 to 8) (size 9 to 14) (size 15 to 20)
#    0.000    3.000    0.000    1.200    0.000    3.600 
#    0.000    2.000    0.000    4.200    0.000    4.200 
#    0.000    0.000    0.000   10.000    0.000   10.400 
#
# Total GULP energy -223189.197845 kJ/mol
# GULP energy per Si atom -5579.729946 kJ/mol
# Density = 2.050680 g / cm^3
# Si number density = 20.553581 Si / 1000 Ang^3
#
#
#
# Elastic Constant Matrix: (Units=GPa)
#
#
# Indices 1 2 3 4 5 6 
#
# 1 76.1346 25.4664 -13.4473 0.0000 0.0002 0.0000
# 2 25.4664 87.0101 -2.5218 0.0000 0.0001 0.0000
# 3 -13.4473 -2.5218 67.1217 0.0001 0.0018 0.0000
# 4 0.0000 0.0000 0.0001 -19.3203 -0.0006 0.0000
# 5 0.0002 0.0001 0.0018 -0.0006 104.9317 0.0000
# 6 0.0000 0.0000 0.0000 0.0000 0.0000 -0.9781
#
#
#
# Elastic Compliance Matrix: (Units=1/GPa)
#
#
# Indices 1 2 3 4 5 6 
#
# 1 0.015089 -0.004333 0.002860 0.000000 0.000000 0.000000
# 2 -0.004333 0.012750 -0.000389 0.000000 0.000000 0.000000
# 3 0.002860 -0.000389 0.015457 0.000000 0.000000 0.000000
# 4 0.000000 0.000000 0.000000 -0.051759 0.000000 0.000000
# 5 0.000000 0.000000 0.000000 0.000000 0.009530 0.000000
# 6 0.000000 0.000000 0.000000 0.000000 0.000000 -1.022340
#
#
# Mechanical properties :
#
#
# Convention : Reuss Voigt Hill
#
# Bulk Modulus (GPa) = 25.27094 27.69568 26.48331
# Shear Modulus (GPa) = -4.97831 31.64460 13.33315
#
# Velocity S-wave (km/s) = -1.55800 3.92805 2.54973
# Velocity P-wave (km/s) = 3.01419 5.83754 4.64555
#
# Compressibility (1/GPa) = 0.03957114
#
# Stress axis : x y z
#
# Youngs Moduli (GPa) = 66.27199 78.43150 64.69681
#
# Poissons Ratio (x) = 0.33988 -0.18505
# Poissons Ratio (y) = 0.28719 0.02518
# Poissons Ratio (z) = -0.18955 0.03052
#
# Static dielectric constant tensor:
#      x y z
#    x 1.695630 0.000000 0.000000 
#    y 0.000000 1.748880 0.000000 
#    z 0.000000 0.000000 1.812910 
# 
# From -- ./inp_files/8269.got.cif
#   From: 2010.05.17/outbox.cif.g08.bks.cpg/sg71_5_cif.got.tgz:8269.got - 2010.06.03 16:22:01.
