data_PCOD9524250
_publ_section_title
;
Structure prediction by ZEFSAII (Michael W. Deem and Ramdas Pophale) SiO2 
 PCOD9524250
Probable space group: I M M M
;
_chemical_formula_sum "Si O2"
_cell_formula_units_Z 72
_cell_length_a 7.905954
_cell_length_b 14.323822
_cell_length_c 30.228521
_cell_angle_alpha 90.000000
_cell_angle_beta 90.000000
_cell_angle_gamma 90.000000
_cell_volume 3423.182848
_symmetry_space_group_name_H-M "I M M M"
_symmetry_group_IT_number 71
_symmetry_cell_setting 'orthorhombic'
loop_
_space_group_symop_operation_xyz
x,y,z
-x,-y,z
x,-y,-z
-x,y,-z
-x,-y,-z
x,y,-z
-x,y,z
x,-y,z
1/2+x,1/2+y,1/2+z
1/2-x,1/2-y,1/2+z
1/2+x,1/2-y,1/2-z
1/2-x,1/2+y,1/2-z
1/2-x,1/2-y,1/2-z
1/2+x,1/2+y,1/2-z
1/2-x,1/2+y,1/2+z
1/2+x,1/2-y,1/2+z
loop_
_atom_site_type_symbol
_atom_site_label
_atom_site_fract_x
_atom_site_fract_y
_atom_site_fract_z
Si Si1 0.802793 0.282126 0.085818
Si Si2 0.208225 0.107143 0.866365
Si Si3 0.801946 0.113944 0.769438
Si Si4 0.301626 0.603855 0.000000
Si Si5 0.204929 0.110192 0.326222
O O1 0.731682 0.179444 0.096773
O O2 0.776594 0.338507 0.131307
O O3 0.000000 0.270074 0.077584
O O4 0.737361 0.338689 0.044156
O O5 0.269558 0.139292 0.817442
O O6 0.000000 0.108547 0.864819
O O7 0.257656 0.000000 0.873580
O O8 0.730999 0.145210 0.721985
O O9 0.000000 0.139706 0.769510
O O10 0.796463 0.000000 0.768622
O O11 0.220898 0.500000 0.000000
O O12 0.500000 0.591434 0.000000
O O13 0.000000 0.118149 0.326699
O O14 0.244681 0.000000 0.329457
#
# Coordination Sequence:
#
# PCOD9524250 Si02
#       5
#    16  16  16   8  16
#     4  11  22  34  54  83 107 130 167 218 270 307
#     4   8  15  30  51  76 108 143 176 209 247 297
#     4   7  11  23  45  71 101 141 183 212 236 283
#     4  11  25  45  64  77  96 132 171 205 252 319
#     4   9  17  30  49  74 106 145 183 213 247 300
#
# _framework density 21.033056999999999
#
# number of rings (size 3 to 8) (size 9 to 14) (size 15 to 20)
#    0.000    3.000    0.000    4.333    0.000    4.889 
#    0.000    0.556    0.000    7.333    0.000    6.222 
#    0.000    0.000    0.000    0.000    0.000    0.000 
#
# Total GULP energy -200777.797460 kJ/mol
# GULP energy per Si atom -5577.161041 kJ/mol
# Density = 2.098518 g / cm^3
# Si number density = 21.033057 Si / 1000 Ang^3
#
#
#
# Elastic Constant Matrix: (Units=GPa)
#
#
# Indices 1 2 3 4 5 6 
#
# 1 19.9338 8.0436 14.7090 0.0000 0.0000 0.0000
# 2 8.0436 107.6706 91.6259 0.0000 0.0000 0.0000
# 3 14.7090 91.6259 169.7093 0.0000 0.0000 0.0000
# 4 0.0000 0.0000 0.0000 61.0418 0.0000 0.0000
# 5 0.0000 0.0000 0.0000 0.0000 -1.7476 0.0000
# 6 0.0000 0.0000 0.0000 0.0000 0.0000 0.0412
#
#
#
# Elastic Compliance Matrix: (Units=1/GPa)
#
#
# Indices 1 2 3 4 5 6 
#
# 1 0.053594 -0.000094 -0.004594 0.000000 0.000000 0.000000
# 2 -0.000094 0.017182 -0.009268 0.000000 0.000000 -0.000001
# 3 -0.004594 -0.009268 0.011295 0.000000 0.000000 0.000000
# 4 0.000000 0.000000 0.000000 0.016382 0.000000 0.000000
# 5 0.000000 0.000000 0.000000 0.000000 -0.572228 -0.000019
# 6 0.000000 -0.000001 0.000000 0.000000 -0.000019 24.263208
#
#
# Mechanical properties :
#
#
# Convention : Reuss Voigt Hill
#
# Bulk Modulus (GPa) = 18.46481 58.45231 38.45856
# Shear Modulus (GPa) = 0.20977 24.06278 12.13628
#
# Velocity S-wave (km/s) = 0.31615 3.38604 2.40471
# Velocity P-wave (km/s) = 2.98852 6.56796 5.10242
#
# Compressibility (1/GPa) = 0.05415706
#
# Stress axis : x y z
#
# Youngs Moduli (GPa) = 18.65879 58.20133 88.53834
#
# Poissons Ratio (x) = 0.00548 0.40677
# Poissons Ratio (y) = 0.00176 0.82060
# Poissons Ratio (z) = 0.08572 0.53942
#
# Static dielectric constant tensor:
#      x y z
#    x 1.754020 0.000000 0.000000 
#    y 0.000000 1.825860 0.000000 
#    z 0.000000 0.000000 1.790870 
# 
# From -- ./inp_files/31450.got.cif
#   From: 2010.05.17/outbox.cif.g08.bks.cpg/sg71_16_cif.got.tgz:31450.got - 2010.06.03 16:22:01.
