data_PCOD9524835
_publ_section_title
;
Structure prediction by ZEFSAII (Michael W. Deem and Ramdas Pophale) SiO2 
 PCOD9524835
Probable space group: I M M M
;
_chemical_formula_sum "Si O2"
_cell_formula_units_Z 52
_cell_length_a 30.000000
_cell_length_b 9.000000
_cell_length_c 21.000000
_cell_angle_alpha 90.000000
_cell_angle_beta 90.000000
_cell_angle_gamma 90.000000
_cell_volume 5670.000000
_symmetry_space_group_name_H-M "I M M M"
_symmetry_group_IT_number 71
_symmetry_cell_setting 'orthorhombic'
loop_
_space_group_symop_operation_xyz
x,y,z
-x,-y,z
x,-y,-z
-x,y,-z
-x,-y,-z
x,y,-z
-x,y,z
x,-y,z
1/2+x,1/2+y,1/2+z
1/2-x,1/2-y,1/2+z
1/2+x,1/2-y,1/2-z
1/2-x,1/2+y,1/2-z
1/2-x,1/2-y,1/2-z
1/2+x,1/2+y,1/2-z
1/2-x,1/2+y,1/2+z
1/2+x,1/2-y,1/2+z
loop_
_atom_site_type_symbol
_atom_site_label
_atom_site_fract_x
_atom_site_fract_y
_atom_site_fract_z
Si Si1 0.051138 0.823924 0.000000
Si Si2 0.548740 0.821172 0.240388
Si Si3 0.639143 0.325420 0.803667
Si Si4 0.080018 0.330899 0.875160
Si Si5 0.332063 0.169820 0.071384
Si Si6 0.775013 0.828739 0.929909
Si Si7 0.321327 0.169117 0.314784
O O1 0.074919 0.767334 0.063206
O O2 0.000000 0.768429 0.000000
O O3 0.050431 0.000000 0.000000
O O4 0.500000 0.784950 0.214103
O O5 0.590242 0.741880 0.208552
O O6 0.550550 0.781574 0.315273
O O7 0.555199 0.000000 0.237234
O O8 0.638578 0.500000 0.794288
O O9 0.652745 0.279792 0.874277
O O10 0.672599 0.254224 0.751610
O O11 0.067914 0.500000 0.891968
O O12 0.129806 0.330447 0.847242
O O13 0.278451 0.170552 0.069571
O O14 0.345998 0.000000 0.086753
O O15 0.347895 0.205793 0.000000
O O16 0.790622 0.741478 0.868189
O O17 0.790320 0.000000 0.925173
O O18 0.789912 0.770665 0.000000
O O19 0.307954 0.000000 0.301820
#
# Coordination Sequence:
#
# PCOD9524835 Si02
#       7
#     8  16  16  16  16  16  16
#     4  11  23  33  43  65  95 129 171 219 271 319
#     4   9  18  35  58  80 103 135 175 217 263 319
#     4  11  22  35  55  83 113 142 176 220 269 316
#     4   9  19  34  50  69  95 131 175 218 260 309
#     4   9  19  38  61  82 108 142 177 214 262 324
#     4   9  19  35  55  80 108 140 180 226 275 321
#     4  10  21  36  53  75 105 142 185 225 266 318
#
# _framework density 9.1710759999999993
#
# number of rings (size 3 to 8) (size 9 to 14) (size 15 to 20)
#    0.000    2.385    0.000    4.385    1.077    6.462 
#    0.000    1.538    0.000    0.462    0.000    3.231 
#    0.000    0.000    0.000    0.000    0.000    0.000 
#
# Total GULP energy -289985.865073 kJ/mol
# GULP energy per Si atom -5576.651251 kJ/mol
# Density = 0.915020 g / cm^3
# Si number density = 9.171076 Si / 1000 Ang^3
#
#
#
# Elastic Constant Matrix: (Units=GPa)
#
#
# Indices 1 2 3 4 5 6 
#
# 1 21.3849 22.6439 20.8074 0.0000 0.0000 0.0000
# 2 22.6439 66.7358 49.7701 0.0000 0.0000 0.0000
# 3 20.8074 49.7701 80.2462 0.0000 0.0000 0.0000
# 4 0.0000 0.0000 0.0000 18.7095 0.0000 0.0000
# 5 0.0000 0.0000 0.0000 0.0000 -17.4045 0.0000
# 6 0.0000 0.0000 0.0000 0.0000 0.0000 19.6743
#
#
#
# Elastic Compliance Matrix: (Units=1/GPa)
#
#
# Indices 1 2 3 4 5 6 
#
# 1 0.074932 -0.020346 -0.006811 0.000000 0.000000 0.000000
# 2 -0.020346 0.033405 -0.015443 0.000000 0.000000 0.000000
# 3 -0.006811 -0.015443 0.023805 0.000000 0.000000 0.000000
# 4 0.000000 0.000000 0.000000 0.053449 0.000000 0.000000
# 5 0.000000 0.000000 0.000000 0.000000 -0.057456 0.000000
# 6 0.000000 0.000000 0.000000 0.000000 0.000000 0.050828
#
#
# Mechanical properties :
#
#
# Convention : Reuss Voigt Hill
#
# Bulk Modulus (GPa) = 21.30187 39.42330 30.36259
# Shear Modulus (GPa) = 17.86933 9.20556 13.53744
#
# Velocity S-wave (km/s) = 3.12464 2.24270 2.71966
# Velocity P-wave (km/s) = 4.96555 5.31472 5.14310
#
# Compressibility (1/GPa) = 0.04694424
#
# Stress axis : x y z
#
# Youngs Moduli (GPa) = 13.34534 29.93597 42.00723
#
# Poissons Ratio (x) = 0.60907 0.28611
# Poissons Ratio (y) = 0.27152 0.64870
# Poissons Ratio (z) = 0.09089 0.46229
#
# Static dielectric constant tensor:
#      x y z
#    x 1.650890 0.000000 0.000000 
#    y 0.000000 1.629060 0.000000 
#    z 0.000000 0.000000 1.644420 
# 
# From -- ./inp_files/11459.got.cif
#   From: 2010.05.17/outbox.ucp.g08.bks.cvg/sg71_6_cif.got.tgz:11459.got - 2010.06.11 16:29:00.
