data_PCOD9524952
_publ_section_title
;
Structure prediction by ZEFSAII (Michael W. Deem and Ramdas Pophale) SiO2 
 PCOD9524952
Probable space group: I B A M
;
_chemical_formula_sum "Si O2"
_cell_formula_units_Z 128
_cell_length_a 18.031145
_cell_length_b 26.152361
_cell_length_c 17.417894
_cell_angle_alpha 90.000000
_cell_angle_beta 90.000000
_cell_angle_gamma 90.000000
_cell_volume 8213.530072
_symmetry_space_group_name_H-M "I B A M"
_symmetry_group_IT_number 72
_symmetry_cell_setting 'orthorhombic'
loop_
_space_group_symop_operation_xyz
x,y,z
-x,-y,z
x,-y,1/2-z
-x,y,1/2-z
-x,-y,-z
x,y,-z
-x,y,1/2+z
x,-y,1/2+z
1/2+x,1/2+y,1/2+z
1/2-x,1/2-y,1/2+z
1/2+x,1/2-y,-z
1/2-x,1/2+y,-z
1/2-x,1/2-y,1/2-z
1/2+x,1/2+y,1/2-z
1/2-x,1/2+y,z
1/2+x,1/2-y,z
loop_
_atom_site_type_symbol
_atom_site_label
_atom_site_fract_x
_atom_site_fract_y
_atom_site_fract_z
Si Si1 0.099553 0.280832 0.913084
Si Si2 0.050151 0.609374 0.175209
Si Si3 0.424575 0.292353 0.718707
Si Si4 0.589942 0.098185 0.909216
Si Si5 0.722255 0.654478 0.755757
Si Si6 0.227281 0.210745 0.415573
Si Si7 0.180929 0.441865 0.766738
Si Si8 0.141377 0.708177 0.166904
O O1 0.062550 0.239063 0.859274
O O2 0.093444 0.340650 0.890444
O O3 0.187773 0.270591 0.910606
O O4 0.072421 0.276984 0.000000
O O5 0.115359 0.573723 0.207392
O O6 0.088635 0.661168 0.146032
O O7 0.000000 0.621908 0.250000
O O8 0.994310 0.584373 0.114379
O O9 0.500000 0.316404 0.750000
O O10 0.355379 0.331004 0.716266
O O11 0.400488 0.247421 0.777442
O O12 0.646001 0.069769 0.851291
O O13 0.604684 0.091718 0.000000
O O14 0.716148 0.673011 0.844057
O O15 0.750850 0.596687 0.754211
O O16 0.788230 0.686761 0.715208
O O17 0.217266 0.187536 0.500000
O O18 0.173646 0.258712 0.402367
O O19 0.200358 0.500000 0.750000
#
# Coordination Sequence:
#
# PCOD9524952 Si02
#       8
#    16  16  16  16  16  16  16  16
#     4  10  17  28  45  70  99 130 157 179 217 272
#     4   9  18  30  46  68  96 128 157 186 222 273
#     4  11  18  28  46  70  96 128 158 190 228 277
#     4  10  19  31  49  71  99 126 151 186 233 280
#     4  10  18  32  47  66  92 119 162 200 233 274
#     4  10  17  26  44  68  93 124 156 189 222 261
#     4  10  20  35  53  67  83 118 165 205 240 280
#     4  10  16  28  44  66  97 127 159 184 212 269
#
# _framework density 15.584042999999999
#
# number of rings (size 3 to 8) (size 9 to 14) (size 15 to 20)
#    0.000    2.000    3.750    3.375    0.000    2.750 
#    0.000    5.000    0.000    1.875    0.000    0.000 
#    0.000    0.000    0.000    6.750    0.000    0.000 
#
# Total GULP energy -356723.011777 kJ/mol
# GULP energy per Si atom -5573.797059 kJ/mol
# Density = 1.554857 g / cm^3
# Si number density = 15.584043 Si / 1000 Ang^3
#
#
#
# Elastic Constant Matrix: (Units=GPa)
#
#
# Indices 1 2 3 4 5 6 
#
# 1 59.1368 31.1429 10.2187 0.0000 0.0000 0.0000
# 2 31.1429 76.4887 27.3801 -0.0001 0.0000 0.0000
# 3 10.2187 27.3801 64.9237 -0.0002 0.0000 0.0000
# 4 0.0000 -0.0001 -0.0002 11.4805 0.0000 0.0000
# 5 0.0000 0.0000 0.0000 0.0000 10.0274 0.0000
# 6 0.0000 0.0000 0.0000 0.0000 0.0000 8.1263
#
#
#
# Elastic Compliance Matrix: (Units=1/GPa)
#
#
# Indices 1 2 3 4 5 6 
#
# 1 0.021533 -0.008897 0.000363 0.000000 0.000000 0.000000
# 2 -0.008897 0.019075 -0.006644 0.000000 0.000000 0.000000
# 3 0.000363 -0.006644 0.018147 0.000000 0.000000 0.000000
# 4 0.000000 0.000000 0.000000 0.087105 0.000000 0.000000
# 5 0.000000 0.000000 0.000000 0.000000 0.099727 0.000000
# 6 0.000000 0.000000 0.000000 0.000000 0.000000 0.123058
#
#
# Mechanical properties :
#
#
# Convention : Reuss Voigt Hill
#
# Bulk Modulus (GPa) = 35.21285 37.55917 36.38601
# Shear Modulus (GPa) = 12.24092 14.71400 13.47746
#
# Velocity S-wave (km/s) = 2.80568 3.07607 2.94398
# Velocity P-wave (km/s) = 5.75676 6.06380 5.91227
#
# Compressibility (1/GPa) = 0.02839873
#
# Stress axis : x y z
#
# Youngs Moduli (GPa) = 46.44107 52.42565 55.10407
#
# Poissons Ratio (x) = 0.46644 -0.02000
# Poissons Ratio (y) = 0.41319 0.36611
# Poissons Ratio (z) = -0.01686 0.34831
#
# Static dielectric constant tensor:
#      x y z
#    x 1.548420 0.000000 0.000000 
#    y 0.000000 1.510870 0.000000 
#    z 0.000000 0.000000 1.549400 
# 
# From -- ./inp_files/32073.got.cif
#   From: 2010.05.17/outbox.cif.g08.bks.cpg/sg72_17_cif.got.tgz:32073.got - 2010.06.03 17:03:01.
