data_PCOD9524567
_publ_section_title
;
Structure prediction by ZEFSAII (Michael W. Deem and Ramdas Pophale) SiO2 
 PCOD9524567
Probable space group: I M M M
;
_chemical_formula_sum "Si O2"
_cell_formula_units_Z 88
_cell_length_a 29.315959
_cell_length_b 19.747188
_cell_length_c 7.386301
_cell_angle_alpha 90.000000
_cell_angle_beta 90.000000
_cell_angle_gamma 90.000000
_cell_volume 4275.986921
_symmetry_space_group_name_H-M "I M M M"
_symmetry_group_IT_number 71
_symmetry_cell_setting 'orthorhombic'
loop_
_space_group_symop_operation_xyz
x,y,z
-x,-y,z
x,-y,-z
-x,y,-z
-x,-y,-z
x,y,-z
-x,y,z
x,-y,z
1/2+x,1/2+y,1/2+z
1/2-x,1/2-y,1/2+z
1/2+x,1/2-y,1/2-z
1/2-x,1/2+y,1/2-z
1/2-x,1/2-y,1/2-z
1/2+x,1/2+y,1/2-z
1/2-x,1/2+y,1/2+z
1/2+x,1/2-y,1/2+z
loop_
_atom_site_type_symbol
_atom_site_label
_atom_site_fract_x
_atom_site_fract_y
_atom_site_fract_z
Si Si1 0.763511 0.000000 0.294359
Si Si2 0.745603 0.645700 0.220246
Si Si3 0.852249 0.353404 0.293325
Si Si4 0.102408 0.076979 0.708767
Si Si5 0.000000 0.081425 0.796817
Si Si6 0.156206 0.500000 0.278129
Si Si7 0.845042 0.791303 0.277620
O O1 0.775275 0.926985 0.217952
O O2 0.780246 0.000000 0.500000
O O3 0.708306 0.000000 0.289908
O O4 0.796700 0.649605 0.293157
O O5 0.708208 0.700711 0.273580
O O6 0.749017 0.644179 0.000000
O O7 0.868609 0.354043 0.500000
O O8 0.864179 0.427769 0.217904
O O9 0.864975 0.280482 0.213290
O O10 0.116905 0.072010 0.500000
O O11 0.129109 0.141357 0.785464
O O12 0.048804 0.096612 0.711221
O O13 0.107742 0.000000 0.785257
O O14 0.000000 0.000000 0.803573
O O15 0.000000 0.108797 0.000000
O O16 0.157899 0.500000 0.500000
O O17 0.846380 0.790068 0.500000
#
# Coordination Sequence:
#
# PCOD9524567 Si02
#       7
#     8  16  16  16   8   8  16
#     4   8  14  22  34  50  68  91 128 169 201 230
#     4   9  16  25  37  53  74 104 137 170 206 239
#     4   9  16  27  39  53  75 105 139 171 204 237
#     4   9  17  29  46  65  83 106 136 166 198 240
#     4   9  17  31  49  65  85 110 133 158 194 241
#     4   8  14  24  38  50  66  97 134 165 193 232
#     4   9  17  26  39  59  81 102 130 170 205 235
#
# _framework density 20.580044000000001
#
# number of rings (size 3 to 8) (size 9 to 14) (size 15 to 20)
#    0.000    3.182    0.000    0.818    1.273    1.091 
#    0.000    1.818    0.000    0.000    0.000    0.000 
#    0.000    0.727    0.000    9.273    0.000    0.909 
#
# Total GULP energy -244992.377758 kJ/mol
# GULP energy per Si atom -5568.008585 kJ/mol
# Density = 2.053320 g / cm^3
# Si number density = 20.580044 Si / 1000 Ang^3
#
#
#
# Elastic Constant Matrix: (Units=GPa)
#
#
# Indices 1 2 3 4 5 6 
#
# 1 42.8286 21.6214 -3.4150 0.0000 0.0000 0.0000
# 2 21.6214 169.4828 1.6711 0.0000 0.0000 0.0000
# 3 -3.4150 1.6711 77.9180 0.0000 0.0000 0.0000
# 4 0.0000 0.0000 0.0000 -2.6319 0.0000 0.0000
# 5 0.0000 0.0000 0.0000 0.0000 1.9962 0.0000
# 6 0.0000 0.0000 0.0000 0.0000 0.0000 17.0447
#
#
#
# Elastic Compliance Matrix: (Units=1/GPa)
#
#
# Indices 1 2 3 4 5 6 
#
# 1 0.025062 -0.003209 0.001167 0.000000 0.000000 0.000000
# 2 -0.003209 0.006312 -0.000276 0.000000 0.000000 0.000000
# 3 0.001167 -0.000276 0.012891 0.000000 0.000000 0.000000
# 4 0.000000 0.000000 0.000000 -0.379959 0.000000 0.000000
# 5 0.000000 0.000000 0.000000 0.000000 0.500955 0.000000
# 6 0.000000 0.000000 0.000000 0.000000 0.000000 0.058669
#
#
# Mechanical properties :
#
#
# Convention : Reuss Voigt Hill
#
# Bulk Modulus (GPa) = 25.23323 36.66493 30.94908
# Shear Modulus (GPa) = 20.68038 21.30526 20.99282
#
# Velocity S-wave (km/s) = 3.17342 3.22100 3.19730
# Velocity P-wave (km/s) = 5.07100 5.62917 5.35736
#
# Compressibility (1/GPa) = 0.03963028
#
# Stress axis : x y z
#
# Youngs Moduli (GPa) = 39.90132 158.41913 77.57298
#
# Poissons Ratio (x) = 0.50832 -0.09054
# Poissons Ratio (y) = 0.12803 0.02141
# Poissons Ratio (z) = -0.04657 0.04373
#
# Static dielectric constant tensor:
#      x y z
#    x 1.692470 0.000000 0.000000 
#    y 0.000000 1.842170 0.000000 
#    z 0.000000 0.000000 1.747020 
# 
# From -- ./inp_files/16893.got.cif
#   From: 2010.05.17/outbox.cif.g08.bks.cpg/sg71_9_cif.got.tgz:16893.got - 2010.06.03 16:22:01.
