data_PCOD9524335
_publ_section_title
;
Structure prediction by ZEFSAII (Michael W. Deem and Ramdas Pophale) SiO2 
 PCOD9524335
Probable space group: I M M M
;
_chemical_formula_sum "Si O2"
_cell_formula_units_Z 64
_cell_length_a 15.458729
_cell_length_b 7.950393
_cell_length_c 25.900626
_cell_angle_alpha 90.000000
_cell_angle_beta 90.000000
_cell_angle_gamma 90.000000
_cell_volume 3183.263882
_symmetry_space_group_name_H-M "I M M M"
_symmetry_group_IT_number 71
_symmetry_cell_setting 'orthorhombic'
loop_
_space_group_symop_operation_xyz
x,y,z
-x,-y,z
x,-y,-z
-x,y,-z
-x,-y,-z
x,y,-z
-x,y,z
x,-y,z
1/2+x,1/2+y,1/2+z
1/2-x,1/2-y,1/2+z
1/2+x,1/2-y,1/2-z
1/2-x,1/2+y,1/2-z
1/2-x,1/2-y,1/2-z
1/2+x,1/2+y,1/2-z
1/2-x,1/2+y,1/2+z
1/2+x,1/2-y,1/2+z
loop_
_atom_site_type_symbol
_atom_site_label
_atom_site_fract_x
_atom_site_fract_y
_atom_site_fract_z
Si Si1 0.146987 0.811628 0.628575
Si Si2 0.000000 0.702273 0.826277
Si Si3 0.396723 0.000000 0.056853
Si Si4 0.101215 0.204929 0.000000
Si Si5 0.830587 0.199315 0.111625
Si Si6 0.000000 0.702934 0.705904
O O1 0.128006 0.668112 0.586814
O O2 0.249419 0.792618 0.637174
O O3 0.084962 0.771824 0.676840
O O4 0.127451 0.000000 0.610493
O O5 0.916056 0.771473 0.855125
O O6 0.000000 0.747820 0.765956
O O7 0.000000 0.500000 0.830031
O O8 0.500000 0.000000 0.053650
O O9 0.357060 0.000000 0.000000
O O10 0.148553 0.257193 0.947105
O O11 0.000000 0.258985 0.000000
O O12 0.099800 0.000000 0.000000
O O13 0.811438 0.000000 0.109829
O O14 0.000000 0.500000 0.700547
#
# Coordination Sequence:
#
# PCOD9524335 Si02
#       6
#    16   8   8   8  16   8
#     4  12  24  42  69  98 133 173 225 271 326 394
#     4  11  25  42  64  95 130 170 225 278 331 395
#     4  11  24  44  68  97 137 177 219 270 332 392
#     4   9  18  36  64  91 124 174 213 253 323 389
#     4  11  22  40  65  95 134 174 218 271 329 397
#     4  11  23  47  70  88 128 176 216 280 342 387
#
# _framework density 20.105149000000001
#
# number of rings (size 3 to 8) (size 9 to 14) (size 15 to 20)
#    0.000    1.000    5.000    1.500    1.750    3.500 
#    0.000    3.750    0.000    0.000    0.000    0.000 
#    0.000    0.000    0.000    0.000    0.000    0.000 
#
# Total GULP energy -178903.027624 kJ/mol
# GULP energy per Si atom -5590.719613 kJ/mol
# Density = 2.005939 g / cm^3
# Si number density = 20.105149 Si / 1000 Ang^3
#
#
#
# Elastic Constant Matrix: (Units=GPa)
#
#
# Indices 1 2 3 4 5 6 
#
# 1 148.7594 21.9058 63.6598 0.0000 0.0000 0.0000
# 2 21.9058 113.8041 48.4228 0.0000 0.0000 0.0000
# 3 63.6598 48.4228 148.3658 0.0000 0.0000 0.0000
# 4 0.0000 0.0000 0.0000 5.2396 0.0000 0.0000
# 5 0.0000 0.0000 0.0000 0.0000 -12.0237 0.0000
# 6 0.0000 0.0000 0.0000 0.0000 0.0000 -9.8663
#
#
#
# Elastic Compliance Matrix: (Units=1/GPa)
#
#
# Indices 1 2 3 4 5 6 
#
# 1 0.008235 -0.000095 -0.003502 0.000000 0.000000 0.000000
# 2 -0.000095 0.010205 -0.003290 0.000000 0.000000 0.000000
# 3 -0.003502 -0.003290 0.009317 0.000000 0.000000 0.000000
# 4 0.000000 0.000000 0.000000 0.190854 0.000000 0.000000
# 5 0.000000 0.000000 0.000000 0.000000 -0.083169 0.000000
# 6 0.000000 0.000000 0.000000 0.000000 0.000000 -0.101355
#
#
# Mechanical properties :
#
#
# Convention : Reuss Voigt Hill
#
# Bulk Modulus (GPa) = 71.51934 75.43400 73.47667
# Shear Modulus (GPa) = 95.19737 15.13265 55.16501
#
# Velocity S-wave (km/s) = 6.88858 2.74647 5.24384
# Velocity P-wave (km/s) = 9.94585 6.90352 8.56092
#
# Compressibility (1/GPa) = 0.01398223
#
# Stress axis : x y z
#
# Youngs Moduli (GPa) = 121.43175 97.98960 107.33421
#
# Poissons Ratio (x) = 0.00930 0.37594
# Poissons Ratio (y) = 0.01152 0.35313
# Poissons Ratio (z) = 0.42531 0.32239
#
# Static dielectric constant tensor:
#      x y z
#    x 1.779800 0.000000 0.000000 
#    y 0.000000 1.707840 0.000000 
#    z 0.000000 0.000000 1.685970 
# 
# From -- ./inp_files/59510.got.cif
#   From: 2010.05.17/outbox.cif.g08.bks.cpg/sg71_30_cif.got.tgz:59510.got - 2010.06.03 16:22:01.
