data_PCOD9524353
_publ_section_title
;
Structure prediction by ZEFSAII (Michael W. Deem and Ramdas Pophale) SiO2 
 PCOD9524353
Probable space group: I M M M
;
_chemical_formula_sum "Si O2"
_cell_formula_units_Z 40
_cell_length_a 29.260827
_cell_length_b 8.995183
_cell_length_c 9.481384
_cell_angle_alpha 90.000000
_cell_angle_beta 90.000000
_cell_angle_gamma 90.000000
_cell_volume 2495.561837
_symmetry_space_group_name_H-M "I M M M"
_symmetry_group_IT_number 71
_symmetry_cell_setting 'orthorhombic'
loop_
_space_group_symop_operation_xyz
x,y,z
-x,-y,z
x,-y,-z
-x,y,-z
-x,-y,-z
x,y,-z
-x,y,z
x,-y,z
1/2+x,1/2+y,1/2+z
1/2-x,1/2-y,1/2+z
1/2+x,1/2-y,1/2-z
1/2-x,1/2+y,1/2-z
1/2-x,1/2-y,1/2-z
1/2+x,1/2+y,1/2-z
1/2-x,1/2+y,1/2+z
1/2+x,1/2-y,1/2+z
loop_
_atom_site_type_symbol
_atom_site_label
_atom_site_fract_x
_atom_site_fract_y
_atom_site_fract_z
Si Si1 0.370118 0.825918 0.341127
Si Si2 0.791822 0.177666 0.665758
Si Si3 0.553461 0.677759 0.500000
O O1 0.348565 0.815705 0.500000
O O2 0.338228 0.743013 0.231612
O O3 0.419167 0.748886 0.367877
O O4 0.374828 0.000000 0.308030
O O5 0.788575 0.212031 0.500000
O O6 0.750000 0.250000 0.750000
O O7 0.790711 0.000000 0.683113
O O8 0.559156 0.500000 0.500000
O O9 0.500000 0.713173 0.500000
#
# Coordination Sequence:
#
# PCOD9524353 Si02
#       3
#    16  16   8
#     4   9  19  33  52  78 106 136 175 216 261 313
#     4  11  23  36  52  75 105 141 181 220 264 316
#     4   9  17  31  55  83 109 139 175 217 266 315
#
# _framework density 16.028455000000001
#
# number of rings (size 3 to 8) (size 9 to 14) (size 15 to 20)
#    1.200    1.000    0.000    3.600    0.000    9.600 
#    0.000    0.000    0.000    1.200    0.000    8.400 
#    0.000    0.000    0.000    0.000    0.000    0.000 
#
# Total GULP energy -111377.474190 kJ/mol
# GULP energy per Si atom -5568.873710 kJ/mol
# Density = 1.599197 g / cm^3
# Si number density = 16.028455 Si / 1000 Ang^3
#
#
#
# Elastic Constant Matrix: (Units=GPa)
#
#
# Indices 1 2 3 4 5 6 
#
# 1 148.4476 76.9222 74.6380 0.0000 0.0000 0.0000
# 2 76.9222 106.2446 79.1651 0.0000 0.0000 0.0000
# 3 74.6380 79.1651 97.2073 0.0000 0.0000 0.0000
# 4 0.0000 0.0000 0.0000 25.3713 0.0000 0.0000
# 5 0.0000 0.0000 0.0000 0.0000 27.3558 0.0000
# 6 0.0000 0.0000 0.0000 0.0000 0.0000 30.1390
#
#
#
# Elastic Compliance Matrix: (Units=1/GPa)
#
#
# Indices 1 2 3 4 5 6 
#
# 1 0.011778 -0.004550 -0.005338 0.000000 0.000000 0.000000
# 2 -0.004550 0.025697 -0.017434 0.000000 0.000000 0.000000
# 3 -0.005338 -0.017434 0.028584 0.000000 0.000000 0.000000
# 4 0.000000 0.000000 0.000000 0.039415 0.000000 0.000000
# 5 0.000000 0.000000 0.000000 0.000000 0.036555 0.000000
# 6 0.000000 0.000000 0.000000 0.000000 0.000000 0.033180
#
#
# Mechanical properties :
#
#
# Convention : Reuss Voigt Hill
#
# Bulk Modulus (GPa) = 87.60187 90.37224 88.98705
# Shear Modulus (GPa) = 21.39902 24.65152 23.02527
#
# Velocity S-wave (km/s) = 3.65782 3.92597 3.79426
# Velocity P-wave (km/s) = 8.52127 8.77814 8.65066
#
# Compressibility (1/GPa) = 0.01141528
#
# Stress axis : x y z
#
# Youngs Moduli (GPa) = 84.90476 38.91564 34.98503
#
# Poissons Ratio (x) = 0.17706 0.18675
# Poissons Ratio (y) = 0.38631 0.60992
# Poissons Ratio (z) = 0.45321 0.67844
#
# Static dielectric constant tensor:
#      x y z
#    x 1.525600 0.000000 0.000000 
#    y 0.000000 1.529650 0.000000 
#    z 0.000000 0.000000 1.536400 
# 
# From -- ./inp_files/1874.got.cif
#   From: 2010.05.17/outbox.cif.g08.bks.cpg/sg71_1_cif.got.tgz:1874.got - 2010.06.03 16:22:01.
