data_PCOD9524164
_publ_section_title
;
Structure prediction by ZEFSAII (Michael W. Deem and Ramdas Pophale) SiO2 
 PCOD9524164
Probable space group: I M M M
;
_chemical_formula_sum "Si O2"
_cell_formula_units_Z 96
_cell_length_a 15.456948
_cell_length_b 21.199306
_cell_length_c 14.994553
_cell_angle_alpha 90.000000
_cell_angle_beta 90.000000
_cell_angle_gamma 90.000000
_cell_volume 4913.363703
_symmetry_space_group_name_H-M "I M M M"
_symmetry_group_IT_number 71
_symmetry_cell_setting 'orthorhombic'
loop_
_space_group_symop_operation_xyz
x,y,z
-x,-y,z
x,-y,-z
-x,y,-z
-x,-y,-z
x,y,-z
-x,y,z
x,-y,z
1/2+x,1/2+y,1/2+z
1/2-x,1/2-y,1/2+z
1/2+x,1/2-y,1/2-z
1/2-x,1/2+y,1/2-z
1/2-x,1/2-y,1/2-z
1/2+x,1/2+y,1/2-z
1/2-x,1/2+y,1/2+z
1/2+x,1/2-y,1/2+z
loop_
_atom_site_type_symbol
_atom_site_label
_atom_site_fract_x
_atom_site_fract_y
_atom_site_fract_z
Si Si1 0.898269 0.139524 0.652290
Si Si2 0.253646 0.742856 0.858345
Si Si3 0.097793 0.000000 0.394588
Si Si4 0.000000 0.428204 0.607297
Si Si5 0.315346 0.882620 0.104082
Si Si6 0.660051 0.570052 0.308613
Si Si7 0.097817 0.897862 0.000000
Si Si8 0.895399 0.745833 0.000000
O O1 0.830649 0.192514 0.623237
O O2 0.865608 0.070146 0.622114
O O3 0.888556 0.126588 0.758368
O O4 0.000000 0.149331 0.628610
O O5 0.250000 0.750000 0.750000
O O6 0.283630 0.810960 0.893547
O O7 0.164299 0.727195 0.912686
O O8 0.088577 0.000000 0.500000
O O9 0.000000 0.000000 0.355122
O O10 0.085655 0.390570 0.630065
O O11 0.000000 0.500000 0.641992
O O12 0.000000 0.433061 0.500000
O O13 0.261787 0.918258 0.181381
O O14 0.305854 0.905327 0.000000
O O15 0.639252 0.500000 0.274030
O O16 0.636218 0.574613 0.411095
O O17 0.104277 0.822184 0.000000
O O18 0.000000 0.916747 0.000000
O O19 0.000000 0.727592 0.000000
#
# Coordination Sequence:
#
# PCOD9524164 Si02
#       8
#    16  16   8   8  16  16   8   8
#     4  11  24  39  60  90 127 160 196 254 320 377
#     4  12  23  41  63  96 127 166 222 269 319 382
#     4   9  20  40  60  85 115 151 192 236 306 392
#     4   9  20  36  58  82 118 168 206 250 317 374
#     4  11  21  39  56  87 125 159 211 264 308 376
#     4  12  21  35  57  85 125 167 204 248 301 370
#     4  11  21  34  55  86 121 165 203 235 288 373
#     4  11  24  47  69  89 132 179 216 265 326 390
#
# _framework density 19.538549
#
# number of rings (size 3 to 8) (size 9 to 14) (size 15 to 20)
#    0.000    1.000    5.833    1.250    2.333    4.000 
#    0.000    0.000    0.000    0.000    0.000    1.167 
#    0.000    0.000    0.000    0.000    0.000    0.000 
#
# Total GULP energy -267217.838263 kJ/mol
# GULP energy per Si atom -5567.038297 kJ/mol
# Density = 1.949408 g / cm^3
# Si number density = 19.538549 Si / 1000 Ang^3
#
#
#
# Elastic Constant Matrix: (Units=GPa)
#
#
# Indices 1 2 3 4 5 6 
#
# 1 141.5793 22.8750 24.9033 0.0000 0.0000 0.0000
# 2 22.8750 56.3761 1.3381 -0.0001 0.0000 0.0000
# 3 24.9033 1.3381 53.6164 -0.0003 0.0000 0.0000
# 4 0.0000 -0.0001 -0.0003 12.7641 0.0000 0.0000
# 5 0.0000 0.0000 0.0000 0.0000 17.4945 0.0000
# 6 0.0000 0.0000 0.0000 0.0000 0.0000 24.3830
#
#
#
# Elastic Compliance Matrix: (Units=1/GPa)
#
#
# Indices 1 2 3 4 5 6 
#
# 1 0.008249 -0.003258 -0.003750 0.000000 0.000000 0.000000
# 2 -0.003258 0.019035 0.001038 0.000000 0.000000 0.000000
# 3 -0.003750 0.001038 0.020367 0.000001 0.000000 0.000000
# 4 0.000000 0.000000 0.000001 0.078345 0.000000 0.000000
# 5 0.000000 0.000000 0.000000 0.000000 0.057161 0.000000
# 6 0.000000 0.000000 0.000000 0.000000 0.000000 0.041012
#
#
# Mechanical properties :
#
#
# Convention : Reuss Voigt Hill
#
# Bulk Modulus (GPa) = 28.00232 38.86717 33.43475
# Shear Modulus (GPa) = 20.16021 24.42535 22.29278
#
# Velocity S-wave (km/s) = 3.21568 3.53953 3.38148
# Velocity P-wave (km/s) = 5.30569 6.05310 5.69168
#
# Compressibility (1/GPa) = 0.03571133
#
# Stress axis : x y z
#
# Youngs Moduli (GPa) = 121.22309 52.53375 49.09907
#
# Poissons Ratio (x) = 0.17116 0.18413
# Poissons Ratio (y) = 0.39497 -0.05098
# Poissons Ratio (z) = 0.45461 -0.05454
#
# Static dielectric constant tensor:
#      x y z
#    x 1.812430 0.000000 0.000000 
#    y 0.000000 1.712960 0.000000 
#    z 0.000000 0.000000 1.798900 
# 
# From -- ./inp_files/34817.got.cif
#   From: 2010.05.17/outbox.cif.g08.bks.cpg/sg71_18_cif.got.tgz:34817.got - 2010.06.03 16:22:01.
