data_PCOD9524743
_publ_section_title
;
Structure prediction by ZEFSAII (Michael W. Deem and Ramdas Pophale) SiO2 
 PCOD9524743
Probable space group: I M M M
;
_chemical_formula_sum "Si O2"
_cell_formula_units_Z 52
_cell_length_a 18.000000
_cell_length_b 18.000000
_cell_length_c 18.000000
_cell_angle_alpha 90.000000
_cell_angle_beta 90.000000
_cell_angle_gamma 90.000000
_cell_volume 5832.000000
_symmetry_space_group_name_H-M "I M M M"
_symmetry_group_IT_number 71
_symmetry_cell_setting 'orthorhombic'
loop_
_space_group_symop_operation_xyz
x,y,z
-x,-y,z
x,-y,-z
-x,y,-z
-x,-y,-z
x,y,-z
-x,y,z
x,-y,z
1/2+x,1/2+y,1/2+z
1/2-x,1/2-y,1/2+z
1/2+x,1/2-y,1/2-z
1/2-x,1/2+y,1/2-z
1/2-x,1/2-y,1/2-z
1/2+x,1/2+y,1/2-z
1/2-x,1/2+y,1/2+z
1/2+x,1/2-y,1/2+z
loop_
_atom_site_type_symbol
_atom_site_label
_atom_site_fract_x
_atom_site_fract_y
_atom_site_fract_z
Si Si1 0.643597 0.824887 0.411956
Si Si2 0.172528 0.846693 0.089394
Si Si3 0.085780 0.000000 0.090028
Si Si4 0.303331 0.199366 0.194093
Si Si5 0.708046 0.583721 0.911015
Si Si6 0.585182 0.088796 0.719404
Si Si7 0.089169 0.200617 0.410452
O O1 0.632861 0.834711 0.500000
O O2 0.636918 0.736027 0.396804
O O3 0.726171 0.857705 0.392528
O O4 0.590157 0.875826 0.363008
O O5 0.126360 0.921504 0.110009
O O6 0.247090 0.841865 0.137847
O O7 0.186344 0.849606 0.000000
O O8 0.000000 0.000000 0.116017
O O9 0.084445 0.000000 0.000000
O O10 0.250000 0.250000 0.250000
O O11 0.354100 0.138610 0.236862
O O12 0.362100 0.246146 0.143321
O O13 0.718083 0.500000 0.880073
O O14 0.628218 0.620712 0.895150
O O15 0.712375 0.577408 0.000000
O O16 0.500000 0.098146 0.747202
O O17 0.601388 0.000000 0.719473
O O18 0.100368 0.216249 0.500000
O O19 0.000000 0.202701 0.396937
#
# Coordination Sequence:
#
# PCOD9524743 Si02
#       7
#    16  16   8  16  16  16  16
#     4  10  19  36  62  88 112 149 201 244 286 350
#     4  10  20  37  63  91 116 150 195 241 290 349
#     4   9  20  38  60  92 125 147 176 233 303 353
#     4  12  22  39  60  87 110 154 199 250 292 347
#     4   9  16  28  50  82 116 147 186 238 288 338
#     4  11  25  41  56  82 122 161 196 241 299 354
#     4  10  20  35  57  82 112 152 198 251 301 351
#
# _framework density 8.9163239999999995
#
# number of rings (size 3 to 8) (size 9 to 14) (size 15 to 20)
#    0.000    1.769    3.077    1.385    1.077    2.154 
#    0.000    3.846    0.000    0.000    0.000    3.231 
#    0.000    0.000    0.000    0.000    0.000    0.000 
#
# Total GULP energy -289682.925770 kJ/mol
# GULP energy per Si atom -5570.825496 kJ/mol
# Density = 0.889603 g / cm^3
# Si number density = 8.916324 Si / 1000 Ang^3
#
#
#
# Elastic Constant Matrix: (Units=GPa)
#
#
# Indices 1 2 3 4 5 6 
#
# 1 128.9206 73.5202 37.8066 0.0000 0.0000 0.0000
# 2 73.5202 170.4238 43.3991 0.0000 0.0000 0.0000
# 3 37.8066 43.3991 57.7502 0.0000 0.0000 0.0000
# 4 0.0000 0.0000 0.0000 23.1293 0.0000 0.0000
# 5 0.0000 0.0000 0.0000 0.0000 31.7511 0.0000
# 6 0.0000 0.0000 0.0000 0.0000 0.0000 36.1976
#
#
#
# Elastic Compliance Matrix: (Units=1/GPa)
#
#
# Indices 1 2 3 4 5 6 
#
# 1 0.011185 -0.003661 -0.004571 0.000000 0.000000 0.000000
# 2 -0.003661 0.008455 -0.003957 0.000000 0.000000 0.000000
# 3 -0.004571 -0.003957 0.023282 0.000000 0.000000 0.000000
# 4 0.000000 0.000000 0.000000 0.043235 0.000000 0.000000
# 5 0.000000 0.000000 0.000000 0.000000 0.031495 0.000000
# 6 0.000000 0.000000 0.000000 0.000000 0.000000 0.027626
#
#
# Mechanical properties :
#
#
# Convention : Reuss Voigt Hill
#
# Bulk Modulus (GPa) = 53.92688 74.06071 63.99379
# Shear Modulus (GPa) = 28.43531 31.70684 30.07107
#
# Velocity S-wave (km/s) = 3.99753 4.22123 4.11090
# Velocity P-wave (km/s) = 7.18423 8.08576 7.64829
#
# Compressibility (1/GPa) = 0.01854363
#
# Stress axis : x y z
#
# Youngs Moduli (GPa) = 89.40503 118.27621 42.95156
#
# Poissons Ratio (x) = 0.43303 0.19633
# Poissons Ratio (y) = 0.32733 0.16996
# Poissons Ratio (z) = 0.40867 0.46801
#
# Static dielectric constant tensor:
#      x y z
#    x 1.624900 0.000000 0.000000 
#    y 0.000000 1.624300 0.000000 
#    z 0.000000 0.000000 1.630940 
# 
# From -- ./inp_files/46131.got.cif
#   From: 2010.05.17/outbox.ucp.g08.bks.cvg/sg71_24_cif.got.tgz:46131.got - 2010.06.11 16:29:00.
