data_PCOD9524994
_publ_section_title
;
Structure prediction by ZEFSAII (Michael W. Deem and Ramdas Pophale) SiO2 
 PCOD9524994
Probable space group: I B A M
;
_chemical_formula_sum "Si O2"
_cell_formula_units_Z 80
_cell_length_a 17.670895
_cell_length_b 14.503365
_cell_length_c 14.334893
_cell_angle_alpha 90.000000
_cell_angle_beta 90.000000
_cell_angle_gamma 90.000000
_cell_volume 3673.853031
_symmetry_space_group_name_H-M "I B A M"
_symmetry_group_IT_number 72
_symmetry_cell_setting 'orthorhombic'
loop_
_space_group_symop_operation_xyz
x,y,z
-x,-y,z
x,-y,1/2-z
-x,y,1/2-z
-x,-y,-z
x,y,-z
-x,y,1/2+z
x,-y,1/2+z
1/2+x,1/2+y,1/2+z
1/2-x,1/2-y,1/2+z
1/2+x,1/2-y,-z
1/2-x,1/2+y,-z
1/2-x,1/2-y,1/2-z
1/2+x,1/2+y,1/2-z
1/2-x,1/2+y,z
1/2+x,1/2-y,z
loop_
_atom_site_type_symbol
_atom_site_label
_atom_site_fract_x
_atom_site_fract_y
_atom_site_fract_z
Si Si1 0.235152 0.461013 0.394190
Si Si2 0.625102 0.398069 0.229849
Si Si3 0.625242 0.238003 0.888441
Si Si4 0.289072 0.327060 0.896311
Si Si5 0.418159 0.966464 0.113833
O O1 0.241437 0.422293 0.500000
O O2 0.295633 0.421878 0.322647
O O3 0.255713 0.569258 0.402574
O O4 0.149219 0.463786 0.358566
O O5 0.591817 0.500000 0.250000
O O6 0.586886 0.325904 0.159874
O O7 0.644992 0.339268 0.321718
O O8 0.716177 0.233241 0.868679
O O9 0.594573 0.138948 0.856594
O O10 0.617600 0.244198 0.000000
O O11 0.314735 0.299623 0.000000
O O12 0.500000 0.000000 0.141763
O O13 0.413742 0.965857 0.000000
#
# Coordination Sequence:
#
# PCOD9524994 Si02
#       5
#    16  16  16  16  16
#     4   8  14  24  38  59  87 119 157 201 251 302
#     4  10  17  24  38  60  91 126 158 199 253 312
#     4   9  16  26  41  61  85 119 163 206 252 303
#     4   8  15  26  38  54  80 119 163 202 239 287
#     4   8  14  26  44  64  89 127 173 214 249 294
#
# _framework density 21.775501999999999
#
# number of rings (size 3 to 8) (size 9 to 14) (size 15 to 20)
#    0.000    3.400    0.000    3.600    0.000    0.800 
#    0.000    0.000    0.000   15.000    0.000    0.000 
#    0.000    2.400    0.000   50.400    0.000  542.400 
#
# Total GULP energy -222976.214003 kJ/mol
# GULP energy per Si atom -5574.405350 kJ/mol
# Density = 2.172594 g / cm^3
# Si number density = 21.775502 Si / 1000 Ang^3
#
#
#
# Elastic Constant Matrix: (Units=GPa)
#
#
# Indices 1 2 3 4 5 6 
#
# 1 39.8108 -2.1549 2.1470 0.0000 0.0000 0.0000
# 2 -2.1549 96.6248 22.6825 0.0000 0.0000 0.0000
# 3 2.1470 22.6825 70.6005 0.0000 0.0000 0.0000
# 4 0.0000 0.0000 0.0000 32.6296 0.0000 0.0000
# 5 0.0000 0.0000 0.0000 0.0000 -23.3734 0.0000
# 6 0.0000 0.0000 0.0000 0.0000 0.0000 7.1666
#
#
#
# Elastic Compliance Matrix: (Units=1/GPa)
#
#
# Indices 1 2 3 4 5 6 
#
# 1 0.025218 0.000803 -0.001025 0.000000 0.000000 0.000000
# 2 0.000803 0.011219 -0.003629 0.000000 0.000000 0.000000
# 3 -0.001025 -0.003629 0.015361 0.000000 0.000000 0.000000
# 4 0.000000 0.000000 0.000000 0.030647 0.000000 0.000000
# 5 0.000000 0.000000 0.000000 0.000000 -0.042784 0.000000
# 6 0.000000 0.000000 0.000000 0.000000 0.000000 0.139535
#
#
# Mechanical properties :
#
#
# Convention : Reuss Voigt Hill
#
# Bulk Modulus (GPa) = 22.67761 28.04282 25.36022
# Shear Modulus (GPa) = 24.80194 15.57531 20.18863
#
# Velocity S-wave (km/s) = 3.37854 2.67735 3.04818
# Velocity P-wave (km/s) = 5.06521 4.73959 4.90510
#
# Compressibility (1/GPa) = 0.04409635
#
# Stress axis : x y z
#
# Youngs Moduli (GPa) = 39.65489 89.13376 65.09880
#
# Poissons Ratio (x) = -0.07157 0.06672
# Poissons Ratio (y) = -0.03184 0.23624
# Poissons Ratio (z) = 0.04064 0.32346
#
# Static dielectric constant tensor:
#      x y z
#    x 1.801950 0.000000 0.000000 
#    y 0.000000 1.830280 0.000000 
#    z 0.000000 0.000000 1.887020 
# 
# From -- ./inp_files/21559.got.cif
#   From: 2010.05.17/outbox.cif.g08.bks.cpg/sg72_11_cif.got.tgz:21559.got - 2010.06.03 17:03:01.
