data_PCOD9524767
_publ_section_title
;
Structure prediction by ZEFSAII (Michael W. Deem and Ramdas Pophale) SiO2 
 PCOD9524767
Probable space group: I M M M
;
_chemical_formula_sum "Si O2"
_cell_formula_units_Z 56
_cell_length_a 15.000000
_cell_length_b 15.000000
_cell_length_c 27.000000
_cell_angle_alpha 90.000000
_cell_angle_beta 90.000000
_cell_angle_gamma 90.000000
_cell_volume 6075.000000
_symmetry_space_group_name_H-M "I M M M"
_symmetry_group_IT_number 71
_symmetry_cell_setting 'orthorhombic'
loop_
_space_group_symop_operation_xyz
x,y,z
-x,-y,z
x,-y,-z
-x,y,-z
-x,-y,-z
x,y,-z
-x,y,z
x,-y,z
1/2+x,1/2+y,1/2+z
1/2-x,1/2-y,1/2+z
1/2+x,1/2-y,1/2-z
1/2-x,1/2+y,1/2-z
1/2-x,1/2-y,1/2-z
1/2+x,1/2+y,1/2-z
1/2-x,1/2+y,1/2+z
1/2+x,1/2-y,1/2+z
loop_
_atom_site_type_symbol
_atom_site_label
_atom_site_fract_x
_atom_site_fract_y
_atom_site_fract_z
Si Si1 0.104582 0.650644 0.896587
Si Si2 0.762786 0.000000 0.058875
Si Si3 0.710786 0.395092 0.944335
Si Si4 0.600108 0.656527 0.558255
Si Si5 0.709472 0.102221 0.297120
Si Si6 0.105163 0.850287 0.347053
Si Si7 0.602298 0.000000 0.133813
Si Si8 0.899156 0.663144 0.708399
O O1 0.183392 0.613035 0.931988
O O2 0.105468 0.755806 0.908477
O O3 0.145390 0.629129 0.842886
O O4 0.000000 0.621388 0.902273
O O5 0.824024 0.914205 0.070247
O O6 0.673482 0.000000 0.090232
O O7 0.745703 0.000000 0.000000
O O8 0.689280 0.500000 0.942515
O O9 0.648099 0.351342 0.902266
O O10 0.694880 0.360981 0.000000
O O11 0.609391 0.681957 0.500000
O O12 0.500000 0.618085 0.563454
O O13 0.813197 0.106053 0.314834
O O14 0.676490 0.159505 0.250398
O O15 0.689944 0.000000 0.284131
O O16 0.101842 0.753056 0.323049
O O17 0.000000 0.883268 0.346704
O O18 0.614939 0.084477 0.169348
O O19 0.500000 0.000000 0.115690
O O20 0.000000 0.652678 0.730138
#
# Coordination Sequence:
#
# PCOD9524767 Si02
#       8
#    16   8  16  16  16  16   8  16
#     4  10  20  33  54  85 118 148 184 236 286 334
#     4  10  21  35  58  83 109 152 195 240 288 333
#     4  10  22  38  57  83 116 154 192 231 280 341
#     4   9  18  34  55  80 112 151 191 230 282 345
#     4  11  22  37  61  87 114 150 188 229 278 342
#     4  10  22  39  60  86 115 149 190 237 282 327
#     4  10  22  38  59  86 116 151 190 232 286 343
#     4  10  21  40  62  84 113 148 186 230 282 341
#
# _framework density 9.2181069999999998
#
# number of rings (size 3 to 8) (size 9 to 14) (size 15 to 20)
#    0.000    2.000    0.714    3.214    4.000    5.000 
#    0.000    1.429    0.000    3.429    0.000    0.000 
#    0.000    0.000    0.000    0.000    0.000    0.000 
#
# Total GULP energy -312062.542660 kJ/mol
# GULP energy per Si atom -5572.545405 kJ/mol
# Density = 0.919713 g / cm^3
# Si number density = 9.218107 Si / 1000 Ang^3
#
#
#
# Elastic Constant Matrix: (Units=GPa)
#
#
# Indices 1 2 3 4 5 6 
#
# 1 146.6450 18.9334 64.4861 0.0000 0.0000 0.0000
# 2 18.9334 55.2048 29.2282 0.0000 0.0000 0.0000
# 3 64.4861 29.2282 92.3472 0.0000 0.0000 0.0000
# 4 0.0000 0.0000 0.0000 -17.8959 0.0000 0.0000
# 5 0.0000 0.0000 0.0000 0.0000 31.8588 0.0000
# 6 0.0000 0.0000 0.0000 0.0000 0.0000 25.3439
#
#
#
# Elastic Compliance Matrix: (Units=1/GPa)
#
#
# Indices 1 2 3 4 5 6 
#
# 1 0.009846 0.000316 -0.006975 0.000000 0.000000 0.000000
# 2 0.000316 0.021771 -0.007112 0.000000 0.000000 0.000000
# 3 -0.006975 -0.007112 0.017950 0.000000 0.000000 0.000000
# 4 0.000000 0.000000 0.000000 -0.055879 0.000000 0.000000
# 5 0.000000 0.000000 0.000000 0.000000 0.031389 0.000000
# 6 0.000000 0.000000 0.000000 0.000000 0.000000 0.039457
#
#
# Mechanical properties :
#
#
# Convention : Reuss Voigt Hill
#
# Bulk Modulus (GPa) = 45.40069 57.72139 51.56104
# Shear Modulus (GPa) = 50.29302 19.96465 35.12883
#
# Velocity S-wave (km/s) = 5.22864 3.29432 4.36985
# Velocity P-wave (km/s) = 7.81862 6.77102 7.31360
#
# Compressibility (1/GPa) = 0.02202610
#
# Stress axis : x y z
#
# Youngs Moduli (GPa) = 101.56689 45.93253 55.70888
#
# Poissons Ratio (x) = -0.01453 0.38859
# Poissons Ratio (y) = -0.03213 0.39618
# Poissons Ratio (z) = 0.70847 0.32665
#
# Static dielectric constant tensor:
#      x y z
#    x 1.645080 0.000000 0.000000 
#    y 0.000000 1.652160 0.000000 
#    z 0.000000 0.000000 1.626340 
# 
# From -- ./inp_files/35205.got.cif
#   From: 2010.05.17/outbox.ucp.g08.bks.cvg/sg71_18_cif.got.tgz:35205.got - 2010.06.11 16:29:00.
