data_PCOD9524297
_publ_section_title
;
Structure prediction by ZEFSAII (Michael W. Deem and Ramdas Pophale) SiO2 
 PCOD9524297
Probable space group: I M M M
;
_chemical_formula_sum "Si O2"
_cell_formula_units_Z 104
_cell_length_a 9.103441
_cell_length_b 27.559791
_cell_length_c 22.137571
_cell_angle_alpha 90.000000
_cell_angle_beta 90.000000
_cell_angle_gamma 90.000000
_cell_volume 5554.071531
_symmetry_space_group_name_H-M "I M M M"
_symmetry_group_IT_number 71
_symmetry_cell_setting 'orthorhombic'
loop_
_space_group_symop_operation_xyz
x,y,z
-x,-y,z
x,-y,-z
-x,y,-z
-x,-y,-z
x,y,-z
-x,y,z
x,-y,z
1/2+x,1/2+y,1/2+z
1/2-x,1/2-y,1/2+z
1/2+x,1/2-y,1/2-z
1/2-x,1/2+y,1/2-z
1/2-x,1/2-y,1/2-z
1/2+x,1/2+y,1/2-z
1/2-x,1/2+y,1/2+z
1/2+x,1/2-y,1/2+z
loop_
_atom_site_type_symbol
_atom_site_label
_atom_site_fract_x
_atom_site_fract_y
_atom_site_fract_z
Si Si1 0.821881 0.227679 0.569600
Si Si2 0.327472 0.057490 0.000000
Si Si3 0.670252 0.615403 0.071781
Si Si4 0.833234 0.055115 0.113351
Si Si5 0.177424 0.720239 0.694900
Si Si6 0.675350 0.943412 0.330934
Si Si7 0.330731 0.621152 0.270024
O O1 0.772454 0.239710 0.500000
O O2 0.782869 0.171377 0.583084
O O3 0.777757 0.259891 0.627852
O O4 0.000000 0.229319 0.567416
O O5 0.263793 0.078610 0.061258
O O6 0.500000 0.060168 0.000000
O O7 0.283757 0.000000 0.000000
O O8 0.500000 0.610210 0.092017
O O9 0.771574 0.576676 0.104701
O O10 0.672920 0.608938 0.000000
O O11 0.832721 0.083921 0.174657
O O12 0.000000 0.053309 0.090202
O O13 0.782673 0.000000 0.125122
O O14 0.250000 0.750000 0.750000
O O15 0.236590 0.666484 0.707348
O O16 0.000000 0.722827 0.698331
O O17 0.500000 0.939655 0.324276
O O18 0.756268 0.907402 0.284726
O O19 0.716474 0.000000 0.322104
O O20 0.500000 0.635311 0.255686
#
# Coordination Sequence:
#
# PCOD9524297 Si02
#       7
#    16   8  16  16  16  16  16
#     4   8  16  34  59  85 113 148 190 236 286 340
#     4   9  17  29  49  77 105 135 173 219 269 321
#     4   9  18  35  61  89 115 149 194 237 281 344
#     4   9  18  34  55  76 102 141 185 226 274 334
#     4  11  22  37  60  87 117 151 192 241 293 351
#     4  11  24  39  56  82 117 154 193 242 296 349
#     4  11  23  39  58  81 111 148 191 237 290 347
#
# _framework density 18.725002
#
# number of rings (size 3 to 8) (size 9 to 14) (size 15 to 20)
#    0.000    2.231    0.000    3.923    0.000    5.846 
#    1.385    3.846    0.000    3.231    0.000    0.000 
#    0.000    0.000    0.000    0.000    0.000    0.000 
#
# Total GULP energy -289925.039836 kJ/mol
# GULP energy per Si atom -5575.481535 kJ/mol
# Density = 1.868238 g / cm^3
# Si number density = 18.725002 Si / 1000 Ang^3
#
#
#
# Elastic Constant Matrix: (Units=GPa)
#
#
# Indices 1 2 3 4 5 6 
#
# 1 52.3807 24.4213 31.1598 0.0000 0.0000 0.0000
# 2 24.4213 69.3958 40.5898 0.0000 0.0000 0.0000
# 3 31.1598 40.5898 85.0460 0.0000 0.0000 0.0000
# 4 0.0000 0.0000 0.0000 28.3854 0.0000 0.0000
# 5 0.0000 0.0000 0.0000 0.0000 11.3132 0.0000
# 6 0.0000 0.0000 0.0000 0.0000 0.0000 27.0936
#
#
#
# Elastic Compliance Matrix: (Units=1/GPa)
#
#
# Indices 1 2 3 4 5 6 
#
# 1 0.025549 -0.004877 -0.007033 0.000000 0.000000 0.000000
# 2 -0.004877 0.020922 -0.008198 0.000000 0.000000 0.000000
# 3 -0.007033 -0.008198 0.018248 0.000000 0.000000 0.000000
# 4 0.000000 0.000000 0.000000 0.035229 0.000000 0.000000
# 5 0.000000 0.000000 0.000000 0.000000 0.088392 0.000000
# 6 0.000000 0.000000 0.000000 0.000000 0.000000 0.036909
#
#
# Mechanical properties :
#
#
# Convention : Reuss Voigt Hill
#
# Bulk Modulus (GPa) = 40.81435 44.35158 42.58296
# Shear Modulus (GPa) = 18.27266 20.73522 19.50394
#
# Velocity S-wave (km/s) = 3.12724 3.33130 3.23088
# Velocity P-wave (km/s) = 5.90623 6.20757 6.05877
#
# Compressibility (1/GPa) = 0.02450119
#
# Stress axis : x y z
#
# Youngs Moduli (GPa) = 39.14112 47.79733 54.80092
#
# Poissons Ratio (x) = 0.23312 0.38541
# Poissons Ratio (y) = 0.19090 0.44927
# Poissons Ratio (z) = 0.27527 0.39186
#
# Static dielectric constant tensor:
#      x y z
#    x 1.638450 0.000000 0.000000 
#    y 0.000000 1.632330 0.000000 
#    z 0.000000 0.000000 1.703320 
# 
# From -- ./inp_files/50927.got.cif
#   From: 2010.05.17/outbox.cif.g08.bks.cpg/sg71_26_cif.got.tgz:50927.got - 2010.06.03 16:22:01.
