data_PCOD9524376
_publ_section_title
;
Structure prediction by ZEFSAII (Michael W. Deem and Ramdas Pophale) SiO2 
 PCOD9524376
Probable space group: I M M M
;
_chemical_formula_sum "Si O2"
_cell_formula_units_Z 88
_cell_length_a 19.326201
_cell_length_b 29.122805
_cell_length_c 8.002515
_cell_angle_alpha 90.000000
_cell_angle_beta 90.000000
_cell_angle_gamma 90.000000
_cell_volume 4504.080990
_symmetry_space_group_name_H-M "I M M M"
_symmetry_group_IT_number 71
_symmetry_cell_setting 'orthorhombic'
loop_
_space_group_symop_operation_xyz
x,y,z
-x,-y,z
x,-y,-z
-x,y,-z
-x,-y,-z
x,y,-z
-x,y,z
x,-y,z
1/2+x,1/2+y,1/2+z
1/2-x,1/2-y,1/2+z
1/2+x,1/2-y,1/2-z
1/2-x,1/2+y,1/2-z
1/2-x,1/2-y,1/2-z
1/2+x,1/2+y,1/2-z
1/2-x,1/2+y,1/2+z
1/2+x,1/2-y,1/2+z
loop_
_atom_site_type_symbol
_atom_site_label
_atom_site_fract_x
_atom_site_fract_y
_atom_site_fract_z
Si Si1 0.080371 0.445053 0.500000
Si Si2 0.822426 0.226671 0.799932
Si Si3 0.580278 0.193919 0.196789
Si Si4 0.802216 0.877779 0.197170
Si Si5 0.151159 0.603019 0.185443
Si Si6 0.420714 0.552928 0.797879
O O1 0.083144 0.500000 0.500000
O O2 0.117068 0.425813 0.665609
O O3 0.000000 0.430149 0.500000
O O4 0.750000 0.250000 0.750000
O O5 0.883590 0.257295 0.725447
O O6 0.821437 0.173653 0.745533
O O7 0.828672 0.227718 0.000000
O O8 0.500000 0.194271 0.246291
O O9 0.622142 0.154733 0.293569
O O10 0.584630 0.182599 0.000000
O O11 0.733521 0.894882 0.289432
O O12 0.865473 0.912178 0.224586
O O13 0.785085 0.875064 0.000000
O O14 0.134078 0.585825 0.000000
O O15 0.500000 0.563498 0.748740
O O16 0.406213 0.500000 0.749867
O O17 0.417394 0.555230 0.000000
#
# Coordination Sequence:
#
# PCOD9524376 Si02
#       6
#     8  16  16  16  16  16
#     4  11  26  48  70  96 133 169 213 277 333 391
#     4  11  23  38  59  87 123 166 211 261 318 377
#     4  11  23  40  63  92 128 168 213 265 321 384
#     4  11  23  40  63  93 131 171 214 272 329 382
#     4  12  24  42  69  97 129 173 218 267 328 391
#     4   9  20  40  64  91 125 166 215 268 320 383
#
# _framework density 19.537835999999999
#
# number of rings (size 3 to 8) (size 9 to 14) (size 15 to 20)
#    0.000    1.182    3.636    2.727    0.000    7.273 
#    0.000    5.455    0.000    0.000    0.000    0.000 
#    0.000    0.000    0.000    0.000    0.000    0.000 
#
# Total GULP energy -246070.700597 kJ/mol
# GULP energy per Si atom -5592.515923 kJ/mol
# Density = 1.949337 g / cm^3
# Si number density = 19.537836 Si / 1000 Ang^3
#
#
#
# Elastic Constant Matrix: (Units=GPa)
#
#
# Indices 1 2 3 4 5 6 
#
# 1 123.2048 61.2662 27.8597 0.0000 0.0000 0.0000
# 2 61.2662 100.2123 30.8051 0.0000 0.0000 0.0000
# 3 27.8597 30.8051 91.0474 0.0000 -0.0001 0.0000
# 4 0.0000 0.0000 0.0000 25.1576 0.0000 0.0000
# 5 0.0000 0.0000 -0.0001 0.0000 22.7273 0.0000
# 6 0.0000 0.0000 0.0000 0.0000 0.0000 41.1982
#
#
#
# Elastic Compliance Matrix: (Units=1/GPa)
#
#
# Indices 1 2 3 4 5 6 
#
# 1 0.011799 -0.006812 -0.001306 0.000000 0.000000 0.000000
# 2 -0.006812 0.015070 -0.003014 0.000000 0.000000 0.000000
# 3 -0.001306 -0.003014 0.012403 0.000000 0.000000 0.000000
# 4 0.000000 0.000000 0.000000 0.039749 0.000000 0.000000
# 5 0.000000 0.000000 0.000000 0.000000 0.044000 0.000000
# 6 0.000000 0.000000 0.000000 0.000000 0.000000 0.024273
#
#
# Mechanical properties :
#
#
# Convention : Reuss Voigt Hill
#
# Bulk Modulus (GPa) = 58.79711 61.59183 60.19447
# Shear Modulus (GPa) = 28.53418 30.78554 29.65986
#
# Velocity S-wave (km/s) = 3.82574 3.97380 3.90047
# Velocity P-wave (km/s) = 7.04800 7.25587 7.15269
#
# Compressibility (1/GPa) = 0.01700764
#
# Stress axis : x y z
#
# Youngs Moduli (GPa) = 84.75009 66.35577 80.62777
#
# Poissons Ratio (x) = 0.45204 0.10527
# Poissons Ratio (y) = 0.57735 0.24304
# Poissons Ratio (z) = 0.11065 0.20002
#
# Static dielectric constant tensor:
#      x y z
#    x 1.651850 0.000000 0.000000 
#    y 0.000000 1.710140 0.000000 
#    z 0.000000 0.000000 1.703620 
# 
# From -- ./inp_files/8853.got.cif
#   From: 2010.05.17/outbox.cif.g08.bks.cpg/sg71_5_cif.got.tgz:8853.got - 2010.06.03 16:22:01.
