data_PCOD9524548
_publ_section_title
;
Structure prediction by ZEFSAII (Michael W. Deem and Ramdas Pophale) SiO2 
 PCOD9524548
Probable space group: I M M M
;
_chemical_formula_sum "Si O2"
_cell_formula_units_Z 96
_cell_length_a 24.436042
_cell_length_b 22.295937
_cell_length_c 7.247097
_cell_angle_alpha 90.000000
_cell_angle_beta 90.000000
_cell_angle_gamma 90.000000
_cell_volume 3948.395659
_symmetry_space_group_name_H-M "I M M M"
_symmetry_group_IT_number 71
_symmetry_cell_setting 'orthorhombic'
loop_
_space_group_symop_operation_xyz
x,y,z
-x,-y,z
x,-y,-z
-x,y,-z
-x,-y,-z
x,y,-z
-x,y,z
x,-y,z
1/2+x,1/2+y,1/2+z
1/2-x,1/2-y,1/2+z
1/2+x,1/2-y,1/2-z
1/2-x,1/2+y,1/2-z
1/2-x,1/2-y,1/2-z
1/2+x,1/2+y,1/2-z
1/2-x,1/2+y,1/2+z
1/2+x,1/2-y,1/2+z
loop_
_atom_site_type_symbol
_atom_site_label
_atom_site_fract_x
_atom_site_fract_y
_atom_site_fract_z
Si Si1 0.500000 0.254312 0.207954
Si Si2 0.666146 0.148573 0.775152
Si Si3 0.237423 0.065547 0.775603
Si Si4 0.438468 0.929966 0.775882
Si Si5 0.381496 0.407497 0.289706
Si Si6 0.617576 0.267371 0.223840
Si Si7 0.000000 0.103809 0.774107
O O1 0.558988 0.240795 0.287915
O O2 0.500000 0.327244 0.207577
O O3 0.500000 0.229617 0.000000
O O4 0.721328 0.116512 0.712922
O O5 0.612516 0.110795 0.716907
O O6 0.661550 0.218058 0.721607
O O7 0.665691 0.147377 0.000000
O O8 0.175259 0.070548 0.707240
O O9 0.260013 0.000000 0.730350
O O10 0.234845 0.069628 0.000000
O O11 0.500000 0.910631 0.718792
O O12 0.431289 0.000000 0.723373
O O13 0.438297 0.928567 0.000000
O O14 0.382766 0.429220 0.500000
O O15 0.376654 0.334960 0.291021
O O16 0.441699 0.422521 0.213414
O O17 0.615362 0.271261 0.000000
O O18 0.000000 0.105152 0.000000
#
# Coordination Sequence:
#
# PCOD9524548 Si02
#       7
#     8  16  16  16  16  16   8
#     4   8  14  24  38  59  88 117 142 166 201 250
#     4   9  16  24  37  58  86 117 146 176 212 256
#     4   9  17  29  44  61  82 111 147 183 219 261
#     4   8  13  20  31  50  79 115 149 179 212 248
#     4   9  17  30  47  65  87 115 145 178 218 262
#     4   9  17  27  42  66  92 118 144 175 214 257
#     4   8  14  26  43  62  84 109 137 173 215 254
#
# _framework density 24.313673999999999
#
# number of rings (size 3 to 8) (size 9 to 14) (size 15 to 20)
#    0.000    3.333    0.000    1.000    1.167    2.667 
#    0.000    0.417    0.000    3.000    0.000    0.000 
#    0.000    8.667    0.000    1.833    0.000    1.667 
#
# Total GULP energy -267957.808178 kJ/mol
# GULP energy per Si atom -5582.454337 kJ/mol
# Density = 2.425833 g / cm^3
# Si number density = 24.313674 Si / 1000 Ang^3
#
#
#
# Elastic Constant Matrix: (Units=GPa)
#
#
# Indices 1 2 3 4 5 6 
#
# 1 119.3099 48.3678 3.3033 0.0000 0.0000 0.0000
# 2 48.3678 96.4388 -0.1758 0.0000 0.0000 0.0000
# 3 3.3033 -0.1758 117.6306 0.0000 0.0000 0.0000
# 4 0.0000 0.0000 0.0000 -11.2532 0.0000 0.0000
# 5 0.0000 0.0000 0.0000 0.0000 -32.1093 0.0000
# 6 0.0000 0.0000 0.0000 0.0000 0.0000 34.5880
#
#
#
# Elastic Compliance Matrix: (Units=1/GPa)
#
#
# Indices 1 2 3 4 5 6 
#
# 1 0.010531 -0.005282 -0.000304 0.000000 0.000000 0.000000
# 2 -0.005282 0.013019 0.000168 0.000000 0.000000 0.000000
# 3 -0.000304 0.000168 0.008510 0.000000 0.000000 0.000000
# 4 0.000000 0.000000 0.000000 -0.088864 0.000000 0.000000
# 5 0.000000 0.000000 0.000000 0.000000 -0.031144 0.000000
# 6 0.000000 0.000000 0.000000 0.000000 0.000000 0.028912
#
#
# Mechanical properties :
#
#
# Convention : Reuss Voigt Hill
#
# Bulk Modulus (GPa) = 47.11712 48.48556 47.80134
# Shear Modulus (GPa) = -121.58406 17.03736 -52.27335
#
# Velocity S-wave (km/s) = -7.07920 2.65001 -4.64179
# Velocity P-wave (km/s) = 6.88470 5.41741 3.00423
#
# Compressibility (1/GPa) = 0.02122371
#
# Stress axis : x y z
#
# Youngs Moduli (GPa) = 94.95379 76.81115 117.50926
#
# Poissons Ratio (x) = 0.40575 0.03568
# Poissons Ratio (y) = 0.50159 -0.01972
# Poissons Ratio (z) = 0.02883 -0.01289
#
# Static dielectric constant tensor:
#      x y z
#    x 1.927750 0.000000 0.000000 
#    y 0.000000 1.883210 0.000000 
#    z 0.000000 0.000000 1.942120 
# 
# From -- ./inp_files/12931.got.cif
#   From: 2010.05.17/outbox.cif.g08.bks.cpg/sg71_7_cif.got.tgz:12931.got - 2010.06.03 16:22:01.
