data_PCOD9524249
_publ_section_title
;
Structure prediction by ZEFSAII (Michael W. Deem and Ramdas Pophale) SiO2 
 PCOD9524249
Probable space group: I M M M
;
_chemical_formula_sum "Si O2"
_cell_formula_units_Z 112
_cell_length_a 13.867586
_cell_length_b 27.270446
_cell_length_c 15.533328
_cell_angle_alpha 90.000000
_cell_angle_beta 90.000000
_cell_angle_gamma 90.000000
_cell_volume 5874.320280
_symmetry_space_group_name_H-M "I M M M"
_symmetry_group_IT_number 71
_symmetry_cell_setting 'orthorhombic'
loop_
_space_group_symop_operation_xyz
x,y,z
-x,-y,z
x,-y,-z
-x,y,-z
-x,-y,-z
x,y,-z
-x,y,z
x,-y,z
1/2+x,1/2+y,1/2+z
1/2-x,1/2-y,1/2+z
1/2+x,1/2-y,1/2-z
1/2-x,1/2+y,1/2-z
1/2-x,1/2-y,1/2-z
1/2+x,1/2+y,1/2-z
1/2-x,1/2+y,1/2+z
1/2+x,1/2-y,1/2+z
loop_
_atom_site_type_symbol
_atom_site_label
_atom_site_fract_x
_atom_site_fract_y
_atom_site_fract_z
Si Si1 0.610900 0.299081 0.730939
Si Si2 0.605544 0.192534 0.657384
Si Si3 0.387671 0.555228 0.361901
Si Si4 0.892215 0.399526 0.714118
Si Si5 0.217990 0.055203 0.312892
Si Si6 0.304221 0.341925 0.095959
Si Si7 0.758509 0.144002 0.905404
O O1 0.500000 0.313840 0.710340
O O2 0.617726 0.240975 0.715471
O O3 0.636378 0.316534 0.826968
O O4 0.688407 0.322761 0.665854
O O5 0.500000 0.196698 0.614114
O O6 0.602936 0.145458 0.718983
O O7 0.698723 0.183501 0.599472
O O8 0.500000 0.561620 0.378481
O O9 0.359499 0.500000 0.386468
O O10 0.365002 0.559986 0.259757
O O11 0.325744 0.596105 0.407551
O O12 0.816506 0.436760 0.757858
O O13 0.842852 0.375908 0.630204
O O14 0.000000 0.418679 0.700233
O O15 0.208001 0.100599 0.378012
O O16 0.215774 0.000000 0.349034
O O17 0.344717 0.337366 0.000000
O O18 0.752371 0.166733 0.000000
#
# Coordination Sequence:
#
# PCOD9524249 Si02
#       7
#    16  16  16  16  16  16  16
#     4  11  22  39  58  81 116 151 188 233 280 333
#     4   9  19  38  62  80 106 148 189 231 280 329
#     4   9  17  32  54  75 101 141 185 229 277 326
#     4   9  18  36  58  80 108 144 185 231 284 338
#     4   9  18  34  55  82 112 148 191 232 278 335
#     4  11  22  36  58  87 118 153 190 233 284 337
#     4  11  22  34  53  82 111 142 183 229 281 338
#
# _framework density 19.066034999999999
#
# number of rings (size 3 to 8) (size 9 to 14) (size 15 to 20)
#    0.000    2.143    4.286    0.857    0.000    3.429 
#    0.000    2.143    0.000    2.571    0.000   11.000 
#    0.000    0.000    0.000    0.000    0.000    0.000 
#
# Total GULP energy -312198.678549 kJ/mol
# GULP energy per Si atom -5574.976403 kJ/mol
# Density = 1.902264 g / cm^3
# Si number density = 19.066035 Si / 1000 Ang^3
#
#
#
# Elastic Constant Matrix: (Units=GPa)
#
#
# Indices 1 2 3 4 5 6 
#
# 1 35.5689 -12.3943 -8.4558 0.0000 0.0000 0.0000
# 2 -12.3943 60.3015 1.8689 0.0001 0.0000 0.0000
# 3 -8.4558 1.8689 86.2067 0.0001 0.0000 0.0000
# 4 0.0000 0.0001 0.0001 4.3407 0.0000 0.0000
# 5 0.0000 0.0000 0.0000 0.0000 0.1043 0.0000
# 6 0.0000 0.0000 0.0000 0.0000 0.0000 21.2305
#
#
#
# Elastic Compliance Matrix: (Units=1/GPa)
#
#
# Indices 1 2 3 4 5 6 
#
# 1 0.030993 0.006280 0.002904 0.000000 -0.000003 0.000000
# 2 0.006280 0.017867 0.000229 -0.000001 -0.000004 0.000000
# 3 0.002904 0.000229 0.011880 0.000000 -0.000001 0.000000
# 4 0.000000 -0.000001 0.000000 0.230375 -0.000041 0.000000
# 5 -0.000003 -0.000004 -0.000001 -0.000041 9.584301 0.000000
# 6 0.000000 0.000000 0.000000 0.000000 0.000000 0.047102
#
#
# Mechanical properties :
#
#
# Convention : Reuss Voigt Hill
#
# Bulk Modulus (GPa) = 12.56816 16.01272 14.29044
# Shear Modulus (GPa) = 0.50351 18.53900 9.52126
#
# Velocity S-wave (km/s) = 0.51445 3.12165 2.23711
# Velocity P-wave (km/s) = 2.63801 4.62706 3.76622
#
# Compressibility (1/GPa) = 0.07956617
#
# Stress axis : x y z
#
# Youngs Moduli (GPa) = 32.26507 55.96874 84.17578
#
# Poissons Ratio (x) = -0.35150 -0.24444
# Poissons Ratio (y) = -0.20264 -0.01925
# Poissons Ratio (z) = -0.09369 -0.01280
#
# Static dielectric constant tensor:
#      x y z
#    x 1.694300 0.000000 0.000000 
#    y 0.000000 1.671090 0.000000 
#    z 0.000000 0.000000 1.679210 
# 
# From -- ./inp_files/35160.got.cif
#   From: 2010.05.17/outbox.cif.g08.bks.cpg/sg71_18_cif.got.tgz:35160.got - 2010.06.03 16:22:01.
