data_PCOD9524330
_publ_section_title
;
Structure prediction by ZEFSAII (Michael W. Deem and Ramdas Pophale) SiO2 
 PCOD9524330
Probable space group: I M M M
;
_chemical_formula_sum "Si O2"
_cell_formula_units_Z 56
_cell_length_a 10.447454
_cell_length_b 34.593471
_cell_length_c 8.630134
_cell_angle_alpha 90.000000
_cell_angle_beta 90.000000
_cell_angle_gamma 90.000000
_cell_volume 3119.048634
_symmetry_space_group_name_H-M "I M M M"
_symmetry_group_IT_number 71
_symmetry_cell_setting 'orthorhombic'
loop_
_space_group_symop_operation_xyz
x,y,z
-x,-y,z
x,-y,-z
-x,y,-z
-x,-y,-z
x,y,-z
-x,y,z
x,-y,z
1/2+x,1/2+y,1/2+z
1/2-x,1/2-y,1/2+z
1/2+x,1/2-y,1/2-z
1/2-x,1/2+y,1/2-z
1/2-x,1/2-y,1/2-z
1/2+x,1/2+y,1/2-z
1/2-x,1/2+y,1/2+z
1/2+x,1/2-y,1/2+z
loop_
_atom_site_type_symbol
_atom_site_label
_atom_site_fract_x
_atom_site_fract_y
_atom_site_fract_z
Si Si1 0.150902 0.000000 0.684311
Si Si2 0.851015 0.919204 0.186277
Si Si3 0.252415 0.664091 0.313138
Si Si4 0.500000 0.204637 0.315176
Si Si5 0.000000 0.208713 0.685544
O O1 0.202225 0.959550 0.749150
O O2 0.159213 0.000000 0.500000
O O3 0.000000 0.000000 0.730212
O O4 0.775067 0.880725 0.230878
O O5 0.000000 0.914712 0.237539
O O6 0.852097 0.921421 0.000000
O O7 0.245966 0.666539 0.500000
O O8 0.374986 0.687934 0.254543
O O9 0.125499 0.681759 0.239696
O O10 0.500000 0.209184 0.500000
O O11 0.500000 0.246734 0.236694
O O12 0.000000 0.205783 0.500000
#
# Coordination Sequence:
#
# PCOD9524330 Si02
#       5
#     8  16  16   8   8
#     4   9  17  27  45  78 115 146 179 226 276 326
#     4   9  17  32  54  80 110 146 185 227 277 334
#     4  11  22  40  62  86 115 151 193 238 285 340
#     4  12  26  42  58  83 116 153 192 236 289 344
#     4  12  24  40  62  87 114 149 190 240 289 338
#
# _framework density 17.954194000000001
#
# number of rings (size 3 to 8) (size 9 to 14) (size 15 to 20)
#    0.000    1.571    1.429    4.714    0.000    4.000 
#    0.000    0.000    0.000    0.857    0.000    6.000 
#    0.000    0.000    0.000    0.000    0.000    0.000 
#
# Total GULP energy -156396.550401 kJ/mol
# GULP energy per Si atom -5585.591086 kJ/mol
# Density = 1.791333 g / cm^3
# Si number density = 17.954194 Si / 1000 Ang^3
#
#
#
# Elastic Constant Matrix: (Units=GPa)
#
#
# Indices 1 2 3 4 5 6 
#
# 1 94.6740 43.1328 9.2921 0.0000 -0.0003 0.0001
# 2 43.1328 157.6809 12.5960 0.0000 0.0000 0.0000
# 3 9.2921 12.5960 37.5474 -0.0002 -0.0012 -0.0001
# 4 0.0000 0.0000 -0.0002 31.8243 0.0003 0.0000
# 5 -0.0003 0.0000 -0.0012 0.0003 29.9762 0.0002
# 6 0.0001 0.0000 -0.0001 0.0000 0.0002 -3.6110
#
#
#
# Elastic Compliance Matrix: (Units=1/GPa)
#
#
# Indices 1 2 3 4 5 6 
#
# 1 0.012204 -0.003182 -0.001953 0.000000 0.000000 0.000000
# 2 -0.003182 0.007346 -0.001677 0.000000 0.000000 0.000000
# 3 -0.001953 -0.001677 0.027679 0.000000 0.000001 -0.000001
# 4 0.000000 0.000000 0.000000 0.031423 0.000000 0.000000
# 5 0.000000 0.000000 0.000001 0.000000 0.033360 0.000002
# 6 0.000000 0.000000 -0.000001 0.000000 0.000002 -0.276934
#
#
# Mechanical properties :
#
#
# Convention : Reuss Voigt Hill
#
# Bulk Modulus (GPa) = 29.75715 46.66047 38.20881
# Shear Modulus (GPa) = -35.68959 26.62999 -4.52980
#
# Velocity S-wave (km/s) = -4.46333 3.85544 -1.59011
# Velocity P-wave (km/s) = 3.15465 6.77231 4.23748
#
# Compressibility (1/GPa) = 0.03360537
#
# Stress axis : x y z
#
# Youngs Moduli (GPa) = 81.93984 136.12101 36.12878
#
# Poissons Ratio (x) = 0.43319 0.07055
# Poissons Ratio (y) = 0.26076 0.06059
# Poissons Ratio (z) = 0.16000 0.22827
#
# Static dielectric constant tensor:
#      x y z
#    x 1.583260 0.000000 0.000000 
#    y 0.000000 1.622480 0.000000 
#    z 0.000000 0.000000 1.599730 
# 
# From -- ./inp_files/3604.got.cif
#   From: 2010.05.17/outbox.cif.g08.bks.cpg/sg71_2_cif.got.tgz:3604.got - 2010.06.03 16:22:01.
