data_PCOD9524324
_publ_section_title
;
Structure prediction by ZEFSAII (Michael W. Deem and Ramdas Pophale) SiO2 
 PCOD9524324
Probable space group: I M M M
;
_chemical_formula_sum "Si O2"
_cell_formula_units_Z 52
_cell_length_a 14.810508
_cell_length_b 23.587457
_cell_length_c 7.645146
_cell_angle_alpha 90.000000
_cell_angle_beta 90.000000
_cell_angle_gamma 90.000000
_cell_volume 2670.772280
_symmetry_space_group_name_H-M "I M M M"
_symmetry_group_IT_number 71
_symmetry_cell_setting 'orthorhombic'
loop_
_space_group_symop_operation_xyz
x,y,z
-x,-y,z
x,-y,-z
-x,y,-z
-x,-y,-z
x,y,-z
-x,y,z
x,-y,z
1/2+x,1/2+y,1/2+z
1/2-x,1/2-y,1/2+z
1/2+x,1/2-y,1/2-z
1/2-x,1/2+y,1/2-z
1/2-x,1/2-y,1/2-z
1/2+x,1/2+y,1/2-z
1/2-x,1/2+y,1/2+z
1/2+x,1/2-y,1/2+z
loop_
_atom_site_type_symbol
_atom_site_label
_atom_site_fract_x
_atom_site_fract_y
_atom_site_fract_z
Si Si1 0.107224 0.872942 0.000000
Si Si2 0.900949 0.378239 0.290469
Si Si3 0.817502 0.000000 0.000000
Si Si4 0.222635 0.186410 0.302942
Si Si5 0.834018 0.500000 0.203173
O O1 0.154943 0.843268 0.833089
O O2 0.128798 0.940536 0.000000
O O3 0.000000 0.864226 0.000000
O O4 0.892714 0.371438 0.500000
O O5 0.816615 0.347598 0.204816
O O6 0.890824 0.444171 0.245689
O O7 0.000000 0.357403 0.236462
O O8 0.752284 0.000000 0.830666
O O9 0.186104 0.185929 0.500000
O O10 0.250000 0.250000 0.250000
O O11 0.807731 0.500000 0.000000
#
# Coordination Sequence:
#
# PCOD9524324 Si02
#       5
#     8  16   4  16   8
#     4  12  27  48  72 104 138 185 237 292 346 402
#     4  11  22  39  64  97 134 172 217 272 340 412
#     4  12  23  46  69  96 136 184 239 292 343 404
#     4  12  24  45  72  98 138 180 226 282 344 414
#     4  12  21  36  64  94 131 176 217 274 342 401
#
# _framework density 19.470022
#
# number of rings (size 3 to 8) (size 9 to 14) (size 15 to 20)
#    0.000    0.308    7.692    1.615    0.000    6.154 
#    0.000    0.000    0.000    2.769    0.000    0.000 
#    0.000    0.000    0.000    0.000    0.000    0.000 
#
# Total GULP energy -145404.785415 kJ/mol
# GULP energy per Si atom -5592.491747 kJ/mol
# Density = 1.942571 g / cm^3
# Si number density = 19.470022 Si / 1000 Ang^3
#
#
#
# Elastic Constant Matrix: (Units=GPa)
#
#
# Indices 1 2 3 4 5 6 
#
# 1 147.4528 46.7576 55.3196 0.0000 -0.0001 0.0000
# 2 46.7576 120.1025 27.7340 0.0001 -0.0001 -0.0001
# 3 55.3196 27.7340 162.4534 0.0004 -0.0001 -0.0001
# 4 0.0000 0.0001 0.0004 25.7597 0.0000 -0.0001
# 5 -0.0001 -0.0001 -0.0001 0.0000 7.8310 0.0001
# 6 0.0000 -0.0001 -0.0001 -0.0001 0.0001 -1.5295
#
#
#
# Elastic Compliance Matrix: (Units=1/GPa)
#
#
# Indices 1 2 3 4 5 6 
#
# 1 0.008580 -0.002775 -0.002448 0.000000 0.000000 0.000000
# 2 -0.002775 0.009565 -0.000688 0.000000 0.000000 0.000000
# 3 -0.002448 -0.000688 0.007107 0.000000 0.000000 0.000000
# 4 0.000000 0.000000 0.000000 0.038820 0.000000 -0.000001
# 5 0.000000 0.000000 0.000000 0.000000 0.127698 0.000006
# 6 0.000000 0.000000 0.000000 -0.000001 0.000006 -0.653801
#
#
# Mechanical properties :
#
#
# Convention : Reuss Voigt Hill
#
# Bulk Modulus (GPa) = 74.45962 76.62567 75.54264
# Shear Modulus (GPa) = -11.21752 26.42540 7.60394
#
# Velocity S-wave (km/s) = -2.40290 3.68806 1.97837
# Velocity P-wave (km/s) = 5.53423 7.58795 6.64095
#
# Compressibility (1/GPa) = 0.01343010
#
# Stress axis : x y z
#
# Youngs Moduli (GPa) = 116.54673 104.54248 140.71256
#
# Poissons Ratio (x) = 0.29012 0.34447
# Poissons Ratio (y) = 0.32343 0.09681
# Poissons Ratio (z) = 0.28531 0.07193
#
# Static dielectric constant tensor:
#      x y z
#    x 1.661400 0.000000 0.000000 
#    y 0.000000 1.697380 0.000000 
#    z 0.000000 0.000000 1.699440 
# 
# From -- ./inp_files/5259.got.cif
#   From: 2010.05.17/outbox.cif.g08.bks.cpg/sg71_3_cif.got.tgz:5259.got - 2010.06.03 16:22:01.
