data_PCOD9524907
_publ_section_title
;
Structure prediction by ZEFSAII (Michael W. Deem and Ramdas Pophale) SiO2 
 PCOD9524907
Probable space group: I M M M
;
_chemical_formula_sum "Si O2"
_cell_formula_units_Z 44
_cell_length_a 9.000000
_cell_length_b 21.000000
_cell_length_c 24.000000
_cell_angle_alpha 90.000000
_cell_angle_beta 90.000000
_cell_angle_gamma 90.000000
_cell_volume 4536.000000
_symmetry_space_group_name_H-M "I M M M"
_symmetry_group_IT_number 71
_symmetry_cell_setting 'orthorhombic'
loop_
_space_group_symop_operation_xyz
x,y,z
-x,-y,z
x,-y,-z
-x,y,-z
-x,-y,-z
x,y,-z
-x,y,z
x,-y,z
1/2+x,1/2+y,1/2+z
1/2-x,1/2-y,1/2+z
1/2+x,1/2-y,1/2-z
1/2-x,1/2+y,1/2-z
1/2-x,1/2-y,1/2-z
1/2+x,1/2+y,1/2-z
1/2-x,1/2+y,1/2+z
1/2+x,1/2-y,1/2+z
loop_
_atom_site_type_symbol
_atom_site_label
_atom_site_fract_x
_atom_site_fract_y
_atom_site_fract_z
Si Si1 0.175192 0.757643 0.436166
Si Si2 0.822383 0.370171 0.876870
Si Si3 0.676589 0.317848 0.235408
Si Si4 0.333731 0.924655 0.062836
Si Si5 0.670949 0.656117 0.641834
Si Si6 0.319229 0.000000 0.435551
O O1 0.202321 0.737134 0.500000
O O2 0.268986 0.820021 0.422830
O O3 0.227850 0.708300 0.389010
O O4 0.000000 0.769720 0.430273
O O5 0.749414 0.349832 0.818336
O O6 0.774756 0.438300 0.900475
O O7 0.000000 0.368419 0.870664
O O8 0.500000 0.310385 0.226329
O O9 0.750000 0.250000 0.250000
O O10 0.701260 0.355142 0.293331
O O11 0.500000 0.899862 0.077415
O O12 0.209108 0.904950 0.105727
O O13 0.343850 0.000000 0.061669
O O14 0.300545 0.903258 0.000000
O O15 0.500000 0.676664 0.637036
O O16 0.500000 0.000000 0.437961
O O17 0.267316 0.000000 0.500000
#
# Coordination Sequence:
#
# PCOD9524907 Si02
#       6
#    16  16  16  16  16   8
#     4  11  23  37  57  87 121 155 193 242 299 359
#     4  11  22  39  64  91 120 158 202 251 305 361
#     4  11  23  40  61  86 118 157 197 243 297 356
#     4   9  19  37  59  83 114 152 192 236 289 349
#     4  11  23  37  57  85 116 152 196 245 297 354
#     4   9  20  40  65  93 125 161 204 255 310 371
#
# _framework density 9.7001760000000008
#
# number of rings (size 3 to 8) (size 9 to 14) (size 15 to 20)
#    0.000    1.545    1.818    3.818    0.000    7.273 
#    1.636    2.727    0.000    3.273    0.000    0.000 
#    0.000    0.000    0.000    0.000    0.000    0.000 
#
# Total GULP energy -245464.143074 kJ/mol
# GULP energy per Si atom -5578.730524 kJ/mol
# Density = 0.967810 g / cm^3
# Si number density = 9.700176 Si / 1000 Ang^3
#
#
#
# Elastic Constant Matrix: (Units=GPa)
#
#
# Indices 1 2 3 4 5 6 
#
# 1 70.4139 30.5210 59.4048 0.0000 0.0000 0.0000
# 2 30.5210 106.9376 54.9683 0.0000 0.0000 0.0000
# 3 59.4048 54.9683 135.0656 0.0000 0.0000 0.0000
# 4 0.0000 0.0000 0.0000 28.3217 0.0000 0.0000
# 5 0.0000 0.0000 0.0000 0.0000 35.4872 0.0000
# 6 0.0000 0.0000 0.0000 0.0000 0.0000 21.7601
#
#
#
# Elastic Compliance Matrix: (Units=1/GPa)
#
#
# Indices 1 2 3 4 5 6 
#
# 1 0.022826 -0.001713 -0.009342 0.000000 0.000000 0.000000
# 2 -0.001713 0.011953 -0.004112 0.000000 0.000000 0.000000
# 3 -0.009342 -0.004112 0.013186 0.000000 0.000000 0.000000
# 4 0.000000 0.000000 0.000000 0.035309 0.000000 0.000000
# 5 0.000000 0.000000 0.000000 0.000000 0.028179 0.000000
# 6 0.000000 0.000000 0.000000 0.000000 0.000000 0.045956
#
#
# Mechanical properties :
#
#
# Convention : Reuss Voigt Hill
#
# Bulk Modulus (GPa) = 56.71359 66.91171 61.81265
# Shear Modulus (GPa) = 25.82396 28.28200 27.05298
#
# Velocity S-wave (km/s) = 3.65239 3.82227 3.73830
# Velocity P-wave (km/s) = 6.86173 7.35149 7.11083
#
# Compressibility (1/GPa) = 0.01763246
#
# Stress axis : x y z
#
# Youngs Moduli (GPa) = 43.81038 83.65785 75.83787
#
# Poissons Ratio (x) = 0.14327 0.70850
# Poissons Ratio (y) = 0.07503 0.31181
# Poissons Ratio (z) = 0.40929 0.34396
#
# Static dielectric constant tensor:
#      x y z
#    x 1.670880 0.000000 0.000000 
#    y 0.000000 1.787660 0.000000 
#    z 0.000000 0.000000 1.666290 
# 
# From -- ./inp_files/12500.got.cif
#   From: 2010.05.17/outbox.ucp.g08.bks.cvg/sg71_7_cif.got.tgz:12500.got - 2010.06.11 16:29:00.
