data_PCOD9524941
_publ_section_title
;
Structure prediction by ZEFSAII (Michael W. Deem and Ramdas Pophale) SiO2 
 PCOD9524941
Probable space group: I B A M
;
_chemical_formula_sum "Si O2"
_cell_formula_units_Z 68
_cell_length_a 9.750688
_cell_length_b 13.346320
_cell_length_c 19.937521
_cell_angle_alpha 90.000000
_cell_angle_beta 90.000000
_cell_angle_gamma 90.000000
_cell_volume 2594.585291
_symmetry_space_group_name_H-M "I B A M"
_symmetry_group_IT_number 72
_symmetry_cell_setting 'orthorhombic'
loop_
_space_group_symop_operation_xyz
x,y,z
-x,-y,z
x,-y,1/2-z
-x,y,1/2-z
-x,-y,-z
x,y,-z
-x,y,1/2+z
x,-y,1/2+z
1/2+x,1/2+y,1/2+z
1/2-x,1/2-y,1/2+z
1/2+x,1/2-y,-z
1/2-x,1/2+y,-z
1/2-x,1/2-y,1/2-z
1/2+x,1/2+y,1/2-z
1/2-x,1/2+y,z
1/2+x,1/2-y,z
loop_
_atom_site_type_symbol
_atom_site_label
_atom_site_fract_x
_atom_site_fract_y
_atom_site_fract_z
Si Si1 0.500000 0.500000 0.500000
Si Si2 0.371205 0.646388 0.391312
Si Si3 0.934607 0.376151 0.856016
Si Si4 0.380511 0.879756 0.500000
Si Si5 0.215171 0.366317 0.770542
Si Si6 0.166137 0.281787 0.000000
O O1 0.462996 0.582363 0.440536
O O2 0.420886 0.758275 0.373473
O O3 0.336895 0.600226 0.319137
O O4 0.232739 0.665755 0.435141
O O5 0.899322 0.429019 0.927266
O O6 0.821548 0.409868 0.801840
O O7 0.077525 0.380450 0.815769
O O8 0.231215 0.828984 0.500000
O O9 0.505943 0.800370 0.500000
O O10 0.250000 0.250000 0.750000
#
# Coordination Sequence:
#
# PCOD9524941 Si02
#       6
#     4  16  16   8  16   8
#     4  10  20  32  48  74 112 176 216 234 288 384
#     4   9  17  30  46  72 114 157 202 248 301 373
#     4   9  17  27  47  75 111 149 194 254 325 374
#     4  10  16  26  42  70 112 153 192 230 325 392
#     4   9  16  28  47  74 112 146 191 253 325 376
#     4   9  16  25  42  68 108 153 192 240 301 372
#
# _framework density 26.208428999999999
#
# number of rings (size 3 to 8) (size 9 to 14) (size 15 to 20)
#    0.000    2.824    2.353    0.706    0.000    0.000 
#    0.000    0.000    0.000   11.294    0.000    0.000 
#    0.000  200.471    0.000    0.000    0.000    0.000 
#
# Total GULP energy -189277.701987 kJ/mol
# GULP energy per Si atom -5566.991235 kJ/mol
# Density = 2.614878 g / cm^3
# Si number density = 26.208429 Si / 1000 Ang^3
#
#
#
# Elastic Constant Matrix: (Units=GPa)
#
#
# Indices 1 2 3 4 5 6 
#
# 1 71.2975 29.2444 34.5172 0.0000 0.0000 0.0000
# 2 29.2444 102.2299 67.1352 0.0000 0.0000 0.0000
# 3 34.5172 67.1352 245.7454 0.0000 0.0000 0.0000
# 4 0.0000 0.0000 0.0000 10.0601 0.0000 0.0000
# 5 0.0000 0.0000 0.0000 0.0000 56.4581 0.0000
# 6 0.0000 0.0000 0.0000 0.0000 0.0000 11.9232
#
#
#
# Elastic Compliance Matrix: (Units=1/GPa)
#
#
# Indices 1 2 3 4 5 6 
#
# 1 0.016189 -0.003824 -0.001229 0.000000 0.000000 0.000000
# 2 -0.003824 0.012824 -0.002966 0.000000 0.000000 0.000000
# 3 -0.001229 -0.002966 0.005052 0.000000 0.000000 0.000000
# 4 0.000000 0.000000 0.000000 0.099402 0.000000 0.000000
# 5 0.000000 0.000000 0.000000 0.000000 0.017712 0.000000
# 6 0.000000 0.000000 0.000000 0.000000 0.000000 0.083870
#
#
# Mechanical properties :
#
#
# Convention : Reuss Voigt Hill
#
# Bulk Modulus (GPa) = 55.47394 75.67403 65.57398
# Shear Modulus (GPa) = 19.44789 34.91337 27.18063
#
# Velocity S-wave (km/s) = 2.72701 3.65381 3.22389
# Velocity P-wave (km/s) = 5.57923 6.83645 6.23959
#
# Compressibility (1/GPa) = 0.01802648
#
# Stress axis : x y z
#
# Youngs Moduli (GPa) = 61.76899 77.98071 197.93156
#
# Poissons Ratio (x) = 0.29819 0.24331
# Poissons Ratio (y) = 0.23620 0.58710
# Poissons Ratio (z) = 0.07593 0.23131
#
# Static dielectric constant tensor:
#      x y z
#    x 2.076390 0.000000 0.000000 
#    y 0.000000 2.137400 0.000000 
#    z 0.000000 0.000000 1.871940 
# 
# From -- ./inp_files/36677.got.cif
#   From: 2010.05.17/outbox.cif.g08.bks.cpg/sg72_19_cif.got.tgz:36677.got - 2010.06.03 17:03:01.
