data_PCOD9524233
_publ_section_title
;
Structure prediction by ZEFSAII (Michael W. Deem and Ramdas Pophale) SiO2 
 PCOD9524233
Probable space group: I M M M
;
_chemical_formula_sum "Si O2"
_cell_formula_units_Z 120
_cell_length_a 28.329374
_cell_length_b 7.757059
_cell_length_c 27.941138
_cell_angle_alpha 90.000000
_cell_angle_beta 90.000000
_cell_angle_gamma 90.000000
_cell_volume 6140.138436
_symmetry_space_group_name_H-M "I M M M"
_symmetry_group_IT_number 71
_symmetry_cell_setting 'orthorhombic'
loop_
_space_group_symop_operation_xyz
x,y,z
-x,-y,z
x,-y,-z
-x,y,-z
-x,-y,-z
x,y,-z
-x,y,z
x,-y,z
1/2+x,1/2+y,1/2+z
1/2-x,1/2-y,1/2+z
1/2+x,1/2-y,1/2-z
1/2-x,1/2+y,1/2-z
1/2-x,1/2-y,1/2-z
1/2+x,1/2+y,1/2-z
1/2-x,1/2+y,1/2+z
1/2+x,1/2-y,1/2+z
loop_
_atom_site_type_symbol
_atom_site_label
_atom_site_fract_x
_atom_site_fract_y
_atom_site_fract_z
Si Si1 0.946468 0.291963 0.208064
Si Si2 0.442695 0.793349 0.500000
Si Si3 0.201632 0.703131 0.448904
Si Si4 0.310723 0.707674 0.656770
Si Si5 0.297221 0.205650 0.152943
Si Si6 0.442346 0.796974 0.603747
Si Si7 0.144039 0.796785 0.254322
Si Si8 0.687785 0.794005 0.447885
O O1 0.947040 0.500000 0.204423
O O2 0.929366 0.223489 0.155796
O O3 0.911196 0.240849 0.249804
O O4 0.000000 0.233780 0.215800
O O5 0.500000 0.779865 0.500000
O O6 0.427378 0.723513 0.552015
O O7 0.431969 0.000000 0.500000
O O8 0.186786 0.780563 0.500000
O O9 0.190207 0.500000 0.450489
O O10 0.184183 0.774759 0.398150
O O11 0.258754 0.720296 0.446842
O O12 0.310642 0.500000 0.658933
O O13 0.256344 0.770996 0.659272
O O14 0.335129 0.777375 0.704601
O O15 0.332215 0.751391 0.604648
O O16 0.329624 0.234793 0.198562
O O17 0.292768 0.000000 0.147369
O O18 0.500000 0.792038 0.604252
O O19 0.429205 0.000000 0.602963
O O20 0.151448 0.000000 0.253229
O O21 0.667323 0.739043 0.500000
O O22 0.690396 0.000000 0.449303
#
# Coordination Sequence:
#
# PCOD9524233 Si02
#       8
#    16   8  16  16  16  16  16  16
#     4   9  18  33  51  68  87 116 154 193 236 284
#     4   7   8  12  28  56  83  99 117 157 215 271
#     4   8  14  26  44  66  94 127 158 185 219 268
#     4   9  19  33  47  65  91 127 165 194 230 282
#     4   9  17  30  48  70  96 126 159 192 226 267
#     4   7  10  18  35  59  82 102 128 166 215 269
#     4  11  22  33  47  68  94 123 158 196 237 283
#     4   9  16  25  41  66  91 117 154 199 240 275
#
# _framework density 19.543533
#
# number of rings (size 3 to 8) (size 9 to 14) (size 15 to 20)
#    0.000    3.267    0.000    3.600    0.000    4.267 
#    0.000    0.000    1.467    0.000    0.000    0.000 
#    0.000    3.200    0.000    6.133    0.000    1.867 
#
# Total GULP energy -334336.185985 kJ/mol
# GULP energy per Si atom -5572.269766 kJ/mol
# Density = 1.949905 g / cm^3
# Si number density = 19.543533 Si / 1000 Ang^3
#
#
#
# Elastic Constant Matrix: (Units=GPa)
#
#
# Indices 1 2 3 4 5 6 
#
# 1 55.5715 -4.6672 63.6822 0.0000 0.0000 0.0000
# 2 -4.6672 28.8124 5.6577 0.0000 0.0000 0.0000
# 3 63.6822 5.6577 177.4761 0.0000 0.0000 0.0000
# 4 0.0000 0.0000 0.0000 13.3636 0.0000 0.0000
# 5 0.0000 0.0000 0.0000 0.0000 31.3074 0.0000
# 6 0.0000 0.0000 0.0000 0.0000 0.0000 -0.8756
#
#
#
# Elastic Compliance Matrix: (Units=1/GPa)
#
#
# Indices 1 2 3 4 5 6 
#
# 1 0.032098 0.007508 -0.011757 0.000000 0.000000 0.000000
# 2 0.007508 0.036682 -0.003863 0.000000 0.000000 0.000000
# 3 -0.011757 -0.003863 0.009976 0.000000 0.000000 0.000000
# 4 0.000000 0.000000 0.000000 0.074830 0.000000 0.000000
# 5 0.000000 0.000000 0.000000 0.000000 0.031941 0.000000
# 6 0.000000 0.000000 0.000000 0.000000 0.000000 -1.142075
#
#
# Mechanical properties :
#
#
# Convention : Reuss Voigt Hill
#
# Bulk Modulus (GPa) = 15.99181 43.46726 29.72954
# Shear Modulus (GPa) = -5.43786 21.90491 8.23352
#
# Velocity S-wave (km/s) = -1.66987 3.35151 2.05477
# Velocity P-wave (km/s) = 2.11718 6.10462 4.56885
#
# Compressibility (1/GPa) = 0.06253202
#
# Stress axis : x y z
#
# Youngs Moduli (GPa) = 31.15451 27.26127 100.23745
#
# Poissons Ratio (x) = -0.20468 1.17847
# Poissons Ratio (y) = -0.23391 0.38726
# Poissons Ratio (z) = 0.36628 0.10532
#
# Static dielectric constant tensor:
#      x y z
#    x 1.693700 0.000000 0.000000 
#    y 0.000000 1.719470 0.000000 
#    z 0.000000 0.000000 1.764710 
# 
# From -- ./inp_files/67175.got.cif
#   From: 2010.05.17/outbox.cif.g08.bks.cpg/sg71_34_cif.got.tgz:67175.got - 2010.06.03 16:22:01.
