data_PCOD9524436
_publ_section_title
;
Structure prediction by ZEFSAII (Michael W. Deem and Ramdas Pophale) SiO2 
 PCOD9524436
Probable space group: I M M M
;
_chemical_formula_sum "Si O2"
_cell_formula_units_Z 56
_cell_length_a 9.878925
_cell_length_b 16.066152
_cell_length_c 18.490075
_cell_angle_alpha 90.000000
_cell_angle_beta 90.000000
_cell_angle_gamma 90.000000
_cell_volume 2934.676488
_symmetry_space_group_name_H-M "I M M M"
_symmetry_group_IT_number 71
_symmetry_cell_setting 'orthorhombic'
loop_
_space_group_symop_operation_xyz
x,y,z
-x,-y,z
x,-y,-z
-x,y,-z
-x,-y,-z
x,y,-z
-x,y,z
x,-y,z
1/2+x,1/2+y,1/2+z
1/2-x,1/2-y,1/2+z
1/2+x,1/2-y,1/2-z
1/2-x,1/2+y,1/2-z
1/2-x,1/2-y,1/2-z
1/2+x,1/2+y,1/2-z
1/2-x,1/2+y,1/2+z
1/2+x,1/2-y,1/2+z
loop_
_atom_site_type_symbol
_atom_site_label
_atom_site_fract_x
_atom_site_fract_y
_atom_site_fract_z
Si Si1 0.664745 0.640327 0.174371
Si Si2 0.000000 0.095047 0.914714
Si Si3 0.500000 0.097131 0.919713
Si Si4 0.250236 0.332977 0.662922
Si Si5 0.165247 0.500000 0.912001
O O1 0.500000 0.629534 0.166037
O O2 0.707461 0.631737 0.258558
O O3 0.707543 0.736307 0.161784
O O4 0.754568 0.578656 0.124339
O O5 0.126081 0.147328 0.888379
O O6 0.000000 0.000000 0.885036
O O7 0.000000 0.088289 0.000000
O O8 0.626690 0.119925 0.871894
O O9 0.500000 0.000000 0.930023
O O10 0.500000 0.137461 0.000000
O O11 0.000000 0.500000 0.897121
O O12 0.179891 0.500000 0.000000
#
# Coordination Sequence:
#
# PCOD9524436 Si02
#       5
#    16   8   8  16   8
#     4  11  25  45  70 101 133 176 230 279 334 405
#     4  11  24  41  64  99 139 178 219 270 334 400
#     4  11  24  41  64 101 139 174 217 270 334 400
#     4  11  24  42  69 100 134 178 227 273 333 403
#     4  11  29  49  71 103 134 175 228 285 348 407
#
# _framework density 19.082172
#
# number of rings (size 3 to 8) (size 9 to 14) (size 15 to 20)
#    0.000    1.000    2.857    2.143    8.000    5.714 
#    0.000    0.000    0.000    0.000    0.000    0.000 
#    0.000    0.000    0.000    0.000    0.000    0.000 
#
# Total GULP energy -156145.990371 kJ/mol
# GULP energy per Si atom -5576.642513 kJ/mol
# Density = 1.903874 g / cm^3
# Si number density = 19.082172 Si / 1000 Ang^3
#
#
#
# Elastic Constant Matrix: (Units=GPa)
#
#
# Indices 1 2 3 4 5 6 
#
# 1 222.4610 61.3300 86.5202 0.0000 0.0000 0.0000
# 2 61.3300 76.5555 73.9951 0.0000 0.0000 0.0000
# 3 86.5202 73.9951 131.9649 0.0000 0.0000 0.0000
# 4 0.0000 0.0000 0.0000 29.2747 0.0000 0.0000
# 5 0.0000 0.0000 0.0000 0.0000 63.2923 0.0000
# 6 0.0000 0.0000 0.0000 0.0000 0.0000 45.8691
#
#
#
# Elastic Compliance Matrix: (Units=1/GPa)
#
#
# Indices 1 2 3 4 5 6 
#
# 1 0.006209 -0.002270 -0.002798 0.000000 0.000000 0.000000
# 2 -0.002270 0.029348 -0.014968 0.000000 0.000000 0.000000
# 3 -0.002798 -0.014968 0.017805 0.000000 0.000000 0.000000
# 4 0.000000 0.000000 0.000000 0.034159 0.000000 0.000000
# 5 0.000000 0.000000 0.000000 0.000000 0.015800 0.000000
# 6 0.000000 0.000000 0.000000 0.000000 0.000000 0.021801
#
#
# Mechanical properties :
#
#
# Convention : Reuss Voigt Hill
#
# Bulk Modulus (GPa) = 75.24051 97.18578 86.21314
# Shear Modulus (GPa) = 29.47689 41.62962 35.55326
#
# Velocity S-wave (km/s) = 3.93458 4.67582 4.32112
# Velocity P-wave (km/s) = 7.75606 8.95499 8.37700
#
# Compressibility (1/GPa) = 0.01329071
#
# Stress axis : x y z
#
# Youngs Moduli (GPa) = 161.05116 34.07396 56.16316
#
# Poissons Ratio (x) = 0.07733 0.15717
# Poissons Ratio (y) = 0.36551 0.84065
# Poissons Ratio (z) = 0.45068 0.51002
#
# Static dielectric constant tensor:
#      x y z
#    x 1.613390 0.000000 0.000000 
#    y 0.000000 1.671850 0.000000 
#    z 0.000000 0.000000 1.677040 
# 
# From -- ./inp_files/41755.got.cif
#   From: 2010.05.17/outbox.cif.g08.bks.cpg/sg71_21_cif.got.tgz:41755.got - 2010.06.03 16:22:01.
