data_PCOD9524344
_publ_section_title
;
Structure prediction by ZEFSAII (Michael W. Deem and Ramdas Pophale) SiO2 
 PCOD9524344
Probable space group: I M M M
;
_chemical_formula_sum "Si O2"
_cell_formula_units_Z 44
_cell_length_a 7.453695
_cell_length_b 26.205313
_cell_length_c 10.237481
_cell_angle_alpha 90.000000
_cell_angle_beta 90.000000
_cell_angle_gamma 90.000000
_cell_volume 1999.650416
_symmetry_space_group_name_H-M "I M M M"
_symmetry_group_IT_number 71
_symmetry_cell_setting 'orthorhombic'
loop_
_space_group_symop_operation_xyz
x,y,z
-x,-y,z
x,-y,-z
-x,y,-z
-x,-y,-z
x,y,-z
-x,y,z
x,-y,z
1/2+x,1/2+y,1/2+z
1/2-x,1/2-y,1/2+z
1/2+x,1/2-y,1/2-z
1/2-x,1/2+y,1/2-z
1/2-x,1/2-y,1/2-z
1/2+x,1/2+y,1/2-z
1/2-x,1/2+y,1/2+z
1/2+x,1/2-y,1/2+z
loop_
_atom_site_type_symbol
_atom_site_label
_atom_site_fract_x
_atom_site_fract_y
_atom_site_fract_z
Si Si1 0.705176 0.408528 0.714403
Si Si2 0.213255 0.705962 0.353418
Si Si3 0.000000 0.564313 0.500000
Si Si4 0.717336 0.558546 0.000000
O O1 0.500000 0.428007 0.701895
O O2 0.703450 0.348153 0.683514
O O3 0.842713 0.433421 0.613662
O O4 0.769071 0.415912 0.863526
O O5 0.270283 0.720859 0.500000
O O6 0.250000 0.750000 0.250000
O O7 0.000000 0.696742 0.357182
O O8 0.776496 0.500000 0.000000
O O9 0.500000 0.559434 0.000000
#
# Coordination Sequence:
#
# PCOD9524344 Si02
#       4
#    16  16   4   8
#     4  11  22  42  69  93 133 178 220 279 338 392
#     4  11  23  40  60  92 133 173 223 269 321 397
#     4  12  22  42  65  96 132 168 218 270 335 406
#     4   9  22  45  72 101 132 176 229 279 337 407
#
# _framework density 22.003847
#
# number of rings (size 3 to 8) (size 9 to 14) (size 15 to 20)
#    0.000    1.273    3.636    1.636    2.545    2.909 
#    0.000    3.636    0.000    4.364    0.000    0.000 
#    0.000    0.000    0.000    0.000    0.000    0.000 
#
# Total GULP energy -122501.588660 kJ/mol
# GULP energy per Si atom -5568.254030 kJ/mol
# Density = 2.195376 g / cm^3
# Si number density = 22.003847 Si / 1000 Ang^3
#
#
#
# Elastic Constant Matrix: (Units=GPa)
#
#
# Indices 1 2 3 4 5 6 
#
# 1 143.8182 2.5990 61.3552 0.0001 0.0000 0.0001
# 2 2.5990 60.1532 50.1961 -0.0001 0.0000 0.0000
# 3 61.3552 50.1961 265.1576 0.0004 0.0001 0.0001
# 4 0.0001 -0.0001 0.0004 61.7816 0.0000 0.0001
# 5 0.0000 0.0000 0.0001 0.0000 34.8220 -0.0001
# 6 0.0001 0.0000 0.0001 0.0001 -0.0001 -78.0651
#
#
#
# Elastic Compliance Matrix: (Units=1/GPa)
#
#
# Indices 1 2 3 4 5 6 
#
# 1 0.007812 0.001390 -0.002071 0.000000 0.000000 0.000000
# 2 0.001390 0.019991 -0.004106 0.000000 0.000000 0.000000
# 3 -0.002071 -0.004106 0.005028 0.000000 0.000000 0.000000
# 4 0.000000 0.000000 0.000000 0.016186 0.000000 0.000000
# 5 0.000000 0.000000 0.000000 0.000000 0.028717 0.000000
# 6 0.000000 0.000000 0.000000 0.000000 0.000000 -0.012810
#
#
# Mechanical properties :
#
#
# Convention : Reuss Voigt Hill
#
# Bulk Modulus (GPa) = 42.99755 77.49218 60.24486
# Shear Modulus (GPa) = 60.79127 27.37296 44.08212
#
# Velocity S-wave (km/s) = 5.26190 3.53088 4.48077
# Velocity P-wave (km/s) = 7.51665 7.20533 7.36264
#
# Compressibility (1/GPa) = 0.02325714
#
# Stress axis : x y z
#
# Youngs Moduli (GPa) = 128.01631 50.02364 198.89410
#
# Poissons Ratio (x) = -0.06956 0.41186
# Poissons Ratio (y) = -0.17800 0.81668
# Poissons Ratio (z) = 0.26509 0.20540
#
# Static dielectric constant tensor:
#      x y z
#    x 1.837510 0.000000 0.000000 
#    y 0.000000 1.835510 0.000000 
#    z 0.000000 0.000000 1.776120 
# 
# From -- ./inp_files/2079.got.cif
#   From: 2010.05.17/outbox.cif.g08.bks.cpg/sg71_2_cif.got.tgz:2079.got - 2010.06.03 16:22:01.
