data_PCOD9524465
_publ_section_title
;
Structure prediction by ZEFSAII (Michael W. Deem and Ramdas Pophale) SiO2 
 PCOD9524465
Probable space group: I M M M
;
_chemical_formula_sum "Si O2"
_cell_formula_units_Z 64
_cell_length_a 27.734477
_cell_length_b 10.465227
_cell_length_c 14.100941
_cell_angle_alpha 90.000000
_cell_angle_beta 90.000000
_cell_angle_gamma 90.000000
_cell_volume 4092.764248
_symmetry_space_group_name_H-M "I M M M"
_symmetry_group_IT_number 71
_symmetry_cell_setting 'orthorhombic'
loop_
_space_group_symop_operation_xyz
x,y,z
-x,-y,z
x,-y,-z
-x,y,-z
-x,-y,-z
x,y,-z
-x,y,z
x,-y,z
1/2+x,1/2+y,1/2+z
1/2-x,1/2-y,1/2+z
1/2+x,1/2-y,1/2-z
1/2-x,1/2+y,1/2-z
1/2-x,1/2-y,1/2-z
1/2+x,1/2+y,1/2-z
1/2-x,1/2+y,1/2+z
1/2+x,1/2-y,1/2+z
loop_
_atom_site_type_symbol
_atom_site_label
_atom_site_fract_x
_atom_site_fract_y
_atom_site_fract_z
Si Si1 0.849343 0.248936 0.803676
Si Si2 0.698387 0.000000 0.787368
Si Si3 0.707412 0.260292 0.500000
Si Si4 0.221072 0.500000 0.500000
Si Si5 0.308057 0.500000 0.208663
Si Si6 0.944136 0.347008 0.887914
Si Si7 0.768247 0.000000 0.500000
O O1 0.825755 0.374206 0.756609
O O2 0.836261 0.125842 0.741881
O O3 0.905460 0.274168 0.824361
O O4 0.824417 0.231088 0.905942
O O5 0.755145 0.000000 0.759112
O O6 0.693015 0.000000 0.900826
O O7 0.745569 0.374582 0.500000
O O8 0.734791 0.125244 0.500000
O O9 0.298628 0.500000 0.096501
O O10 0.937004 0.500000 0.876614
O O11 0.000000 0.318412 0.866345
O O12 0.936236 0.319614 0.000000
#
# Coordination Sequence:
#
# PCOD9524465 Si02
#       7
#    16   8   8   4   8  16   4
#     4  12  21  35  55  81 109 148 178 212 272 323
#     4  12  22  36  53  75 105 147 191 215 256 317
#     4  12  20  32  55  75 112 143 182 214 259 318
#     4  12  24  36  48  74 110 148 180 232 258 288
#     4  12  24  36  51  79 111 147 185 219 264 317
#     4   9  18  33  56  84 110 137 176 221 265 324
#     4  12  24  36  52  74 108 150 190 226 238 312
#
# _framework density 15.637354
#
# number of rings (size 3 to 8) (size 9 to 14) (size 15 to 20)
#    0.000    0.750    7.500    3.000    0.000    0.000 
#    0.000    0.625    0.000    1.500    0.000    5.250 
#    0.000    0.000    0.000    0.000    0.000    0.000 
#
# Total GULP energy -178766.633113 kJ/mol
# GULP energy per Si atom -5586.457285 kJ/mol
# Density = 1.560176 g / cm^3
# Si number density = 15.637354 Si / 1000 Ang^3
#
#
#
# Elastic Constant Matrix: (Units=GPa)
#
#
# Indices 1 2 3 4 5 6 
#
# 1 83.2326 16.2784 7.4765 0.0000 0.0000 0.0000
# 2 16.2784 67.9396 -10.9418 0.0000 0.0000 0.0000
# 3 7.4765 -10.9418 78.3942 0.0000 0.0000 0.0000
# 4 0.0000 0.0000 0.0000 12.2446 0.0000 0.0000
# 5 0.0000 0.0000 0.0000 0.0000 28.0428 0.0000
# 6 0.0000 0.0000 0.0000 0.0000 0.0000 2.5533
#
#
#
# Elastic Compliance Matrix: (Units=1/GPa)
#
#
# Indices 1 2 3 4 5 6 
#
# 1 0.012820 -0.003344 -0.001689 0.000000 0.000000 0.000000
# 2 -0.003344 0.015930 0.002542 0.000000 0.000000 0.000000
# 3 -0.001689 0.002542 0.013272 0.000000 0.000000 0.000000
# 4 0.000000 0.000000 0.000000 0.081669 0.000000 0.000000
# 5 0.000000 0.000000 0.000000 0.000000 0.035660 0.000000
# 6 0.000000 0.000000 0.000000 0.000000 0.000000 0.391652
#
#
# Mechanical properties :
#
#
# Convention : Reuss Voigt Hill
#
# Bulk Modulus (GPa) = 26.99790 28.35473 27.67631
# Shear Modulus (GPa) = 8.79770 23.01837 15.90803
#
# Velocity S-wave (km/s) = 2.37451 3.84084 3.19299
# Velocity P-wave (km/s) = 4.98199 6.15154 5.59740
#
# Compressibility (1/GPa) = 0.03703992
#
# Stress axis : x y z
#
# Youngs Moduli (GPa) = 78.00162 62.77632 75.34662
#
# Poissons Ratio (x) = 0.20991 0.12729
# Poissons Ratio (y) = 0.26082 -0.19155
# Poissons Ratio (z) = 0.13177 -0.15959
#
# Static dielectric constant tensor:
#      x y z
#    x 1.508680 0.000000 0.000000 
#    y 0.000000 1.511930 0.000000 
#    z 0.000000 0.000000 1.514840 
# 
# From -- ./inp_files/40665.got.cif
#   From: 2010.05.17/outbox.cif.g08.bks.cpg/sg71_21_cif.got.tgz:40665.got - 2010.06.03 16:22:01.
