data_PCOD9524546
_publ_section_title
;
Structure prediction by ZEFSAII (Michael W. Deem and Ramdas Pophale) SiO2 
 PCOD9524546
Probable space group: I M M M
;
_chemical_formula_sum "Si O2"
_cell_formula_units_Z 104
_cell_length_a 23.842257
_cell_length_b 29.274795
_cell_length_c 7.281294
_cell_angle_alpha 90.000000
_cell_angle_beta 90.000000
_cell_angle_gamma 90.000000
_cell_volume 5082.177097
_symmetry_space_group_name_H-M "I M M M"
_symmetry_group_IT_number 71
_symmetry_cell_setting 'orthorhombic'
loop_
_space_group_symop_operation_xyz
x,y,z
-x,-y,z
x,-y,-z
-x,y,-z
-x,-y,-z
x,y,-z
-x,y,z
x,-y,z
1/2+x,1/2+y,1/2+z
1/2-x,1/2-y,1/2+z
1/2+x,1/2-y,1/2-z
1/2-x,1/2+y,1/2-z
1/2-x,1/2-y,1/2-z
1/2+x,1/2+y,1/2-z
1/2-x,1/2+y,1/2+z
1/2+x,1/2-y,1/2+z
loop_
_atom_site_type_symbol
_atom_site_label
_atom_site_fract_x
_atom_site_fract_y
_atom_site_fract_z
Si Si1 0.439079 0.552657 0.776532
Si Si2 0.726791 0.051799 0.276871
Si Si3 0.809453 0.792160 0.721674
Si Si4 0.833642 0.109444 0.276245
Si Si5 0.181918 0.307779 0.210392
Si Si6 0.000000 0.445905 0.224157
Si Si7 0.115154 0.396121 0.776911
O O1 0.500000 0.570469 0.720119
O O2 0.434738 0.500000 0.721686
O O3 0.385958 0.580304 0.712642
O O4 0.438007 0.553191 0.000000
O O5 0.727781 0.051546 0.500000
O O6 0.775350 0.086433 0.216974
O O7 0.665729 0.069961 0.224560
O O8 0.737246 0.000000 0.216874
O O9 0.807512 0.789030 0.500000
O O10 0.840209 0.838159 0.776619
O O11 0.836778 0.744971 0.786257
O O12 0.745139 0.801355 0.788231
O O13 0.832344 0.108469 0.500000
O O14 0.138479 0.345775 0.283097
O O15 0.191657 0.322544 0.000000
O O16 0.055812 0.417761 0.282666
O O17 0.000000 0.500000 0.279214
O O18 0.000000 0.446709 0.000000
O O19 0.111355 0.394658 0.000000
#
# Coordination Sequence:
#
# PCOD9524546 Si02
#       7
#    16  16  16  16  16   8  16
#     4   8  13  20  30  46  71 103 132 153 183 235
#     4   9  14  19  30  50  76 101 124 155 197 242
#     4   9  16  26  41  61  83 105 134 169 203 238
#     4   9  14  21  33  51  74 101 129 160 197 234
#     4   9  16  27  42  59  81 108 136 166 201 242
#     4   9  16  24  36  56  83 113 139 165 206 259
#     4   9  15  24  36  53  78 107 135 164 202 245
#
# _framework density 20.463671999999999
#
# number of rings (size 3 to 8) (size 9 to 14) (size 15 to 20)
#    0.000    3.154    1.538    1.385    0.000    3.692 
#    0.000    0.000    1.692    0.000    0.000    0.000 
#    0.000    6.769    0.000    1.692    0.000    1.538 
#
# Total GULP energy -289818.722494 kJ/mol
# GULP energy per Si atom -5573.436971 kJ/mol
# Density = 2.041710 g / cm^3
# Si number density = 20.463672 Si / 1000 Ang^3
#
#
#
# Elastic Constant Matrix: (Units=GPa)
#
#
# Indices 1 2 3 4 5 6 
#
# 1 112.9578 59.8675 -0.8716 0.0000 0.0000 0.0000
# 2 59.8675 150.4216 -3.3288 0.0000 0.0000 0.0000
# 3 -0.8716 -3.3288 85.4242 0.0000 0.0000 0.0000
# 4 0.0000 0.0000 0.0000 4.7247 0.0000 0.0000
# 5 0.0000 0.0000 0.0000 0.0000 -9.8752 0.0000
# 6 0.0000 0.0000 0.0000 0.0000 0.0000 29.8813
#
#
#
# Elastic Compliance Matrix: (Units=1/GPa)
#
#
# Indices 1 2 3 4 5 6 
#
# 1 0.011220 -0.004467 -0.000060 0.000000 0.000000 0.000000
# 2 -0.004467 0.008432 0.000283 0.000000 0.000000 0.000000
# 3 -0.000060 0.000283 0.011717 0.000000 0.000000 0.000000
# 4 0.000000 0.000000 0.000000 0.211652 0.000000 0.000000
# 5 0.000000 0.000000 0.000000 0.000000 -0.101264 0.000000
# 6 0.000000 0.000000 0.000000 0.000000 0.000000 0.033466
#
#
# Mechanical properties :
#
#
# Convention : Reuss Voigt Hill
#
# Bulk Modulus (GPa) = 43.70287 51.12642 47.41464
# Shear Modulus (GPa) = 26.13207 24.48861 25.31034
#
# Velocity S-wave (km/s) = 3.57739 3.46307 3.52069
# Velocity P-wave (km/s) = 6.20212 6.40536 6.30456
#
# Compressibility (1/GPa) = 0.02288179
#
# Stress axis : x y z
#
# Youngs Moduli (GPa) = 89.12823 118.59565 85.34827
#
# Poissons Ratio (x) = 0.52974 0.00509
# Poissons Ratio (y) = 0.39812 -0.02415
# Poissons Ratio (z) = 0.00531 -0.03356
#
# Static dielectric constant tensor:
#      x y z
#    x 1.697080 0.000000 0.000000 
#    y 0.000000 1.739190 0.000000 
#    z 0.000000 0.000000 1.848050 
# 
# From -- ./inp_files/28068.got.cif
#   From: 2010.05.17/outbox.cif.g08.bks.cpg/sg71_15_cif.got.tgz:28068.got - 2010.06.03 16:22:01.
