data_PCOD9524366
_publ_section_title
;
Structure prediction by ZEFSAII (Michael W. Deem and Ramdas Pophale) SiO2 
 PCOD9524366
Probable space group: I M M M
;
_chemical_formula_sum "Si O2"
_cell_formula_units_Z 80
_cell_length_a 31.579585
_cell_length_b 7.679712
_cell_length_c 15.083804
_cell_angle_alpha 90.000000
_cell_angle_beta 90.000000
_cell_angle_gamma 90.000000
_cell_volume 3658.156092
_symmetry_space_group_name_H-M "I M M M"
_symmetry_group_IT_number 71
_symmetry_cell_setting 'orthorhombic'
loop_
_space_group_symop_operation_xyz
x,y,z
-x,-y,z
x,-y,-z
-x,y,-z
-x,-y,-z
x,y,-z
-x,y,z
x,-y,z
1/2+x,1/2+y,1/2+z
1/2-x,1/2-y,1/2+z
1/2+x,1/2-y,1/2-z
1/2-x,1/2+y,1/2-z
1/2-x,1/2-y,1/2-z
1/2+x,1/2+y,1/2-z
1/2-x,1/2+y,1/2+z
1/2+x,1/2-y,1/2+z
loop_
_atom_site_type_symbol
_atom_site_label
_atom_site_fract_x
_atom_site_fract_y
_atom_site_fract_z
Si Si1 0.454540 0.203077 0.133195
Si Si2 0.454330 0.708612 0.340352
Si Si3 0.361927 0.792291 0.348673
Si Si4 0.363916 0.209204 0.852369
Si Si5 0.799292 0.285511 0.000000
Si Si6 0.296853 0.293503 0.000000
O O1 0.500000 0.280886 0.105919
O O2 0.453584 0.213725 0.240745
O O3 0.408679 0.276976 0.108039
O O4 0.455514 0.000000 0.107009
O O5 0.500000 0.759776 0.380628
O O6 0.454232 0.500000 0.332352
O O7 0.409732 0.759364 0.382808
O O8 0.358529 0.723364 0.248014
O O9 0.325968 0.727029 0.414490
O O10 0.356850 0.000000 0.343641
O O11 0.368988 0.000000 0.846829
O O12 0.324342 0.243119 0.914580
O O13 0.799261 0.500000 0.000000
O O14 0.750952 0.224155 0.000000
O O15 0.293434 0.500000 0.000000
#
# Coordination Sequence:
#
# PCOD9524366 Si02
#       6
#    16  16  16  16   8   8
#     4   8  14  27  49  75 102 136 175 209 245 294
#     4   9  16  26  44  74 110 141 167 201 247 299
#     4   9  18  35  58  78 100 134 174 215 255 299
#     4   9  18  33  54  79 105 133 168 211 256 303
#     4   9  20  39  58  77 100 128 171 223 266 305
#     4  11  23  37  54  75 102 136 171 213 266 317
#
# _framework density 21.868942000000001
#
# number of rings (size 3 to 8) (size 9 to 14) (size 15 to 20)
#    0.000    3.000    0.000    2.100    0.000    5.200 
#    0.000    3.500    0.000    6.000    0.000    0.000 
#    0.000    0.000    0.000    0.000    0.000    0.000 
#
# Total GULP energy -223011.405627 kJ/mol
# GULP energy per Si atom -5575.285141 kJ/mol
# Density = 2.181917 g / cm^3
# Si number density = 21.868942 Si / 1000 Ang^3
#
#
#
# Elastic Constant Matrix: (Units=GPa)
#
#
# Indices 1 2 3 4 5 6 
#
# 1 268.1638 0.5210 98.0169 0.0000 0.0000 0.0000
# 2 0.5210 39.3277 7.6594 0.0000 0.0000 0.0000
# 3 98.0169 7.6594 99.9959 0.0000 0.0000 0.0000
# 4 0.0000 0.0000 0.0000 57.1166 0.0000 0.0000
# 5 0.0000 0.0000 0.0000 0.0000 55.3052 0.0000
# 6 0.0000 0.0000 0.0000 0.0000 0.0000 24.6707
#
#
#
# Elastic Compliance Matrix: (Units=1/GPa)
#
#
# Indices 1 2 3 4 5 6 
#
# 1 0.005854 0.001056 -0.005819 0.000000 0.000000 0.000000
# 2 0.001056 0.026003 -0.003027 0.000000 0.000000 0.000000
# 3 -0.005819 -0.003027 0.015936 0.000000 0.000000 0.000000
# 4 0.000000 0.000000 0.000000 0.017508 0.000000 0.000000
# 5 0.000000 0.000000 0.000000 0.000000 0.018081 0.000000
# 6 0.000000 0.000000 0.000000 0.000000 0.000000 0.040534
#
#
# Mechanical properties :
#
#
# Convention : Reuss Voigt Hill
#
# Bulk Modulus (GPa) = 31.04316 68.87577 49.95946
# Shear Modulus (GPa) = 33.28154 47.50450 40.39302
#
# Velocity S-wave (km/s) = 3.90534 4.66578 4.30239
# Velocity P-wave (km/s) = 5.87890 7.78391 6.89749
#
# Compressibility (1/GPa) = 0.03221322
#
# Stress axis : x y z
#
# Youngs Moduli (GPa) = 170.82677 38.45731 62.75112
#
# Poissons Ratio (x) = -0.04060 0.36514
# Poissons Ratio (y) = -0.18035 0.18992
# Poissons Ratio (z) = 0.99402 0.11639
#
# Static dielectric constant tensor:
#      x y z
#    x 1.835820 0.000000 0.000000 
#    y 0.000000 1.823850 0.000000 
#    z 0.000000 0.000000 1.823650 
# 
# From -- ./inp_files/48622.got.cif
#   From: 2010.05.17/outbox.cif.g08.bks.cpg/sg71_25_cif.got.tgz:48622.got - 2010.06.03 16:22:01.
