data_PCOD9524636
_publ_section_title
;
Structure prediction by ZEFSAII (Michael W. Deem and Ramdas Pophale) SiO2 
 PCOD9524636
Probable space group: I M M M
;
_chemical_formula_sum "Si O2"
_cell_formula_units_Z 72
_cell_length_a 23.339672
_cell_length_b 9.344858
_cell_length_c 23.969253
_cell_angle_alpha 90.000000
_cell_angle_beta 90.000000
_cell_angle_gamma 90.000000
_cell_volume 5227.835992
_symmetry_space_group_name_H-M "I M M M"
_symmetry_group_IT_number 71
_symmetry_cell_setting 'orthorhombic'
loop_
_space_group_symop_operation_xyz
x,y,z
-x,-y,z
x,-y,-z
-x,y,-z
-x,-y,-z
x,y,-z
-x,y,z
x,-y,z
1/2+x,1/2+y,1/2+z
1/2-x,1/2-y,1/2+z
1/2+x,1/2-y,1/2-z
1/2-x,1/2+y,1/2-z
1/2-x,1/2-y,1/2-z
1/2+x,1/2+y,1/2-z
1/2-x,1/2+y,1/2+z
1/2+x,1/2-y,1/2+z
loop_
_atom_site_type_symbol
_atom_site_label
_atom_site_fract_x
_atom_site_fract_y
_atom_site_fract_z
Si Si1 0.433189 0.829626 0.771010
Si Si2 0.266678 0.335122 0.835788
Si Si3 0.167186 0.164768 0.783797
Si Si4 0.565761 0.825814 0.000000
Si Si5 0.130722 0.671200 0.387463
O O1 0.500000 0.792863 0.766692
O O2 0.392422 0.742796 0.729406
O O3 0.410170 0.802760 0.833903
O O4 0.426594 0.000000 0.761185
O O5 0.257631 0.500000 0.851578
O O6 0.207536 0.251365 0.826126
O O7 0.298764 0.334628 0.775480
O O8 0.310213 0.253625 0.876529
O O9 0.159842 0.000000 0.800482
O O10 0.599053 0.783633 0.056016
O O11 0.500000 0.775894 0.000000
O O12 0.564071 0.000000 0.000000
O O13 0.141217 0.500000 0.389471
#
# Coordination Sequence:
#
# PCOD9524636 Si02
#       5
#    16  16  16   8  16
#     4   9  16  25  37  54  77 104 131 158 190 229
#     4   9  16  26  39  54  72  94 122 157 197 237
#     4   9  16  25  38  55  73  94 122 156 192 231
#     4   9  16  26  41  59  77 101 136 173 202 227
#     4   9  16  26  40  56  74  99 133 169 199 227
#
# _framework density 13.772429000000001
#
# number of rings (size 3 to 8) (size 9 to 14) (size 15 to 20)
#    0.000    3.000    0.000    2.000    0.000    8.444 
#    0.000    0.556    0.000    2.667    0.000    0.000 
#    0.000    0.000    0.000    1.000    0.000   19.333 
#
# Total GULP energy -200465.268611 kJ/mol
# GULP energy per Si atom -5568.479684 kJ/mol
# Density = 1.374108 g / cm^3
# Si number density = 13.772429 Si / 1000 Ang^3
#
#
#
# Elastic Constant Matrix: (Units=GPa)
#
#
# Indices 1 2 3 4 5 6 
#
# 1 136.3908 77.3936 57.3110 0.0000 0.0000 0.0000
# 2 77.3936 75.9396 36.8132 0.0000 0.0000 0.0000
# 3 57.3110 36.8132 51.1050 0.0000 0.0000 0.0000
# 4 0.0000 0.0000 0.0000 11.7268 0.0000 0.0000
# 5 0.0000 0.0000 0.0000 0.0000 20.9846 0.0000
# 6 0.0000 0.0000 0.0000 0.0000 0.0000 23.6101
#
#
#
# Elastic Compliance Matrix: (Units=1/GPa)
#
#
# Indices 1 2 3 4 5 6 
#
# 1 0.021864 -0.015975 -0.013012 0.000000 0.000000 0.000000
# 2 -0.015975 0.031907 -0.005068 0.000000 0.000000 0.000000
# 3 -0.013012 -0.005068 0.037810 0.000000 0.000000 0.000000
# 4 0.000000 0.000000 0.000000 0.085275 0.000000 0.000000
# 5 0.000000 0.000000 0.000000 0.000000 0.047654 0.000000
# 6 0.000000 0.000000 0.000000 0.000000 0.000000 0.042355
#
#
# Mechanical properties :
#
#
# Convention : Reuss Voigt Hill
#
# Bulk Modulus (GPa) = 42.60691 67.38564 54.99628
# Shear Modulus (GPa) = 14.58578 17.39215 15.98896
#
# Velocity S-wave (km/s) = 3.25784 3.55748 3.41095
# Velocity P-wave (km/s) = 6.71974 8.11840 7.45196
#
# Compressibility (1/GPa) = 0.02347037
#
# Stress axis : x y z
#
# Youngs Moduli (GPa) = 45.73631 31.34149 26.44772
#
# Poissons Ratio (x) = 0.50069 0.34413
# Poissons Ratio (y) = 0.73065 0.13405
# Poissons Ratio (z) = 0.59511 0.15885
#
# Static dielectric constant tensor:
#      x y z
#    x 1.440820 0.000000 0.000000 
#    y 0.000000 1.462670 0.000000 
#    z 0.000000 0.000000 1.427110 
# 
# From -- ./inp_files/10097.got.cif
#   From: 2010.05.17/outbox.cif.g08.bks.cpg/sg71_6_cif.got.tgz:10097.got - 2010.06.03 16:22:01.
