data_PCOD9524348
_publ_section_title
;
Structure prediction by ZEFSAII (Michael W. Deem and Ramdas Pophale) SiO2 
 PCOD9524348
Probable space group: I M M M
;
_chemical_formula_sum "Si O2"
_cell_formula_units_Z 96
_cell_length_a 29.579604
_cell_length_b 9.038652
_cell_length_c 28.892376
_cell_angle_alpha 90.000000
_cell_angle_beta 90.000000
_cell_angle_gamma 90.000000
_cell_volume 7724.658333
_symmetry_space_group_name_H-M "I M M M"
_symmetry_group_IT_number 71
_symmetry_cell_setting 'orthorhombic'
loop_
_space_group_symop_operation_xyz
x,y,z
-x,-y,z
x,-y,-z
-x,y,-z
-x,-y,-z
x,y,-z
-x,y,z
x,-y,z
1/2+x,1/2+y,1/2+z
1/2-x,1/2-y,1/2+z
1/2+x,1/2-y,1/2-z
1/2-x,1/2+y,1/2-z
1/2-x,1/2-y,1/2-z
1/2+x,1/2+y,1/2-z
1/2-x,1/2+y,1/2+z
1/2+x,1/2-y,1/2+z
loop_
_atom_site_type_symbol
_atom_site_label
_atom_site_fract_x
_atom_site_fract_y
_atom_site_fract_z
Si Si1 0.282435 0.821943 0.594072
Si Si2 0.807202 0.176972 0.000000
Si Si3 0.906792 0.677699 0.000000
Si Si4 0.228041 0.827595 0.680667
Si Si5 0.553229 0.674902 0.408658
Si Si6 0.373755 0.822068 0.346297
Si Si7 0.679374 0.827534 0.740838
O O1 0.282897 0.735729 0.546166
O O2 0.243201 0.774130 0.629962
O O3 0.330592 0.796565 0.619904
O O4 0.279103 0.000000 0.587029
O O5 0.856785 0.252257 0.000000
O O6 0.811226 0.000000 0.000000
O O7 0.932247 0.736585 0.954591
O O8 0.903787 0.500000 0.000000
O O9 0.274282 0.816568 0.710839
O O10 0.189525 0.749690 0.710635
O O11 0.217042 0.000000 0.676803
O O12 0.500000 0.694263 0.400207
O O13 0.562114 0.500000 0.415568
O O14 0.583838 0.737913 0.367370
O O15 0.358900 0.772866 0.294744
O O16 0.380996 0.000000 0.345747
O O17 0.671107 0.000000 0.749165
#
# Coordination Sequence:
#
# PCOD9524348 Si02
#       7
#    16   8   8  16  16  16  16
#     4   9  17  29  42  55  74  99 124 151 184 224
#     4  12  22  29  41  60  76  95 126 160 195 229
#     4  12  23  35  48  57  68  92 124 156 196 245
#     4   8  14  24  38  56  75  96 118 141 175 217
#     4  11  23  35  45  59  76  91 117 161 202 234
#     4   9  17  29  44  58  73  97 123 147 183 232
#     4   8  14  24  38  57  77  94 115 143 175 214
#
# _framework density 12.427733
#
# number of rings (size 3 to 8) (size 9 to 14) (size 15 to 20)
#    0.000    2.500    1.667    4.250    0.000    3.667 
#    0.000    3.333    0.000    0.000    0.000    0.000 
#    0.000    0.000    0.000    0.000    0.000    0.000 
#
# Total GULP energy -267342.558962 kJ/mol
# GULP energy per Si atom -5569.636645 kJ/mol
# Density = 1.239945 g / cm^3
# Si number density = 12.427733 Si / 1000 Ang^3
#
#
#
# Elastic Constant Matrix: (Units=GPa)
#
#
# Indices 1 2 3 4 5 6 
#
# 1 44.3966 34.2018 52.4059 0.0000 0.0000 0.0000
# 2 34.2018 60.0396 55.6162 0.0000 0.0000 0.0000
# 3 52.4059 55.6162 100.4120 0.0000 0.0000 0.0000
# 4 0.0000 0.0000 0.0000 20.7398 0.0000 0.0000
# 5 0.0000 0.0000 0.0000 0.0000 5.3913 0.0000
# 6 0.0000 0.0000 0.0000 0.0000 0.0000 16.1865
#
#
#
# Elastic Compliance Matrix: (Units=1/GPa)
#
#
# Indices 1 2 3 4 5 6 
#
# 1 0.061998 -0.010975 -0.026279 0.000000 0.000000 0.000000
# 2 -0.010975 0.036149 -0.014294 0.000000 0.000000 0.000000
# 3 -0.026279 -0.014294 0.031591 0.000000 0.000000 0.000000
# 4 0.000000 0.000000 0.000000 0.048217 0.000000 0.000000
# 5 0.000000 0.000000 0.000000 0.000000 0.185483 0.000000
# 6 0.000000 0.000000 0.000000 0.000000 0.000000 0.061780
#
#
# Mechanical properties :
#
#
# Convention : Reuss Voigt Hill
#
# Bulk Modulus (GPa) = 37.53363 54.36621 45.94992
# Shear Modulus (GPa) = 9.30763 12.63847 10.97305
#
# Velocity S-wave (km/s) = 2.73965 3.19244 2.97467
# Velocity P-wave (km/s) = 6.34623 7.57824 6.98943
#
# Compressibility (1/GPa) = 0.02664277
#
# Stress axis : x y z
#
# Youngs Moduli (GPa) = 16.12942 27.66365 31.65444
#
# Poissons Ratio (x) = 0.30361 0.83184
# Poissons Ratio (y) = 0.17702 0.45247
# Poissons Ratio (z) = 0.42386 0.39542
#
# Static dielectric constant tensor:
#      x y z
#    x 1.384460 0.000000 0.000000 
#    y 0.000000 1.415680 0.000000 
#    z 0.000000 0.000000 1.418960 
# 
# From -- ./inp_files/71251.got.cif
#   From: 2010.05.17/outbox.cif.g08.bks.cpg/sg71_36_cif.got.tgz:71251.got - 2010.06.03 16:22:01.
