data_PCOD9524337
_publ_section_title
;
Structure prediction by ZEFSAII (Michael W. Deem and Ramdas Pophale) SiO2 
 PCOD9524337
Probable space group: I M M M
;
_chemical_formula_sum "Si O2"
_cell_formula_units_Z 54
_cell_length_a 10.919965
_cell_length_b 7.911116
_cell_length_c 31.433890
_cell_angle_alpha 90.000000
_cell_angle_beta 90.000000
_cell_angle_gamma 90.000000
_cell_volume 2715.545776
_symmetry_space_group_name_H-M "I M M M"
_symmetry_group_IT_number 71
_symmetry_cell_setting 'orthorhombic'
loop_
_space_group_symop_operation_xyz
x,y,z
-x,-y,z
x,-y,-z
-x,y,-z
-x,-y,-z
x,y,-z
-x,y,z
x,-y,z
1/2+x,1/2+y,1/2+z
1/2-x,1/2-y,1/2+z
1/2+x,1/2-y,1/2-z
1/2-x,1/2+y,1/2-z
1/2-x,1/2-y,1/2-z
1/2+x,1/2+y,1/2-z
1/2-x,1/2+y,1/2+z
1/2+x,1/2-y,1/2+z
loop_
_atom_site_type_symbol
_atom_site_label
_atom_site_fract_x
_atom_site_fract_y
_atom_site_fract_z
Si Si1 0.500000 0.305453 0.351686
Si Si2 0.500000 0.000000 0.420205
Si Si3 0.271580 0.500000 0.067988
Si Si4 0.237966 0.701609 0.798963
Si Si5 0.000000 0.000000 0.500000
Si Si6 0.858425 0.311510 0.378323
O O1 0.500000 0.500000 0.366906
O O2 0.500000 0.164730 0.388913
O O3 0.617097 0.274503 0.321537
O O4 0.371264 0.000000 0.445830
O O5 0.387972 0.500000 0.036336
O O6 0.287601 0.333628 0.096940
O O7 0.236090 0.500000 0.802666
O O8 0.250000 0.750000 0.750000
O O9 0.345681 0.775356 0.828282
O O10 0.812193 0.500000 0.387729
O O11 0.000000 0.303263 0.390938
#
# Coordination Sequence:
#
# PCOD9524337 Si02
#       6
#     8   4   8  16   2  16
#     4  12  22  40  62  90 128 179 235 280 341 411
#     4  12  24  43  72 100 136 182 226 284 346 447
#     4  12  24  47  73 104 141 174 227 290 355 431
#     4  12  24  39  58  92 137 182 239 295 343 400
#     4  12  28  50  82 108 140 180 228 304 370 450
#     4  11  22  40  67  97 130 181 232 277 347 417
#
# _framework density 19.885505999999999
#
# number of rings (size 3 to 8) (size 9 to 14) (size 15 to 20)
#    0.000    0.296    7.407    2.667    2.074    0.296 
#    0.000    1.481    0.000    0.000    0.000    3.111 
#    0.000    0.000    0.000    0.000    0.000    0.000 
#
# Total GULP energy -150546.086911 kJ/mol
# GULP energy per Si atom -5575.780997 kJ/mol
# Density = 1.984025 g / cm^3
# Si number density = 19.885506 Si / 1000 Ang^3
#
#
#
# Elastic Constant Matrix: (Units=GPa)
#
#
# Indices 1 2 3 4 5 6 
#
# 1 138.4680 29.5918 32.7913 0.0000 0.0000 0.0000
# 2 29.5918 177.8878 29.0269 0.0000 0.0000 0.0000
# 3 32.7913 29.0269 88.9097 0.0000 0.0000 0.0000
# 4 0.0000 0.0000 0.0000 -14.0480 0.0000 0.0000
# 5 0.0000 0.0000 0.0000 0.0000 33.3233 0.0000
# 6 0.0000 0.0000 0.0000 0.0000 0.0000 -6.9556
#
#
#
# Elastic Compliance Matrix: (Units=1/GPa)
#
#
# Indices 1 2 3 4 5 6 
#
# 1 0.008048 -0.000903 -0.002674 0.000000 0.000000 0.000000
# 2 -0.000903 0.006039 -0.001639 0.000000 0.000000 0.000000
# 3 -0.002674 -0.001639 0.012768 0.000000 0.000000 0.000000
# 4 0.000000 0.000000 0.000000 -0.071185 0.000000 0.000000
# 5 0.000000 0.000000 0.000000 0.000000 0.030009 0.000000
# 6 0.000000 0.000000 0.000000 0.000000 0.000000 -0.143769
#
#
# Mechanical properties :
#
#
# Convention : Reuss Voigt Hill
#
# Bulk Modulus (GPa) = 60.87996 65.34283 63.11139
# Shear Modulus (GPa) = -35.16552 23.38766 -5.88893
#
# Velocity S-wave (km/s) = -4.20980 3.43318 -1.72274
# Velocity P-wave (km/s) = 2.65553 6.97470 5.27723
#
# Compressibility (1/GPa) = 0.01642577
#
# Stress axis : x y z
#
# Youngs Moduli (GPa) = 124.25614 165.58873 78.31826
#
# Poissons Ratio (x) = 0.14945 0.20939
# Poissons Ratio (y) = 0.11214 0.12834
# Poissons Ratio (z) = 0.33220 0.27136
#
# Static dielectric constant tensor:
#      x y z
#    x 1.769350 0.000000 0.000000 
#    y 0.000000 1.688730 0.000000 
#    z 0.000000 0.000000 1.666090 
# 
# From -- ./inp_files/68750.got.cif
#   From: 2010.05.17/outbox.cif.g08.bks.cpg/sg71_35_cif.got.tgz:68750.got - 2010.06.03 16:22:01.
