data_PCOD9524668
_publ_section_title
;
Structure prediction by ZEFSAII (Michael W. Deem and Ramdas Pophale) SiO2 
 PCOD9524668
Probable space group: I M M M
;
_chemical_formula_sum "Si O2"
_cell_formula_units_Z 32
_cell_length_a 9.000000
_cell_length_b 27.000000
_cell_length_c 18.000000
_cell_angle_alpha 90.000000
_cell_angle_beta 90.000000
_cell_angle_gamma 90.000000
_cell_volume 4374.000000
_symmetry_space_group_name_H-M "I M M M"
_symmetry_group_IT_number 71
_symmetry_cell_setting 'orthorhombic'
loop_
_space_group_symop_operation_xyz
x,y,z
-x,-y,z
x,-y,-z
-x,y,-z
-x,-y,-z
x,y,-z
-x,y,z
x,-y,z
1/2+x,1/2+y,1/2+z
1/2-x,1/2-y,1/2+z
1/2+x,1/2-y,1/2-z
1/2-x,1/2+y,1/2-z
1/2-x,1/2-y,1/2-z
1/2+x,1/2+y,1/2-z
1/2-x,1/2+y,1/2+z
1/2+x,1/2-y,1/2+z
loop_
_atom_site_type_symbol
_atom_site_label
_atom_site_fract_x
_atom_site_fract_y
_atom_site_fract_z
Si Si1 0.674117 0.763309 0.911743
Si Si2 0.321356 0.796192 0.704155
Si Si3 0.175895 0.441462 0.587130
Si Si4 0.177538 0.854668 0.826201
O O1 0.500000 0.764497 0.888817
O O2 0.756075 0.715699 0.876724
O O3 0.756167 0.812156 0.880601
O O4 0.680529 0.763082 0.000000
O O5 0.500000 0.795097 0.705563
O O6 0.250000 0.750000 0.750000
O O7 0.255540 0.843359 0.747096
O O8 0.207776 0.431324 0.500000
O O9 0.199464 0.500000 0.599545
O O10 0.272983 0.406664 0.639217
O O11 0.000000 0.431089 0.598605
O O12 0.000000 0.849837 0.820734
#
# Coordination Sequence:
#
# PCOD9524668 Si02
#       4
#    16  16  16  16
#     4  10  19  30  44  62  86 114 143 175 212 254
#     4  10  18  29  44  60  82 110 142 177 211 250
#     4   9  18  32  47  62  83 112 145 180 216 252
#     4  11  20  29  43  62  86 114 145 178 212 252
#
# _framework density 7.3159580000000002
#
# number of rings (size 3 to 8) (size 9 to 14) (size 15 to 20)
#    0.000    2.000    0.000    9.750    0.000    6.000 
#    0.000    1.250    0.000    0.000    0.000    0.000 
#    0.000    1.000    0.000   10.500    0.000    4.500 
#
# Total GULP energy -178395.647575 kJ/mol
# GULP energy per Si atom -5574.863987 kJ/mol
# Density = 0.729931 g / cm^3
# Si number density = 7.315958 Si / 1000 Ang^3
#
#
#
# Elastic Constant Matrix: (Units=GPa)
#
#
# Indices 1 2 3 4 5 6 
#
# 1 138.5386 36.5196 32.9384 0.0000 0.0000 0.0000
# 2 36.5196 46.1595 20.7363 0.0000 0.0000 0.0000
# 3 32.9384 20.7363 45.0497 -0.0001 0.0000 0.0000
# 4 0.0000 0.0000 -0.0001 27.6098 0.0000 0.0000
# 5 0.0000 0.0000 0.0000 0.0000 24.2630 0.0000
# 6 0.0000 0.0000 0.0000 0.0000 0.0000 24.7500
#
#
#
# Elastic Compliance Matrix: (Units=1/GPa)
#
#
# Indices 1 2 3 4 5 6 
#
# 1 0.009804 -0.005719 -0.004536 0.000000 0.000000 0.000000
# 2 -0.005719 0.030648 -0.009926 0.000000 0.000000 0.000000
# 3 -0.004536 -0.009926 0.030083 0.000000 0.000000 0.000000
# 4 0.000000 0.000000 0.000000 0.036219 0.000000 0.000000
# 5 0.000000 0.000000 0.000000 0.000000 0.041215 0.000000
# 6 0.000000 0.000000 0.000000 0.000000 0.000000 0.040404
#
#
# Mechanical properties :
#
#
# Convention : Reuss Voigt Hill
#
# Bulk Modulus (GPa) = 33.14151 45.57071 39.35611
# Shear Modulus (GPa) = 20.93876 24.62814 22.78345
#
# Velocity S-wave (km/s) = 3.78700 4.10711 3.95030
# Velocity P-wave (km/s) = 6.46693 7.32826 6.91103
#
# Compressibility (1/GPa) = 0.03017364
#
# Stress axis : x y z
#
# Youngs Moduli (GPa) = 101.99684 32.62905 33.24143
#
# Poissons Ratio (x) = 0.18661 0.15078
# Poissons Ratio (y) = 0.58332 0.32994
# Poissons Ratio (z) = 0.46265 0.32386
#
# Static dielectric constant tensor:
#      x y z
#    x 1.487270 0.000000 0.000000 
#    y 0.000000 1.484980 0.000000 
#    z 0.000000 0.000000 1.533400 
# 
# From -- ./inp_files/7805.got.cif
#   From: 2010.05.17/outbox.ucp.g08.bks.cvg/sg71_4_cif.got.tgz:7805.got - 2010.06.11 16:29:00.
