data_PCOD9524699
_publ_section_title
;
Structure prediction by ZEFSAII (Michael W. Deem and Ramdas Pophale) SiO2 
 PCOD9524699
Probable space group: I M M M
;
_chemical_formula_sum "Si O2"
_cell_formula_units_Z 36
_cell_length_a 12.000000
_cell_length_b 27.000000
_cell_length_c 12.000000
_cell_angle_alpha 90.000000
_cell_angle_beta 90.000000
_cell_angle_gamma 90.000000
_cell_volume 3888.000000
_symmetry_space_group_name_H-M "I M M M"
_symmetry_group_IT_number 71
_symmetry_cell_setting 'orthorhombic'
loop_
_space_group_symop_operation_xyz
x,y,z
-x,-y,z
x,-y,-z
-x,y,-z
-x,-y,-z
x,y,-z
-x,y,z
x,-y,z
1/2+x,1/2+y,1/2+z
1/2-x,1/2-y,1/2+z
1/2+x,1/2-y,1/2-z
1/2-x,1/2+y,1/2-z
1/2-x,1/2-y,1/2-z
1/2+x,1/2+y,1/2-z
1/2-x,1/2+y,1/2+z
1/2+x,1/2-y,1/2+z
loop_
_atom_site_type_symbol
_atom_site_label
_atom_site_fract_x
_atom_site_fract_y
_atom_site_fract_z
Si Si1 0.695281 0.175908 0.796671
Si Si2 0.878067 0.754459 0.879995
Si Si3 0.500000 0.106465 0.121859
Si Si4 0.244564 0.597646 0.124846
Si Si5 0.127118 0.000000 0.364521
Si Si6 0.500000 0.057220 0.655249
O O1 0.781063 0.205752 0.871162
O O2 0.633165 0.216051 0.719931
O O3 0.606961 0.141477 0.858270
O O4 0.761238 0.141957 0.709226
O O5 0.000000 0.778050 0.874086
O O6 0.869662 0.728050 0.000000
O O7 0.500000 0.063665 0.212416
O O8 0.500000 0.085694 0.000000
O O9 0.306716 0.548931 0.168226
O O10 0.113009 0.584411 0.119272
O O11 0.283778 0.608981 0.000000
O O12 0.127759 0.000000 0.500000
O O13 0.000000 0.000000 0.326667
O O14 0.500000 0.000000 0.622043
#
# Coordination Sequence:
#
# PCOD9524699 Si02
#       6
#    16  16   8  16   8   8
#     4  10  20  34  52  76 103 134 172 210 256 312
#     4  10  20  35  54  75 101 134 173 216 257 301
#     4  10  20  34  51  74 104 137 167 210 260 305
#     4  10  19  31  50  75 104 134 166 209 254 301
#     4   9  18  31  47  69  99 135 166 198 246 298
#     4  10  19  31  50  77 103 130 173 209 251 303
#
# _framework density 9.2592590000000001
#
# number of rings (size 3 to 8) (size 9 to 14) (size 15 to 20)
#    0.000    2.111    2.222    1.667    0.000    1.556 
#    0.000    0.000    0.000    0.000    0.000    0.000 
#    0.000    7.111    0.000    0.000    0.000    0.000 
#
# Total GULP energy -200561.013180 kJ/mol
# GULP energy per Si atom -5571.139255 kJ/mol
# Density = 0.923818 g / cm^3
# Si number density = 9.259259 Si / 1000 Ang^3
#
#
#
# Elastic Constant Matrix: (Units=GPa)
#
#
# Indices 1 2 3 4 5 6 
#
# 1 71.9773 7.1302 12.5547 0.0000 0.0000 0.0000
# 2 7.1302 38.1306 13.5053 0.0000 0.0000 0.0000
# 3 12.5547 13.5053 98.3197 -0.0001 -0.0002 0.0001
# 4 0.0000 0.0000 -0.0001 11.8636 -0.0001 0.0000
# 5 0.0000 0.0000 -0.0002 -0.0001 3.3528 0.0000
# 6 0.0000 0.0000 0.0001 0.0000 0.0000 -7.8941
#
#
#
# Elastic Compliance Matrix: (Units=1/GPa)
#
#
# Indices 1 2 3 4 5 6 
#
# 1 0.014374 -0.002142 -0.001541 0.000000 0.000000 0.000000
# 2 -0.002142 0.027886 -0.003557 0.000000 0.000000 0.000000
# 3 -0.001541 -0.003557 0.010856 0.000000 0.000001 0.000000
# 4 0.000000 0.000000 0.000000 0.084292 0.000002 0.000000
# 5 0.000000 0.000000 0.000001 0.000002 0.298258 0.000001
# 6 0.000000 0.000000 0.000000 0.000000 0.000001 -0.126678
#
#
# Mechanical properties :
#
#
# Convention : Reuss Voigt Hill
#
# Bulk Modulus (GPa) = 25.88247 30.53422 28.20834
# Shear Modulus (GPa) = 14.86556 13.14695 14.00626
#
# Velocity S-wave (km/s) = 2.83634 2.66735 2.75314
# Velocity P-wave (km/s) = 4.97326 5.10006 5.03706
#
# Compressibility (1/GPa) = 0.03863618
#
# Stress axis : x y z
#
# Youngs Moduli (GPa) = 69.56858 35.86025 92.11248
#
# Poissons Ratio (x) = 0.07681 0.14197
# Poissons Ratio (y) = 0.14902 0.32764
# Poissons Ratio (z) = 0.10722 0.12755
#
# Static dielectric constant tensor:
#      x y z
#    x 1.626300 0.000000 0.000000 
#    y 0.000000 1.602680 0.000000 
#    z 0.000000 0.000000 1.666590 
# 
# From -- ./inp_files/19888.got.cif
#   From: 2010.05.17/outbox.ucp.g08.bks.cvg/sg71_10_cif.got.tgz:19888.got - 2010.06.11 16:29:00.
