data_PCOD9524154
_publ_section_title
;
Structure prediction by ZEFSAII (Michael W. Deem and Ramdas Pophale) SiO2 
 PCOD9524154
Probable space group: I M M M
;
_chemical_formula_sum "Si O2"
_cell_formula_units_Z 72
_cell_length_a 31.236223
_cell_length_b 7.695387
_cell_length_c 14.988166
_cell_angle_alpha 90.000000
_cell_angle_beta 90.000000
_cell_angle_gamma 90.000000
_cell_volume 3602.777770
_symmetry_space_group_name_H-M "I M M M"
_symmetry_group_IT_number 71
_symmetry_cell_setting 'orthorhombic'
loop_
_space_group_symop_operation_xyz
x,y,z
-x,-y,z
x,-y,-z
-x,y,-z
-x,-y,-z
x,y,-z
-x,y,z
x,-y,z
1/2+x,1/2+y,1/2+z
1/2-x,1/2-y,1/2+z
1/2+x,1/2-y,1/2-z
1/2-x,1/2+y,1/2-z
1/2-x,1/2-y,1/2-z
1/2+x,1/2+y,1/2-z
1/2-x,1/2+y,1/2+z
1/2+x,1/2-y,1/2+z
loop_
_atom_site_type_symbol
_atom_site_label
_atom_site_fract_x
_atom_site_fract_y
_atom_site_fract_z
Si Si1 0.552099 0.199585 0.500000
Si Si2 0.336513 0.786982 0.000000
Si Si3 0.761413 0.795402 0.000000
Si Si4 0.207680 0.294936 0.193821
Si Si5 0.871755 0.712985 0.309511
Si Si6 0.450908 0.786780 0.695238
O O1 0.500000 0.195176 0.500000
O O2 0.563700 0.274889 0.596375
O O3 0.567729 0.000000 0.500000
O O4 0.287213 0.723245 0.000000
O O5 0.360031 0.732338 0.909497
O O6 0.335830 0.000000 0.000000
O O7 0.785661 0.751092 0.090889
O O8 0.755854 0.000000 0.000000
O O9 0.203219 0.500000 0.197679
O O10 0.250000 0.250000 0.250000
O O11 0.165802 0.223787 0.243337
O O12 0.871659 0.500000 0.309668
O O13 0.917382 0.767052 0.270111
O O14 0.500000 0.733106 0.710632
O O15 0.451149 0.000000 0.691499
#
# Coordination Sequence:
#
# PCOD9524154 Si02
#       6
#     8   8   8  16  16  16
#     4   7  10  17  30  48  74 110 146 183 235 291
#     4   9  16  29  45  62  89 132 167 194 251 312
#     4  11  21  36  54  73 103 139 171 215 267 313
#     4  11  21  34  52  76 103 136 175 215 257 307
#     4   9  17  28  44  65  93 129 169 208 253 306
#     4   8  13  22  37  59  89 125 162 201 248 304
#
# _framework density 19.984580000000001
#
# number of rings (size 3 to 8) (size 9 to 14) (size 15 to 20)
#    0.000    2.778    2.222    2.333    0.000    0.889 
#    0.000    3.889    0.000    3.333    0.000    0.000 
#    0.000    4.444    0.000    2.000    0.000    2.889 
#
# Total GULP energy -200752.135323 kJ/mol
# GULP energy per Si atom -5576.448203 kJ/mol
# Density = 1.993909 g / cm^3
# Si number density = 19.984580 Si / 1000 Ang^3
#
#
#
# Elastic Constant Matrix: (Units=GPa)
#
#
# Indices 1 2 3 4 5 6 
#
# 1 132.3196 4.0857 107.3955 0.0000 0.0000 0.0000
# 2 4.0857 32.8734 8.0735 0.0000 0.0000 0.0000
# 3 107.3955 8.0735 217.1601 0.0000 0.0000 0.0000
# 4 0.0000 0.0000 0.0000 14.2553 0.0000 0.0000
# 5 0.0000 0.0000 0.0000 0.0000 32.6228 0.0000
# 6 0.0000 0.0000 0.0000 0.0000 0.0000 7.6842
#
#
#
# Elastic Compliance Matrix: (Units=1/GPa)
#
#
# Indices 1 2 3 4 5 6 
#
# 1 0.012625 -0.000036 -0.006242 0.000000 0.000000 0.000000
# 2 -0.000036 0.030700 -0.001124 0.000000 0.000000 0.000000
# 3 -0.006242 -0.001124 0.007734 0.000000 0.000000 0.000000
# 4 0.000000 0.000000 0.000000 0.070149 0.000000 0.000000
# 5 0.000000 0.000000 0.000000 0.000000 0.030653 0.000000
# 6 0.000000 0.000000 0.000000 0.000000 0.000000 0.130138
#
#
# Mechanical properties :
#
#
# Convention : Reuss Voigt Hill
#
# Bulk Modulus (GPa) = 27.58228 69.05140 48.31684
# Shear Modulus (GPa) = 16.18709 28.43236 22.30972
#
# Velocity S-wave (km/s) = 2.84910 3.77598 3.34480
# Velocity P-wave (km/s) = 4.96537 7.32380 6.25672
#
# Compressibility (1/GPa) = 0.03625517
#
# Stress axis : x y z
#
# Youngs Moduli (GPa) = 79.20747 32.57316 129.30291
#
# Poissons Ratio (x) = 0.00117 0.80715
# Poissons Ratio (y) = 0.00285 0.14528
# Poissons Ratio (z) = 0.49444 0.03660
#
# Static dielectric constant tensor:
#      x y z
#    x 1.692250 0.000000 0.000000 
#    y 0.000000 1.910760 0.000000 
#    z 0.000000 0.000000 1.698020 
# 
# From -- ./inp_files/40734.got.cif
#   From: 2010.05.17/outbox.cif.g08.bks.cpg/sg71_21_cif.got.tgz:40734.got - 2010.06.03 16:22:01.
