data_PCOD9524377
_publ_section_title
;
Structure prediction by ZEFSAII (Michael W. Deem and Ramdas Pophale) SiO2 
 PCOD9524377
Probable space group: I M M M
;
_chemical_formula_sum "Si O2"
_cell_formula_units_Z 90
_cell_length_a 23.064116
_cell_length_b 24.303730
_cell_length_c 8.102761
_cell_angle_alpha 90.000000
_cell_angle_beta 90.000000
_cell_angle_gamma 90.000000
_cell_volume 4541.954451
_symmetry_space_group_name_H-M "I M M M"
_symmetry_group_IT_number 71
_symmetry_cell_setting 'orthorhombic'
loop_
_space_group_symop_operation_xyz
x,y,z
-x,-y,z
x,-y,-z
-x,y,-z
-x,-y,-z
x,y,-z
-x,y,z
x,-y,z
1/2+x,1/2+y,1/2+z
1/2-x,1/2-y,1/2+z
1/2+x,1/2-y,1/2-z
1/2-x,1/2+y,1/2-z
1/2-x,1/2-y,1/2-z
1/2+x,1/2+y,1/2-z
1/2-x,1/2+y,1/2+z
1/2+x,1/2-y,1/2+z
loop_
_atom_site_type_symbol
_atom_site_label
_atom_site_fract_x
_atom_site_fract_y
_atom_site_fract_z
Si Si1 0.000000 0.588976 0.688050
Si Si2 0.614238 0.858744 0.310803
Si Si3 0.317160 0.249048 0.197418
Si Si4 0.214290 0.563416 0.306019
Si Si5 0.064266 0.065438 0.803006
Si Si6 0.000000 0.500000 0.000000
Si Si7 0.325665 0.628778 0.191551
O O1 0.057977 0.625780 0.705588
O O2 0.000000 0.565050 0.500000
O O3 0.000000 0.547631 0.847610
O O4 0.596121 0.856442 0.500000
O O5 0.646897 0.801986 0.267304
O O6 0.661924 0.906779 0.286410
O O7 0.250000 0.250000 0.250000
O O8 0.338351 0.309435 0.251184
O O9 0.320240 0.244439 0.000000
O O10 0.200105 0.563582 0.500000
O O11 0.222601 0.500000 0.253014
O O12 0.272830 0.598347 0.281318
O O13 0.116363 0.094163 0.711397
O O14 0.000000 0.084274 0.752636
O O15 0.067204 0.000000 0.777361
O O16 0.070419 0.074730 0.000000
O O17 0.308138 0.632511 0.000000
#
# Coordination Sequence:
#
# PCOD9524377 Si02
#       7
#     8  16  16  16  16   2  16
#     4  12  27  49  75 106 145 189 231 294 354 414
#     4  12  25  45  68  98 134 174 229 282 339 411
#     4  11  23  41  65  93 124 171 217 268 332 396
#     4  11  24  39  61  93 128 169 211 262 330 399
#     4   9  19  37  60  85 118 161 206 251 305 377
#     4  12  26  52  76 114 140 188 250 280 348 442
#     4  11  23  38  59  91 125 161 208 264 325 388
#
# _framework density 19.815259000000001
#
# number of rings (size 3 to 8) (size 9 to 14) (size 15 to 20)
#    0.000    1.067    2.667    4.400    1.244    6.400 
#    1.600    0.889    0.000    0.000    0.000    0.000 
#    0.000    0.000    0.000    0.000    0.000    0.000 
#
# Total GULP energy -251154.682563 kJ/mol
# GULP energy per Si atom -5581.215168 kJ/mol
# Density = 1.977016 g / cm^3
# Si number density = 19.815259 Si / 1000 Ang^3
#
#
#
# Elastic Constant Matrix: (Units=GPa)
#
#
# Indices 1 2 3 4 5 6 
#
# 1 95.0338 36.1056 17.7742 0.0000 0.0000 0.0000
# 2 36.1056 113.1295 33.5281 0.0000 0.0000 0.0000
# 3 17.7742 33.5281 75.9706 0.0000 0.0000 0.0000
# 4 0.0000 0.0000 0.0000 30.4599 0.0000 0.0000
# 5 0.0000 0.0000 0.0000 0.0000 32.2659 0.0000
# 6 0.0000 0.0000 0.0000 0.0000 0.0000 1.6612
#
#
#
# Elastic Compliance Matrix: (Units=1/GPa)
#
#
# Indices 1 2 3 4 5 6 
#
# 1 0.012084 -0.003473 -0.001294 0.000000 0.000000 0.000000
# 2 -0.003473 0.011168 -0.004116 0.000000 0.000000 0.000000
# 3 -0.001294 -0.004116 0.015282 0.000000 0.000000 0.000000
# 4 0.000000 0.000000 0.000000 0.032830 0.000000 0.000000
# 5 0.000000 0.000000 0.000000 0.000000 0.030992 0.000000
# 6 0.000000 0.000000 0.000000 0.000000 0.000000 0.601976
#
#
# Mechanical properties :
#
#
# Convention : Reuss Voigt Hill
#
# Bulk Modulus (GPa) = 48.15315 50.99442 49.57379
# Shear Modulus (GPa) = 6.85850 25.99247 16.42548
#
# Velocity S-wave (km/s) = 1.86245 3.62572 2.88224
# Velocity P-wave (km/s) = 5.38319 6.58169 6.01238
#
# Compressibility (1/GPa) = 0.02076707
#
# Stress axis : x y z
#
# Youngs Moduli (GPa) = 82.75287 89.54353 65.43479
#
# Poissons Ratio (x) = 0.31099 0.08470
# Poissons Ratio (y) = 0.28741 0.26934
# Poissons Ratio (z) = 0.10712 0.36857
#
# Static dielectric constant tensor:
#      x y z
#    x 1.692110 0.000000 0.000000 
#    y 0.000000 1.574270 0.000000 
#    z 0.000000 0.000000 1.726710 
# 
# From -- ./inp_files/12608.got.cif
#   From: 2010.05.17/outbox.cif.g08.bks.cpg/sg71_7_cif.got.tgz:12608.got - 2010.06.03 16:22:01.
