data_PCOD9524419
_publ_section_title
;
Structure prediction by ZEFSAII (Michael W. Deem and Ramdas Pophale) SiO2 
 PCOD9524419
Probable space group: I M M M
;
_chemical_formula_sum "Si O2"
_cell_formula_units_Z 72
_cell_length_a 27.894990
_cell_length_b 18.484483
_cell_length_c 7.350817
_cell_angle_alpha 90.000000
_cell_angle_beta 90.000000
_cell_angle_gamma 90.000000
_cell_volume 3790.261108
_symmetry_space_group_name_H-M "I M M M"
_symmetry_group_IT_number 71
_symmetry_cell_setting 'orthorhombic'
loop_
_space_group_symop_operation_xyz
x,y,z
-x,-y,z
x,-y,-z
-x,y,-z
-x,-y,-z
x,y,-z
-x,y,z
x,-y,z
1/2+x,1/2+y,1/2+z
1/2-x,1/2-y,1/2+z
1/2+x,1/2-y,1/2-z
1/2-x,1/2+y,1/2-z
1/2-x,1/2-y,1/2-z
1/2+x,1/2+y,1/2-z
1/2-x,1/2+y,1/2+z
1/2+x,1/2-y,1/2+z
loop_
_atom_site_type_symbol
_atom_site_label
_atom_site_fract_x
_atom_site_fract_y
_atom_site_fract_z
Si Si1 0.804224 0.727615 0.783735
Si Si2 0.399272 0.693716 0.718598
Si Si3 0.150391 0.580014 0.777792
Si Si4 0.057471 0.085423 0.500000
Si Si5 0.053298 0.652776 0.220256
O O1 0.750000 0.750000 0.750000
O O2 0.845251 0.783826 0.722740
O O3 0.816984 0.647099 0.716111
O O4 0.811036 0.724583 0.000000
O O5 0.400750 0.683056 0.500000
O O6 0.430888 0.765112 0.762873
O O7 0.419793 0.626049 0.826638
O O8 0.164268 0.500000 0.717236
O O9 0.096145 0.600232 0.721903
O O10 0.151220 0.579483 0.000000
O O11 0.000000 0.095182 0.500000
O O12 0.067593 0.000000 0.500000
O O13 0.000000 0.636578 0.286401
O O14 0.052396 0.648878 0.000000
#
# Coordination Sequence:
#
# PCOD9524419 Si02
#       5
#    16  16  16   8  16
#     4   9  18  32  54  79 102 138 184 222 271 332
#     4   9  19  36  55  78 111 144 180 233 279 327
#     4   8  14  25  41  67 102 130 159 207 257 302
#     4  11  24  38  56  84 111 145 193 235 289 352
#     4   8  13  23  43  70  98 133 171 201 243 307
#
# _framework density 18.996051999999999
#
# number of rings (size 3 to 8) (size 9 to 14) (size 15 to 20)
#    0.000    3.222    0.000    3.333    1.556    2.222 
#    0.000    4.444    0.000    2.000    0.000    0.000 
#    0.000    8.444    0.000    0.444    0.000    0.000 
#
# Total GULP energy -200739.205405 kJ/mol
# GULP energy per Si atom -5576.089039 kJ/mol
# Density = 1.895282 g / cm^3
# Si number density = 18.996052 Si / 1000 Ang^3
#
#
#
# Elastic Constant Matrix: (Units=GPa)
#
#
# Indices 1 2 3 4 5 6 
#
# 1 147.8045 82.7968 13.4453 0.0000 0.0000 0.0000
# 2 82.7968 155.6873 34.5414 0.0000 0.0000 0.0000
# 3 13.4453 34.5414 81.5885 0.0000 0.0000 0.0000
# 4 0.0000 0.0000 0.0000 -11.1155 0.0000 0.0000
# 5 0.0000 0.0000 0.0000 0.0000 16.3587 0.0000
# 6 0.0000 0.0000 0.0000 0.0000 0.0000 13.5515
#
#
#
# Elastic Compliance Matrix: (Units=1/GPa)
#
#
# Indices 1 2 3 4 5 6 
#
# 1 0.009667 -0.005284 0.000644 0.000000 0.000000 0.000000
# 2 -0.005284 0.009977 -0.003353 0.000000 0.000000 0.000000
# 3 0.000644 -0.003353 0.013570 0.000000 0.000000 0.000000
# 4 0.000000 0.000000 0.000000 -0.089965 0.000000 0.000000
# 5 0.000000 0.000000 0.000000 0.000000 0.061130 0.000000
# 6 0.000000 0.000000 0.000000 0.000000 0.000000 0.073793
#
#
# Mechanical properties :
#
#
# Convention : Reuss Voigt Hill
#
# Bulk Modulus (GPa) = 58.04514 71.84970 64.94742
# Shear Modulus (GPa) = 50.04952 20.71207 35.38079
#
# Velocity S-wave (km/s) = 5.13853 3.30560 4.32039
# Velocity P-wave (km/s) = 8.11349 7.24396 7.69103
#
# Compressibility (1/GPa) = 0.01722797
#
# Stress axis : x y z
#
# Youngs Moduli (GPa) = 103.44397 100.22886 73.69138
#
# Poissons Ratio (x) = 0.52961 -0.04745
# Poissons Ratio (y) = 0.54659 0.24710
# Poissons Ratio (z) = -0.06661 0.33609
#
# Static dielectric constant tensor:
#      x y z
#    x 1.685010 0.000000 0.000000 
#    y 0.000000 1.632980 0.000000 
#    z 0.000000 0.000000 1.747130 
# 
# From -- ./inp_files/8141.got.cif
#   From: 2010.05.17/outbox.cif.g08.bks.cpg/sg71_5_cif.got.tgz:8141.got - 2010.06.03 16:22:01.
