data_PCOD9524719
_publ_section_title
;
Structure prediction by ZEFSAII (Michael W. Deem and Ramdas Pophale) SiO2 
 PCOD9524719
Probable space group: I M M M
;
_chemical_formula_sum "Si O2"
_cell_formula_units_Z 44
_cell_length_a 18.000000
_cell_length_b 30.000000
_cell_length_c 9.000000
_cell_angle_alpha 90.000000
_cell_angle_beta 90.000000
_cell_angle_gamma 90.000000
_cell_volume 4860.000000
_symmetry_space_group_name_H-M "I M M M"
_symmetry_group_IT_number 71
_symmetry_cell_setting 'orthorhombic'
loop_
_space_group_symop_operation_xyz
x,y,z
-x,-y,z
x,-y,-z
-x,y,-z
-x,-y,-z
x,y,-z
-x,y,z
x,-y,z
1/2+x,1/2+y,1/2+z
1/2-x,1/2-y,1/2+z
1/2+x,1/2-y,1/2-z
1/2-x,1/2+y,1/2-z
1/2-x,1/2-y,1/2-z
1/2+x,1/2+y,1/2-z
1/2-x,1/2+y,1/2+z
1/2+x,1/2-y,1/2+z
loop_
_atom_site_type_symbol
_atom_site_label
_atom_site_fract_x
_atom_site_fract_y
_atom_site_fract_z
Si Si1 0.914272 0.616232 0.178561
Si Si2 0.500000 0.550987 0.680602
Si Si3 0.587786 0.699786 0.678366
Si Si4 0.852430 0.895368 0.179794
Si Si5 0.283478 0.948385 0.679377
Si Si6 0.909582 0.291781 0.329017
O O1 0.860901 0.575553 0.219698
O O2 0.886676 0.662796 0.247819
O O3 0.000000 0.608991 0.224440
O O4 0.913413 0.620725 0.000000
O O5 0.500000 0.500000 0.732859
O O6 0.500000 0.550332 0.500000
O O7 0.573906 0.577212 0.724821
O O8 0.591516 0.704074 0.500000
O O9 0.500000 0.692607 0.715095
O O10 0.633908 0.656096 0.722815
O O11 0.613709 0.745812 0.751627
O O12 0.782067 0.919176 0.250947
O O13 0.846893 0.896899 0.000000
O O14 0.277288 0.947543 0.500000
O O15 0.279879 0.000000 0.727197
O O16 0.886258 0.292608 0.500000
O O17 0.000000 0.291547 0.323425
#
# Coordination Sequence:
#
# PCOD9524719 Si02
#       6
#    16   8  16  16  16  16
#     4   9  18  35  58  79 100 133 175 214 257 314
#     4   9  16  28  49  75 101 133 179 225 254 289
#     4   9  16  29  50  76 106 139 178 217 251 295
#     4  10  19  33  53  78 105 139 181 219 256 301
#     4  10  22  38  54  76 107 137 168 215 271 318
#     4   9  17  29  49  79 110 136 166 209 263 314
#
# _framework density 9.0534979999999994
#
# number of rings (size 3 to 8) (size 9 to 14) (size 15 to 20)
#    0.000    2.636    0.909    1.091    0.000    5.091 
#    0.000    3.182    0.000    1.636    0.000    3.818 
#    0.000    0.000    0.000    0.000    0.000    0.000 
#
# Total GULP energy -245383.388989 kJ/mol
# GULP energy per Si atom -5576.895204 kJ/mol
# Density = 0.903289 g / cm^3
# Si number density = 9.053498 Si / 1000 Ang^3
#
#
#
# Elastic Constant Matrix: (Units=GPa)
#
#
# Indices 1 2 3 4 5 6 
#
# 1 81.7696 60.5696 24.9786 -0.0001 -0.0001 0.0009
# 2 60.5696 133.2855 35.4957 -0.0007 -0.0001 0.0003
# 3 24.9786 35.4957 16.4433 -0.0022 0.0040 -0.0011
# 4 -0.0001 -0.0007 -0.0022 22.1709 0.0008 -0.0009
# 5 -0.0001 -0.0001 0.0040 0.0008 20.8426 -0.0008
# 6 0.0009 0.0003 -0.0011 -0.0009 -0.0008 9.3393
#
#
#
# Elastic Compliance Matrix: (Units=1/GPa)
#
#
# Indices 1 2 3 4 5 6 
#
# 1 0.023231 -0.002726 -0.029406 -0.000003 0.000006 -0.000006
# 2 -0.002726 0.017968 -0.034647 -0.000003 0.000007 -0.000005
# 3 -0.029406 -0.034647 0.180275 0.000016 -0.000035 0.000026
# 4 -0.000003 -0.000003 0.000016 0.045104 -0.000002 0.000004
# 5 0.000006 0.000007 -0.000035 -0.000002 0.047979 0.000004
# 6 -0.000006 -0.000005 0.000026 0.000004 0.000004 0.107074
#
#
# Mechanical properties :
#
#
# Convention : Reuss Voigt Hill
#
# Bulk Modulus (GPa) = 11.37420 52.62069 31.99744
# Shear Modulus (GPa) = 8.55439 17.83419 13.19429
#
# Velocity S-wave (km/s) = 2.17592 3.14177 2.70234
# Velocity P-wave (km/s) = 3.55079 6.50269 5.23895
#
# Compressibility (1/GPa) = 0.08791829
#
# Stress axis : x y z
#
# Youngs Moduli (GPa) = 43.04503 55.65314 5.54707
#
# Poissons Ratio (x) = 0.15172 0.16311
# Poissons Ratio (y) = 0.11735 0.19219
# Poissons Ratio (z) = 1.26576 1.92820
#
# Static dielectric constant tensor:
#      x y z
#    x 1.618720 0.000000 0.000000 
#    y 0.000000 1.608790 0.000000 
#    z 0.000000 0.000000 1.611300 
# 
# From -- ./inp_files/8731.got.cif
#   From: 2010.05.17/outbox.ucp.g08.bks.cvg/sg71_5_cif.got.tgz:8731.got - 2010.06.11 16:29:00.
