data_PCOD9524429
_publ_section_title
;
Structure prediction by ZEFSAII (Michael W. Deem and Ramdas Pophale) SiO2 
 PCOD9524429
Probable space group: I M M M
;
_chemical_formula_sum "Si O2"
_cell_formula_units_Z 80
_cell_length_a 8.144595
_cell_length_b 31.578714
_cell_length_c 14.961985
_cell_angle_alpha 90.000000
_cell_angle_beta 90.000000
_cell_angle_gamma 90.000000
_cell_volume 3848.160243
_symmetry_space_group_name_H-M "I M M M"
_symmetry_group_IT_number 71
_symmetry_cell_setting 'orthorhombic'
loop_
_space_group_symop_operation_xyz
x,y,z
-x,-y,z
x,-y,-z
-x,y,-z
-x,-y,-z
x,y,-z
-x,y,z
x,-y,z
1/2+x,1/2+y,1/2+z
1/2-x,1/2-y,1/2+z
1/2+x,1/2-y,1/2-z
1/2-x,1/2+y,1/2-z
1/2-x,1/2-y,1/2-z
1/2+x,1/2+y,1/2-z
1/2-x,1/2+y,1/2+z
1/2+x,1/2-y,1/2+z
loop_
_atom_site_type_symbol
_atom_site_label
_atom_site_fract_x
_atom_site_fract_y
_atom_site_fract_z
Si Si1 0.192773 0.454455 0.108846
Si Si2 0.695547 0.298357 0.251589
Si Si3 0.303543 0.045661 0.893232
Si Si4 0.801248 0.362611 0.897213
Si Si5 0.696981 0.363175 0.398108
O O1 0.265340 0.500000 0.136216
O O2 0.261304 0.408782 0.136131
O O3 0.000000 0.455234 0.135356
O O4 0.195166 0.453553 0.000000
O O5 0.500000 0.298731 0.257302
O O6 0.750000 0.250000 0.250000
O O7 0.747233 0.324352 0.164297
O O8 0.761234 0.325762 0.335442
O O9 0.500000 0.046408 0.882826
O O10 0.236827 0.090248 0.859645
O O11 0.244014 0.000000 0.857647
O O12 0.267755 0.045466 0.000000
O O13 0.000000 0.364786 0.896743
O O14 0.749085 0.356810 0.000000
O O15 0.761128 0.360434 0.500000
O O16 0.500000 0.359980 0.402473
#
# Coordination Sequence:
#
# PCOD9524429 Si02
#       5
#    16  16  16  16  16
#     4   7  10  20  43  75 106 135 170 209 246 292
#     4  11  24  40  57  78 104 135 176 229 282 328
#     4   8  14  26  47  77 110 140 171 210 255 303
#     4   9  18  34  57  83 111 144 179 216 261 314
#     4   9  19  36  56  77 103 138 178 218 263 316
#
# _framework density 20.789154
#
# number of rings (size 3 to 8) (size 9 to 14) (size 15 to 20)
#    0.000    3.200    0.000    3.000    0.000    3.200 
#    0.000    5.000    0.000    4.200    0.000    2.800 
#    0.000    0.000    0.000    0.000    0.000    0.000 
#
# Total GULP energy -222954.748523 kJ/mol
# GULP energy per Si atom -5573.868713 kJ/mol
# Density = 2.074184 g / cm^3
# Si number density = 20.789154 Si / 1000 Ang^3
#
#
#
# Elastic Constant Matrix: (Units=GPa)
#
#
# Indices 1 2 3 4 5 6 
#
# 1 7.2672 20.1684 9.7005 0.0000 0.0000 0.0000
# 2 20.1684 259.0167 87.4758 0.0000 0.0000 0.0000
# 3 9.7005 87.4758 95.4492 -0.0002 0.0000 0.0000
# 4 0.0000 0.0000 -0.0002 40.7142 0.0000 0.0000
# 5 0.0000 0.0000 0.0000 0.0000 10.2788 0.0000
# 6 0.0000 0.0000 0.0000 0.0000 0.0000 23.6760
#
#
#
# Elastic Compliance Matrix: (Units=1/GPa)
#
#
# Indices 1 2 3 4 5 6 
#
# 1 0.179530 -0.011321 -0.007870 0.000000 0.000000 0.000000
# 2 -0.011321 0.006305 -0.004628 0.000000 0.000000 0.000000
# 3 -0.007870 -0.004628 0.015518 0.000000 0.000000 0.000000
# 4 0.000000 0.000000 0.000000 0.024561 0.000000 0.000000
# 5 0.000000 0.000000 0.000000 0.000000 0.097288 0.000000
# 6 0.000000 0.000000 0.000000 0.000000 0.000000 0.042237
#
#
# Mechanical properties :
#
#
# Convention : Reuss Voigt Hill
#
# Bulk Modulus (GPa) = 6.50555 66.26914 36.38735
# Shear Modulus (GPa) = 10.76852 31.22635 20.99744
#
# Velocity S-wave (km/s) = 2.27840 3.87983 3.18153
# Velocity P-wave (km/s) = 3.17137 7.21227 5.57110
#
# Compressibility (1/GPa) = 0.15371482
#
# Stress axis : x y z
#
# Youngs Moduli (GPa) = 5.57010 158.59776 64.44136
#
# Poissons Ratio (x) = 1.79553 0.50716
# Poissons Ratio (y) = 0.06306 0.29823
# Poissons Ratio (z) = 0.04384 0.73399
#
# Static dielectric constant tensor:
#      x y z
#    x 1.744530 0.000000 0.000000 
#    y 0.000000 1.785090 0.000000 
#    z 0.000000 0.000000 1.791000 
# 
# From -- ./inp_files/42375.got.cif
#   From: 2010.05.17/outbox.cif.g08.bks.cpg/sg71_22_cif.got.tgz:42375.got - 2010.06.03 16:22:01.
