data_PCOD9524229
_publ_section_title
;
Structure prediction by ZEFSAII (Michael W. Deem and Ramdas Pophale) SiO2 
 PCOD9524229
Probable space group: I M M M
;
_chemical_formula_sum "Si O2"
_cell_formula_units_Z 112
_cell_length_a 26.275352
_cell_length_b 17.545341
_cell_length_c 13.969460
_cell_angle_alpha 90.000000
_cell_angle_beta 90.000000
_cell_angle_gamma 90.000000
_cell_volume 6440.060905
_symmetry_space_group_name_H-M "I M M M"
_symmetry_group_IT_number 71
_symmetry_cell_setting 'orthorhombic'
loop_
_space_group_symop_operation_xyz
x,y,z
-x,-y,z
x,-y,-z
-x,y,-z
-x,-y,-z
x,y,-z
-x,y,z
x,-y,z
1/2+x,1/2+y,1/2+z
1/2-x,1/2-y,1/2+z
1/2+x,1/2-y,1/2-z
1/2-x,1/2+y,1/2-z
1/2-x,1/2-y,1/2-z
1/2+x,1/2+y,1/2-z
1/2-x,1/2+y,1/2+z
1/2+x,1/2-y,1/2+z
loop_
_atom_site_type_symbol
_atom_site_label
_atom_site_fract_x
_atom_site_fract_y
_atom_site_fract_z
Si Si1 0.555116 0.636981 0.613857
Si Si2 0.261833 0.916233 0.788010
Si Si3 0.697055 0.623711 0.891182
Si Si4 0.833467 0.271471 0.714586
Si Si5 0.054393 0.239818 0.718021
Si Si6 0.579030 0.416261 0.112522
Si Si7 0.333125 0.651959 0.387384
O O1 0.554326 0.644684 0.500000
O O2 0.500000 0.599441 0.639318
O O3 0.554553 0.717248 0.669904
O O4 0.612832 0.609055 0.635867
O O5 0.234840 0.912561 0.684430
O O6 0.302676 0.848925 0.788709
O O7 0.215815 0.897841 0.861074
O O8 0.282979 0.000000 0.805928
O O9 0.690074 0.712170 0.861683
O O10 0.640326 0.589535 0.880863
O O11 0.713529 0.614863 0.000000
O O12 0.893422 0.281523 0.693971
O O13 0.829705 0.224818 0.815573
O O14 0.057909 0.156205 0.668437
O O15 0.000000 0.275033 0.692586
O O16 0.562847 0.500000 0.146807
O O17 0.565968 0.409935 0.000000
O O18 0.333197 0.671588 0.500000
#
# Coordination Sequence:
#
# PCOD9524229 Si02
#       7
#    16  16  16  16  16  16  16
#     4   8  14  26  45  68  91 114 144 182 217 250
#     4  11  22  32  45  68  96 123 153 193 238 279
#     4   9  17  31  50  69  93 126 157 182 216 269
#     4   9  19  33  48  69  93 118 153 195 234 273
#     4   9  17  30  48  66  86 117 154 189 226 271
#     4   9  17  28  43  67  98 125 147 175 215 266
#     4   9  17  31  51  71  93 123 156 188 223 268
#
# _framework density 17.391138999999999
#
# number of rings (size 3 to 8) (size 9 to 14) (size 15 to 20)
#    0.000    2.857    0.000    3.000    0.000    4.000 
#    0.000    0.714    0.000    3.000    0.000    6.000 
#    0.000    0.000    0.000   32.857    0.000    0.143 
#
# Total GULP energy -311745.851366 kJ/mol
# GULP energy per Si atom -5566.890203 kJ/mol
# Density = 1.735156 g / cm^3
# Si number density = 17.391139 Si / 1000 Ang^3
#
#
#
# Elastic Constant Matrix: (Units=GPa)
#
#
# Indices 1 2 3 4 5 6 
#
# 1 101.5812 42.5756 18.5358 0.0000 0.0000 0.0000
# 2 42.5756 68.7018 9.0677 0.0000 0.0000 0.0000
# 3 18.5358 9.0677 43.3608 0.0000 0.0000 0.0000
# 4 0.0000 0.0000 0.0000 1.8912 0.0000 0.0000
# 5 0.0000 0.0000 0.0000 0.0000 12.0695 0.0000
# 6 0.0000 0.0000 0.0000 0.0000 0.0000 -7.4152
#
#
#
# Elastic Compliance Matrix: (Units=1/GPa)
#
#
# Indices 1 2 3 4 5 6 
#
# 1 0.014037 -0.008131 -0.004300 0.000000 0.000000 0.000000
# 2 -0.008131 0.019679 -0.000639 0.000000 0.000000 0.000000
# 3 -0.004300 -0.000639 0.025034 0.000000 0.000000 0.000000
# 4 0.000000 0.000000 0.000000 0.528776 0.000000 0.000000
# 5 0.000000 0.000000 0.000000 0.000000 0.082854 0.000000
# 6 0.000000 0.000000 0.000000 0.000000 0.000000 -0.134859
#
#
# Mechanical properties :
#
#
# Convention : Reuss Voigt Hill
#
# Bulk Modulus (GPa) = 30.66659 39.33355 35.00007
# Shear Modulus (GPa) = 8.73313 10.87341 9.80327
#
# Velocity S-wave (km/s) = 2.24332 2.50317 2.37680
# Velocity P-wave (km/s) = 4.93779 5.56961 5.26319
#
# Compressibility (1/GPa) = 0.03260878
#
# Stress axis : x y z
#
# Youngs Moduli (GPa) = 71.23961 50.81490 39.94539
#
# Poissons Ratio (x) = 0.41320 0.17177
# Poissons Ratio (y) = 0.57928 0.02554
# Poissons Ratio (z) = 0.30634 0.03249
#
# Static dielectric constant tensor:
#      x y z
#    x 1.650310 0.000000 0.000000 
#    y 0.000000 1.563960 0.000000 
#    z 0.000000 0.000000 1.627700 
# 
# From -- ./inp_files/40333.got.cif
#   From: 2010.05.17/outbox.cif.g08.bks.cpg/sg71_21_cif.got.tgz:40333.got - 2010.06.03 16:22:01.
