data_PCOD9524397
_publ_section_title
;
Structure prediction by ZEFSAII (Michael W. Deem and Ramdas Pophale) SiO2 
 PCOD9524397
Probable space group: I M M M
;
_chemical_formula_sum "Si O2"
_cell_formula_units_Z 48
_cell_length_a 8.625096
_cell_length_b 25.308427
_cell_length_c 10.891372
_cell_angle_alpha 90.000000
_cell_angle_beta 90.000000
_cell_angle_gamma 90.000000
_cell_volume 2377.451591
_symmetry_space_group_name_H-M "I M M M"
_symmetry_group_IT_number 71
_symmetry_cell_setting 'orthorhombic'
loop_
_space_group_symop_operation_xyz
x,y,z
-x,-y,z
x,-y,-z
-x,y,-z
-x,-y,-z
x,y,-z
-x,y,z
x,-y,z
1/2+x,1/2+y,1/2+z
1/2-x,1/2-y,1/2+z
1/2+x,1/2-y,1/2-z
1/2-x,1/2+y,1/2-z
1/2-x,1/2-y,1/2-z
1/2+x,1/2+y,1/2-z
1/2-x,1/2+y,1/2+z
1/2+x,1/2-y,1/2+z
loop_
_atom_site_type_symbol
_atom_site_label
_atom_site_fract_x
_atom_site_fract_y
_atom_site_fract_z
Si Si1 0.685843 0.787019 0.641104
Si Si2 0.683868 0.605059 0.753085
Si Si3 0.174156 0.500000 0.856159
Si Si4 0.313985 0.936947 0.000000
O O1 0.737372 0.774668 0.500000
O O2 0.500000 0.783544 0.642134
O O3 0.750000 0.750000 0.750000
O O4 0.738223 0.845827 0.678279
O O5 0.500000 0.612851 0.749608
O O6 0.731643 0.551516 0.820532
O O7 0.748938 0.593986 0.617338
O O8 0.000000 0.500000 0.797746
O O9 0.154775 0.500000 0.000000
O O10 0.500000 0.935715 0.000000
O O11 0.267773 0.000000 0.000000
#
# Coordination Sequence:
#
# PCOD9524397 Si02
#       4
#    16  16   8   8
#     4  11  26  48  73 101 136 179 229 282 340 406
#     4  12  25  41  66  98 135 173 220 277 337 402
#     4  11  23  40  63  92 129 173 219 269 332 401
#     4  11  23  41  67  97 134 180 226 271 332 401
#
# _framework density 20.189685999999998
#
# number of rings (size 3 to 8) (size 9 to 14) (size 15 to 20)
#    0.000    0.667    1.667    6.000    2.333    8.667 
#    0.000    0.000    0.000    0.000    0.000    0.000 
#    0.000    0.000    0.000    0.000    0.000    0.000 
#
# Total GULP energy -134204.829736 kJ/mol
# GULP energy per Si atom -5591.867906 kJ/mol
# Density = 2.014373 g / cm^3
# Si number density = 20.189686 Si / 1000 Ang^3
#
#
#
# Elastic Constant Matrix: (Units=GPa)
#
#
# Indices 1 2 3 4 5 6 
#
# 1 94.5415 20.1984 50.2966 0.0000 0.0000 0.0000
# 2 20.1984 124.2525 64.9918 0.0000 0.0000 0.0000
# 3 50.2966 64.9918 186.7619 0.0000 0.0000 0.0000
# 4 0.0000 0.0000 0.0000 43.9555 0.0000 -0.0001
# 5 0.0000 0.0000 0.0000 0.0000 40.7362 0.0000
# 6 0.0000 0.0000 0.0000 -0.0001 0.0000 53.0350
#
#
#
# Elastic Compliance Matrix: (Units=1/GPa)
#
#
# Indices 1 2 3 4 5 6 
#
# 1 0.012357 -0.000328 -0.003214 0.000000 0.000000 0.000000
# 2 -0.000328 0.009848 -0.003339 0.000000 0.000000 0.000000
# 3 -0.003214 -0.003339 0.007382 0.000000 0.000000 0.000000
# 4 0.000000 0.000000 0.000000 0.022750 0.000000 0.000000
# 5 0.000000 0.000000 0.000000 0.000000 0.024548 0.000000
# 6 0.000000 0.000000 0.000000 0.000000 0.000000 0.018855
#
#
# Mechanical properties :
#
#
# Convention : Reuss Voigt Hill
#
# Bulk Modulus (GPa) = 63.18650 75.16993 69.17822
# Shear Modulus (GPa) = 43.56291 45.54994 44.55642
#
# Velocity S-wave (km/s) = 4.65012 4.75499 4.70285
# Velocity P-wave (km/s) = 7.75860 8.21336 7.98922
#
# Compressibility (1/GPa) = 0.01582616
#
# Stress axis : x y z
#
# Youngs Moduli (GPa) = 80.92462 101.54609 135.46887
#
# Poissons Ratio (x) = 0.03328 0.43538
# Poissons Ratio (y) = 0.02652 0.45229
# Poissons Ratio (z) = 0.26008 0.33903
#
# Static dielectric constant tensor:
#      x y z
#    x 1.688710 0.000000 0.000000 
#    y 0.000000 1.713990 0.000000 
#    z 0.000000 0.000000 1.813290 
# 
# From -- ./inp_files/3060.got.cif
#   From: 2010.05.17/outbox.cif.g08.bks.cpg/sg71_2_cif.got.tgz:3060.got - 2010.06.03 16:22:01.
