data_PCOD9524220
_publ_section_title
;
Structure prediction by ZEFSAII (Michael W. Deem and Ramdas Pophale) SiO2 
 PCOD9524220
Probable space group: I M M M
;
_chemical_formula_sum "Si O2"
_cell_formula_units_Z 56
_cell_length_a 7.386986
_cell_length_b 23.020843
_cell_length_c 17.536493
_cell_angle_alpha 90.000000
_cell_angle_beta 90.000000
_cell_angle_gamma 90.000000
_cell_volume 2982.162091
_symmetry_space_group_name_H-M "I M M M"
_symmetry_group_IT_number 71
_symmetry_cell_setting 'orthorhombic'
loop_
_space_group_symop_operation_xyz
x,y,z
-x,-y,z
x,-y,-z
-x,y,-z
-x,-y,-z
x,y,-z
-x,y,z
x,-y,z
1/2+x,1/2+y,1/2+z
1/2-x,1/2-y,1/2+z
1/2+x,1/2-y,1/2-z
1/2-x,1/2+y,1/2-z
1/2-x,1/2-y,1/2-z
1/2+x,1/2+y,1/2-z
1/2-x,1/2+y,1/2+z
1/2+x,1/2-y,1/2+z
loop_
_atom_site_type_symbol
_atom_site_label
_atom_site_fract_x
_atom_site_fract_y
_atom_site_fract_z
Si Si1 0.712117 0.884603 0.657030
Si Si2 0.500000 0.662815 0.409195
Si Si3 0.500000 0.570395 0.277781
Si Si4 0.287615 0.749146 0.840440
Si Si5 0.794662 0.568341 0.000000
O O1 0.500000 0.898904 0.668763
O O2 0.828629 0.905999 0.728775
O O3 0.731313 0.816331 0.639983
O O4 0.785990 0.913849 0.580266
O O5 0.500000 0.653271 0.500000
O O6 0.500000 0.604101 0.358607
O O7 0.329606 0.702498 0.383100
O O8 0.500000 0.500000 0.282787
O O9 0.500000 0.757582 0.854060
O O10 0.250000 0.750000 0.750000
O O11 0.807135 0.500000 0.000000
O O12 0.000000 0.593718 0.000000
#
# Coordination Sequence:
#
# PCOD9524220 Si02
#       5
#    16   8   8  16   8
#     4  11  21  38  65  95 132 171 214 268 330 396
#     4  12  28  45  67  99 134 176 221 283 343 388
#     4  12  26  44  66  94 125 177 237 275 324 394
#     4  12  21  40  69  99 129 165 212 272 334 398
#     4   9  20  35  53  85 132 175 205 245 311 392
#
# _framework density 18.778324000000001
#
# number of rings (size 3 to 8) (size 9 to 14) (size 15 to 20)
#    0.000    0.714    7.143    0.857    2.000    3.143 
#    0.000    1.429    0.000    0.000    0.000    4.000 
#    0.000    0.000    0.000    0.000    0.000    0.000 
#
# Total GULP energy -156362.321706 kJ/mol
# GULP energy per Si atom -5584.368632 kJ/mol
# Density = 1.873558 g / cm^3
# Si number density = 18.778324 Si / 1000 Ang^3
#
#
#
# Elastic Constant Matrix: (Units=GPa)
#
#
# Indices 1 2 3 4 5 6 
#
# 1 142.7926 30.6805 45.9818 0.0000 0.0000 0.0000
# 2 30.6805 122.7479 54.9983 0.0000 0.0000 0.0000
# 3 45.9818 54.9983 160.2075 0.0000 -0.0001 0.0000
# 4 0.0000 0.0000 0.0000 36.5855 0.0000 0.0000
# 5 0.0000 0.0000 -0.0001 0.0000 28.7866 0.0000
# 6 0.0000 0.0000 0.0000 0.0000 0.0000 18.7963
#
#
#
# Elastic Compliance Matrix: (Units=1/GPa)
#
#
# Indices 1 2 3 4 5 6 
#
# 1 0.007846 -0.001125 -0.001866 0.000000 0.000000 0.000000
# 2 -0.001125 0.009789 -0.003038 0.000000 0.000000 0.000000
# 3 -0.001866 -0.003038 0.007820 0.000000 0.000000 0.000000
# 4 0.000000 0.000000 0.000000 0.027333 0.000000 0.000000
# 5 0.000000 0.000000 0.000000 0.000000 0.034738 0.000000
# 6 0.000000 0.000000 0.000000 0.000000 0.000000 0.053202
#
#
# Mechanical properties :
#
#
# Convention : Reuss Voigt Hill
#
# Bulk Modulus (GPa) = 74.63654 76.56325 75.59989
# Shear Modulus (GPa) = 31.79628 36.43950 34.11789
#
# Velocity S-wave (km/s) = 4.11937 4.40990 4.26711
# Velocity P-wave (km/s) = 7.90304 8.17253 8.03891
#
# Compressibility (1/GPa) = 0.01339826
#
# Stress axis : x y z
#
# Youngs Moduli (GPa) = 127.45911 102.15529 127.87504
#
# Poissons Ratio (x) = 0.11494 0.23856
# Poissons Ratio (y) = 0.14341 0.38843
# Poissons Ratio (z) = 0.23778 0.31031
#
# Static dielectric constant tensor:
#      x y z
#    x 1.704660 0.000000 0.000000 
#    y 0.000000 1.893580 0.000000 
#    z 0.000000 0.000000 1.632530 
# 
# From -- ./inp_files/31003.got.cif
#   From: 2010.05.17/outbox.cif.g08.bks.cpg/sg71_16_cif.got.tgz:31003.got - 2010.06.03 16:22:01.
