data_PCOD9524606
_publ_section_title
;
Structure prediction by ZEFSAII (Michael W. Deem and Ramdas Pophale) SiO2 
 PCOD9524606
Probable space group: I M M M
;
_chemical_formula_sum "Si O2"
_cell_formula_units_Z 88
_cell_length_a 7.901713
_cell_length_b 18.867251
_cell_length_c 27.268334
_cell_angle_alpha 90.000000
_cell_angle_beta 90.000000
_cell_angle_gamma 90.000000
_cell_volume 4065.261467
_symmetry_space_group_name_H-M "I M M M"
_symmetry_group_IT_number 71
_symmetry_cell_setting 'orthorhombic'
loop_
_space_group_symop_operation_xyz
x,y,z
-x,-y,z
x,-y,-z
-x,y,-z
-x,-y,-z
x,y,-z
-x,y,z
x,-y,z
1/2+x,1/2+y,1/2+z
1/2-x,1/2-y,1/2+z
1/2+x,1/2-y,1/2-z
1/2-x,1/2+y,1/2-z
1/2-x,1/2-y,1/2-z
1/2+x,1/2+y,1/2-z
1/2-x,1/2+y,1/2+z
1/2+x,1/2-y,1/2+z
loop_
_atom_site_type_symbol
_atom_site_label
_atom_site_fract_x
_atom_site_fract_y
_atom_site_fract_z
Si Si1 0.807698 0.180000 0.058041
Si Si2 0.200709 0.717628 0.697279
Si Si3 0.702563 0.577272 0.739862
Si Si4 0.796515 0.140236 0.343309
Si Si5 0.296942 0.155704 0.553448
Si Si6 0.500000 0.082963 0.060289
O O1 0.744616 0.261582 0.058929
O O2 0.666116 0.126295 0.077815
O O3 0.000000 0.174358 0.078411
O O4 0.822117 0.163780 0.000000
O O5 0.250000 0.750000 0.750000
O O6 0.261607 0.637728 0.700249
O O7 0.268347 0.778256 0.661303
O O8 0.000000 0.715686 0.692395
O O9 0.500000 0.573962 0.744008
O O10 0.769121 0.500000 0.726957
O O11 0.765520 0.599786 0.794547
O O12 0.753055 0.114372 0.397508
O O13 0.000000 0.141309 0.339975
O O14 0.235434 0.130272 0.500000
O O15 0.500000 0.156854 0.551806
O O16 0.500000 0.000000 0.074069
O O17 0.500000 0.085308 0.000000
#
# Coordination Sequence:
#
# PCOD9524606 Si02
#       6
#    16  16  16  16  16   8
#     4   8  15  27  40  58  85 114 150 200 252 296
#     4   9  17  30  48  74 105 133 167 208 252 305
#     4   9  18  33  52  76 108 140 169 206 254 309
#     4   9  18  30  48  76 103 131 169 212 256 303
#     4   9  18  31  47  69  96 127 166 215 264 301
#     4   9  16  24  38  60  80 106 145 187 241 303
#
# _framework density 21.646823000000001
#
# number of rings (size 3 to 8) (size 9 to 14) (size 15 to 20)
#    0.000    3.182    0.000    2.727    1.273    4.727 
#    0.000    1.818    0.000    1.636    0.000    3.818 
#    0.000    0.000    0.000    0.000    0.000    0.000 
#
# Total GULP energy -245091.199558 kJ/mol
# GULP energy per Si atom -5570.254535 kJ/mol
# Density = 2.159755 g / cm^3
# Si number density = 21.646823 Si / 1000 Ang^3
#
#
#
# Elastic Constant Matrix: (Units=GPa)
#
#
# Indices 1 2 3 4 5 6 
#
# 1 36.2732 3.0169 -13.4355 0.0000 0.0000 0.0000
# 2 3.0169 42.7673 -17.3113 0.0000 0.0000 0.0000
# 3 -13.4355 -17.3113 61.9133 0.0000 0.0000 0.0000
# 4 0.0000 0.0000 0.0000 8.3850 0.0000 0.0000
# 5 0.0000 0.0000 0.0000 0.0000 15.8624 0.0000
# 6 0.0000 0.0000 0.0000 0.0000 0.0000 15.6536
#
#
#
# Elastic Compliance Matrix: (Units=1/GPa)
#
#
# Indices 1 2 3 4 5 6 
#
# 1 0.029991 0.000585 0.006672 0.000000 0.000000 0.000000
# 2 0.000585 0.026378 0.007502 0.000000 0.000000 0.000000
# 3 0.006672 0.007502 0.019697 0.000000 0.000000 0.000000
# 4 0.000000 0.000000 0.000000 0.119260 0.000000 0.000000
# 5 0.000000 0.000000 0.000000 0.000000 0.063042 0.000000
# 6 0.000000 0.000000 0.000000 0.000000 0.000000 0.063883
#
#
# Mechanical properties :
#
#
# Convention : Reuss Voigt Hill
#
# Bulk Modulus (GPa) = 9.47109 9.49932 9.48520
# Shear Modulus (GPa) = 15.24727 19.22580 17.23653
#
# Velocity S-wave (km/s) = 2.65687 2.98343 2.82487
# Velocity P-wave (km/s) = 3.71439 4.03307 3.87701
#
# Compressibility (1/GPa) = 0.10558447
#
# Stress axis : x y z
#
# Youngs Moduli (GPa) = 33.34320 37.91058 50.76876
#
# Poissons Ratio (x) = -0.02218 -0.33872
# Poissons Ratio (y) = -0.01951 -0.38088
# Poissons Ratio (z) = -0.22246 -0.28442
#
# Static dielectric constant tensor:
#      x y z
#    x 1.788920 0.000000 0.000000 
#    y 0.000000 1.803480 0.000000 
#    z 0.000000 0.000000 1.831120 
# 
# From -- ./inp_files/49209.got.cif
#   From: 2010.05.17/outbox.cif.g08.bks.cpg/sg71_25_cif.got.tgz:49209.got - 2010.06.03 16:22:01.
