data_PCOD9524357
_publ_section_title
;
Structure prediction by ZEFSAII (Michael W. Deem and Ramdas Pophale) SiO2 
 PCOD9524357
Probable space group: I M M M
;
_chemical_formula_sum "Si O2"
_cell_formula_units_Z 68
_cell_length_a 22.398892
_cell_length_b 13.180935
_cell_length_c 10.758022
_cell_angle_alpha 90.000000
_cell_angle_beta 90.000000
_cell_angle_gamma 90.000000
_cell_volume 3176.180552
_symmetry_space_group_name_H-M "I M M M"
_symmetry_group_IT_number 71
_symmetry_cell_setting 'orthorhombic'
loop_
_space_group_symop_operation_xyz
x,y,z
-x,-y,z
x,-y,-z
-x,y,-z
-x,-y,-z
x,y,-z
-x,y,z
x,-y,z
1/2+x,1/2+y,1/2+z
1/2-x,1/2-y,1/2+z
1/2+x,1/2-y,1/2-z
1/2-x,1/2+y,1/2-z
1/2-x,1/2-y,1/2-z
1/2+x,1/2+y,1/2-z
1/2-x,1/2+y,1/2+z
1/2+x,1/2-y,1/2+z
loop_
_atom_site_type_symbol
_atom_site_label
_atom_site_fract_x
_atom_site_fract_y
_atom_site_fract_z
Si Si1 0.761606 0.500000 0.221201
Si Si2 0.428747 0.322453 0.254739
Si Si3 0.072598 0.389042 0.355677
Si Si4 0.641539 0.336942 0.500000
Si Si5 0.254534 0.500000 0.500000
Si Si6 0.633830 0.500000 0.864701
Si Si7 0.318457 0.892757 0.500000
O O1 0.780007 0.500000 0.366630
O O2 0.689932 0.500000 0.226813
O O3 0.781919 0.407306 0.130218
O O4 0.500000 0.322926 0.265027
O O5 0.407964 0.208774 0.220398
O O6 0.398004 0.359367 0.380021
O O7 0.406564 0.401420 0.152544
O O8 0.091254 0.381046 0.500000
O O9 0.089916 0.500000 0.305661
O O10 0.000000 0.386855 0.356551
O O11 0.702436 0.400952 0.500000
O O12 0.652721 0.216135 0.500000
O O13 0.662110 0.500000 0.000000
O O14 0.355750 0.000000 0.500000
#
# Coordination Sequence:
#
# PCOD9524357 Si02
#       7
#     8  16  16   8   4   8   8
#     4   9  20  44  66  97 123 159 216 280 336 392
#     4  11  23  36  56  93 133 172 216 256 306 387
#     4   8  15  31  53  76 111 161 210 258 305 349
#     4  12  23  40  66  88 128 176 208 259 325 392
#     4  12  22  40  67 100 122 158 215 264 340 392
#     4  12  21  39  65  92 130 174 215 262 328 391
#     4   8  22  45  69  93 124 164 216 278 336 390
#
# _framework density 21.409362999999999
#
# number of rings (size 3 to 8) (size 9 to 14) (size 15 to 20)
#    0.706    1.176    3.529    2.118    0.000    3.765 
#    0.000    1.765    2.588    3.529    0.000    0.000 
#    0.000    0.000    0.000    0.000    0.000    0.000 
#
# Total GULP energy -189579.867743 kJ/mol
# GULP energy per Si atom -5575.878463 kJ/mol
# Density = 2.136063 g / cm^3
# Si number density = 21.409363 Si / 1000 Ang^3
#
#
#
# Elastic Constant Matrix: (Units=GPa)
#
#
# Indices 1 2 3 4 5 6 
#
# 1 54.8724 11.1668 17.7235 0.0000 0.0000 0.0000
# 2 11.1668 92.6604 10.4893 0.0000 0.0000 0.0000
# 3 17.7235 10.4893 131.1977 0.0000 0.0000 0.0000
# 4 0.0000 0.0000 0.0000 22.0940 0.0000 0.0000
# 5 0.0000 0.0000 0.0000 0.0000 24.5508 0.0000
# 6 0.0000 0.0000 0.0000 0.0000 0.0000 25.3251
#
#
#
# Elastic Compliance Matrix: (Units=1/GPa)
#
#
# Indices 1 2 3 4 5 6 
#
# 1 0.019439 -0.002064 -0.002461 0.000000 0.000000 0.000000
# 2 -0.002064 0.011110 -0.000609 0.000000 0.000000 0.000000
# 3 -0.002461 -0.000609 0.008003 0.000000 0.000000 0.000000
# 4 0.000000 0.000000 0.000000 0.045261 0.000000 0.000000
# 5 0.000000 0.000000 0.000000 0.000000 0.040732 0.000000
# 6 0.000000 0.000000 0.000000 0.000000 0.000000 0.039487
#
#
# Mechanical properties :
#
#
# Convention : Reuss Voigt Hill
#
# Bulk Modulus (GPa) = 35.35668 39.72107 37.53887
# Shear Modulus (GPa) = 27.21407 30.35070 28.78239
#
# Velocity S-wave (km/s) = 3.56916 3.76924 3.67056
# Velocity P-wave (km/s) = 5.79100 6.12668 5.96120
#
# Compressibility (1/GPa) = 0.02828320
#
# Stress axis : x y z
#
# Youngs Moduli (GPa) = 51.44286 90.01041 124.94909
#
# Poissons Ratio (x) = 0.18579 0.30750
# Poissons Ratio (y) = 0.10618 0.07614
# Poissons Ratio (z) = 0.12660 0.05485
#
# Static dielectric constant tensor:
#      x y z
#    x 1.741520 0.000000 0.000000 
#    y 0.000000 1.779600 0.000000 
#    z 0.000000 0.000000 1.807960 
# 
# From -- ./inp_files/28408.got.cif
#   From: 2010.05.17/outbox.cif.g08.bks.cpg/sg71_15_cif.got.tgz:28408.got - 2010.06.03 16:22:01.
