data_PCOD9524621
_publ_section_title
;
Structure prediction by ZEFSAII (Michael W. Deem and Ramdas Pophale) SiO2 
 PCOD9524621
Probable space group: I M M M
;
_chemical_formula_sum "Si O2"
_cell_formula_units_Z 112
_cell_length_a 26.133041
_cell_length_b 27.566500
_cell_length_c 7.371691
_cell_angle_alpha 90.000000
_cell_angle_beta 90.000000
_cell_angle_gamma 90.000000
_cell_volume 5310.540209
_symmetry_space_group_name_H-M "I M M M"
_symmetry_group_IT_number 71
_symmetry_cell_setting 'orthorhombic'
loop_
_space_group_symop_operation_xyz
x,y,z
-x,-y,z
x,-y,-z
-x,y,-z
-x,-y,-z
x,y,-z
-x,y,z
x,-y,z
1/2+x,1/2+y,1/2+z
1/2-x,1/2-y,1/2+z
1/2+x,1/2-y,1/2-z
1/2-x,1/2+y,1/2-z
1/2-x,1/2-y,1/2-z
1/2+x,1/2+y,1/2-z
1/2-x,1/2+y,1/2+z
1/2+x,1/2-y,1/2+z
loop_
_atom_site_type_symbol
_atom_site_label
_atom_site_fract_x
_atom_site_fract_y
_atom_site_fract_z
Si Si1 0.176648 0.447402 0.788826
Si Si2 0.293219 0.574064 0.285234
Si Si3 0.151879 0.342926 0.794525
Si Si4 0.057644 0.842015 0.778925
Si Si5 0.233691 0.182540 0.215606
Si Si6 0.637923 0.740059 0.277253
Si Si7 0.094044 0.052095 0.778262
O O1 0.162727 0.500000 0.709780
O O2 0.238520 0.443088 0.786134
O O3 0.154371 0.396881 0.710624
O O4 0.161859 0.447923 0.000000
O O5 0.290594 0.564563 0.500000
O O6 0.295934 0.631780 0.258026
O O7 0.346476 0.552872 0.219828
O O8 0.211391 0.326223 0.802099
O O9 0.125814 0.294774 0.714990
O O10 0.132553 0.348236 0.000000
O O11 0.098190 0.801337 0.720500
O O12 0.069693 0.897097 0.719376
O O13 0.000000 0.829080 0.726766
O O14 0.060156 0.842677 0.000000
O O15 0.195102 0.223811 0.280369
O O16 0.241902 0.187875 0.000000
O O17 0.638550 0.740482 0.500000
O O18 0.071123 0.000000 0.724265
O O19 0.093339 0.053208 0.000000
#
# Coordination Sequence:
#
# PCOD9524621 Si02
#       7
#    16  16  16  16  16  16  16
#     4   9  17  27  36  50  76 104 128 155 184 216
#     4   9  15  24  38  55  74 100 131 156 183 220
#     4   9  17  26  38  56  77 100 126 154 185 222
#     4   9  16  25  36  51  73 100 127 157 197 235
#     4   9  15  24  39  56  77 101 124 153 186 221
#     4   9  15  25  38  52  72  97 124 156 191 225
#     4   9  15  22  33  50  72  98 128 158 189 226
#
# _framework density 21.090135
#
# number of rings (size 3 to 8) (size 9 to 14) (size 15 to 20)
#    0.000    3.000    1.429    0.857    0.000    1.143 
#    0.000    1.429    0.000    0.000    0.000    0.000 
#    0.000    5.714    0.000   11.000    0.000    2.857 
#
# Total GULP energy -312215.098491 kJ/mol
# GULP energy per Si atom -5575.269616 kJ/mol
# Density = 2.104213 g / cm^3
# Si number density = 21.090135 Si / 1000 Ang^3
#
#
#
# Elastic Constant Matrix: (Units=GPa)
#
#
# Indices 1 2 3 4 5 6 
#
# 1 40.0121 31.8589 -3.5639 0.0000 0.0000 0.0000
# 2 31.8589 202.6456 15.7516 0.0000 0.0000 0.0000
# 3 -3.5639 15.7516 65.5058 0.0000 0.0000 0.0000
# 4 0.0000 0.0000 0.0000 -3.5082 0.0000 0.0000
# 5 0.0000 0.0000 0.0000 0.0000 6.4521 0.0000
# 6 0.0000 0.0000 0.0000 0.0000 0.0000 4.8790
#
#
#
# Elastic Compliance Matrix: (Units=1/GPa)
#
#
# Indices 1 2 3 4 5 6 
#
# 1 0.029040 -0.004778 0.002729 0.000000 0.000000 0.000000
# 2 -0.004778 0.005815 -0.001658 0.000000 0.000000 0.000000
# 3 0.002729 -0.001658 0.015813 0.000000 0.000000 0.000000
# 4 0.000000 0.000000 0.000000 -0.285050 0.000000 0.000000
# 5 0.000000 0.000000 0.000000 0.000000 0.154987 0.000000
# 6 0.000000 0.000000 0.000000 0.000000 0.000000 0.204958
#
#
# Mechanical properties :
#
#
# Convention : Reuss Voigt Hill
#
# Bulk Modulus (GPa) = 23.11963 44.02853 33.57408
# Shear Modulus (GPa) = 33.92269 19.17240 26.54755
#
# Velocity S-wave (km/s) = 4.01491 3.01835 3.55176
# Velocity P-wave (km/s) = 5.69902 5.75056 5.72485
#
# Compressibility (1/GPa) = 0.04325329
#
# Stress axis : x y z
#
# Youngs Moduli (GPa) = 34.43583 171.97766 63.23913
#
# Poissons Ratio (x) = 0.82163 -0.17256
# Poissons Ratio (y) = 0.16452 0.10486
# Poissons Ratio (z) = -0.09397 0.28516
#
# Static dielectric constant tensor:
#      x y z
#    x 1.701020 0.000000 0.000000 
#    y 0.000000 1.854020 0.000000 
#    z 0.000000 0.000000 1.769980 
# 
# From -- ./inp_files/27978.got.cif
#   From: 2010.05.17/outbox.cif.g08.bks.cpg/sg71_14_cif.got.tgz:27978.got - 2010.06.03 16:22:01.
