data_PCOD9524587
_publ_section_title
;
Structure prediction by ZEFSAII (Michael W. Deem and Ramdas Pophale) SiO2 
 PCOD9524587
Probable space group: I M M M
;
_chemical_formula_sum "Si O2"
_cell_formula_units_Z 104
_cell_length_a 7.403736
_cell_length_b 21.431557
_cell_length_c 33.356959
_cell_angle_alpha 90.000000
_cell_angle_beta 90.000000
_cell_angle_gamma 90.000000
_cell_volume 5292.868439
_symmetry_space_group_name_H-M "I M M M"
_symmetry_group_IT_number 71
_symmetry_cell_setting 'orthorhombic'
loop_
_space_group_symop_operation_xyz
x,y,z
-x,-y,z
x,-y,-z
-x,y,-z
-x,-y,-z
x,y,-z
-x,y,z
x,-y,z
1/2+x,1/2+y,1/2+z
1/2-x,1/2-y,1/2+z
1/2+x,1/2-y,1/2-z
1/2-x,1/2+y,1/2-z
1/2-x,1/2-y,1/2-z
1/2+x,1/2+y,1/2-z
1/2-x,1/2+y,1/2+z
1/2+x,1/2-y,1/2+z
loop_
_atom_site_type_symbol
_atom_site_label
_atom_site_fract_x
_atom_site_fract_y
_atom_site_fract_z
Si Si1 0.209235 0.695705 0.044095
Si Si2 0.280894 0.835402 0.065872
Si Si3 0.283676 0.180246 0.365761
Si Si4 0.216157 0.321631 0.344453
Si Si5 0.779660 0.571014 0.284134
Si Si6 0.779457 0.569579 0.500000
Si Si7 0.720120 0.929878 0.691587
O O1 0.215604 0.770719 0.047152
O O2 0.286568 0.677561 0.088106
O O3 0.000000 0.675462 0.043680
O O4 0.286096 0.677954 0.000000
O O5 0.500000 0.832190 0.065765
O O6 0.219434 0.841171 0.111427
O O7 0.223282 0.892405 0.038846
O O8 0.500000 0.175018 0.369092
O O9 0.252007 0.247189 0.344273
O O10 0.216829 0.123940 0.338206
O O11 0.283004 0.370927 0.311381
O O12 0.000000 0.327173 0.343539
O O13 0.725531 0.500000 0.296365
O O14 0.725559 0.580218 0.237800
O O15 0.000000 0.571007 0.284974
O O16 0.714201 0.500000 0.500000
O O17 0.000000 0.568826 0.500000
O O18 0.500000 0.928511 0.691341
O O19 0.774404 0.000000 0.679746
#
# Coordination Sequence:
#
# PCOD9524587 Si02
#       7
#    16  16  16  16  16   8  16
#     4   9  16  26  41  58  78 104 131 162 200 243
#     4   9  16  26  39  55  77 104 132 164 201 238
#     4   9  17  28  43  64  85 107 138 172 208 247
#     4   9  17  27  41  63  87 108 135 173 210 244
#     4   8  14  25  41  61  84 111 142 172 203 241
#     4   9  16  24  35  53  75  99 130 167 202 232
#     4   8  14  26  44  63  83 109 140 170 200 244
#
# _framework density 19.649082
#
# number of rings (size 3 to 8) (size 9 to 14) (size 15 to 20)
#    0.000    3.308    0.769    0.923    0.000    1.231 
#    0.000    3.077    0.000    2.308    0.000    9.692 
#    0.000    0.000    0.000    7.692    0.000    8.000 
#
# Total GULP energy -289619.891915 kJ/mol
# GULP energy per Si atom -5569.613306 kJ/mol
# Density = 1.960436 g / cm^3
# Si number density = 19.649082 Si / 1000 Ang^3
#
#
#
# Elastic Constant Matrix: (Units=GPa)
#
#
# Indices 1 2 3 4 5 6 
#
# 1 65.8315 1.6165 6.0757 0.0000 0.0000 0.0000
# 2 1.6165 152.7946 120.0140 0.0000 0.0000 0.0000
# 3 6.0757 120.0140 156.3820 0.0000 0.0000 0.0000
# 4 0.0000 0.0000 0.0000 47.5394 0.0000 0.0000
# 5 0.0000 0.0000 0.0000 0.0000 157.5373 0.0000
# 6 0.0000 0.0000 0.0000 0.0000 0.0000 11.9983
#
#
#
# Elastic Compliance Matrix: (Units=1/GPa)
#
#
# Indices 1 2 3 4 5 6 
#
# 1 0.015281 0.000767 -0.001182 0.000000 0.000000 0.000000
# 2 0.000767 0.016515 -0.012704 0.000000 0.000000 0.000000
# 3 -0.001182 -0.012704 0.016190 0.000000 0.000000 0.000000
# 4 0.000000 0.000000 0.000000 0.021035 0.000000 0.000000
# 5 0.000000 0.000000 0.000000 0.000000 0.006348 0.000000
# 6 0.000000 0.000000 0.000000 0.000000 0.000000 0.083345
#
#
# Mechanical properties :
#
#
# Convention : Reuss Voigt Hill
#
# Bulk Modulus (GPa) = 45.98340 70.04673 58.01506
# Shear Modulus (GPa) = 26.01417 59.90180 42.95799
#
# Velocity S-wave (km/s) = 3.64254 5.52738 4.68082
# Velocity P-wave (km/s) = 6.41436 8.74427 7.66832
#
# Compressibility (1/GPa) = 0.02174698
#
# Stress axis : x y z
#
# Youngs Moduli (GPa) = 65.44256 60.54943 61.76489
#
# Poissons Ratio (x) = -0.04644 0.07302
# Poissons Ratio (y) = -0.05019 0.78469
# Poissons Ratio (z) = 0.07737 0.76925
#
# Static dielectric constant tensor:
#      x y z
#    x 1.780460 0.000000 0.000000 
#    y 0.000000 1.656410 0.000000 
#    z 0.000000 0.000000 1.707400 
# 
# From -- ./inp_files/68278.got.cif
#   From: 2010.05.17/outbox.cif.g08.bks.cpg/sg71_35_cif.got.tgz:68278.got - 2010.06.03 16:22:01.
