data_PCOD9524467
_publ_section_title
;
Structure prediction by ZEFSAII (Michael W. Deem and Ramdas Pophale) SiO2 
 PCOD9524467
Probable space group: I M M M
;
_chemical_formula_sum "Si O2"
_cell_formula_units_Z 120
_cell_length_a 15.711501
_cell_length_b 28.207472
_cell_length_c 14.916998
_cell_angle_alpha 90.000000
_cell_angle_beta 90.000000
_cell_angle_gamma 90.000000
_cell_volume 6610.940899
_symmetry_space_group_name_H-M "I M M M"
_symmetry_group_IT_number 71
_symmetry_cell_setting 'orthorhombic'
loop_
_space_group_symop_operation_xyz
x,y,z
-x,-y,z
x,-y,-z
-x,y,-z
-x,-y,-z
x,y,-z
-x,y,z
x,-y,z
1/2+x,1/2+y,1/2+z
1/2-x,1/2-y,1/2+z
1/2+x,1/2-y,1/2-z
1/2-x,1/2+y,1/2-z
1/2-x,1/2-y,1/2-z
1/2+x,1/2+y,1/2-z
1/2-x,1/2+y,1/2+z
1/2+x,1/2-y,1/2+z
loop_
_atom_site_type_symbol
_atom_site_label
_atom_site_fract_x
_atom_site_fract_y
_atom_site_fract_z
Si Si1 0.899240 0.635955 0.107072
Si Si2 0.000000 0.053864 0.108233
Si Si3 0.250642 0.206600 0.181567
Si Si4 0.600208 0.366406 0.107958
Si Si5 0.251584 0.104769 0.727918
Si Si6 0.186549 0.057011 0.102941
Si Si7 0.593413 0.245668 0.393487
Si Si8 0.906570 0.243441 0.393464
O O1 0.835335 0.604174 0.165236
O O2 0.884573 0.691466 0.133862
O O3 0.000000 0.626591 0.120450
O O4 0.881802 0.631740 0.000000
O O5 0.908387 0.076148 0.128707
O O6 0.000000 0.000000 0.145326
O O7 0.000000 0.050275 0.000000
O O8 0.250000 0.250000 0.250000
O O9 0.251222 0.156122 0.225803
O O10 0.164332 0.216125 0.127949
O O11 0.336216 0.217915 0.127808
O O12 0.500000 0.376875 0.125043
O O13 0.668233 0.396818 0.163654
O O14 0.614578 0.310794 0.134120
O O15 0.613854 0.370626 0.000000
O O16 0.246049 0.070349 0.813672
O O17 0.180031 0.000000 0.098129
O O18 0.207788 0.072887 0.000000
O O19 0.587498 0.242513 0.500000
O O20 0.500000 0.257903 0.357168
O O21 0.912155 0.240111 0.500000
O O22 0.000000 0.255790 0.357284
#
# Coordination Sequence:
#
# PCOD9524467 Si02
#       8
#    16   8  16  16  16  16  16  16
#     4   9  18  34  55  78 105 140 183 223 259 311
#     4   7  12  30  58  78  97 133 175 213 258 310
#     4  12  21  29  42  73 109 135 164 222 267 305
#     4   9  18  32  49  74 109 144 177 210 251 315
#     4  12  22  31  55  82 103 140 182 222 272 327
#     4   9  20  39  59  80 108 141 179 225 271 315
#     4   9  18  33  49  64  95 144 183 213 258 312
#     4   9  18  33  49  62  91 143 185 211 249 306
#
# _framework density 18.151727999999999
#
# number of rings (size 3 to 8) (size 9 to 14) (size 15 to 20)
#    0.000    2.333    2.667    3.200    0.933    4.800 
#    0.000    0.000    0.000    2.400    0.000    2.800 
#    0.000    0.000    0.000    0.000    0.000    0.000 
#
# Total GULP energy -334122.158423 kJ/mol
# GULP energy per Si atom -5568.702640 kJ/mol
# Density = 1.811041 g / cm^3
# Si number density = 18.151728 Si / 1000 Ang^3
#
#
#
# Elastic Constant Matrix: (Units=GPa)
#
#
# Indices 1 2 3 4 5 6 
#
# 1 96.2323 13.9071 52.6755 0.0000 0.0000 0.0000
# 2 13.9071 17.3782 16.6390 -0.0001 0.0000 0.0000
# 3 52.6755 16.6390 76.8984 -0.0001 0.0000 0.0000
# 4 0.0000 -0.0001 -0.0001 26.3434 0.0000 0.0000
# 5 0.0000 0.0000 0.0000 0.0000 46.6438 0.0000
# 6 0.0000 0.0000 0.0000 0.0000 0.0000 28.8599
#
#
#
# Elastic Compliance Matrix: (Units=1/GPa)
#
#
# Indices 1 2 3 4 5 6 
#
# 1 0.016753 -0.003051 -0.010815 0.000000 0.000000 0.000000
# 2 -0.003051 0.073135 -0.013735 0.000000 0.000000 0.000000
# 3 -0.010815 -0.013735 0.023385 0.000000 0.000000 0.000000
# 4 0.000000 0.000000 0.000000 0.037960 0.000000 0.000000
# 5 0.000000 0.000000 0.000000 0.000000 0.021439 0.000000
# 6 0.000000 0.000000 0.000000 0.000000 0.000000 0.034650
#
#
# Mechanical properties :
#
#
# Convention : Reuss Voigt Hill
#
# Bulk Modulus (GPa) = 17.22056 39.66133 28.44094
# Shear Modulus (GPa) = 17.73800 27.52193 22.62997
#
# Velocity S-wave (km/s) = 3.12942 3.89809 3.53471
# Velocity P-wave (km/s) = 4.75030 6.49287 5.68871
#
# Compressibility (1/GPa) = 0.05807013
#
# Stress axis : x y z
#
# Youngs Moduli (GPa) = 59.69249 13.67328 42.76327
#
# Poissons Ratio (x) = 0.04172 0.46250
# Poissons Ratio (y) = 0.18213 0.58734
# Poissons Ratio (z) = 0.64559 0.18780
#
# Static dielectric constant tensor:
#      x y z
#    x -12.640500 0.000000 0.000000 
#    y 0.000000 1.608490 0.000000 
#    z 0.000000 0.000000 1.666460 
# 
# From -- ./inp_files/35469.got.cif
#   From: 2010.05.17/outbox.cif.g08.bks.cpg/sg71_18_cif.got.tgz:35469.got - 2010.06.03 16:22:01.
