data_PCOD9524166
_publ_section_title
;
Structure prediction by ZEFSAII (Michael W. Deem and Ramdas Pophale) SiO2 
 PCOD9524166
Probable space group: I M M M
;
_chemical_formula_sum "Si O2"
_cell_formula_units_Z 104
_cell_length_a 8.841345
_cell_length_b 23.205542
_cell_length_c 28.598681
_cell_angle_alpha 90.000000
_cell_angle_beta 90.000000
_cell_angle_gamma 90.000000
_cell_volume 5867.539981
_symmetry_space_group_name_H-M "I M M M"
_symmetry_group_IT_number 71
_symmetry_cell_setting 'orthorhombic'
loop_
_space_group_symop_operation_xyz
x,y,z
-x,-y,z
x,-y,-z
-x,y,-z
-x,-y,-z
x,y,-z
-x,y,z
x,-y,z
1/2+x,1/2+y,1/2+z
1/2-x,1/2-y,1/2+z
1/2+x,1/2-y,1/2-z
1/2-x,1/2+y,1/2-z
1/2-x,1/2-y,1/2-z
1/2+x,1/2+y,1/2-z
1/2-x,1/2+y,1/2+z
1/2+x,1/2-y,1/2+z
loop_
_atom_site_type_symbol
_atom_site_label
_atom_site_fract_x
_atom_site_fract_y
_atom_site_fract_z
Si Si1 0.175963 0.430441 0.898790
Si Si2 0.321357 0.759503 0.801439
Si Si3 0.684125 0.933776 0.500000
Si Si4 0.324349 0.630009 0.813477
Si Si5 0.680760 0.631248 0.645856
Si Si6 0.684104 0.566654 0.553355
Si Si7 0.178193 0.565862 0.728521
O O1 0.179432 0.500000 0.900020
O O2 0.226249 0.408245 0.949980
O O3 0.278341 0.407318 0.857779
O O4 0.000000 0.414111 0.890655
O O5 0.500000 0.770824 0.796021
O O6 0.250000 0.750000 0.750000
O O7 0.299826 0.697015 0.824758
O O8 0.249864 0.810472 0.832085
O O9 0.500000 0.935888 0.500000
O O10 0.738156 0.000000 0.500000
O O11 0.500000 0.622508 0.800838
O O12 0.226682 0.608785 0.769628
O O13 0.500000 0.637154 0.645225
O O14 0.732797 0.610244 0.594370
O O15 0.729508 0.581923 0.682411
O O16 0.731186 0.581012 0.500000
O O17 0.500000 0.566995 0.553739
O O18 0.729738 0.500000 0.563026
O O19 0.207635 0.500000 0.743326
O O20 0.000000 0.571842 0.719162
#
# Coordination Sequence:
#
# PCOD9524166 Si02
#       7
#    16  16   8  16  16  16  16
#     4   9  17  31  53  79 106 136 170 211 263 318
#     4  11  23  39  57  76 102 141 186 226 267 316
#     4   7  12  26  49  75 101 131 167 205 248 305
#     4  11  23  36  52  75 103 138 178 222 271 319
#     4  11  21  34  57  85 110 142 182 226 274 323
#     4   8  15  30  54  85 118 147 177 220 275 332
#     4  11  23  36  52  77 110 145 177 214 264 321
#
# _framework density 17.724634999999999
#
# number of rings (size 3 to 8) (size 9 to 14) (size 15 to 20)
#    0.000    2.077    1.538    4.154    0.000    5.846 
#    0.000    0.385    1.692    3.231    0.000    5.385 
#    0.000    0.000    0.000    0.000    0.000    0.000 
#
# Total GULP energy -289933.450096 kJ/mol
# GULP energy per Si atom -5575.643271 kJ/mol
# Density = 1.768429 g / cm^3
# Si number density = 17.724635 Si / 1000 Ang^3
#
#
#
# Elastic Constant Matrix: (Units=GPa)
#
#
# Indices 1 2 3 4 5 6 
#
# 1 45.9974 36.5181 24.2173 0.0000 0.0000 0.0000
# 2 36.5181 82.2667 42.6543 0.0000 0.0000 0.0000
# 3 24.2173 42.6543 120.4432 0.0000 0.0000 0.0000
# 4 0.0000 0.0000 0.0000 19.3375 0.0000 0.0000
# 5 0.0000 0.0000 0.0000 0.0000 20.6550 0.0000
# 6 0.0000 0.0000 0.0000 0.0000 0.0000 27.5143
#
#
#
# Elastic Compliance Matrix: (Units=1/GPa)
#
#
# Indices 1 2 3 4 5 6 
#
# 1 0.033895 -0.014102 -0.001821 0.000000 0.000000 0.000000
# 2 -0.014102 0.020756 -0.004515 0.000000 0.000000 0.000000
# 3 -0.001821 -0.004515 0.010268 0.000000 0.000000 0.000000
# 4 0.000000 0.000000 0.000000 0.051713 0.000000 0.000000
# 5 0.000000 0.000000 0.000000 0.000000 0.048414 0.000000
# 6 0.000000 0.000000 0.000000 0.000000 0.000000 0.036345
#
#
# Mechanical properties :
#
#
# Convention : Reuss Voigt Hill
#
# Bulk Modulus (GPa) = 41.59245 50.60964 46.10105
# Shear Modulus (GPa) = 19.97749 23.18921 21.58335
#
# Velocity S-wave (km/s) = 3.36088 3.62097 3.49335
# Velocity P-wave (km/s) = 6.21108 6.78949 6.50672
#
# Compressibility (1/GPa) = 0.02404282
#
# Stress axis : x y z
#
# Youngs Moduli (GPa) = 29.50316 48.17775 97.39045
#
# Poissons Ratio (x) = 0.67938 0.17736
# Poissons Ratio (y) = 0.41604 0.43976
# Poissons Ratio (z) = 0.05373 0.21754
#
# Static dielectric constant tensor:
#      x y z
#    x 1.606530 0.000000 0.000000 
#    y 0.000000 1.615140 0.000000 
#    z 0.000000 0.000000 1.621340 
# 
# From -- ./inp_files/63524.got.cif
#   From: 2010.05.17/outbox.cif.g08.bks.cpg/sg71_32_cif.got.tgz:63524.got - 2010.06.03 16:22:01.
