data_PCOD9524906
_publ_section_title
;
Structure prediction by ZEFSAII (Michael W. Deem and Ramdas Pophale) SiO2 
 PCOD9524906
Probable space group: I M M M
;
_chemical_formula_sum "Si O2"
_cell_formula_units_Z 32
_cell_length_a 24.000000
_cell_length_b 9.000000
_cell_length_c 15.000000
_cell_angle_alpha 90.000000
_cell_angle_beta 90.000000
_cell_angle_gamma 90.000000
_cell_volume 3240.000000
_symmetry_space_group_name_H-M "I M M M"
_symmetry_group_IT_number 71
_symmetry_cell_setting 'orthorhombic'
loop_
_space_group_symop_operation_xyz
x,y,z
-x,-y,z
x,-y,-z
-x,y,-z
-x,-y,-z
x,y,-z
-x,y,z
x,-y,z
1/2+x,1/2+y,1/2+z
1/2-x,1/2-y,1/2+z
1/2+x,1/2-y,1/2-z
1/2-x,1/2+y,1/2-z
1/2-x,1/2-y,1/2-z
1/2+x,1/2+y,1/2-z
1/2-x,1/2+y,1/2+z
1/2+x,1/2-y,1/2+z
loop_
_atom_site_type_symbol
_atom_site_label
_atom_site_fract_x
_atom_site_fract_y
_atom_site_fract_z
Si Si1 0.668398 0.832684 0.500000
Si Si2 0.641359 0.169768 0.153767
Si Si3 0.768846 0.662088 0.500000
Si Si4 0.436813 0.818685 0.000000
Si Si5 0.381122 0.323770 0.669943
Si Si6 0.500000 0.319602 0.395802
O O1 0.734012 0.810885 0.500000
O O2 0.648576 0.746996 0.586223
O O3 0.648968 0.000000 0.500000
O O4 0.693611 0.163443 0.088020
O O5 0.593086 0.231364 0.089649
O O6 0.646515 0.266939 0.240422
O O7 0.628326 0.000000 0.180871
O O8 0.738646 0.500000 0.500000
O O9 0.500000 0.776482 0.000000
O O10 0.431128 0.000000 0.000000
O O11 0.379061 0.500000 0.665289
O O12 0.445238 0.274374 0.657776
O O13 0.500000 0.500000 0.400413
O O14 0.500000 0.268934 0.500000
#
# Coordination Sequence:
#
# PCOD9524906 Si02
#       6
#     8  16   8   8  16   8
#     4  12  25  40  60  86 112 143 194 247 288 339
#     4   9  19  36  58  86 116 149 192 237 279 335
#     4   9  20  41  63  82 114 155 191 234 289 338
#     4   8  15  30  53  81 116 153 186 228 282 331
#     4  11  22  38  60  85 117 155 190 230 286 344
#     4   9  18  36  58  79 112 155 191 224 274 344
#
# _framework density 9.8765429999999999
#
# number of rings (size 3 to 8) (size 9 to 14) (size 15 to 20)
#    0.000    2.250    1.250    3.375    1.750    2.000 
#    0.000    4.375    0.000    0.750    0.000    0.000 
#    0.000    0.000    0.000    0.000    0.000    0.000 
#
# Total GULP energy -178261.622551 kJ/mol
# GULP energy per Si atom -5570.675705 kJ/mol
# Density = 0.985406 g / cm^3
# Si number density = 9.876543 Si / 1000 Ang^3
#
#
#
# Elastic Constant Matrix: (Units=GPa)
#
#
# Indices 1 2 3 4 5 6 
#
# 1 39.7273 23.6747 28.8693 0.0000 0.0000 0.0000
# 2 23.6747 64.4754 62.4363 0.0000 0.0000 0.0000
# 3 28.8693 62.4363 140.2351 0.0000 0.0000 0.0000
# 4 0.0000 0.0000 0.0000 134.9744 0.0000 0.0000
# 5 0.0000 0.0000 0.0000 0.0000 -105.7742 0.0000
# 6 0.0000 0.0000 0.0000 0.0000 0.0000 -5.0864
#
#
#
# Elastic Compliance Matrix: (Units=1/GPa)
#
#
# Indices 1 2 3 4 5 6 
#
# 1 0.032689 -0.009645 -0.002435 0.000000 0.000000 0.000000
# 2 -0.009645 0.030111 -0.011421 0.000000 0.000000 0.000000
# 3 -0.002435 -0.011421 0.012717 0.000000 0.000000 0.000000
# 4 0.000000 0.000000 0.000000 0.007409 0.000000 0.000000
# 5 0.000000 0.000000 0.000000 0.000000 -0.009454 0.000000
# 6 0.000000 0.000000 0.000000 0.000000 0.000000 -0.196603
#
#
# Mechanical properties :
#
#
# Convention : Reuss Voigt Hill
#
# Bulk Modulus (GPa) = 35.06895 52.71094 43.88995
# Shear Modulus (GPa) = -75.04614 13.45327 -30.79643
#
# Velocity S-wave (km/s) = -6.17046 2.61257 -3.95279
# Velocity P-wave (km/s) = 5.74229 5.98695 1.19783
#
# Compressibility (1/GPa) = 0.02851525
#
# Stress axis : x y z
#
# Youngs Moduli (GPa) = 30.59139 33.21095 78.63525
#
# Poissons Ratio (x) = 0.32031 0.19151
# Poissons Ratio (y) = 0.29504 0.89805
# Poissons Ratio (z) = 0.07450 0.37929
#
# Static dielectric constant tensor:
#      x y z
#    x 1.792670 0.000000 0.000000 
#    y 0.000000 1.671710 0.000000 
#    z 0.000000 0.000000 1.578580 
# 
# From -- ./inp_files/31238.got.cif
#   From: 2010.05.17/outbox.ucp.g08.bks.cvg/sg71_16_cif.got.tgz:31238.got - 2010.06.11 16:29:00.
