data_PCOD9524028
_publ_section_title
;
Structure prediction by ZEFSAII (Michael W. Deem and Ramdas Pophale) SiO2 
 PCOD9524028
Probable space group: I M M M
;
_chemical_formula_sum "Si O2"
_cell_formula_units_Z 120
_cell_length_a 17.178795
_cell_length_b 25.653090
_cell_length_c 14.462059
_cell_angle_alpha 90.000000
_cell_angle_beta 90.000000
_cell_angle_gamma 90.000000
_cell_volume 6373.272838
_symmetry_space_group_name_H-M "I M M M"
_symmetry_group_IT_number 71
_symmetry_cell_setting 'orthorhombic'
loop_
_space_group_symop_operation_xyz
x,y,z
-x,-y,z
x,-y,-z
-x,y,-z
-x,-y,-z
x,y,-z
-x,y,z
x,-y,z
1/2+x,1/2+y,1/2+z
1/2-x,1/2-y,1/2+z
1/2+x,1/2-y,1/2-z
1/2-x,1/2+y,1/2-z
1/2-x,1/2-y,1/2-z
1/2+x,1/2+y,1/2-z
1/2-x,1/2+y,1/2+z
1/2+x,1/2-y,1/2+z
loop_
_atom_site_type_symbol
_atom_site_label
_atom_site_fract_x
_atom_site_fract_y
_atom_site_fract_z
Si Si1 0.908294 0.610664 0.204805
Si Si2 0.881940 0.216430 0.607366
Si Si3 0.688654 0.685236 0.391705
Si Si4 0.804264 0.300916 0.890723
Si Si5 0.586172 0.369614 0.252088
Si Si6 0.871702 0.662777 0.391954
Si Si7 0.405987 0.000000 0.391466
Si Si8 0.594144 0.561173 0.902158
O O1 0.850137 0.653412 0.160232
O O2 0.901180 0.622269 0.315109
O O3 0.885862 0.553271 0.164819
O O4 0.000000 0.619152 0.179920
O O5 0.903134 0.206080 0.500000
O O6 0.789541 0.202940 0.616812
O O7 0.919500 0.179108 0.682105
O O8 0.899599 0.277452 0.624005
O O9 0.672517 0.686577 0.500000
O O10 0.671520 0.743532 0.355021
O O11 0.635989 0.645232 0.338770
O O12 0.778565 0.669826 0.380980
O O13 0.821508 0.305064 0.000000
O O14 0.500000 0.386371 0.279953
O O15 0.626680 0.412629 0.188200
O O16 0.888181 0.649627 0.500000
O O17 0.500000 0.000000 0.396245
O O18 0.378106 0.000000 0.500000
O O19 0.500000 0.569345 0.901151
O O20 0.606959 0.500000 0.901023
O O21 0.624021 0.582575 0.000000
#
# Coordination Sequence:
#
# PCOD9524028 Si02
#       8
#    16  16  16  16  16  16   8  16
#     4  11  21  33  54  81 105 135 175 216 261 309
#     4   9  18  32  50  74 105 138 170 205 251 311
#     4   9  19  35  52  71  99 137 175 208 249 304
#     4   9  18  33  53  74  99 137 177 207 244 304
#     4  11  20  28  46  75 102 131 165 206 256 301
#     4   9  19  36  55  73  98 137 176 208 252 310
#     4   9  20  38  55  75 107 141 169 204 258 316
#     4   8  15  29  47  66  91 125 161 192 230 289
#
# _framework density 18.82863
#
# number of rings (size 3 to 8) (size 9 to 14) (size 15 to 20)
#    0.000    2.600    0.000    4.400    0.000    6.400 
#    0.000    3.000    5.867    1.600    0.000    1.867 
#    0.000    0.000    0.000    0.000    0.000    0.000 
#
# Total GULP energy -334429.365660 kJ/mol
# GULP energy per Si atom -5573.822761 kJ/mol
# Density = 1.878578 g / cm^3
# Si number density = 18.828630 Si / 1000 Ang^3
#
#
#
# Elastic Constant Matrix: (Units=GPa)
#
#
# Indices 1 2 3 4 5 6 
#
# 1 37.4096 22.2054 28.1716 0.0000 0.0000 0.0000
# 2 22.2054 88.2013 47.6522 0.0000 0.0001 0.0000
# 3 28.1716 47.6522 61.0279 0.0001 0.0001 0.0000
# 4 0.0000 0.0000 0.0001 33.6917 0.0001 0.0000
# 5 0.0000 0.0001 0.0001 0.0001 58.8285 0.0000
# 6 0.0000 0.0000 0.0000 0.0000 0.0000 18.3941
#
#
#
# Elastic Compliance Matrix: (Units=1/GPa)
#
#
# Indices 1 2 3 4 5 6 
#
# 1 0.040976 -0.000167 -0.018785 0.000000 0.000000 0.000000
# 2 -0.000167 0.019611 -0.015236 0.000000 0.000000 0.000000
# 3 -0.018785 -0.015236 0.036954 0.000000 0.000000 0.000000
# 4 0.000000 0.000000 0.000000 0.029681 0.000000 0.000000
# 5 0.000000 0.000000 0.000000 0.000000 0.016999 0.000000
# 6 0.000000 0.000000 0.000000 0.000000 0.000000 0.054365
#
#
# Mechanical properties :
#
#
# Convention : Reuss Voigt Hill
#
# Bulk Modulus (GPa) = 34.28677 42.52189 38.40433
# Shear Modulus (GPa) = 18.07119 28.09018 23.08069
#
# Velocity S-wave (km/s) = 3.10138 3.86668 3.50498
# Velocity P-wave (km/s) = 5.57442 6.52439 6.06802
#
# Compressibility (1/GPa) = 0.02916577
#
# Stress axis : x y z
#
# Youngs Moduli (GPa) = 24.40425 50.99143 27.06086
#
# Poissons Ratio (x) = 0.00853 0.50833
# Poissons Ratio (y) = 0.00408 0.41229
# Poissons Ratio (z) = 0.45843 0.77689
#
# Static dielectric constant tensor:
#      x y z
#    x 1.701540 0.000000 0.000000 
#    y 0.000000 1.658100 0.000000 
#    z 0.000000 0.000000 1.677240 
# 
# From -- ./inp_files/38567.got.cif
#   From: 2010.05.17/outbox.cif.g08.bks.cpg/sg71_20_cif.got.tgz:38567.got - 2010.06.03 16:22:01.
