data_PCOD9524044
_publ_section_title
;
Structure prediction by ZEFSAII (Michael W. Deem and Ramdas Pophale) SiO2 
 PCOD9524044
Probable space group: I M M M
;
_chemical_formula_sum "Si O2"
_cell_formula_units_Z 104
_cell_length_a 20.505835
_cell_length_b 21.603131
_cell_length_c 13.297270
_cell_angle_alpha 90.000000
_cell_angle_beta 90.000000
_cell_angle_gamma 90.000000
_cell_volume 5890.560826
_symmetry_space_group_name_H-M "I M M M"
_symmetry_group_IT_number 71
_symmetry_cell_setting 'orthorhombic'
loop_
_space_group_symop_operation_xyz
x,y,z
-x,-y,z
x,-y,-z
-x,y,-z
-x,-y,-z
x,y,-z
-x,y,z
x,-y,z
1/2+x,1/2+y,1/2+z
1/2-x,1/2-y,1/2+z
1/2+x,1/2-y,1/2-z
1/2-x,1/2+y,1/2-z
1/2-x,1/2-y,1/2-z
1/2+x,1/2+y,1/2-z
1/2-x,1/2+y,1/2+z
1/2+x,1/2-y,1/2+z
loop_
_atom_site_type_symbol
_atom_site_label
_atom_site_fract_x
_atom_site_fract_y
_atom_site_fract_z
Si Si1 0.381254 0.384476 0.252897
Si Si2 0.261681 0.425315 0.119353
Si Si3 0.870753 0.365397 0.801225
Si Si4 0.078913 0.764012 0.878878
Si Si5 0.577794 0.072354 0.119128
Si Si6 0.500000 0.574653 0.881809
Si Si7 0.000000 0.572071 0.117351
Si Si8 0.078338 0.000000 0.881535
O O1 0.314577 0.392737 0.191373
O O2 0.395191 0.322685 0.316106
O O3 0.437624 0.395900 0.170944
O O4 0.390150 0.440367 0.331169
O O5 0.262650 0.500000 0.135674
O O6 0.192297 0.396276 0.149403
O O7 0.274526 0.415472 0.000000
O O8 0.882696 0.295156 0.835072
O O9 0.877105 0.381449 0.682892
O O10 0.934606 0.399874 0.840946
O O11 0.000000 0.757380 0.863895
O O12 0.088795 0.769756 0.000000
O O13 0.500000 0.083517 0.136639
O O14 0.590601 0.000000 0.146043
O O15 0.588357 0.078665 0.000000
O O16 0.500000 0.500000 0.867136
O O17 0.500000 0.585902 0.000000
O O18 0.000000 0.500000 0.137101
O O19 0.000000 0.584316 0.000000
O O20 0.000000 0.000000 0.863187
O O21 0.087883 0.000000 0.000000
#
# Coordination Sequence:
#
# PCOD9524044 Si02
#       8
#    16  16  16  16  16   8   8   8
#     4  12  21  40  61  88 124 166 206 259 325 383
#     4  11  24  41  63  92 130 168 207 260 322 380
#     4  12  22  38  61  89 127 171 209 258 311 371
#     4  11  23  40  64  93 127 166 211 264 319 376
#     4   9  17  32  56  84 114 155 207 263 316 359
#     4  11  20  35  62  92 118 152 207 264 319 385
#     4  11  20  31  55  89 119 154 213 266 304 354
#     4  11  20  36  64  96 120 151 208 277 331 381
#
# _framework density 17.655365
#
# number of rings (size 3 to 8) (size 9 to 14) (size 15 to 20)
#    0.000    1.000    4.615    4.154    0.000    4.308 
#    0.000    3.077    0.000    0.000    0.000    0.000 
#    0.000    0.000    0.000    0.000    0.000    0.000 
#
# Total GULP energy -290307.607795 kJ/mol
# GULP energy per Si atom -5582.838611 kJ/mol
# Density = 1.761518 g / cm^3
# Si number density = 17.655365 Si / 1000 Ang^3
#
#
#
# Elastic Constant Matrix: (Units=GPa)
#
#
# Indices 1 2 3 4 5 6 
#
# 1 103.0617 37.2750 46.7179 0.0000 0.0000 0.0000
# 2 37.2750 128.6956 60.2443 0.0000 0.0000 0.0000
# 3 46.7179 60.2443 142.4509 0.0000 0.0000 0.0000
# 4 0.0000 0.0000 0.0000 55.4670 0.0000 0.0000
# 5 0.0000 0.0000 0.0000 0.0000 29.3085 0.0000
# 6 0.0000 0.0000 0.0000 0.0000 0.0000 24.0312
#
#
#
# Elastic Compliance Matrix: (Units=1/GPa)
#
#
# Indices 1 2 3 4 5 6 
#
# 1 0.011797 -0.002002 -0.003022 0.000000 0.000000 0.000000
# 2 -0.002002 0.010028 -0.003584 0.000000 0.000000 0.000000
# 3 -0.003022 -0.003584 0.009527 0.000000 0.000000 0.000000
# 4 0.000000 0.000000 0.000000 0.018029 0.000000 0.000000
# 5 0.000000 0.000000 0.000000 0.000000 0.034120 0.000000
# 6 0.000000 0.000000 0.000000 0.000000 0.000000 0.041613
#
#
# Mechanical properties :
#
#
# Convention : Reuss Voigt Hill
#
# Bulk Modulus (GPa) = 70.74802 73.63139 72.18971
# Shear Modulus (GPa) = 34.00386 37.09274 35.54830
#
# Velocity S-wave (km/s) = 4.39336 4.58857 4.49202
# Velocity P-wave (km/s) = 8.11752 8.35874 8.23902
#
# Compressibility (1/GPa) = 0.01413467
#
# Stress axis : x y z
#
# Youngs Moduli (GPa) = 84.76727 99.72014 104.96484
#
# Poissons Ratio (x) = 0.19965 0.31723
# Poissons Ratio (y) = 0.16971 0.37623
# Poissons Ratio (z) = 0.25618 0.35744
#
# Static dielectric constant tensor:
#      x y z
#    x 1.611450 0.000000 0.000000 
#    y 0.000000 1.621600 0.000000 
#    z 0.000000 0.000000 1.639870 
# 
# From -- ./inp_files/36730.got.cif
#   From: 2010.05.17/outbox.cif.g08.bks.cpg/sg71_19_cif.got.tgz:36730.got - 2010.06.03 16:22:01.
