data_PCOD9524346
_publ_section_title
;
Structure prediction by ZEFSAII (Michael W. Deem and Ramdas Pophale) SiO2 
 PCOD9524346
Probable space group: I M M M
;
_chemical_formula_sum "Si O2"
_cell_formula_units_Z 50
_cell_length_a 7.827418
_cell_length_b 10.364521
_cell_length_c 29.715048
_cell_angle_alpha 90.000000
_cell_angle_beta 90.000000
_cell_angle_gamma 90.000000
_cell_volume 2410.705721
_symmetry_space_group_name_H-M "I M M M"
_symmetry_group_IT_number 71
_symmetry_cell_setting 'orthorhombic'
loop_
_space_group_symop_operation_xyz
x,y,z
-x,-y,z
x,-y,-z
-x,y,-z
-x,-y,-z
x,y,-z
-x,y,z
x,-y,z
1/2+x,1/2+y,1/2+z
1/2-x,1/2-y,1/2+z
1/2+x,1/2-y,1/2-z
1/2-x,1/2+y,1/2-z
1/2-x,1/2-y,1/2-z
1/2+x,1/2+y,1/2-z
1/2-x,1/2+y,1/2+z
1/2+x,1/2-y,1/2+z
loop_
_atom_site_type_symbol
_atom_site_label
_atom_site_fract_x
_atom_site_fract_y
_atom_site_fract_z
Si Si1 0.798606 0.737141 0.113421
Si Si2 0.500000 0.500000 0.500000
Si Si3 0.208994 0.500000 0.051805
Si Si4 0.809859 0.500000 0.426253
Si Si5 0.204147 0.145715 0.287639
O O1 0.736131 0.626924 0.078893
O O2 0.775125 0.687492 0.163961
O O3 0.000000 0.755135 0.104961
O O4 0.708946 0.871869 0.103777
O O5 0.652837 0.500000 0.461180
O O6 0.000000 0.500000 0.052062
O O7 0.263925 0.500000 0.000000
O O8 0.000000 0.500000 0.446674
O O9 0.250000 0.250000 0.250000
O O10 0.000000 0.142521 0.291427
O O11 0.263665 0.000000 0.276557
#
# Coordination Sequence:
#
# PCOD9524346 Si02
#       5
#    16   2   8   8  16
#     4  11  22  43  70 100 140 183 231 288 348 420
#     4  12  26  52  68 104 144 188 246 294 360 414
#     4   9  20  36  66  99 135 180 229 277 339 408
#     4  12  27  45  72 103 141 190 237 294 352 418
#     4  11  25  44  68  99 137 180 234 294 355 428
#
# _framework density 20.740815999999999
#
# number of rings (size 3 to 8) (size 9 to 14) (size 15 to 20)
#    0.000    1.120    3.200    2.160    4.480    1.920 
#    0.000    0.000    0.000    3.840    0.000    0.000 
#    0.000    0.000    0.000    0.000    0.000    0.000 
#
# Total GULP energy -139528.281906 kJ/mol
# GULP energy per Si atom -5581.131276 kJ/mol
# Density = 2.069361 g / cm^3
# Si number density = 20.740816 Si / 1000 Ang^3
#
#
#
# Elastic Constant Matrix: (Units=GPa)
#
#
# Indices 1 2 3 4 5 6 
#
# 1 100.1937 28.1750 8.2124 0.0000 0.0000 0.0000
# 2 28.1750 211.7718 94.1601 0.0000 0.0000 0.0000
# 3 8.2124 94.1601 152.6845 0.0000 0.0000 0.0000
# 4 0.0000 0.0000 0.0000 -12.7074 0.0000 0.0000
# 5 0.0000 0.0000 0.0000 0.0000 27.1714 0.0000
# 6 0.0000 0.0000 0.0000 0.0000 0.0000 7.5453
#
#
#
# Elastic Compliance Matrix: (Units=1/GPa)
#
#
# Indices 1 2 3 4 5 6 
#
# 1 0.010387 -0.001562 0.000404 0.000000 0.000000 0.000000
# 2 -0.001562 0.006741 -0.004073 0.000000 0.000000 0.000000
# 3 0.000404 -0.004073 0.009040 0.000000 0.000000 0.000000
# 4 0.000000 0.000000 0.000000 -0.078694 0.000000 0.000000
# 5 0.000000 0.000000 0.000000 0.000000 0.036803 0.000000
# 6 0.000000 0.000000 0.000000 0.000000 0.000000 0.132534
#
#
# Mechanical properties :
#
#
# Convention : Reuss Voigt Hill
#
# Bulk Modulus (GPa) = 63.66831 80.63833 72.15332
# Shear Modulus (GPa) = 37.73416 26.67536 32.20476
#
# Velocity S-wave (km/s) = 4.26997 3.59015 3.94474
# Velocity P-wave (km/s) = 7.42119 7.49327 7.45731
#
# Compressibility (1/GPa) = 0.01570640
#
# Stress axis : x y z
#
# Youngs Moduli (GPa) = 96.27715 148.34942 110.62508
#
# Poissons Ratio (x) = 0.23168 -0.04474
# Poissons Ratio (y) = 0.15036 0.45058
# Poissons Ratio (z) = -0.03894 0.60424
#
# Static dielectric constant tensor:
#      x y z
#    x 1.753810 0.000000 0.000000 
#    y 0.000000 1.729710 0.000000 
#    z 0.000000 0.000000 1.695740 
# 
# From -- ./inp_files/67586.got.cif
#   From: 2010.05.17/outbox.cif.g08.bks.cpg/sg71_34_cif.got.tgz:67586.got - 2010.06.03 16:22:01.
