data_PCOD9524302
_publ_section_title
;
Structure prediction by ZEFSAII (Michael W. Deem and Ramdas Pophale) SiO2 
 PCOD9524302
Probable space group: I M M M
;
_chemical_formula_sum "Si O2"
_cell_formula_units_Z 72
_cell_length_a 28.251065
_cell_length_b 8.393363
_cell_length_c 16.690390
_cell_angle_alpha 90.000000
_cell_angle_beta 90.000000
_cell_angle_gamma 90.000000
_cell_volume 3957.649372
_symmetry_space_group_name_H-M "I M M M"
_symmetry_group_IT_number 71
_symmetry_cell_setting 'orthorhombic'
loop_
_space_group_symop_operation_xyz
x,y,z
-x,-y,z
x,-y,-z
-x,y,-z
-x,-y,-z
x,y,-z
-x,y,z
x,-y,z
1/2+x,1/2+y,1/2+z
1/2-x,1/2-y,1/2+z
1/2+x,1/2-y,1/2-z
1/2-x,1/2+y,1/2-z
1/2-x,1/2-y,1/2-z
1/2+x,1/2+y,1/2-z
1/2-x,1/2+y,1/2+z
1/2+x,1/2-y,1/2+z
loop_
_atom_site_type_symbol
_atom_site_label
_atom_site_fract_x
_atom_site_fract_y
_atom_site_fract_z
Si Si1 0.803369 0.188333 0.253035
Si Si2 0.354772 0.807142 0.088801
Si Si3 0.444525 0.805104 0.500000
Si Si4 0.947055 0.693936 0.676095
Si Si5 0.107131 0.307772 0.163172
O O1 0.750000 0.250000 0.250000
O O2 0.824170 0.239193 0.339076
O O3 0.839769 0.255032 0.186004
O O4 0.803372 0.000000 0.245639
O O5 0.408953 0.762069 0.108976
O O6 0.351756 0.000000 0.092247
O O7 0.340888 0.755116 0.000000
O O8 0.500000 0.755987 0.500000
O O9 0.416147 0.753801 0.420244
O O10 0.444999 0.000000 0.500000
O O11 0.948624 0.500000 0.677428
O O12 0.925758 0.743865 0.762016
O O13 0.000000 0.752899 0.663638
O O14 0.107084 0.500000 0.162259
#
# Coordination Sequence:
#
# PCOD9524302 Si02
#       5
#    16  16   8  16  16
#     4  11  22  38  58  76  99 135 178 223 272 322
#     4   9  18  33  53  79 109 136 167 211 259 308
#     4   9  16  28  53  87 117 145 181 227 270 313
#     4   8  13  23  44  74 106 139 172 205 244 294
#     4   9  17  31  51  78 110 141 177 221 266 315
#
# _framework density 18.192616999999998
#
# number of rings (size 3 to 8) (size 9 to 14) (size 15 to 20)
#    0.000    2.778    0.000    4.000    0.000    3.556 
#    2.000    2.778    0.000   17.333    0.000    6.222 
#    0.000    0.000    0.000    0.000    0.000    0.000 
#
# Total GULP energy -200643.412897 kJ/mol
# GULP energy per Si atom -5573.428136 kJ/mol
# Density = 1.815121 g / cm^3
# Si number density = 18.192617 Si / 1000 Ang^3
#
#
#
# Elastic Constant Matrix: (Units=GPa)
#
#
# Indices 1 2 3 4 5 6 
#
# 1 158.4464 18.2181 57.2168 0.0000 0.0000 0.0000
# 2 18.2181 21.8997 19.3219 0.0000 0.0000 0.0000
# 3 57.2168 19.3219 113.4986 0.0000 0.0000 0.0000
# 4 0.0000 0.0000 0.0000 14.1446 0.0000 0.0000
# 5 0.0000 0.0000 0.0000 0.0000 13.8933 0.0000
# 6 0.0000 0.0000 0.0000 0.0000 0.0000 18.9090
#
#
#
# Elastic Compliance Matrix: (Units=1/GPa)
#
#
# Indices 1 2 3 4 5 6 
#
# 1 0.007953 -0.003623 -0.003392 0.000000 0.000000 0.000000
# 2 -0.003623 0.055384 -0.007602 0.000000 0.000000 0.000000
# 3 -0.003392 -0.007602 0.011815 0.000000 0.000000 0.000000
# 4 0.000000 0.000000 0.000000 0.070699 0.000000 0.000000
# 5 0.000000 0.000000 0.000000 0.000000 0.071977 0.000000
# 6 0.000000 0.000000 0.000000 0.000000 0.000000 0.052885
#
#
# Mechanical properties :
#
#
# Convention : Reuss Voigt Hill
#
# Bulk Modulus (GPa) = 21.77842 53.70646 37.74244
# Shear Modulus (GPa) = 15.86028 22.66190 19.26109
#
# Velocity S-wave (km/s) = 2.95583 3.53323 3.25735
# Velocity P-wave (km/s) = 4.86274 6.79927 5.91085
#
# Compressibility (1/GPa) = 0.04591702
#
# Stress axis : x y z
#
# Youngs Moduli (GPa) = 125.74060 18.05578 84.63763
#
# Poissons Ratio (x) = 0.06541 0.28713
# Poissons Ratio (y) = 0.45553 0.64343
# Poissons Ratio (z) = 0.42657 0.13726
#
# Static dielectric constant tensor:
#      x y z
#    x 1.624280 0.000000 0.000000 
#    y 0.000000 1.637350 0.000000 
#    z 0.000000 0.000000 1.617360 
# 
# From -- ./inp_files/16355.got.cif
#   From: 2010.05.17/outbox.cif.g08.bks.cpg/sg71_9_cif.got.tgz:16355.got - 2010.06.03 16:22:01.
