data_PCOD9524690
_publ_section_title
;
Structure prediction by ZEFSAII (Michael W. Deem and Ramdas Pophale) SiO2 
 PCOD9524690
Probable space group: I M M M
;
_chemical_formula_sum "Si O2"
_cell_formula_units_Z 56
_cell_length_a 15.000000
_cell_length_b 15.000000
_cell_length_c 24.000000
_cell_angle_alpha 90.000000
_cell_angle_beta 90.000000
_cell_angle_gamma 90.000000
_cell_volume 5400.000000
_symmetry_space_group_name_H-M "I M M M"
_symmetry_group_IT_number 71
_symmetry_cell_setting 'orthorhombic'
loop_
_space_group_symop_operation_xyz
x,y,z
-x,-y,z
x,-y,-z
-x,y,-z
-x,-y,-z
x,y,-z
-x,y,z
x,-y,z
1/2+x,1/2+y,1/2+z
1/2-x,1/2-y,1/2+z
1/2+x,1/2-y,1/2-z
1/2-x,1/2+y,1/2-z
1/2-x,1/2-y,1/2-z
1/2+x,1/2+y,1/2-z
1/2-x,1/2+y,1/2+z
1/2+x,1/2-y,1/2+z
loop_
_atom_site_type_symbol
_atom_site_label
_atom_site_fract_x
_atom_site_fract_y
_atom_site_fract_z
Si Si1 0.129393 0.901255 0.063030
Si Si2 0.150874 0.785135 0.257415
Si Si3 0.098820 0.740413 0.144168
Si Si4 0.336793 0.097366 0.081929
Si Si5 0.098235 0.795764 0.564314
Si Si6 0.769727 0.107356 0.353908
Si Si7 0.901032 0.403934 0.300913
O O1 0.104353 0.810285 0.093876
O O2 0.236775 0.899485 0.061002
O O3 0.105434 0.000000 0.086812
O O4 0.096910 0.898733 0.000000
O O5 0.250000 0.750000 0.250000
O O6 0.111834 0.805380 0.197519
O O7 0.166551 0.862974 0.301823
O O8 0.102219 0.692747 0.273868
O O9 0.176511 0.664554 0.146641
O O10 0.000000 0.699254 0.145911
O O11 0.385101 0.189015 0.066779
O O12 0.331924 0.098552 0.149041
O O13 0.376088 0.000000 0.066485
O O14 0.097764 0.821461 0.500000
O O15 0.174581 0.850678 0.595105
O O16 0.000000 0.813129 0.589067
O O17 0.757551 0.000000 0.355867
O O18 0.888154 0.500000 0.269833
O O19 0.000000 0.409411 0.326214
#
# Coordination Sequence:
#
# PCOD9524690 Si02
#       7
#    16  16  16  16  16  16  16
#     4  10  21  39  64  93 128 168 205 249 317 394
#     4  10  21  39  60  88 121 157 200 251 306 372
#     4  11  24  42  68  99 128 162 211 271 322 374
#     4  10  18  32  59  94 128 162 202 248 307 381
#     4  11  23  39  62  92 127 168 216 268 320 381
#     4  11  25  45  66  89 126 174 218 265 319 372
#     4  10  19  32  56  89 125 160 190 233 301 377
#
# _framework density 10.370369999999999
#
# number of rings (size 3 to 8) (size 9 to 14) (size 15 to 20)
#    0.000    1.571    2.857    2.143    0.000    6.571 
#    0.000    2.143    0.000    0.000    0.000    2.000 
#    0.000    0.000    0.000    0.000    0.000    0.000 
#
# Total GULP energy -311749.402055 kJ/mol
# GULP energy per Si atom -5566.953608 kJ/mol
# Density = 1.034677 g / cm^3
# Si number density = 10.370370 Si / 1000 Ang^3
#
#
#
# Elastic Constant Matrix: (Units=GPa)
#
#
# Indices 1 2 3 4 5 6 
#
# 1 128.7680 45.5472 32.4547 0.0000 0.0000 0.0000
# 2 45.5472 147.2994 42.5721 0.0000 0.0000 0.0000
# 3 32.4547 42.5721 70.3750 0.0000 0.0000 0.0000
# 4 0.0000 0.0000 0.0000 -8.2632 0.0000 0.0000
# 5 0.0000 0.0000 0.0000 0.0000 27.5672 0.0000
# 6 0.0000 0.0000 0.0000 0.0000 0.0000 -2.7581
#
#
#
# Elastic Compliance Matrix: (Units=1/GPa)
#
#
# Indices 1 2 3 4 5 6 
#
# 1 0.009236 -0.001969 -0.003068 0.000000 0.000000 0.000000
# 2 -0.001969 0.008647 -0.004323 0.000000 0.000000 0.000000
# 3 -0.003068 -0.004323 0.018240 0.000000 0.000000 0.000000
# 4 0.000000 0.000000 0.000000 -0.121018 0.000000 0.000000
# 5 0.000000 0.000000 0.000000 0.000000 0.036275 0.000000
# 6 0.000000 0.000000 0.000000 0.000000 0.000000 -0.362570
#
#
# Mechanical properties :
#
#
# Convention : Reuss Voigt Hill
#
# Bulk Modulus (GPa) = 57.46343 65.28781 61.37562
# Shear Modulus (GPa) = -12.93090 18.36708 2.71809
#
# Velocity S-wave (km/s) = -2.49962 2.97906 1.14601
# Velocity P-wave (km/s) = 4.40851 6.58631 5.60421
#
# Compressibility (1/GPa) = 0.01740237
#
# Stress axis : x y z
#
# Youngs Moduli (GPa) = 108.27586 115.64501 54.82606
#
# Poissons Ratio (x) = 0.22772 0.16821
# Poissons Ratio (y) = 0.21321 0.23701
# Poissons Ratio (z) = 0.33219 0.49992
#
# Static dielectric constant tensor:
#      x y z
#    x 1.747130 0.000000 0.000000 
#    y 0.000000 1.757050 0.000000 
#    z 0.000000 0.000000 1.841010 
# 
# From -- ./inp_files/59920.got.cif
#   From: 2010.05.17/outbox.ucp.g08.bks.cvg/sg71_30_cif.got.tgz:59920.got - 2010.06.11 16:29:00.
