data_PCOD9524646
_publ_section_title
;
Structure prediction by ZEFSAII (Michael W. Deem and Ramdas Pophale) SiO2 
 PCOD9524646
Probable space group: I M M M
;
_chemical_formula_sum "Si O2"
_cell_formula_units_Z 72
_cell_length_a 28.302978
_cell_length_b 8.983321
_cell_length_c 14.921825
_cell_angle_alpha 90.000000
_cell_angle_beta 90.000000
_cell_angle_gamma 90.000000
_cell_volume 3793.944685
_symmetry_space_group_name_H-M "I M M M"
_symmetry_group_IT_number 71
_symmetry_cell_setting 'orthorhombic'
loop_
_space_group_symop_operation_xyz
x,y,z
-x,-y,z
x,-y,-z
-x,y,-z
-x,-y,-z
x,y,-z
-x,y,z
x,-y,z
1/2+x,1/2+y,1/2+z
1/2-x,1/2-y,1/2+z
1/2+x,1/2-y,1/2-z
1/2-x,1/2+y,1/2-z
1/2-x,1/2-y,1/2-z
1/2+x,1/2+y,1/2-z
1/2-x,1/2+y,1/2+z
1/2+x,1/2-y,1/2+z
loop_
_atom_site_type_symbol
_atom_site_label
_atom_site_fract_x
_atom_site_fract_y
_atom_site_fract_z
Si Si1 0.117039 0.678830 0.903932
Si Si2 0.808086 0.830448 0.344059
Si Si3 0.000000 0.681299 0.602864
Si Si4 0.595326 0.180448 0.796237
Si Si5 0.785270 0.169448 0.131487
O O1 0.115722 0.500000 0.902832
O O2 0.095093 0.727794 0.808855
O O3 0.171142 0.732856 0.901949
O O4 0.096060 0.728846 0.000000
O O5 0.858501 0.749071 0.343477
O O6 0.792936 0.835581 0.239111
O O7 0.765407 0.740636 0.389099
O O8 0.811428 0.000000 0.376622
O O9 0.047451 0.726476 0.654454
O O10 0.000000 0.500000 0.602363
O O11 0.000000 0.731537 0.500000
O O12 0.599156 0.000000 0.798801
O O13 0.788322 0.000000 0.100078
#
# Coordination Sequence:
#
# PCOD9524646 Si02
#       5
#    16  16   8  16  16
#     4   9  17  29  45  68 100 134 164 196 237 286
#     4   9  16  27  45  69  97 129 164 202 242 282
#     4   9  18  34  56  78  96 117 153 203 252 294
#     4   9  17  31  51  72  95 126 163 202 246 294
#     4   9  16  26  43  68  97 131 169 202 232 274
#
# _framework density 18.977609000000001
#
# number of rings (size 3 to 8) (size 9 to 14) (size 15 to 20)
#    0.000    3.000    0.000    1.333    0.000    5.778 
#    0.000    2.222    0.000    8.667    0.000    0.000 
#    0.000    7.111    0.000    0.000    0.000    0.000 
#
# Total GULP energy -200580.553284 kJ/mol
# GULP energy per Si atom -5571.682036 kJ/mol
# Density = 1.893441 g / cm^3
# Si number density = 18.977609 Si / 1000 Ang^3
#
#
#
# Elastic Constant Matrix: (Units=GPa)
#
#
# Indices 1 2 3 4 5 6 
#
# 1 146.7090 24.0416 60.8900 0.0000 0.0000 0.0000
# 2 24.0416 14.7251 4.2148 0.0000 0.0000 0.0000
# 3 60.8900 4.2148 104.1311 0.0000 0.0000 0.0000
# 4 0.0000 0.0000 0.0000 1.0277 0.0000 0.0000
# 5 0.0000 0.0000 0.0000 0.0000 -11.7634 0.0000
# 6 0.0000 0.0000 0.0000 0.0000 0.0000 20.9830
#
#
#
# Elastic Compliance Matrix: (Units=1/GPa)
#
#
# Indices 1 2 3 4 5 6 
#
# 1 0.012640 -0.018738 -0.006633 0.000000 0.000000 0.000000
# 2 -0.018738 0.096487 0.007052 0.000000 0.000000 0.000000
# 3 -0.006633 0.007052 0.013196 0.000000 0.000000 0.000000
# 4 0.000000 0.000000 0.000000 0.973019 0.000000 0.000000
# 5 0.000000 0.000000 0.000000 0.000000 -0.085009 0.000000
# 6 0.000000 0.000000 0.000000 0.000000 0.000000 0.047658
#
#
# Mechanical properties :
#
#
# Convention : Reuss Voigt Hill
#
# Bulk Modulus (GPa) = 11.67075 49.31756 30.49415
# Shear Modulus (GPa) = 4.45161 13.81072 9.13116
#
# Velocity S-wave (km/s) = 1.53323 2.70059 2.19590
# Velocity P-wave (km/s) = 3.04918 5.98063 4.74686
#
# Compressibility (1/GPa) = 0.08568432
#
# Stress axis : x y z
#
# Youngs Moduli (GPa) = 79.11612 10.36413 75.77954
#
# Poissons Ratio (x) = 0.19421 0.50261
# Poissons Ratio (y) = 1.48250 -0.53437
# Poissons Ratio (z) = 0.52474 -0.07308
#
# Static dielectric constant tensor:
#      x y z
#    x 1.611890 0.000000 0.000000 
#    y 0.000000 1.642790 0.000000 
#    z 0.000000 0.000000 1.754530 
# 
# From -- ./inp_files/6056.got.cif
#   From: 2010.05.17/outbox.cif.g08.bks.cpg/sg71_4_cif.got.tgz:6056.got - 2010.06.03 16:22:01.
