data_PCOD9524489
_publ_section_title
;
Structure prediction by ZEFSAII (Michael W. Deem and Ramdas Pophale) SiO2 
 PCOD9524489
Probable space group: I M M M
;
_chemical_formula_sum "Si O2"
_cell_formula_units_Z 56
_cell_length_a 24.505556
_cell_length_b 13.201062
_cell_length_c 7.267056
_cell_angle_alpha 90.000000
_cell_angle_beta 90.000000
_cell_angle_gamma 90.000000
_cell_volume 2350.887995
_symmetry_space_group_name_H-M "I M M M"
_symmetry_group_IT_number 71
_symmetry_cell_setting 'orthorhombic'
loop_
_space_group_symop_operation_xyz
x,y,z
-x,-y,z
x,-y,-z
-x,y,-z
-x,-y,-z
x,y,-z
-x,y,z
x,-y,z
1/2+x,1/2+y,1/2+z
1/2-x,1/2-y,1/2+z
1/2+x,1/2-y,1/2-z
1/2-x,1/2+y,1/2-z
1/2-x,1/2-y,1/2-z
1/2+x,1/2+y,1/2-z
1/2-x,1/2+y,1/2+z
1/2+x,1/2-y,1/2+z
loop_
_atom_site_type_symbol
_atom_site_label
_atom_site_fract_x
_atom_site_fract_y
_atom_site_fract_z
Si Si1 0.933619 0.500000 0.287005
Si Si2 0.437221 0.776620 0.225825
Si Si3 0.781000 0.610331 0.223377
Si Si4 0.834041 0.823034 0.706433
O O1 0.916920 0.500000 0.500000
O O2 0.919532 0.610426 0.209243
O O3 0.000000 0.500000 0.284779
O O4 0.500000 0.759197 0.277797
O O5 0.393918 0.692548 0.288206
O O6 0.435768 0.778931 0.000000
O O7 0.803371 0.500000 0.272036
O O8 0.812005 0.707017 0.299572
O O9 0.717750 0.618592 0.285998
O O10 0.781158 0.619151 0.000000
O O11 0.841184 0.863144 0.500000
#
# Coordination Sequence:
#
# PCOD9524489 Si02
#       4
#     8  16  16  16
#     4   7  10  16  26  46  77 103 117 143 196 241
#     4   8  13  21  35  58  85 105 126 166 212 244
#     4   9  18  31  43  58  86 117 138 167 214 252
#     4   9  17  28  45  66  82 105 145 178 200 242
#
# _framework density 23.820786999999999
#
# number of rings (size 3 to 8) (size 9 to 14) (size 15 to 20)
#    0.000    3.571    0.000    1.714    2.000    0.571 
#    0.000    0.000    0.000    1.714    0.000    8.000 
#    0.000    0.000    0.000   14.286    0.000   14.857 
#
# Total GULP energy -156157.946712 kJ/mol
# GULP energy per Si atom -5577.069525 kJ/mol
# Density = 2.376657 g / cm^3
# Si number density = 23.820787 Si / 1000 Ang^3
#
#
#
# Elastic Constant Matrix: (Units=GPa)
#
#
# Indices 1 2 3 4 5 6 
#
# 1 112.7729 -2.6049 -3.0439 0.0000 0.0000 0.0000
# 2 -2.6049 48.9821 -2.8519 0.0000 0.0000 0.0000
# 3 -3.0439 -2.8519 112.0508 0.0000 0.0000 0.0000
# 4 0.0000 0.0000 0.0000 -2.4589 0.0000 0.0000
# 5 0.0000 0.0000 0.0000 0.0000 -7.5752 0.0000
# 6 0.0000 0.0000 0.0000 0.0000 0.0000 37.4477
#
#
#
# Elastic Compliance Matrix: (Units=1/GPa)
#
#
# Indices 1 2 3 4 5 6 
#
# 1 0.008885 0.000487 0.000254 0.000000 0.000000 0.000000
# 2 0.000487 0.020473 0.000534 0.000000 0.000000 0.000000
# 3 0.000254 0.000534 0.008945 0.000000 0.000000 0.000000
# 4 0.000000 0.000000 0.000000 -0.406691 0.000000 0.000000
# 5 0.000000 0.000000 0.000000 0.000000 -0.132010 0.000000
# 6 0.000000 0.000000 0.000000 0.000000 0.000000 0.026704
#
#
# Mechanical properties :
#
#
# Convention : Reuss Voigt Hill
#
# Bulk Modulus (GPa) = 24.47744 28.53382 26.50563
# Shear Modulus (GPa) = -10.80784 24.30317 6.74766
#
# Velocity S-wave (km/s) = -2.13237 3.19760 1.68488
# Velocity P-wave (km/s) = 2.05799 5.06334 3.86476
#
# Compressibility (1/GPa) = 0.04085395
#
# Stress axis : x y z
#
# Youngs Moduli (GPa) = 112.54313 48.84563 111.79408
#
# Poissons Ratio (x) = -0.02380 -0.02837
# Poissons Ratio (y) = -0.05484 -0.05973
# Poissons Ratio (z) = -0.02856 -0.02610
#
# Static dielectric constant tensor:
#      x y z
#    x 1.955490 0.000000 0.000000 
#    y 0.000000 1.863150 0.000000 
#    z 0.000000 0.000000 1.916490 
# 
# From -- ./inp_files/5312.got.cif
#   From: 2010.05.17/outbox.cif.g08.bks.cpg/sg71_3_cif.got.tgz:5312.got - 2010.06.03 16:22:01.
