data_PCOD9524383
_publ_section_title
;
Structure prediction by ZEFSAII (Michael W. Deem and Ramdas Pophale) SiO2 
 PCOD9524383
Probable space group: I M M M
;
_chemical_formula_sum "Si O2"
_cell_formula_units_Z 72
_cell_length_a 9.150419
_cell_length_b 20.267982
_cell_length_c 19.633391
_cell_angle_alpha 90.000000
_cell_angle_beta 90.000000
_cell_angle_gamma 90.000000
_cell_volume 3641.219053
_symmetry_space_group_name_H-M "I M M M"
_symmetry_group_IT_number 71
_symmetry_cell_setting 'orthorhombic'
loop_
_space_group_symop_operation_xyz
x,y,z
-x,-y,z
x,-y,-z
-x,y,-z
-x,-y,-z
x,y,-z
-x,y,z
x,-y,z
1/2+x,1/2+y,1/2+z
1/2-x,1/2-y,1/2+z
1/2+x,1/2-y,1/2-z
1/2-x,1/2+y,1/2-z
1/2-x,1/2-y,1/2-z
1/2+x,1/2+y,1/2-z
1/2-x,1/2+y,1/2+z
1/2+x,1/2-y,1/2+z
loop_
_atom_site_type_symbol
_atom_site_label
_atom_site_fract_x
_atom_site_fract_y
_atom_site_fract_z
Si Si1 0.326100 0.000000 0.581618
Si Si2 0.329407 0.611681 0.422492
Si Si3 0.332140 0.923239 0.788028
Si Si4 0.172961 0.878366 0.658500
Si Si5 0.667567 0.229735 0.420852
O O1 0.252764 0.064414 0.614913
O O2 0.500000 0.000000 0.595490
O O3 0.305521 0.000000 0.500000
O O4 0.289638 0.593162 0.500000
O O5 0.500000 0.593670 0.412091
O O6 0.229436 0.582402 0.364038
O O7 0.319693 0.691309 0.417139
O O8 0.500000 0.901013 0.784505
O O9 0.232114 0.883958 0.735275
O O10 0.326787 0.000000 0.767320
O O11 0.221320 0.809263 0.626018
O O12 0.000000 0.887728 0.656397
O O13 0.689607 0.210961 0.500000
O O14 0.500000 0.211901 0.402580
#
# Coordination Sequence:
#
# PCOD9524383 Si02
#       5
#     8  16  16  16  16
#     4  11  23  39  59  83 116 159 200 239 289 349
#     4   9  20  40  65  91 118 151 194 244 298 355
#     4  11  24  41  61  84 117 159 200 245 297 354
#     4  12  24  37  58  87 119 156 198 246 294 343
#     4   9  19  38  62  87 119 158 196 238 293 356
#
# _framework density 19.773599000000001
#
# number of rings (size 3 to 8) (size 9 to 14) (size 15 to 20)
#    0.000    1.667    1.111    5.000    0.000    8.000 
#    0.000    4.444    0.000    0.000    0.000    0.000 
#    0.000    0.000    0.000    0.000    0.000    0.000 
#
# Total GULP energy -201271.358074 kJ/mol
# GULP energy per Si atom -5590.871058 kJ/mol
# Density = 1.972859 g / cm^3
# Si number density = 19.773599 Si / 1000 Ang^3
#
#
#
# Elastic Constant Matrix: (Units=GPa)
#
#
# Indices 1 2 3 4 5 6 
#
# 1 130.8518 20.1258 63.0700 0.0000 0.0000 0.0000
# 2 20.1258 20.1067 11.2580 0.0000 0.0000 0.0000
# 3 63.0700 11.2580 91.1760 0.0000 0.0000 0.0000
# 4 0.0000 0.0000 0.0000 33.4001 0.0000 0.0000
# 5 0.0000 0.0000 0.0000 0.0000 34.1583 0.0000
# 6 0.0000 0.0000 0.0000 0.0000 0.0000 26.8845
#
#
#
# Elastic Compliance Matrix: (Units=1/GPa)
#
#
# Indices 1 2 3 4 5 6 
#
# 1 0.012644 -0.008335 -0.007717 0.000000 0.000000 0.000000
# 2 -0.008335 0.058923 -0.001510 0.000000 0.000000 0.000000
# 3 -0.007717 -0.001510 0.016492 0.000000 0.000000 0.000000
# 4 0.000000 0.000000 0.000000 0.029940 0.000000 0.000000
# 5 0.000000 0.000000 0.000000 0.000000 0.029275 0.000000
# 6 0.000000 0.000000 0.000000 0.000000 0.000000 0.037196
#
#
# Mechanical properties :
#
#
# Convention : Reuss Voigt Hill
#
# Bulk Modulus (GPa) = 18.89097 47.89357 33.39227
# Shear Modulus (GPa) = 21.07573 28.73396 24.90485
#
# Velocity S-wave (km/s) = 3.26828 3.81615 3.55279
# Velocity P-wave (km/s) = 4.88022 6.60991 5.80980
#
# Compressibility (1/GPa) = 0.05293534
#
# Stress axis : x y z
#
# Youngs Moduli (GPa) = 79.09028 16.97131 60.63392
#
# Poissons Ratio (x) = 0.14145 0.46791
# Poissons Ratio (y) = 0.65921 0.09155
# Poissons Ratio (z) = 0.61034 0.02563
#
# Static dielectric constant tensor:
#      x y z
#    x 1.660760 0.000000 0.000000 
#    y 0.000000 1.697700 0.000000 
#    z 0.000000 0.000000 1.686680 
# 
# From -- ./inp_files/42066.got.cif
#   From: 2010.05.17/outbox.cif.g08.bks.cpg/sg71_22_cif.got.tgz:42066.got - 2010.06.03 16:22:01.
