data_PCOD9524135
_publ_section_title
;
Structure prediction by ZEFSAII (Michael W. Deem and Ramdas Pophale) SiO2 
 PCOD9524135
Probable space group: I M M M
;
_chemical_formula_sum "Si O2"
_cell_formula_units_Z 72
_cell_length_a 33.066079
_cell_length_b 13.910668
_cell_length_c 7.383388
_cell_angle_alpha 90.000000
_cell_angle_beta 90.000000
_cell_angle_gamma 90.000000
_cell_volume 3396.146186
_symmetry_space_group_name_H-M "I M M M"
_symmetry_group_IT_number 71
_symmetry_cell_setting 'orthorhombic'
loop_
_space_group_symop_operation_xyz
x,y,z
-x,-y,z
x,-y,-z
-x,y,-z
-x,-y,-z
x,y,-z
-x,y,z
x,-y,z
1/2+x,1/2+y,1/2+z
1/2-x,1/2-y,1/2+z
1/2+x,1/2-y,1/2-z
1/2-x,1/2+y,1/2-z
1/2-x,1/2-y,1/2-z
1/2+x,1/2+y,1/2-z
1/2-x,1/2+y,1/2+z
1/2+x,1/2-y,1/2+z
loop_
_atom_site_type_symbol
_atom_site_label
_atom_site_fract_x
_atom_site_fract_y
_atom_site_fract_z
Si Si1 0.229506 0.000000 0.719978
Si Si2 0.864449 0.000000 0.719997
Si Si3 0.000000 0.111820 0.279324
Si Si4 0.086419 0.808507 0.720449
Si Si5 0.129254 0.611251 0.721833
Si Si6 0.283909 0.175725 0.803963
O O1 0.182569 0.000000 0.771276
O O2 0.255202 0.914682 0.799580
O O3 0.231480 0.000000 0.500000
O O4 0.885888 0.099932 0.778027
O O5 0.866513 0.000000 0.500000
O O6 0.040897 0.165229 0.223203
O O7 0.000000 0.110206 0.500000
O O8 0.000000 0.000000 0.222031
O O9 0.087665 0.808459 0.500000
O O10 0.100932 0.701636 0.775719
O O11 0.128867 0.607061 0.500000
O O12 0.120839 0.500000 0.779209
O O13 0.174135 0.644059 0.785948
O O14 0.250000 0.250000 0.750000
O O15 0.298027 0.210709 0.000000
#
# Coordination Sequence:
#
# PCOD9524135 Si02
#       6
#     8   8   8  16  16  16
#     4  11  21  33  50  75 102 135 179 220 259 307
#     4   9  16  26  41  66  95 124 165 209 248 303
#     4   9  14  22  37  61  91 121 157 203 253 301
#     4   9  15  24  40  61  89 125 163 202 246 303
#     4   9  17  30  45  62  89 129 170 203 248 314
#     4  11  21  35  52  72  99 136 179 221 264 308
#
# _framework density 21.200502
#
# number of rings (size 3 to 8) (size 9 to 14) (size 15 to 20)
#    0.000    2.333    2.222    2.333    0.000    3.556 
#    0.000    0.556    0.000    3.333    0.000    0.000 
#    0.000    0.000    0.000   53.000    0.000   59.000 
#
# Total GULP energy -200456.720358 kJ/mol
# GULP energy per Si atom -5568.242232 kJ/mol
# Density = 2.115225 g / cm^3
# Si number density = 21.200502 Si / 1000 Ang^3
#
#
#
# Elastic Constant Matrix: (Units=GPa)
#
#
# Indices 1 2 3 4 5 6 
#
# 1 186.1428 100.2176 -3.1517 0.0000 0.0000 0.0000
# 2 100.2176 221.4955 -5.3270 0.0000 0.0000 0.0000
# 3 -3.1517 -5.3270 67.0204 -0.0001 -0.0001 0.0000
# 4 0.0000 0.0000 -0.0001 5.4486 0.0000 0.0000
# 5 0.0000 0.0000 -0.0001 0.0000 9.1623 0.0000
# 6 0.0000 0.0000 0.0000 0.0000 0.0000 33.4746
#
#
#
# Elastic Compliance Matrix: (Units=1/GPa)
#
#
# Indices 1 2 3 4 5 6 
#
# 1 0.007103 -0.003212 0.000079 0.000000 0.000000 0.000000
# 2 -0.003212 0.005976 0.000324 0.000000 0.000000 0.000000
# 3 0.000079 0.000324 0.014950 0.000000 0.000000 0.000000
# 4 0.000000 0.000000 0.000000 0.183533 0.000000 0.000000
# 5 0.000000 0.000000 0.000000 0.000000 0.109143 0.000000
# 6 0.000000 0.000000 0.000000 0.000000 0.000000 0.029873
#
#
# Mechanical properties :
#
#
# Convention : Reuss Voigt Hill
#
# Bulk Modulus (GPa) = 44.62190 73.12627 58.87408
# Shear Modulus (GPa) = 13.74883 35.14508 24.44696
#
# Velocity S-wave (km/s) = 2.54936 4.07596 3.39946
# Velocity P-wave (km/s) = 5.45517 7.53119 6.57563
#
# Compressibility (1/GPa) = 0.02241052
#
# Stress axis : x y z
#
# Youngs Moduli (GPa) = 140.79024 167.34248 66.88833
#
# Poissons Ratio (x) = 0.53747 -0.00527
# Poissons Ratio (y) = 0.45219 -0.02167
# Poissons Ratio (z) = -0.01108 -0.05421
#
# Static dielectric constant tensor:
#      x y z
#    x 1.741940 0.000000 0.000000 
#    y 0.000000 1.705780 0.000000 
#    z 0.000000 0.000000 2.204010 
# 
# From -- ./inp_files/16433.got.cif
#   From: 2010.05.17/outbox.cif.g08.bks.cpg/sg71_9_cif.got.tgz:16433.got - 2010.06.03 16:22:01.
