data_PCOD9524083
_publ_section_title
;
Structure prediction by ZEFSAII (Michael W. Deem and Ramdas Pophale) SiO2 
 PCOD9524083
Probable space group: I M M M
;
_chemical_formula_sum "Si O2"
_cell_formula_units_Z 80
_cell_length_a 12.133770
_cell_length_b 19.209197
_cell_length_c 19.450190
_cell_angle_alpha 90.000000
_cell_angle_beta 90.000000
_cell_angle_gamma 90.000000
_cell_volume 4533.449863
_symmetry_space_group_name_H-M "I M M M"
_symmetry_group_IT_number 71
_symmetry_cell_setting 'orthorhombic'
loop_
_space_group_symop_operation_xyz
x,y,z
-x,-y,z
x,-y,-z
-x,y,-z
-x,-y,-z
x,y,-z
-x,y,z
x,-y,z
1/2+x,1/2+y,1/2+z
1/2-x,1/2-y,1/2+z
1/2+x,1/2-y,1/2-z
1/2-x,1/2+y,1/2-z
1/2-x,1/2-y,1/2-z
1/2+x,1/2+y,1/2-z
1/2-x,1/2+y,1/2+z
1/2+x,1/2-y,1/2+z
loop_
_atom_site_type_symbol
_atom_site_label
_atom_site_fract_x
_atom_site_fract_y
_atom_site_fract_z
Si Si1 0.500000 0.356152 0.921218
Si Si2 0.740367 0.361807 0.078794
Si Si3 0.685649 0.846777 0.187998
Si Si4 0.627501 0.758767 0.677128
Si Si5 0.128967 0.500000 0.731150
Si Si6 0.500000 0.811499 0.920572
Si Si7 0.127125 0.500000 0.103595
O O1 0.381718 0.376659 0.890947
O O2 0.500000 0.272434 0.920871
O O3 0.500000 0.383150 0.000000
O O4 0.805002 0.305477 0.123113
O O5 0.810761 0.431645 0.078935
O O6 0.725615 0.337105 0.000000
O O7 0.634728 0.801000 0.250782
O O8 0.806763 0.813723 0.180779
O O9 0.682602 0.928097 0.206244
O O10 0.607803 0.835055 0.121871
O O11 0.500000 0.751384 0.658442
O O12 0.130297 0.500000 0.813678
O O13 0.000000 0.500000 0.709442
O O14 0.500000 0.834939 0.000000
O O15 0.000000 0.500000 0.082301
#
# Coordination Sequence:
#
# PCOD9524083 Si02
#       7
#     8  16  16  16   8   8   8
#     4   9  20  37  57  85 121 152 191 251 298 330
#     4  11  22  37  59  86 119 160 202 242 289 348
#     4  11  22  38  60  86 117 152 196 241 295 353
#     4  11  22  37  59  86 118 159 198 236 287 349
#     4  11  20  37  60  84 115 152 187 243 304 344
#     4  11  20  37  63  89 114 143 189 252 302 342
#     4  11  23  37  53  82 122 159 200 240 289 349
#
# _framework density 17.646605000000001
#
# number of rings (size 3 to 8) (size 9 to 14) (size 15 to 20)
#    0.000    1.200    6.000    0.900    0.000    2.400 
#    0.000    3.000    2.200    0.000    0.000    0.000 
#    0.000    3.200    0.000    0.000    0.000    0.000 
#
# Total GULP energy -223282.240199 kJ/mol
# GULP energy per Si atom -5582.056005 kJ/mol
# Density = 1.760644 g / cm^3
# Si number density = 17.646605 Si / 1000 Ang^3
#
#
#
# Elastic Constant Matrix: (Units=GPa)
#
#
# Indices 1 2 3 4 5 6 
#
# 1 181.0588 58.7461 36.2419 0.0000 0.0000 0.0000
# 2 58.7461 110.9949 24.1382 0.0000 0.0000 0.0000
# 3 36.2419 24.1382 89.5291 0.0000 0.0000 0.0000
# 4 0.0000 0.0000 0.0000 25.3331 0.0000 0.0000
# 5 0.0000 0.0000 0.0000 0.0000 21.2903 0.0000
# 6 0.0000 0.0000 0.0000 0.0000 0.0000 18.7380
#
#
#
# Elastic Compliance Matrix: (Units=1/GPa)
#
#
# Indices 1 2 3 4 5 6 
#
# 1 0.006972 -0.003268 -0.001941 0.000000 0.000000 0.000000
# 2 -0.003268 0.011102 -0.001670 0.000000 0.000000 0.000000
# 3 -0.001941 -0.001670 0.012406 0.000000 0.000000 0.000000
# 4 0.000000 0.000000 0.000000 0.039474 0.000000 0.000000
# 5 0.000000 0.000000 0.000000 0.000000 0.046970 0.000000
# 6 0.000000 0.000000 0.000000 0.000000 0.000000 0.053367
#
#
# Mechanical properties :
#
#
# Convention : Reuss Voigt Hill
#
# Bulk Modulus (GPa) = 59.80553 68.87057 64.33805
# Shear Modulus (GPa) = 26.36800 30.56940 28.46870
#
# Velocity S-wave (km/s) = 3.86971 4.16662 4.02091
# Velocity P-wave (km/s) = 7.34374 7.89050 7.62202
#
# Compressibility (1/GPa) = 0.01672086
#
# Stress axis : x y z
#
# Youngs Moduli (GPa) = 143.43252 90.07164 80.60781
#
# Poissons Ratio (x) = 0.29434 0.15648
# Poissons Ratio (y) = 0.46872 0.13465
# Poissons Ratio (z) = 0.27843 0.15046
#
# Static dielectric constant tensor:
#      x y z
#    x 1.621620 0.000000 0.000000 
#    y 0.000000 1.577030 0.000000 
#    z 0.000000 0.000000 1.628650 
# 
# From -- ./inp_files/25603.got.cif
#   From: 2010.05.17/outbox.cif.g08.bks.cpg/sg71_13_cif.got.tgz:25603.got - 2010.06.03 16:22:01.
