data_PCOD9524313
_publ_section_title
;
Structure prediction by ZEFSAII (Michael W. Deem and Ramdas Pophale) SiO2 
 PCOD9524313
Probable space group: I M M M
;
_chemical_formula_sum "Si O2"
_cell_formula_units_Z 80
_cell_length_a 15.006105
_cell_length_b 7.633382
_cell_length_c 27.952884
_cell_angle_alpha 90.000000
_cell_angle_beta 90.000000
_cell_angle_gamma 90.000000
_cell_volume 3201.928278
_symmetry_space_group_name_H-M "I M M M"
_symmetry_group_IT_number 71
_symmetry_cell_setting 'orthorhombic'
loop_
_space_group_symop_operation_xyz
x,y,z
-x,-y,z
x,-y,-z
-x,y,-z
-x,-y,-z
x,y,-z
-x,y,z
x,-y,z
1/2+x,1/2+y,1/2+z
1/2-x,1/2-y,1/2+z
1/2+x,1/2-y,1/2-z
1/2-x,1/2+y,1/2-z
1/2-x,1/2-y,1/2-z
1/2+x,1/2+y,1/2-z
1/2-x,1/2+y,1/2+z
1/2+x,1/2-y,1/2+z
loop_
_atom_site_type_symbol
_atom_site_label
_atom_site_fract_x
_atom_site_fract_y
_atom_site_fract_z
Si Si1 0.645992 0.798780 0.554113
Si Si2 0.333259 0.000000 0.281388
Si Si3 0.891110 0.803357 0.706620
Si Si4 0.500000 0.698630 0.056198
Si Si5 0.176596 0.698374 0.602837
Si Si6 0.099465 0.198986 0.156038
O O1 0.636001 0.729100 0.500000
O O2 0.748770 0.792445 0.571222
O O3 0.599274 0.705594 0.598611
O O4 0.615738 0.000000 0.553656
O O5 0.352869 0.155127 0.241087
O O6 0.335657 0.155278 0.323148
O O7 0.854206 0.774745 0.653540
O O8 0.000000 0.796757 0.706690
O O9 0.860075 0.000000 0.721278
O O10 0.500000 0.500000 0.077048
O O11 0.413054 0.797137 0.072840
O O12 0.500000 0.684198 0.000000
O O13 0.208640 0.500000 0.610797
O O14 0.000000 0.249043 0.173749
O O15 0.116724 0.000000 0.171318
#
# Coordination Sequence:
#
# PCOD9524313 Si02
#       6
#    16   8  16   8  16  16
#     4  11  25  46  72  99 136 182 226 284 355 417
#     4  12  23  42  71 103 138 183 233 280 343 413
#     4  11  22  38  65  99 137 184 231 282 335 400
#     4  11  23  39  61  93 133 179 237 290 339 409
#     4  12  24  40  64  96 138 181 232 287 343 409
#     4  11  24  44  73 106 140 177 225 286 346 418
#
# _framework density 24.984945
#
# number of rings (size 3 to 8) (size 9 to 14) (size 15 to 20)
#    0.000    0.700    3.000    5.700    0.000    6.800 
#    0.000    3.000    0.000    0.000    0.000    0.000 
#    0.000    0.000    0.000    0.000    0.000    0.000 
#
# Total GULP energy -223115.424478 kJ/mol
# GULP energy per Si atom -5577.885612 kJ/mol
# Density = 2.492808 g / cm^3
# Si number density = 24.984945 Si / 1000 Ang^3
#
#
#
# Elastic Constant Matrix: (Units=GPa)
#
#
# Indices 1 2 3 4 5 6 
#
# 1 41.9428 -30.1145 -4.6207 0.0000 0.0000 0.0000
# 2 -30.1145 156.8582 45.4186 0.0000 0.0000 0.0000
# 3 -4.6207 45.4186 187.6380 0.0000 0.0000 0.0000
# 4 0.0000 0.0000 0.0000 24.2968 0.0000 0.0000
# 5 0.0000 0.0000 0.0000 0.0000 60.2999 0.0000
# 6 0.0000 0.0000 0.0000 0.0000 0.0000 22.0295
#
#
#
# Elastic Compliance Matrix: (Units=1/GPa)
#
#
# Indices 1 2 3 4 5 6 
#
# 1 0.027728 0.005512 -0.000651 0.000000 0.000000 0.000000
# 2 0.005512 0.007951 -0.001789 0.000000 0.000000 0.000000
# 3 -0.000651 -0.001789 0.005746 0.000000 0.000000 0.000000
# 4 0.000000 0.000000 0.000000 0.041158 0.000000 0.000000
# 5 0.000000 0.000000 0.000000 0.000000 0.016584 0.000000
# 6 0.000000 0.000000 0.000000 0.000000 0.000000 0.045394
#
#
# Mechanical properties :
#
#
# Convention : Reuss Voigt Hill
#
# Bulk Modulus (GPa) = 21.02220 45.31175 33.16698
# Shear Modulus (GPa) = 32.40994 46.37562 39.39278
#
# Velocity S-wave (km/s) = 3.60554 4.31297 3.97503
# Velocity P-wave (km/s) = 5.07597 6.55571 5.86271
#
# Compressibility (1/GPa) = 0.04756876
#
# Stress axis : x y z
#
# Youngs Moduli (GPa) = 36.06498 125.76427 174.02231
#
# Poissons Ratio (x) = -0.69320 0.11335
# Poissons Ratio (y) = -0.19879 0.31131
# Poissons Ratio (z) = 0.02349 0.22498
#
# Static dielectric constant tensor:
#      x y z
#    x 2.075210 0.000000 0.000000 
#    y 0.000000 1.985440 0.000000 
#    z 0.000000 0.000000 1.951400 
# 
# From -- ./inp_files/65807.got.cif
#   From: 2010.05.17/outbox.cif.g08.bks.cpg/sg71_33_cif.got.tgz:65807.got - 2010.06.03 16:22:01.
