data_PCOD9524254
_publ_section_title
;
Structure prediction by ZEFSAII (Michael W. Deem and Ramdas Pophale) SiO2 
 PCOD9524254
Probable space group: I M M M
;
_chemical_formula_sum "Si O2"
_cell_formula_units_Z 72
_cell_length_a 8.972339
_cell_length_b 32.890230
_cell_length_c 13.805674
_cell_angle_alpha 90.000000
_cell_angle_beta 90.000000
_cell_angle_gamma 90.000000
_cell_volume 4074.086059
_symmetry_space_group_name_H-M "I M M M"
_symmetry_group_IT_number 71
_symmetry_cell_setting 'orthorhombic'
loop_
_space_group_symop_operation_xyz
x,y,z
-x,-y,z
x,-y,-z
-x,y,-z
-x,-y,-z
x,y,-z
-x,y,z
x,-y,z
1/2+x,1/2+y,1/2+z
1/2-x,1/2-y,1/2+z
1/2+x,1/2-y,1/2-z
1/2-x,1/2+y,1/2-z
1/2-x,1/2-y,1/2-z
1/2+x,1/2+y,1/2-z
1/2-x,1/2+y,1/2+z
1/2+x,1/2-y,1/2+z
loop_
_atom_site_type_symbol
_atom_site_label
_atom_site_fract_x
_atom_site_fract_y
_atom_site_fract_z
Si Si1 0.327418 0.576466 0.714590
Si Si2 0.826295 0.293126 0.229903
Si Si3 0.333277 0.339777 0.612566
Si Si4 0.321796 0.000000 0.886495
Si Si5 0.679901 0.364417 0.888221
O O1 0.500000 0.563965 0.728693
O O2 0.324605 0.612588 0.635663
O O3 0.235916 0.539200 0.672262
O O4 0.276386 0.599313 0.813703
O O5 0.750000 0.250000 0.250000
O O6 0.794535 0.317944 0.328082
O O7 0.750235 0.322089 0.149163
O O8 0.000000 0.288209 0.209111
O O9 0.323304 0.331571 0.500000
O O10 0.500000 0.326618 0.647188
O O11 0.500000 0.000000 0.888218
O O12 0.270032 0.000000 0.000000
O O13 0.500000 0.361125 0.881173
O O14 0.719238 0.372330 0.000000
#
# Coordination Sequence:
#
# PCOD9524254 Si02
#       5
#    16  16  16   8  16
#     4   9  18  34  56  80 104 134 173 214 259 313
#     4  11  22  35  52  76 107 140 176 218 262 312
#     4   9  18  34  55  77 102 133 170 213 261 313
#     4  11  23  35  50  77 112 146 177 213 260 313
#     4   9  19  38  61  81 104 137 178 224 272 321
#
# _framework density 17.672675000000002
#
# number of rings (size 3 to 8) (size 9 to 14) (size 15 to 20)
#    0.000    2.333    0.000    4.333    0.000    7.111 
#    0.000    0.556    0.000    3.333    0.000    0.000 
#    0.000    0.000    0.000    0.000    0.000    0.000 
#
# Total GULP energy -200643.052408 kJ/mol
# GULP energy per Si atom -5573.418122 kJ/mol
# Density = 1.763245 g / cm^3
# Si number density = 17.672675 Si / 1000 Ang^3
#
#
#
# Elastic Constant Matrix: (Units=GPa)
#
#
# Indices 1 2 3 4 5 6 
#
# 1 62.9033 49.6754 27.6182 0.0000 0.0000 0.0000
# 2 49.6754 113.1418 44.7263 0.0000 0.0000 0.0000
# 3 27.6182 44.7263 106.2516 -0.0002 0.0000 0.0000
# 4 0.0000 0.0000 -0.0002 6.6246 0.0000 0.0000
# 5 0.0000 0.0000 0.0000 0.0000 23.6133 0.0000
# 6 0.0000 0.0000 0.0000 0.0000 0.0000 29.8028
#
#
#
# Elastic Compliance Matrix: (Units=1/GPa)
#
#
# Indices 1 2 3 4 5 6 
#
# 1 0.024768 -0.009992 -0.002232 0.000000 0.000000 0.000000
# 2 -0.009992 0.014634 -0.003563 0.000000 0.000000 0.000000
# 3 -0.002232 -0.003563 0.011492 0.000000 0.000000 0.000000
# 4 0.000000 0.000000 0.000000 0.150953 0.000000 0.000000
# 5 0.000000 0.000000 0.000000 0.000000 0.042349 0.000000
# 6 0.000000 0.000000 0.000000 0.000000 0.000000 0.033554
#
#
# Mechanical properties :
#
#
# Convention : Reuss Voigt Hill
#
# Bulk Modulus (GPa) = 51.76010 58.48182 55.12096
# Shear Modulus (GPa) = 15.83460 22.69325 19.26392
#
# Velocity S-wave (km/s) = 2.99656 3.58730 3.30516
# Velocity P-wave (km/s) = 6.42840 7.09379 6.76927
#
# Compressibility (1/GPa) = 0.01931990
#
# Stress axis : x y z
#
# Youngs Moduli (GPa) = 40.37388 68.33337 87.02074
#
# Poissons Ratio (x) = 0.68282 0.19422
# Poissons Ratio (y) = 0.40343 0.31004
# Poissons Ratio (z) = 0.09011 0.24346
#
# Static dielectric constant tensor:
#      x y z
#    x 1.617030 0.000000 0.000000 
#    y 0.000000 1.609600 0.000000 
#    z 0.000000 0.000000 1.611860 
# 
# From -- ./inp_files/6460.got.cif
#   From: 2010.05.17/outbox.cif.g08.bks.cpg/sg71_4_cif.got.tgz:6460.got - 2010.06.03 16:22:01.
