data_PCOD9524089
_publ_section_title
;
Structure prediction by ZEFSAII (Michael W. Deem and Ramdas Pophale) SiO2 
 PCOD9524089
Probable space group: I M M M
;
_chemical_formula_sum "Si O2"
_cell_formula_units_Z 68
_cell_length_a 19.586625
_cell_length_b 9.855546
_cell_length_c 18.600310
_cell_angle_alpha 90.000000
_cell_angle_beta 90.000000
_cell_angle_gamma 90.000000
_cell_volume 3590.545878
_symmetry_space_group_name_H-M "I M M M"
_symmetry_group_IT_number 71
_symmetry_cell_setting 'orthorhombic'
loop_
_space_group_symop_operation_xyz
x,y,z
-x,-y,z
x,-y,-z
-x,y,-z
-x,-y,-z
x,y,-z
-x,y,z
x,-y,z
1/2+x,1/2+y,1/2+z
1/2-x,1/2-y,1/2+z
1/2+x,1/2-y,1/2-z
1/2-x,1/2+y,1/2-z
1/2-x,1/2-y,1/2-z
1/2+x,1/2+y,1/2-z
1/2-x,1/2+y,1/2+z
1/2+x,1/2-y,1/2+z
loop_
_atom_site_type_symbol
_atom_site_label
_atom_site_fract_x
_atom_site_fract_y
_atom_site_fract_z
Si Si1 0.388552 0.500000 0.859637
Si Si2 0.630846 0.000000 0.245255
Si Si3 0.000000 0.200246 0.414249
Si Si4 0.840545 0.278035 0.856884
Si Si5 0.000000 0.500000 0.640618
Si Si6 0.421339 0.165412 0.500000
Si Si7 0.752357 0.000000 0.580273
Si Si8 0.704834 0.500000 0.714756
O O1 0.436024 0.630383 0.873408
O O2 0.332392 0.500000 0.921107
O O3 0.342057 0.500000 0.787464
O O4 0.622917 0.866852 0.295300
O O5 0.570418 0.000000 0.187251
O O6 0.711950 0.000000 0.222794
O O7 0.000000 0.166785 0.500000
O O8 0.000000 0.361062 0.404238
O O9 0.775162 0.368420 0.878906
O O10 0.817164 0.134256 0.827948
O O11 0.885867 0.278151 0.928403
O O12 0.500000 0.204364 0.500000
O O13 0.418797 0.000000 0.500000
O O14 0.724362 0.000000 0.500000
#
# Coordination Sequence:
#
# PCOD9524089 Si02
#       8
#     8   8   8  16   4   8   8   8
#     4  11  23  44  67  92 124 172 216 268 314 383
#     4  11  24  42  66  95 128 177 210 255 322 394
#     4  11  25  47  67  95 129 170 215 266 321 380
#     4  11  22  40  64  93 130 169 214 263 317 368
#     4  12  27  40  68  99 140 162 208 258 338 387
#     4  11  22  43  67  95 129 172 225 259 308 388
#     4  11  20  39  65  89 120 166 225 260 307 381
#     4  12  25  40  65  97 137 159 214 275 322 373
#
# _framework density 18.938624999999998
#
# number of rings (size 3 to 8) (size 9 to 14) (size 15 to 20)
#    0.000    0.824    5.882    3.706    4.941    0.471 
#    4.235    0.588    2.588    0.000    0.000    0.000 
#    0.000    0.000    0.000    0.000    0.000    0.000 
#
# Total GULP energy -189727.139455 kJ/mol
# GULP energy per Si atom -5580.209984 kJ/mol
# Density = 1.889552 g / cm^3
# Si number density = 18.938625 Si / 1000 Ang^3
#
#
#
# Elastic Constant Matrix: (Units=GPa)
#
#
# Indices 1 2 3 4 5 6 
#
# 1 149.5322 41.7127 61.1924 0.0000 0.0000 0.0000
# 2 41.7127 151.0386 65.7080 0.0000 0.0000 0.0000
# 3 61.1924 65.7080 121.0188 0.0000 0.0000 0.0000
# 4 0.0000 0.0000 0.0000 -10.8022 0.0000 0.0000
# 5 0.0000 0.0000 0.0000 0.0000 21.1447 0.0000
# 6 0.0000 0.0000 0.0000 0.0000 0.0000 13.0307
#
#
#
# Elastic Compliance Matrix: (Units=1/GPa)
#
#
# Indices 1 2 3 4 5 6 
#
# 1 0.008477 -0.000624 -0.003948 0.000000 0.000000 0.000000
# 2 -0.000624 0.008714 -0.004416 0.000000 0.000000 0.000000
# 3 -0.003948 -0.004416 0.012657 0.000000 0.000000 0.000000
# 4 0.000000 0.000000 0.000000 -0.092574 0.000000 0.000000
# 5 0.000000 0.000000 0.000000 0.000000 0.047293 0.000000
# 6 0.000000 0.000000 0.000000 0.000000 0.000000 0.076742
#
#
# Mechanical properties :
#
#
# Convention : Reuss Voigt Hill
#
# Bulk Modulus (GPa) = 84.22241 84.31286 84.26764
# Shear Modulus (GPa) = 60.06605 21.53976 40.80290
#
# Velocity S-wave (km/s) = 5.63782 3.37611 4.64667
# Velocity P-wave (km/s) = 9.32458 7.73390 8.56624
#
# Compressibility (1/GPa) = 0.01187332
#
# Stress axis : x y z
#
# Youngs Moduli (GPa) = 117.96612 114.75448 79.00733
#
# Poissons Ratio (x) = 0.07157 0.31190
# Poissons Ratio (y) = 0.07358 0.34890
# Poissons Ratio (z) = 0.46569 0.50677
#
# Static dielectric constant tensor:
#      x y z
#    x 1.659530 0.000000 0.000000 
#    y 0.000000 1.626190 0.000000 
#    z 0.000000 0.000000 1.666980 
# 
# From -- ./inp_files/53781.got.cif
#   From: 2010.05.17/outbox.cif.g08.bks.cpg/sg71_27_cif.got.tgz:53781.got - 2010.06.03 16:22:01.
