data_PCOD9524808
_publ_section_title
;
Structure prediction by ZEFSAII (Michael W. Deem and Ramdas Pophale) SiO2 
 PCOD9524808
Probable space group: I M M M
;
_chemical_formula_sum "Si O2"
_cell_formula_units_Z 44
_cell_length_a 30.000000
_cell_length_b 18.000000
_cell_length_c 9.000000
_cell_angle_alpha 90.000000
_cell_angle_beta 90.000000
_cell_angle_gamma 90.000000
_cell_volume 4860.000000
_symmetry_space_group_name_H-M "I M M M"
_symmetry_group_IT_number 71
_symmetry_cell_setting 'orthorhombic'
loop_
_space_group_symop_operation_xyz
x,y,z
-x,-y,z
x,-y,-z
-x,y,-z
-x,-y,-z
x,y,-z
-x,y,z
x,-y,z
1/2+x,1/2+y,1/2+z
1/2-x,1/2-y,1/2+z
1/2+x,1/2-y,1/2-z
1/2-x,1/2+y,1/2-z
1/2-x,1/2-y,1/2-z
1/2+x,1/2+y,1/2-z
1/2-x,1/2+y,1/2+z
1/2+x,1/2-y,1/2+z
loop_
_atom_site_type_symbol
_atom_site_label
_atom_site_fract_x
_atom_site_fract_y
_atom_site_fract_z
Si Si1 0.383932 0.138626 0.679316
Si Si2 0.716073 0.911205 0.667532
Si Si3 0.306995 0.412046 0.323009
Si Si4 0.550903 0.580312 0.819622
Si Si5 0.378264 0.699211 0.179323
Si Si6 0.552487 0.000000 0.680777
O O1 0.388024 0.146236 0.500000
O O2 0.333434 0.112384 0.711431
O O3 0.386155 0.218961 0.755678
O O4 0.419615 0.074505 0.725399
O O5 0.725423 0.882349 0.500000
O O6 0.756226 0.892749 0.777424
O O7 0.715204 0.000000 0.658973
O O8 0.313102 0.407668 0.500000
O O9 0.314967 0.500000 0.279061
O O10 0.337631 0.350723 0.242528
O O11 0.500000 0.585487 0.770704
O O12 0.569332 0.500000 0.770999
O O13 0.579538 0.649547 0.773767
O O14 0.550904 0.579695 0.000000
O O15 0.374815 0.702708 0.000000
O O16 0.500000 0.000000 0.727132
O O17 0.552661 0.000000 0.500000
#
# Coordination Sequence:
#
# PCOD9524808 Si02
#       6
#    16  16  16  16  16   8
#     4  10  20  36  57  81 109 143 182 228 279 329
#     4   9  17  33  57  79 102 139 187 231 271 324
#     4  10  21  36  55  81 112 146 182 225 276 326
#     4   8  15  30  52  75 100 135 178 219 258 307
#     4  11  22  34  52  81 114 147 182 223 272 329
#     4   9  18  36  63  89 111 143 189 235 286 347
#
# _framework density 9.0534979999999994
#
# number of rings (size 3 to 8) (size 9 to 14) (size 15 to 20)
#    0.000    2.455    0.909    2.182    0.000    4.000 
#    0.000    0.455    0.000    2.182    0.000    6.364 
#    0.000    0.000    0.000    0.000    0.000    0.000 
#
# Total GULP energy -245079.942996 kJ/mol
# GULP energy per Si atom -5569.998704 kJ/mol
# Density = 0.903289 g / cm^3
# Si number density = 9.053498 Si / 1000 Ang^3
#
#
#
# Elastic Constant Matrix: (Units=GPa)
#
#
# Indices 1 2 3 4 5 6 
#
# 1 124.2277 91.2233 36.8962 0.0000 0.0000 0.0000
# 2 91.2233 149.4093 49.4337 0.0000 0.0000 0.0000
# 3 36.8962 49.4337 33.2852 0.0000 0.0000 0.0000
# 4 0.0000 0.0000 0.0000 31.7956 0.0000 0.0000
# 5 0.0000 0.0000 0.0000 0.0000 10.0640 0.0000
# 6 0.0000 0.0000 0.0000 0.0000 0.0000 -18.9143
#
#
#
# Elastic Compliance Matrix: (Units=1/GPa)
#
#
# Indices 1 2 3 4 5 6 
#
# 1 0.015182 -0.007277 -0.006021 0.000000 0.000000 0.000000
# 2 -0.007277 0.016648 -0.016657 0.000000 0.000000 0.000000
# 3 -0.006021 -0.016657 0.061456 0.000000 0.000000 0.000000
# 4 0.000000 0.000000 0.000000 0.031451 0.000000 0.000000
# 5 0.000000 0.000000 0.000000 0.000000 0.099364 0.000000
# 6 0.000000 0.000000 0.000000 0.000000 0.000000 -0.052870
#
#
# Mechanical properties :
#
#
# Convention : Reuss Voigt Hill
#
# Bulk Modulus (GPa) = 29.96307 73.55874 51.76090
# Shear Modulus (GPa) = 20.63842 13.21366 16.92604
#
# Velocity S-wave (km/s) = 3.37976 2.70433 3.06073
# Velocity P-wave (km/s) = 5.64040 7.10379 6.41397
#
# Compressibility (1/GPa) = 0.03337442
#
# Stress axis : x y z
#
# Youngs Moduli (GPa) = 65.86772 60.06886 16.27175
#
# Poissons Ratio (x) = 0.43714 0.09797
# Poissons Ratio (y) = 0.47935 0.27104
# Poissons Ratio (z) = 0.39659 1.00059
#
# Static dielectric constant tensor:
#      x y z
#    x 1.637620 0.000000 0.000000 
#    y 0.000000 1.614980 0.000000 
#    z 0.000000 0.000000 1.620910 
# 
# From -- ./inp_files/8835.got.cif
#   From: 2010.05.17/outbox.ucp.g08.bks.cvg/sg71_5_cif.got.tgz:8835.got - 2010.06.11 16:29:00.
