data_PCOD9524312
_publ_section_title
;
Structure prediction by ZEFSAII (Michael W. Deem and Ramdas Pophale) SiO2 
 PCOD9524312
Probable space group: I M M M
;
_chemical_formula_sum "Si O2"
_cell_formula_units_Z 104
_cell_length_a 22.074331
_cell_length_b 27.819467
_cell_length_c 8.698509
_cell_angle_alpha 90.000000
_cell_angle_beta 90.000000
_cell_angle_gamma 90.000000
_cell_volume 5341.720651
_symmetry_space_group_name_H-M "I M M M"
_symmetry_group_IT_number 71
_symmetry_cell_setting 'orthorhombic'
loop_
_space_group_symop_operation_xyz
x,y,z
-x,-y,z
x,-y,-z
-x,y,-z
-x,-y,-z
x,y,-z
-x,y,z
x,-y,z
1/2+x,1/2+y,1/2+z
1/2-x,1/2-y,1/2+z
1/2+x,1/2-y,1/2-z
1/2-x,1/2+y,1/2-z
1/2-x,1/2-y,1/2-z
1/2+x,1/2+y,1/2-z
1/2-x,1/2+y,1/2+z
1/2+x,1/2-y,1/2+z
loop_
_atom_site_type_symbol
_atom_site_label
_atom_site_fract_x
_atom_site_fract_y
_atom_site_fract_z
Si Si1 0.124360 0.056525 0.683297
Si Si2 0.203954 0.861947 0.817420
Si Si3 0.672349 0.823302 0.315801
Si Si4 0.073531 0.500000 0.676837
Si Si5 0.629357 0.725826 0.182608
Si Si6 0.069538 0.601683 0.815056
Si Si7 0.500000 0.598113 0.682334
Si Si8 0.000000 0.213561 0.817888
O O1 0.127983 0.063927 0.500000
O O2 0.175968 0.087613 0.765068
O O3 0.059764 0.075758 0.742587
O O4 0.129513 0.000000 0.715435
O O5 0.266615 0.849956 0.733592
O O6 0.156435 0.820962 0.765423
O O7 0.211726 0.860269 0.000000
O O8 0.671228 0.816348 0.500000
O O9 0.667630 0.772125 0.233024
O O10 0.614966 0.856092 0.269411
O O11 0.092453 0.500000 0.500000
O O12 0.091841 0.549782 0.756147
O O13 0.000000 0.500000 0.683420
O O14 0.560840 0.733084 0.240814
O O15 0.631179 0.719070 0.000000
O O16 0.000000 0.609412 0.761836
O O17 0.068540 0.600113 0.000000
O O18 0.500000 0.588501 0.500000
O O19 0.500000 0.655731 0.702869
O O20 0.000000 0.224185 0.000000
#
# Coordination Sequence:
#
# PCOD9524312 Si02
#       8
#    16  16  16   8  16  16   8   8
#     4  11  24  42  66  96 130 169 216 269 323 381
#     4  12  25  44  66  90 124 167 214 261 312 377
#     4  11  24  42  65  93 126 165 208 258 314 376
#     4   9  17  31  55  85 117 153 189 238 295 350
#     4  12  25  42  66  95 127 165 209 260 316 375
#     4   9  19  37  61  88 117 155 199 246 301 365
#     4  11  22  38  65  98 133 172 215 263 319 380
#     4  11  23  40  64  97 131 169 212 263 320 380
#
# _framework density 19.469380999999998
#
# number of rings (size 3 to 8) (size 9 to 14) (size 15 to 20)
#    0.000    1.154    1.538    5.077    1.077    4.923 
#    1.385    0.000    0.000    0.000    0.000    0.000 
#    0.000    0.000    0.000    0.000    0.000    0.000 
#
# Total GULP energy -290878.252223 kJ/mol
# GULP energy per Si atom -5593.812543 kJ/mol
# Density = 1.942507 g / cm^3
# Si number density = 19.469381 Si / 1000 Ang^3
#
#
#
# Elastic Constant Matrix: (Units=GPa)
#
#
# Indices 1 2 3 4 5 6 
#
# 1 69.5292 2.6771 -3.5920 0.0000 0.0000 0.0000
# 2 2.6771 49.5970 13.0210 0.0000 0.0000 0.0000
# 3 -3.5920 13.0210 45.7216 0.0000 0.0000 0.0000
# 4 0.0000 0.0000 0.0000 27.2761 0.0000 0.0000
# 5 0.0000 0.0000 0.0000 0.0000 27.4447 0.0000
# 6 0.0000 0.0000 0.0000 0.0000 0.0000 12.1551
#
#
#
# Elastic Compliance Matrix: (Units=1/GPa)
#
#
# Indices 1 2 3 4 5 6 
#
# 1 0.014504 -0.001169 0.001472 0.000000 0.000000 0.000000
# 2 -0.001169 0.021886 -0.006325 0.000000 0.000000 0.000000
# 3 0.001472 -0.006325 0.023788 0.000000 0.000000 0.000000
# 4 0.000000 0.000000 0.000000 0.036662 0.000000 0.000000
# 5 0.000000 0.000000 0.000000 0.000000 0.036437 0.000000
# 6 0.000000 0.000000 0.000000 0.000000 0.000000 0.082270
#
#
# Mechanical properties :
#
#
# Convention : Reuss Voigt Hill
#
# Bulk Modulus (GPa) = 20.77511 21.00669 20.89090
# Shear Modulus (GPa) = 20.52246 23.55797 22.04022
#
# Velocity S-wave (km/s) = 3.25020 3.48228 3.36824
# Velocity P-wave (km/s) = 4.97784 5.19436 5.08725
#
# Compressibility (1/GPa) = 0.04813452
#
# Stress axis : x y z
#
# Youngs Moduli (GPa) = 68.94868 45.69103 42.03728
#
# Poissons Ratio (x) = 0.05343 -0.06190
# Poissons Ratio (y) = 0.08063 0.26588
# Poissons Ratio (z) = -0.10153 0.28899
#
# Static dielectric constant tensor:
#      x y z
#    x 1.673350 0.000000 0.000000 
#    y 0.000000 1.665660 0.000000 
#    z 0.000000 0.000000 1.649910 
# 
# From -- ./inp_files/11212.got.cif
#   From: 2010.05.17/outbox.cif.g08.bks.cpg/sg71_6_cif.got.tgz:11212.got - 2010.06.03 16:22:01.
