data_PCOD9524158
_publ_section_title
;
Structure prediction by ZEFSAII (Michael W. Deem and Ramdas Pophale) SiO2 
 PCOD9524158
Probable space group: I M M M
;
_chemical_formula_sum "Si O2"
_cell_formula_units_Z 88
_cell_length_a 23.741926
_cell_length_b 7.703642
_cell_length_c 22.839825
_cell_angle_alpha 90.000000
_cell_angle_beta 90.000000
_cell_angle_gamma 90.000000
_cell_volume 4177.387966
_symmetry_space_group_name_H-M "I M M M"
_symmetry_group_IT_number 71
_symmetry_cell_setting 'orthorhombic'
loop_
_space_group_symop_operation_xyz
x,y,z
-x,-y,z
x,-y,-z
-x,y,-z
-x,-y,-z
x,y,-z
-x,y,z
x,-y,z
1/2+x,1/2+y,1/2+z
1/2-x,1/2-y,1/2+z
1/2+x,1/2-y,1/2-z
1/2-x,1/2+y,1/2-z
1/2-x,1/2-y,1/2-z
1/2+x,1/2+y,1/2-z
1/2-x,1/2+y,1/2+z
1/2+x,1/2-y,1/2+z
loop_
_atom_site_type_symbol
_atom_site_label
_atom_site_fract_x
_atom_site_fract_y
_atom_site_fract_z
Si Si1 0.062419 0.790522 0.568133
Si Si2 0.066022 0.712737 0.000000
Si Si3 0.562427 0.788854 0.741818
Si Si4 0.880294 0.711637 0.877386
Si Si5 0.768327 0.696000 0.815537
Si Si6 0.349487 0.800495 0.162532
O O1 0.068118 0.746345 0.500000
O O2 0.110000 0.709577 0.607390
O O3 0.000000 0.735892 0.587912
O O4 0.065391 0.000000 0.572879
O O5 0.098034 0.771123 0.940763
O O6 0.066245 0.500000 0.000000
O O7 0.000000 0.764179 0.000000
O O8 0.500000 0.727658 0.758815
O O9 0.576261 0.745961 0.674795
O O10 0.613068 0.727644 0.783690
O O11 0.562436 0.000000 0.746801
O O12 0.878330 0.500000 0.881904
O O13 0.819795 0.777263 0.852291
O O14 0.787264 0.500000 0.807905
O O15 0.750000 0.750000 0.750000
O O16 0.709228 0.707507 0.848911
O O17 0.335300 0.000000 0.175709
#
# Coordination Sequence:
#
# PCOD9524158 Si02
#       6
#    16   8  16  16  16  16
#     4   9  19  37  58  80 110 146 182 225 280 336
#     4   9  16  28  50  80 111 141 174 219 278 341
#     4   9  16  27  46  74 106 136 169 217 274 326
#     4   9  17  30  48  74 108 142 177 220 274 332
#     4  11  21  36  55  77 108 147 186 231 282 335
#     4  11  21  34  53  80 111 146 187 228 275 335
#
# _framework density 21.065795999999999
#
# number of rings (size 3 to 8) (size 9 to 14) (size 15 to 20)
#    0.000    2.273    1.818    2.727    0.000    3.636 
#    1.636    0.909    0.000    0.000    0.000    0.000 
#    0.000    2.909    0.000    0.000    0.000    0.000 
#
# Total GULP energy -245482.424499 kJ/mol
# GULP energy per Si atom -5579.146011 kJ/mol
# Density = 2.101785 g / cm^3
# Si number density = 21.065796 Si / 1000 Ang^3
#
#
#
# Elastic Constant Matrix: (Units=GPa)
#
#
# Indices 1 2 3 4 5 6 
#
# 1 146.7889 2.0509 67.6470 0.0000 0.0000 0.0000
# 2 2.0509 29.9811 8.5976 0.0000 0.0000 0.0000
# 3 67.6470 8.5976 107.1031 0.0000 0.0000 0.0000
# 4 0.0000 0.0000 0.0000 11.9609 0.0000 0.0000
# 5 0.0000 0.0000 0.0000 0.0000 32.9764 0.0000
# 6 0.0000 0.0000 0.0000 0.0000 0.0000 13.1336
#
#
#
# Elastic Compliance Matrix: (Units=1/GPa)
#
#
# Indices 1 2 3 4 5 6 
#
# 1 0.009646 0.001113 -0.006182 0.000000 0.000000 0.000000
# 2 0.001113 0.034269 -0.003454 0.000000 0.000000 0.000000
# 3 -0.006182 -0.003454 0.013518 0.000000 0.000000 0.000000
# 4 0.000000 0.000000 0.000000 0.083606 0.000000 0.000000
# 5 0.000000 0.000000 0.000000 0.000000 0.030325 0.000000
# 6 0.000000 0.000000 0.000000 0.000000 0.000000 0.076140
#
#
# Mechanical properties :
#
#
# Convention : Reuss Voigt Hill
#
# Bulk Modulus (GPa) = 24.76003 48.94048 36.85025
# Shear Modulus (GPa) = 17.98488 25.31935 21.65211
#
# Velocity S-wave (km/s) = 2.92507 3.47063 3.20946
# Velocity P-wave (km/s) = 4.81531 6.27240 5.59152
#
# Compressibility (1/GPa) = 0.04038768
#
# Stress axis : x y z
#
# Youngs Moduli (GPa) = 103.67268 29.18118 73.97310
#
# Poissons Ratio (x) = -0.03247 0.45728
# Poissons Ratio (y) = -0.11537 0.25549
# Poissons Ratio (z) = 0.64087 0.10079
#
# Static dielectric constant tensor:
#      x y z
#    x 1.778110 0.000000 0.000000 
#    y 0.000000 1.854030 0.000000 
#    z 0.000000 0.000000 1.754520 
# 
# From -- ./inp_files/10455.got.cif
#   From: 2010.05.17/outbox.cif.g08.bks.cpg/sg71_6_cif.got.tgz:10455.got - 2010.06.03 16:22:01.
