data_PCOD9524538
_publ_section_title
;
Structure prediction by ZEFSAII (Michael W. Deem and Ramdas Pophale) SiO2 
 PCOD9524538
Probable space group: I M M M
;
_chemical_formula_sum "Si O2"
_cell_formula_units_Z 112
_cell_length_a 26.566927
_cell_length_b 7.379019
_cell_length_c 28.067428
_cell_angle_alpha 90.000000
_cell_angle_beta 90.000000
_cell_angle_gamma 90.000000
_cell_volume 5502.278496
_symmetry_space_group_name_H-M "I M M M"
_symmetry_group_IT_number 71
_symmetry_cell_setting 'orthorhombic'
loop_
_space_group_symop_operation_xyz
x,y,z
-x,-y,z
x,-y,-z
-x,y,-z
-x,-y,-z
x,y,-z
-x,y,z
x,-y,z
1/2+x,1/2+y,1/2+z
1/2-x,1/2-y,1/2+z
1/2+x,1/2-y,1/2-z
1/2-x,1/2+y,1/2-z
1/2-x,1/2-y,1/2-z
1/2+x,1/2+y,1/2-z
1/2-x,1/2+y,1/2+z
1/2+x,1/2-y,1/2+z
loop_
_atom_site_type_symbol
_atom_site_label
_atom_site_fract_x
_atom_site_fract_y
_atom_site_fract_z
Si Si1 0.409338 0.779369 0.228321
Si Si2 0.443733 0.221520 0.124546
Si Si3 0.055461 0.720663 0.166366
Si Si4 0.855559 0.716324 0.445498
Si Si5 0.660904 0.221514 0.370374
Si Si6 0.305860 0.784657 0.266709
Si Si7 0.758099 0.283133 0.945953
O O1 0.433627 0.719383 0.178973
O O2 0.434407 0.724918 0.278535
O O3 0.351014 0.720828 0.232760
O O4 0.411835 0.000000 0.227526
O O5 0.500000 0.275181 0.109579
O O6 0.399277 0.283462 0.089463
O O7 0.442545 0.000000 0.124646
O O8 0.055924 0.500000 0.166506
O O9 0.102499 0.777244 0.133701
O O10 0.000000 0.780089 0.151443
O O11 0.858987 0.786516 0.500000
O O12 0.861648 0.500000 0.448069
O O13 0.798581 0.748555 0.427641
O O14 0.684777 0.281255 0.320181
O O15 0.696853 0.284547 0.412734
O O16 0.661181 0.000000 0.371749
O O17 0.250000 0.750000 0.250000
O O18 0.312493 0.000000 0.268953
O O19 0.763206 0.500000 0.948126
O O20 0.760687 0.212413 0.000000
#
# Coordination Sequence:
#
# PCOD9524538 Si02
#       7
#    16  16  16  16  16  16  16
#     4   8  14  23  35  55  81 107 136 167 198 238
#     4   9  16  25  39  59  82 108 136 168 208 250
#     4   8  12  20  36  56  81 111 137 164 201 243
#     4   9  18  30  43  62  85 106 133 174 217 250
#     4   8  15  26  39  59  84 108 138 173 205 240
#     4   9  17  27  39  58  85 112 135 165 204 243
#     4   9  17  30  47  62  80 112 146 171 203 251
#
# _framework density 20.355205000000002
#
# number of rings (size 3 to 8) (size 9 to 14) (size 15 to 20)
#    0.000    3.429    0.000    2.143    2.000    2.000 
#    0.000    1.429    0.000    0.857    0.000    5.000 
#    0.000   18.857    0.000    3.571    0.000    3.714 
#
# Total GULP energy -312226.766614 kJ/mol
# GULP energy per Si atom -5575.477975 kJ/mol
# Density = 2.030888 g / cm^3
# Si number density = 20.355205 Si / 1000 Ang^3
#
#
#
# Elastic Constant Matrix: (Units=GPa)
#
#
# Indices 1 2 3 4 5 6 
#
# 1 222.8558 -0.5896 95.5874 0.0000 0.0000 0.0000
# 2 -0.5896 69.8580 3.9522 0.0000 0.0000 0.0000
# 3 95.5874 3.9522 86.3089 0.0000 0.0000 0.0000
# 4 0.0000 0.0000 0.0000 -6.1376 0.0000 0.0000
# 5 0.0000 0.0000 0.0000 0.0000 27.2235 0.0000
# 6 0.0000 0.0000 0.0000 0.0000 0.0000 28.7332
#
#
#
# Elastic Compliance Matrix: (Units=1/GPa)
#
#
# Indices 1 2 3 4 5 6 
#
# 1 0.008574 0.000611 -0.009523 0.000000 0.000000 0.000000
# 2 0.000611 0.014396 -0.001336 0.000000 0.000000 0.000000
# 3 -0.009523 -0.001336 0.022194 0.000000 0.000000 0.000000
# 4 0.000000 0.000000 0.000000 -0.162929 0.000000 0.000000
# 5 0.000000 0.000000 0.000000 0.000000 0.036733 0.000000
# 6 0.000000 0.000000 0.000000 0.000000 0.000000 0.034803
#
#
# Mechanical properties :
#
#
# Convention : Reuss Voigt Hill
#
# Bulk Modulus (GPa) = 40.53951 64.10253 52.32102
# Shear Modulus (GPa) = -285.52665 28.63533 -128.44566
#
# Velocity S-wave (km/s) = -11.85650 3.75478 -7.95230
# Velocity P-wave (km/s) = 12.94126 7.09635 7.65239
#
# Compressibility (1/GPa) = 0.02466729
#
# Stress axis : x y z
#
# Youngs Moduli (GPa) = 116.63829 69.46615 45.05632
#
# Poissons Ratio (x) = -0.04245 0.42908
# Poissons Ratio (y) = -0.07128 0.06020
# Poissons Ratio (z) = 1.11077 0.09281
#
# Static dielectric constant tensor:
#      x y z
#    x 1.742820 0.000000 0.000000 
#    y 0.000000 1.822650 0.000000 
#    z 0.000000 0.000000 1.699930 
# 
# From -- ./inp_files/29114.got.cif
#   From: 2010.05.17/outbox.cif.g08.bks.cpg/sg71_15_cif.got.tgz:29114.got - 2010.06.03 16:22:01.
