data_PCOD9524714
_publ_section_title
;
Structure prediction by ZEFSAII (Michael W. Deem and Ramdas Pophale) SiO2 
 PCOD9524714
Probable space group: I M M M
;
_chemical_formula_sum "Si O2"
_cell_formula_units_Z 48
_cell_length_a 24.000000
_cell_length_b 18.000000
_cell_length_c 12.000000
_cell_angle_alpha 90.000000
_cell_angle_beta 90.000000
_cell_angle_gamma 90.000000
_cell_volume 5184.000000
_symmetry_space_group_name_H-M "I M M M"
_symmetry_group_IT_number 71
_symmetry_cell_setting 'orthorhombic'
loop_
_space_group_symop_operation_xyz
x,y,z
-x,-y,z
x,-y,-z
-x,y,-z
-x,-y,-z
x,y,-z
-x,y,z
x,-y,z
1/2+x,1/2+y,1/2+z
1/2-x,1/2-y,1/2+z
1/2+x,1/2-y,1/2-z
1/2-x,1/2+y,1/2-z
1/2-x,1/2-y,1/2-z
1/2+x,1/2+y,1/2-z
1/2-x,1/2+y,1/2+z
1/2+x,1/2-y,1/2+z
loop_
_atom_site_type_symbol
_atom_site_label
_atom_site_fract_x
_atom_site_fract_y
_atom_site_fract_z
Si Si1 0.178862 0.500000 0.128719
Si Si2 0.565166 0.000000 0.772096
Si Si3 0.936039 0.670447 0.326813
Si Si4 0.683145 0.768688 0.120983
Si Si5 0.435566 0.721485 0.371496
Si Si6 0.755694 0.131577 0.717232
Si Si7 0.356553 0.416438 0.366287
O O1 0.119906 0.500000 0.193907
O O2 0.217836 0.570798 0.156733
O O3 0.164963 0.500000 0.000000
O O4 0.569767 0.080712 0.833520
O O5 0.500000 0.000000 0.728128
O O6 0.882970 0.713185 0.378715
O O7 0.931860 0.703757 0.201202
O O8 0.000000 0.688012 0.364235
O O9 0.712198 0.816490 0.216883
O O10 0.704517 0.684746 0.142693
O O11 0.705082 0.791986 0.000000
O O12 0.422021 0.737784 0.500000
O O13 0.500000 0.696487 0.365374
O O14 0.396286 0.653142 0.333990
O O15 0.797873 0.094086 0.804890
O O16 0.350087 0.412423 0.500000
O O17 0.378308 0.500000 0.340407
#
# Coordination Sequence:
#
# PCOD9524714 Si02
#       7
#     8   8  16  16  16  16  16
#     4  12  24  39  62  88 117 157 193 233 294 355
#     4  10  22  41  60  85 118 149 190 245 297 340
#     4  10  20  38  60  83 115 152 195 246 292 346
#     4  11  23  39  61  85 112 152 194 240 293 346
#     4   9  18  33  54  81 113 152 194 237 287 341
#     4  11  22  40  56  85 120 148 187 242 284 348
#     4  10  19  32  56  86 115 150 187 228 284 346
#
# _framework density 9.2592590000000001
#
# number of rings (size 3 to 8) (size 9 to 14) (size 15 to 20)
#    0.000    1.667    4.167    1.000    0.000    1.500 
#    0.000    4.583    0.000    1.500    0.000    0.000 
#    0.000    5.333    0.000    0.000    0.000    0.000 
#
# Total GULP energy -267354.696479 kJ/mol
# GULP energy per Si atom -5569.889510 kJ/mol
# Density = 0.923818 g / cm^3
# Si number density = 9.259259 Si / 1000 Ang^3
#
#
#
# Elastic Constant Matrix: (Units=GPa)
#
#
# Indices 1 2 3 4 5 6 
#
# 1 104.9840 26.6627 21.4339 0.0000 0.0000 0.0000
# 2 26.6627 85.5699 9.6660 0.0000 0.0000 0.0000
# 3 21.4339 9.6660 44.2694 0.0000 0.0000 0.0000
# 4 0.0000 0.0000 0.0000 10.8756 0.0000 0.0000
# 5 0.0000 0.0000 0.0000 0.0000 13.5968 0.0000
# 6 0.0000 0.0000 0.0000 0.0000 0.0000 36.1170
#
#
#
# Elastic Compliance Matrix: (Units=1/GPa)
#
#
# Indices 1 2 3 4 5 6 
#
# 1 0.011259 -0.002966 -0.004804 0.000000 0.000000 0.000000
# 2 -0.002966 0.012763 -0.001351 0.000000 0.000000 0.000000
# 3 -0.004804 -0.001351 0.025210 0.000000 0.000000 0.000000
# 4 0.000000 0.000000 0.000000 0.091949 0.000000 0.000000
# 5 0.000000 0.000000 0.000000 0.000000 0.073547 0.000000
# 6 0.000000 0.000000 0.000000 0.000000 0.000000 0.027688
#
#
# Mechanical properties :
#
#
# Convention : Reuss Voigt Hill
#
# Bulk Modulus (GPa) = 32.26705 38.92760 35.59733
# Shear Modulus (GPa) = 18.45108 23.92192 21.18650
#
# Velocity S-wave (km/s) = 3.15994 3.59804 3.38608
# Velocity P-wave (km/s) = 5.54758 6.19094 5.87807
#
# Compressibility (1/GPa) = 0.03099136
#
# Stress axis : x y z
#
# Youngs Moduli (GPa) = 88.81629 78.35151 39.66712
#
# Poissons Ratio (x) = 0.23236 0.19055
# Poissons Ratio (y) = 0.26339 0.05359
# Poissons Ratio (z) = 0.42666 0.10584
#
# Static dielectric constant tensor:
#      x y z
#    x 1.633370 0.000000 0.000000 
#    y 0.000000 1.646330 0.000000 
#    z 0.000000 0.000000 1.651230 
# 
# From -- ./inp_files/27433.got.cif
#   From: 2010.05.17/outbox.ucp.g08.bks.cvg/sg71_14_cif.got.tgz:27433.got - 2010.06.11 16:29:00.
