data_PCOD9524901
_publ_section_title
;
Structure prediction by ZEFSAII (Michael W. Deem and Ramdas Pophale) SiO2 
 PCOD9524901
Probable space group: I M M M
;
_chemical_formula_sum "Si O2"
_cell_formula_units_Z 44
_cell_length_a 18.000000
_cell_length_b 15.000000
_cell_length_c 18.000000
_cell_angle_alpha 90.000000
_cell_angle_beta 90.000000
_cell_angle_gamma 90.000000
_cell_volume 4860.000000
_symmetry_space_group_name_H-M "I M M M"
_symmetry_group_IT_number 71
_symmetry_cell_setting 'orthorhombic'
loop_
_space_group_symop_operation_xyz
x,y,z
-x,-y,z
x,-y,-z
-x,y,-z
-x,-y,-z
x,y,-z
-x,y,z
x,-y,z
1/2+x,1/2+y,1/2+z
1/2-x,1/2-y,1/2+z
1/2+x,1/2-y,1/2-z
1/2-x,1/2+y,1/2-z
1/2-x,1/2-y,1/2-z
1/2+x,1/2+y,1/2-z
1/2-x,1/2+y,1/2+z
1/2+x,1/2-y,1/2+z
loop_
_atom_site_type_symbol
_atom_site_label
_atom_site_fract_x
_atom_site_fract_y
_atom_site_fract_z
Si Si1 0.500000 0.103133 0.088267
Si Si2 0.812776 0.896925 0.309500
Si Si3 0.500000 0.891899 0.585362
Si Si4 0.861146 0.605224 0.810261
Si Si5 0.142685 0.702885 0.653273
Si Si6 0.587642 0.391817 0.500000
Si Si7 0.203250 0.105882 0.868868
O O1 0.573010 0.157944 0.112527
O O2 0.500000 0.000000 0.118011
O O3 0.500000 0.096843 0.000000
O O4 0.725619 0.889401 0.333322
O O5 0.853647 0.810862 0.344434
O O6 0.816829 0.886520 0.219110
O O7 0.836374 0.000000 0.326197
O O8 0.500000 0.859574 0.500000
O O9 0.424665 0.868105 0.630538
O O10 0.500000 0.000000 0.582308
O O11 0.873846 0.500000 0.791151
O O12 0.865310 0.666458 0.737638
O O13 0.221046 0.663014 0.622542
O O14 0.584319 0.500000 0.500000
O O15 0.500000 0.362046 0.500000
O O16 0.637333 0.367736 0.573453
O O17 0.219228 0.000000 0.881644
#
# Coordination Sequence:
#
# PCOD9524901 Si02
#       7
#     8  16   8  16  16   8  16
#     4  11  25  41  60  93 122 138 174 236 306 369
#     4   9  19  36  59  82 107 148 206 251 279 333
#     4   9  17  29  49  80 120 160 192 230 287 346
#     4   9  16  29  54  85 116 150 193 241 292 345
#     4  11  20  36  61  82 116 150 193 240 297 347
#     4   9  18  32  52  85 128 162 187 223 286 362
#     4   9  17  31  57  88 118 155 193 236 293 350
#
# _framework density 9.0534979999999994
#
# number of rings (size 3 to 8) (size 9 to 14) (size 15 to 20)
#    0.000    2.455    0.000    5.455    1.273    0.727 
#    1.636    1.364    8.000    2.182    0.000    0.000 
#    0.000    0.000    0.000    0.000    0.000    0.000 
#
# Total GULP energy -245340.807318 kJ/mol
# GULP energy per Si atom -5575.927439 kJ/mol
# Density = 0.903289 g / cm^3
# Si number density = 9.053498 Si / 1000 Ang^3
#
#
#
# Elastic Constant Matrix: (Units=GPa)
#
#
# Indices 1 2 3 4 5 6 
#
# 1 128.5612 55.7081 59.2315 0.0000 0.0000 0.0000
# 2 55.7081 132.6005 28.5523 0.0000 0.0000 0.0000
# 3 59.2315 28.5523 66.0829 0.0000 0.0000 0.0000
# 4 0.0000 0.0000 0.0000 11.6236 0.0000 0.0000
# 5 0.0000 0.0000 0.0000 0.0000 30.6080 0.0000
# 6 0.0000 0.0000 0.0000 0.0000 0.0000 5.4810
#
#
#
# Elastic Compliance Matrix: (Units=1/GPa)
#
#
# Indices 1 2 3 4 5 6 
#
# 1 0.014721 -0.003686 -0.011602 0.000000 0.000000 0.000000
# 2 -0.003686 0.009238 -0.000687 0.000000 0.000000 0.000000
# 3 -0.011602 -0.000687 0.025829 0.000000 0.000000 0.000000
# 4 0.000000 0.000000 0.000000 0.086032 0.000000 0.000000
# 5 0.000000 0.000000 0.000000 0.000000 0.032671 0.000000
# 6 0.000000 0.000000 0.000000 0.000000 0.000000 0.182450
#
#
# Mechanical properties :
#
#
# Convention : Reuss Voigt Hill
#
# Bulk Modulus (GPa) = 56.06523 68.24760 62.15641
# Shear Modulus (GPa) = 12.85884 21.79270 17.32577
#
# Velocity S-wave (km/s) = 2.66777 3.47299 3.09666
# Velocity P-wave (km/s) = 6.36552 7.33862 6.86932
#
# Compressibility (1/GPa) = 0.01783637
#
# Stress axis : x y z
#
# Youngs Moduli (GPa) = 67.92919 108.24630 38.71660
#
# Poissons Ratio (x) = 0.39904 0.44920
# Poissons Ratio (y) = 0.25042 0.02661
# Poissons Ratio (z) = 0.78812 0.07440
#
# Static dielectric constant tensor:
#      x y z
#    x 1.620790 0.000000 0.000000 
#    y 0.000000 1.640470 0.000000 
#    z 0.000000 0.000000 1.621190 
# 
# From -- ./inp_files/45885.got.cif
#   From: 2010.05.17/outbox.ucp.g08.bks.cvg/sg71_23_cif.got.tgz:45885.got - 2010.06.11 16:29:00.
