data_PCOD9524321
_publ_section_title
;
Structure prediction by ZEFSAII (Michael W. Deem and Ramdas Pophale) SiO2 
 PCOD9524321
Probable space group: I M M M
;
_chemical_formula_sum "Si O2"
_cell_formula_units_Z 64
_cell_length_a 10.888989
_cell_length_b 33.573731
_cell_length_c 8.642001
_cell_angle_alpha 90.000000
_cell_angle_beta 90.000000
_cell_angle_gamma 90.000000
_cell_volume 3159.377186
_symmetry_space_group_name_H-M "I M M M"
_symmetry_group_IT_number 71
_symmetry_cell_setting 'orthorhombic'
loop_
_space_group_symop_operation_xyz
x,y,z
-x,-y,z
x,-y,-z
-x,y,-z
-x,-y,-z
x,y,-z
-x,y,z
x,-y,z
1/2+x,1/2+y,1/2+z
1/2-x,1/2-y,1/2+z
1/2+x,1/2-y,1/2-z
1/2-x,1/2+y,1/2-z
1/2-x,1/2-y,1/2-z
1/2+x,1/2+y,1/2-z
1/2-x,1/2+y,1/2+z
1/2+x,1/2-y,1/2+z
loop_
_atom_site_type_symbol
_atom_site_label
_atom_site_fract_x
_atom_site_fract_y
_atom_site_fract_z
Si Si1 0.252541 0.421089 0.816697
Si Si2 0.762402 0.836078 0.185246
Si Si3 0.500000 0.714398 0.311941
Si Si4 0.500000 0.047559 0.185275
Si Si5 0.500000 0.192795 0.314053
Si Si6 0.143456 0.000000 0.828047
O O1 0.295958 0.380851 0.735011
O O2 0.116257 0.431034 0.758713
O O3 0.323470 0.460335 0.763233
O O4 0.257009 0.416066 0.000000
O O5 0.873793 0.807261 0.238788
O O6 0.627730 0.825868 0.253124
O O7 0.754132 0.833481 0.000000
O O8 0.500000 0.712687 0.500000
O O9 0.500000 0.760624 0.267353
O O10 0.500000 0.000000 0.220742
O O11 0.500000 0.051889 0.000000
O O12 0.500000 0.189739 0.500000
O O13 0.000000 0.000000 0.848404
O O14 0.204803 0.000000 0.000000
#
# Coordination Sequence:
#
# PCOD9524321 Si02
#       6
#    16  16   8   8   8   8
#     4  12  25  41  63  94 129 164 207 264 318 367
#     4  11  23  42  66  95 129 172 217 262 317 387
#     4   9  22  42  68  96 127 167 214 264 321 384
#     4  11  22  39  64  89 117 160 211 255 308 375
#     4  11  22  42  67  98 132 165 209 267 326 383
#     4  11  25  44  65  88 121 169 215 257 308 375
#
# _framework density 20.257156999999999
#
# number of rings (size 3 to 8) (size 9 to 14) (size 15 to 20)
#    0.000    1.000    1.250    5.625    1.750    1.500 
#    0.000    5.625    0.000    0.000    0.000    0.000 
#    0.000    0.000    0.000    0.000    0.000    0.000 
#
# Total GULP energy -178932.503170 kJ/mol
# GULP energy per Si atom -5591.640724 kJ/mol
# Density = 2.021105 g / cm^3
# Si number density = 20.257157 Si / 1000 Ang^3
#
#
#
# Elastic Constant Matrix: (Units=GPa)
#
#
# Indices 1 2 3 4 5 6 
#
# 1 104.3440 36.0188 25.0445 0.0015 0.0008 0.0021
# 2 36.0188 131.2238 21.5959 0.0000 -0.0001 0.0012
# 3 25.0445 21.5959 86.8890 0.0036 0.0045 0.0186
# 4 0.0015 0.0000 0.0036 27.7931 0.0018 0.0045
# 5 0.0008 -0.0001 0.0045 0.0018 21.0310 0.0065
# 6 0.0021 0.0012 0.0186 0.0045 0.0065 81.6318
#
#
#
# Elastic Compliance Matrix: (Units=1/GPa)
#
#
# Indices 1 2 3 4 5 6 
#
# 1 0.011102 -0.002628 -0.002547 0.000000 0.000000 0.000000
# 2 -0.002628 0.008568 -0.001372 0.000000 0.000000 0.000000
# 3 -0.002547 -0.001372 0.012584 -0.000001 -0.000003 -0.000003
# 4 0.000000 0.000000 -0.000001 0.035980 -0.000003 -0.000002
# 5 0.000000 0.000000 -0.000003 -0.000003 0.047549 -0.000004
# 6 0.000000 0.000000 -0.000003 -0.000002 -0.000004 0.012250
#
#
# Mechanical properties :
#
#
# Convention : Reuss Voigt Hill
#
# Bulk Modulus (GPa) = 52.19202 54.19724 53.19463
# Shear Modulus (GPa) = 33.89515 42.07769 37.98642
#
# Velocity S-wave (km/s) = 4.09497 4.56255 4.33507
# Velocity P-wave (km/s) = 6.94111 7.38705 7.16755
#
# Compressibility (1/GPa) = 0.01916002
#
# Stress axis : x y z
#
# Youngs Moduli (GPa) = 90.07205 116.71663 79.46590
#
# Poissons Ratio (x) = 0.30676 0.20239
# Poissons Ratio (y) = 0.23673 0.10902
# Poissons Ratio (z) = 0.22940 0.16013
#
# Static dielectric constant tensor:
#      x y z
#    x 1.628990 0.000000 0.000000 
#    y 0.000000 1.777890 0.000000 
#    z 0.000000 0.000000 1.690450 
# 
# From -- ./inp_files/3852.got.cif
#   From: 2010.05.17/outbox.cif.g08.bks.cpg/sg71_2_cif.got.tgz:3852.got - 2010.06.03 16:22:01.
