data_PCOD9524066
_publ_section_title
;
Structure prediction by ZEFSAII (Michael W. Deem and Ramdas Pophale) SiO2 
 PCOD9524066
Probable space group: I M M M
;
_chemical_formula_sum "Si O2"
_cell_formula_units_Z 88
_cell_length_a 19.581029
_cell_length_b 16.284801
_cell_length_c 14.112666
_cell_angle_alpha 90.000000
_cell_angle_beta 90.000000
_cell_angle_gamma 90.000000
_cell_volume 4500.150412
_symmetry_space_group_name_H-M "I M M M"
_symmetry_group_IT_number 71
_symmetry_cell_setting 'orthorhombic'
loop_
_space_group_symop_operation_xyz
x,y,z
-x,-y,z
x,-y,-z
-x,y,-z
-x,-y,-z
x,y,-z
-x,y,z
x,-y,z
1/2+x,1/2+y,1/2+z
1/2-x,1/2-y,1/2+z
1/2+x,1/2-y,1/2-z
1/2-x,1/2+y,1/2-z
1/2-x,1/2-y,1/2-z
1/2+x,1/2+y,1/2-z
1/2-x,1/2+y,1/2+z
1/2+x,1/2-y,1/2+z
loop_
_atom_site_type_symbol
_atom_site_label
_atom_site_fract_x
_atom_site_fract_y
_atom_site_fract_z
Si Si1 0.000000 0.904709 0.863875
Si Si2 0.000000 0.401263 0.388588
Si Si3 0.849819 0.840083 0.393870
Si Si4 0.726921 0.592615 0.284050
Si Si5 0.630726 0.174820 0.214908
Si Si6 0.871068 0.210585 0.893386
Si Si7 0.000000 0.094499 0.636553
O O1 0.933660 0.853754 0.893681
O O2 0.000000 0.904570 0.750114
O O3 0.000000 0.000000 0.893842
O O4 0.934046 0.366649 0.334122
O O5 0.000000 0.500000 0.385773
O O6 0.000000 0.376149 0.500000
O O7 0.822959 0.848869 0.500000
O O8 0.811405 0.895288 0.316392
O O9 0.844736 0.748065 0.354341
O O10 0.930126 0.862655 0.393875
O O11 0.716090 0.500000 0.318005
O O12 0.806311 0.613279 0.272629
O O13 0.692908 0.658502 0.354415
O O14 0.614738 0.219156 0.315246
O O15 0.860458 0.241481 0.000000
O O16 0.000000 0.000000 0.605651
#
# Coordination Sequence:
#
# PCOD9524066 Si02
#       7
#     8   8  16  16  16  16   8
#     4  11  20  35  57  84 120 156 196 241 294 354
#     4  11  24  43  69  97 121 152 199 254 312 367
#     4  11  22  37  60  90 123 161 203 246 299 364
#     4  11  24  40  59  86 121 159 200 252 308 361
#     4  11  23  42  63  87 121 158 200 254 309 359
#     4  11  23  39  61  88 120 163 208 245 292 358
#     4  11  20  34  57  86 123 158 191 236 292 355
#
# _framework density 19.554901000000001
#
# number of rings (size 3 to 8) (size 9 to 14) (size 15 to 20)
#    0.000    1.000    3.636    6.000    0.000    7.273 
#    0.000    0.000    0.000    2.182    0.000    0.000 
#    0.000    0.000    0.000    0.000    0.000    0.000 
#
# Total GULP energy -245987.883912 kJ/mol
# GULP energy per Si atom -5590.633725 kJ/mol
# Density = 1.951039 g / cm^3
# Si number density = 19.554901 Si / 1000 Ang^3
#
#
#
# Elastic Constant Matrix: (Units=GPa)
#
#
# Indices 1 2 3 4 5 6 
#
# 1 124.7204 28.1161 40.7820 0.0000 0.0000 0.0000
# 2 28.1161 71.5380 30.8259 0.0000 0.0000 0.0000
# 3 40.7820 30.8259 161.8561 0.0000 0.0000 0.0000
# 4 0.0000 0.0000 0.0000 -69.0624 0.0000 0.0000
# 5 0.0000 0.0000 0.0000 0.0000 -17.3066 0.0000
# 6 0.0000 0.0000 0.0000 0.0000 0.0000 77.8689
#
#
#
# Elastic Compliance Matrix: (Units=1/GPa)
#
#
# Indices 1 2 3 4 5 6 
#
# 1 0.009247 -0.002866 -0.001784 0.000000 0.000000 0.000000
# 2 -0.002866 0.016116 -0.002347 0.000000 0.000000 0.000000
# 3 -0.001784 -0.002347 0.007075 0.000000 0.000000 0.000000
# 4 0.000000 0.000000 0.000000 -0.014480 0.000000 0.000000
# 5 0.000000 0.000000 0.000000 0.000000 -0.057781 0.000000
# 6 0.000000 0.000000 0.000000 0.000000 0.000000 0.012842
#
#
# Mechanical properties :
#
#
# Convention : Reuss Voigt Hill
#
# Bulk Modulus (GPa) = 54.21753 61.95139 58.08446
# Shear Modulus (GPa) = -731.23126 15.52603 -357.85262
#
# Velocity S-wave (km/s) = -19.35844 2.82081 -13.54239
# Velocity P-wave (km/s) = 21.72280 6.50836 14.65471
#
# Compressibility (1/GPa) = 0.01844422
#
# Stress axis : x y z
#
# Youngs Moduli (GPa) = 108.13904 62.04896 141.34367
#
# Poissons Ratio (x) = 0.17781 0.25219
# Poissons Ratio (y) = 0.30988 0.33179
# Poissons Ratio (z) = 0.19295 0.14565
#
# Static dielectric constant tensor:
#      x y z
#    x 1.682150 0.000000 0.000000 
#    y 0.000000 1.668880 0.000000 
#    z 0.000000 0.000000 1.696170 
# 
# From -- ./inp_files/36418.got.cif
#   From: 2010.05.17/outbox.cif.g08.bks.cpg/sg71_19_cif.got.tgz:36418.got - 2010.06.03 16:22:01.
