data_PCOD9524408
_publ_section_title
;
Structure prediction by ZEFSAII (Michael W. Deem and Ramdas Pophale) SiO2 
 PCOD9524408
Probable space group: I M M M
;
_chemical_formula_sum "Si O2"
_cell_formula_units_Z 80
_cell_length_a 15.940647
_cell_length_b 20.647724
_cell_length_c 12.996776
_cell_angle_alpha 90.000000
_cell_angle_beta 90.000000
_cell_angle_gamma 90.000000
_cell_volume 4277.733894
_symmetry_space_group_name_H-M "I M M M"
_symmetry_group_IT_number 71
_symmetry_cell_setting 'orthorhombic'
loop_
_space_group_symop_operation_xyz
x,y,z
-x,-y,z
x,-y,-z
-x,y,-z
-x,-y,-z
x,y,-z
-x,y,z
x,-y,z
1/2+x,1/2+y,1/2+z
1/2-x,1/2-y,1/2+z
1/2+x,1/2-y,1/2-z
1/2-x,1/2+y,1/2-z
1/2-x,1/2-y,1/2-z
1/2+x,1/2+y,1/2-z
1/2-x,1/2+y,1/2+z
1/2+x,1/2-y,1/2+z
loop_
_atom_site_type_symbol
_atom_site_label
_atom_site_fract_x
_atom_site_fract_y
_atom_site_fract_z
Si Si1 0.699752 0.427605 0.305279
Si Si2 0.309774 0.188315 0.718437
Si Si3 0.898160 0.287201 0.000000
Si Si4 0.099827 0.869436 0.000000
Si Si5 0.901240 0.748319 0.390807
Si Si6 0.100438 0.102413 0.612587
O O1 0.730658 0.500000 0.331294
O O2 0.768066 0.377639 0.259592
O O3 0.648749 0.396838 0.400557
O O4 0.635790 0.432496 0.210372
O O5 0.250000 0.250000 0.750000
O O6 0.346535 0.190215 0.602460
O O7 0.385399 0.203252 0.795527
O O8 0.895691 0.208671 0.000000
O O9 0.000000 0.304288 0.000000
O O10 0.000000 0.887022 0.000000
O O11 0.865643 0.723666 0.500000
O O12 0.871097 0.822337 0.378006
O O13 0.000000 0.755080 0.400102
O O14 0.128525 0.079257 0.500000
O O15 0.000000 0.100097 0.613870
#
# Coordination Sequence:
#
# PCOD9524408 Si02
#       6
#    16  16   8   8  16  16
#     4  12  26  39  56  88 128 169 207 251 306 370
#     4  12  23  37  64  89 124 161 208 259 309 358
#     4  11  24  43  69  99 127 163 217 270 321 379
#     4  11  23  42  65  93 132 176 212 249 313 397
#     4   9  18  34  60  88 115 147 193 248 304 358
#     4   9  18  34  56  83 116 154 195 239 293 363
#
# _framework density 18.701488999999999
#
# number of rings (size 3 to 8) (size 9 to 14) (size 15 to 20)
#    0.000    1.400    4.000    2.700    4.200    5.600 
#    0.000    1.000    0.000    3.000    0.000    1.400 
#    0.000    0.000    0.000    0.000    0.000    0.000 
#
# Total GULP energy -222827.736275 kJ/mol
# GULP energy per Si atom -5570.693407 kJ/mol
# Density = 1.865892 g / cm^3
# Si number density = 18.701489 Si / 1000 Ang^3
#
#
#
# Elastic Constant Matrix: (Units=GPa)
#
#
# Indices 1 2 3 4 5 6 
#
# 1 66.6989 45.6648 46.6768 0.0000 0.0000 0.0000
# 2 45.6648 106.2757 53.6159 0.0000 0.0000 0.0000
# 3 46.6768 53.6159 171.8858 0.0000 0.0000 0.0000
# 4 0.0000 0.0000 0.0000 229.2445 0.0000 0.0000
# 5 0.0000 0.0000 0.0000 0.0000 34.8138 0.0000
# 6 0.0000 0.0000 0.0000 0.0000 0.0000 15.4641
#
#
#
# Elastic Compliance Matrix: (Units=1/GPa)
#
#
# Indices 1 2 3 4 5 6 
#
# 1 0.023138 -0.008037 -0.003776 0.000000 0.000000 0.000000
# 2 -0.008037 0.013958 -0.002172 0.000000 0.000000 0.000000
# 3 -0.003776 -0.002172 0.007521 0.000000 0.000000 0.000000
# 4 0.000000 0.000000 0.000000 0.004362 0.000000 0.000000
# 5 0.000000 0.000000 0.000000 0.000000 0.028724 0.000000
# 6 0.000000 0.000000 0.000000 0.000000 0.000000 0.064666
#
#
# Mechanical properties :
#
#
# Convention : Reuss Voigt Hill
#
# Bulk Modulus (GPa) = 60.06918 70.75284 65.41101
# Shear Modulus (GPa) = 28.42723 69.16466 48.79595
#
# Velocity S-wave (km/s) = 3.90301 6.08800 5.11358
# Velocity P-wave (km/s) = 7.24576 9.34523 8.36165
#
# Compressibility (1/GPa) = 0.01664747
#
# Stress axis : x y z
#
# Youngs Moduli (GPa) = 43.21934 71.64211 132.96686
#
# Poissons Ratio (x) = 0.57577 0.50213
# Poissons Ratio (y) = 0.34734 0.28874
# Poissons Ratio (z) = 0.16321 0.15557
#
# Static dielectric constant tensor:
#      x y z
#    x 1.743640 0.000000 0.000000 
#    y 0.000000 1.661450 0.000000 
#    z 0.000000 0.000000 1.706810 
# 
# From -- ./inp_files/23858.got.cif
#   From: 2010.05.17/outbox.cif.g08.bks.cpg/sg71_12_cif.got.tgz:23858.got - 2010.06.03 16:22:01.
