data_PCOD9524879
_publ_section_title
;
Structure prediction by ZEFSAII (Michael W. Deem and Ramdas Pophale) SiO2 
 PCOD9524879
Probable space group: I M M M
;
_chemical_formula_sum "Si O2"
_cell_formula_units_Z 45
_cell_length_a 9.000000
_cell_length_b 24.000000
_cell_length_c 21.000000
_cell_angle_alpha 90.000000
_cell_angle_beta 90.000000
_cell_angle_gamma 90.000000
_cell_volume 4536.000000
_symmetry_space_group_name_H-M "I M M M"
_symmetry_group_IT_number 71
_symmetry_cell_setting 'orthorhombic'
loop_
_space_group_symop_operation_xyz
x,y,z
-x,-y,z
x,-y,-z
-x,y,-z
-x,-y,-z
x,y,-z
-x,y,z
x,-y,z
1/2+x,1/2+y,1/2+z
1/2-x,1/2-y,1/2+z
1/2+x,1/2-y,1/2-z
1/2-x,1/2+y,1/2-z
1/2-x,1/2-y,1/2-z
1/2+x,1/2+y,1/2-z
1/2-x,1/2+y,1/2+z
1/2+x,1/2-y,1/2+z
loop_
_atom_site_type_symbol
_atom_site_label
_atom_site_fract_x
_atom_site_fract_y
_atom_site_fract_z
Si Si1 0.668384 0.937610 0.133107
Si Si2 0.831223 0.639761 0.133599
Si Si3 0.324796 0.420857 0.500000
Si Si4 0.823568 0.859666 0.767348
Si Si5 0.676527 0.804100 0.000000
Si Si6 0.500000 0.500000 0.000000
Si Si7 0.164777 0.885294 0.500000
Si Si8 0.329806 0.271256 0.371108
O O1 0.500000 0.913978 0.128552
O O2 0.771987 0.903972 0.180248
O O3 0.656840 0.000000 0.157614
O O4 0.742847 0.940088 0.063845
O O5 0.749582 0.624435 0.199698
O O6 0.838896 0.706165 0.140458
O O7 0.000000 0.617359 0.131566
O O8 0.749862 0.627861 0.066107
O O9 0.500000 0.432992 0.500000
O O10 0.287694 0.356082 0.500000
O O11 0.781134 0.803074 0.806510
O O12 0.000000 0.858182 0.757802
O O13 0.722361 0.777043 0.067633
O O14 0.500000 0.816314 0.000000
O O15 0.626270 0.549470 0.000000
O O16 0.000000 0.856404 0.500000
O O17 0.500000 0.291318 0.386196
#
# Coordination Sequence:
#
# PCOD9524879 Si02
#       8
#    16  16   8  16   8   2   8  16
#     4  11  24  42  62  89 122 163 216 272 318 365
#     4  11  23  41  67  98 131 166 203 261 322 389
#     4  12  23  38  61  85 120 163 211 260 310 364
#     4  11  23  40  62  91 128 173 216 257 315 385
#     4  12  23  34  58  90 123 169 216 260 306 361
#     4   8  24  48  78  96 128 160 202 290 322 388
#     4  10  22  46  71  97 124 158 210 259 327 385
#     4  10  22  39  60  90 132 173 213 259 317 379
#
# _framework density 9.9206350000000008
#
# number of rings (size 3 to 8) (size 9 to 14) (size 15 to 20)
#    0.267    0.889    1.778    4.800    0.000    6.756 
#    1.600    0.889    0.000    0.000    0.000    0.000 
#    0.000    0.000    0.000    0.000    0.000    0.000 
#
# Total GULP energy -250504.473581 kJ/mol
# GULP energy per Si atom -5566.766080 kJ/mol
# Density = 0.989806 g / cm^3
# Si number density = 9.920635 Si / 1000 Ang^3
#
#
#
# Elastic Constant Matrix: (Units=GPa)
#
#
# Indices 1 2 3 4 5 6 
#
# 1 87.9594 -3.7639 56.1212 0.0000 0.0000 0.0000
# 2 -3.7639 57.4807 17.6651 0.0000 0.0000 0.0000
# 3 56.1212 17.6651 172.9633 0.0000 0.0000 0.0000
# 4 0.0000 0.0000 0.0000 1.9456 0.0000 0.0000
# 5 0.0000 0.0000 0.0000 0.0000 39.5080 0.0000
# 6 0.0000 0.0000 0.0000 0.0000 0.0000 24.1369
#
#
#
# Elastic Compliance Matrix: (Units=1/GPa)
#
#
# Indices 1 2 3 4 5 6 
#
# 1 0.014678 0.002503 -0.005018 0.000000 0.000000 0.000000
# 2 0.002503 0.018388 -0.002690 0.000000 0.000000 0.000000
# 3 -0.005018 -0.002690 0.007685 0.000000 0.000000 0.000000
# 4 0.000000 0.000000 0.000000 0.513978 0.000000 0.000000
# 5 0.000000 0.000000 0.000000 0.000000 0.025311 0.000000
# 6 0.000000 0.000000 0.000000 0.000000 0.000000 0.041430
#
#
# Mechanical properties :
#
#
# Convention : Reuss Voigt Hill
#
# Bulk Modulus (GPa) = 32.95979 50.93868 41.94924
# Shear Modulus (GPa) = 7.78824 29.67685 18.73255
#
# Velocity S-wave (km/s) = 1.98338 3.87164 3.07599
# Velocity P-wave (km/s) = 4.67898 6.76128 5.81411
#
# Compressibility (1/GPa) = 0.03034000
#
# Stress axis : x y z
#
# Youngs Moduli (GPa) = 68.13038 54.38382 130.13105
#
# Poissons Ratio (x) = -0.13614 0.65302
# Poissons Ratio (y) = -0.17055 0.35008
# Poissons Ratio (z) = 0.34189 0.14631
#
# Static dielectric constant tensor:
#      x y z
#    x 1.731690 0.000000 0.000000 
#    y 0.000000 1.748720 0.000000 
#    z 0.000000 0.000000 1.597290 
# 
# From -- ./inp_files/50655.got.cif
#   From: 2010.05.17/outbox.ucp.g08.bks.cvg/sg71_26_cif.got.tgz:50655.got - 2010.06.11 16:29:00.
