data_PCOD9524304
_publ_section_title
;
Structure prediction by ZEFSAII (Michael W. Deem and Ramdas Pophale) SiO2 
 PCOD9524304
Probable space group: I M M M
;
_chemical_formula_sum "Si O2"
_cell_formula_units_Z 66
_cell_length_a 15.354889
_cell_length_b 7.684832
_cell_length_c 26.185961
_cell_angle_alpha 90.000000
_cell_angle_beta 90.000000
_cell_angle_gamma 90.000000
_cell_volume 3089.936651
_symmetry_space_group_name_H-M "I M M M"
_symmetry_group_IT_number 71
_symmetry_cell_setting 'orthorhombic'
loop_
_space_group_symop_operation_xyz
x,y,z
-x,-y,z
x,-y,-z
-x,y,-z
-x,-y,-z
x,y,-z
-x,y,z
x,-y,z
1/2+x,1/2+y,1/2+z
1/2-x,1/2-y,1/2+z
1/2+x,1/2-y,1/2-z
1/2-x,1/2+y,1/2-z
1/2-x,1/2-y,1/2-z
1/2+x,1/2+y,1/2-z
1/2-x,1/2+y,1/2+z
1/2+x,1/2-y,1/2+z
loop_
_atom_site_type_symbol
_atom_site_label
_atom_site_fract_x
_atom_site_fract_y
_atom_site_fract_z
Si Si1 0.500000 0.500000 0.000000
Si Si2 0.000000 0.212442 0.941258
Si Si3 0.319666 0.295018 0.893778
Si Si4 0.500000 0.713531 0.843170
Si Si5 0.356783 0.190095 0.000000
Si Si6 0.362403 0.290451 0.643281
Si Si7 0.000000 0.787512 0.226078
O O1 0.425248 0.653525 0.000000
O O2 0.083584 0.266503 0.907142
O O3 0.000000 0.000000 0.942173
O O4 0.000000 0.271945 0.000000
O O5 0.330253 0.500000 0.901894
O O6 0.411685 0.230121 0.871369
O O7 0.302230 0.208263 0.948254
O O8 0.236966 0.266965 0.858096
O O9 0.500000 0.500000 0.844311
O O10 0.500000 0.770079 0.784404
O O11 0.398225 0.000000 0.000000
O O12 0.363947 0.500000 0.643168
O O13 0.416386 0.232592 0.692947
O O14 0.000000 0.000000 0.227083
#
# Coordination Sequence:
#
# PCOD9524304 Si02
#       7
#     2   8  16   8   8  16   8
#     4  12  22  44  60  90 124 162 210 264 304 358
#     4   8  15  29  51  78 110 147 191 245 303 373
#     4  11  22  38  59  86 124 163 210 259 307 373
#     4   9  20  36  58  79 113 167 208 248 316 374
#     4  12  25  41  65  89 126 172 208 254 316 375
#     4   9  18  33  57  86 115 151 202 257 311 373
#     4   8  16  36  59  84 116 156 209 261 311 380
#
# _framework density 21.359662
#
# number of rings (size 3 to 8) (size 9 to 14) (size 15 to 20)
#    0.000    2.303    1.212    3.091    3.394    0.970 
#    0.000    4.242    0.000    5.091    0.000    0.000 
#    0.000    0.000    0.000    0.000    0.000    0.000 
#
# Total GULP energy -184014.647863 kJ/mol
# GULP energy per Si atom -5576.201450 kJ/mol
# Density = 2.131105 g / cm^3
# Si number density = 21.359662 Si / 1000 Ang^3
#
#
#
# Elastic Constant Matrix: (Units=GPa)
#
#
# Indices 1 2 3 4 5 6 
#
# 1 146.5019 3.7651 54.4668 0.0000 0.0000 0.0000
# 2 3.7651 74.7686 4.4396 0.0000 0.0000 0.0000
# 3 54.4668 4.4396 143.5465 0.0000 0.0000 0.0000
# 4 0.0000 0.0000 0.0000 3.7916 0.0000 0.0000
# 5 0.0000 0.0000 0.0000 0.0000 8.1974 0.0000
# 6 0.0000 0.0000 0.0000 0.0000 0.0000 21.2720
#
#
#
# Elastic Compliance Matrix: (Units=1/GPa)
#
#
# Indices 1 2 3 4 5 6 
#
# 1 0.007951 -0.000222 -0.003010 0.000000 0.000000 0.000000
# 2 -0.000222 0.013405 -0.000330 0.000000 0.000000 0.000000
# 3 -0.003010 -0.000330 0.008119 0.000000 0.000000 0.000000
# 4 0.000000 0.000000 0.000000 0.263742 0.000000 0.000000
# 5 0.000000 0.000000 0.000000 0.000000 0.121990 0.000000
# 6 0.000000 0.000000 0.000000 0.000000 0.000000 0.047010
#
#
# Mechanical properties :
#
#
# Convention : Reuss Voigt Hill
#
# Bulk Modulus (GPa) = 44.74162 54.46224 49.60193
# Shear Modulus (GPa) = 10.48678 26.79522 18.64100
#
# Velocity S-wave (km/s) = 2.21817 3.54570 2.95739
# Velocity P-wave (km/s) = 5.24906 6.50506 5.91051
#
# Compressibility (1/GPa) = 0.02235055
#
# Stress axis : x y z
#
# Youngs Moduli (GPa) = 125.77715 74.59692 123.17297
#
# Poissons Ratio (x) = 0.01653 0.37074
# Poissons Ratio (y) = 0.02788 0.04071
# Poissons Ratio (z) = 0.37857 0.02465
#
# Static dielectric constant tensor:
#      x y z
#    x 1.746090 0.000000 0.000000 
#    y 0.000000 1.787300 0.000000 
#    z 0.000000 0.000000 1.785920 
# 
# From -- ./inp_files/65141.got.cif
#   From: 2010.05.17/outbox.cif.g08.bks.cpg/sg71_33_cif.got.tgz:65141.got - 2010.06.03 16:22:01.
