data_PCOD9524792
_publ_section_title
;
Structure prediction by ZEFSAII (Michael W. Deem and Ramdas Pophale) SiO2 
 PCOD9524792
Probable space group: I M M M
;
_chemical_formula_sum "Si O2"
_cell_formula_units_Z 44
_cell_length_a 21.000000
_cell_length_b 24.000000
_cell_length_c 9.000000
_cell_angle_alpha 90.000000
_cell_angle_beta 90.000000
_cell_angle_gamma 90.000000
_cell_volume 4536.000000
_symmetry_space_group_name_H-M "I M M M"
_symmetry_group_IT_number 71
_symmetry_cell_setting 'orthorhombic'
loop_
_space_group_symop_operation_xyz
x,y,z
-x,-y,z
x,-y,-z
-x,y,-z
-x,-y,-z
x,y,-z
-x,y,z
x,-y,z
1/2+x,1/2+y,1/2+z
1/2-x,1/2-y,1/2+z
1/2+x,1/2-y,1/2-z
1/2-x,1/2+y,1/2-z
1/2-x,1/2-y,1/2-z
1/2+x,1/2+y,1/2-z
1/2-x,1/2+y,1/2+z
1/2+x,1/2-y,1/2+z
loop_
_atom_site_type_symbol
_atom_site_label
_atom_site_fract_x
_atom_site_fract_y
_atom_site_fract_z
Si Si1 0.429423 0.820794 0.821852
Si Si2 0.000000 0.933524 0.678957
Si Si3 0.241011 0.066474 0.668043
Si Si4 0.623960 0.623529 0.323530
Si Si5 0.179155 0.246308 0.178126
Si Si6 0.624976 0.936839 0.176858
O O1 0.500000 0.800954 0.774597
O O2 0.369922 0.791697 0.742660
O O3 0.423797 0.887124 0.795042
O O4 0.424031 0.811854 0.000000
O O5 0.062356 0.901817 0.741428
O O6 0.000000 0.930904 0.500000
O O7 0.000000 0.000000 0.719842
O O8 0.235947 0.089053 0.500000
O O9 0.185586 0.089569 0.770651
O O10 0.310182 0.077121 0.736735
O O11 0.234081 0.000000 0.661204
O O12 0.613947 0.618650 0.500000
O O13 0.643913 0.687326 0.290071
O O14 0.250000 0.250000 0.250000
O O15 0.185851 0.251699 0.000000
O O16 0.604771 0.000000 0.216142
O O17 0.638562 0.936559 0.000000
#
# Coordination Sequence:
#
# PCOD9524792 Si02
#       6
#    16   8  16  16  16  16
#     4  10  22  39  60  88 121 157 199 245 297 357
#     4  11  25  43  63  91 125 161 204 253 308 373
#     4  10  20  34  55  85 118 151 193 245 298 353
#     4  11  24  40  60  86 118 157 202 250 302 364
#     4  11  25  43  64  90 121 158 205 257 308 364
#     4   9  18  34  57  85 118 155 195 241 294 352
#
# _framework density 9.7001760000000008
#
# number of rings (size 3 to 8) (size 9 to 14) (size 15 to 20)
#    0.000    1.727    0.000    3.545    1.273   12.727 
#    0.000    1.818    0.000    0.000    0.000    3.818 
#    0.000    0.000    0.000    0.000    0.000    0.000 
#
# Total GULP energy -245714.310083 kJ/mol
# GULP energy per Si atom -5584.416138 kJ/mol
# Density = 0.967810 g / cm^3
# Si number density = 9.700176 Si / 1000 Ang^3
#
#
#
# Elastic Constant Matrix: (Units=GPa)
#
#
# Indices 1 2 3 4 5 6 
#
# 1 122.3534 81.0972 47.7731 0.0000 0.0000 0.0000
# 2 81.0972 94.4577 55.1617 0.0000 0.0000 0.0000
# 3 47.7731 55.1617 60.7322 0.0000 0.0000 0.0000
# 4 0.0000 0.0000 0.0000 30.2436 0.0000 0.0000
# 5 0.0000 0.0000 0.0000 0.0000 29.8663 0.0000
# 6 0.0000 0.0000 0.0000 0.0000 0.0000 32.2902
#
#
#
# Elastic Compliance Matrix: (Units=1/GPa)
#
#
# Indices 1 2 3 4 5 6 
#
# 1 0.018968 -0.016124 -0.000275 0.000000 0.000000 0.000000
# 2 -0.016124 0.036252 -0.020243 0.000000 0.000000 0.000000
# 3 -0.000275 -0.020243 0.035069 0.000000 0.000000 0.000000
# 4 0.000000 0.000000 0.000000 0.033065 0.000000 0.000000
# 5 0.000000 0.000000 0.000000 0.000000 0.033483 0.000000
# 6 0.000000 0.000000 0.000000 0.000000 0.000000 0.030969
#
#
# Mechanical properties :
#
#
# Convention : Reuss Voigt Hill
#
# Bulk Modulus (GPa) = 58.81246 71.73414 65.27330
# Shear Modulus (GPa) = 18.74357 24.71410 21.72884
#
# Velocity S-wave (km/s) = 3.11166 3.57304 3.35030
# Velocity P-wave (km/s) = 6.57958 7.35379 6.97743
#
# Compressibility (1/GPa) = 0.01700320
#
# Stress axis : x y z
#
# Youngs Moduli (GPa) = 52.72099 27.58471 28.51543
#
# Poissons Ratio (x) = 0.44478 0.00785
# Poissons Ratio (y) = 0.85008 0.57725
# Poissons Ratio (z) = 0.01451 0.55840
#
# Static dielectric constant tensor:
#      x y z
#    x 1.637590 0.000000 0.000000 
#    y 0.000000 1.735320 0.000000 
#    z 0.000000 0.000000 1.663840 
# 
# From -- ./inp_files/10463.got.cif
#   From: 2010.05.17/outbox.ucp.g08.bks.cvg/sg71_6_cif.got.tgz:10463.got - 2010.06.11 16:29:00.
