data_PCOD9524602
_publ_section_title
;
Structure prediction by ZEFSAII (Michael W. Deem and Ramdas Pophale) SiO2 
 PCOD9524602
Probable space group: I M M M
;
_chemical_formula_sum "Si O2"
_cell_formula_units_Z 96
_cell_length_a 23.765290
_cell_length_b 27.306872
_cell_length_c 7.396695
_cell_angle_alpha 90.000000
_cell_angle_beta 90.000000
_cell_angle_gamma 90.000000
_cell_volume 4800.127619
_symmetry_space_group_name_H-M "I M M M"
_symmetry_group_IT_number 71
_symmetry_cell_setting 'orthorhombic'
loop_
_space_group_symop_operation_xyz
x,y,z
-x,-y,z
x,-y,-z
-x,y,-z
-x,-y,-z
x,y,-z
-x,y,z
x,-y,z
1/2+x,1/2+y,1/2+z
1/2-x,1/2-y,1/2+z
1/2+x,1/2-y,1/2-z
1/2-x,1/2+y,1/2-z
1/2-x,1/2-y,1/2-z
1/2+x,1/2+y,1/2-z
1/2-x,1/2+y,1/2+z
1/2+x,1/2-y,1/2+z
loop_
_atom_site_type_symbol
_atom_site_label
_atom_site_fract_x
_atom_site_fract_y
_atom_site_fract_z
Si Si1 0.789474 0.203254 0.286437
Si Si2 0.000000 0.238352 0.720466
Si Si3 0.500000 0.375553 0.778502
Si Si4 0.769101 0.944307 0.782176
Si Si5 0.619324 0.225561 0.221009
Si Si6 0.603051 0.556248 0.785061
Si Si7 0.806438 0.364670 0.297673
O O1 0.791596 0.192068 0.500000
O O2 0.750000 0.250000 0.250000
O O3 0.848978 0.224187 0.225001
O O4 0.755059 0.161052 0.191980
O O5 0.000000 0.181399 0.778453
O O6 0.055498 0.267725 0.775626
O O7 0.000000 0.237236 0.500000
O O8 0.444636 0.406110 0.719806
O O9 0.500000 0.374471 0.000000
O O10 0.832715 0.926224 0.742763
O O11 0.714868 0.914745 0.710311
O O12 0.768275 0.000000 0.716966
O O13 0.763934 0.944360 0.000000
O O14 0.652095 0.176510 0.283858
O O15 0.623681 0.224492 0.000000
O O16 0.597729 0.500000 0.714191
O O17 0.594650 0.553109 0.000000
O O18 0.828120 0.374314 0.500000
#
# Coordination Sequence:
#
# PCOD9524602 Si02
#       7
#    16   8   8  16  16  16  16
#     4   9  16  26  42  64  87 111 141 174 208 251
#     4   9  16  25  38  60  87 110 137 175 208 248
#     4   9  17  26  40  60  84 113 142 175 216 254
#     4   9  18  31  45  62  85 113 143 178 222 268
#     4   8  15  26  39  59  84 108 136 170 207 246
#     4   9  17  29  44  62  84 109 142 182 218 253
#     4   9  17  29  44  62  84 110 141 177 216 261
#
# _framework density 19.999468
#
# number of rings (size 3 to 8) (size 9 to 14) (size 15 to 20)
#    0.000    3.167    0.000    1.750    2.333    1.667 
#    0.000    0.417    0.000    2.000    0.000   15.167 
#    0.000    4.667    0.000    0.000    0.000   15.417 
#
# Total GULP energy -267239.273160 kJ/mol
# GULP energy per Si atom -5567.484858 kJ/mol
# Density = 1.995395 g / cm^3
# Si number density = 19.999468 Si / 1000 Ang^3
#
#
#
# Elastic Constant Matrix: (Units=GPa)
#
#
# Indices 1 2 3 4 5 6 
#
# 1 140.1672 63.8552 1.1472 0.0000 0.0000 0.0000
# 2 63.8552 86.6122 0.0593 0.0000 0.0000 0.0000
# 3 1.1472 0.0593 73.3594 0.0000 0.0000 0.0000
# 4 0.0000 0.0000 0.0000 4.1102 0.0000 0.0000
# 5 0.0000 0.0000 0.0000 0.0000 12.4420 0.0000
# 6 0.0000 0.0000 0.0000 0.0000 0.0000 32.9866
#
#
#
# Elastic Compliance Matrix: (Units=1/GPa)
#
#
# Indices 1 2 3 4 5 6 
#
# 1 0.010744 -0.007921 -0.000162 0.000000 0.000000 0.000000
# 2 -0.007921 0.017386 0.000110 0.000000 0.000000 0.000000
# 3 -0.000162 0.000110 0.013634 0.000000 0.000000 0.000000
# 4 0.000000 0.000000 0.000000 0.243299 0.000000 0.000000
# 5 0.000000 0.000000 0.000000 0.000000 0.080373 0.000000
# 6 0.000000 0.000000 0.000000 0.000000 0.000000 0.030315
#
#
# Mechanical properties :
#
#
# Convention : Reuss Voigt Hill
#
# Bulk Modulus (GPa) = 38.73286 47.80692 43.26989
# Shear Modulus (GPa) = 11.89619 25.57956 18.73787
#
# Velocity S-wave (km/s) = 2.44155 3.58021 3.06423
# Velocity P-wave (km/s) = 5.23041 6.40675 5.84824
#
# Compressibility (1/GPa) = 0.02581787
#
# Stress axis : x y z
#
# Youngs Moduli (GPa) = 93.07301 57.51908 73.34626
#
# Poissons Ratio (x) = 0.45562 0.01185
# Poissons Ratio (y) = 0.73724 -0.00805
# Poissons Ratio (z) = 0.01504 -0.00632
#
# Static dielectric constant tensor:
#      x y z
#    x 1.706520 0.000000 0.000000 
#    y 0.000000 1.762580 0.000000 
#    z 0.000000 0.000000 1.926510 
# 
# From -- ./inp_files/13184.got.cif
#   From: 2010.05.17/outbox.cif.g08.bks.cpg/sg71_7_cif.got.tgz:13184.got - 2010.06.03 16:22:01.
