data_PCOD9524045
_publ_section_title
;
Structure prediction by ZEFSAII (Michael W. Deem and Ramdas Pophale) SiO2 
 PCOD9524045
Probable space group: I M M M
;
_chemical_formula_sum "Si O2"
_cell_formula_units_Z 72
_cell_length_a 26.535751
_cell_length_b 11.367918
_cell_length_c 14.703271
_cell_angle_alpha 90.000000
_cell_angle_beta 90.000000
_cell_angle_gamma 90.000000
_cell_volume 4435.333467
_symmetry_space_group_name_H-M "I M M M"
_symmetry_group_IT_number 71
_symmetry_cell_setting 'orthorhombic'
loop_
_space_group_symop_operation_xyz
x,y,z
-x,-y,z
x,-y,-z
-x,y,-z
-x,-y,-z
x,y,-z
-x,y,z
x,-y,z
1/2+x,1/2+y,1/2+z
1/2-x,1/2-y,1/2+z
1/2+x,1/2-y,1/2-z
1/2-x,1/2+y,1/2-z
1/2-x,1/2-y,1/2-z
1/2+x,1/2+y,1/2-z
1/2-x,1/2+y,1/2+z
1/2+x,1/2-y,1/2+z
loop_
_atom_site_type_symbol
_atom_site_label
_atom_site_fract_x
_atom_site_fract_y
_atom_site_fract_z
Si Si1 0.167167 0.357749 0.000000
Si Si2 0.716451 0.641791 0.000000
Si Si3 0.896665 0.754205 0.162254
Si Si4 0.863176 0.143321 0.653036
Si Si5 0.943888 0.858590 0.500000
Si Si6 0.000000 0.359753 0.892977
Si Si7 0.056665 0.000000 0.107526
O O1 0.225729 0.320820 0.000000
O O2 0.139202 0.306408 0.911676
O O3 0.163671 0.500000 0.000000
O O4 0.684929 0.674252 0.909776
O O5 0.716194 0.500000 0.000000
O O6 0.869380 0.776973 0.258101
O O7 0.949644 0.684099 0.157311
O O8 0.913333 0.884703 0.133891
O O9 0.911453 0.168869 0.589163
O O10 0.862198 0.000000 0.671012
O O11 0.000000 0.808663 0.500000
O O12 0.947421 0.000000 0.500000
O O13 0.000000 0.500000 0.896764
O O14 0.000000 0.316443 0.000000
O O15 0.000000 0.000000 0.148339
O O16 0.051479 0.000000 0.000000
#
# Coordination Sequence:
#
# PCOD9524045 Si02
#       7
#     8   8  16  16   8   8   8
#     4  11  23  38  55  74 102 147 194 222 254 309
#     4   8  18  39  57  74 105 140 179 228 269 311
#     4  12  21  32  54  82 108 141 173 218 267 321
#     4   9  18  32  52  80 110 136 168 219 277 321
#     4   8  15  27  45  72 108 141 166 199 254 326
#     4  11  22  37  51  74 111 149 185 212 247 310
#     4  11  20  32  46  77 119 143 163 200 278 334
#
# _framework density 16.233277999999999
#
# number of rings (size 3 to 8) (size 9 to 14) (size 15 to 20)
#    0.000    1.889    4.444    2.000    1.556    0.889 
#    0.000    0.000    0.000    0.000    2.889   12.444 
#    0.000    0.000    0.000    0.000    0.000    0.000 
#
# Total GULP energy -200562.370208 kJ/mol
# GULP energy per Si atom -5571.176950 kJ/mol
# Density = 1.619633 g / cm^3
# Si number density = 16.233278 Si / 1000 Ang^3
#
#
#
# Elastic Constant Matrix: (Units=GPa)
#
#
# Indices 1 2 3 4 5 6 
#
# 1 159.1166 39.9132 73.5816 0.0000 0.0000 0.0000
# 2 39.9132 66.6007 37.1782 0.0000 0.0000 0.0000
# 3 73.5816 37.1782 130.3728 0.0000 0.0000 0.0000
# 4 0.0000 0.0000 0.0000 6.3634 0.0000 0.0000
# 5 0.0000 0.0000 0.0000 0.0000 3.3217 0.0000
# 6 0.0000 0.0000 0.0000 0.0000 0.0000 19.5384
#
#
#
# Elastic Compliance Matrix: (Units=1/GPa)
#
#
# Indices 1 2 3 4 5 6 
#
# 1 0.008994 -0.003040 -0.004209 0.000000 0.000000 0.000000
# 2 -0.003040 0.018885 -0.003670 0.000000 0.000000 0.000000
# 3 -0.004209 -0.003670 0.011092 0.000000 0.000000 0.000000
# 4 0.000000 0.000000 0.000000 0.157148 0.000000 0.000000
# 5 0.000000 0.000000 0.000000 0.000000 0.301052 0.000000
# 6 0.000000 0.000000 0.000000 0.000000 0.000000 0.051181
#
#
# Mechanical properties :
#
#
# Convention : Reuss Voigt Hill
#
# Bulk Modulus (GPa) = 58.36484 73.04847 65.70666
# Shear Modulus (GPa) = 8.68203 19.53917 14.11060
#
# Velocity S-wave (km/s) = 2.31515 3.47313 2.95148
# Velocity P-wave (km/s) = 6.57103 7.82179 7.22353
#
# Compressibility (1/GPa) = 0.01713360
#
# Stress axis : x y z
#
# Youngs Moduli (GPa) = 111.18840 52.95114 90.15257
#
# Poissons Ratio (x) = 0.16099 0.37945
# Poissons Ratio (y) = 0.33804 0.33082
# Poissons Ratio (z) = 0.46799 0.19431
#
# Static dielectric constant tensor:
#      x y z
#    x 1.567500 0.000000 0.000000 
#    y 0.000000 1.520100 0.000000 
#    z 0.000000 0.000000 1.565870 
# 
# From -- ./inp_files/38947.got.cif
#   From: 2010.05.17/outbox.cif.g08.bks.cpg/sg71_20_cif.got.tgz:38947.got - 2010.06.03 16:22:01.
