data_PCOD9524217
_publ_section_title
;
Structure prediction by ZEFSAII (Michael W. Deem and Ramdas Pophale) SiO2 
 PCOD9524217
Probable space group: I M M M
;
_chemical_formula_sum "Si O2"
_cell_formula_units_Z 64
_cell_length_a 13.995206
_cell_length_b 19.027536
_cell_length_c 13.135308
_cell_angle_alpha 90.000000
_cell_angle_beta 90.000000
_cell_angle_gamma 90.000000
_cell_volume 3497.857465
_symmetry_space_group_name_H-M "I M M M"
_symmetry_group_IT_number 71
_symmetry_cell_setting 'orthorhombic'
loop_
_space_group_symop_operation_xyz
x,y,z
-x,-y,z
x,-y,-z
-x,y,-z
-x,-y,-z
x,y,-z
-x,y,z
x,-y,z
1/2+x,1/2+y,1/2+z
1/2-x,1/2-y,1/2+z
1/2+x,1/2-y,1/2-z
1/2-x,1/2+y,1/2-z
1/2-x,1/2-y,1/2-z
1/2+x,1/2+y,1/2-z
1/2-x,1/2+y,1/2+z
1/2+x,1/2-y,1/2+z
loop_
_atom_site_type_symbol
_atom_site_label
_atom_site_fract_x
_atom_site_fract_y
_atom_site_fract_z
Si Si1 0.806938 0.836055 0.811167
Si Si2 0.500000 0.081508 0.621234
Si Si3 0.394220 0.807839 0.258735
Si Si4 0.610490 0.583558 0.500000
Si Si5 0.885045 0.083123 0.617573
O O1 0.693709 0.822671 0.815153
O O2 0.862638 0.762106 0.818142
O O3 0.840675 0.886537 0.899683
O O4 0.833276 0.869952 0.701784
O O5 0.500000 0.085056 0.500000
O O6 0.411394 0.125363 0.667689
O O7 0.500000 0.000000 0.652175
O O8 0.500000 0.796042 0.212228
O O9 0.614399 0.500000 0.500000
O O10 0.500000 0.605693 0.500000
O O11 0.860781 0.100578 0.500000
O O12 0.000000 0.091463 0.629171
O O13 0.864255 0.000000 0.632987
#
# Coordination Sequence:
#
# PCOD9524217 Si02
#       5
#    16   8  16   8  16
#     4  11  21  38  62  88 121 163 204 249 308 367
#     4   9  20  38  62  89 117 158 205 256 311 360
#     4   9  22  39  58  86 117 157 203 254 307 358
#     4  11  24  38  61  95 125 163 206 251 306 370
#     4   9  18  33  55  85 119 154 191 245 306 356
#
# _framework density 18.296914000000001
#
# number of rings (size 3 to 8) (size 9 to 14) (size 15 to 20)
#    0.750    1.500    0.000    3.750    1.750    5.000 
#    6.750    3.125    0.000    0.750    0.000    0.000 
#    0.000    0.000    0.000    0.000    0.000    0.000 
#
# Total GULP energy -178372.760990 kJ/mol
# GULP energy per Si atom -5574.148781 kJ/mol
# Density = 1.825527 g / cm^3
# Si number density = 18.296914 Si / 1000 Ang^3
#
#
#
# Elastic Constant Matrix: (Units=GPa)
#
#
# Indices 1 2 3 4 5 6 
#
# 1 124.8377 40.7979 36.3231 0.0000 0.0000 0.0000
# 2 40.7979 93.5224 35.8528 -0.0002 0.0000 0.0000
# 3 36.3231 35.8528 65.9314 -0.0008 0.0000 0.0000
# 4 0.0000 -0.0002 -0.0008 197.0584 -0.0001 -0.0001
# 5 0.0000 0.0000 0.0000 -0.0001 -4.8990 0.0000
# 6 0.0000 0.0000 0.0000 -0.0001 0.0000 2.8395
#
#
#
# Elastic Compliance Matrix: (Units=1/GPa)
#
#
# Indices 1 2 3 4 5 6 
#
# 1 0.010117 -0.002876 -0.004010 0.000000 0.000000 0.000000
# 2 -0.002876 0.014326 -0.006206 0.000000 0.000000 0.000000
# 3 -0.004010 -0.006206 0.020751 0.000000 0.000000 0.000000
# 4 0.000000 0.000000 0.000000 0.005075 0.000000 0.000000
# 5 0.000000 0.000000 0.000000 0.000000 -0.204124 -0.000001
# 6 0.000000 0.000000 0.000000 0.000000 -0.000001 0.352174
#
#
# Mechanical properties :
#
#
# Convention : Reuss Voigt Hill
#
# Bulk Modulus (GPa) = 52.60173 56.69323 54.64748
# Shear Modulus (GPa) = 21.65996 50.42097 36.04047
#
# Velocity S-wave (km/s) = 3.44438 5.25518 4.44301
# Velocity P-wave (km/s) = 6.68055 8.23863 7.50015
#
# Compressibility (1/GPa) = 0.01901078
#
# Stress axis : x y z
#
# Youngs Moduli (GPa) = 98.84310 69.80073 48.19044
#
# Poissons Ratio (x) = 0.20077 0.19322
# Poissons Ratio (y) = 0.28430 0.29907
# Poissons Ratio (z) = 0.39632 0.43318
#
# Static dielectric constant tensor:
#      x y z
#    x 1.651810 0.000000 0.000000 
#    y 0.000000 1.625810 0.000000 
#    z 0.000000 0.000000 1.593610 
# 
# From -- ./inp_files/21290.got.cif
#   From: 2010.05.17/outbox.cif.g08.bks.cpg/sg71_11_cif.got.tgz:21290.got - 2010.06.03 16:22:01.
