data_PCOD9524553
_publ_section_title
;
Structure prediction by ZEFSAII (Michael W. Deem and Ramdas Pophale) SiO2 
 PCOD9524553
Probable space group: I M M M
;
_chemical_formula_sum "Si O2"
_cell_formula_units_Z 80
_cell_length_a 27.114678
_cell_length_b 20.025412
_cell_length_c 7.390462
_cell_angle_alpha 90.000000
_cell_angle_beta 90.000000
_cell_angle_gamma 90.000000
_cell_volume 4012.892259
_symmetry_space_group_name_H-M "I M M M"
_symmetry_group_IT_number 71
_symmetry_cell_setting 'orthorhombic'
loop_
_space_group_symop_operation_xyz
x,y,z
-x,-y,z
x,-y,-z
-x,y,-z
-x,-y,-z
x,y,-z
-x,y,z
x,-y,z
1/2+x,1/2+y,1/2+z
1/2-x,1/2-y,1/2+z
1/2+x,1/2-y,1/2-z
1/2-x,1/2+y,1/2-z
1/2-x,1/2-y,1/2-z
1/2+x,1/2+y,1/2-z
1/2-x,1/2+y,1/2+z
1/2+x,1/2-y,1/2+z
loop_
_atom_site_type_symbol
_atom_site_label
_atom_site_fract_x
_atom_site_fract_y
_atom_site_fract_z
Si Si1 0.944370 0.172523 0.779412
Si Si2 0.643552 0.577790 0.720752
Si Si3 0.248693 0.422867 0.282977
Si Si4 0.359529 0.076016 0.713797
Si Si5 0.444275 0.173952 0.720751
O O1 0.901595 0.123077 0.717158
O O2 0.935521 0.249273 0.724728
O O3 0.000000 0.153542 0.724044
O O4 0.943958 0.171533 0.000000
O O5 0.642880 0.578397 0.500000
O O6 0.638681 0.500000 0.773794
O O7 0.697983 0.603587 0.777337
O O8 0.249983 0.423566 0.500000
O O9 0.247196 0.500000 0.219458
O O10 0.195535 0.394011 0.233553
O O11 0.368249 0.070372 0.500000
O O12 0.402283 0.123689 0.786090
O O13 0.360200 0.000000 0.788221
O O14 0.443438 0.173758 0.500000
O O15 0.500000 0.155014 0.774462
#
# Coordination Sequence:
#
# PCOD9524553 Si02
#       5
#    16  16  16  16  16
#     4   8  13  21  33  50  74 101 124 150 188 228
#     4   8  13  21  34  52  73  99 129 154 179 219
#     4   8  14  25  39  54  76 104 126 148 186 229
#     4   9  16  25  39  58  76  96 127 163 189 214
#     4   8  14  24  36  51  73  98 121 150 193 234
#
# _framework density 19.935745000000001
#
# number of rings (size 3 to 8) (size 9 to 14) (size 15 to 20)
#    0.000    3.800    0.000    2.400    0.000    0.800 
#    0.000    5.000    0.000    0.600    0.000    2.800 
#    0.000    2.400    0.000    7.800    0.000    8.000 
#
# Total GULP energy -222748.248092 kJ/mol
# GULP energy per Si atom -5568.706202 kJ/mol
# Density = 1.989037 g / cm^3
# Si number density = 19.935745 Si / 1000 Ang^3
#
#
#
# Elastic Constant Matrix: (Units=GPa)
#
#
# Indices 1 2 3 4 5 6 
#
# 1 243.2322 116.0330 4.4933 0.0000 0.0000 0.0000
# 2 116.0330 79.1970 3.7878 0.0000 0.0000 0.0000
# 3 4.4933 3.7878 66.0432 0.0000 0.0000 0.0000
# 4 0.0000 0.0000 0.0000 -6.7935 0.0000 0.0000
# 5 0.0000 0.0000 0.0000 0.0000 8.1949 0.0000
# 6 0.0000 0.0000 0.0000 0.0000 0.0000 -22.3181
#
#
#
# Elastic Compliance Matrix: (Units=1/GPa)
#
#
# Indices 1 2 3 4 5 6 
#
# 1 0.013659 -0.020022 0.000219 0.000000 0.000000 0.000000
# 2 -0.020022 0.042012 -0.001047 0.000000 0.000000 0.000000
# 3 0.000219 -0.001047 0.015187 0.000000 0.000000 0.000000
# 4 0.000000 0.000000 0.000000 -0.147199 0.000000 0.000000
# 5 0.000000 0.000000 0.000000 0.000000 0.122028 0.000000
# 6 0.000000 0.000000 0.000000 0.000000 0.000000 -0.044807
#
#
# Mechanical properties :
#
#
# Convention : Reuss Voigt Hill
#
# Bulk Modulus (GPa) = 34.29784 70.78895 52.54340
# Shear Modulus (GPa) = 95.60530 13.42722 54.51626
#
# Velocity S-wave (km/s) = 6.93259 2.59805 5.23501
# Velocity P-wave (km/s) = 9.01791 6.67723 7.93436
#
# Compressibility (1/GPa) = 0.02915635
#
# Stress axis : x y z
#
# Youngs Moduli (GPa) = 73.21333 23.80298 65.84685
#
# Poissons Ratio (x) = 0.47659 -0.01442
# Poissons Ratio (y) = 1.46588 0.06896
# Poissons Ratio (z) = -0.01604 0.02493
#
# Static dielectric constant tensor:
#      x y z
#    x 1.722510 0.000000 0.000000 
#    y 0.000000 1.667070 0.000000 
#    z 0.000000 0.000000 1.801120 
# 
# From -- ./inp_files/14531.got.cif
#   From: 2010.05.17/outbox.cif.g08.bks.cpg/sg71_8_cif.got.tgz:14531.got - 2010.06.03 16:22:01.
