data_PCOD9524985
_publ_section_title
;
Structure prediction by ZEFSAII (Michael W. Deem and Ramdas Pophale) SiO2 
 PCOD9524985
Probable space group: I B A M
;
_chemical_formula_sum "Si O2"
_cell_formula_units_Z 88
_cell_length_a 11.736080
_cell_length_b 13.663161
_cell_length_c 26.405368
_cell_angle_alpha 90.000000
_cell_angle_beta 90.000000
_cell_angle_gamma 90.000000
_cell_volume 4234.152264
_symmetry_space_group_name_H-M "I B A M"
_symmetry_group_IT_number 72
_symmetry_cell_setting 'orthorhombic'
loop_
_space_group_symop_operation_xyz
x,y,z
-x,-y,z
x,-y,1/2-z
-x,y,1/2-z
-x,-y,-z
x,y,-z
-x,y,1/2+z
x,-y,1/2+z
1/2+x,1/2+y,1/2+z
1/2-x,1/2-y,1/2+z
1/2+x,1/2-y,-z
1/2-x,1/2+y,-z
1/2-x,1/2-y,1/2-z
1/2+x,1/2+y,1/2-z
1/2-x,1/2+y,z
1/2+x,1/2-y,z
loop_
_atom_site_type_symbol
_atom_site_label
_atom_site_fract_x
_atom_site_fract_y
_atom_site_fract_z
Si Si1 0.414851 0.712473 0.000000
Si Si2 0.709113 0.283953 0.328620
Si Si3 0.635385 0.885533 0.749235
Si Si4 0.450101 0.107093 0.000000
Si Si5 0.129554 0.962053 0.112722
Si Si6 0.894313 0.077013 0.000000
Si Si7 0.743759 0.859824 0.916305
O O1 0.434747 0.827046 0.000000
O O2 0.546139 0.681149 0.000000
O O3 0.349476 0.665431 0.953025
O O4 0.667698 0.194152 0.292936
O O5 0.815985 0.333815 0.301031
O O6 0.632747 0.377096 0.345354
O O7 0.730782 0.233913 0.381853
O O8 0.500000 0.890644 0.750000
O O9 0.677139 0.000000 0.750000
O O10 0.366915 0.121775 0.951155
O O11 0.500000 0.000000 0.000000
O O12 0.163258 0.932839 0.054467
O O13 0.218295 0.050680 0.119951
O O14 0.000000 0.000000 0.111185
O O15 0.000000 0.000000 0.000000
#
# Coordination Sequence:
#
# PCOD9524985 Si02
#       7
#     8  16  16   8  16   8  16
#     4  11  21  41  60  89 134 182 224 269 326 396
#     4  11  25  42  71 101 129 171 229 282 341 417
#     4  10  24  49  71  94 134 173 214 285 366 419
#     4  11  27  44  60  99 143 189 230 277 330 406
#     4  11  22  39  68 101 136 180 229 278 330 402
#     4  10  16  35  60  88 138 176 213 262 325 370
#     4  11  24  41  65  98 134 180 228 273 339 403
#
# _framework density 20.783380999999999
#
# number of rings (size 3 to 8) (size 9 to 14) (size 15 to 20)
#    0.000    1.273    3.636    2.727    5.091    0.727 
#    3.273    0.000    0.000    0.000    0.000    0.000 
#    0.000    0.000    0.000    0.000    0.000    0.000 
#
# Total GULP energy -245129.752170 kJ/mol
# GULP energy per Si atom -5571.130731 kJ/mol
# Density = 2.073608 g / cm^3
# Si number density = 20.783381 Si / 1000 Ang^3
#
#
#
# Elastic Constant Matrix: (Units=GPa)
#
#
# Indices 1 2 3 4 5 6 
#
# 1 64.3989 37.5739 34.8994 0.0000 0.0000 0.0000
# 2 37.5739 147.6213 47.4618 0.0000 0.0000 0.0000
# 3 34.8994 47.4618 73.6329 0.0000 0.0000 0.0000
# 4 0.0000 0.0000 0.0000 38.2097 0.0000 0.0000
# 5 0.0000 0.0000 0.0000 0.0000 5.4098 0.0000
# 6 0.0000 0.0000 0.0000 0.0000 0.0000 28.1019
#
#
#
# Elastic Compliance Matrix: (Units=1/GPa)
#
#
# Indices 1 2 3 4 5 6 
#
# 1 0.021779 -0.002806 -0.008514 0.000000 0.000000 0.000000
# 2 -0.002806 0.008906 -0.004411 0.000000 0.000000 0.000000
# 3 -0.008514 -0.004411 0.020459 0.000000 0.000000 0.000000
# 4 0.000000 0.000000 0.000000 0.026171 0.000000 0.000000
# 5 0.000000 0.000000 0.000000 0.000000 0.184850 0.000000
# 6 0.000000 0.000000 0.000000 0.000000 0.000000 0.035585
#
#
# Mechanical properties :
#
#
# Convention : Reuss Voigt Hill
#
# Bulk Modulus (GPa) = 50.80441 58.39148 54.59795
# Shear Modulus (GPa) = 14.89095 25.39214 20.14154
#
# Velocity S-wave (km/s) = 2.67962 3.49915 3.11644
# Velocity P-wave (km/s) = 5.83709 6.66946 6.26711
#
# Compressibility (1/GPa) = 0.01968333
#
# Stress axis : x y z
#
# Youngs Moduli (GPa) = 45.91491 112.27778 48.87760
#
# Poissons Ratio (x) = 0.31507 0.41614
# Poissons Ratio (y) = 0.12885 0.21559
# Poissons Ratio (z) = 0.39091 0.49524
#
# Static dielectric constant tensor:
#      x y z
#    x 1.727810 0.000000 0.000000 
#    y 0.000000 2.029760 0.000000 
#    z 0.000000 0.000000 1.693150 
# 
# From -- ./inp_files/51329.got.cif
#   From: 2010.05.17/outbox.cif.g08.bks.cpg/sg72_26_cif.got.tgz:51329.got - 2010.06.03 17:03:01.
