data_PCOD9524035
_publ_section_title
;
Structure prediction by ZEFSAII (Michael W. Deem and Ramdas Pophale) SiO2 
 PCOD9524035
Probable space group: I M M M
;
_chemical_formula_sum "Si O2"
_cell_formula_units_Z 80
_cell_length_a 7.578753
_cell_length_b 21.399269
_cell_length_c 26.140406
_cell_angle_alpha 90.000000
_cell_angle_beta 90.000000
_cell_angle_gamma 90.000000
_cell_volume 4239.445141
_symmetry_space_group_name_H-M "I M M M"
_symmetry_group_IT_number 71
_symmetry_cell_setting 'orthorhombic'
loop_
_space_group_symop_operation_xyz
x,y,z
-x,-y,z
x,-y,-z
-x,y,-z
-x,-y,-z
x,y,-z
-x,y,z
x,-y,z
1/2+x,1/2+y,1/2+z
1/2-x,1/2-y,1/2+z
1/2+x,1/2-y,1/2-z
1/2-x,1/2+y,1/2-z
1/2-x,1/2-y,1/2-z
1/2+x,1/2+y,1/2-z
1/2-x,1/2+y,1/2+z
1/2+x,1/2-y,1/2+z
loop_
_atom_site_type_symbol
_atom_site_label
_atom_site_fract_x
_atom_site_fract_y
_atom_site_fract_z
Si Si1 0.284000 0.568324 0.278150
Si Si2 0.205293 0.892791 0.000000
Si Si3 0.783683 0.112667 0.111561
Si Si4 0.789370 0.256461 0.109674
Si Si5 0.291542 0.688347 0.782824
Si Si6 0.794491 0.740228 0.000000
O O1 0.500000 0.570058 0.278109
O O2 0.229995 0.500000 0.259452
O O3 0.230503 0.577092 0.337359
O O4 0.218576 0.626368 0.244395
O O5 0.278540 0.910789 0.055741
O O6 0.208696 0.816479 0.000000
O O7 0.000000 0.912412 0.000000
O O8 0.727724 0.185145 0.118603
O O9 0.000000 0.111563 0.109681
O O10 0.759114 0.298780 0.158766
O O11 0.717386 0.279031 0.054778
O O12 0.000000 0.250896 0.103629
O O13 0.500000 0.681520 0.781957
O O14 0.250000 0.750000 0.750000
O O15 0.000000 0.720645 0.000000
#
# Coordination Sequence:
#
# PCOD9524035 Si02
#       6
#    16   8  16  16  16   8
#     4   9  17  28  41  59  86 119 152 185 225 269
#     4   7  10  16  31  55  82 109 139 175 211 248
#     4   8  12  21  37  58  83 112 144 177 213 253
#     4   9  15  27  46  69  92 117 147 183 225 271
#     4  11  20  30  46  68  91 119 154 192 229 266
#     4   7  12  22  41  66  92 116 140 174 225 275
#
# _framework density 18.870393
#
# number of rings (size 3 to 8) (size 9 to 14) (size 15 to 20)
#    0.000    3.200    2.000    3.000    0.000    0.000 
#    0.000    1.000    0.000    5.400    0.000    0.700 
#    0.000    5.600    0.000    7.200    0.000    6.400 
#
# Total GULP energy -222802.753913 kJ/mol
# GULP energy per Si atom -5570.068848 kJ/mol
# Density = 1.882744 g / cm^3
# Si number density = 18.870393 Si / 1000 Ang^3
#
#
#
# Elastic Constant Matrix: (Units=GPa)
#
#
# Indices 1 2 3 4 5 6 
#
# 1 37.9484 -0.0591 3.1725 0.0000 0.0000 0.0000
# 2 -0.0591 99.7104 68.9062 0.0000 0.0000 0.0000
# 3 3.1725 68.9062 158.4514 0.0000 0.0000 0.0000
# 4 0.0000 0.0000 0.0000 14.1892 0.0000 0.0000
# 5 0.0000 0.0000 0.0000 0.0000 11.7252 0.0000
# 6 0.0000 0.0000 0.0000 0.0000 0.0000 6.7488
#
#
#
# Elastic Compliance Matrix: (Units=1/GPa)
#
#
# Indices 1 2 3 4 5 6 
#
# 1 0.026416 0.000545 -0.000766 0.000000 0.000000 0.000000
# 2 0.000545 0.014349 -0.006251 0.000000 0.000000 0.000000
# 3 -0.000766 -0.006251 0.009045 0.000000 0.000000 0.000000
# 4 0.000000 0.000000 0.000000 0.070476 0.000000 0.000000
# 5 0.000000 0.000000 0.000000 0.000000 0.085287 0.000000
# 6 0.000000 0.000000 0.000000 0.000000 0.000000 0.148174
#
#
# Mechanical properties :
#
#
# Convention : Reuss Voigt Hill
#
# Bulk Modulus (GPa) = 27.12485 48.90548 38.01516
# Shear Modulus (GPa) = 13.19332 21.47201 17.33267
#
# Velocity S-wave (km/s) = 2.64702 3.37689 3.03398
# Velocity P-wave (km/s) = 4.87317 6.41695 5.69759
#
# Compressibility (1/GPa) = 0.03686656
#
# Stress axis : x y z
#
# Youngs Moduli (GPa) = 37.85523 69.69036 110.56075
#
# Poissons Ratio (x) = -0.03798 0.08468
# Poissons Ratio (y) = -0.02063 0.69111
# Poissons Ratio (z) = 0.02899 0.43563
#
# Static dielectric constant tensor:
#      x y z
#    x 1.772180 0.000000 0.000000 
#    y 0.000000 1.645860 0.000000 
#    z 0.000000 0.000000 1.695460 
# 
# From -- ./inp_files/12743.got.cif
#   From: 2010.05.17/outbox.cif.g08.bks.cpg/sg71_7_cif.got.tgz:12743.got - 2010.06.03 16:22:01.
