data_PCOD9524724
_publ_section_title
;
Structure prediction by ZEFSAII (Michael W. Deem and Ramdas Pophale) SiO2 
 PCOD9524724
Probable space group: I M M M
;
_chemical_formula_sum "Si O2"
_cell_formula_units_Z 44
_cell_length_a 21.000000
_cell_length_b 9.000000
_cell_length_c 24.000000
_cell_angle_alpha 90.000000
_cell_angle_beta 90.000000
_cell_angle_gamma 90.000000
_cell_volume 4536.000000
_symmetry_space_group_name_H-M "I M M M"
_symmetry_group_IT_number 71
_symmetry_cell_setting 'orthorhombic'
loop_
_space_group_symop_operation_xyz
x,y,z
-x,-y,z
x,-y,-z
-x,y,-z
-x,-y,-z
x,y,-z
-x,y,z
x,-y,z
1/2+x,1/2+y,1/2+z
1/2-x,1/2-y,1/2+z
1/2+x,1/2-y,1/2-z
1/2-x,1/2+y,1/2-z
1/2-x,1/2-y,1/2-z
1/2+x,1/2+y,1/2-z
1/2-x,1/2+y,1/2+z
1/2+x,1/2-y,1/2+z
loop_
_atom_site_type_symbol
_atom_site_label
_atom_site_fract_x
_atom_site_fract_y
_atom_site_fract_z
Si Si1 0.070596 0.326614 0.239788
Si Si2 0.430923 0.671247 0.624242
Si Si3 0.320679 0.320433 0.911903
Si Si4 0.822338 0.667159 0.062963
Si Si5 0.806432 0.823253 0.285531
Si Si6 0.574426 0.681928 0.000000
O O1 0.086157 0.500000 0.247834
O O2 0.066799 0.285643 0.175051
O O3 0.125479 0.221087 0.261489
O O4 0.000000 0.298425 0.264038
O O5 0.500000 0.684105 0.594362
O O6 0.426528 0.500000 0.643678
O O7 0.368152 0.716105 0.591631
O O8 0.326849 0.500000 0.910612
O O9 0.251785 0.289462 0.938125
O O10 0.311547 0.267731 0.848958
O O11 0.382210 0.269384 0.946920
O O12 0.826014 0.500000 0.088841
O O13 0.844661 0.655021 0.000000
O O14 0.750000 0.750000 0.250000
O O15 0.796641 0.000000 0.285397
O O16 0.573423 0.500000 0.000000
O O17 0.500000 0.729188 0.000000
#
# Coordination Sequence:
#
# PCOD9524724 Si02
#       6
#    16  16  16  16  16   8
#     4  10  21  38  58  79 108 147 189 232 285 348
#     4  10  21  36  54  78 109 143 182 232 283 332
#     4   9  18  33  52  79 113 146 184 232 285 338
#     4  10  19  33  55  78 107 146 186 228 274 332
#     4  11  22  35  56  86 120 154 193 241 291 350
#     4   9  16  30  54  82 112 145 184 234 291 343
#
# _framework density 9.7001760000000008
#
# number of rings (size 3 to 8) (size 9 to 14) (size 15 to 20)
#    0.000    2.091    0.909    2.727    0.000    5.091 
#    0.000    4.545    0.000    0.000    0.000    0.000 
#    0.000    5.091    0.000    0.000    0.000    0.000 
#
# Total GULP energy -244949.607554 kJ/mol
# GULP energy per Si atom -5567.036535 kJ/mol
# Density = 0.967810 g / cm^3
# Si number density = 9.700176 Si / 1000 Ang^3
#
#
#
# Elastic Constant Matrix: (Units=GPa)
#
#
# Indices 1 2 3 4 5 6 
#
# 1 101.0236 18.6622 55.5799 0.0000 0.0000 0.0000
# 2 18.6622 31.0798 10.8577 0.0000 0.0000 0.0000
# 3 55.5799 10.8577 85.3315 0.0000 0.0000 0.0000
# 4 0.0000 0.0000 0.0000 15.9262 0.0000 0.0000
# 5 0.0000 0.0000 0.0000 0.0000 27.6604 0.0000
# 6 0.0000 0.0000 0.0000 0.0000 0.0000 18.8551
#
#
#
# Elastic Compliance Matrix: (Units=1/GPa)
#
#
# Indices 1 2 3 4 5 6 
#
# 1 0.016584 -0.006472 -0.009978 0.000000 0.000000 0.000000
# 2 -0.006472 0.036198 -0.000390 0.000000 0.000000 0.000000
# 3 -0.009978 -0.000390 0.018268 0.000000 0.000000 0.000000
# 4 0.000000 0.000000 0.000000 0.062789 0.000000 0.000000
# 5 0.000000 0.000000 0.000000 0.000000 0.036153 0.000000
# 6 0.000000 0.000000 0.000000 0.000000 0.000000 0.053036
#
#
# Mechanical properties :
#
#
# Convention : Reuss Voigt Hill
#
# Bulk Modulus (GPa) = 26.76065 43.07050 34.91558
# Shear Modulus (GPa) = 18.57591 21.31069 19.94330
#
# Velocity S-wave (km/s) = 3.09771 3.31791 3.20970
# Velocity P-wave (km/s) = 5.15929 6.07677 5.63673
#
# Compressibility (1/GPa) = 0.03736829
#
# Stress axis : x y z
#
# Youngs Moduli (GPa) = 60.29888 27.62596 54.74058
#
# Poissons Ratio (x) = 0.17880 0.54622
# Poissons Ratio (y) = 0.39026 0.02137
# Poissons Ratio (z) = 0.60168 0.01078
#
# Static dielectric constant tensor:
#      x y z
#    x 1.672470 0.000000 0.000000 
#    y 0.000000 1.672570 0.000000 
#    z 0.000000 0.000000 1.707650 
# 
# From -- ./inp_files/10438.got.cif
#   From: 2010.05.17/outbox.ucp.g08.bks.cvg/sg71_6_cif.got.tgz:10438.got - 2010.06.11 16:29:00.
