data_PCOD9524379
_publ_section_title
;
Structure prediction by ZEFSAII (Michael W. Deem and Ramdas Pophale) SiO2 
 PCOD9524379
Probable space group: I M M M
;
_chemical_formula_sum "Si O2"
_cell_formula_units_Z 96
_cell_length_a 10.899034
_cell_length_b 30.842365
_cell_length_c 15.120769
_cell_angle_alpha 90.000000
_cell_angle_beta 90.000000
_cell_angle_gamma 90.000000
_cell_volume 5082.876511
_symmetry_space_group_name_H-M "I M M M"
_symmetry_group_IT_number 71
_symmetry_cell_setting 'orthorhombic'
loop_
_space_group_symop_operation_xyz
x,y,z
-x,-y,z
x,-y,-z
-x,y,-z
-x,-y,-z
x,y,-z
-x,y,z
x,-y,z
1/2+x,1/2+y,1/2+z
1/2-x,1/2-y,1/2+z
1/2+x,1/2-y,1/2-z
1/2-x,1/2+y,1/2-z
1/2-x,1/2-y,1/2-z
1/2+x,1/2+y,1/2-z
1/2-x,1/2+y,1/2+z
1/2+x,1/2-y,1/2+z
loop_
_atom_site_type_symbol
_atom_site_label
_atom_site_fract_x
_atom_site_fract_y
_atom_site_fract_z
Si Si1 0.000000 0.702373 0.598017
Si Si2 0.000000 0.725123 0.097251
Si Si3 0.648540 0.000000 0.394554
Si Si4 0.759413 0.242710 0.645859
Si Si5 0.644849 0.552346 0.600585
Si Si6 0.857888 0.149550 0.400277
Si Si7 0.234434 0.582955 0.218316
Si Si8 0.500000 0.855288 0.267059
O O1 0.123427 0.730964 0.610826
O O2 0.000000 0.684389 0.500000
O O3 0.000000 0.665237 0.670329
O O4 0.875599 0.752696 0.108249
O O5 0.000000 0.686365 0.168261
O O6 0.000000 0.705241 0.000000
O O7 0.700439 0.041467 0.341507
O O8 0.500000 0.000000 0.388607
O O9 0.679675 0.000000 0.500000
O O10 0.750000 0.250000 0.750000
O O11 0.782945 0.192351 0.624688
O O12 0.681335 0.565781 0.500000
O O13 0.500000 0.562971 0.611390
O O14 0.654772 0.500000 0.603834
O O15 0.721580 0.570824 0.682910
O O16 0.823650 0.136030 0.500000
O O17 0.836275 0.110912 0.332582
O O18 0.000000 0.162269 0.399804
O O19 0.117608 0.614592 0.220387
#
# Coordination Sequence:
#
# PCOD9524379 Si02
#       8
#     8   8   8  16  16  16  16   8
#     4  12  24  44  67  92 127 172 213 258 328 390
#     4  12  24  40  63  95 124 163 212 265 317 372
#     4  11  24  40  62  89 128 176 214 256 315 387
#     4  12  22  41  65  93 126 165 214 265 317 379
#     4   9  19  38  66  94 119 159 211 258 311 375
#     4  11  23  38  61  93 124 164 211 256 316 388
#     4  12  22  41  62  92 131 165 210 264 318 372
#     4  12  26  39  61  94 124 165 211 265 310 374
#
# _framework density 18.886942999999999
#
# number of rings (size 3 to 8) (size 9 to 14) (size 15 to 20)
#    0.000    0.750    5.833    3.000    0.000    1.333 
#    0.000    0.000    0.000    3.500    0.000    0.000 
#    0.000    0.000    0.000    0.000    0.000    0.000 
#
# Total GULP energy -268063.102080 kJ/mol
# GULP energy per Si atom -5584.647960 kJ/mol
# Density = 1.884396 g / cm^3
# Si number density = 18.886943 Si / 1000 Ang^3
#
#
#
# Elastic Constant Matrix: (Units=GPa)
#
#
# Indices 1 2 3 4 5 6 
#
# 1 106.1035 16.0944 30.7218 0.0000 0.0000 0.0000
# 2 16.0944 43.2995 15.6651 0.0001 -0.0001 0.0001
# 3 30.7218 15.6651 154.5245 0.0003 -0.0002 0.0001
# 4 0.0000 0.0001 0.0003 -113.2749 -0.0001 -0.0004
# 5 0.0000 -0.0001 -0.0002 -0.0001 17.6868 0.0000
# 6 0.0000 0.0001 0.0001 -0.0004 0.0000 -19.7035
#
#
#
# Elastic Compliance Matrix: (Units=1/GPa)
#
#
# Indices 1 2 3 4 5 6 
#
# 1 0.010421 -0.003243 -0.001743 0.000000 0.000000 0.000000
# 2 -0.003243 0.024983 -0.001888 0.000000 0.000000 0.000000
# 3 -0.001743 -0.001888 0.007009 0.000000 0.000000 0.000000
# 4 0.000000 0.000000 0.000000 -0.008828 0.000000 0.000000
# 5 0.000000 0.000000 0.000000 0.000000 0.056539 0.000000
# 6 0.000000 0.000000 0.000000 0.000000 0.000000 -0.050752
#
#
# Mechanical properties :
#
#
# Convention : Reuss Voigt Hill
#
# Bulk Modulus (GPa) = 34.88453 47.65446 41.26950
# Shear Modulus (GPa) = 79.77437 -6.96192 36.40623
#
# Velocity S-wave (km/s) = 6.50612 -1.92201 4.39519
# Velocity P-wave (km/s) = 8.65735 4.51229 6.90327
#
# Compressibility (1/GPa) = 0.02866600
#
# Stress axis : x y z
#
# Youngs Moduli (GPa) = 95.95636 40.02653 142.66492
#
# Poissons Ratio (x) = 0.12981 0.24869
# Poissons Ratio (y) = 0.31119 0.26935
# Poissons Ratio (z) = 0.16727 0.07557
#
# Static dielectric constant tensor:
#      x y z
#    x 1.701410 0.000000 0.000000 
#    y 0.000000 1.616690 0.000000 
#    z 0.000000 0.000000 1.649970 
# 
# From -- ./inp_files/33269.got.cif
#   From: 2010.05.17/outbox.cif.g08.bks.cpg/sg71_17_cif.got.tgz:33269.got - 2010.06.03 16:22:01.
