data_PCOD9524927
_publ_section_title
;
Structure prediction by ZEFSAII (Michael W. Deem and Ramdas Pophale) SiO2 
 PCOD9524927
Probable space group: I B A M
;
_chemical_formula_sum "Si O2"
_cell_formula_units_Z 112
_cell_length_a 18.333074
_cell_length_b 14.397027
_cell_length_c 24.588704
_cell_angle_alpha 90.000000
_cell_angle_beta 90.000000
_cell_angle_gamma 90.000000
_cell_volume 6489.985844
_symmetry_space_group_name_H-M "I B A M"
_symmetry_group_IT_number 72
_symmetry_cell_setting 'orthorhombic'
loop_
_space_group_symop_operation_xyz
x,y,z
-x,-y,z
x,-y,1/2-z
-x,y,1/2-z
-x,-y,-z
x,y,-z
-x,y,1/2+z
x,-y,1/2+z
1/2+x,1/2+y,1/2+z
1/2-x,1/2-y,1/2+z
1/2+x,1/2-y,-z
1/2-x,1/2+y,-z
1/2-x,1/2-y,1/2-z
1/2+x,1/2+y,1/2-z
1/2-x,1/2+y,z
1/2+x,1/2-y,z
loop_
_atom_site_type_symbol
_atom_site_label
_atom_site_fract_x
_atom_site_fract_y
_atom_site_fract_z
Si Si1 0.693258 0.776916 0.797131
Si Si2 0.159561 0.742149 0.435711
Si Si3 0.035859 0.634810 0.385020
Si Si4 0.752744 0.112990 0.142219
Si Si5 0.111146 0.400893 0.778001
Si Si6 0.402349 0.056501 0.063858
Si Si7 0.255179 0.589804 0.889509
O O1 0.750000 0.750000 0.750000
O O2 0.688249 0.682820 0.831945
O O3 0.624719 0.822667 0.767357
O O4 0.729699 0.854778 0.835572
O O5 0.156016 0.728053 0.500000
O O6 0.081913 0.720416 0.407989
O O7 0.215510 0.669232 0.407471
O O8 0.188868 0.843798 0.420444
O O9 0.048416 0.623059 0.320981
O O10 0.073890 0.543775 0.412718
O O11 0.952906 0.629522 0.404081
O O12 0.685821 0.096155 0.185198
O O13 0.781938 0.012859 0.125461
O O14 0.100497 0.500000 0.750000
O O15 0.318223 0.074877 0.075603
O O16 0.417914 0.059965 0.000000
#
# Coordination Sequence:
#
# PCOD9524927 Si02
#       7
#    16  16  16  16  16  16  16
#     4   9  18  29  47  68 101 140 167 213 267 307
#     4  10  19  31  48  72 103 136 175 224 270 315
#     4  10  20  32  48  73 104 140 176 215 263 335
#     4   9  18  29  46  70 102 131 172 215 256 323
#     4  10  15  29  47  66  98 136 173 210 255 309
#     4  11  20  33  51  71 105 145 174 211 273 329
#     4  11  19  32  49  77 102 135 182 218 259 325
#
# _framework density 17.257356999999999
#
# number of rings (size 3 to 8) (size 9 to 14) (size 15 to 20)
#    0.000    2.000    4.286    3.000    0.000    0.571 
#    0.000    5.000    0.000    0.000    0.000    4.000 
#    0.000   14.857    0.000    0.000    0.000    0.000 
#
# Total GULP energy -312396.320423 kJ/mol
# GULP energy per Si atom -5578.505722 kJ/mol
# Density = 1.721808 g / cm^3
# Si number density = 17.257357 Si / 1000 Ang^3
#
#
#
# Elastic Constant Matrix: (Units=GPa)
#
#
# Indices 1 2 3 4 5 6 
#
# 1 46.3773 30.3980 14.7188 0.0000 0.0000 0.0000
# 2 30.3980 117.8408 36.1101 0.0000 0.0000 0.0000
# 3 14.7188 36.1101 103.7660 0.0000 0.0000 0.0000
# 4 0.0000 0.0000 0.0000 20.7700 0.0000 0.0000
# 5 0.0000 0.0000 0.0000 0.0000 19.4812 0.0000
# 6 0.0000 0.0000 0.0000 0.0000 0.0000 19.9810
#
#
#
# Elastic Compliance Matrix: (Units=1/GPa)
#
#
# Indices 1 2 3 4 5 6 
#
# 1 0.026164 -0.006282 -0.001525 0.000000 0.000000 0.000000
# 2 -0.006282 0.011007 -0.002939 0.000000 0.000000 0.000000
# 3 -0.001525 -0.002939 0.010876 0.000000 0.000000 0.000000
# 4 0.000000 0.000000 0.000000 0.048146 0.000000 0.000000
# 5 0.000000 0.000000 0.000000 0.000000 0.051331 0.000000
# 6 0.000000 0.000000 0.000000 0.000000 0.000000 0.050048
#
#
# Mechanical properties :
#
#
# Convention : Reuss Voigt Hill
#
# Bulk Modulus (GPa) = 37.65847 47.82645 42.74246
# Shear Modulus (GPa) = 21.93781 24.49691 23.21736
#
# Velocity S-wave (km/s) = 3.56928 3.77172 3.67189
# Velocity P-wave (km/s) = 6.23341 6.83679 6.54206
#
# Compressibility (1/GPa) = 0.02655445
#
# Stress axis : x y z
#
# Youngs Moduli (GPa) = 38.22086 90.84970 91.94291
#
# Poissons Ratio (x) = 0.57070 0.14023
# Poissons Ratio (y) = 0.24010 0.27026
# Poissons Ratio (z) = 0.05829 0.26704
#
# Static dielectric constant tensor:
#      x y z
#    x 1.614270 0.000000 0.000000 
#    y 0.000000 1.589440 0.000000 
#    z 0.000000 0.000000 1.616400 
# 
# From -- ./inp_files/45393.got.cif
#   From: 2010.05.17/outbox.cif.g08.bks.cpg/sg72_23_cif.got.tgz:45393.got - 2010.06.03 17:03:01.
