data_PCOD9524786
_publ_section_title
;
Structure prediction by ZEFSAII (Michael W. Deem and Ramdas Pophale) SiO2 
 PCOD9524786
Probable space group: I M M M
;
_chemical_formula_sum "Si O2"
_cell_formula_units_Z 36
_cell_length_a 15.000000
_cell_length_b 27.000000
_cell_length_c 9.000000
_cell_angle_alpha 90.000000
_cell_angle_beta 90.000000
_cell_angle_gamma 90.000000
_cell_volume 3645.000000
_symmetry_space_group_name_H-M "I M M M"
_symmetry_group_IT_number 71
_symmetry_cell_setting 'orthorhombic'
loop_
_space_group_symop_operation_xyz
x,y,z
-x,-y,z
x,-y,-z
-x,y,-z
-x,-y,-z
x,y,-z
-x,y,z
x,-y,z
1/2+x,1/2+y,1/2+z
1/2-x,1/2-y,1/2+z
1/2+x,1/2-y,1/2-z
1/2-x,1/2+y,1/2-z
1/2-x,1/2-y,1/2-z
1/2+x,1/2+y,1/2-z
1/2-x,1/2+y,1/2+z
1/2+x,1/2-y,1/2+z
loop_
_atom_site_type_symbol
_atom_site_label
_atom_site_fract_x
_atom_site_fract_y
_atom_site_fract_z
Si Si1 0.341432 0.731316 0.324486
Si Si2 0.601925 0.628062 0.822739
Si Si3 0.595832 0.177174 0.828289
Si Si4 0.897901 0.500000 0.318906
Si Si5 0.770526 0.589417 0.677230
O O1 0.331364 0.724618 0.500000
O O2 0.250000 0.750000 0.250000
O O3 0.376874 0.681053 0.251879
O O4 0.404036 0.777033 0.281868
O O5 0.500000 0.613894 0.787863
O O6 0.676824 0.591162 0.760305
O O7 0.610512 0.632706 0.000000
O O8 0.500000 0.150360 0.819875
O O9 0.677160 0.140796 0.797553
O O10 0.604581 0.194740 0.000000
O O11 0.901854 0.500000 0.500000
O O12 0.839368 0.452752 0.274642
O O13 0.000000 0.500000 0.265799
O O14 0.755597 0.584660 0.500000
#
# Coordination Sequence:
#
# PCOD9524786 Si02
#       5
#    16  16  16   8  16
#     4  12  23  36  56  83 117 157 199 243 291 344
#     4  11  24  41  60  83 116 159 202 247 298 349
#     4  10  20  34  54  83 118 155 193 235 287 346
#     4   9  18  36  64  97 126 152 187 235 296 359
#     4  10  20  36  61  89 118 154 195 242 292 349
#
# _framework density 9.8765429999999999
#
# number of rings (size 3 to 8) (size 9 to 14) (size 15 to 20)
#    0.000    1.444    2.222    4.000    0.000    7.556 
#    0.000    1.111    0.000    6.000    0.000    0.000 
#    0.000    0.000    0.000    0.000    0.000    0.000 
#
# Total GULP energy -200992.662483 kJ/mol
# GULP energy per Si atom -5583.129513 kJ/mol
# Density = 0.985406 g / cm^3
# Si number density = 9.876543 Si / 1000 Ang^3
#
#
#
# Elastic Constant Matrix: (Units=GPa)
#
#
# Indices 1 2 3 4 5 6 
#
# 1 198.2088 52.7741 66.5515 0.0000 -0.0001 0.0000
# 2 52.7741 75.1875 32.6330 0.0000 0.0001 0.0000
# 3 66.5515 32.6330 58.7536 -0.0016 0.0014 0.0003
# 4 0.0000 0.0000 -0.0016 17.0039 0.0002 0.0001
# 5 -0.0001 0.0001 0.0014 0.0002 29.0175 0.0000
# 6 0.0000 0.0000 0.0003 0.0001 0.0000 25.4857
#
#
#
# Elastic Compliance Matrix: (Units=1/GPa)
#
#
# Indices 1 2 3 4 5 6 
#
# 1 0.008443 -0.002339 -0.008264 -0.000001 0.000000 0.000000
# 2 -0.002339 0.018173 -0.007444 -0.000001 0.000000 0.000000
# 3 -0.008264 -0.007444 0.030516 0.000003 -0.000002 0.000000
# 4 -0.000001 -0.000001 0.000003 0.058810 0.000000 0.000000
# 5 0.000000 0.000000 -0.000002 0.000000 0.034462 0.000000
# 6 0.000000 0.000000 0.000000 0.000000 0.000000 0.039238
#
#
# Mechanical properties :
#
#
# Convention : Reuss Voigt Hill
#
# Bulk Modulus (GPa) = 47.53564 70.67413 59.10489
# Shear Modulus (GPa) = 21.48250 26.31418 23.89834
#
# Velocity S-wave (km/s) = 3.30138 3.65383 3.48207
# Velocity P-wave (km/s) = 6.21686 7.32510 6.79362
#
# Compressibility (1/GPa) = 0.02103685
#
# Stress axis : x y z
#
# Youngs Moduli (GPa) = 118.44416 55.02739 32.77006
#
# Poissons Ratio (x) = 0.12872 0.27081
# Poissons Ratio (y) = 0.27706 0.24394
# Poissons Ratio (z) = 0.97883 0.40962
#
# Static dielectric constant tensor:
#      x y z
#    x 1.777640 0.000000 0.000000 
#    y 0.000000 1.707420 0.000000 
#    z 0.000000 0.000000 1.663930 
# 
# From -- ./inp_files/6065.got.cif
#   From: 2010.05.17/outbox.ucp.g08.bks.cvg/sg71_4_cif.got.tgz:6065.got - 2010.06.11 16:29:00.
