data_PCOD9524976
_publ_section_title
;
Structure prediction by ZEFSAII (Michael W. Deem and Ramdas Pophale) SiO2 
 PCOD9524976
Probable space group: I B A M
;
_chemical_formula_sum "Si O2"
_cell_formula_units_Z 84
_cell_length_a 14.689160
_cell_length_b 21.947216
_cell_length_c 15.629457
_cell_angle_alpha 90.000000
_cell_angle_beta 90.000000
_cell_angle_gamma 90.000000
_cell_volume 5038.720740
_symmetry_space_group_name_H-M "I B A M"
_symmetry_group_IT_number 72
_symmetry_cell_setting 'orthorhombic'
loop_
_space_group_symop_operation_xyz
x,y,z
-x,-y,z
x,-y,1/2-z
-x,y,1/2-z
-x,-y,-z
x,y,-z
-x,y,1/2+z
x,-y,1/2+z
1/2+x,1/2+y,1/2+z
1/2-x,1/2-y,1/2+z
1/2+x,1/2-y,-z
1/2-x,1/2+y,-z
1/2-x,1/2-y,1/2-z
1/2+x,1/2+y,1/2-z
1/2-x,1/2+y,z
1/2+x,1/2-y,z
loop_
_atom_site_type_symbol
_atom_site_label
_atom_site_fract_x
_atom_site_fract_y
_atom_site_fract_z
Si Si1 0.234864 0.651475 0.906428
Si Si2 0.500000 0.500000 0.750000
Si Si3 0.915922 0.112575 0.659405
Si Si4 0.094022 0.817210 0.162811
Si Si5 0.099056 0.679956 0.765733
Si Si6 0.286576 0.794033 0.904772
O O1 0.326416 0.612789 0.896987
O O2 0.163869 0.643305 0.830061
O O3 0.270118 0.721348 0.900217
O O4 0.192738 0.643357 0.000000
O O5 0.555453 0.454405 0.810955
O O6 0.891358 0.148238 0.747284
O O7 0.003164 0.151135 0.625069
O O8 0.082530 0.746087 0.188161
O O9 0.185759 0.822106 0.108384
O O10 0.150463 0.689285 0.675551
O O11 0.000000 0.652635 0.750000
O O12 0.321868 0.808701 0.000000
#
# Coordination Sequence:
#
# PCOD9524976 Si02
#       6
#    16   4  16  16  16  16
#     4  10  19  29  46  68  97 130 162 193 239 293
#     4   8  20  28  54  76  90 124 170 208 234 302
#     4  10  16  32  49  71  96 129 166 200 249 285
#     4   9  15  27  46  62  94 132 155 192 241 289
#     4  11  17  29  44  65  96 133 164 195 233 286
#     4  10  18  27  42  69  95 129 169 195 229 292
#
# _framework density 16.670897
#
# number of rings (size 3 to 8) (size 9 to 14) (size 15 to 20)
#    0.000    2.286    5.714    1.143    0.000    1.524 
#    0.000    4.286    0.000    1.143    0.000    0.667 
#    0.000    1.524    0.000    0.000    0.000    0.000 
#
# Total GULP energy -233876.799635 kJ/mol
# GULP energy per Si atom -5568.495229 kJ/mol
# Density = 1.663295 g / cm^3
# Si number density = 16.670897 Si / 1000 Ang^3
#
#
#
# Elastic Constant Matrix: (Units=GPa)
#
#
# Indices 1 2 3 4 5 6 
#
# 1 116.3869 22.0991 57.4764 0.0000 0.0000 0.0000
# 2 22.0991 45.4041 2.3449 0.0001 0.0000 0.0000
# 3 57.4764 2.3449 94.9345 0.0002 0.0000 0.0000
# 4 0.0000 0.0001 0.0002 4.9114 0.0000 0.0000
# 5 0.0000 0.0000 0.0000 0.0000 4.0596 0.0000
# 6 0.0000 0.0000 0.0000 0.0000 0.0000 10.7045
#
#
#
# Elastic Compliance Matrix: (Units=1/GPa)
#
#
# Indices 1 2 3 4 5 6 
#
# 1 0.013858 -0.006320 -0.008234 0.000001 0.000000 0.000000
# 2 -0.006320 0.024935 0.003210 -0.000001 0.000000 0.000000
# 3 -0.008234 0.003210 0.015440 -0.000001 0.000000 0.000000
# 4 0.000001 -0.000001 -0.000001 0.203610 0.000000 0.000000
# 5 0.000000 0.000000 0.000000 0.000000 0.246330 0.000000
# 6 0.000000 0.000000 0.000000 0.000000 0.000000 0.093418
#
#
# Mechanical properties :
#
#
# Convention : Reuss Voigt Hill
#
# Bulk Modulus (GPa) = 31.70062 46.72959 39.21510
# Shear Modulus (GPa) = 7.92652 15.58876 11.75764
#
# Velocity S-wave (km/s) = 2.18289 3.06124 2.65859
# Velocity P-wave (km/s) = 5.04085 6.37075 5.74441
#
# Compressibility (1/GPa) = 0.03154513
#
# Stress axis : x y z
#
# Youngs Moduli (GPa) = 72.15828 40.10478 64.76871
#
# Poissons Ratio (x) = 0.25346 0.53332
# Poissons Ratio (y) = 0.45603 -0.20793
# Poissons Ratio (z) = 0.59417 -0.12875
#
# Static dielectric constant tensor:
#      x y z
#    x 1.613540 0.000000 0.000000 
#    y 0.000000 1.537910 0.000000 
#    z 0.000000 0.000000 1.600970 
# 
# From -- ./inp_files/21974.got.cif
#   From: 2010.05.17/outbox.cif.g08.bks.cpg/sg72_11_cif.got.tgz:21974.got - 2010.06.03 17:03:01.
