data_PCOD9524855
_publ_section_title
;
Structure prediction by ZEFSAII (Michael W. Deem and Ramdas Pophale) SiO2 
 PCOD9524855
Probable space group: I M M M
;
_chemical_formula_sum "Si O2"
_cell_formula_units_Z 52
_cell_length_a 27.000000
_cell_length_b 21.000000
_cell_length_c 9.000000
_cell_angle_alpha 90.000000
_cell_angle_beta 90.000000
_cell_angle_gamma 90.000000
_cell_volume 5103.000000
_symmetry_space_group_name_H-M "I M M M"
_symmetry_group_IT_number 71
_symmetry_cell_setting 'orthorhombic'
loop_
_space_group_symop_operation_xyz
x,y,z
-x,-y,z
x,-y,-z
-x,y,-z
-x,-y,-z
x,y,-z
-x,y,z
x,-y,z
1/2+x,1/2+y,1/2+z
1/2-x,1/2-y,1/2+z
1/2+x,1/2-y,1/2-z
1/2-x,1/2+y,1/2-z
1/2-x,1/2-y,1/2-z
1/2+x,1/2+y,1/2-z
1/2-x,1/2+y,1/2+z
1/2+x,1/2-y,1/2+z
loop_
_atom_site_type_symbol
_atom_site_label
_atom_site_fract_x
_atom_site_fract_y
_atom_site_fract_z
Si Si1 0.942236 0.324115 0.672659
Si Si2 0.390830 0.612634 0.176675
Si Si3 0.139799 0.241383 0.823694
Si Si4 0.000000 0.925594 0.320013
Si Si5 0.783569 0.654815 0.825299
Si Si6 0.204355 0.930794 0.823849
Si Si7 0.135556 0.574639 0.332175
O O1 0.936181 0.301268 0.500000
O O2 0.907130 0.285668 0.783685
O O3 0.918648 0.394329 0.677263
O O4 0.000000 0.321089 0.708236
O O5 0.370662 0.681167 0.222672
O O6 0.447677 0.604098 0.229157
O O7 0.350379 0.568812 0.255329
O O8 0.389780 0.602462 0.000000
O O9 0.190619 0.278215 0.783416
O O10 0.140993 0.227036 0.000000
O O11 0.000000 0.920871 0.500000
O O12 0.000000 0.000000 0.280798
O O13 0.736533 0.626945 0.740416
O O14 0.827716 0.605772 0.785362
O O15 0.773171 0.655956 0.000000
O O16 0.228274 0.000000 0.790394
O O17 0.201108 0.924116 0.000000
O O18 0.154653 0.590305 0.500000
O O19 0.133645 0.500000 0.316410
#
# Coordination Sequence:
#
# PCOD9524855 Si02
#       7
#    16  16  16   8  16  16  16
#     4   9  18  32  51  75 106 146 193 243 292 351
#     4  11  23  40  65  93 120 155 197 242 293 351
#     4  10  22  39  57  83 118 154 196 244 297 352
#     4   9  20  40  65  93 123 153 190 239 290 343
#     4  10  21  37  58  83 114 155 199 242 290 348
#     4  11  24  41  62  90 123 156 193 240 294 352
#     4   9  17  30  49  75 108 146 189 240 298 352
#
# _framework density 10.190084000000001
#
# number of rings (size 3 to 8) (size 9 to 14) (size 15 to 20)
#    0.000    2.077    0.000    2.769    1.077    7.077 
#    0.000    2.692    0.000    2.769    0.000    4.308 
#    0.000    0.000    0.000    0.000    0.000    0.000 
#
# Total GULP energy -290113.118170 kJ/mol
# GULP energy per Si atom -5579.098426 kJ/mol
# Density = 1.016689 g / cm^3
# Si number density = 10.190084 Si / 1000 Ang^3
#
#
#
# Elastic Constant Matrix: (Units=GPa)
#
#
# Indices 1 2 3 4 5 6 
#
# 1 133.1735 41.9877 31.9991 0.0000 0.0000 0.0000
# 2 41.9877 82.8937 16.9570 0.0000 0.0000 0.0000
# 3 31.9991 16.9570 32.5274 0.0000 0.0000 0.0000
# 4 0.0000 0.0000 0.0000 19.2963 0.0000 0.0000
# 5 0.0000 0.0000 0.0000 0.0000 29.8634 0.0000
# 6 0.0000 0.0000 0.0000 0.0000 0.0000 18.0421
#
#
#
# Elastic Compliance Matrix: (Units=1/GPa)
#
#
# Indices 1 2 3 4 5 6 
#
# 1 0.010747 -0.003673 -0.008658 0.000000 0.000000 0.000000
# 2 -0.003673 0.014759 -0.004081 0.000000 0.000000 0.000000
# 3 -0.008658 -0.004081 0.041388 0.000000 0.000000 0.000000
# 4 0.000000 0.000000 0.000000 0.051823 0.000000 0.000000
# 5 0.000000 0.000000 0.000000 0.000000 0.033486 0.000000
# 6 0.000000 0.000000 0.000000 0.000000 0.000000 0.055426
#
#
# Mechanical properties :
#
#
# Convention : Reuss Voigt Hill
#
# Bulk Modulus (GPa) = 29.35062 47.83135 38.59099
# Shear Modulus (GPa) = 19.85626 23.95042 21.90334
#
# Velocity S-wave (km/s) = 3.12475 3.43181 3.28188
# Velocity P-wave (km/s) = 5.23943 6.26288 5.77387
#
# Compressibility (1/GPa) = 0.03407083
#
# Stress axis : x y z
#
# Youngs Moduli (GPa) = 93.04638 67.75653 24.16145
#
# Poissons Ratio (x) = 0.24885 0.20919
# Poissons Ratio (y) = 0.34173 0.09860
# Poissons Ratio (z) = 0.80561 0.27651
#
# Static dielectric constant tensor:
#      x y z
#    x 1.718540 0.000000 0.000000 
#    y 0.000000 1.805570 0.000000 
#    z 0.000000 0.000000 1.701470 
# 
# From -- ./inp_files/15024.got.cif
#   From: 2010.05.17/outbox.ucp.g08.bks.cvg/sg71_8_cif.got.tgz:15024.got - 2010.06.11 16:29:00.
