data_PCOD9524245
_publ_section_title
;
Structure prediction by ZEFSAII (Michael W. Deem and Ramdas Pophale) SiO2 
 PCOD9524245
Probable space group: I M M M
;
_chemical_formula_sum "Si O2"
_cell_formula_units_Z 120
_cell_length_a 8.558810
_cell_length_b 27.961696
_cell_length_c 28.465154
_cell_angle_alpha 90.000000
_cell_angle_beta 90.000000
_cell_angle_gamma 90.000000
_cell_volume 6812.247731
_symmetry_space_group_name_H-M "I M M M"
_symmetry_group_IT_number 71
_symmetry_cell_setting 'orthorhombic'
loop_
_space_group_symop_operation_xyz
x,y,z
-x,-y,z
x,-y,-z
-x,y,-z
-x,-y,-z
x,y,-z
-x,y,z
x,-y,z
1/2+x,1/2+y,1/2+z
1/2-x,1/2-y,1/2+z
1/2+x,1/2-y,1/2-z
1/2-x,1/2+y,1/2-z
1/2-x,1/2-y,1/2-z
1/2+x,1/2+y,1/2-z
1/2-x,1/2+y,1/2+z
1/2+x,1/2-y,1/2+z
loop_
_atom_site_type_symbol
_atom_site_label
_atom_site_fract_x
_atom_site_fract_y
_atom_site_fract_z
Si Si1 0.811502 0.818815 0.054326
Si Si2 0.311426 0.350307 0.861185
Si Si3 0.188533 0.897990 0.784473
Si Si4 0.313286 0.907459 0.887659
Si Si5 0.190490 0.053486 0.687247
Si Si6 0.811948 0.198848 0.264816
Si Si7 0.190844 0.500000 0.553986
Si Si8 0.811597 0.290244 0.946265
O O1 0.746143 0.858489 0.089037
O O2 0.762323 0.764326 0.065757
O O3 0.000000 0.820141 0.056193
O O4 0.765363 0.828632 0.000000
O O5 0.500000 0.350385 0.862273
O O6 0.259797 0.404138 0.847821
O O7 0.262127 0.317227 0.817035
O O8 0.249996 0.328042 0.909011
O O9 0.256756 0.912184 0.834305
O O10 0.235025 0.930954 0.740215
O O11 0.235717 0.843935 0.770241
O O12 0.000000 0.899269 0.787282
O O13 0.500000 0.907218 0.888380
O O14 0.257870 0.952442 0.918732
O O15 0.000000 0.053405 0.686566
O O16 0.244441 0.000000 0.676173
O O17 0.750000 0.250000 0.250000
O O18 0.000000 0.199936 0.264664
O O19 0.242640 0.500000 0.500000
O O20 0.000000 0.500000 0.553844
O O21 0.000000 0.290720 0.945498
O O22 0.761954 0.299868 0.000000
#
# Coordination Sequence:
#
# PCOD9524245 Si02
#       8
#    16  16  16  16  16  16   8  16
#     4   9  19  36  54  72  97 129 167 211 254 300
#     4   9  18  32  51  78 105 129 169 215 251 296
#     4   9  19  34  50  73 102 133 168 206 250 297
#     4  11  22  34  52  75  99 130 168 212 258 306
#     4   8  15  31  55  77 100 133 169 209 255 301
#     4   9  19  33  48  70 103 136 167 203 245 297
#     4   9  20  38  53  67  95 133 167 207 266 317
#     4   9  19  35  54  76 104 138 170 201 248 307
#
# _framework density 17.615331000000001
#
# number of rings (size 3 to 8) (size 9 to 14) (size 15 to 20)
#    0.000    2.867    0.000    3.200    2.800    2.667 
#    0.000    4.333    0.000    4.000    0.000    2.800 
#    0.000    0.000    0.000    0.000    0.000    0.000 
#
# Total GULP energy -334571.762031 kJ/mol
# GULP energy per Si atom -5576.196034 kJ/mol
# Density = 1.757524 g / cm^3
# Si number density = 17.615331 Si / 1000 Ang^3
#
#
#
# Elastic Constant Matrix: (Units=GPa)
#
#
# Indices 1 2 3 4 5 6 
#
# 1 8.5294 21.4632 21.6151 0.0000 0.0000 0.0000
# 2 21.4632 158.0840 95.9799 0.0000 0.0000 0.0000
# 3 21.6151 95.9799 135.2645 0.0000 0.0000 0.0000
# 4 0.0000 0.0000 0.0000 18.1819 0.0000 0.0000
# 5 0.0000 0.0000 0.0000 0.0000 28.3595 0.0000
# 6 0.0000 0.0000 0.0000 0.0000 0.0000 16.7761
#
#
#
# Elastic Compliance Matrix: (Units=1/GPa)
#
#
# Indices 1 2 3 4 5 6 
#
# 1 0.214670 -0.014615 -0.023934 0.000000 0.000000 0.000000
# 2 -0.014615 0.012109 -0.006257 0.000000 0.000000 0.000000
# 3 -0.023934 -0.006257 0.015657 0.000000 0.000000 0.000000
# 4 0.000000 0.000000 0.000000 0.055000 0.000000 0.000000
# 5 0.000000 0.000000 0.000000 0.000000 0.035262 0.000000
# 6 0.000000 0.000000 0.000000 0.000000 0.000000 0.059609
#
#
# Mechanical properties :
#
#
# Convention : Reuss Voigt Hill
#
# Bulk Modulus (GPa) = 6.54342 64.44382 35.49362
# Shear Modulus (GPa) = 9.38339 23.51815 16.45077
#
# Velocity S-wave (km/s) = 2.31050 3.65786 3.05928
# Velocity P-wave (km/s) = 3.29250 7.38263 5.71593
#
# Compressibility (1/GPa) = 0.15282525
#
# Stress axis : x y z
#
# Youngs Moduli (GPa) = 4.65832 82.58576 63.86929
#
# Poissons Ratio (x) = 1.20696 1.52863
# Poissons Ratio (y) = 0.06808 0.39960
# Poissons Ratio (z) = 0.11149 0.51670
#
# Static dielectric constant tensor:
#      x y z
#    x 1.607420 0.000000 0.000000 
#    y 0.000000 1.600000 0.000000 
#    z 0.000000 0.000000 1.583970 
# 
# From -- ./inp_files/63848.got.cif
#   From: 2010.05.17/outbox.cif.g08.bks.cpg/sg71_32_cif.got.tgz:63848.got - 2010.06.03 16:22:01.
