data_PCOD9524079
_publ_section_title
;
Structure prediction by ZEFSAII (Michael W. Deem and Ramdas Pophale) SiO2 
 PCOD9524079
Probable space group: I M M M
;
_chemical_formula_sum "Si O2"
_cell_formula_units_Z 80
_cell_length_a 23.401936
_cell_length_b 15.645348
_cell_length_c 11.784090
_cell_angle_alpha 90.000000
_cell_angle_beta 90.000000
_cell_angle_gamma 90.000000
_cell_volume 4314.525754
_symmetry_space_group_name_H-M "I M M M"
_symmetry_group_IT_number 71
_symmetry_cell_setting 'orthorhombic'
loop_
_space_group_symop_operation_xyz
x,y,z
-x,-y,z
x,-y,-z
-x,y,-z
-x,-y,-z
x,y,-z
-x,y,z
x,-y,z
1/2+x,1/2+y,1/2+z
1/2-x,1/2-y,1/2+z
1/2+x,1/2-y,1/2-z
1/2-x,1/2+y,1/2-z
1/2-x,1/2-y,1/2-z
1/2+x,1/2+y,1/2-z
1/2-x,1/2+y,1/2+z
1/2+x,1/2-y,1/2+z
loop_
_atom_site_type_symbol
_atom_site_label
_atom_site_fract_x
_atom_site_fract_y
_atom_site_fract_z
Si Si1 0.134539 0.844937 0.751711
Si Si2 0.852464 0.898645 0.500000
Si Si3 0.752406 0.602999 0.633068
Si Si4 0.932445 0.500000 0.862499
Si Si5 0.283154 0.102088 0.500000
Si Si6 0.432879 0.500000 0.364861
Si Si7 0.145610 0.653684 0.215015
O O1 0.126996 0.859105 0.617646
O O2 0.200243 0.860668 0.791998
O O3 0.120138 0.747990 0.782041
O O4 0.097537 0.916354 0.814898
O O5 0.784216 0.887577 0.500000
O O6 0.864962 0.000000 0.500000
O O7 0.743487 0.622648 0.500000
O O8 0.752043 0.500000 0.647312
O O9 0.813400 0.636970 0.676994
O O10 0.901849 0.581956 0.807115
O O11 0.000000 0.500000 0.842791
O O12 0.923707 0.500000 0.000000
O O13 0.311334 0.143315 0.390444
O O14 0.294353 0.000000 0.500000
O O15 0.500000 0.500000 0.338060
O O16 0.425502 0.500000 0.500000
#
# Coordination Sequence:
#
# PCOD9524079 Si02
#       7
#    16   8  16   8   8   8  16
#     4  12  25  39  65  96 127 166 207 258 312 372
#     4  11  22  40  62  93 132 167 207 252 315 378
#     4  11  22  37  60  94 132 167 202 247 310 378
#     4  11  24  43  67  93 122 162 213 265 313 365
#     4  11  20  36  60  93 132 171 203 244 321 380
#     4  11  26  48  67  87 120 161 208 261 317 369
#     4  12  23  38  62  93 134 163 205 254 309 378
#
# _framework density 18.542016
#
# number of rings (size 3 to 8) (size 9 to 14) (size 15 to 20)
#    0.000    0.600    7.000    1.200    4.200    0.800 
#    0.000    3.000    0.000    1.200    0.000    0.000 
#    0.000    0.000    0.000    0.000    0.000    0.000 
#
# Total GULP energy -223665.475619 kJ/mol
# GULP energy per Si atom -5591.636890 kJ/mol
# Density = 1.849981 g / cm^3
# Si number density = 18.542016 Si / 1000 Ang^3
#
#
#
# Elastic Constant Matrix: (Units=GPa)
#
#
# Indices 1 2 3 4 5 6 
#
# 1 99.6703 59.7071 33.2286 0.0000 0.0000 0.0000
# 2 59.7071 165.5367 44.3466 0.0000 0.0000 0.0000
# 3 33.2286 44.3466 79.6949 0.0000 0.0000 0.0000
# 4 0.0000 0.0000 0.0000 13.2984 0.0000 0.0000
# 5 0.0000 0.0000 0.0000 0.0000 24.6596 0.0000
# 6 0.0000 0.0000 0.0000 0.0000 0.0000 -11.6383
#
#
#
# Elastic Compliance Matrix: (Units=1/GPa)
#
#
# Indices 1 2 3 4 5 6 
#
# 1 0.013558 -0.003967 -0.003445 0.000000 0.000000 0.000000
# 2 -0.003967 0.008260 -0.002942 0.000000 0.000000 0.000000
# 3 -0.003445 -0.002942 0.015622 0.000000 0.000000 0.000000
# 4 0.000000 0.000000 0.000000 0.075197 0.000000 0.000000
# 5 0.000000 0.000000 0.000000 0.000000 0.040552 0.000000
# 6 0.000000 0.000000 0.000000 0.000000 0.000000 -0.085923
#
#
# Mechanical properties :
#
#
# Convention : Reuss Voigt Hill
#
# Bulk Modulus (GPa) = 59.77255 68.82961 64.30108
# Shear Modulus (GPa) = 53.44591 19.10525 36.27558
#
# Velocity S-wave (km/s) = 5.37464 3.21343 4.42792
# Velocity P-wave (km/s) = 8.41558 7.13930 7.80358
#
# Compressibility (1/GPa) = 0.01673009
#
# Stress axis : x y z
#
# Youngs Moduli (GPa) = 73.75531 121.06349 64.01364
#
# Poissons Ratio (x) = 0.48030 0.22056
# Poissons Ratio (y) = 0.29261 0.18834
# Poissons Ratio (z) = 0.25412 0.35620
#
# Static dielectric constant tensor:
#      x y z
#    x 1.611000 0.000000 0.000000 
#    y 0.000000 1.635610 0.000000 
#    z 0.000000 0.000000 1.650950 
# 
# From -- ./inp_files/27182.got.cif
#   From: 2010.05.17/outbox.cif.g08.bks.cpg/sg71_14_cif.got.tgz:27182.got - 2010.06.03 16:22:01.
