data_PCOD9524090
_publ_section_title
;
Structure prediction by ZEFSAII (Michael W. Deem and Ramdas Pophale) SiO2 
 PCOD9524090
Probable space group: I M M M
;
_chemical_formula_sum "Si O2"
_cell_formula_units_Z 48
_cell_length_a 9.984894
_cell_length_b 10.334898
_cell_length_c 25.254614
_cell_angle_alpha 90.000000
_cell_angle_beta 90.000000
_cell_angle_gamma 90.000000
_cell_volume 2606.095873
_symmetry_space_group_name_H-M "I M M M"
_symmetry_group_IT_number 71
_symmetry_cell_setting 'orthorhombic'
loop_
_space_group_symop_operation_xyz
x,y,z
-x,-y,z
x,-y,-z
-x,y,-z
-x,-y,-z
x,y,-z
-x,y,z
x,-y,z
1/2+x,1/2+y,1/2+z
1/2-x,1/2-y,1/2+z
1/2+x,1/2-y,1/2-z
1/2-x,1/2+y,1/2-z
1/2-x,1/2-y,1/2-z
1/2+x,1/2+y,1/2-z
1/2-x,1/2+y,1/2+z
1/2+x,1/2-y,1/2+z
loop_
_atom_site_type_symbol
_atom_site_label
_atom_site_fract_x
_atom_site_fract_y
_atom_site_fract_z
Si Si1 0.262423 0.737833 0.372230
Si Si2 0.335397 0.000000 0.687992
Si Si3 0.500000 0.352572 0.562053
Si Si4 0.162602 0.000000 0.795633
Si Si5 0.000000 0.342766 0.563599
O O1 0.285706 0.873655 0.343618
O O2 0.372727 0.721099 0.417180
O O3 0.295386 0.625930 0.329453
O O4 0.125350 0.711383 0.403161
O O5 0.254444 0.000000 0.743262
O O6 0.500000 0.000000 0.693555
O O7 0.500000 0.500000 0.583608
O O8 0.500000 0.361211 0.500000
O O9 0.000000 0.000000 0.785888
O O10 0.000000 0.500000 0.566375
O O11 0.000000 0.310680 0.500000
#
# Coordination Sequence:
#
# PCOD9524090 Si02
#       5
#    16   8   8   8   8
#     4  12  23  44  66 100 135 170 220 275 327 395
#     4  12  28  44  67  96 138 178 221 270 337 398
#     4  11  20  39  70  96 123 168 221 277 324 382
#     4  12  24  44  69  98 128 178 231 276 327 386
#     4  11  24  43  72 104 131 172 223 273 330 390
#
# _framework density 18.418354000000001
#
# number of rings (size 3 to 8) (size 9 to 14) (size 15 to 20)
#    0.000    0.333    6.667    2.000    4.667    2.667 
#    0.000    5.000    0.000    0.000    0.000    0.000 
#    0.000    0.000    0.000    0.000    0.000    0.000 
#
# Total GULP energy -133989.142050 kJ/mol
# GULP energy per Si atom -5582.880919 kJ/mol
# Density = 1.837643 g / cm^3
# Si number density = 18.418354 Si / 1000 Ang^3
#
#
#
# Elastic Constant Matrix: (Units=GPa)
#
#
# Indices 1 2 3 4 5 6 
#
# 1 224.3143 63.5865 101.1224 0.0000 0.0000 0.0000
# 2 63.5865 160.7284 84.0487 0.0000 0.0000 0.0000
# 3 101.1224 84.0487 154.8744 0.0000 0.0000 0.0000
# 4 0.0000 0.0000 0.0000 22.1970 0.0000 0.0000
# 5 0.0000 0.0000 0.0000 0.0000 37.0453 0.0000
# 6 0.0000 0.0000 0.0000 0.0000 0.0000 27.3852
#
#
#
# Elastic Compliance Matrix: (Units=1/GPa)
#
#
# Indices 1 2 3 4 5 6 
#
# 1 0.006344 -0.000480 -0.003882 0.000000 0.000000 0.000000
# 2 -0.000480 0.008723 -0.004421 0.000000 0.000000 0.000000
# 3 -0.003882 -0.004421 0.011390 0.000000 0.000000 0.000000
# 4 0.000000 0.000000 0.000000 0.045051 0.000000 0.000000
# 5 0.000000 0.000000 0.000000 0.000000 0.026994 0.000000
# 6 0.000000 0.000000 0.000000 0.000000 0.000000 0.036516
#
#
# Mechanical properties :
#
#
# Convention : Reuss Voigt Hill
#
# Bulk Modulus (GPa) = 112.44821 115.27025 113.85923
# Shear Modulus (GPa) = 32.14448 36.73613 34.44031
#
# Velocity S-wave (km/s) = 4.18214 4.47087 4.32891
# Velocity P-wave (km/s) = 9.19267 9.45367 9.32408
#
# Compressibility (1/GPa) = 0.00889298
#
# Stress axis : x y z
#
# Youngs Moduli (GPa) = 157.62957 114.63696 87.79332
#
# Poissons Ratio (x) = 0.05502 0.34079
# Poissons Ratio (y) = 0.07565 0.38810
# Poissons Ratio (z) = 0.61188 0.50677
#
# Static dielectric constant tensor:
#      x y z
#    x 1.748170 0.000000 0.000000 
#    y 0.000000 0.843040 0.000000 
#    z 0.000000 0.000000 1.621240 
# 
# From -- ./inp_files/2260.got.cif
#   From: 2010.05.17/outbox.cif.g08.bks.cpg/sg71_2_cif.got.tgz:2260.got - 2010.06.03 16:22:01.
