data_PCOD9524064
_publ_section_title
;
Structure prediction by ZEFSAII (Michael W. Deem and Ramdas Pophale) SiO2 
 PCOD9524064
Probable space group: I M M M
;
_chemical_formula_sum "Si O2"
_cell_formula_units_Z 72
_cell_length_a 27.238753
_cell_length_b 10.200550
_cell_length_c 14.965920
_cell_angle_alpha 90.000000
_cell_angle_beta 90.000000
_cell_angle_gamma 90.000000
_cell_volume 4158.284792
_symmetry_space_group_name_H-M "I M M M"
_symmetry_group_IT_number 71
_symmetry_cell_setting 'orthorhombic'
loop_
_space_group_symop_operation_xyz
x,y,z
-x,-y,z
x,-y,-z
-x,y,-z
-x,-y,-z
x,y,-z
-x,y,z
x,-y,z
1/2+x,1/2+y,1/2+z
1/2-x,1/2-y,1/2+z
1/2+x,1/2-y,1/2-z
1/2-x,1/2+y,1/2-z
1/2-x,1/2-y,1/2-z
1/2+x,1/2+y,1/2-z
1/2-x,1/2+y,1/2+z
1/2+x,1/2-y,1/2+z
loop_
_atom_site_type_symbol
_atom_site_label
_atom_site_fract_x
_atom_site_fract_y
_atom_site_fract_z
Si Si1 0.056369 0.840785 0.500000
Si Si2 0.442473 0.000000 0.392265
Si Si3 0.635222 0.344151 0.852512
Si Si4 0.781302 0.152694 0.500000
Si Si5 0.688246 0.340595 0.500000
Si Si6 0.057926 0.000000 0.103443
Si Si7 0.117281 0.242995 0.161316
O O1 0.088255 0.803665 0.412834
O O2 0.000000 0.795270 0.500000
O O3 0.055845 0.000000 0.500000
O O4 0.411949 0.874626 0.359983
O O5 0.500000 0.000000 0.363766
O O6 0.442703 0.000000 0.500000
O O7 0.630509 0.500000 0.832455
O O8 0.683022 0.330674 0.914668
O O9 0.638178 0.264747 0.761051
O O10 0.738993 0.260435 0.500000
O O11 0.763395 0.000000 0.500000
O O12 0.693425 0.500000 0.500000
O O13 0.657969 0.292508 0.412927
O O14 0.077897 0.873026 0.151835
O O15 0.000000 0.000000 0.101802
O O16 0.075506 0.000000 0.000000
#
# Coordination Sequence:
#
# PCOD9524064 Si02
#       7
#     8   8  16   8   8   8  16
#     4   8  15  28  52  85 117 148 187 236 281 332
#     4  11  24  40  56  82 124 164 198 231 284 357
#     4   9  18  37  59  86 119 150 193 240 288 347
#     4   9  22  41  64  86 115 158 191 240 304 355
#     4  12  23  39  60  89 117 143 201 254 299 352
#     4  11  20  34  56  84 116 152 188 225 290 349
#     4  12  21  38  59  85 118 155 191 246 290 342
#
# _framework density 17.314830000000001
#
# number of rings (size 3 to 8) (size 9 to 14) (size 15 to 20)
#    0.000    1.667    4.444    2.000    1.556    4.444 
#    2.000    0.000    0.000    0.000    0.000    2.333 
#    0.000    0.000    0.000    0.000    0.000    0.000 
#
# Total GULP energy -200816.812213 kJ/mol
# GULP energy per Si atom -5578.244784 kJ/mol
# Density = 1.727542 g / cm^3
# Si number density = 17.314830 Si / 1000 Ang^3
#
#
#
# Elastic Constant Matrix: (Units=GPa)
#
#
# Indices 1 2 3 4 5 6 
#
# 1 122.8656 67.5114 55.0190 0.0000 0.0000 0.0000
# 2 67.5114 133.7451 46.8049 0.0000 0.0000 0.0000
# 3 55.0190 46.8049 135.3603 0.0000 0.0000 0.0000
# 4 0.0000 0.0000 0.0000 16.6902 0.0000 0.0000
# 5 0.0000 0.0000 0.0000 0.0000 3.4165 0.0000
# 6 0.0000 0.0000 0.0000 0.0000 0.0000 -206.8589
#
#
#
# Elastic Compliance Matrix: (Units=1/GPa)
#
#
# Indices 1 2 3 4 5 6 
#
# 1 0.012422 -0.005123 -0.003277 0.000000 0.000000 0.000000
# 2 -0.005123 0.010619 -0.001590 0.000000 0.000000 0.000000
# 3 -0.003277 -0.001590 0.009269 0.000000 0.000000 0.000000
# 4 0.000000 0.000000 0.000000 0.059916 0.000000 0.000000
# 5 0.000000 0.000000 0.000000 0.000000 0.292696 0.000000
# 6 0.000000 0.000000 0.000000 0.000000 0.000000 -0.004834
#
#
# Mechanical properties :
#
#
# Convention : Reuss Voigt Hill
#
# Bulk Modulus (GPa) = 81.10279 81.18239 81.14259
# Shear Modulus (GPa) = 12.37077 -22.50806 -5.06865
#
# Velocity S-wave (km/s) = 2.67584 -3.60937 -1.71280
# Velocity P-wave (km/s) = 7.51589 5.44222 6.56149
#
# Compressibility (1/GPa) = 0.01233003
#
# Stress axis : x y z
#
# Youngs Moduli (GPa) = 80.50443 94.16865 107.88082
#
# Poissons Ratio (x) = 0.48245 0.35357
# Poissons Ratio (y) = 0.41244 0.17148
# Poissons Ratio (z) = 0.26385 0.14968
#
# Static dielectric constant tensor:
#      x y z
#    x 1.579460 0.000000 0.000000 
#    y 0.000000 1.557640 0.000000 
#    z 0.000000 0.000000 1.621950 
# 
# From -- ./inp_files/14402.got.cif
#   From: 2010.05.17/outbox.cif.g08.bks.cpg/sg71_8_cif.got.tgz:14402.got - 2010.06.03 16:22:01.
