data_PCOD9524709
_publ_section_title
;
Structure prediction by ZEFSAII (Michael W. Deem and Ramdas Pophale) SiO2 
 PCOD9524709
Probable space group: I M M M
;
_chemical_formula_sum "Si O2"
_cell_formula_units_Z 44
_cell_length_a 30.000000
_cell_length_b 18.000000
_cell_length_c 9.000000
_cell_angle_alpha 90.000000
_cell_angle_beta 90.000000
_cell_angle_gamma 90.000000
_cell_volume 4860.000000
_symmetry_space_group_name_H-M "I M M M"
_symmetry_group_IT_number 71
_symmetry_cell_setting 'orthorhombic'
loop_
_space_group_symop_operation_xyz
x,y,z
-x,-y,z
x,-y,-z
-x,y,-z
-x,-y,-z
x,y,-z
-x,y,z
x,-y,z
1/2+x,1/2+y,1/2+z
1/2-x,1/2-y,1/2+z
1/2+x,1/2-y,1/2-z
1/2-x,1/2+y,1/2-z
1/2-x,1/2-y,1/2-z
1/2+x,1/2+y,1/2-z
1/2-x,1/2+y,1/2+z
1/2+x,1/2-y,1/2+z
loop_
_atom_site_type_symbol
_atom_site_label
_atom_site_fract_x
_atom_site_fract_y
_atom_site_fract_z
Si Si1 0.616060 0.588848 0.321947
Si Si2 0.804568 0.410734 0.678212
Si Si3 0.105453 0.648382 0.819788
Si Si4 0.210352 0.909836 0.672060
Si Si5 0.949164 0.500000 0.179844
Si Si6 0.053331 0.211125 0.679332
O O1 0.615884 0.600273 0.500000
O O2 0.610239 0.500000 0.294703
O O3 0.664532 0.611590 0.255264
O O4 0.577668 0.637930 0.245176
O O5 0.804843 0.400655 0.500000
O O6 0.810561 0.500000 0.707463
O O7 0.845126 0.366053 0.754101
O O8 0.756310 0.388464 0.745493
O O9 0.077194 0.574453 0.778455
O O10 0.079730 0.719021 0.751131
O O11 0.107348 0.654520 0.000000
O O12 0.210092 0.884881 0.500000
O O13 0.210376 0.000000 0.671594
O O14 0.000000 0.500000 0.235547
O O15 0.950871 0.500000 0.000000
O O16 0.057834 0.212605 0.500000
O O17 0.000000 0.213371 0.713861
#
# Coordination Sequence:
#
# PCOD9524709 Si02
#       6
#    16  16  16  16   8  16
#     4  10  21  39  64  92 119 149 190 238 291 352
#     4  10  19  32  53  83 121 160 199 241 287 340
#     4  11  21  36  58  84 117 155 200 247 294 345
#     4   9  17  31  55  86 119 154 193 235 285 344
#     4   9  18  32  53  81 111 147 195 247 292 339
#     4  11  25  43  61  84 117 155 194 240 297 353
#
# _framework density 9.0534979999999994
#
# number of rings (size 3 to 8) (size 9 to 14) (size 15 to 20)
#    0.000    1.909    0.909    3.273    0.000    6.545 
#    0.000    2.727    0.000    2.182    0.000    0.000 
#    0.000    0.000    0.000    0.000    0.000    0.000 
#
# Total GULP energy -245709.295371 kJ/mol
# GULP energy per Si atom -5584.302168 kJ/mol
# Density = 0.903289 g / cm^3
# Si number density = 9.053498 Si / 1000 Ang^3
#
#
#
# Elastic Constant Matrix: (Units=GPa)
#
#
# Indices 1 2 3 4 5 6 
#
# 1 183.0534 68.4929 82.1258 0.0000 0.0000 0.0000
# 2 68.4929 86.2131 52.5583 0.0000 0.0000 0.0000
# 3 82.1258 52.5583 127.8192 0.0000 0.0000 0.0000
# 4 0.0000 0.0000 0.0000 29.1500 0.0000 0.0000
# 5 0.0000 0.0000 0.0000 0.0000 37.9249 0.0000
# 6 0.0000 0.0000 0.0000 0.0000 0.0000 33.2155
#
#
#
# Elastic Compliance Matrix: (Units=1/GPa)
#
#
# Indices 1 2 3 4 5 6 
#
# 1 0.008959 -0.004815 -0.003776 0.000000 0.000000 0.000000
# 2 -0.004815 0.018068 -0.004335 0.000000 0.000000 0.000000
# 3 -0.003776 -0.004335 0.012032 0.000000 0.000000 0.000000
# 4 0.000000 0.000000 0.000000 0.034305 0.000000 0.000000
# 5 0.000000 0.000000 0.000000 0.000000 0.026368 0.000000
# 6 0.000000 0.000000 0.000000 0.000000 0.000000 0.030106
#
#
# Mechanical properties :
#
#
# Convention : Reuss Voigt Hill
#
# Bulk Modulus (GPa) = 75.72735 89.27109 82.49922
# Shear Modulus (GPa) = 31.23161 32.98531 32.10846
#
# Velocity S-wave (km/s) = 4.15762 4.27275 4.21558
# Velocity P-wave (km/s) = 8.05982 8.58784 8.32801
#
# Compressibility (1/GPa) = 0.01320527
#
# Stress axis : x y z
#
# Youngs Moduli (GPa) = 111.62241 55.34715 83.10857
#
# Poissons Ratio (x) = 0.26652 0.31383
# Poissons Ratio (y) = 0.53750 0.36031
# Poissons Ratio (z) = 0.42150 0.23995
#
# Static dielectric constant tensor:
#      x y z
#    x 1.606580 0.000000 0.000000 
#    y 0.000000 1.619140 0.000000 
#    z 0.000000 0.000000 1.607940 
# 
# From -- ./inp_files/16641.got.cif
#   From: 2010.05.17/outbox.ucp.g08.bks.cvg/sg71_9_cif.got.tgz:16641.got - 2010.06.11 16:29:00.
