data_PCOD9524819
_publ_section_title
;
Structure prediction by ZEFSAII (Michael W. Deem and Ramdas Pophale) SiO2 
 PCOD9524819
Probable space group: I M M M
;
_chemical_formula_sum "Si O2"
_cell_formula_units_Z 36
_cell_length_a 9.000000
_cell_length_b 15.000000
_cell_length_c 27.000000
_cell_angle_alpha 90.000000
_cell_angle_beta 90.000000
_cell_angle_gamma 90.000000
_cell_volume 3645.000000
_symmetry_space_group_name_H-M "I M M M"
_symmetry_group_IT_number 71
_symmetry_cell_setting 'orthorhombic'
loop_
_space_group_symop_operation_xyz
x,y,z
-x,-y,z
x,-y,-z
-x,y,-z
-x,-y,-z
x,y,-z
-x,y,z
x,-y,z
1/2+x,1/2+y,1/2+z
1/2-x,1/2-y,1/2+z
1/2+x,1/2-y,1/2-z
1/2-x,1/2+y,1/2-z
1/2-x,1/2-y,1/2-z
1/2+x,1/2+y,1/2-z
1/2-x,1/2+y,1/2+z
1/2+x,1/2-y,1/2+z
loop_
_atom_site_type_symbol
_atom_site_label
_atom_site_fract_x
_atom_site_fract_y
_atom_site_fract_z
Si Si1 0.179098 0.328540 0.783457
Si Si2 0.165918 0.650092 0.443101
Si Si3 0.176249 0.500000 0.717600
Si Si4 0.329616 0.500000 0.388788
Si Si5 0.669501 0.605314 0.000000
Si Si6 0.829194 0.164698 0.608295
O O1 0.250000 0.250000 0.750000
O O2 0.214402 0.415142 0.750780
O O3 0.243732 0.342078 0.839368
O O4 0.000000 0.317022 0.786884
O O5 0.195259 0.678157 0.500000
O O6 0.285043 0.582902 0.422574
O O7 0.163385 0.731607 0.405464
O O8 0.000000 0.609602 0.442633
O O9 0.244766 0.500000 0.663225
O O10 0.000000 0.500000 0.710416
O O11 0.500000 0.500000 0.376578
O O12 0.733112 0.627529 0.055127
O O13 0.657858 0.500000 0.000000
O O14 0.500000 0.645299 0.000000
O O15 0.000000 0.130450 0.613924
#
# Coordination Sequence:
#
# PCOD9524819 Si02
#       6
#    16  16   8   8   8  16
#     4  11  24  42  63  89 120 157 201 248 300 356
#     4  10  20  37  59  83 116 159 199 229 275 348
#     4  10  24  45  63  81 115 161 201 237 292 365
#     4  12  25  37  56  87 117 145 192 251 299 339
#     4   9  18  34  59  92 123 152 190 237 287 341
#     4  10  20  37  62  91 121 155 196 240 287 345
#
# _framework density 9.8765429999999999
#
# number of rings (size 3 to 8) (size 9 to 14) (size 15 to 20)
#    0.000    1.667    1.111    3.333    1.556    9.778 
#    0.000    0.556    0.000    0.667    0.000    0.000 
#    0.000    0.000    0.000    0.000    0.000    0.000 
#
# Total GULP energy -200592.235107 kJ/mol
# GULP energy per Si atom -5572.006531 kJ/mol
# Density = 0.985406 g / cm^3
# Si number density = 9.876543 Si / 1000 Ang^3
#
#
#
# Elastic Constant Matrix: (Units=GPa)
#
#
# Indices 1 2 3 4 5 6 
#
# 1 19.3018 30.2541 37.8860 0.0000 0.0000 0.0000
# 2 30.2541 77.0046 9.2927 0.0000 0.0000 0.0000
# 3 37.8860 9.2927 132.5056 0.0000 0.0000 0.0000
# 4 0.0000 0.0000 0.0000 13.8190 0.0000 0.0000
# 5 0.0000 0.0000 0.0000 0.0000 38.3130 0.0000
# 6 0.0000 0.0000 0.0000 0.0000 0.0000 2.9251
#
#
#
# Elastic Compliance Matrix: (Units=1/GPa)
#
#
# Indices 1 2 3 4 5 6 
#
# 1 -0.664299 0.240106 0.173098 0.000000 0.000000 0.000000
# 2 0.240106 -0.073687 -0.063483 0.000000 0.000000 0.000000
# 3 0.173098 -0.063483 -0.037493 0.000000 0.000000 0.000000
# 4 0.000000 0.000000 0.000000 0.072364 0.000000 0.000000
# 5 0.000000 0.000000 0.000000 0.000000 0.026101 0.000000
# 6 0.000000 0.000000 0.000000 0.000000 0.000000 0.341874
#
#
# Mechanical properties :
#
#
# Convention : Reuss Voigt Hill
#
# Bulk Modulus (GPa) = -13.15109 42.63084 14.73988
# Shear Modulus (GPa) = -4.71730 21.10334 8.19302
#
# Velocity S-wave (km/s) = -1.54704 3.27212 2.03880
# Velocity P-wave (km/s) = 3.14059 5.99203 3.60840
#
# Compressibility (1/GPa) = -0.07603935
#
# Stress axis : x y z
#
# Youngs Moduli (GPa) = -1.50535 -13.57084 -26.67160
#
# Poissons Ratio (x) = 3.25844 4.61679
# Poissons Ratio (y) = 0.36144 -1.69320
# Poissons Ratio (z) = 0.26057 -0.86152
#
# Static dielectric constant tensor:
#      x y z
#    x 1.695490 0.000000 0.000000 
#    y 0.000000 1.777350 0.000000 
#    z 0.000000 0.000000 1.660650 
# 
# From -- ./inp_files/62879.got.cif
#   From: 2010.05.17/outbox.ucp.g08.bks.cvg/sg71_32_cif.got.tgz:62879.got - 2010.06.11 16:29:00.
