data_PCOD9524851
_publ_section_title
;
Structure prediction by ZEFSAII (Michael W. Deem and Ramdas Pophale) SiO2 
 PCOD9524851
Probable space group: I M M M
;
_chemical_formula_sum "Si O2"
_cell_formula_units_Z 52
_cell_length_a 27.000000
_cell_length_b 9.000000
_cell_length_c 24.000000
_cell_angle_alpha 90.000000
_cell_angle_beta 90.000000
_cell_angle_gamma 90.000000
_cell_volume 5832.000000
_symmetry_space_group_name_H-M "I M M M"
_symmetry_group_IT_number 71
_symmetry_cell_setting 'orthorhombic'
loop_
_space_group_symop_operation_xyz
x,y,z
-x,-y,z
x,-y,-z
-x,y,-z
-x,-y,-z
x,y,-z
-x,y,z
x,-y,z
1/2+x,1/2+y,1/2+z
1/2-x,1/2-y,1/2+z
1/2+x,1/2-y,1/2-z
1/2-x,1/2+y,1/2-z
1/2-x,1/2-y,1/2-z
1/2+x,1/2+y,1/2-z
1/2-x,1/2+y,1/2+z
1/2+x,1/2-y,1/2+z
loop_
_atom_site_type_symbol
_atom_site_label
_atom_site_fract_x
_atom_site_fract_y
_atom_site_fract_z
Si Si1 0.814347 0.678018 0.137727
Si Si2 0.388050 0.819371 0.937206
Si Si3 0.101242 0.173234 0.932976
Si Si4 0.290651 0.821187 0.871096
Si Si5 0.055890 0.318492 0.674081
Si Si6 0.849036 0.319846 0.259821
Si Si7 0.000000 0.670298 0.067806
O O1 0.812749 0.500000 0.137932
O O2 0.855002 0.736540 0.095088
O O3 0.761339 0.742997 0.121410
O O4 0.830355 0.731045 0.199808
O O5 0.332833 0.780795 0.916031
O O6 0.424884 0.772726 0.887459
O O7 0.390215 0.000000 0.938284
O O8 0.398311 0.766675 0.000000
O O9 0.049198 0.244053 0.914761
O O10 0.103817 0.000000 0.918075
O O11 0.104073 0.184142 0.000000
O O12 0.312229 0.780209 0.810207
O O13 0.284888 0.000000 0.872827
O O14 0.056178 0.500000 0.674209
O O15 0.096476 0.270699 0.719751
O O16 0.000000 0.269026 0.684552
O O17 0.850328 0.500000 0.257985
O O18 0.000000 0.500000 0.087121
O O19 0.000000 0.668269 0.000000
#
# Coordination Sequence:
#
# PCOD9524851 Si02
#       7
#    16  16  16  16  16  16   8
#     4  11  21  32  48  73 100 125 165 216 257 295
#     4   8  14  24  40  65  94 124 160 199 239 287
#     4  10  21  37  55  74  99 132 165 197 243 305
#     4   9  17  31  49  66  94 135 171 204 248 301
#     4   8  13  23  40  62  93 130 160 191 237 293
#     4   8  16  30  45  65  94 129 168 208 251 301
#     4   9  17  33  57  79  99 125 157 195 238 281
#
# _framework density 8.9163239999999995
#
# number of rings (size 3 to 8) (size 9 to 14) (size 15 to 20)
#    0.000    3.000    0.000    3.462    0.000    2.769 
#    1.385    3.846    0.000    0.000    0.000    0.000 
#    0.000    6.000    0.000    5.538    0.000    6.154 
#
# Total GULP energy -289760.266124 kJ/mol
# GULP energy per Si atom -5572.312810 kJ/mol
# Density = 0.889603 g / cm^3
# Si number density = 8.916324 Si / 1000 Ang^3
#
#
#
# Elastic Constant Matrix: (Units=GPa)
#
#
# Indices 1 2 3 4 5 6 
#
# 1 104.3451 17.0046 -21.1078 0.0000 0.0000 0.0000
# 2 17.0046 24.3379 -0.7448 0.0000 0.0000 0.0000
# 3 -21.1078 -0.7448 -9.2958 0.0000 0.0000 0.0000
# 4 0.0000 0.0000 0.0000 11.3936 0.0000 0.0000
# 5 0.0000 0.0000 0.0000 0.0000 7.4315 0.0000
# 6 0.0000 0.0000 0.0000 0.0000 0.0000 6.2695
#
#
#
# Elastic Compliance Matrix: (Units=1/GPa)
#
#
# Indices 1 2 3 4 5 6 
#
# 1 0.007249 -0.005555 -0.016015 0.000000 0.000000 0.000000
# 2 -0.005555 0.045244 0.008988 0.000000 0.000000 0.000000
# 3 -0.016015 0.008988 -0.071930 0.000000 0.000000 0.000000
# 4 0.000000 0.000000 0.000000 0.087768 0.000000 0.000000
# 5 0.000000 0.000000 0.000000 0.000000 0.134562 0.000000
# 6 0.000000 0.000000 0.000000 0.000000 0.000000 0.159501
#
#
# Mechanical properties :
#
#
# Convention : Reuss Voigt Hill
#
# Bulk Modulus (GPa) = -22.42155 12.18790 -5.11683
# Shear Modulus (GPa) = 13.41588 13.30129 13.35858
#
# Velocity S-wave (km/s) = 2.74582 2.73407 2.73995
# Velocity P-wave (km/s) = 1.59621 4.10077 2.67099
#
# Compressibility (1/GPa) = -0.04459995
#
# Stress axis : x y z
#
# Youngs Moduli (GPa) = 137.94773 22.10214 -13.90244
#
# Poissons Ratio (x) = 0.12278 -0.22265
# Poissons Ratio (y) = 0.76630 0.12496
# Poissons Ratio (z) = 2.20928 -0.19866
#
# Static dielectric constant tensor:
#      x y z
#    x 1.606670 0.000000 0.000000 
#    y 0.000000 1.590290 0.000000 
#    z 0.000000 0.000000 1.611450 
# 
# From -- ./inp_files/61955.got.cif
#   From: 2010.05.17/outbox.ucp.g08.bks.cvg/sg71_31_cif.got.tgz:61955.got - 2010.06.11 16:29:00.
