data_PCOD9524290
_publ_section_title
;
Structure prediction by ZEFSAII (Michael W. Deem and Ramdas Pophale) SiO2 
 PCOD9524290
Probable space group: I M M M
;
_chemical_formula_sum "Si O2"
_cell_formula_units_Z 72
_cell_length_a 26.584893
_cell_length_b 8.447538
_cell_length_c 15.609595
_cell_angle_alpha 90.000000
_cell_angle_beta 90.000000
_cell_angle_gamma 90.000000
_cell_volume 3505.554359
_symmetry_space_group_name_H-M "I M M M"
_symmetry_group_IT_number 71
_symmetry_cell_setting 'orthorhombic'
loop_
_space_group_symop_operation_xyz
x,y,z
-x,-y,z
x,-y,-z
-x,y,-z
-x,-y,-z
x,y,-z
-x,y,z
x,-y,z
1/2+x,1/2+y,1/2+z
1/2-x,1/2-y,1/2+z
1/2+x,1/2-y,1/2-z
1/2-x,1/2+y,1/2-z
1/2-x,1/2-y,1/2-z
1/2+x,1/2+y,1/2-z
1/2-x,1/2+y,1/2+z
1/2+x,1/2-y,1/2+z
loop_
_atom_site_type_symbol
_atom_site_label
_atom_site_fract_x
_atom_site_fract_y
_atom_site_fract_z
Si Si1 0.000000 0.810519 0.601578
Si Si2 0.349744 0.679440 0.665785
Si Si3 0.827706 0.306820 0.500000
Si Si4 0.055902 0.322651 0.897635
Si Si5 0.392181 0.188432 0.161516
Si Si6 0.288313 0.306144 0.500000
O O1 0.948798 0.755037 0.649422
O O2 0.000000 0.756135 0.500000
O O3 0.000000 0.000000 0.600329
O O4 0.333456 0.500000 0.682916
O O5 0.405722 0.688747 0.627312
O O6 0.359679 0.768148 0.754551
O O7 0.315360 0.746516 0.588417
O O8 0.827087 0.500000 0.500000
O O9 0.858784 0.253530 0.417863
O O10 0.769697 0.257987 0.500000
O O11 0.072578 0.500000 0.869356
O O12 0.000000 0.296996 0.863662
O O13 0.053491 0.327775 0.000000
O O14 0.397045 0.000000 0.157144
O O15 0.292096 0.500000 0.500000
#
# Coordination Sequence:
#
# PCOD9524290 Si02
#       6
#     8  16   8  16  16   8
#     4  11  23  41  67  96 129 162 197 251 314 373
#     4  11  22  37  58  88 125 163 203 252 309 366
#     4   9  20  41  66  88 115 158 211 259 309 370
#     4   9  18  33  53  77 110 153 199 248 295 351
#     4  11  23  40  64  93 124 162 208 254 304 367
#     4   9  20  40  63  87 121 165 208 256 311 366
#
# _framework density 20.538833
#
# number of rings (size 3 to 8) (size 9 to 14) (size 15 to 20)
#    0.000    1.889    2.222    2.333    1.556    1.778 
#    0.000    1.111    0.000    9.333    0.000    0.000 
#    0.000    0.000    0.000    0.000    0.000    0.000 
#
# Total GULP energy -200701.134728 kJ/mol
# GULP energy per Si atom -5575.031520 kJ/mol
# Density = 2.049209 g / cm^3
# Si number density = 20.538833 Si / 1000 Ang^3
#
#
#
# Elastic Constant Matrix: (Units=GPa)
#
#
# Indices 1 2 3 4 5 6 
#
# 1 134.5428 22.1064 77.3625 0.0000 0.0000 0.0000
# 2 22.1064 34.6123 18.6627 0.0000 0.0000 0.0000
# 3 77.3625 18.6627 147.8010 0.0000 0.0000 0.0000
# 4 0.0000 0.0000 0.0000 14.3004 0.0000 0.0000
# 5 0.0000 0.0000 0.0000 0.0000 -14.5270 0.0000
# 6 0.0000 0.0000 0.0000 0.0000 0.0000 -3.3075
#
#
#
# Elastic Compliance Matrix: (Units=1/GPa)
#
#
# Indices 1 2 3 4 5 6 
#
# 1 0.011194 -0.004282 -0.005319 0.000000 0.000000 0.000000
# 2 -0.004282 0.032640 -0.001880 0.000000 0.000000 0.000000
# 3 -0.005319 -0.001880 0.009787 0.000000 0.000000 0.000000
# 4 0.000000 0.000000 0.000000 0.069928 0.000000 0.000000
# 5 0.000000 0.000000 0.000000 0.000000 -0.068837 0.000000
# 6 0.000000 0.000000 0.000000 0.000000 0.000000 -0.302342
#
#
# Mechanical properties :
#
#
# Convention : Reuss Voigt Hill
#
# Bulk Modulus (GPa) = 32.61577 61.46882 47.04230
# Shear Modulus (GPa) = -23.31574 12.54813 -5.38380
#
# Velocity S-wave (km/s) = -3.37293 2.47442 -1.62079
# Velocity P-wave (km/s) = 0.86350 6.17711 4.41035
#
# Compressibility (1/GPa) = 0.03066001
#
# Stress axis : x y z
#
# Youngs Moduli (GPa) = 89.33020 30.63723 102.17403
#
# Poissons Ratio (x) = 0.13118 0.54344
# Poissons Ratio (y) = 0.38250 0.19211
# Poissons Ratio (z) = 0.47513 0.05760
#
# Static dielectric constant tensor:
#      x y z
#    x 1.703570 0.000000 0.000000 
#    y 0.000000 1.758750 0.000000 
#    z 0.000000 0.000000 1.839920 
# 
# From -- ./inp_files/39987.got.cif
#   From: 2010.05.17/outbox.cif.g08.bks.cpg/sg71_20_cif.got.tgz:39987.got - 2010.06.03 16:22:01.
