data_PCOD9524535
_publ_section_title
;
Structure prediction by ZEFSAII (Michael W. Deem and Ramdas Pophale) SiO2 
 PCOD9524535
Probable space group: I M M M
;
_chemical_formula_sum "Si O2"
_cell_formula_units_Z 104
_cell_length_a 29.685027
_cell_length_b 25.109439
_cell_length_c 7.344729
_cell_angle_alpha 90.000000
_cell_angle_beta 90.000000
_cell_angle_gamma 90.000000
_cell_volume 5474.572785
_symmetry_space_group_name_H-M "I M M M"
_symmetry_group_IT_number 71
_symmetry_cell_setting 'orthorhombic'
loop_
_space_group_symop_operation_xyz
x,y,z
-x,-y,z
x,-y,-z
-x,y,-z
-x,-y,-z
x,y,-z
-x,y,z
x,-y,z
1/2+x,1/2+y,1/2+z
1/2-x,1/2-y,1/2+z
1/2+x,1/2-y,1/2-z
1/2-x,1/2+y,1/2-z
1/2-x,1/2-y,1/2-z
1/2+x,1/2+y,1/2-z
1/2-x,1/2+y,1/2+z
1/2+x,1/2-y,1/2+z
loop_
_atom_site_type_symbol
_atom_site_label
_atom_site_fract_x
_atom_site_fract_y
_atom_site_fract_z
Si Si1 0.273589 0.561304 0.281870
Si Si2 0.551688 0.356580 0.722046
Si Si3 0.000000 0.561364 0.221695
Si Si4 0.127726 0.938055 0.222034
Si Si5 0.089071 0.373892 0.222629
Si Si6 0.947945 0.736506 0.778773
Si Si7 0.674667 0.939214 0.285020
O O1 0.275222 0.560298 0.500000
O O2 0.271823 0.500000 0.216418
O O3 0.322391 0.582040 0.221353
O O4 0.224894 0.584531 0.235328
O O5 0.551848 0.357117 0.500000
O O6 0.500000 0.367154 0.777288
O O7 0.587471 0.400269 0.783726
O O8 0.564029 0.296360 0.778812
O O9 0.045129 0.592244 0.277326
O O10 0.000000 0.500000 0.280363
O O11 0.000000 0.561333 0.000000
O O12 0.122683 0.000000 0.276306
O O13 0.126924 0.937912 0.000000
O O14 0.082196 0.312911 0.281491
O O15 0.134516 0.402582 0.286098
O O16 0.089438 0.373441 0.000000
O O17 0.000000 0.726513 0.726556
O O18 0.947244 0.736751 0.000000
O O19 0.666760 0.943982 0.500000
O O20 0.673817 0.000000 0.210502
#
# Coordination Sequence:
#
# PCOD9524535 Si02
#       7
#    16  16   8  16  16  16  16
#     4   8  14  25  39  52  69  97 128 151 176 218
#     4   8  13  19  29  47  70  94 118 144 175 215
#     4   9  14  18  26  42  65  91 114 138 176 222
#     4   8  13  21  33  49  68  91 119 148 178 214
#     4   9  14  20  30  45  68  95 117 143 180 219
#     4   8  12  19  29  42  64  95 124 142 167 216
#     4   9  16  24  35  54  76  94 119 157 192 217
#
# _framework density 18.996915000000001
#
# number of rings (size 3 to 8) (size 9 to 14) (size 15 to 20)
#    0.000    3.615    0.769    2.308    0.000    2.154 
#    0.000    1.538    0.000    0.923    0.000    0.538 
#    0.000    3.692    0.000    9.385    0.000   10.462 
#
# Total GULP energy -289676.783153 kJ/mol
# GULP energy per Si atom -5570.707368 kJ/mol
# Density = 1.895368 g / cm^3
# Si number density = 18.996915 Si / 1000 Ang^3
#
#
#
# Elastic Constant Matrix: (Units=GPa)
#
#
# Indices 1 2 3 4 5 6 
#
# 1 191.7246 112.1120 3.9630 0.0000 0.0000 0.0000
# 2 112.1120 123.4560 4.0434 0.0000 0.0000 0.0000
# 3 3.9630 4.0434 69.8708 0.0000 0.0000 0.0000
# 4 0.0000 0.0000 0.0000 -10.7894 0.0000 0.0000
# 5 0.0000 0.0000 0.0000 0.0000 3.6975 0.0000
# 6 0.0000 0.0000 0.0000 0.0000 0.0000 10.4298
#
#
#
# Elastic Compliance Matrix: (Units=1/GPa)
#
#
# Indices 1 2 3 4 5 6 
#
# 1 0.011122 -0.010098 -0.000046 0.000000 0.000000 0.000000
# 2 -0.010098 0.017285 -0.000427 0.000000 0.000000 0.000000
# 3 -0.000046 -0.000427 0.014340 0.000000 0.000000 0.000000
# 4 0.000000 0.000000 0.000000 -0.092683 0.000000 0.000000
# 5 0.000000 0.000000 0.000000 0.000000 0.270455 0.000000
# 6 0.000000 0.000000 0.000000 0.000000 0.000000 0.095879
#
#
# Mechanical properties :
#
#
# Convention : Reuss Voigt Hill
#
# Bulk Modulus (GPa) = 46.29349 69.47646 57.88498
# Shear Modulus (GPa) = 14.50359 18.32976 16.41668
#
# Velocity S-wave (km/s) = 2.76610 3.10962 2.94288
# Velocity P-wave (km/s) = 5.88418 7.03881 6.48724
#
# Compressibility (1/GPa) = 0.02160131
#
# Stress axis : x y z
#
# Youngs Moduli (GPa) = 89.91292 57.85513 69.73739
#
# Poissons Ratio (x) = 0.58424 0.00324
# Poissons Ratio (y) = 0.90798 0.02981
# Poissons Ratio (z) = 0.00417 0.02473
#
# Static dielectric constant tensor:
#      x y z
#    x 1.662890 0.000000 0.000000 
#    y 0.000000 1.637120 0.000000 
#    z 0.000000 0.000000 1.780780 
# 
# From -- ./inp_files/13633.got.cif
#   From: 2010.05.17/outbox.cif.g08.bks.cpg/sg71_7_cif.got.tgz:13633.got - 2010.06.03 16:22:01.
