data_PCOD9524027
_publ_section_title
;
Structure prediction by ZEFSAII (Michael W. Deem and Ramdas Pophale) SiO2 
 PCOD9524027
Probable space group: I M M M
;
_chemical_formula_sum "Si O2"
_cell_formula_units_Z 72
_cell_length_a 7.929528
_cell_length_b 14.928466
_cell_length_c 35.091757
_cell_angle_alpha 90.000000
_cell_angle_beta 90.000000
_cell_angle_gamma 90.000000
_cell_volume 4154.010918
_symmetry_space_group_name_H-M "I M M M"
_symmetry_group_IT_number 71
_symmetry_cell_setting 'orthorhombic'
loop_
_space_group_symop_operation_xyz
x,y,z
-x,-y,z
x,-y,-z
-x,y,-z
-x,-y,-z
x,y,-z
-x,y,z
x,-y,z
1/2+x,1/2+y,1/2+z
1/2-x,1/2-y,1/2+z
1/2+x,1/2-y,1/2-z
1/2-x,1/2+y,1/2-z
1/2-x,1/2-y,1/2-z
1/2+x,1/2+y,1/2-z
1/2-x,1/2+y,1/2+z
1/2+x,1/2-y,1/2+z
loop_
_atom_site_type_symbol
_atom_site_label
_atom_site_fract_x
_atom_site_fract_y
_atom_site_fract_z
Si Si1 0.703203 0.101541 0.688112
Si Si2 0.194140 0.108842 0.000000
Si Si3 0.794613 0.603660 0.274018
Si Si4 0.700079 0.782080 0.845129
Si Si5 0.702771 0.398070 0.417255
O O1 0.500000 0.099698 0.689164
O O2 0.762879 0.125974 0.731104
O O3 0.756394 0.178027 0.659087
O O4 0.760617 0.000000 0.679842
O O5 0.270067 0.132357 0.041160
O O6 0.000000 0.141481 0.000000
O O7 0.189400 0.000000 0.000000
O O8 0.749909 0.500000 0.281672
O O9 0.730219 0.667032 0.307536
O O10 0.000000 0.607956 0.273619
O O11 0.500000 0.791361 0.844077
O O12 0.759331 0.831369 0.883097
O O13 0.500000 0.403417 0.421019
O O14 0.763292 0.500000 0.409081
#
# Coordination Sequence:
#
# PCOD9524027 Si02
#       5
#    16   8  16  16  16
#     4   9  18  33  49  61  79 115 161 200 228 257
#     4   7  12  26  47  67  88 117 150 181 211 246
#     4   8  15  28  44  62  87 119 151 183 221 263
#     4  11  20  28  43  68  96 121 145 181 228 273
#     4   9  17  30  48  69  93 121 152 182 212 254
#
# _framework density 17.332646
#
# number of rings (size 3 to 8) (size 9 to 14) (size 15 to 20)
#    0.000    3.000    0.000    4.667    0.000    1.778 
#    0.000    1.667    0.000    4.667    0.000    0.778 
#    0.000    6.222    0.000    0.000    0.000    0.000 
#
# Total GULP energy -200602.318065 kJ/mol
# GULP energy per Si atom -5572.286613 kJ/mol
# Density = 1.729320 g / cm^3
# Si number density = 17.332646 Si / 1000 Ang^3
#
#
#
# Elastic Constant Matrix: (Units=GPa)
#
#
# Indices 1 2 3 4 5 6 
#
# 1 18.2905 5.5634 11.4108 0.0000 0.0000 0.0000
# 2 5.5634 96.3410 93.9543 0.0000 0.0000 0.0000
# 3 11.4108 93.9543 134.9250 0.0000 0.0000 0.0000
# 4 0.0000 0.0000 0.0000 21.8648 0.0000 0.0000
# 5 0.0000 0.0000 0.0000 0.0000 13.0179 0.0000
# 6 0.0000 0.0000 0.0000 0.0000 0.0000 8.0561
#
#
#
# Elastic Compliance Matrix: (Units=1/GPa)
#
#
# Indices 1 2 3 4 5 6 
#
# 1 0.058337 0.004495 -0.008064 0.000000 0.000000 0.000000
# 2 0.004495 0.032692 -0.023145 0.000000 0.000000 0.000000
# 3 -0.008064 -0.023145 0.024210 0.000000 0.000000 0.000000
# 4 0.000000 0.000000 0.000000 0.045736 0.000000 0.000000
# 5 0.000000 0.000000 0.000000 0.000000 0.076817 0.000000
# 6 0.000000 0.000000 0.000000 0.000000 0.000000 0.124129
#
#
# Mechanical properties :
#
#
# Convention : Reuss Voigt Hill
#
# Bulk Modulus (GPa) = 16.17810 52.37928 34.27869
# Shear Modulus (GPa) = 11.46915 17.82962 14.64939
#
# Velocity S-wave (km/s) = 2.57516 3.21077 2.91037
# Velocity P-wave (km/s) = 4.26569 6.63559 5.57795
#
# Compressibility (1/GPa) = 0.06181195
#
# Stress axis : x y z
#
# Youngs Moduli (GPa) = 17.14183 30.58876 41.30465
#
# Poissons Ratio (x) = -0.13751 0.33308
# Poissons Ratio (y) = -0.07706 0.95599
# Poissons Ratio (z) = 0.13823 0.70797
#
# Static dielectric constant tensor:
#      x y z
#    x 1.625350 0.000000 0.000000 
#    y 0.000000 1.580900 0.000000 
#    z 0.000000 0.000000 1.619970 
# 
# From -- ./inp_files/6479.got.cif
#   From: 2010.05.17/outbox.cif.g08.bks.cpg/sg71_4_cif.got.tgz:6479.got - 2010.06.03 16:22:01.
