data_PCOD9524570
_publ_section_title
;
Structure prediction by ZEFSAII (Michael W. Deem and Ramdas Pophale) SiO2 
 PCOD9524570
Probable space group: I M M M
;
_chemical_formula_sum "Si O2"
_cell_formula_units_Z 90
_cell_length_a 30.705205
_cell_length_b 7.322732
_cell_length_c 19.516200
_cell_angle_alpha 90.000000
_cell_angle_beta 90.000000
_cell_angle_gamma 90.000000
_cell_volume 4388.139256
_symmetry_space_group_name_H-M "I M M M"
_symmetry_group_IT_number 71
_symmetry_cell_setting 'orthorhombic'
loop_
_space_group_symop_operation_xyz
x,y,z
-x,-y,z
x,-y,-z
-x,y,-z
-x,-y,-z
x,y,-z
-x,y,z
x,-y,z
1/2+x,1/2+y,1/2+z
1/2-x,1/2-y,1/2+z
1/2+x,1/2-y,1/2-z
1/2-x,1/2+y,1/2-z
1/2-x,1/2-y,1/2-z
1/2+x,1/2+y,1/2-z
1/2-x,1/2+y,1/2+z
1/2+x,1/2-y,1/2+z
loop_
_atom_site_type_symbol
_atom_site_label
_atom_site_fract_x
_atom_site_fract_y
_atom_site_fract_z
Si Si1 0.049855 0.721898 0.357767
Si Si2 0.000000 0.500000 0.000000
Si Si3 0.815837 0.279359 0.785825
Si Si4 0.587172 0.222500 0.287220
Si Si5 0.725990 0.213752 0.855022
Si Si6 0.500000 0.797142 0.642211
Si Si7 0.192874 0.276909 0.500000
Si Si8 0.408133 0.777645 0.000000
O O1 0.050157 0.500000 0.359036
O O2 0.077423 0.774202 0.291341
O O3 0.068829 0.783505 0.430267
O O4 0.000000 0.779758 0.349018
O O5 0.000000 0.343477 0.061796
O O6 0.816502 0.500000 0.783290
O O7 0.864115 0.216203 0.805612
O O8 0.776788 0.229606 0.836656
O O9 0.800917 0.212504 0.710264
O O10 0.545738 0.284669 0.332338
O O11 0.588519 0.000000 0.291836
O O12 0.714443 0.288224 0.929460
O O13 0.714585 0.000000 0.857362
O O14 0.500000 0.000000 0.677452
O O15 0.195486 0.500000 0.500000
O O16 0.142249 0.226977 0.500000
O O17 0.410066 0.000000 0.000000
#
# Coordination Sequence:
#
# PCOD9524570 Si02
#       8
#    16   2  16  16  16   8   8   8
#     4   9  14  19  29  49  78 111 136 164 200 242
#     4   8  16  24  36  48  72 110 138 160 200 264
#     4   9  17  28  45  66  87 110 144 183 219 256
#     4   9  14  23  38  55  78 107 138 164 205 254
#     4   9  17  30  45  62  84 115 148 181 216 256
#     4   8  14  24  36  51  73 103 134 161 198 250
#     4   9  16  27  42  57  79 114 150 178 208 254
#     4   9  15  20  29  50  78 105 140 171 197 236
#
# _framework density 20.509831999999999
#
# number of rings (size 3 to 8) (size 9 to 14) (size 15 to 20)
#    0.267    2.844    0.889    1.333    0.000    5.333 
#    0.000    1.333    0.000    0.000    0.000    0.622 
#    0.000    0.000    0.000    4.000    0.000   24.000 
#
# Total GULP energy -250649.560567 kJ/mol
# GULP energy per Si atom -5569.990235 kJ/mol
# Density = 2.046315 g / cm^3
# Si number density = 20.509832 Si / 1000 Ang^3
#
#
#
# Elastic Constant Matrix: (Units=GPa)
#
#
# Indices 1 2 3 4 5 6 
#
# 1 91.5491 -14.8107 5.2669 0.0000 0.0000 0.0000
# 2 -14.8107 75.0955 -5.1399 0.0000 0.0000 0.0000
# 3 5.2669 -5.1399 44.5576 0.0000 0.0000 0.0000
# 4 0.0000 0.0000 0.0000 -10.7485 0.0000 0.0000
# 5 0.0000 0.0000 0.0000 0.0000 37.4261 0.0000
# 6 0.0000 0.0000 0.0000 0.0000 0.0000 4.7737
#
#
#
# Elastic Compliance Matrix: (Units=1/GPa)
#
#
# Indices 1 2 3 4 5 6 
#
# 1 0.011335 0.002161 -0.001091 0.000000 0.000000 0.000000
# 2 0.002161 0.013834 0.001340 0.000000 0.000000 0.000000
# 3 -0.001091 0.001340 0.022726 0.000000 0.000000 0.000000
# 4 0.000000 0.000000 0.000000 -0.093036 0.000000 0.000000
# 5 0.000000 0.000000 0.000000 0.000000 0.026719 0.000000
# 6 0.000000 0.000000 0.000000 0.000000 0.000000 0.209483
#
#
# Mechanical properties :
#
#
# Convention : Reuss Voigt Hill
#
# Bulk Modulus (GPa) = 18.96897 20.20388 19.58643
# Shear Modulus (GPa) = 24.53229 21.34930 22.94079
#
# Velocity S-wave (km/s) = 3.46225 3.22984 3.34807
# Velocity P-wave (km/s) = 5.02511 4.87662 4.95142
#
# Compressibility (1/GPa) = 0.05271767
#
# Stress axis : x y z
#
# Youngs Moduli (GPa) = 88.21887 72.28398 44.00165
#
# Poissons Ratio (x) = -0.15620 0.04799
# Poissons Ratio (y) = -0.19064 -0.05898
# Poissons Ratio (z) = 0.09621 -0.09689
#
# Static dielectric constant tensor:
#      x y z
#    x 1.715790 0.000000 0.000000 
#    y 0.000000 1.880500 0.000000 
#    z 0.000000 0.000000 1.690070 
# 
# From -- ./inp_files/49392.got.cif
#   From: 2010.05.17/outbox.cif.g08.bks.cpg/sg71_25_cif.got.tgz:49392.got - 2010.06.03 16:22:01.
