data_PCOD9524694
_publ_section_title
;
Structure prediction by ZEFSAII (Michael W. Deem and Ramdas Pophale) SiO2 
 PCOD9524694
Probable space group: I M M M
;
_chemical_formula_sum "Si O2"
_cell_formula_units_Z 44
_cell_length_a 21.000000
_cell_length_b 9.000000
_cell_length_c 24.000000
_cell_angle_alpha 90.000000
_cell_angle_beta 90.000000
_cell_angle_gamma 90.000000
_cell_volume 4536.000000
_symmetry_space_group_name_H-M "I M M M"
_symmetry_group_IT_number 71
_symmetry_cell_setting 'orthorhombic'
loop_
_space_group_symop_operation_xyz
x,y,z
-x,-y,z
x,-y,-z
-x,y,-z
-x,-y,-z
x,y,-z
-x,y,z
x,-y,z
1/2+x,1/2+y,1/2+z
1/2-x,1/2-y,1/2+z
1/2+x,1/2-y,1/2-z
1/2-x,1/2+y,1/2-z
1/2-x,1/2-y,1/2-z
1/2+x,1/2+y,1/2-z
1/2-x,1/2+y,1/2+z
1/2+x,1/2-y,1/2+z
loop_
_atom_site_type_symbol
_atom_site_label
_atom_site_fract_x
_atom_site_fract_y
_atom_site_fract_z
Si Si1 0.241116 0.171152 0.583952
Si Si2 0.199176 0.169526 0.712022
Si Si3 0.871760 0.174133 0.065014
Si Si4 0.110445 0.675957 0.440301
Si Si5 0.930602 0.678139 0.317027
Si Si6 0.423964 0.000000 0.565800
O O1 0.228311 0.171989 0.649991
O O2 0.296980 0.285271 0.569000
O O3 0.174575 0.228209 0.559917
O O4 0.256199 0.000000 0.567514
O O5 0.250000 0.250000 0.750000
O O6 0.130647 0.248166 0.710587
O O7 0.190939 0.000000 0.729785
O O8 0.901121 0.334342 0.087850
O O9 0.882741 0.000000 0.085885
O O10 0.891428 0.169178 0.000000
O O11 0.077484 0.698750 0.500000
O O12 0.126512 0.500000 0.436659
O O13 0.073841 0.711021 0.383403
O O14 0.926443 0.500000 0.310669
O O15 0.000000 0.727287 0.296252
O O16 0.500000 0.000000 0.570331
O O17 0.405619 0.000000 0.500000
#
# Coordination Sequence:
#
# PCOD9524694 Si02
#       6
#    16  16  16  16  16   8
#     4  10  19  31  48  72 102 134 170 216 274 324
#     4  10  21  36  56  80 104 133 174 226 279 330
#     4  10  19  30  48  74 102 136 175 213 260 317
#     4   9  17  28  44  71 107 145 184 221 256 303
#     4   9  18  33  53  77 108 146 184 222 268 322
#     4   9  18  32  48  68  98 134 171 213 257 307
#
# _framework density 9.7001760000000008
#
# number of rings (size 3 to 8) (size 9 to 14) (size 15 to 20)
#    0.000    2.455    0.909    1.636    0.000    5.818 
#    0.000    3.636    0.000    1.091    0.000    7.636 
#    0.000    0.000    0.000    0.000    0.000    0.000 
#
# Total GULP energy -244955.781662 kJ/mol
# GULP energy per Si atom -5567.176856 kJ/mol
# Density = 0.967810 g / cm^3
# Si number density = 9.700176 Si / 1000 Ang^3
#
#
#
# Elastic Constant Matrix: (Units=GPa)
#
#
# Indices 1 2 3 4 5 6 
#
# 1 116.1527 60.5111 39.2831 0.0000 0.0000 0.0000
# 2 60.5111 128.1846 24.9361 0.0000 0.0000 0.0000
# 3 39.2831 24.9361 45.0586 0.0000 0.0000 0.0000
# 4 0.0000 0.0000 0.0000 18.3072 0.0000 0.0000
# 5 0.0000 0.0000 0.0000 0.0000 23.7741 0.0000
# 6 0.0000 0.0000 0.0000 0.0000 0.0000 27.4112
#
#
#
# Elastic Compliance Matrix: (Units=1/GPa)
#
#
# Indices 1 2 3 4 5 6 
#
# 1 0.014543 -0.004929 -0.009951 0.000000 0.000000 0.000000
# 2 -0.004929 0.010413 -0.001465 0.000000 0.000000 0.000000
# 3 -0.009951 -0.001465 0.031679 0.000000 0.000000 0.000000
# 4 0.000000 0.000000 0.000000 0.054623 0.000000 0.000000
# 5 0.000000 0.000000 0.000000 0.000000 0.042062 0.000000
# 6 0.000000 0.000000 0.000000 0.000000 0.000000 0.036481
#
#
# Mechanical properties :
#
#
# Convention : Reuss Voigt Hill
#
# Bulk Modulus (GPa) = 41.76287 59.87296 50.81791
# Shear Modulus (GPa) = 21.69433 24.87621 23.28527
#
# Velocity S-wave (km/s) = 3.34764 3.58474 3.46822
# Velocity P-wave (km/s) = 6.04284 6.93272 6.50302
#
# Compressibility (1/GPa) = 0.02394472
#
# Stress axis : x y z
#
# Youngs Moduli (GPa) = 68.76311 96.03143 31.56616
#
# Poissons Ratio (x) = 0.47337 0.31410
# Poissons Ratio (y) = 0.33896 0.04626
# Poissons Ratio (z) = 0.68424 0.14072
#
# Static dielectric constant tensor:
#      x y z
#    x 1.670860 0.000000 0.000000 
#    y 0.000000 1.697260 0.000000 
#    z 0.000000 0.000000 1.718750 
# 
# From -- ./inp_files/57566.got.cif
#   From: 2010.05.17/outbox.ucp.g08.bks.cvg/sg71_29_cif.got.tgz:57566.got - 2010.06.11 16:29:00.
