data_PCOD9524076
_publ_section_title
;
Structure prediction by ZEFSAII (Michael W. Deem and Ramdas Pophale) SiO2 
 PCOD9524076
Probable space group: I M M M
;
_chemical_formula_sum "Si O2"
_cell_formula_units_Z 92
_cell_length_a 21.101484
_cell_length_b 16.923095
_cell_length_c 14.598885
_cell_angle_alpha 90.000000
_cell_angle_beta 90.000000
_cell_angle_gamma 90.000000
_cell_volume 5213.297139
_symmetry_space_group_name_H-M "I M M M"
_symmetry_group_IT_number 71
_symmetry_cell_setting 'orthorhombic'
loop_
_space_group_symop_operation_xyz
x,y,z
-x,-y,z
x,-y,-z
-x,y,-z
-x,-y,-z
x,y,-z
-x,y,z
x,-y,z
1/2+x,1/2+y,1/2+z
1/2-x,1/2-y,1/2+z
1/2+x,1/2-y,1/2-z
1/2-x,1/2+y,1/2-z
1/2-x,1/2-y,1/2-z
1/2+x,1/2+y,1/2-z
1/2-x,1/2+y,1/2+z
1/2+x,1/2-y,1/2+z
loop_
_atom_site_type_symbol
_atom_site_label
_atom_site_fract_x
_atom_site_fract_y
_atom_site_fract_z
Si Si1 0.157838 0.141811 0.852132
Si Si2 0.076388 0.500000 0.391177
Si Si3 0.283016 0.243575 0.897059
Si Si4 0.855260 0.631256 0.730625
Si Si5 0.424583 0.214602 0.394817
Si Si6 0.224195 0.912489 0.678373
Si Si7 0.340448 0.500000 0.500000
O O1 0.216894 0.200738 0.873070
O O2 0.097224 0.197012 0.867754
O O3 0.169169 0.107122 0.751435
O O4 0.159860 0.069430 0.921198
O O5 0.092788 0.500000 0.500000
O O6 0.106233 0.574910 0.337960
O O7 0.000000 0.500000 0.383741
O O8 0.333106 0.209033 0.824849
O O9 0.274541 0.337174 0.887671
O O10 0.301172 0.221596 0.000000
O O11 0.893996 0.656206 0.820467
O O12 0.790139 0.590968 0.764579
O O13 0.403271 0.199606 0.500000
O O14 0.500000 0.207646 0.391990
O O15 0.217069 0.000000 0.638702
#
# Coordination Sequence:
#
# PCOD9524076 Si02
#       7
#    16   8  16  16  16  16   4
#     4  11  20  36  53  85 118 150 188 235 298 354
#     4  11  24  41  60  87 123 156 201 259 296 340
#     4  11  21  35  59  84 118 153 190 240 296 359
#     4  11  21  39  58  86 118 156 196 239 299 357
#     4  11  22  38  60  83 113 159 201 238 287 353
#     4  11  21  35  57  83 118 146 189 241 295 350
#     4  12  20  30  63  80 116 154 177 242 296 354
#
# _framework density 17.647182000000001
#
# number of rings (size 3 to 8) (size 9 to 14) (size 15 to 20)
#    0.000    0.957    6.957    2.087    0.000    0.348 
#    6.261    1.304    0.000    1.565    0.000    0.000 
#    0.000    1.391    0.000    0.000    0.000    0.000 
#
# Total GULP energy -256209.695441 kJ/mol
# GULP energy per Si atom -5569.775988 kJ/mol
# Density = 1.760702 g / cm^3
# Si number density = 17.647182 Si / 1000 Ang^3
#
#
#
# Elastic Constant Matrix: (Units=GPa)
#
#
# Indices 1 2 3 4 5 6 
#
# 1 47.7521 14.1663 31.1717 0.0000 0.0000 0.0000
# 2 14.1663 128.0378 27.2933 0.0000 0.0000 0.0000
# 3 31.1717 27.2933 73.4176 0.0000 0.0000 0.0000
# 4 0.0000 0.0000 0.0000 38.4517 0.0000 0.0000
# 5 0.0000 0.0000 0.0000 0.0000 15.7430 0.0000
# 6 0.0000 0.0000 0.0000 0.0000 0.0000 8.7720
#
#
#
# Elastic Compliance Matrix: (Units=1/GPa)
#
#
# Indices 1 2 3 4 5 6 
#
# 1 0.029018 -0.000635 -0.012085 0.000000 0.000000 0.000000
# 2 -0.000635 0.008496 -0.002889 0.000000 0.000000 0.000000
# 3 -0.012085 -0.002889 0.019826 0.000000 0.000000 0.000000
# 4 0.000000 0.000000 0.000000 0.026007 0.000000 0.000000
# 5 0.000000 0.000000 0.000000 0.000000 0.063520 0.000000
# 6 0.000000 0.000000 0.000000 0.000000 0.000000 0.113999
#
#
# Mechanical properties :
#
#
# Convention : Reuss Voigt Hill
#
# Bulk Modulus (GPa) = 38.27966 43.83002 41.05484
# Shear Modulus (GPa) = 16.62285 24.36510 20.49398
#
# Velocity S-wave (km/s) = 3.07246 3.71978 3.41151
# Velocity P-wave (km/s) = 5.85879 6.58330 6.23158
#
# Compressibility (1/GPa) = 0.02612354
#
# Stress axis : x y z
#
# Youngs Moduli (GPa) = 34.46080 117.69887 50.43956
#
# Poissons Ratio (x) = 0.07469 0.60955
# Poissons Ratio (y) = 0.02187 0.14572
# Poissons Ratio (z) = 0.41645 0.34004
#
# Static dielectric constant tensor:
#      x y z
#    x 1.595990 0.000000 0.000000 
#    y 0.000000 1.604080 0.000000 
#    z 0.000000 0.000000 1.607040 
# 
# From -- ./inp_files/37863.got.cif
#   From: 2010.05.17/outbox.cif.g08.bks.cpg/sg71_19_cif.got.tgz:37863.got - 2010.06.03 16:22:01.
