data_PCOD9524735
_publ_section_title
;
Structure prediction by ZEFSAII (Michael W. Deem and Ramdas Pophale) SiO2 
 PCOD9524735
Probable space group: I M M M
;
_chemical_formula_sum "Si O2"
_cell_formula_units_Z 58
_cell_length_a 24.000000
_cell_length_b 15.000000
_cell_length_c 18.000000
_cell_angle_alpha 90.000000
_cell_angle_beta 90.000000
_cell_angle_gamma 90.000000
_cell_volume 6480.000000
_symmetry_space_group_name_H-M "I M M M"
_symmetry_group_IT_number 71
_symmetry_cell_setting 'orthorhombic'
loop_
_space_group_symop_operation_xyz
x,y,z
-x,-y,z
x,-y,-z
-x,y,-z
-x,-y,-z
x,y,-z
-x,y,z
x,-y,z
1/2+x,1/2+y,1/2+z
1/2-x,1/2-y,1/2+z
1/2+x,1/2-y,1/2-z
1/2-x,1/2+y,1/2-z
1/2-x,1/2-y,1/2-z
1/2+x,1/2+y,1/2-z
1/2-x,1/2+y,1/2+z
1/2+x,1/2-y,1/2+z
loop_
_atom_site_type_symbol
_atom_site_label
_atom_site_fract_x
_atom_site_fract_y
_atom_site_fract_z
Si Si1 0.434094 0.399678 0.622184
Si Si2 0.252087 0.720213 0.134039
Si Si3 0.934697 0.156109 0.290962
Si Si4 0.874593 0.281138 0.082223
Si Si5 0.500000 0.000000 0.760610
Si Si6 0.849804 0.899250 0.417314
Si Si7 0.404084 0.146164 0.260984
Si Si8 0.277502 0.105369 0.221702
O O1 0.500000 0.384835 0.606045
O O2 0.419490 0.500000 0.598129
O O3 0.427544 0.392390 0.711524
O O4 0.397713 0.319842 0.589135
O O5 0.191765 0.716518 0.095836
O O6 0.302071 0.675448 0.089059
O O7 0.262955 0.823297 0.156896
O O8 0.249338 0.655332 0.206807
O O9 0.895491 0.116502 0.354092
O O10 0.916460 0.258093 0.275970
O O11 0.000000 0.151881 0.310362
O O12 0.901484 0.335728 0.150203
O O13 0.887736 0.315410 0.000000
O O14 0.548465 0.077371 0.758501
O O15 0.874663 0.893947 0.500000
O O16 0.826306 0.000000 0.408652
O O17 0.343763 0.111868 0.235271
O O18 0.261875 0.000000 0.213476
#
# Coordination Sequence:
#
# PCOD9524735 Si02
#       8
#    16  16  16  16   4  16  16  16
#     4   9  19  35  56  81 109 145 188 232 280 333
#     4  10  21  37  56  82 114 151 189 238 293 340
#     4  10  19  36  58  84 113 143 181 231 286 334
#     4  10  22  38  54  76 115 155 188 231 283 341
#     4  12  20  36  65  92 115 144 200 250 278 352
#     4  11  23  37  57  84 115 152 187 224 284 355
#     4  10  20  35  58  86 111 147 186 233 289 330
#     4  10  19  34  58  87 112 140 191 244 288 340
#
# _framework density 8.9506169999999994
#
# number of rings (size 3 to 8) (size 9 to 14) (size 15 to 20)
#    0.000    1.931    2.759    1.241    2.897    2.207 
#    0.000    2.069    0.000    1.241    0.000    0.483 
#    0.000    0.000    0.000    0.000    0.000    0.000 
#
# Total GULP energy -323062.095656 kJ/mol
# GULP energy per Si atom -5570.036132 kJ/mol
# Density = 0.893025 g / cm^3
# Si number density = 8.950617 Si / 1000 Ang^3
#
#
#
# Elastic Constant Matrix: (Units=GPa)
#
#
# Indices 1 2 3 4 5 6 
#
# 1 38.5488 3.4703 15.2843 0.0000 0.0000 0.0000
# 2 3.4703 106.9836 7.9241 0.0000 0.0000 0.0000
# 3 15.2843 7.9241 55.0091 0.0000 0.0000 0.0000
# 4 0.0000 0.0000 0.0000 11.8282 0.0000 0.0000
# 5 0.0000 0.0000 0.0000 0.0000 -11.2346 0.0000
# 6 0.0000 0.0000 0.0000 0.0000 0.0000 23.9749
#
#
#
# Elastic Compliance Matrix: (Units=1/GPa)
#
#
# Indices 1 2 3 4 5 6 
#
# 1 0.029166 -0.000350 -0.008053 0.000000 0.000000 0.000000
# 2 -0.000350 0.009452 -0.001264 0.000000 0.000000 0.000000
# 3 -0.008053 -0.001264 0.020599 0.000000 0.000000 0.000000
# 4 0.000000 0.000000 0.000000 0.084544 0.000000 0.000000
# 5 0.000000 0.000000 0.000000 0.000000 -0.089011 0.000000
# 6 0.000000 0.000000 0.000000 0.000000 0.000000 0.041710
#
#
# Mechanical properties :
#
#
# Convention : Reuss Voigt Hill
#
# Bulk Modulus (GPa) = 25.07412 28.21097 26.64254
# Shear Modulus (GPa) = 38.73311 16.50455 27.61883
#
# Velocity S-wave (km/s) = 4.65662 3.03970 3.93217
# Velocity P-wave (km/s) = 6.55358 5.30219 5.96081
#
# Compressibility (1/GPa) = 0.03988177
#
# Stress axis : x y z
#
# Youngs Moduli (GPa) = 34.28681 105.79519 48.54698
#
# Poissons Ratio (x) = 0.03698 0.39097
# Poissons Ratio (y) = 0.01199 0.06139
# Poissons Ratio (z) = 0.27612 0.13378
#
# Static dielectric constant tensor:
#      x y z
#    x 1.596360 0.000000 0.000000 
#    y 0.000000 1.606710 0.000000 
#    z 0.000000 0.000000 1.628900 
# 
# From -- ./inp_files/48290.got.cif
#   From: 2010.05.17/outbox.ucp.g08.bks.cvg/sg71_25_cif.got.tgz:48290.got - 2010.06.11 16:29:00.
