data_PCOD9524541
_publ_section_title
;
Structure prediction by ZEFSAII (Michael W. Deem and Ramdas Pophale) SiO2 
 PCOD9524541
Probable space group: I M M M
;
_chemical_formula_sum "Si O2"
_cell_formula_units_Z 104
_cell_length_a 23.374768
_cell_length_b 31.429476
_cell_length_c 7.353904
_cell_angle_alpha 90.000000
_cell_angle_beta 90.000000
_cell_angle_gamma 90.000000
_cell_volume 5402.594917
_symmetry_space_group_name_H-M "I M M M"
_symmetry_group_IT_number 71
_symmetry_cell_setting 'orthorhombic'
loop_
_space_group_symop_operation_xyz
x,y,z
-x,-y,z
x,-y,-z
-x,y,-z
-x,-y,-z
x,y,-z
-x,y,z
x,-y,z
1/2+x,1/2+y,1/2+z
1/2-x,1/2-y,1/2+z
1/2+x,1/2-y,1/2-z
1/2-x,1/2+y,1/2-z
1/2-x,1/2-y,1/2-z
1/2+x,1/2+y,1/2-z
1/2-x,1/2+y,1/2+z
1/2+x,1/2-y,1/2+z
loop_
_atom_site_type_symbol
_atom_site_label
_atom_site_fract_x
_atom_site_fract_y
_atom_site_fract_z
Si Si1 0.888652 0.397139 0.777797
Si Si2 0.934324 0.784725 0.717495
Si Si3 0.934571 0.691748 0.215524
Si Si4 0.651186 0.451599 0.221709
Si Si5 0.218369 0.548560 0.221337
Si Si6 0.000000 0.548982 0.221434
Si Si7 0.566613 0.622164 0.778272
O O1 0.899536 0.348794 0.716646
O O2 0.829925 0.418830 0.716911
O O3 0.943179 0.425634 0.723367
O O4 0.887483 0.397428 0.000000
O O5 0.936323 0.786924 0.500000
O O6 0.908372 0.738721 0.759335
O O7 0.911899 0.830716 0.778762
O O8 0.000000 0.782516 0.785217
O O9 0.000000 0.691222 0.289097
O O10 0.939530 0.685738 0.000000
O O11 0.637204 0.500000 0.277116
O O12 0.716517 0.442120 0.277366
O O13 0.606517 0.416195 0.283891
O O14 0.650537 0.451350 0.000000
O O15 0.204416 0.500000 0.275112
O O16 0.218226 0.549030 0.000000
O O17 0.000000 0.500000 0.280829
O O18 0.000000 0.548665 0.000000
O O19 0.500000 0.617650 0.724755
O O20 0.567081 0.621313 0.000000
#
# Coordination Sequence:
#
# PCOD9524541 Si02
#       7
#    16  16  16  16  16   8  16
#     4   9  14  20  29  44  67  93 118 146 180 215
#     4   8  14  24  37  52  71  96 124 151 180 219
#     4   9  15  23  35  52  74  96 121 155 190 218
#     4   8  13  20  30  46  68  93 119 143 171 214
#     4   8  13  20  29  42  64  95 123 142 168 215
#     4   9  14  18  26  42  65  91 115 141 178 219
#     4   8  13  21  33  49  68  90 116 146 179 213
#
# _framework density 19.250008999999999
#
# number of rings (size 3 to 8) (size 9 to 14) (size 15 to 20)
#    0.000    3.615    0.769    2.308    0.000    2.154 
#    0.000    1.538    0.000    0.923    0.000    0.000 
#    0.000    3.692    0.000    9.385    0.000   10.462 
#
# Total GULP energy -289693.472125 kJ/mol
# GULP energy per Si atom -5571.028310 kJ/mol
# Density = 1.920619 g / cm^3
# Si number density = 19.250009 Si / 1000 Ang^3
#
#
#
# Elastic Constant Matrix: (Units=GPa)
#
#
# Indices 1 2 3 4 5 6 
#
# 1 98.6741 115.3711 3.2813 0.0000 0.0000 0.0000
# 2 115.3711 230.1930 5.2166 0.0000 0.0000 0.0000
# 3 3.2813 5.2166 69.5498 0.0000 0.0000 0.0000
# 4 0.0000 0.0000 0.0000 6.6274 0.0000 0.0000
# 5 0.0000 0.0000 0.0000 0.0000 -12.8873 0.0000
# 6 0.0000 0.0000 0.0000 0.0000 0.0000 19.0169
#
#
#
# Elastic Compliance Matrix: (Units=1/GPa)
#
#
# Indices 1 2 3 4 5 6 
#
# 1 0.024483 -0.012265 -0.000235 0.000000 0.000000 0.000000
# 2 -0.012265 0.010496 -0.000209 0.000000 0.000000 0.000000
# 3 -0.000235 -0.000209 0.014405 0.000000 0.000000 0.000000
# 4 0.000000 0.000000 0.000000 0.150888 0.000000 0.000000
# 5 0.000000 0.000000 0.000000 0.000000 -0.077596 0.000000
# 6 0.000000 0.000000 0.000000 0.000000 0.000000 0.052585
#
#
# Mechanical properties :
#
#
# Convention : Reuss Voigt Hill
#
# Bulk Modulus (GPa) = 41.72580 71.79498 56.76039
# Shear Modulus (GPa) = 23.96139 20.85458 22.40799
#
# Velocity S-wave (km/s) = 3.53192 3.29501 3.41552
# Velocity P-wave (km/s) = 6.19318 7.20091 6.71597
#
# Compressibility (1/GPa) = 0.02396599
#
# Stress axis : x y z
#
# Youngs Moduli (GPa) = 40.84450 95.27208 69.42072
#
# Poissons Ratio (x) = 1.16855 0.01632
# Poissons Ratio (y) = 0.50098 0.01448
# Poissons Ratio (z) = 0.00960 0.01987
#
# Static dielectric constant tensor:
#      x y z
#    x 1.628750 0.000000 0.000000 
#    y 0.000000 1.693800 0.000000 
#    z 0.000000 0.000000 1.804760 
# 
# From -- ./inp_files/13600.got.cif
#   From: 2010.05.17/outbox.cif.g08.bks.cpg/sg71_7_cif.got.tgz:13600.got - 2010.06.03 16:22:01.
