data_PCOD9524846
_publ_section_title
;
Structure prediction by ZEFSAII (Michael W. Deem and Ramdas Pophale) SiO2 
 PCOD9524846
Probable space group: I M M M
;
_chemical_formula_sum "Si O2"
_cell_formula_units_Z 40
_cell_length_a 9.000000
_cell_length_b 27.000000
_cell_length_c 18.000000
_cell_angle_alpha 90.000000
_cell_angle_beta 90.000000
_cell_angle_gamma 90.000000
_cell_volume 4374.000000
_symmetry_space_group_name_H-M "I M M M"
_symmetry_group_IT_number 71
_symmetry_cell_setting 'orthorhombic'
loop_
_space_group_symop_operation_xyz
x,y,z
-x,-y,z
x,-y,-z
-x,y,-z
-x,-y,-z
x,y,-z
-x,y,z
x,-y,z
1/2+x,1/2+y,1/2+z
1/2-x,1/2-y,1/2+z
1/2+x,1/2-y,1/2-z
1/2-x,1/2+y,1/2-z
1/2-x,1/2-y,1/2-z
1/2+x,1/2+y,1/2-z
1/2-x,1/2+y,1/2+z
1/2+x,1/2-y,1/2+z
loop_
_atom_site_type_symbol
_atom_site_label
_atom_site_fract_x
_atom_site_fract_y
_atom_site_fract_z
Si Si1 0.320110 0.911610 0.181229
Si Si2 0.680650 0.057468 0.500000
Si Si3 0.821947 0.711626 0.086543
Si Si4 0.181092 0.390256 0.847767
Si Si5 0.178545 0.000000 0.087398
Si Si6 0.177992 0.316550 0.414808
O O1 0.500000 0.917941 0.178565
O O2 0.273220 0.911532 0.267862
O O3 0.283090 0.859129 0.143232
O O4 0.244159 0.953108 0.131145
O O5 0.500000 0.062260 0.500000
O O6 0.731394 0.081624 0.577555
O O7 0.718272 0.000000 0.500000
O O8 0.775136 0.666872 0.139673
O O9 0.748995 0.763926 0.103933
O O10 0.000000 0.716156 0.090823
O O11 0.786735 0.699029 0.000000
O O12 0.000000 0.391780 0.847713
O O13 0.000000 0.000000 0.090796
O O14 0.221902 0.000000 0.000000
O O15 0.222746 0.329584 0.500000
O O16 0.000000 0.311604 0.414448
#
# Coordination Sequence:
#
# PCOD9524846 Si02
#       6
#    16   8  16  16   8  16
#     4  10  21  36  57  83 108 137 178 226 269 314
#     4   9  16  26  46  76 110 142 174 221 274 313
#     4   9  16  29  50  75 106 144 181 219 262 313
#     4   9  17  30  49  79 112 139 177 225 269 313
#     4  11  25  43  61  80 107 140 174 215 267 325
#     4   9  18  32  49  72 104 139 177 220 268 322
#
# _framework density 9.1449470000000002
#
# number of rings (size 3 to 8) (size 9 to 14) (size 15 to 20)
#    0.000    2.600    1.000    0.900    1.400    3.200 
#    0.000    3.000    0.000    0.000    0.000    0.700 
#    0.000    0.000    0.000    0.000    0.000    0.000 
#
# Total GULP energy -223019.716137 kJ/mol
# GULP energy per Si atom -5575.492903 kJ/mol
# Density = 0.912413 g / cm^3
# Si number density = 9.144947 Si / 1000 Ang^3
#
#
#
# Elastic Constant Matrix: (Units=GPa)
#
#
# Indices 1 2 3 4 5 6 
#
# 1 5.0392 27.5504 32.5217 0.0000 0.0000 0.0000
# 2 27.5504 117.3548 101.7114 0.0000 0.0000 0.0000
# 3 32.5217 101.7114 176.4257 -0.0001 0.0000 0.0000
# 4 0.0000 0.0000 -0.0001 26.6858 0.0000 0.0000
# 5 0.0000 0.0000 0.0000 0.0000 16.2110 0.0000
# 6 0.0000 0.0000 0.0000 0.0000 0.0000 17.9600
#
#
#
# Elastic Compliance Matrix: (Units=1/GPa)
#
#
# Indices 1 2 3 4 5 6 
#
# 1 -0.439571 0.065888 0.043044 0.000000 0.000000 0.000000
# 2 0.065888 0.007155 -0.016270 0.000000 0.000000 0.000000
# 3 0.043044 -0.016270 0.007114 0.000000 0.000000 0.000000
# 4 0.000000 0.000000 0.000000 0.037473 0.000000 0.000000
# 5 0.000000 0.000000 0.000000 0.000000 0.061687 0.000000
# 6 0.000000 0.000000 0.000000 0.000000 0.000000 0.055679
#
#
# Mechanical properties :
#
#
# Convention : Reuss Voigt Hill
#
# Bulk Modulus (GPa) = -4.16702 69.15407 32.49352
# Shear Modulus (GPa) = -9.33217 21.30712 5.98747
#
# Velocity S-wave (km/s) = -2.26129 3.41686 1.81129
# Velocity P-wave (km/s) = 3.01682 7.31154 4.70943
#
# Compressibility (1/GPa) = -0.23997947
#
# Stress axis : x y z
#
# Youngs Moduli (GPa) = -2.27494 139.76891 140.57532
#
# Poissons Ratio (x) = -9.20915 -6.05089
# Poissons Ratio (y) = 0.14989 2.28722
# Poissons Ratio (z) = 0.09792 2.27410
#
# Static dielectric constant tensor:
#      x y z
#    x 1.610900 0.000000 0.000000 
#    y 0.000000 1.628080 0.000000 
#    z 0.000000 0.000000 1.633660 
# 
# From -- ./inp_files/42283.got.cif
#   From: 2010.05.17/outbox.ucp.g08.bks.cvg/sg71_22_cif.got.tgz:42283.got - 2010.06.11 16:29:00.
