data_PCOD9524226
_publ_section_title
;
Structure prediction by ZEFSAII (Michael W. Deem and Ramdas Pophale) SiO2 
 PCOD9524226
Probable space group: I M M M
;
_chemical_formula_sum "Si O2"
_cell_formula_units_Z 68
_cell_length_a 18.464195
_cell_length_b 19.871231
_cell_length_c 9.804955
_cell_angle_alpha 90.000000
_cell_angle_beta 90.000000
_cell_angle_gamma 90.000000
_cell_volume 3597.499605
_symmetry_space_group_name_H-M "I M M M"
_symmetry_group_IT_number 71
_symmetry_cell_setting 'orthorhombic'
loop_
_space_group_symop_operation_xyz
x,y,z
-x,-y,z
x,-y,-z
-x,y,-z
-x,-y,-z
x,y,-z
-x,y,z
x,-y,z
1/2+x,1/2+y,1/2+z
1/2-x,1/2-y,1/2+z
1/2+x,1/2-y,1/2-z
1/2-x,1/2+y,1/2-z
1/2-x,1/2-y,1/2-z
1/2+x,1/2+y,1/2-z
1/2-x,1/2+y,1/2+z
1/2+x,1/2-y,1/2+z
loop_
_atom_site_type_symbol
_atom_site_label
_atom_site_fract_x
_atom_site_fract_y
_atom_site_fract_z
Si Si1 0.500000 0.079440 0.197182
Si Si2 0.000000 0.079836 0.161944
Si Si3 0.620687 0.132022 0.000000
Si Si4 0.639566 0.342852 0.723390
Si Si5 0.226848 0.076693 0.000000
Si Si6 0.803137 0.779712 0.500000
Si Si7 0.500000 0.127388 0.500000
Si Si8 0.628965 0.233571 0.500000
O O1 0.569254 0.116520 0.129236
O O2 0.500000 0.086660 0.359333
O O3 0.500000 0.000000 0.160648
O O4 0.929631 0.109641 0.233310
O O5 0.000000 0.000000 0.166230
O O6 0.000000 0.099426 0.000000
O O7 0.687196 0.080585 0.000000
O O8 0.658697 0.205693 0.000000
O O9 0.697084 0.383418 0.631136
O O10 0.615570 0.278819 0.633540
O O11 0.671241 0.317999 0.864814
O O12 0.199928 0.000000 0.000000
O O13 0.715647 0.778639 0.500000
O O14 0.572899 0.172755 0.500000
#
# Coordination Sequence:
#
# PCOD9524226 Si02
#       8
#     8   8   8  16   8   8   4   8
#     4  11  25  44  64  93 125 167 225 267 310 380
#     4  11  21  41  65  91 125 168 219 255 296 381
#     4  11  23  44  67  90 122 173 210 268 316 370
#     4  11  23  39  66  94 130 167 208 261 318 370
#     4  11  22  40  65  91 122 174 221 249 304 379
#     4  12  25  41  64 100 137 155 208 272 324 372
#     4  12  25  38  68  92 133 172 202 262 342 364
#     4  11  22  41  63  96 129 166 216 251 316 397
#
# _framework density 18.902016
#
# number of rings (size 3 to 8) (size 9 to 14) (size 15 to 20)
#    0.000    0.824    4.706    5.118    3.294    2.353 
#    0.000    2.941    0.000    0.000    0.000    0.000 
#    0.000    0.000    0.000    0.000    0.000    0.000 
#
# Total GULP energy -190009.066528 kJ/mol
# GULP energy per Si atom -5588.501957 kJ/mol
# Density = 1.885899 g / cm^3
# Si number density = 18.902016 Si / 1000 Ang^3
#
#
#
# Elastic Constant Matrix: (Units=GPa)
#
#
# Indices 1 2 3 4 5 6 
#
# 1 132.3333 48.1048 28.5832 0.0000 0.0000 0.0000
# 2 48.1048 109.2286 54.7182 0.0000 0.0000 0.0000
# 3 28.5832 54.7182 128.8740 0.0000 0.0000 0.0000
# 4 0.0000 0.0000 0.0000 -4.5449 0.0000 0.0000
# 5 0.0000 0.0000 0.0000 0.0000 53.7541 0.0000
# 6 0.0000 0.0000 0.0000 0.0000 0.0000 120.8330
#
#
#
# Elastic Compliance Matrix: (Units=1/GPa)
#
#
# Indices 1 2 3 4 5 6 
#
# 1 0.009013 -0.003770 -0.000398 0.000000 0.000000 0.000000
# 2 -0.003770 0.013205 -0.004771 0.000000 0.000000 0.000000
# 3 -0.000398 -0.004771 0.009873 0.000000 0.000000 0.000000
# 4 0.000000 0.000000 0.000000 -0.220029 0.000000 0.000000
# 5 0.000000 0.000000 0.000000 0.000000 0.018603 0.000000
# 6 0.000000 0.000000 0.000000 0.000000 0.000000 0.008276
#
#
# Mechanical properties :
#
#
# Convention : Reuss Voigt Hill
#
# Bulk Modulus (GPa) = 70.35322 70.36091 70.35707
# Shear Modulus (GPa) = -36.11615 49.94378 6.91381
#
# Velocity S-wave (km/s) = -4.37590 5.14585 1.91459
# Velocity P-wave (km/s) = 3.43066 8.52122 6.49541
#
# Compressibility (1/GPa) = 0.01421399
#
# Stress axis : x y z
#
# Youngs Moduli (GPa) = 110.94946 75.72760 101.28190
#
# Poissons Ratio (x) = 0.28548 0.04035
# Poissons Ratio (y) = 0.41826 0.48318
# Poissons Ratio (z) = 0.04420 0.36127
#
# Static dielectric constant tensor:
#      x y z
#    x 1.658590 0.000000 0.000000 
#    y 0.000000 1.643670 0.000000 
#    z 0.000000 0.000000 1.620920 
# 
# From -- ./inp_files/7738.got.cif
#   From: 2010.05.17/outbox.cif.g08.bks.cpg/sg71_4_cif.got.tgz:7738.got - 2010.06.03 16:22:01.
