data_PCOD9524400
_publ_section_title
;
Structure prediction by ZEFSAII (Michael W. Deem and Ramdas Pophale) SiO2 
 PCOD9524400
Probable space group: I M M M
;
_chemical_formula_sum "Si O2"
_cell_formula_units_Z 48
_cell_length_a 8.846874
_cell_length_b 38.602899
_cell_length_c 7.609884
_cell_angle_alpha 90.000000
_cell_angle_beta 90.000000
_cell_angle_gamma 90.000000
_cell_volume 2598.889409
_symmetry_space_group_name_H-M "I M M M"
_symmetry_group_IT_number 71
_symmetry_cell_setting 'orthorhombic'
loop_
_space_group_symop_operation_xyz
x,y,z
-x,-y,z
x,-y,-z
-x,y,-z
-x,-y,-z
x,y,-z
-x,y,z
x,-y,z
1/2+x,1/2+y,1/2+z
1/2-x,1/2-y,1/2+z
1/2+x,1/2-y,1/2-z
1/2-x,1/2+y,1/2-z
1/2-x,1/2-y,1/2-z
1/2+x,1/2+y,1/2-z
1/2-x,1/2+y,1/2+z
1/2+x,1/2-y,1/2+z
loop_
_atom_site_type_symbol
_atom_site_label
_atom_site_fract_x
_atom_site_fract_y
_atom_site_fract_z
Si Si1 0.819913 0.787429 0.205611
Si Si2 0.819786 0.540296 0.706961
Si Si3 0.180436 0.335936 0.000000
Si Si4 0.321294 0.588125 0.000000
O O1 0.750000 0.750000 0.250000
O O2 0.744651 0.815686 0.330947
O O3 0.000000 0.786411 0.236809
O O4 0.794162 0.794818 0.000000
O O5 0.791281 0.546135 0.500000
O O6 0.784055 0.500000 0.745820
O O7 0.000000 0.544745 0.736735
O O8 0.729341 0.565877 0.831166
O O9 0.237444 0.375185 0.000000
O O10 0.000000 0.334420 0.000000
O O11 0.500000 0.593671 0.000000
#
# Coordination Sequence:
#
# PCOD9524400 Si02
#       4
#    16  16   8   8
#     4  11  23  40  65  93 122 155 195 245 301 361
#     4   9  19  38  64  91 120 159 206 251 297 356
#     4  12  26  43  63  88 120 163 208 254 305 359
#     4  12  25  39  58  87 126 164 200 250 308 365
#
# _framework density 18.469427
#
# number of rings (size 3 to 8) (size 9 to 14) (size 15 to 20)
#    0.000    1.333    1.667    5.500    0.000    6.667 
#    0.000    1.667    0.000    0.000    0.000    0.000 
#    0.000    0.000    0.000    0.000    0.000    0.000 
#
# Total GULP energy -134227.828859 kJ/mol
# GULP energy per Si atom -5592.826202 kJ/mol
# Density = 1.842739 g / cm^3
# Si number density = 18.469427 Si / 1000 Ang^3
#
#
#
# Elastic Constant Matrix: (Units=GPa)
#
#
# Indices 1 2 3 4 5 6 
#
# 1 138.6122 79.1759 96.5388 -0.0264 0.0001 -0.0004
# 2 79.1759 127.3216 83.8082 -0.0917 0.0013 0.0008
# 3 96.5388 83.8082 123.9761 -0.1687 0.0012 0.0015
# 4 -0.0264 -0.0917 -0.1687 -246.7655 -0.0187 -0.0138
# 5 0.0001 0.0013 0.0012 -0.0187 35.1915 0.0003
# 6 -0.0004 0.0008 0.0015 -0.0138 0.0003 35.1690
#
#
#
# Elastic Compliance Matrix: (Units=1/GPa)
#
#
# Indices 1 2 3 4 5 6 
#
# 1 0.016475 -0.003244 -0.010636 0.000007 0.000000 0.000001
# 2 -0.003244 0.014790 -0.007472 0.000000 0.000000 0.000000
# 3 -0.010636 -0.007472 0.021399 -0.000011 0.000000 -0.000001
# 4 0.000007 0.000000 -0.000011 -0.004052 -0.000002 -0.000002
# 5 0.000000 0.000000 0.000000 -0.000002 0.028416 0.000000
# 6 0.000001 0.000000 -0.000001 -0.000002 0.000000 0.028434
#
#
# Mechanical properties :
#
#
# Convention : Reuss Voigt Hill
#
# Bulk Modulus (GPa) = 100.39879 100.99510 100.69694
# Shear Modulus (GPa) = 33.00669 -26.58853 3.20908
#
# Velocity S-wave (km/s) = 4.23200 -3.79832 1.31958
# Velocity P-wave (km/s) = 8.85196 5.96362 7.54725
#
# Compressibility (1/GPa) = 0.00996028
#
# Stress axis : x y z
#
# Youngs Moduli (GPa) = 60.69843 67.61463 46.73140
#
# Poissons Ratio (x) = 0.21935 0.49702
# Poissons Ratio (y) = 0.19691 0.34916
# Poissons Ratio (z) = 0.64557 0.50520
#
# Static dielectric constant tensor:
#      x y z
#    x 1.616240 0.000000 0.000000 
#    y 0.000000 1.594950 0.000000 
#    z 0.000000 0.000000 1.626830 
# 
# From -- ./inp_files/2207.got.cif
#   From: 2010.05.17/outbox.cif.g08.bks.cpg/sg71_2_cif.got.tgz:2207.got - 2010.06.03 16:22:01.
