data_PCOD9524160
_publ_section_title
;
Structure prediction by ZEFSAII (Michael W. Deem and Ramdas Pophale) SiO2 
 PCOD9524160
Probable space group: I M M M
;
_chemical_formula_sum "Si O2"
_cell_formula_units_Z 104
_cell_length_a 23.825118
_cell_length_b 8.158359
_cell_length_c 28.883611
_cell_angle_alpha 90.000000
_cell_angle_beta 90.000000
_cell_angle_gamma 90.000000
_cell_volume 5614.219130
_symmetry_space_group_name_H-M "I M M M"
_symmetry_group_IT_number 71
_symmetry_cell_setting 'orthorhombic'
loop_
_space_group_symop_operation_xyz
x,y,z
-x,-y,z
x,-y,-z
-x,y,-z
-x,-y,-z
x,y,-z
-x,y,z
x,-y,z
1/2+x,1/2+y,1/2+z
1/2-x,1/2-y,1/2+z
1/2+x,1/2-y,1/2-z
1/2-x,1/2+y,1/2-z
1/2-x,1/2-y,1/2-z
1/2+x,1/2+y,1/2-z
1/2-x,1/2+y,1/2+z
1/2+x,1/2-y,1/2+z
loop_
_atom_site_type_symbol
_atom_site_label
_atom_site_fract_x
_atom_site_fract_y
_atom_site_fract_z
Si Si1 0.936197 0.196903 0.597023
Si Si2 0.064826 0.695009 0.500000
Si Si3 0.362185 0.700353 0.181606
Si Si4 0.564391 0.197261 0.552933
Si Si5 0.563012 0.299750 0.266899
Si Si6 0.373627 0.304680 0.355939
Si Si7 0.260560 0.196213 0.696635
O O1 0.910081 0.243232 0.547791
O O2 0.900965 0.257887 0.640021
O O3 0.000000 0.260832 0.599083
O O4 0.938740 0.000000 0.599837
O O5 0.063632 0.500000 0.500000
O O6 0.000000 0.758379 0.500000
O O7 0.362699 0.500000 0.182485
O O8 0.390364 0.754033 0.229816
O O9 0.298290 0.749874 0.174038
O O10 0.577936 0.252237 0.500000
O O11 0.500000 0.253562 0.563486
O O12 0.607999 0.245155 0.593230
O O13 0.563057 0.000000 0.551936
O O14 0.500000 0.247958 0.254384
O O15 0.563288 0.500000 0.266367
O O16 0.580682 0.245471 0.318023
O O17 0.375913 0.500000 0.357478
O O18 0.313925 0.259753 0.332187
O O19 0.250000 0.250000 0.750000
O O20 0.264685 0.000000 0.696794
#
# Coordination Sequence:
#
# PCOD9524160 Si02
#       7
#    16   8  16  16  16  16  16
#     4   9  16  28  50  76  97 122 162 210 253 299
#     4   9  17  29  45  67  99 133 157 187 240 303
#     4   9  17  30  49  74 101 130 170 216 261 308
#     4   9  19  37  60  86 117 150 183 226 284 343
#     4   9  16  27  46  75 108 136 165 208 261 314
#     4  11  21  34  54  82 112 146 187 227 269 325
#     4  11  21  36  55  76 104 142 185 226 268 318
#
# _framework density 18.524393
#
# number of rings (size 3 to 8) (size 9 to 14) (size 15 to 20)
#    0.000    2.385    1.538    2.538    0.000    4.000 
#    0.000    2.308    1.692    0.000    0.000    0.000 
#    0.000    0.000    0.000    0.000    0.000    0.000 
#
# Total GULP energy -289723.479790 kJ/mol
# GULP energy per Si atom -5571.605381 kJ/mol
# Density = 1.848223 g / cm^3
# Si number density = 18.524393 Si / 1000 Ang^3
#
#
#
# Elastic Constant Matrix: (Units=GPa)
#
#
# Indices 1 2 3 4 5 6 
#
# 1 104.6214 8.8849 58.6944 0.0000 0.0000 0.0000
# 2 8.8849 17.6043 14.2141 0.0000 0.0000 0.0000
# 3 58.6944 14.2141 146.4698 0.0000 0.0000 0.0000
# 4 0.0000 0.0000 0.0000 17.9399 0.0000 0.0000
# 5 0.0000 0.0000 0.0000 0.0000 15.8141 0.0000
# 6 0.0000 0.0000 0.0000 0.0000 0.0000 14.3709
#
#
#
# Elastic Compliance Matrix: (Units=1/GPa)
#
#
# Indices 1 2 3 4 5 6 
#
# 1 0.012426 -0.002442 -0.004743 0.000000 0.000000 0.000000
# 2 -0.002442 0.062114 -0.005049 0.000000 0.000000 0.000000
# 3 -0.004743 -0.005049 0.009218 0.000000 0.000000 0.000000
# 4 0.000000 0.000000 0.000000 0.055742 0.000000 0.000000
# 5 0.000000 0.000000 0.000000 0.000000 0.063235 0.000000
# 6 0.000000 0.000000 0.000000 0.000000 0.000000 0.069585
#
#
# Mechanical properties :
#
#
# Convention : Reuss Voigt Hill
#
# Bulk Modulus (GPa) = 16.86626 48.03137 32.44882
# Shear Modulus (GPa) = 15.79524 22.08509 18.94017
#
# Velocity S-wave (km/s) = 2.92322 3.45660 3.20104
# Velocity P-wave (km/s) = 4.52971 6.47424 5.58722
#
# Compressibility (1/GPa) = 0.05928995
#
# Stress axis : x y z
#
# Youngs Moduli (GPa) = 80.47414 16.09948 108.48563
#
# Poissons Ratio (x) = 0.03932 0.51450
# Poissons Ratio (y) = 0.19654 0.54776
# Poissons Ratio (z) = 0.38165 0.08129
#
# Static dielectric constant tensor:
#      x y z
#    x 1.655010 0.000000 0.000000 
#    y 0.000000 1.654840 0.000000 
#    z 0.000000 0.000000 1.665780 
# 
# From -- ./inp_files/66798.got.cif
#   From: 2010.05.17/outbox.cif.g08.bks.cpg/sg71_34_cif.got.tgz:66798.got - 2010.06.03 16:22:01.
