data_PCOD9524146
_publ_section_title
;
Structure prediction by ZEFSAII (Michael W. Deem and Ramdas Pophale) SiO2 
 PCOD9524146
Probable space group: I M M M
;
_chemical_formula_sum "Si O2"
_cell_formula_units_Z 90
_cell_length_a 26.298564
_cell_length_b 22.562331
_cell_length_c 7.811850
_cell_angle_alpha 90.000000
_cell_angle_beta 90.000000
_cell_angle_gamma 90.000000
_cell_volume 4635.215145
_symmetry_space_group_name_H-M "I M M M"
_symmetry_group_IT_number 71
_symmetry_cell_setting 'orthorhombic'
loop_
_space_group_symop_operation_xyz
x,y,z
-x,-y,z
x,-y,-z
-x,y,-z
-x,-y,-z
x,y,-z
-x,y,z
x,-y,z
1/2+x,1/2+y,1/2+z
1/2-x,1/2-y,1/2+z
1/2+x,1/2-y,1/2-z
1/2-x,1/2+y,1/2-z
1/2-x,1/2-y,1/2-z
1/2+x,1/2+y,1/2-z
1/2-x,1/2+y,1/2+z
1/2+x,1/2-y,1/2+z
loop_
_atom_site_type_symbol
_atom_site_label
_atom_site_fract_x
_atom_site_fract_y
_atom_site_fract_z
Si Si1 0.163242 0.098738 0.797461
Si Si2 0.194517 0.225863 0.196323
Si Si3 0.584420 0.500000 0.192584
Si Si4 0.275623 0.935028 0.294156
Si Si5 0.058850 0.566546 0.708953
Si Si6 0.641415 0.158503 0.199189
Si Si7 0.500000 0.500000 0.500000
O O1 0.172346 0.165358 0.724332
O O2 0.218359 0.069423 0.771421
O O3 0.120805 0.057786 0.712104
O O4 0.150918 0.100773 0.000000
O O5 0.250000 0.250000 0.250000
O O6 0.155136 0.279577 0.215308
O O7 0.201805 0.210116 0.000000
O O8 0.544325 0.500000 0.347150
O O9 0.562815 0.500000 0.000000
O O10 0.275649 0.928740 0.500000
O O11 0.309370 0.883392 0.215934
O O12 0.296610 0.000000 0.249820
O O13 0.061597 0.566460 0.500000
O O14 0.073627 0.500000 0.765459
O O15 0.095568 0.618554 0.770853
O O16 0.000000 0.575929 0.755273
O O17 0.631560 0.170706 0.000000
#
# Coordination Sequence:
#
# PCOD9524146 Si02
#       7
#    16  16   8  16  16  16   2
#     4  11  22  39  62  90 123 162 206 256 322 387
#     4  11  23  37  57  83 119 166 206 247 304 376
#     4  12  25  45  77 106 131 171 215 276 340 396
#     4  11  22  33  51  82 120 158 201 252 306 381
#     4   8  15  30  53  79 108 147 198 250 297 347
#     4  11  21  33  53  82 117 159 201 251 308 366
#     4  12  26  52  76 106 140 164 218 280 340 402
#
# _framework density 19.416574000000001
#
# number of rings (size 3 to 8) (size 9 to 14) (size 15 to 20)
#    0.000    1.422    3.556    3.333    0.000    3.911 
#    0.000    0.000    1.956    2.133    0.000    6.222 
#    0.000    0.000    0.000    0.000    0.000    0.000 
#
# Total GULP energy -250954.823850 kJ/mol
# GULP energy per Si atom -5576.773863 kJ/mol
# Density = 1.937238 g / cm^3
# Si number density = 19.416574 Si / 1000 Ang^3
#
#
#
# Elastic Constant Matrix: (Units=GPa)
#
#
# Indices 1 2 3 4 5 6 
#
# 1 107.6002 51.6100 12.4806 0.0000 0.0000 0.0000
# 2 51.6100 145.1649 12.0421 0.0000 0.0000 0.0000
# 3 12.4806 12.0421 67.7111 0.0000 0.0000 0.0000
# 4 0.0000 0.0000 0.0000 22.1865 0.0000 0.0000
# 5 0.0000 0.0000 0.0000 0.0000 9.6761 0.0000
# 6 0.0000 0.0000 0.0000 0.0000 0.0000 69.1441
#
#
#
# Elastic Compliance Matrix: (Units=1/GPa)
#
#
# Indices 1 2 3 4 5 6 
#
# 1 0.011332 -0.003913 -0.001393 0.000000 0.000000 0.000000
# 2 -0.003913 0.008343 -0.000762 0.000000 0.000000 0.000000
# 3 -0.001393 -0.000762 0.015161 0.000000 0.000000 0.000000
# 4 0.000000 0.000000 0.000000 0.045072 0.000000 0.000000
# 5 0.000000 0.000000 0.000000 0.000000 0.103347 0.000000
# 6 0.000000 0.000000 0.000000 0.000000 0.000000 0.014463
#
#
# Mechanical properties :
#
#
# Convention : Reuss Voigt Hill
#
# Bulk Modulus (GPa) = 44.05453 52.52684 48.29068
# Shear Modulus (GPa) = 22.99670 36.49091 29.74381
#
# Velocity S-wave (km/s) = 3.44522 4.33987 3.91817
# Velocity P-wave (km/s) = 6.21003 7.22661 6.73752
#
# Compressibility (1/GPa) = 0.02269914
#
# Stress axis : x y z
#
# Youngs Moduli (GPa) = 88.24373 119.85696 65.95890
#
# Poissons Ratio (x) = 0.46905 0.09187
# Poissons Ratio (y) = 0.34533 0.05029
# Poissons Ratio (z) = 0.12291 0.09139
#
# Static dielectric constant tensor:
#      x y z
#    x 1.655660 0.000000 0.000000 
#    y 0.000000 1.697860 0.000000 
#    z 0.000000 0.000000 1.705800 
# 
# From -- ./inp_files/12655.got.cif
#   From: 2010.05.17/outbox.cif.g08.bks.cpg/sg71_7_cif.got.tgz:12655.got - 2010.06.03 16:22:01.
