data_PCOD9524815
_publ_section_title
;
Structure prediction by ZEFSAII (Michael W. Deem and Ramdas Pophale) SiO2 
 PCOD9524815
Probable space group: I M M M
;
_chemical_formula_sum "Si O2"
_cell_formula_units_Z 44
_cell_length_a 9.000000
_cell_length_b 30.000000
_cell_length_c 18.000000
_cell_angle_alpha 90.000000
_cell_angle_beta 90.000000
_cell_angle_gamma 90.000000
_cell_volume 4860.000000
_symmetry_space_group_name_H-M "I M M M"
_symmetry_group_IT_number 71
_symmetry_cell_setting 'orthorhombic'
loop_
_space_group_symop_operation_xyz
x,y,z
-x,-y,z
x,-y,-z
-x,y,-z
-x,-y,-z
x,y,-z
-x,y,z
x,-y,z
1/2+x,1/2+y,1/2+z
1/2-x,1/2-y,1/2+z
1/2+x,1/2-y,1/2-z
1/2-x,1/2+y,1/2-z
1/2-x,1/2-y,1/2-z
1/2+x,1/2+y,1/2-z
1/2-x,1/2+y,1/2+z
1/2+x,1/2-y,1/2+z
loop_
_atom_site_type_symbol
_atom_site_label
_atom_site_fract_x
_atom_site_fract_y
_atom_site_fract_z
Si Si1 0.674249 0.553443 0.415292
Si Si2 0.179960 0.885621 0.635360
Si Si3 0.819241 0.445517 0.000000
Si Si4 0.322257 0.883204 0.799880
Si Si5 0.829374 0.293046 0.089258
Si Si6 0.820919 0.698140 0.587646
O O1 0.714643 0.566530 0.500000
O O2 0.500000 0.565226 0.403897
O O3 0.685179 0.500000 0.410711
O O4 0.774979 0.576824 0.354449
O O5 0.250997 0.920156 0.573658
O O6 0.240705 0.890146 0.720392
O O7 0.233797 0.835649 0.613962
O O8 0.000000 0.889448 0.633107
O O9 0.790375 0.500000 0.000000
O O10 0.000000 0.439768 0.000000
O O11 0.500000 0.882063 0.787409
O O12 0.282140 0.839282 0.850272
O O13 0.756218 0.245230 0.107410
O O14 0.000000 0.296118 0.117447
O O15 0.835113 0.294864 0.000000
O O16 0.781933 0.687149 0.500000
O O17 0.000000 0.703137 0.589022
#
# Coordination Sequence:
#
# PCOD9524815 Si02
#       6
#    16  16   8  16  16  16
#     4   9  19  37  60  85 116 156 199 244 296 358
#     4  12  25  41  64  90 120 159 198 244 302 365
#     4  11  25  47  73  97 121 151 195 253 312 371
#     4  11  23  38  58  87 124 161 201 254 304 354
#     4  10  20  36  61  88 118 156 201 250 298 357
#     4   9  19  36  58  86 121 161 205 250 298 353
#
# _framework density 9.0534979999999994
#
# number of rings (size 3 to 8) (size 9 to 14) (size 15 to 20)
#    0.000    1.727    0.909    4.091    0.000    5.818 
#    0.000    2.727    0.000    0.000    0.000    0.000 
#    0.000    0.000    0.000    0.000    0.000    0.000 
#
# Total GULP energy -245521.632061 kJ/mol
# GULP energy per Si atom -5580.037092 kJ/mol
# Density = 0.903289 g / cm^3
# Si number density = 9.053498 Si / 1000 Ang^3
#
#
#
# Elastic Constant Matrix: (Units=GPa)
#
#
# Indices 1 2 3 4 5 6 
#
# 1 114.1350 52.4478 62.0041 0.0000 0.0000 0.0000
# 2 52.4478 107.5486 66.9506 0.0000 0.0000 0.0000
# 3 62.0041 66.9506 137.1015 -0.0001 0.0000 0.0000
# 4 0.0000 0.0000 -0.0001 25.8527 0.0000 0.0000
# 5 0.0000 0.0000 0.0000 0.0000 35.3601 0.0000
# 6 0.0000 0.0000 0.0000 0.0000 0.0000 34.3000
#
#
#
# Elastic Compliance Matrix: (Units=1/GPa)
#
#
# Indices 1 2 3 4 5 6 
#
# 1 0.012574 -0.003724 -0.003868 0.000000 0.000000 0.000000
# 2 -0.003724 0.014462 -0.005378 0.000000 0.000000 0.000000
# 3 -0.003868 -0.005378 0.011669 0.000000 0.000000 0.000000
# 4 0.000000 0.000000 0.000000 0.038681 0.000000 0.000000
# 5 0.000000 0.000000 0.000000 0.000000 0.028280 0.000000
# 6 0.000000 0.000000 0.000000 0.000000 0.000000 0.029155
#
#
# Mechanical properties :
#
#
# Convention : Reuss Voigt Hill
#
# Bulk Modulus (GPa) = 78.33709 80.17668 79.25689
# Shear Modulus (GPa) = 30.29986 30.92805 30.61396
#
# Velocity S-wave (km/s) = 4.09513 4.13737 4.11630
# Velocity P-wave (km/s) = 8.10663 8.19752 8.15220
#
# Compressibility (1/GPa) = 0.01276535
#
# Stress axis : x y z
#
# Youngs Moduli (GPa) = 79.52785 69.14597 85.69356
#
# Poissons Ratio (x) = 0.25750 0.33147
# Poissons Ratio (y) = 0.29617 0.46087
# Poissons Ratio (z) = 0.30762 0.37187
#
# Static dielectric constant tensor:
#      x y z
#    x 1.620710 0.000000 0.000000 
#    y 0.000000 1.620470 0.000000 
#    z 0.000000 0.000000 1.621970 
# 
# From -- ./inp_files/42509.got.cif
#   From: 2010.05.17/outbox.ucp.g08.bks.cvg/sg71_22_cif.got.tgz:42509.got - 2010.06.11 16:29:00.
