data_PCOD9524909
_publ_section_title
;
Structure prediction by ZEFSAII (Michael W. Deem and Ramdas Pophale) SiO2 
 PCOD9524909
Probable space group: I M M M
;
_chemical_formula_sum "Si O2"
_cell_formula_units_Z 36
_cell_length_a 15.000000
_cell_length_b 9.000000
_cell_length_c 27.000000
_cell_angle_alpha 90.000000
_cell_angle_beta 90.000000
_cell_angle_gamma 90.000000
_cell_volume 3645.000000
_symmetry_space_group_name_H-M "I M M M"
_symmetry_group_IT_number 71
_symmetry_cell_setting 'orthorhombic'
loop_
_space_group_symop_operation_xyz
x,y,z
-x,-y,z
x,-y,-z
-x,y,-z
-x,-y,-z
x,y,-z
-x,y,z
x,-y,z
1/2+x,1/2+y,1/2+z
1/2-x,1/2-y,1/2+z
1/2+x,1/2-y,1/2-z
1/2-x,1/2+y,1/2-z
1/2-x,1/2-y,1/2-z
1/2+x,1/2+y,1/2-z
1/2-x,1/2+y,1/2+z
1/2+x,1/2-y,1/2+z
loop_
_atom_site_type_symbol
_atom_site_label
_atom_site_fract_x
_atom_site_fract_y
_atom_site_fract_z
Si Si1 0.000000 0.822890 0.335423
Si Si2 0.000000 0.681413 0.057394
Si Si3 0.500000 0.821198 0.273563
Si Si4 0.687444 0.326224 0.708739
Si Si5 0.171870 0.328648 0.380288
Si Si6 0.192595 0.330983 0.940834
O O1 0.911494 0.770728 0.364189
O O2 0.000000 0.735251 0.283338
O O3 0.000000 0.000000 0.327557
O O4 0.096060 0.726541 0.078666
O O5 0.000000 0.500000 0.057997
O O6 0.000000 0.729980 0.000000
O O7 0.592412 0.756270 0.295396
O O8 0.500000 0.000000 0.276355
O O9 0.671404 0.500000 0.721089
O O10 0.750000 0.250000 0.750000
O O11 0.749365 0.319430 0.660444
O O12 0.143685 0.500000 0.384414
O O13 0.222885 0.267330 0.427902
O O14 0.205676 0.500000 0.921967
O O15 0.183195 0.339417 0.000000
#
# Coordination Sequence:
#
# PCOD9524909 Si02
#       6
#     8   8   8  16  16  16
#     4  12  24  40  64  86 112 153 201 247 299 362
#     4   7  12  27  53  82 112 148 188 233 282 334
#     4  12  24  39  61  89 123 158 199 248 300 357
#     4  11  23  39  60  86 119 158 199 244 296 354
#     4  11  24  40  60  87 121 155 196 247 301 357
#     4   9  18  35  60  89 121 158 201 245 292 351
#
# _framework density 9.8765429999999999
#
# number of rings (size 3 to 8) (size 9 to 14) (size 15 to 20)
#    0.000    1.667    2.222    4.667    0.000    4.000 
#    0.000    3.333    0.000    5.333    0.000    0.000 
#    0.000    0.000    0.000    0.000    0.000    0.000 
#
# Total GULP energy -200935.204851 kJ/mol
# GULP energy per Si atom -5581.533468 kJ/mol
# Density = 0.985406 g / cm^3
# Si number density = 9.876543 Si / 1000 Ang^3
#
#
#
# Elastic Constant Matrix: (Units=GPa)
#
#
# Indices 1 2 3 4 5 6 
#
# 1 147.1918 63.1912 20.1142 0.0000 0.0000 0.0000
# 2 63.1912 131.3539 14.0112 0.0000 0.0000 0.0000
# 3 20.1142 14.0112 33.5353 0.0000 0.0000 0.0000
# 4 0.0000 0.0000 0.0000 21.9148 0.0000 0.0000
# 5 0.0000 0.0000 0.0000 0.0000 25.9976 0.0000
# 6 0.0000 0.0000 0.0000 0.0000 0.0000 36.6075
#
#
#
# Elastic Compliance Matrix: (Units=1/GPa)
#
#
# Indices 1 2 3 4 5 6 
#
# 1 0.008992 -0.003925 -0.003753 0.000000 0.000000 0.000000
# 2 -0.003925 0.009682 -0.001691 0.000000 0.000000 0.000000
# 3 -0.003753 -0.001691 0.032777 0.000000 0.000000 0.000000
# 4 0.000000 0.000000 0.000000 0.045631 0.000000 0.000000
# 5 0.000000 0.000000 0.000000 0.000000 0.038465 0.000000
# 6 0.000000 0.000000 0.000000 0.000000 0.000000 0.027317
#
#
# Mechanical properties :
#
#
# Convention : Reuss Voigt Hill
#
# Bulk Modulus (GPa) = 30.56986 56.30158 43.43572
# Shear Modulus (GPa) = 25.97315 31.22161 28.59738
#
# Velocity S-wave (km/s) = 3.63008 3.97998 3.80905
# Velocity P-wave (km/s) = 5.75148 7.04875 6.43290
#
# Compressibility (1/GPa) = 0.03271196
#
# Stress axis : x y z
#
# Youngs Moduli (GPa) = 111.20987 103.28642 30.50931
#
# Poissons Ratio (x) = 0.40545 0.11451
# Poissons Ratio (y) = 0.43655 0.05158
# Poissons Ratio (z) = 0.41740 0.17462
#
# Static dielectric constant tensor:
#      x y z
#    x 1.697500 0.000000 0.000000 
#    y 0.000000 1.692120 0.000000 
#    z 0.000000 0.000000 1.759360 
# 
# From -- ./inp_files/14343.got.cif
#   From: 2010.05.17/outbox.ucp.g08.bks.cvg/sg71_8_cif.got.tgz:14343.got - 2010.06.11 16:29:00.
