data_PCOD9524923
_publ_section_title
;
Structure prediction by ZEFSAII (Michael W. Deem and Ramdas Pophale) SiO2 
 PCOD9524923
Probable space group: I B A M
;
_chemical_formula_sum "Si O2"
_cell_formula_units_Z 96
_cell_length_a 28.239719
_cell_length_b 11.037256
_cell_length_c 14.634550
_cell_angle_alpha 90.000000
_cell_angle_beta 90.000000
_cell_angle_gamma 90.000000
_cell_volume 4561.428372
_symmetry_space_group_name_H-M "I B A M"
_symmetry_group_IT_number 72
_symmetry_cell_setting 'orthorhombic'
loop_
_space_group_symop_operation_xyz
x,y,z
-x,-y,z
x,-y,1/2-z
-x,y,1/2-z
-x,-y,-z
x,y,-z
-x,y,1/2+z
x,-y,1/2+z
1/2+x,1/2+y,1/2+z
1/2-x,1/2-y,1/2+z
1/2+x,1/2-y,-z
1/2-x,1/2+y,-z
1/2-x,1/2-y,1/2-z
1/2+x,1/2+y,1/2-z
1/2-x,1/2+y,z
1/2+x,1/2-y,z
loop_
_atom_site_type_symbol
_atom_site_label
_atom_site_fract_x
_atom_site_fract_y
_atom_site_fract_z
Si Si1 0.885082 0.510538 0.358558
Si Si2 0.776184 0.759959 0.847369
Si Si3 0.480977 0.873379 0.642979
Si Si4 0.980541 0.124975 0.353701
Si Si5 0.617081 0.733567 0.605788
Si Si6 0.778496 0.491782 0.862015
O O1 0.882125 0.500000 0.250000
O O2 0.924945 0.611232 0.371611
O O3 0.898909 0.374976 0.390455
O O4 0.832244 0.537306 0.391253
O O5 0.750000 0.750000 0.750000
O O6 0.833106 0.771632 0.840948
O O7 0.767393 0.628822 0.893228
O O8 0.755490 0.882640 0.890169
O O9 0.500000 0.873574 0.750000
O O10 0.498729 0.747675 0.603655
O O11 0.500000 0.000000 0.605144
O O12 0.924166 0.146884 0.356681
O O13 0.000000 0.124495 0.250000
O O14 0.000000 0.000000 0.394240
O O15 0.626141 0.703526 0.500000
O O16 0.777538 0.500000 0.750000
#
# Coordination Sequence:
#
# PCOD9524923 Si02
#       6
#    16  16  16  16  16  16
#     4  10  16  31  57  86 114 156 203 250 297 363
#     4   9  18  36  56  86 115 157 203 248 300 375
#     4  10  15  27  54  83 114 146 193 253 297 336
#     4  10  21  38  56  90 122 167 216 261 298 372
#     4  11  23  39  61  90 129 167 200 254 336 381
#     4   8  16  29  51  79 110 142 194 246 291 342
#
# _framework density 21.046037999999999
#
# number of rings (size 3 to 8) (size 9 to 14) (size 15 to 20)
#    0.000    2.333    3.333    2.000    0.000    0.333 
#   12.000    5.000    0.000    0.000    0.000    0.000 
#    0.000    0.000    0.000    0.000    0.000    0.000 
#
# Total GULP energy -267472.200615 kJ/mol
# GULP energy per Si atom -5572.337513 kJ/mol
# Density = 2.099814 g / cm^3
# Si number density = 21.046038 Si / 1000 Ang^3
#
#
#
# Elastic Constant Matrix: (Units=GPa)
#
#
# Indices 1 2 3 4 5 6 
#
# 1 153.7358 90.8425 19.9552 0.0000 0.0000 0.0000
# 2 90.8425 195.1123 0.2793 0.0000 0.0000 0.0000
# 3 19.9552 0.2793 95.1609 0.0000 0.0000 0.0000
# 4 0.0000 0.0000 0.0000 -16.8505 0.0000 0.0000
# 5 0.0000 0.0000 0.0000 0.0000 -111.7301 0.0000
# 6 0.0000 0.0000 0.0000 0.0000 0.0000 32.1688
#
#
#
# Elastic Compliance Matrix: (Units=1/GPa)
#
#
# Indices 1 2 3 4 5 6 
#
# 1 0.009319 -0.004336 -0.001941 0.000000 0.000000 0.000000
# 2 -0.004336 0.007143 0.000888 0.000000 0.000000 0.000000
# 3 -0.001941 0.000888 0.010913 0.000000 0.000000 0.000000
# 4 0.000000 0.000000 0.000000 -0.059345 0.000000 0.000000
# 5 0.000000 0.000000 0.000000 0.000000 -0.008950 0.000000
# 6 0.000000 0.000000 0.000000 0.000000 0.000000 0.031086
#
#
# Mechanical properties :
#
#
# Convention : Reuss Voigt Hill
#
# Bulk Modulus (GPa) = 60.25408 74.01811 67.13609
# Shear Modulus (GPa) = 772.14420 2.91310 387.52865
#
# Velocity S-wave (km/s) = 19.17498 1.17778 13.58431
# Velocity P-wave (km/s) = 22.78007 6.09061 16.67374
#
# Compressibility (1/GPa) = 0.01659639
#
# Stress axis : x y z
#
# Youngs Moduli (GPa) = 107.31018 140.00184 91.63359
#
# Poissons Ratio (x) = 0.60704 0.17790
# Poissons Ratio (y) = 0.46529 -0.08140
# Poissons Ratio (z) = 0.20833 -0.12436
#
# Static dielectric constant tensor:
#      x y z
#    x 1.787370 0.000000 0.000000 
#    y 0.000000 1.787040 0.000000 
#    z 0.000000 0.000000 1.784760 
# 
# From -- ./inp_files/33882.got.cif
#   From: 2010.05.17/outbox.cif.g08.bks.cpg/sg72_17_cif.got.tgz:33882.got - 2010.06.03 17:03:01.
