data_PCOD9524660
_publ_section_title
;
Structure prediction by ZEFSAII (Michael W. Deem and Ramdas Pophale) SiO2 
 PCOD9524660
Probable space group: I M M M
;
_chemical_formula_sum "Si O2"
_cell_formula_units_Z 56
_cell_length_a 24.749979
_cell_length_b 13.753212
_cell_length_c 7.442128
_cell_angle_alpha 90.000000
_cell_angle_beta 90.000000
_cell_angle_gamma 90.000000
_cell_volume 2533.238662
_symmetry_space_group_name_H-M "I M M M"
_symmetry_group_IT_number 71
_symmetry_cell_setting 'orthorhombic'
loop_
_space_group_symop_operation_xyz
x,y,z
-x,-y,z
x,-y,-z
-x,y,-z
-x,-y,-z
x,y,-z
-x,y,z
x,-y,z
1/2+x,1/2+y,1/2+z
1/2-x,1/2-y,1/2+z
1/2+x,1/2-y,1/2-z
1/2-x,1/2+y,1/2-z
1/2-x,1/2-y,1/2-z
1/2+x,1/2+y,1/2-z
1/2-x,1/2+y,1/2+z
1/2+x,1/2-y,1/2+z
loop_
_atom_site_type_symbol
_atom_site_label
_atom_site_fract_x
_atom_site_fract_y
_atom_site_fract_z
Si Si1 0.564329 0.392749 0.500000
Si Si2 0.288049 0.394995 0.207292
Si Si3 0.675557 0.183356 0.783111
Si Si4 0.061587 0.730137 0.285393
O O1 0.588255 0.500000 0.500000
O O2 0.500000 0.403521 0.500000
O O3 0.574238 0.328568 0.676837
O O4 0.302440 0.500000 0.286637
O O5 0.310093 0.293174 0.283038
O O6 0.223056 0.383990 0.212173
O O7 0.305931 0.395936 0.000000
O O8 0.612938 0.162269 0.740352
O O9 0.680760 0.181804 0.000000
O O10 0.062731 0.746413 0.500000
O O11 0.000000 0.699024 0.238831
#
# Coordination Sequence:
#
# PCOD9524660 Si02
#       4
#     8  16  16  16
#     4   9  18  30  44  68  99 131 169 205 241 294
#     4   9  18  32  50  72  99 130 164 206 254 298
#     4   9  18  32  51  73  99 130 166 207 248 300
#     4   9  18  32  50  72  99 133 167 203 250 300
#
# _framework density 22.106089999999998
#
# number of rings (size 3 to 8) (size 9 to 14) (size 15 to 20)
#    0.000    3.000    0.000    0.000    2.000    2.286 
#    0.000    5.714    0.000    0.857    0.000    6.000 
#    0.000    0.000    0.000    0.000    0.000    0.000 
#
# Total GULP energy -155948.781769 kJ/mol
# GULP energy per Si atom -5569.599349 kJ/mol
# Density = 2.205578 g / cm^3
# Si number density = 22.106090 Si / 1000 Ang^3
#
#
#
# Elastic Constant Matrix: (Units=GPa)
#
#
# Indices 1 2 3 4 5 6 
#
# 1 139.2604 1.2130 6.6048 0.0000 0.0000 0.0000
# 2 1.2130 41.5911 -5.0287 0.0000 0.0000 0.0000
# 3 6.6048 -5.0287 59.1074 0.0000 0.0000 0.0000
# 4 0.0000 0.0000 0.0000 20.7749 0.0000 0.0000
# 5 0.0000 0.0000 0.0000 0.0000 18.5666 0.0000
# 6 0.0000 0.0000 0.0000 0.0000 0.0000 4.5215
#
#
#
# Elastic Compliance Matrix: (Units=1/GPa)
#
#
# Indices 1 2 3 4 5 6 
#
# 1 0.007223 -0.000311 -0.000834 0.000000 0.000000 0.000000
# 2 -0.000311 0.024307 0.002103 0.000000 0.000000 0.000000
# 3 -0.000834 0.002103 0.017190 0.000000 0.000000 0.000000
# 4 0.000000 0.000000 0.000000 0.048135 0.000000 0.000000
# 5 0.000000 0.000000 0.000000 0.000000 0.053860 0.000000
# 6 0.000000 0.000000 0.000000 0.000000 0.000000 0.221166
#
#
# Mechanical properties :
#
#
# Convention : Reuss Voigt Hill
#
# Bulk Modulus (GPa) = 19.74888 27.28190 23.51539
# Shear Modulus (GPa) = 12.92507 24.58393 18.75450
#
# Velocity S-wave (km/s) = 2.42065 3.33842 2.91587
# Velocity P-wave (km/s) = 4.09460 5.21806 4.69009
#
# Compressibility (1/GPa) = 0.05063577
#
# Stress axis : x y z
#
# Youngs Moduli (GPa) = 138.44584 41.14052 58.17203
#
# Poissons Ratio (x) = 0.01281 0.04849
# Poissons Ratio (y) = 0.04312 -0.12232
# Poissons Ratio (z) = 0.11541 -0.08651
#
# Static dielectric constant tensor:
#      x y z
#    x 1.866490 0.000000 0.000000 
#    y 0.000000 1.804810 0.000000 
#    z 0.000000 0.000000 1.897440 
# 
# From -- ./inp_files/3323.got.cif
#   From: 2010.05.17/outbox.cif.g08.bks.cpg/sg71_2_cif.got.tgz:3323.got - 2010.06.03 16:22:01.
