data_PCOD9524128
_publ_section_title
;
Structure prediction by ZEFSAII (Michael W. Deem and Ramdas Pophale) SiO2 
 PCOD9524128
Probable space group: I M M M
;
_chemical_formula_sum "Si O2"
_cell_formula_units_Z 108
_cell_length_a 16.369703
_cell_length_b 23.322098
_cell_length_c 14.635506
_cell_angle_alpha 90.000000
_cell_angle_beta 90.000000
_cell_angle_gamma 90.000000
_cell_volume 5587.482269
_symmetry_space_group_name_H-M "I M M M"
_symmetry_group_IT_number 71
_symmetry_cell_setting 'orthorhombic'
loop_
_space_group_symop_operation_xyz
x,y,z
-x,-y,z
x,-y,-z
-x,y,-z
-x,-y,-z
x,y,-z
-x,y,z
x,-y,z
1/2+x,1/2+y,1/2+z
1/2-x,1/2-y,1/2+z
1/2+x,1/2-y,1/2-z
1/2-x,1/2+y,1/2-z
1/2-x,1/2-y,1/2-z
1/2+x,1/2+y,1/2-z
1/2-x,1/2+y,1/2+z
1/2+x,1/2-y,1/2+z
loop_
_atom_site_type_symbol
_atom_site_label
_atom_site_fract_x
_atom_site_fract_y
_atom_site_fract_z
Si Si1 0.000000 0.430363 0.606809
Si Si2 0.142859 0.266954 0.151199
Si Si3 0.911206 0.863292 0.391447
Si Si4 0.000000 0.265232 0.000000
Si Si5 0.091203 0.273031 0.642315
Si Si6 0.666395 0.932341 0.786726
Si Si7 0.730583 0.116933 0.391900
Si Si8 0.251952 0.661202 0.397323
O O1 0.919230 0.415284 0.664972
O O2 0.000000 0.500000 0.602782
O O3 0.000000 0.411479 0.500000
O O4 0.107347 0.280669 0.250180
O O5 0.206415 0.316438 0.122033
O O6 0.187904 0.205783 0.151615
O O7 0.071130 0.265748 0.078777
O O8 0.913950 0.873192 0.500000
O O9 0.905107 0.794840 0.377551
O O10 0.825293 0.890816 0.362603
O O11 0.000000 0.881704 0.352530
O O12 0.165418 0.305899 0.596615
O O13 0.000000 0.292586 0.617027
O O14 0.673524 0.916885 0.679458
O O15 0.734572 0.895272 0.839127
O O16 0.677185 0.000000 0.798826
O O17 0.720677 0.103013 0.500000
O O18 0.281155 0.649112 0.500000
#
# Coordination Sequence:
#
# PCOD9524128 Si02
#       8
#     8  16  16   4  16  16  16  16
#     4   9  20  43  67  86 117 155 198 252 306 361
#     4  12  22  40  56  87 122 161 198 240 298 363
#     4   9  18  33  54  87 125 157 189 234 301 370
#     4  12  24  38  60  86 130 164 200 236 300 394
#     4  11  21  32  54  84 120 156 190 233 291 358
#     4  11  25  42  61  86 117 160 208 255 307 364
#     4  11  21  38  63  87 122 160 202 256 302 365
#     4  12  23  36  60  87 122 154 195 248 297 363
#
# _framework density 19.328921000000001
#
# number of rings (size 3 to 8) (size 9 to 14) (size 15 to 20)
#    0.000    1.111    5.185    2.222    1.037    2.667 
#    0.000    0.000    0.000    1.778    0.000    2.593 
#    0.000    0.000    0.000    0.000    0.000    0.000 
#
# Total GULP energy -301017.040774 kJ/mol
# GULP energy per Si atom -5574.389644 kJ/mol
# Density = 1.928493 g / cm^3
# Si number density = 19.328921 Si / 1000 Ang^3
#
#
#
# Elastic Constant Matrix: (Units=GPa)
#
#
# Indices 1 2 3 4 5 6 
#
# 1 117.8526 18.1916 38.8217 0.0000 0.0000 0.0000
# 2 18.1916 42.1500 38.9650 0.0000 0.0000 0.0000
# 3 38.8217 38.9650 101.8926 -0.0002 -0.0001 0.0001
# 4 0.0000 0.0000 -0.0002 12.6161 0.0000 0.0001
# 5 0.0000 0.0000 -0.0001 0.0000 35.9076 0.0000
# 6 0.0000 0.0000 0.0001 0.0001 0.0000 -99.2248
#
#
#
# Elastic Compliance Matrix: (Units=1/GPa)
#
#
# Indices 1 2 3 4 5 6 
#
# 1 0.009742 -0.001196 -0.003254 0.000000 0.000000 0.000000
# 2 -0.001196 0.036845 -0.013634 0.000000 0.000000 0.000000
# 3 -0.003254 -0.013634 0.016268 0.000000 0.000000 0.000000
# 4 0.000000 0.000000 0.000000 0.079264 0.000000 0.000000
# 5 0.000000 0.000000 0.000000 0.000000 0.027849 0.000000
# 6 0.000000 0.000000 0.000000 0.000000 0.000000 -0.010078
#
#
# Mechanical properties :
#
#
# Convention : Reuss Voigt Hill
#
# Bulk Modulus (GPa) = 37.47341 50.42798 43.95070
# Shear Modulus (GPa) = 24.39564 0.92091 12.65827
#
# Velocity S-wave (km/s) = 3.55650 0.69099 2.56185
# Velocity P-wave (km/s) = 6.02447 5.17520 5.61591
#
# Compressibility (1/GPa) = 0.02668559
#
# Stress axis : x y z
#
# Youngs Moduli (GPa) = 102.65056 27.14067 61.47015
#
# Poissons Ratio (x) = 0.03246 0.20004
# Poissons Ratio (y) = 0.12278 0.83810
# Poissons Ratio (z) = 0.33405 0.37004
#
# Static dielectric constant tensor:
#      x y z
#    x 1.706740 0.000000 0.000000 
#    y 0.000000 1.685430 0.000000 
#    z 0.000000 0.000000 1.699450 
# 
# From -- ./inp_files/34936.got.cif
#   From: 2010.05.17/outbox.cif.g08.bks.cpg/sg71_18_cif.got.tgz:34936.got - 2010.06.03 16:22:01.
