data_PCOD9524576
_publ_section_title
;
Structure prediction by ZEFSAII (Michael W. Deem and Ramdas Pophale) SiO2 
 PCOD9524576
Probable space group: I M M M
;
_chemical_formula_sum "Si O2"
_cell_formula_units_Z 104
_cell_length_a 21.215822
_cell_length_b 7.427239
_cell_length_c 33.268610
_cell_angle_alpha 90.000000
_cell_angle_beta 90.000000
_cell_angle_gamma 90.000000
_cell_volume 5242.300575
_symmetry_space_group_name_H-M "I M M M"
_symmetry_group_IT_number 71
_symmetry_cell_setting 'orthorhombic'
loop_
_space_group_symop_operation_xyz
x,y,z
-x,-y,z
x,-y,-z
-x,y,-z
-x,-y,-z
x,y,-z
-x,y,z
x,-y,z
1/2+x,1/2+y,1/2+z
1/2-x,1/2-y,1/2+z
1/2+x,1/2-y,1/2-z
1/2-x,1/2+y,1/2-z
1/2-x,1/2-y,1/2-z
1/2+x,1/2+y,1/2-z
1/2-x,1/2+y,1/2+z
1/2+x,1/2-y,1/2+z
loop_
_atom_site_type_symbol
_atom_site_label
_atom_site_fract_x
_atom_site_fract_y
_atom_site_fract_z
Si Si1 0.132858 0.218050 0.078700
Si Si2 0.692303 0.714961 0.131382
Si Si3 0.500000 0.280216 0.453905
Si Si4 0.928678 0.219553 0.229078
Si Si5 0.824494 0.215857 0.166215
Si Si6 0.264575 0.289118 0.955957
Si Si7 0.429544 0.719624 0.177954
O O1 0.064285 0.280667 0.066199
O O2 0.148931 0.280385 0.123468
O O3 0.189219 0.275511 0.049658
O O4 0.133064 0.000000 0.078590
O O5 0.687099 0.500000 0.127236
O O6 0.750160 0.744497 0.162455
O O7 0.708600 0.786172 0.086478
O O8 0.627236 0.783163 0.150023
O O9 0.500000 0.500000 0.452322
O O10 0.500000 0.227261 0.500000
O O11 0.870519 0.281925 0.201503
O O12 0.920393 0.273250 0.275525
O O13 0.000000 0.273469 0.216065
O O14 0.928549 0.000000 0.228196
O O15 0.829237 0.000000 0.167106
O O16 0.281489 0.500000 0.956794
O O17 0.282090 0.213317 0.000000
O O18 0.500000 0.774640 0.165431
O O19 0.428471 0.500000 0.177621
#
# Coordination Sequence:
#
# PCOD9524576 Si02
#       7
#    16  16   8  16  16  16  16
#     4   9  17  27  40  58  80 106 136 171 208 242
#     4   9  17  29  45  63  84 109 138 172 209 248
#     4   9  16  24  35  53  75  99 131 171 209 237
#     4   8  14  24  40  62  87 113 142 174 204 238
#     4   9  17  27  41  63  87 110 139 173 207 243
#     4   9  17  29  43  58  79 107 136 166 204 250
#     4   8  14  26  44  65  85 108 139 170 202 246
#
# _framework density 19.838616999999999
#
# number of rings (size 3 to 8) (size 9 to 14) (size 15 to 20)
#    0.000    3.308    0.000    1.385    1.077    1.538 
#    0.000    0.385    0.000    2.769    0.000    5.385 
#    0.000    0.000    0.000    7.692    0.000    8.000 
#
# Total GULP energy -289789.234046 kJ/mol
# GULP energy per Si atom -5572.869885 kJ/mol
# Density = 1.979346 g / cm^3
# Si number density = 19.838617 Si / 1000 Ang^3
#
#
#
# Elastic Constant Matrix: (Units=GPa)
#
#
# Indices 1 2 3 4 5 6 
#
# 1 176.2538 1.0476 101.3747 0.0000 0.0000 0.0000
# 2 1.0476 63.0609 4.6018 0.0000 0.0000 0.0000
# 3 101.3747 4.6018 109.5615 0.0000 0.0000 0.0000
# 4 0.0000 0.0000 0.0000 2.8498 0.0000 0.0000
# 5 0.0000 0.0000 0.0000 0.0000 14.6656 0.0000
# 6 0.0000 0.0000 0.0000 0.0000 0.0000 10.6104
#
#
#
# Elastic Compliance Matrix: (Units=1/GPa)
#
#
# Indices 1 2 3 4 5 6 
#
# 1 0.012152 0.000621 -0.011270 0.000000 0.000000 0.000000
# 2 0.000621 0.015938 -0.001244 0.000000 0.000000 0.000000
# 3 -0.011270 -0.001244 0.019607 0.000000 0.000000 0.000000
# 4 0.000000 0.000000 0.000000 0.350903 0.000000 0.000000
# 5 0.000000 0.000000 0.000000 0.000000 0.068187 0.000000
# 6 0.000000 0.000000 0.000000 0.000000 0.000000 0.094247
#
#
# Mechanical properties :
#
#
# Convention : Reuss Voigt Hill
#
# Bulk Modulus (GPa) = 41.82111 62.54715 52.18413
# Shear Modulus (GPa) = 8.43466 21.74863 15.09164
#
# Velocity S-wave (km/s) = 2.06419 3.31460 2.76111
# Velocity P-wave (km/s) = 5.17760 6.80038 6.04371
#
# Compressibility (1/GPa) = 0.02391137
#
# Stress axis : x y z
#
# Youngs Moduli (GPa) = 82.29026 62.74262 51.00091
#
# Poissons Ratio (x) = -0.03893 0.57479
# Poissons Ratio (y) = -0.05106 0.06343
# Poissons Ratio (z) = 0.92742 0.07803
#
# Static dielectric constant tensor:
#      x y z
#    x 1.731860 0.000000 0.000000 
#    y 0.000000 1.781540 0.000000 
#    z 0.000000 0.000000 1.698810 
# 
# From -- ./inp_files/66784.got.cif
#   From: 2010.05.17/outbox.cif.g08.bks.cpg/sg71_34_cif.got.tgz:66784.got - 2010.06.03 16:22:01.
