data_PCOD9524545
_publ_section_title
;
Structure prediction by ZEFSAII (Michael W. Deem and Ramdas Pophale) SiO2 
 PCOD9524545
Probable space group: I M M M
;
_chemical_formula_sum "Si O2"
_cell_formula_units_Z 96
_cell_length_a 33.683500
_cell_length_b 7.378708
_cell_length_c 19.668911
_cell_angle_alpha 90.000000
_cell_angle_beta 90.000000
_cell_angle_gamma 90.000000
_cell_volume 4888.525123
_symmetry_space_group_name_H-M "I M M M"
_symmetry_group_IT_number 71
_symmetry_cell_setting 'orthorhombic'
loop_
_space_group_symop_operation_xyz
x,y,z
-x,-y,z
x,-y,-z
-x,y,-z
-x,-y,-z
x,y,-z
-x,y,z
x,-y,z
1/2+x,1/2+y,1/2+z
1/2-x,1/2-y,1/2+z
1/2+x,1/2-y,1/2-z
1/2-x,1/2+y,1/2-z
1/2-x,1/2-y,1/2-z
1/2+x,1/2+y,1/2-z
1/2-x,1/2+y,1/2+z
1/2+x,1/2-y,1/2+z
loop_
_atom_site_type_symbol
_atom_site_label
_atom_site_fract_x
_atom_site_fract_y
_atom_site_fract_z
Si Si1 0.589393 0.778957 0.923767
Si Si2 0.165809 0.721150 0.922971
Si Si3 0.834093 0.285036 0.656131
Si Si4 0.877719 0.721310 0.789721
Si Si5 0.955435 0.279228 0.288813
Si Si6 0.255959 0.283516 0.076027
O O1 0.633085 0.719599 0.898222
O O2 0.559126 0.724983 0.864257
O O3 0.589046 0.000000 0.925231
O O4 0.580761 0.717079 0.000000
O O5 0.165528 0.500000 0.922654
O O6 0.136696 0.782146 0.863403
O O7 0.211282 0.779022 0.908294
O O8 0.155895 0.777054 0.000000
O O9 0.839651 0.500000 0.658910
O O10 0.846899 0.219466 0.730697
O O11 0.789844 0.255069 0.630390
O O12 0.877732 0.500000 0.790983
O O13 0.921243 0.777409 0.763912
O O14 0.955536 0.500000 0.288262
O O15 0.000000 0.218321 0.274314
O O16 0.253578 0.500000 0.071994
O O17 0.267049 0.216803 0.000000
#
# Coordination Sequence:
#
# PCOD9524545 Si02
#       6
#    16  16  16  16  16  16
#     4   8  13  20  30  46  69  97 126 151 178 219
#     4   8  14  25  39  52  68  94 126 157 190 229
#     4   9  16  25  38  56  78 104 131 159 193 228
#     4   8  14  24  37  53  72  95 124 155 189 232
#     4   8  13  20  30  46  69  95 120 150 190 227
#     4   9  17  27  38  54  76 102 134 167 190 213
#
# _framework density 19.637824999999999
#
# number of rings (size 3 to 8) (size 9 to 14) (size 15 to 20)
#    0.000    3.667    0.000    3.500    0.000    2.000 
#    0.000    1.667    0.000    0.500    0.000    3.500 
#    0.000   10.667    0.000   36.667    0.000   30.667 
#
# Total GULP energy -267527.643501 kJ/mol
# GULP energy per Si atom -5573.492573 kJ/mol
# Density = 1.959313 g / cm^3
# Si number density = 19.637825 Si / 1000 Ang^3
#
#
#
# Elastic Constant Matrix: (Units=GPa)
#
#
# Indices 1 2 3 4 5 6 
#
# 1 145.9597 2.4535 131.0395 0.0000 0.0000 0.0000
# 2 2.4535 64.8322 4.1879 0.0000 0.0000 0.0000
# 3 131.0395 4.1879 170.5153 0.0000 0.0000 0.0000
# 4 0.0000 0.0000 0.0000 -4.1153 0.0000 0.0000
# 5 0.0000 0.0000 0.0000 0.0000 12.4226 0.0000
# 6 0.0000 0.0000 0.0000 0.0000 0.0000 16.6797
#
#
#
# Elastic Compliance Matrix: (Units=1/GPa)
#
#
# Indices 1 2 3 4 5 6 
#
# 1 0.022100 0.000261 -0.016990 0.000000 0.000000 0.000000
# 2 0.000261 0.015452 -0.000580 0.000000 0.000000 0.000000
# 3 -0.016990 -0.000580 0.018936 0.000000 0.000000 0.000000
# 4 0.000000 0.000000 0.000000 -0.242996 0.000000 0.000000
# 5 0.000000 0.000000 0.000000 0.000000 0.080498 0.000000
# 6 0.000000 0.000000 0.000000 0.000000 0.000000 0.059953
#
#
# Mechanical properties :
#
#
# Convention : Reuss Voigt Hill
#
# Bulk Modulus (GPa) = 45.72606 72.96322 59.34464
# Shear Modulus (GPa) = -1205.64649 21.23915 -592.20367
#
# Velocity S-wave (km/s) = -24.80471 3.29225 -17.38440
# Velocity P-wave (km/s) = 28.23172 7.18937 19.30470
#
# Compressibility (1/GPa) = 0.02186937
#
# Stress axis : x y z
#
# Youngs Moduli (GPa) = 45.24791 64.71640 52.80996
#
# Poissons Ratio (x) = -0.01690 0.89726
# Poissons Ratio (y) = -0.01182 0.03064
# Poissons Ratio (z) = 0.76878 0.03755
#
# Static dielectric constant tensor:
#      x y z
#    x 1.672520 0.000000 0.000000 
#    y 0.000000 1.859530 0.000000 
#    z 0.000000 0.000000 1.679540 
# 
# From -- ./inp_files/56368.got.cif
#   From: 2010.05.17/outbox.cif.g08.bks.cpg/sg71_29_cif.got.tgz:56368.got - 2010.06.03 16:22:01.
