data_PCOD9524169
_publ_section_title
;
Structure prediction by ZEFSAII (Michael W. Deem and Ramdas Pophale) SiO2 
 PCOD9524169
Probable space group: I M M M
;
_chemical_formula_sum "Si O2"
_cell_formula_units_Z 96
_cell_length_a 29.723477
_cell_length_b 8.619371
_cell_length_c 18.862141
_cell_angle_alpha 90.000000
_cell_angle_beta 90.000000
_cell_angle_gamma 90.000000
_cell_volume 4832.436682
_symmetry_space_group_name_H-M "I M M M"
_symmetry_group_IT_number 71
_symmetry_cell_setting 'orthorhombic'
loop_
_space_group_symop_operation_xyz
x,y,z
-x,-y,z
x,-y,-z
-x,y,-z
-x,-y,-z
x,y,-z
-x,y,z
x,-y,z
1/2+x,1/2+y,1/2+z
1/2-x,1/2-y,1/2+z
1/2+x,1/2-y,1/2-z
1/2-x,1/2+y,1/2-z
1/2-x,1/2-y,1/2-z
1/2+x,1/2+y,1/2-z
1/2-x,1/2+y,1/2+z
1/2+x,1/2-y,1/2+z
loop_
_atom_site_type_symbol
_atom_site_label
_atom_site_fract_x
_atom_site_fract_y
_atom_site_fract_z
Si Si1 0.698599 0.178234 0.812950
Si Si2 0.275865 0.310731 0.580791
Si Si3 0.949914 0.683223 0.783214
Si Si4 0.360824 0.673539 0.920477
Si Si5 0.146669 0.184566 0.178989
Si Si6 0.449010 0.819789 0.887574
O O1 0.740756 0.243431 0.858305
O O2 0.659303 0.195412 0.870701
O O3 0.678346 0.262063 0.744543
O O4 0.707903 0.000000 0.794373
O O5 0.267334 0.258178 0.500000
O O6 0.272053 0.500000 0.580328
O O7 0.325576 0.269576 0.608642
O O8 0.949631 0.500000 0.798713
O O9 0.904049 0.753002 0.814385
O O10 0.946985 0.698430 0.697814
O O11 0.000000 0.744181 0.804296
O O12 0.350630 0.500000 0.893353
O O13 0.413709 0.703153 0.920256
O O14 0.343194 0.686816 0.000000
O O15 0.144223 0.000000 0.181319
O O16 0.500000 0.791463 0.909829
O O17 0.438273 0.000000 0.904319
#
# Coordination Sequence:
#
# PCOD9524169 Si02
#       6
#    16  16  16  16  16  16
#     4  11  21  36  58  80 107 148 192 226 264 323
#     4   9  20  38  58  82 113 149 187 227 273 328
#     4   9  18  34  56  82 112 145 182 225 272 327
#     4  11  23  35  48  72 107 142 179 229 282 323
#     4  11  21  34  58  89 116 142 180 232 282 325
#     4   9  18  33  52  72  97 136 183 226 270 325
#
# _framework density 19.865753999999999
#
# number of rings (size 3 to 8) (size 9 to 14) (size 15 to 20)
#    0.000    2.000    1.667    3.500    0.000    3.000 
#    0.000    5.833    0.000    6.500    0.000    3.500 
#    0.000    0.000    0.000    0.000    0.000    0.000 
#
# Total GULP energy -267675.881168 kJ/mol
# GULP energy per Si atom -5576.580858 kJ/mol
# Density = 1.982054 g / cm^3
# Si number density = 19.865754 Si / 1000 Ang^3
#
#
#
# Elastic Constant Matrix: (Units=GPa)
#
#
# Indices 1 2 3 4 5 6 
#
# 1 140.7700 26.3515 49.6970 0.0000 0.0000 0.0000
# 2 26.3515 23.0379 11.3966 0.0000 0.0000 0.0000
# 3 49.6970 11.3966 35.9389 0.0000 0.0000 0.0000
# 4 0.0000 0.0000 0.0000 -30.1963 0.0000 0.0000
# 5 0.0000 0.0000 0.0000 0.0000 33.1586 0.0000
# 6 0.0000 0.0000 0.0000 0.0000 0.0000 22.6623
#
#
#
# Elastic Compliance Matrix: (Units=1/GPa)
#
#
# Indices 1 2 3 4 5 6 
#
# 1 0.015089 -0.008228 -0.018256 0.000000 0.000000 0.000000
# 2 -0.008228 0.055970 -0.006370 0.000000 0.000000 0.000000
# 3 -0.018256 -0.006370 0.055090 0.000000 0.000000 0.000000
# 4 0.000000 0.000000 0.000000 -0.033117 0.000000 0.000000
# 5 0.000000 0.000000 0.000000 0.000000 0.030158 0.000000
# 6 0.000000 0.000000 0.000000 0.000000 0.000000 0.044126
#
#
# Mechanical properties :
#
#
# Convention : Reuss Voigt Hill
#
# Bulk Modulus (GPa) = 16.54551 41.62634 29.08593
# Shear Modulus (GPa) = 19.74927 12.61171 16.18049
#
# Velocity S-wave (km/s) = 3.15641 2.52235 2.85703
# Velocity P-wave (km/s) = 4.65088 5.42976 5.05534
#
# Compressibility (1/GPa) = 0.06043934
#
# Stress axis : x y z
#
# Youngs Moduli (GPa) = 66.27216 17.86676 18.15195
#
# Poissons Ratio (x) = 0.14701 0.33139
# Poissons Ratio (y) = 0.54531 0.11563
# Poissons Ratio (z) = 1.20990 0.11382
#
# Static dielectric constant tensor:
#      x y z
#    x 1.762670 0.000000 0.000000 
#    y 0.000000 1.688720 0.000000 
#    z 0.000000 0.000000 1.701500 
# 
# From -- ./inp_files/56146.got.cif
#   From: 2010.05.17/outbox.cif.g08.bks.cpg/sg71_29_cif.got.tgz:56146.got - 2010.06.03 16:22:01.
