data_PCOD9524997
_publ_section_title
;
Structure prediction by ZEFSAII (Michael W. Deem and Ramdas Pophale) SiO2 
 PCOD9524997
Probable space group: I B A M
;
_chemical_formula_sum "Si O2"
_cell_formula_units_Z 64
_cell_length_a 5.325473
_cell_length_b 14.293180
_cell_length_c 35.489894
_cell_angle_alpha 90.000000
_cell_angle_beta 90.000000
_cell_angle_gamma 90.000000
_cell_volume 2701.417770
_symmetry_space_group_name_H-M "I B A M"
_symmetry_group_IT_number 72
_symmetry_cell_setting 'orthorhombic'
loop_
_space_group_symop_operation_xyz
x,y,z
-x,-y,z
x,-y,1/2-z
-x,y,1/2-z
-x,-y,-z
x,y,-z
-x,y,1/2+z
x,-y,1/2+z
1/2+x,1/2+y,1/2+z
1/2-x,1/2-y,1/2+z
1/2+x,1/2-y,-z
1/2-x,1/2+y,-z
1/2-x,1/2-y,1/2-z
1/2+x,1/2+y,1/2-z
1/2-x,1/2+y,z
1/2+x,1/2-y,z
loop_
_atom_site_type_symbol
_atom_site_label
_atom_site_fract_x
_atom_site_fract_y
_atom_site_fract_z
Si Si1 0.935737 0.892463 0.851476
Si Si2 0.560559 0.108288 0.118647
Si Si3 0.254435 0.393551 0.266474
Si Si4 0.212791 0.312212 0.958105
O O1 0.720293 0.849176 0.878011
O O2 0.801422 0.894449 0.810911
O O3 0.219634 0.852677 0.853829
O O4 0.000000 0.000000 0.862180
O O5 0.670161 0.119516 0.076927
O O6 0.500000 0.000000 0.127622
O O7 0.254252 0.500000 0.250000
O O8 0.500000 0.346846 0.250000
O O9 0.000000 0.353761 0.250000
O O10 0.982712 0.238172 0.955600
O O11 0.195887 0.355692 0.000000
#
# Coordination Sequence:
#
# PCOD9524997 Si02
#       4
#    16  16  16  16
#     4  10  18  30  44  72 113 150 173 215 280 327
#     4  10  21  33  53  80 115 148 172 229 281 336
#     4  10  17  24  41  64 100 151 175 213 255 329
#     4  10  21  39  61  82 107 143 190 233 269 326
#
# _framework density 23.691265000000001
#
# number of rings (size 3 to 8) (size 9 to 14) (size 15 to 20)
#    0.000    2.000    2.500    3.000    7.000    0.500 
#    0.000    0.000    0.000    9.000    0.000    0.000 
#    0.000   70.000    0.000    0.000    0.000    0.000 
#
# Total GULP energy -178459.252418 kJ/mol
# GULP energy per Si atom -5576.851638 kJ/mol
# Density = 2.363734 g / cm^3
# Si number density = 23.691265 Si / 1000 Ang^3
#
#
#
# Elastic Constant Matrix: (Units=GPa)
#
#
# Indices 1 2 3 4 5 6 
#
# 1 241.7552 9.9707 48.9845 0.0000 0.0000 0.0000
# 2 9.9707 69.9331 -1.2456 0.0000 0.0000 0.0000
# 3 48.9845 -1.2456 139.8605 0.0000 0.0000 0.0000
# 4 0.0000 0.0000 0.0000 -147.6853 0.0000 0.0000
# 5 0.0000 0.0000 0.0000 0.0000 44.3932 0.0000
# 6 0.0000 0.0000 0.0000 0.0000 0.0000 3.1716
#
#
#
# Elastic Compliance Matrix: (Units=1/GPa)
#
#
# Indices 1 2 3 4 5 6 
#
# 1 0.004483 -0.000667 -0.001576 0.000000 0.000000 0.000000
# 2 -0.000667 0.014401 0.000362 0.000000 0.000000 0.000000
# 3 -0.001576 0.000362 0.007705 0.000000 0.000000 0.000000
# 4 0.000000 0.000000 0.000000 -0.006771 0.000000 0.000000
# 5 0.000000 0.000000 0.000000 0.000000 0.022526 0.000000
# 6 0.000000 0.000000 0.000000 0.000000 0.000000 0.315294
#
#
# Mechanical properties :
#
#
# Convention : Reuss Voigt Hill
#
# Bulk Modulus (GPa) = 43.80866 62.99644 53.40255
# Shear Modulus (GPa) = 13.54976 6.23186 9.89081
#
# Velocity S-wave (km/s) = 2.39410 1.62362 2.04547
# Velocity P-wave (km/s) = 5.11605 5.49210 5.30741
#
# Compressibility (1/GPa) = 0.02282654
#
# Stress axis : x y z
#
# Youngs Moduli (GPa) = 223.05006 69.43981 129.78187
#
# Poissons Ratio (x) = 0.04634 0.20456
# Poissons Ratio (y) = 0.14884 -0.04698
# Poissons Ratio (z) = 0.35156 -0.02513
#
# Static dielectric constant tensor:
#      x y z
#    x 1.993270 0.000000 0.000000 
#    y 0.000000 1.885940 0.000000 
#    z 0.000000 0.000000 1.972350 
# 
# From -- ./inp_files/46545.got.cif
#   From: 2010.05.17/outbox.cif.g08.bks.cpg/sg72_24_cif.got.tgz:46545.got - 2010.06.03 17:03:01.
