data_PCOD9524565
_publ_section_title
;
Structure prediction by ZEFSAII (Michael W. Deem and Ramdas Pophale) SiO2 
 PCOD9524565
Probable space group: I M M M
;
_chemical_formula_sum "Si O2"
_cell_formula_units_Z 64
_cell_length_a 13.937869
_cell_length_b 29.216401
_cell_length_c 7.469838
_cell_angle_alpha 90.000000
_cell_angle_beta 90.000000
_cell_angle_gamma 90.000000
_cell_volume 3041.825374
_symmetry_space_group_name_H-M "I M M M"
_symmetry_group_IT_number 71
_symmetry_cell_setting 'orthorhombic'
loop_
_space_group_symop_operation_xyz
x,y,z
-x,-y,z
x,-y,-z
-x,y,-z
-x,-y,-z
x,y,-z
-x,y,z
x,-y,z
1/2+x,1/2+y,1/2+z
1/2-x,1/2-y,1/2+z
1/2+x,1/2-y,1/2-z
1/2-x,1/2+y,1/2-z
1/2-x,1/2-y,1/2-z
1/2+x,1/2+y,1/2-z
1/2-x,1/2+y,1/2+z
1/2+x,1/2-y,1/2+z
loop_
_atom_site_type_symbol
_atom_site_label
_atom_site_fract_x
_atom_site_fract_y
_atom_site_fract_z
Si Si1 0.776603 0.550198 0.792356
Si Si2 0.111188 0.362354 0.781241
Si Si3 0.116739 0.809724 0.500000
Si Si4 0.382911 0.238627 0.294941
Si Si5 0.886388 0.915666 0.500000
O O1 0.791447 0.500000 0.712489
O O2 0.827670 0.594654 0.714901
O O3 0.813428 0.547841 0.000000
O O4 0.664372 0.560813 0.828987
O O5 0.143638 0.311767 0.724105
O O6 0.000000 0.368765 0.731932
O O7 0.114923 0.360441 0.000000
O O8 0.147887 0.780383 0.328886
O O9 0.146602 0.862497 0.500000
O O10 0.000000 0.810791 0.500000
O O11 0.352768 0.244310 0.500000
O O12 0.500000 0.238312 0.294314
O O13 0.000000 0.919007 0.500000
#
# Coordination Sequence:
#
# PCOD9524565 Si02
#       5
#    16  16   8  16   8
#     4   8  15  25  39  60  86 117 149 192 242 276
#     4   8  13  23  40  61  89 119 146 183 227 277
#     4   9  16  27  44  66  93 126 161 194 230 274
#     4   8  14  25  43  66  94 127 155 186 230 277
#     4   9  17  28  40  58  88 119 155 201 235 275
#
# _framework density 21.039998000000001
#
# number of rings (size 3 to 8) (size 9 to 14) (size 15 to 20)
#    0.750    3.000    0.000    1.500    0.000    1.500 
#    0.000    3.750    0.000    0.000    0.000    0.875 
#    0.000    8.000    0.000   39.500    0.000    0.000 
#
# Total GULP energy -178261.171374 kJ/mol
# GULP energy per Si atom -5570.661605 kJ/mol
# Density = 2.099211 g / cm^3
# Si number density = 21.039998 Si / 1000 Ang^3
#
#
#
# Elastic Constant Matrix: (Units=GPa)
#
#
# Indices 1 2 3 4 5 6 
#
# 1 85.5857 12.7201 0.3502 0.0005 -0.0008 -0.0003
# 2 12.7201 103.5108 21.9464 0.0025 -0.0031 -0.0010
# 3 0.3502 21.9464 62.9231 0.0082 -0.0047 -0.0019
# 4 0.0005 0.0025 0.0082 -10.9997 -0.0019 -0.0007
# 5 -0.0008 -0.0031 -0.0047 -0.0019 0.7508 0.0004
# 6 -0.0003 -0.0010 -0.0019 -0.0007 0.0004 32.1379
#
#
#
# Elastic Compliance Matrix: (Units=1/GPa)
#
#
# Indices 1 2 3 4 5 6 
#
# 1 0.011915 -0.001566 0.000480 0.000001 0.000008 0.000000
# 2 -0.001566 0.010638 -0.003702 0.000000 0.000020 0.000000
# 3 0.000480 -0.003702 0.017181 0.000012 0.000092 0.000001
# 4 0.000001 0.000000 0.000012 -0.090911 -0.000224 -0.000002
# 5 0.000008 0.000020 0.000092 -0.000224 1.331834 -0.000018
# 6 0.000000 0.000000 0.000001 -0.000002 -0.000018 0.031116
#
#
# Mechanical properties :
#
#
# Convention : Reuss Voigt Hill
#
# Bulk Modulus (GPa) = 33.15824 35.78367 34.47095
# Shear Modulus (GPa) = 3.75544 18.84466 11.30005
#
# Velocity S-wave (km/s) = 1.33745 2.99600 2.32000
# Velocity P-wave (km/s) = 4.26367 5.38632 4.85753
#
# Compressibility (1/GPa) = 0.03015842
#
# Stress axis : x y z
#
# Youngs Moduli (GPa) = 83.92802 94.00186 58.20441
#
# Poissons Ratio (x) = 0.14720 -0.02793
# Poissons Ratio (y) = 0.13143 0.21545
# Poissons Ratio (z) = -0.04027 0.34796
#
# Static dielectric constant tensor:
#      x y z
#    x 1.785630 0.000000 0.000000 
#    y 0.000000 1.761010 -0.000010 
#    z 0.000000 -0.000010 1.805070 
# 
# From -- ./inp_files/6372.got.cif
#   From: 2010.05.17/outbox.cif.g08.bks.cpg/sg71_4_cif.got.tgz:6372.got - 2010.06.03 16:22:01.
