data_PCOD9524958
_publ_section_title
;
Structure prediction by ZEFSAII (Michael W. Deem and Ramdas Pophale) SiO2 
 PCOD9524958
Probable space group: I B A M
;
_chemical_formula_sum "Si O2"
_cell_formula_units_Z 68
_cell_length_a 5.211977
_cell_length_b 33.389228
_cell_length_c 21.224369
_cell_angle_alpha 90.000000
_cell_angle_beta 90.000000
_cell_angle_gamma 90.000000
_cell_volume 3693.547222
_symmetry_space_group_name_H-M "I B A M"
_symmetry_group_IT_number 72
_symmetry_cell_setting 'orthorhombic'
loop_
_space_group_symop_operation_xyz
x,y,z
-x,-y,z
x,-y,1/2-z
-x,y,1/2-z
-x,-y,-z
x,y,-z
-x,y,1/2+z
x,-y,1/2+z
1/2+x,1/2+y,1/2+z
1/2-x,1/2-y,1/2+z
1/2+x,1/2-y,-z
1/2-x,1/2+y,-z
1/2-x,1/2-y,1/2-z
1/2+x,1/2+y,1/2-z
1/2-x,1/2+y,z
1/2+x,1/2-y,z
loop_
_atom_site_type_symbol
_atom_site_label
_atom_site_fract_x
_atom_site_fract_y
_atom_site_fract_z
Si Si1 0.775226 0.767255 0.677590
Si Si2 0.244925 0.646079 0.287722
Si Si3 0.138846 0.563788 0.350257
Si Si4 0.878939 0.044701 0.427046
Si Si5 0.000000 0.500000 0.750000
O O1 0.750000 0.750000 0.750000
O O2 0.504037 0.757576 0.647533
O O3 0.836904 0.814252 0.675971
O O4 0.500000 0.632339 0.250000
O O5 0.118815 0.607723 0.320842
O O6 0.000000 0.663120 0.250000
O O7 0.393935 0.567532 0.391902
O O8 0.159909 0.530019 0.295277
O O9 0.889224 0.550482 0.390497
O O10 0.842582 0.055669 0.500000
O O11 0.000000 0.000000 0.425752
#
# Coordination Sequence:
#
# PCOD9524958 Si02
#       5
#    16  16  16  16   4
#     4  10  16  29  48  69 106 157 185 216 254 325
#     4  12  21  32  50  81 118 156 179 221 277 351
#     4  12  25  37  57  84 118 151 186 230 292 349
#     4  11  23  43  63  78 100 148 212 253 275 317
#     4  12  24  38  54  82 128 154 172 216 296 370
#
# _framework density 18.410485999999999
#
# number of rings (size 3 to 8) (size 9 to 14) (size 15 to 20)
#    0.000    0.706    8.235    2.118    0.000    2.824 
#    0.000    0.000    0.000    0.000    0.000    0.000 
#    0.000   18.824    0.000    0.000    0.000    0.000 
#
# Total GULP energy -189352.618350 kJ/mol
# GULP energy per Si atom -5569.194657 kJ/mol
# Density = 1.836858 g / cm^3
# Si number density = 18.410486 Si / 1000 Ang^3
#
#
#
# Elastic Constant Matrix: (Units=GPa)
#
#
# Indices 1 2 3 4 5 6 
#
# 1 116.4782 -8.5545 35.2577 0.0000 0.0000 0.0000
# 2 -8.5545 102.2504 26.6577 0.0000 0.0000 0.0000
# 3 35.2577 26.6577 69.0370 0.0000 0.0000 0.0000
# 4 0.0000 0.0000 0.0000 5.4152 0.0000 0.0000
# 5 0.0000 0.0000 0.0000 0.0000 4.5418 0.0000
# 6 0.0000 0.0000 0.0000 0.0000 0.0000 22.4192
#
#
#
# Elastic Compliance Matrix: (Units=1/GPa)
#
#
# Indices 1 2 3 4 5 6 
#
# 1 0.010738 0.002589 -0.006484 0.000000 0.000000 0.000000
# 2 0.002589 0.011499 -0.005762 0.000000 0.000000 0.000000
# 3 -0.006484 -0.005762 0.020021 0.000000 0.000000 0.000000
# 4 0.000000 0.000000 0.000000 0.184665 0.000000 0.000000
# 5 0.000000 0.000000 0.000000 0.000000 0.220176 0.000000
# 6 0.000000 0.000000 0.000000 0.000000 0.000000 0.044605
#
#
# Mechanical properties :
#
#
# Convention : Reuss Voigt Hill
#
# Bulk Modulus (GPa) = 43.58464 43.83193 43.70828
# Shear Modulus (GPa) = 9.64012 22.10222 15.87117
#
# Velocity S-wave (km/s) = 2.29076 3.46862 2.93929
# Velocity P-wave (km/s) = 5.54274 6.31677 5.94237
#
# Compressibility (1/GPa) = 0.02294386
#
# Stress axis : x y z
#
# Youngs Moduli (GPa) = 93.12744 86.96609 49.94714
#
# Poissons Ratio (x) = -0.22513 0.32383
# Poissons Ratio (y) = -0.24108 0.28780
# Poissons Ratio (z) = 0.60380 0.50111
#
# Static dielectric constant tensor:
#      x y z
#    x 1.501330 0.000000 0.000000 
#    y 0.000000 1.676310 0.000000 
#    z 0.000000 0.000000 1.649880 
# 
# From -- ./inp_files/34934.got.cif
#   From: 2010.05.17/outbox.cif.g08.bks.cpg/sg72_18_cif.got.tgz:34934.got - 2010.06.03 17:03:01.
