data_PCOD9524532
_publ_section_title
;
Structure prediction by ZEFSAII (Michael W. Deem and Ramdas Pophale) SiO2 
 PCOD9524532
Probable space group: I M M M
;
_chemical_formula_sum "Si O2"
_cell_formula_units_Z 72
_cell_length_a 7.280114
_cell_length_b 29.830882
_cell_length_c 14.397304
_cell_angle_alpha 90.000000
_cell_angle_beta 90.000000
_cell_angle_gamma 90.000000
_cell_volume 3126.694496
_symmetry_space_group_name_H-M "I M M M"
_symmetry_group_IT_number 71
_symmetry_cell_setting 'orthorhombic'
loop_
_space_group_symop_operation_xyz
x,y,z
-x,-y,z
x,-y,-z
-x,y,-z
-x,-y,-z
x,y,-z
-x,y,z
x,-y,z
1/2+x,1/2+y,1/2+z
1/2-x,1/2-y,1/2+z
1/2+x,1/2-y,1/2-z
1/2-x,1/2+y,1/2-z
1/2-x,1/2-y,1/2-z
1/2+x,1/2+y,1/2-z
1/2-x,1/2+y,1/2+z
1/2+x,1/2-y,1/2+z
loop_
_atom_site_type_symbol
_atom_site_label
_atom_site_fract_x
_atom_site_fract_y
_atom_site_fract_z
Si Si1 0.776207 0.000000 0.893583
Si Si2 0.711530 0.281001 0.896680
Si Si3 0.722813 0.311423 0.305722
Si Si4 0.723051 0.448059 0.897049
Si Si5 0.776332 0.909637 0.207173
O O1 0.715443 0.954195 0.845424
O O2 0.000000 0.000000 0.888260
O O3 0.723034 0.000000 0.000000
O O4 0.500000 0.296304 0.900353
O O5 0.786915 0.301659 0.800482
O O6 0.714860 0.227882 0.873887
O O7 0.789363 0.289472 0.000000
O O8 0.500000 0.309142 0.305190
O O9 0.780010 0.361599 0.331419
O O10 0.500000 0.448028 0.897491
O O11 0.776180 0.500000 0.879576
O O12 0.780796 0.416281 0.814020
O O13 0.783918 0.435191 0.000000
O O14 0.000000 0.909768 0.205220
#
# Coordination Sequence:
#
# PCOD9524532 Si02
#       5
#     8  16  16  16  16
#     4   9  16  24  33  49  80 118 145 168 208 258
#     4   9  18  33  49  65  90 122 151 184 232 282
#     4   9  18  30  47  71  93 116 151 193 229 266
#     4   8  12  18  30  49  76 111 143 168 204 257
#     4   9  15  24  37  56  85 115 143 178 217 257
#
# _framework density 23.027514
#
# number of rings (size 3 to 8) (size 9 to 14) (size 15 to 20)
#    0.000    3.222    1.111    0.667    0.000    2.222 
#    0.000    6.667    0.000    0.000    0.000    0.778 
#    0.000    2.667    0.000    2.444    0.000    2.444 
#
# Total GULP energy -200905.888565 kJ/mol
# GULP energy per Si atom -5580.719127 kJ/mol
# Density = 2.297510 g / cm^3
# Si number density = 23.027514 Si / 1000 Ang^3
#
#
#
# Elastic Constant Matrix: (Units=GPa)
#
#
# Indices 1 2 3 4 5 6 
#
# 1 97.9894 -10.7136 -3.9673 0.0000 0.0000 0.0000
# 2 -10.7136 91.5226 -0.6327 0.0001 0.0000 0.0000
# 3 -3.9673 -0.6327 63.3786 0.0001 0.0001 0.0000
# 4 0.0000 0.0001 0.0001 8.1643 0.0000 0.0000
# 5 0.0000 0.0000 0.0001 0.0000 -8.3978 0.0000
# 6 0.0000 0.0000 0.0000 0.0000 0.0000 37.2468
#
#
#
# Elastic Compliance Matrix: (Units=1/GPa)
#
#
# Indices 1 2 3 4 5 6 
#
# 1 0.010365 0.001218 0.000661 0.000000 0.000000 0.000000
# 2 0.001218 0.011070 0.000187 0.000000 0.000000 0.000000
# 3 0.000661 0.000187 0.015821 0.000000 0.000000 0.000000
# 4 0.000000 0.000000 0.000000 0.122485 0.000000 0.000000
# 5 0.000000 0.000000 0.000000 0.000000 -0.119078 0.000000
# 6 0.000000 0.000000 0.000000 0.000000 0.000000 0.026848
#
#
# Mechanical properties :
#
#
# Convention : Reuss Voigt Hill
#
# Bulk Modulus (GPa) = 24.16163 24.69593 24.42878
# Shear Modulus (GPa) = 64.78677 25.28291 45.03484
#
# Velocity S-wave (km/s) = 5.30995 3.31712 4.42712
# Velocity P-wave (km/s) = 6.93609 5.04171 6.06334
#
# Compressibility (1/GPa) = 0.04138794
#
# Stress axis : x y z
#
# Youngs Moduli (GPa) = 96.47757 90.33322 63.20535
#
# Poissons Ratio (x) = -0.11002 -0.04178
# Poissons Ratio (y) = -0.11750 -0.01180
# Poissons Ratio (z) = -0.06377 -0.01687
#
# Static dielectric constant tensor:
#      x y z
#    x 1.986880 0.000000 0.000000 
#    y 0.000000 1.839610 0.000000 
#    z 0.000000 0.000000 1.829150 
# 
# From -- ./inp_files/6509.got.cif
#   From: 2010.05.17/outbox.cif.g08.bks.cpg/sg71_4_cif.got.tgz:6509.got - 2010.06.03 16:22:01.
