data_PCOD9524102
_publ_section_title
;
Structure prediction by ZEFSAII (Michael W. Deem and Ramdas Pophale) SiO2 
 PCOD9524102
Probable space group: I M M M
;
_chemical_formula_sum "Si O2"
_cell_formula_units_Z 104
_cell_length_a 26.865167
_cell_length_b 20.747781
_cell_length_c 7.571115
_cell_angle_alpha 90.000000
_cell_angle_beta 90.000000
_cell_angle_gamma 90.000000
_cell_volume 4220.083486
_symmetry_space_group_name_H-M "I M M M"
_symmetry_group_IT_number 71
_symmetry_cell_setting 'orthorhombic'
loop_
_space_group_symop_operation_xyz
x,y,z
-x,-y,z
x,-y,-z
-x,y,-z
-x,-y,-z
x,y,-z
-x,y,z
x,-y,z
1/2+x,1/2+y,1/2+z
1/2-x,1/2-y,1/2+z
1/2+x,1/2-y,1/2-z
1/2-x,1/2+y,1/2-z
1/2-x,1/2-y,1/2-z
1/2+x,1/2+y,1/2-z
1/2-x,1/2+y,1/2+z
1/2+x,1/2-y,1/2+z
loop_
_atom_site_type_symbol
_atom_site_label
_atom_site_fract_x
_atom_site_fract_y
_atom_site_fract_z
Si Si1 0.500000 0.924406 0.283474
Si Si2 0.187013 0.105784 0.292534
Si Si3 0.210263 0.375219 0.699364
Si Si4 0.836540 0.751257 0.716512
Si Si5 0.445909 0.284956 0.784919
Si Si6 0.920069 0.069238 0.715902
Si Si7 0.605434 0.922844 0.702770
O O1 0.500000 0.923292 0.500000
O O2 0.447041 0.896353 0.224244
O O3 0.500000 0.000000 0.230851
O O4 0.177694 0.108049 0.500000
O O5 0.243793 0.084227 0.273052
O O6 0.184129 0.179555 0.229195
O O7 0.137985 0.070785 0.224494
O O8 0.225517 0.363939 0.500000
O O9 0.197733 0.306253 0.785664
O O10 0.156402 0.407692 0.702143
O O11 0.836392 0.747534 0.500000
O O12 0.894827 0.749818 0.771063
O O13 0.500000 0.260090 0.725520
O O14 0.441407 0.360913 0.732211
O O15 0.445421 0.283802 0.000000
O O16 0.923362 0.069117 0.500000
O O17 0.941292 0.000000 0.773532
O O18 0.611043 0.901301 0.500000
O O19 0.600054 0.000000 0.699778
#
# Coordination Sequence:
#
# PCOD9524102 Si02
#       7
#     8  16  16  16  16  16  16
#     4   7  12  28  53  71  83 109 149 185 214 259
#     4   9  17  31  49  64  88 129 168 197 231 277
#     4  11  21  31  45  70  99 122 154 200 243 281
#     4   8  16  30  44  62  90 125 163 197 231 278
#     4   8  13  23  40  61  90 127 156 181 225 284
#     4   8  14  24  40  65  92 117 152 196 234 270
#     4   9  18  34  54  72  91 119 154 189 230 283
#
# _framework density 24.644062999999999
#
# number of rings (size 3 to 8) (size 9 to 14) (size 15 to 20)
#    0.000    3.308    0.000    3.692    0.000    1.231 
#    1.385    4.231    0.000    1.385    0.000    0.000 
#    0.000    6.000    0.000    5.538    0.000    6.154 
#
# Total GULP energy -289921.240536 kJ/mol
# GULP energy per Si atom -5575.408472 kJ/mol
# Density = 2.458797 g / cm^3
# Si number density = 24.644063 Si / 1000 Ang^3
#
#
#
# Elastic Constant Matrix: (Units=GPa)
#
#
# Indices 1 2 3 4 5 6 
#
# 1 169.7173 1.7863 4.5983 0.0000 0.0000 0.0000
# 2 1.7863 38.2213 0.8584 0.0000 0.0000 0.0000
# 3 4.5983 0.8584 53.1784 0.0000 0.0000 0.0000
# 4 0.0000 0.0000 0.0000 2.8037 0.0000 0.0000
# 5 0.0000 0.0000 0.0000 0.0000 -2.0757 0.0000
# 6 0.0000 0.0000 0.0000 0.0000 0.0000 -362.0234
#
#
#
# Elastic Compliance Matrix: (Units=1/GPa)
#
#
# Indices 1 2 3 4 5 6 
#
# 1 0.005909 -0.000265 -0.000507 0.000000 0.000000 0.000000
# 2 -0.000265 0.026185 -0.000400 0.000000 0.000000 0.000000
# 3 -0.000507 -0.000400 0.018855 0.000000 0.000000 0.000000
# 4 0.000000 0.000000 0.000000 0.356671 0.000000 0.000000
# 5 0.000000 0.000000 0.000000 0.000000 -0.481758 0.000000
# 6 0.000000 0.000000 0.000000 0.000000 0.000000 -0.002762
#
#
# Mechanical properties :
#
#
# Convention : Reuss Voigt Hill
#
# Bulk Modulus (GPa) = 20.57362 30.62256 25.59809
# Shear Modulus (GPa) = -85.68018 -55.33415 -70.50716
#
# Velocity S-wave (km/s) = -5.90276 -4.74364 -5.35465
# Velocity P-wave (km/s) = 6.17173 4.18926 5.27447
#
# Compressibility (1/GPa) = 0.04860593
#
# Stress axis : x y z
#
# Youngs Moduli (GPa) = 169.24298 38.19010 53.03666
#
# Poissons Ratio (x) = 0.01011 0.02687
# Poissons Ratio (y) = 0.04481 0.02120
# Poissons Ratio (z) = 0.08575 0.01527
#
# Static dielectric constant tensor:
#      x y z
#    x 2.011710 0.000000 0.000000 
#    y 0.000000 1.971740 0.000000 
#    z 0.000000 0.000000 1.943150 
# 
# From -- ./inp_files/15565.got.cif
#   From: 2010.05.17/outbox.cif.g08.bks.cpg/sg71_8_cif.got.tgz:15565.got - 2010.06.03 16:22:01.
