data_PCOD9524382
_publ_section_title
;
Structure prediction by ZEFSAII (Michael W. Deem and Ramdas Pophale) SiO2 
 PCOD9524382
Probable space group: I M M M
;
_chemical_formula_sum "Si O2"
_cell_formula_units_Z 88
_cell_length_a 17.892962
_cell_length_b 29.992922
_cell_length_c 8.641154
_cell_angle_alpha 90.000000
_cell_angle_beta 90.000000
_cell_angle_gamma 90.000000
_cell_volume 4637.380834
_symmetry_space_group_name_H-M "I M M M"
_symmetry_group_IT_number 71
_symmetry_cell_setting 'orthorhombic'
loop_
_space_group_symop_operation_xyz
x,y,z
-x,-y,z
x,-y,-z
-x,y,-z
-x,-y,-z
x,y,-z
-x,y,z
x,-y,z
1/2+x,1/2+y,1/2+z
1/2-x,1/2-y,1/2+z
1/2+x,1/2-y,1/2-z
1/2-x,1/2+y,1/2-z
1/2-x,1/2-y,1/2-z
1/2+x,1/2+y,1/2-z
1/2-x,1/2+y,1/2+z
1/2+x,1/2-y,1/2+z
loop_
_atom_site_type_symbol
_atom_site_label
_atom_site_fract_x
_atom_site_fract_y
_atom_site_fract_z
Si Si1 0.590920 0.206456 0.179992
Si Si2 0.642575 0.604985 0.684104
Si Si3 0.587527 0.891287 0.812380
Si Si4 0.500000 0.552313 0.814216
Si Si5 0.717790 0.948505 0.685213
Si Si6 0.088095 0.196255 0.312451
O O1 0.500000 0.206671 0.180573
O O2 0.612739 0.158217 0.244732
O O3 0.613200 0.254636 0.245233
O O4 0.614148 0.206375 0.000000
O O5 0.639810 0.605181 0.500000
O O6 0.572933 0.576756 0.749613
O O7 0.717686 0.581626 0.741609
O O8 0.633793 0.655227 0.745907
O O9 0.500000 0.896939 0.775171
O O10 0.639088 0.928797 0.740388
O O11 0.593709 0.891750 0.000000
O O12 0.500000 0.500000 0.773245
O O13 0.500000 0.556061 0.000000
O O14 0.723325 0.946398 0.500000
O O15 0.726699 0.000000 0.732914
O O16 0.091963 0.196026 0.500000
O O17 0.000000 0.190231 0.272441
#
# Coordination Sequence:
#
# PCOD9524382 Si02
#       6
#    16  16  16   8  16  16
#     4   7  12  26  52  85 115 147 185 223 270 329
#     4  12  24  37  56  84 116 148 190 241 289 334
#     4   9  18  36  63  92 119 145 182 232 285 342
#     4  11  23  39  59  81 109 149 195 237 282 341
#     4  11  25  43  60  79 109 150 194 239 289 345
#     4   9  16  30  55  83 115 155 193 226 270 331
#
# _framework density 18.976229
#
# number of rings (size 3 to 8) (size 9 to 14) (size 15 to 20)
#    0.000    2.273    0.909    5.182    0.000    5.091 
#    0.000    3.636    0.000    3.273    0.000    0.000 
#    0.000    0.000    0.000    0.000    0.000    0.000 
#
# Total GULP energy -245500.195632 kJ/mol
# GULP energy per Si atom -5579.549901 kJ/mol
# Density = 1.893304 g / cm^3
# Si number density = 18.976229 Si / 1000 Ang^3
#
#
#
# Elastic Constant Matrix: (Units=GPa)
#
#
# Indices 1 2 3 4 5 6 
#
# 1 40.5018 4.6869 9.5892 0.0004 0.0002 -0.0004
# 2 4.6869 43.3503 6.7685 0.0002 0.0001 -0.0003
# 3 9.5892 6.7685 28.5601 -0.0006 0.0019 0.0030
# 4 0.0004 0.0002 -0.0006 19.1447 0.0007 0.0008
# 5 0.0002 0.0001 0.0019 0.0007 23.9184 0.0011
# 6 -0.0004 -0.0003 0.0030 0.0008 0.0011 35.0034
#
#
#
# Elastic Compliance Matrix: (Units=1/GPa)
#
#
# Indices 1 2 3 4 5 6 
#
# 1 0.026923 -0.001557 -0.008671 -0.000001 0.000001 0.000001
# 2 -0.001557 0.024044 -0.005176 0.000000 0.000000 0.000001
# 3 -0.008671 -0.005176 0.039152 0.000002 -0.000003 -0.000004
# 4 -0.000001 0.000000 0.000002 0.052234 -0.000002 -0.000001
# 5 0.000001 0.000000 -0.000003 -0.000002 0.041809 -0.000001
# 6 0.000001 0.000001 -0.000004 -0.000001 -0.000001 0.028569
#
#
# Mechanical properties :
#
#
# Convention : Reuss Voigt Hill
#
# Bulk Modulus (GPa) = 16.85975 17.16682 17.01328
# Shear Modulus (GPa) = 18.98919 21.70449 20.34684
#
# Velocity S-wave (km/s) = 3.16679 3.38564 3.27804
# Velocity P-wave (km/s) = 4.71968 4.93452 4.82830
#
# Compressibility (1/GPa) = 0.05931287
#
# Stress axis : x y z
#
# Youngs Moduli (GPa) = 37.14258 41.58986 25.54173
#
# Poissons Ratio (x) = 0.06476 0.22146
# Poissons Ratio (y) = 0.05783 0.13219
# Poissons Ratio (z) = 0.32205 0.21525
#
# Static dielectric constant tensor:
#      x y z
#    x 1.638100 0.000000 0.000000 
#    y 0.000000 1.686890 0.000000 
#    z 0.000000 0.000000 1.644480 
# 
# From -- ./inp_files/8725.got.cif
#   From: 2010.05.17/outbox.cif.g08.bks.cpg/sg71_5_cif.got.tgz:8725.got - 2010.06.03 16:22:01.
