data_PCOD9524189
_publ_section_title
;
Structure prediction by ZEFSAII (Michael W. Deem and Ramdas Pophale) SiO2 
 PCOD9524189
Probable space group: I M M M
;
_chemical_formula_sum "Si O2"
_cell_formula_units_Z 96
_cell_length_a 8.782215
_cell_length_b 25.835278
_cell_length_c 24.175934
_cell_angle_alpha 90.000000
_cell_angle_beta 90.000000
_cell_angle_gamma 90.000000
_cell_volume 5485.301019
_symmetry_space_group_name_H-M "I M M M"
_symmetry_group_IT_number 71
_symmetry_cell_setting 'orthorhombic'
loop_
_space_group_symop_operation_xyz
x,y,z
-x,-y,z
x,-y,-z
-x,y,-z
-x,-y,-z
x,y,-z
-x,y,z
x,-y,z
1/2+x,1/2+y,1/2+z
1/2-x,1/2-y,1/2+z
1/2+x,1/2-y,1/2-z
1/2-x,1/2+y,1/2-z
1/2-x,1/2-y,1/2-z
1/2+x,1/2+y,1/2-z
1/2-x,1/2+y,1/2+z
1/2+x,1/2-y,1/2+z
loop_
_atom_site_type_symbol
_atom_site_label
_atom_site_fract_x
_atom_site_fract_y
_atom_site_fract_z
Si Si1 0.317997 0.348346 0.615051
Si Si2 0.816853 0.560157 0.813788
Si Si3 0.316597 0.939808 0.186223
Si Si4 0.315157 0.691585 0.000000
Si Si5 0.817082 0.687869 0.500000
Si Si6 0.317426 0.751931 0.688719
Si Si7 0.682777 0.653145 0.880634
O O1 0.500000 0.349473 0.609679
O O2 0.259878 0.400231 0.644414
O O3 0.244481 0.338803 0.555343
O O4 0.276719 0.299735 0.654439
O O5 0.778634 0.500000 0.823809
O O6 0.774217 0.572508 0.750011
O O7 0.738804 0.599176 0.855724
O O8 0.000000 0.565199 0.817582
O O9 0.500000 0.935457 0.182359
O O10 0.277123 0.000000 0.175967
O O11 0.266623 0.751713 0.000000
O O12 0.266602 0.663599 0.943713
O O13 0.500000 0.691995 0.000000
O O14 0.000000 0.686824 0.500000
O O15 0.500000 0.755620 0.691446
O O16 0.250000 0.750000 0.750000
O O17 0.251167 0.801110 0.656609
O O18 0.500000 0.655751 0.878549
#
# Coordination Sequence:
#
# PCOD9524189 Si02
#       7
#    16  16  16   8   8  16  16
#     4  11  23  37  55  84 116 144 182 233 282 328
#     4   9  19  37  59  84 115 150 188 231 281 335
#     4   9  19  37  60  83 110 148 189 226 272 335
#     4   9  20  37  56  79 108 148 192 230 276 331
#     4  11  21  39  62  79 106 153 194 227 273 336
#     4  11  23  36  53  81 115 147 181 226 281 337
#     4  11  21  36  57  82 111 145 190 235 279 333
#
# _framework density 17.501318999999999
#
# number of rings (size 3 to 8) (size 9 to 14) (size 15 to 20)
#    0.000    1.833    1.667    3.750    0.000    6.000 
#    0.000    4.167    0.000    5.000    0.000    0.000 
#    0.000    0.000    0.000    0.000    0.000    0.000 
#
# Total GULP energy -268123.199056 kJ/mol
# GULP energy per Si atom -5585.899980 kJ/mol
# Density = 1.746149 g / cm^3
# Si number density = 17.501319 Si / 1000 Ang^3
#
#
#
# Elastic Constant Matrix: (Units=GPa)
#
#
# Indices 1 2 3 4 5 6 
#
# 1 40.8279 43.4450 54.3950 0.0000 0.0000 0.0000
# 2 43.4450 116.4270 100.2309 0.0000 0.0000 0.0000
# 3 54.3950 100.2309 187.8709 0.0000 0.0000 0.0000
# 4 0.0000 0.0000 0.0000 15.0331 0.0000 0.0000
# 5 0.0000 0.0000 0.0000 0.0000 30.1540 0.0000
# 6 0.0000 0.0000 0.0000 0.0000 0.0000 33.1095
#
#
#
# Elastic Compliance Matrix: (Units=1/GPa)
#
#
# Indices 1 2 3 4 5 6 
#
# 1 0.045927 -0.010524 -0.007683 0.000000 0.000000 0.000000
# 2 -0.010524 0.018296 -0.006714 0.000000 0.000000 0.000000
# 3 -0.007683 -0.006714 0.011129 0.000000 0.000000 0.000000
# 4 0.000000 0.000000 0.000000 0.066520 0.000000 0.000000
# 5 0.000000 0.000000 0.000000 0.000000 0.033163 0.000000
# 6 0.000000 0.000000 0.000000 0.000000 0.000000 0.030203
#
#
# Mechanical properties :
#
#
# Convention : Reuss Voigt Hill
#
# Bulk Modulus (GPa) = 39.19852 82.36306 60.78079
# Shear Modulus (GPa) = 18.96923 25.46298 22.21610
#
# Velocity S-wave (km/s) = 3.29580 3.81848 3.56672
# Velocity P-wave (km/s) = 6.07693 8.16114 7.19491
#
# Compressibility (1/GPa) = 0.02551117
#
# Stress axis : x y z
#
# Youngs Moduli (GPa) = 21.77346 54.65603 89.85175
#
# Poissons Ratio (x) = 0.57518 0.69034
# Poissons Ratio (y) = 0.22914 0.60329
# Poissons Ratio (z) = 0.16729 0.36698
#
# Static dielectric constant tensor:
#      x y z
#    x 1.589040 0.000000 0.000000 
#    y 0.000000 1.575240 0.000000 
#    z 0.000000 0.000000 1.572030 
# 
# From -- ./inp_files/57791.got.cif
#   From: 2010.05.17/outbox.cif.g08.bks.cpg/sg71_29_cif.got.tgz:57791.got - 2010.06.03 16:22:01.
