data_PCOD9524794
_publ_section_title
;
Structure prediction by ZEFSAII (Michael W. Deem and Ramdas Pophale) SiO2 
 PCOD9524794
Probable space group: I M M M
;
_chemical_formula_sum "Si O2"
_cell_formula_units_Z 48
_cell_length_a 21.000000
_cell_length_b 27.000000
_cell_length_c 9.000000
_cell_angle_alpha 90.000000
_cell_angle_beta 90.000000
_cell_angle_gamma 90.000000
_cell_volume 5103.000000
_symmetry_space_group_name_H-M "I M M M"
_symmetry_group_IT_number 71
_symmetry_cell_setting 'orthorhombic'
loop_
_space_group_symop_operation_xyz
x,y,z
-x,-y,z
x,-y,-z
-x,y,-z
-x,-y,-z
x,y,-z
-x,y,z
x,-y,z
1/2+x,1/2+y,1/2+z
1/2-x,1/2-y,1/2+z
1/2+x,1/2-y,1/2-z
1/2-x,1/2+y,1/2-z
1/2-x,1/2-y,1/2-z
1/2+x,1/2+y,1/2-z
1/2-x,1/2+y,1/2+z
1/2+x,1/2-y,1/2+z
loop_
_atom_site_type_symbol
_atom_site_label
_atom_site_fract_x
_atom_site_fract_y
_atom_site_fract_z
Si Si1 0.072632 0.793827 0.676188
Si Si2 0.199686 0.945201 0.178437
Si Si3 0.813215 0.625548 0.680457
Si Si4 0.428977 0.587571 0.823419
Si Si5 0.069963 0.556643 0.319499
Si Si6 0.684468 0.232027 0.677054
O O1 0.082022 0.784345 0.500000
O O2 0.076720 0.853066 0.697908
O O3 0.126007 0.765720 0.768101
O O4 0.000000 0.778828 0.713952
O O5 0.247810 0.901851 0.224893
O O6 0.129654 0.937651 0.242769
O O7 0.224144 0.000000 0.220262
O O8 0.196872 0.943466 0.000000
O O9 0.812723 0.631978 0.500000
O O10 0.871374 0.590089 0.723382
O O11 0.823559 0.676924 0.761259
O O12 0.500000 0.572495 0.773286
O O13 0.425097 0.578170 0.000000
O O14 0.069927 0.555823 0.500000
O O15 0.077625 0.500000 0.270165
O O16 0.000000 0.574661 0.272194
O O17 0.689192 0.233425 0.500000
O O18 0.750000 0.250000 0.750000
#
# Coordination Sequence:
#
# PCOD9524794 Si02
#       6
#    16  16  16  16  16  16
#     4   9  19  38  62  85 111 144 182 224 271 325
#     4  10  21  35  52  77 108 141 178 222 269 316
#     4  10  20  35  55  79 108 142 180 224 272 319
#     4   9  19  36  57  80 105 135 173 217 264 317
#     4   8  14  27  51  82 111 140 177 218 258 306
#     4  12  25  39  56  80 111 145 184 230 277 328
#
# _framework density 9.4062319999999993
#
# number of rings (size 3 to 8) (size 9 to 14) (size 15 to 20)
#    0.000    2.333    0.000    4.500    0.000    8.000 
#    0.000    5.000    0.000    1.500    0.000    1.167 
#    0.000    0.000    0.000    0.000    0.000    0.000 
#
# Total GULP energy -267870.894207 kJ/mol
# GULP energy per Si atom -5580.643629 kJ/mol
# Density = 0.938482 g / cm^3
# Si number density = 9.406232 Si / 1000 Ang^3
#
#
#
# Elastic Constant Matrix: (Units=GPa)
#
#
# Indices 1 2 3 4 5 6 
#
# 1 92.0337 19.0391 24.4573 0.0000 0.0000 0.0000
# 2 19.0391 28.1767 16.8601 0.0000 0.0000 0.0000
# 3 24.4573 16.8601 36.1334 0.0000 0.0000 0.0000
# 4 0.0000 0.0000 0.0000 18.3266 0.0000 0.0000
# 5 0.0000 0.0000 0.0000 0.0000 24.9179 0.0000
# 6 0.0000 0.0000 0.0000 0.0000 0.0000 31.0630
#
#
#
# Elastic Compliance Matrix: (Units=1/GPa)
#
#
# Indices 1 2 3 4 5 6 
#
# 1 0.013771 -0.005172 -0.006908 0.000000 0.000000 0.000000
# 2 -0.005172 0.051180 -0.020380 0.000000 0.000000 0.000000
# 3 -0.006908 -0.020380 0.041861 0.000000 0.000000 0.000000
# 4 0.000000 0.000000 0.000000 0.054565 0.000000 0.000000
# 5 0.000000 0.000000 0.000000 0.000000 0.040132 0.000000
# 6 0.000000 0.000000 0.000000 0.000000 0.000000 0.032193
#
#
# Mechanical properties :
#
#
# Convention : Reuss Voigt Hill
#
# Bulk Modulus (GPa) = 23.87117 30.78408 27.32763
# Shear Modulus (GPa) = 15.99562 21.26065 18.62814
#
# Velocity S-wave (km/s) = 2.91910 3.36540 3.15016
# Velocity P-wave (km/s) = 4.90694 5.61252 5.27155
#
# Compressibility (1/GPa) = 0.04189153
#
# Stress axis : x y z
#
# Youngs Moduli (GPa) = 72.61507 19.53895 23.88879
#
# Poissons Ratio (x) = 0.10105 0.16503
# Poissons Ratio (y) = 0.37554 0.48686
# Poissons Ratio (z) = 0.50163 0.39821
#
# Static dielectric constant tensor:
#      x y z
#    x 1.643850 0.000000 0.000000 
#    y 0.000000 1.657830 0.000000 
#    z 0.000000 0.000000 1.627300 
# 
# From -- ./inp_files/10921.got.cif
#   From: 2010.05.17/outbox.ucp.g08.bks.cvg/sg71_6_cif.got.tgz:10921.got - 2010.06.11 16:29:00.
