data_PCOD9524092
_publ_section_title
;
Structure prediction by ZEFSAII (Michael W. Deem and Ramdas Pophale) SiO2 
 PCOD9524092
Probable space group: I M M M
;
_chemical_formula_sum "Si O2"
_cell_formula_units_Z 88
_cell_length_a 9.005997
_cell_length_b 30.902765
_cell_length_c 24.499915
_cell_angle_alpha 90.000000
_cell_angle_beta 90.000000
_cell_angle_gamma 90.000000
_cell_volume 6818.576461
_symmetry_space_group_name_H-M "I M M M"
_symmetry_group_IT_number 71
_symmetry_cell_setting 'orthorhombic'
loop_
_space_group_symop_operation_xyz
x,y,z
-x,-y,z
x,-y,-z
-x,y,-z
-x,-y,-z
x,y,-z
-x,y,z
x,-y,z
1/2+x,1/2+y,1/2+z
1/2-x,1/2-y,1/2+z
1/2+x,1/2-y,1/2-z
1/2-x,1/2+y,1/2-z
1/2-x,1/2-y,1/2-z
1/2+x,1/2+y,1/2-z
1/2-x,1/2+y,1/2+z
1/2+x,1/2-y,1/2+z
loop_
_atom_site_type_symbol
_atom_site_label
_atom_site_fract_x
_atom_site_fract_y
_atom_site_fract_z
Si Si1 0.322361 0.747194 0.114509
Si Si2 0.322536 0.792097 0.222097
Si Si3 0.327595 0.135995 0.500000
Si Si4 0.321763 0.000000 0.565246
Si Si5 0.170648 0.260132 0.000000
Si Si6 0.822098 0.838317 0.315558
Si Si7 0.177964 0.911228 0.398998
O O1 0.500000 0.744950 0.107569
O O2 0.288369 0.785112 0.158214
O O3 0.277533 0.701415 0.143525
O O4 0.248171 0.753567 0.056190
O O5 0.500000 0.790707 0.228105
O O6 0.250000 0.750000 0.250000
O O7 0.256208 0.830991 0.257552
O O8 0.500000 0.121338 0.500000
O O9 0.324543 0.187582 0.500000
O O10 0.243106 0.117651 0.552179
O O11 0.253575 0.957614 0.593479
O O12 0.500000 0.000000 0.569183
O O13 0.284110 0.000000 0.500000
O O14 0.000000 0.246273 0.000000
O O15 0.789055 0.883828 0.344418
O O16 0.000000 0.834426 0.308707
O O17 0.000000 0.915086 0.404023
#
# Coordination Sequence:
#
# PCOD9524092 Si02
#       7
#    16  16   8   8   8  16  16
#     4   9  17  29  41  56  79 105 131 160 197 240
#     4   9  17  28  42  59  77 101 129 160 200 238
#     4  11  21  30  40  59  81 101 132 172 211 245
#     4  11  23  35  45  61  82 102 130 171 214 249
#     4  11  21  27  38  60  81 105 135 167 205 240
#     4   9  18  30  44  61  77  98 130 166 202 241
#     4  11  21  33  48  61  75 103 137 166 207 256
#
# _framework density 12.90592
#
# number of rings (size 3 to 8) (size 9 to 14) (size 15 to 20)
#    0.000    2.091    2.727    3.000    0.000    6.182 
#    0.000    0.000    0.000    0.000    0.000    0.000 
#    0.000    0.000    0.000    0.000    0.000    0.909 
#
# Total GULP energy -245176.180091 kJ/mol
# GULP energy per Si atom -5572.185911 kJ/mol
# Density = 1.287655 g / cm^3
# Si number density = 12.905920 Si / 1000 Ang^3
#
#
#
# Elastic Constant Matrix: (Units=GPa)
#
#
# Indices 1 2 3 4 5 6 
#
# 1 50.8430 35.4386 51.7858 0.0000 0.0000 0.0000
# 2 35.4386 58.8027 47.7571 0.0000 0.0000 0.0000
# 3 51.7858 47.7571 110.2445 0.0000 0.0000 0.0000
# 4 0.0000 0.0000 0.0000 8.9942 0.0000 0.0000
# 5 0.0000 0.0000 0.0000 0.0000 23.2170 0.0000
# 6 0.0000 0.0000 0.0000 0.0000 0.0000 17.3009
#
#
#
# Elastic Compliance Matrix: (Units=1/GPa)
#
#
# Indices 1 2 3 4 5 6 
#
# 1 0.045290 -0.015454 -0.014580 0.000000 0.000000 0.000000
# 2 -0.015454 0.031510 -0.006391 0.000000 0.000000 0.000000
# 3 -0.014580 -0.006391 0.018688 0.000000 0.000000 0.000000
# 4 0.000000 0.000000 0.000000 0.111182 0.000000 0.000000
# 5 0.000000 0.000000 0.000000 0.000000 0.043072 0.000000
# 6 0.000000 0.000000 0.000000 0.000000 0.000000 0.057801
#
#
# Mechanical properties :
#
#
# Convention : Reuss Voigt Hill
#
# Bulk Modulus (GPa) = 44.17139 54.42814 49.29976
# Shear Modulus (GPa) = 12.88866 15.56301 14.22584
#
# Velocity S-wave (km/s) = 3.16359 3.47635 3.32365
# Velocity P-wave (km/s) = 6.90249 7.64054 7.28087
#
# Compressibility (1/GPa) = 0.02263909
#
# Stress axis : x y z
#
# Youngs Moduli (GPa) = 22.07972 31.73623 53.51076
#
# Poissons Ratio (x) = 0.49045 0.78019
# Poissons Ratio (y) = 0.34122 0.34196
# Poissons Ratio (z) = 0.32192 0.20281
#
# Static dielectric constant tensor:
#      x y z
#    x 1.432280 0.000000 0.000000 
#    y 0.000000 1.422040 0.000000 
#    z 0.000000 0.000000 1.430000 
# 
# From -- ./inp_files/17209.got.cif
#   From: 2010.05.17/outbox.cif.g08.bks.cpg/sg71_9_cif.got.tgz:17209.got - 2010.06.03 16:22:01.
