data_PCOD9524244
_publ_section_title
;
Structure prediction by ZEFSAII (Michael W. Deem and Ramdas Pophale) SiO2 
 PCOD9524244
Probable space group: I M M M
;
_chemical_formula_sum "Si O2"
_cell_formula_units_Z 80
_cell_length_a 7.876085
_cell_length_b 26.513463
_cell_length_c 18.995195
_cell_angle_alpha 90.000000
_cell_angle_beta 90.000000
_cell_angle_gamma 90.000000
_cell_volume 3966.620085
_symmetry_space_group_name_H-M "I M M M"
_symmetry_group_IT_number 71
_symmetry_cell_setting 'orthorhombic'
loop_
_space_group_symop_operation_xyz
x,y,z
-x,-y,z
x,-y,-z
-x,y,-z
-x,-y,-z
x,y,-z
-x,y,z
x,-y,z
1/2+x,1/2+y,1/2+z
1/2-x,1/2-y,1/2+z
1/2+x,1/2-y,1/2-z
1/2-x,1/2+y,1/2-z
1/2-x,1/2-y,1/2-z
1/2+x,1/2+y,1/2-z
1/2-x,1/2+y,1/2+z
1/2+x,1/2-y,1/2+z
loop_
_atom_site_type_symbol
_atom_site_label
_atom_site_fract_x
_atom_site_fract_y
_atom_site_fract_z
Si Si1 0.291530 0.902005 0.169301
Si Si2 0.200810 0.000000 0.578961
Si Si3 0.704810 0.692336 0.080434
Si Si4 0.200690 0.403700 0.828946
Si Si5 0.292527 0.000000 0.080994
Si Si6 0.207039 0.305879 0.418881
O O1 0.500000 0.901733 0.169577
O O2 0.229861 0.906223 0.249509
O O3 0.235844 0.850053 0.132603
O O4 0.239493 0.949981 0.122830
O O5 0.245406 0.049833 0.622505
O O6 0.276536 0.000000 0.500000
O O7 0.000000 0.000000 0.571662
O O8 0.500000 0.692934 0.079052
O O9 0.758299 0.648817 0.133146
O O10 0.762011 0.749003 0.099778
O O11 0.762077 0.681800 0.000000
O O12 0.000000 0.407478 0.822132
O O13 0.500000 0.000000 0.080121
O O14 0.236163 0.000000 0.000000
O O15 0.256699 0.315834 0.500000
O O16 0.000000 0.305937 0.417829
#
# Coordination Sequence:
#
# PCOD9524244 Si02
#       6
#    16   8  16  16   8  16
#     4   9  17  28  43  70 106 135 162 202 251 300
#     4  11  24  41  59  75  94 127 172 214 246 289
#     4   9  18  33  52  73  98 132 176 218 248 284
#     4  11  22  34  51  77 108 135 158 198 258 311
#     4   9  15  24  42  66  94 129 164 200 246 297
#     4   8  14  27  48  71  98 136 177 212 246 287
#
# _framework density 20.168302000000001
#
# number of rings (size 3 to 8) (size 9 to 14) (size 15 to 20)
#    0.000    2.600    0.000    3.900    0.000    8.400 
#    0.000    0.000    0.000    1.200    0.000    0.000 
#    0.000   29.600    0.000    0.000    0.000    0.000 
#
# Total GULP energy -223285.996223 kJ/mol
# GULP energy per Si atom -5582.149906 kJ/mol
# Density = 2.012240 g / cm^3
# Si number density = 20.168302 Si / 1000 Ang^3
#
#
#
# Elastic Constant Matrix: (Units=GPa)
#
#
# Indices 1 2 3 4 5 6 
#
# 1 22.3814 11.0918 12.7308 0.0000 0.0000 0.0000
# 2 11.0918 192.0522 149.1297 0.0000 0.0000 0.0000
# 3 12.7308 149.1297 208.2001 0.0001 0.0000 0.0000
# 4 0.0000 0.0000 0.0001 -27.2836 0.0000 0.0000
# 5 0.0000 0.0000 0.0000 0.0000 3.9725 0.0000
# 6 0.0000 0.0000 0.0000 0.0000 0.0000 -56.2857
#
#
#
# Elastic Compliance Matrix: (Units=1/GPa)
#
#
# Indices 1 2 3 4 5 6 
#
# 1 0.046388 -0.001074 -0.002067 0.000000 0.000000 0.000000
# 2 -0.001074 0.011757 -0.008356 0.000000 0.000000 0.000000
# 3 -0.002067 -0.008356 0.010915 0.000000 0.000000 0.000000
# 4 0.000000 0.000000 0.000000 -0.036652 0.000000 0.000000
# 5 0.000000 0.000000 0.000000 0.000000 0.251731 0.000000
# 6 0.000000 0.000000 0.000000 0.000000 0.000000 -0.017766
#
#
# Mechanical properties :
#
#
# Convention : Reuss Voigt Hill
#
# Bulk Modulus (GPa) = 21.70799 85.39314 53.55057
# Shear Modulus (GPa) = 16.40842 0.72606 8.56724
#
# Velocity S-wave (km/s) = 2.85542 0.60065 2.06327
# Velocity P-wave (km/s) = 4.65382 6.55082 5.68204
#
# Compressibility (1/GPa) = 0.04606598
#
# Stress axis : x y z
#
# Youngs Moduli (GPa) = 21.55728 85.05328 91.61995
#
# Poissons Ratio (x) = 0.09133 0.18941
# Poissons Ratio (y) = 0.02315 0.76557
# Poissons Ratio (z) = 0.04457 0.71070
#
# Static dielectric constant tensor:
#      x y z
#    x 1.747800 0.000000 0.000000 
#    y 0.000000 1.663050 0.000000 
#    z 0.000000 0.000000 1.712510 
# 
# From -- ./inp_files/42282.got.cif
#   From: 2010.05.17/outbox.cif.g08.bks.cpg/sg71_22_cif.got.tgz:42282.got - 2010.06.03 16:22:01.
