data_PCOD9524024
_publ_section_title
;
Structure prediction by ZEFSAII (Michael W. Deem and Ramdas Pophale) SiO2 
 PCOD9524024
Probable space group: I M M M
;
_chemical_formula_sum "Si O2"
_cell_formula_units_Z 72
_cell_length_a 7.850978
_cell_length_b 35.014199
_cell_length_c 14.993940
_cell_angle_alpha 90.000000
_cell_angle_beta 90.000000
_cell_angle_gamma 90.000000
_cell_volume 4121.769723
_symmetry_space_group_name_H-M "I M M M"
_symmetry_group_IT_number 71
_symmetry_cell_setting 'orthorhombic'
loop_
_space_group_symop_operation_xyz
x,y,z
-x,-y,z
x,-y,-z
-x,y,-z
-x,-y,-z
x,y,-z
-x,y,z
x,-y,z
1/2+x,1/2+y,1/2+z
1/2-x,1/2-y,1/2+z
1/2+x,1/2-y,1/2-z
1/2-x,1/2+y,1/2-z
1/2-x,1/2-y,1/2-z
1/2+x,1/2+y,1/2-z
1/2-x,1/2+y,1/2+z
1/2+x,1/2-y,1/2+z
loop_
_atom_site_type_symbol
_atom_site_label
_atom_site_fract_x
_atom_site_fract_y
_atom_site_fract_z
Si Si1 0.695868 0.000000 0.108428
Si Si2 0.203362 0.582607 0.600805
Si Si3 0.205620 0.722274 0.396423
Si Si4 0.708534 0.309506 0.898539
Si Si5 0.697958 0.651972 0.275188
O O1 0.773583 0.958774 0.131680
O O2 0.500000 0.000000 0.141524
O O3 0.691270 0.000000 0.000000
O O4 0.267034 0.591432 0.500000
O O5 0.230260 0.616958 0.668536
O O6 0.000000 0.577537 0.593078
O O7 0.248789 0.714558 0.500000
O O8 0.258960 0.765791 0.376410
O O9 0.282019 0.690552 0.332710
O O10 0.000000 0.720305 0.389064
O O11 0.500000 0.309583 0.897749
O O12 0.770939 0.338086 0.822335
O O13 0.761305 0.317948 0.000000
O O14 0.500000 0.643563 0.263267
#
# Coordination Sequence:
#
# PCOD9524024 Si02
#       5
#     8  16  16  16  16
#     4   7  12  26  47  65  80 107 146 172 187 229
#     4   9  17  30  47  65  87 115 142 166 197 245
#     4   9  17  30  46  60  79 113 150 177 205 247
#     4   8  16  31  46  58  77 111 152 184 210 244
#     4  11  20  27  41  66  90 110 136 176 219 251
#
# _framework density 17.468225
#
# number of rings (size 3 to 8) (size 9 to 14) (size 15 to 20)
#    0.000    3.000    0.000    4.667    0.000    3.556 
#    0.000    1.667    0.000    7.333    0.000    0.778 
#    0.000    6.222    0.000    0.000    0.000    0.000 
#
# Total GULP energy -200579.684527 kJ/mol
# GULP energy per Si atom -5571.657904 kJ/mol
# Density = 1.742847 g / cm^3
# Si number density = 17.468225 Si / 1000 Ang^3
#
#
#
# Elastic Constant Matrix: (Units=GPa)
#
#
# Indices 1 2 3 4 5 6 
#
# 1 15.6173 5.8614 2.7803 0.0000 0.0000 0.0000
# 2 5.8614 126.9104 90.0213 0.0000 0.0000 0.0000
# 3 2.7803 90.0213 90.1030 0.0000 0.0000 0.0000
# 4 0.0000 0.0000 0.0000 19.6930 0.0000 0.0000
# 5 0.0000 0.0000 0.0000 0.0000 8.5147 0.0000
# 6 0.0000 0.0000 0.0000 0.0000 0.0000 4.6925
#
#
#
# Elastic Compliance Matrix: (Units=1/GPa)
#
#
# Indices 1 2 3 4 5 6 
#
# 1 0.065469 -0.005461 0.003436 0.000000 0.000000 0.000000
# 2 -0.005461 0.027504 -0.027310 0.000000 0.000000 0.000000
# 3 0.003436 -0.027310 0.038278 0.000000 0.000000 0.000000
# 4 0.000000 0.000000 0.000000 0.050780 0.000000 0.000000
# 5 0.000000 0.000000 0.000000 0.000000 0.117443 0.000000
# 6 0.000000 0.000000 0.000000 0.000000 0.000000 0.213107
#
#
# Mechanical properties :
#
#
# Convention : Reuss Voigt Hill
#
# Bulk Modulus (GPa) = 13.77788 47.77297 30.77543
# Shear Modulus (GPa) = 8.39707 15.51122 11.95415
#
# Velocity S-wave (km/s) = 2.19488 2.98311 2.61882
# Velocity P-wave (km/s) = 3.78521 6.26683 5.17692
#
# Compressibility (1/GPa) = 0.07258010
#
# Stress axis : x y z
#
# Youngs Moduli (GPa) = 15.27435 36.35849 26.12463
#
# Poissons Ratio (x) = 0.19854 -0.08975
# Poissons Ratio (y) = 0.08341 0.71348
# Poissons Ratio (z) = -0.05248 0.99297
#
# Static dielectric constant tensor:
#      x y z
#    x 1.644720 0.000000 0.000000 
#    y 0.000000 1.612800 0.000000 
#    z 0.000000 0.000000 1.604540 
# 
# From -- ./inp_files/31663.got.cif
#   From: 2010.05.17/outbox.cif.g08.bks.cpg/sg71_16_cif.got.tgz:31663.got - 2010.06.03 16:22:01.
