data_PCOD9524563
_publ_section_title
;
Structure prediction by ZEFSAII (Michael W. Deem and Ramdas Pophale) SiO2 
 PCOD9524563
Probable space group: I M M M
;
_chemical_formula_sum "Si O2"
_cell_formula_units_Z 96
_cell_length_a 33.886754
_cell_length_b 7.453022
_cell_length_c 19.434691
_cell_angle_alpha 90.000000
_cell_angle_beta 90.000000
_cell_angle_gamma 90.000000
_cell_volume 4908.400742
_symmetry_space_group_name_H-M "I M M M"
_symmetry_group_IT_number 71
_symmetry_cell_setting 'orthorhombic'
loop_
_space_group_symop_operation_xyz
x,y,z
-x,-y,z
x,-y,-z
-x,y,-z
-x,-y,-z
x,y,-z
-x,y,z
x,-y,z
1/2+x,1/2+y,1/2+z
1/2-x,1/2-y,1/2+z
1/2+x,1/2-y,1/2-z
1/2-x,1/2+y,1/2-z
1/2-x,1/2-y,1/2-z
1/2+x,1/2+y,1/2-z
1/2-x,1/2+y,1/2+z
1/2+x,1/2-y,1/2+z
loop_
_atom_site_type_symbol
_atom_site_label
_atom_site_fract_x
_atom_site_fract_y
_atom_site_fract_z
Si Si1 0.332538 0.219348 0.921557
Si Si2 0.742884 0.718475 0.579062
Si Si3 0.956293 0.286742 0.785772
Si Si4 0.620244 0.211650 0.792602
Si Si5 0.166332 0.216602 0.156987
Si Si6 0.411486 0.716107 0.422844
O O1 0.287553 0.274837 0.904725
O O2 0.362900 0.284184 0.864005
O O3 0.332678 0.000000 0.920611
O O4 0.341313 0.273325 0.000000
O O5 0.734047 0.770126 0.500000
O O6 0.742768 0.500000 0.580335
O O7 0.708574 0.780386 0.629966
O O8 0.957769 0.500000 0.773511
O O9 0.920390 0.213064 0.739256
O O10 0.943368 0.263558 0.865054
O O11 0.000000 0.213335 0.773204
O O12 0.653272 0.230386 0.733307
O O13 0.613741 0.000000 0.803000
O O14 0.130997 0.277320 0.106382
O O15 0.166697 0.000000 0.155001
O O16 0.419069 0.781548 0.500000
O O17 0.410073 0.500000 0.425403
#
# Coordination Sequence:
#
# PCOD9524563 Si02
#       6
#    16  16  16  16  16  16
#     4   8  14  25  42  63  83 104 133 167 201 238
#     4   8  13  22  38  60  84 110 140 169 194 226
#     4   9  18  31  44  58  79 108 137 164 201 249
#     4   9  17  29  44  61  81 105 134 168 204 241
#     4   9  16  26  41  61  85 112 139 165 195 232
#     4   9  17  28  42  61  84 109 138 171 201 227
#
# _framework density 19.558305000000001
#
# number of rings (size 3 to 8) (size 9 to 14) (size 15 to 20)
#    0.000    3.333    0.000    1.500    0.000    3.667 
#    0.000    1.667    0.000    2.500    0.000    5.833 
#    0.000    0.000    0.000    8.333    0.000    8.667 
#
# Total GULP energy -267624.363609 kJ/mol
# GULP energy per Si atom -5575.507575 kJ/mol
# Density = 1.951379 g / cm^3
# Si number density = 19.558305 Si / 1000 Ang^3
#
#
#
# Elastic Constant Matrix: (Units=GPa)
#
#
# Indices 1 2 3 4 5 6 
#
# 1 136.2978 5.8176 116.8853 0.0000 0.0000 0.0000
# 2 5.8176 58.5802 1.1527 0.0000 0.0000 0.0000
# 3 116.8853 1.1527 137.5146 0.0000 0.0000 0.0000
# 4 0.0000 0.0000 0.0000 -6.5243 0.0000 0.0000
# 5 0.0000 0.0000 0.0000 0.0000 7.8950 0.0000
# 6 0.0000 0.0000 0.0000 0.0000 0.0000 -3.6564
#
#
#
# Elastic Compliance Matrix: (Units=1/GPa)
#
#
# Indices 1 2 3 4 5 6 
#
# 1 0.027362 -0.002260 -0.023238 0.000000 0.000000 0.000000
# 2 -0.002260 0.017260 0.001776 0.000000 0.000000 0.000000
# 3 -0.023238 0.001776 0.027009 0.000000 0.000000 0.000000
# 4 0.000000 0.000000 0.000000 -0.153274 0.000000 0.000000
# 5 0.000000 0.000000 0.000000 0.000000 0.126663 0.000000
# 6 0.000000 0.000000 0.000000 0.000000 0.000000 -0.273491
#
#
# Mechanical properties :
#
#
# Convention : Reuss Voigt Hill
#
# Bulk Modulus (GPa) = 41.34407 64.45599 52.90003
# Shear Modulus (GPa) = -28.90749 13.44533 -7.73108
#
# Velocity S-wave (km/s) = -3.84867 2.62477 -1.99033
# Velocity P-wave (km/s) = 1.19796 6.49717 4.67164
#
# Compressibility (1/GPa) = 0.02418726
#
# Stress axis : x y z
#
# Youngs Moduli (GPa) = 36.54760 57.93713 37.02474
#
# Poissons Ratio (x) = 0.13094 0.86038
# Poissons Ratio (y) = 0.08260 -0.06577
# Poissons Ratio (z) = 0.84929 -0.10291
#
# Static dielectric constant tensor:
#      x y z
#    x 1.686730 0.000000 0.000000 
#    y 0.000000 1.783680 0.000000 
#    z 0.000000 0.000000 1.661790 
# 
# From -- ./inp_files/24426.got.cif
#   From: 2010.05.17/outbox.cif.g08.bks.cpg/sg71_13_cif.got.tgz:24426.got - 2010.06.03 16:22:01.
