data_PCOD9524227
_publ_section_title
;
Structure prediction by ZEFSAII (Michael W. Deem and Ramdas Pophale) SiO2 
 PCOD9524227
Probable space group: I M M M
;
_chemical_formula_sum "Si O2"
_cell_formula_units_Z 64
_cell_length_a 7.523778
_cell_length_b 19.149992
_cell_length_c 21.861971
_cell_angle_alpha 90.000000
_cell_angle_beta 90.000000
_cell_angle_gamma 90.000000
_cell_volume 3149.879089
_symmetry_space_group_name_H-M "I M M M"
_symmetry_group_IT_number 71
_symmetry_cell_setting 'orthorhombic'
loop_
_space_group_symop_operation_xyz
x,y,z
-x,-y,z
x,-y,-z
-x,y,-z
-x,-y,-z
x,y,-z
-x,y,z
x,-y,z
1/2+x,1/2+y,1/2+z
1/2-x,1/2-y,1/2+z
1/2+x,1/2-y,1/2-z
1/2-x,1/2+y,1/2-z
1/2-x,1/2-y,1/2-z
1/2+x,1/2+y,1/2-z
1/2-x,1/2+y,1/2+z
1/2+x,1/2-y,1/2+z
loop_
_atom_site_type_symbol
_atom_site_label
_atom_site_fract_x
_atom_site_fract_y
_atom_site_fract_z
Si Si1 0.790054 0.172230 0.500000
Si Si2 0.294011 0.085045 0.749571
Si Si3 0.287196 0.920782 0.382511
Si Si4 0.717653 0.080853 0.116977
Si Si5 0.782037 0.669847 0.500000
O O1 0.743899 0.128948 0.439464
O O2 0.717128 0.250664 0.500000
O O3 0.000000 0.179566 0.500000
O O4 0.500000 0.107985 0.750256
O O5 0.216442 0.105116 0.683538
O O6 0.218475 0.104933 0.815743
O O7 0.292792 0.000000 0.749202
O O8 0.500000 0.925911 0.375193
O O9 0.221670 0.000000 0.394419
O O10 0.500000 0.081173 0.118768
O O11 0.773716 0.128788 0.060915
O O12 0.769585 0.000000 0.107442
O O13 0.000000 0.669271 0.500000
#
# Coordination Sequence:
#
# PCOD9524227 Si02
#       5
#     8  16  16  16   8
#     4  11  22  31  39  59  94 125 144 170 212 259
#     4   7  11  21  40  65  84  98 130 183 226 248
#     4   9  17  31  50  67  82 106 145 188 221 250
#     4   8  12  21  40  63  85 111 143 176 211 253
#     4   9  17  26  35  55  92 127 144 164 208 259
#
# _framework density 20.318238999999998
#
# number of rings (size 3 to 8) (size 9 to 14) (size 15 to 20)
#    0.000    3.500    0.000    4.125    0.000    3.500 
#    0.000    1.250    0.000    0.000    0.000    1.750 
#    0.000   12.000    0.000    0.000    0.000    0.750 
#
# Total GULP energy -178252.190306 kJ/mol
# GULP energy per Si atom -5570.380947 kJ/mol
# Density = 2.027199 g / cm^3
# Si number density = 20.318239 Si / 1000 Ang^3
#
#
#
# Elastic Constant Matrix: (Units=GPa)
#
#
# Indices 1 2 3 4 5 6 
#
# 1 51.6512 4.4845 8.5634 0.0000 0.0000 0.0000
# 2 4.4845 106.3222 118.7253 0.0000 0.0000 0.0000
# 3 8.5634 118.7253 271.7632 0.0000 0.0000 0.0000
# 4 0.0000 0.0000 0.0000 -3.4793 0.0000 0.0000
# 5 0.0000 0.0000 0.0000 0.0000 -19.2067 0.0000
# 6 0.0000 0.0000 0.0000 0.0000 0.0000 5.8554
#
#
#
# Elastic Compliance Matrix: (Units=1/GPa)
#
#
# Indices 1 2 3 4 5 6 
#
# 1 0.019466 -0.000266 -0.000497 0.000000 0.000000 0.000000
# 2 -0.000266 0.018368 -0.008016 0.000000 0.000000 0.000000
# 3 -0.000497 -0.008016 0.007197 0.000000 0.000000 0.000000
# 4 0.000000 0.000000 0.000000 -0.287414 0.000000 0.000000
# 5 0.000000 0.000000 0.000000 0.000000 -0.052065 0.000000
# 6 0.000000 0.000000 0.000000 0.000000 0.000000 0.170781
#
#
# Mechanical properties :
#
#
# Convention : Reuss Voigt Hill
#
# Bulk Modulus (GPa) = 36.39917 77.03144 56.71530
# Shear Modulus (GPa) = -51.57239 16.49810 -17.53714
#
# Velocity S-wave (km/s) = -5.04355 2.85263 -2.94108
# Velocity P-wave (km/s) = 3.99539 6.98890 4.05473
#
# Compressibility (1/GPa) = 0.02747315
#
# Stress axis : x y z
#
# Youngs Moduli (GPa) = 51.37119 54.44390 138.94221
#
# Poissons Ratio (x) = 0.01447 0.06910
# Poissons Ratio (y) = 0.01365 1.11374
# Poissons Ratio (z) = 0.02555 0.43641
#
# Static dielectric constant tensor:
#      x y z
#    x 1.803820 0.000000 0.000000 
#    y 0.000000 1.681820 0.000000 
#    z 0.000000 0.000000 1.799920 
# 
# From -- ./inp_files/9546.got.cif
#   From: 2010.05.17/outbox.cif.g08.bks.cpg/sg71_5_cif.got.tgz:9546.got - 2010.06.03 16:22:01.
