data_PCOD9524848
_publ_section_title
;
Structure prediction by ZEFSAII (Michael W. Deem and Ramdas Pophale) SiO2 
 PCOD9524848
Probable space group: I M M M
;
_chemical_formula_sum "Si O2"
_cell_formula_units_Z 52
_cell_length_a 27.000000
_cell_length_b 21.000000
_cell_length_c 9.000000
_cell_angle_alpha 90.000000
_cell_angle_beta 90.000000
_cell_angle_gamma 90.000000
_cell_volume 5103.000000
_symmetry_space_group_name_H-M "I M M M"
_symmetry_group_IT_number 71
_symmetry_cell_setting 'orthorhombic'
loop_
_space_group_symop_operation_xyz
x,y,z
-x,-y,z
x,-y,-z
-x,y,-z
-x,-y,-z
x,y,-z
-x,y,z
x,-y,z
1/2+x,1/2+y,1/2+z
1/2-x,1/2-y,1/2+z
1/2+x,1/2-y,1/2-z
1/2-x,1/2+y,1/2-z
1/2-x,1/2-y,1/2-z
1/2+x,1/2+y,1/2-z
1/2-x,1/2+y,1/2+z
1/2+x,1/2-y,1/2+z
loop_
_atom_site_type_symbol
_atom_site_label
_atom_site_fract_x
_atom_site_fract_y
_atom_site_fract_z
Si Si1 0.440407 0.135386 0.669507
Si Si2 0.758144 0.574329 0.821275
Si Si3 0.894578 0.250728 0.328614
Si Si4 0.443624 0.383306 0.823539
Si Si5 0.655659 0.575252 0.334648
Si Si6 0.943720 0.500000 0.819612
Si Si7 0.294944 0.211103 0.677533
O O1 0.423716 0.150425 0.500000
O O2 0.500000 0.129921 0.662801
O O3 0.425232 0.187509 0.785452
O O4 0.419437 0.066719 0.716714
O O5 0.769338 0.500000 0.772921
O O6 0.703235 0.593960 0.763136
O O7 0.792320 0.635325 0.778635
O O8 0.757409 0.572199 0.000000
O O9 0.879376 0.248991 0.500000
O O10 0.930442 0.190957 0.302794
O O11 0.845431 0.255360 0.230230
O O12 0.500000 0.397681 0.774020
O O13 0.397717 0.415071 0.739996
O O14 0.441040 0.397764 0.000000
O O15 0.657222 0.604493 0.500000
O O16 0.661601 0.500000 0.349233
O O17 0.000000 0.500000 0.759696
O O18 0.947314 0.500000 0.000000
O O19 0.290932 0.213606 0.500000
O O20 0.250000 0.250000 0.750000
#
# Coordination Sequence:
#
# PCOD9524848 Si02
#       7
#    16  16  16  16  16   8  16
#     4   9  17  32  55  80 106 140 183 227 272 324
#     4   9  19  38  62  85 111 148 192 233 276 334
#     4  11  23  38  55  79 112 147 185 230 282 333
#     4  10  22  39  57  78 108 150 195 233 271 324
#     4  10  21  36  57  87 118 145 176 222 281 338
#     4   7  12  26  49  75 101 133 175 219 261 311
#     4  11  23  39  60  85 113 145 187 236 287 341
#
# _framework density 10.190084000000001
#
# number of rings (size 3 to 8) (size 9 to 14) (size 15 to 20)
#    0.000    2.231    0.000    3.692    0.000    8.615 
#    1.385    1.923    0.000    1.385    0.000    0.000 
#    0.000    0.000    0.000    0.000    0.000    0.000 
#
# Total GULP energy -289892.706278 kJ/mol
# GULP energy per Si atom -5574.859736 kJ/mol
# Density = 1.016689 g / cm^3
# Si number density = 10.190084 Si / 1000 Ang^3
#
#
#
# Elastic Constant Matrix: (Units=GPa)
#
#
# Indices 1 2 3 4 5 6 
#
# 1 15.9931 -22.0845 -1.2920 0.0000 0.0000 0.0000
# 2 -22.0845 39.7713 12.6195 0.0000 0.0000 0.0000
# 3 -1.2920 12.6195 12.3491 0.0000 0.0000 0.0000
# 4 0.0000 0.0000 0.0000 26.6158 0.0000 0.0000
# 5 0.0000 0.0000 0.0000 0.0000 28.0522 0.0000
# 6 0.0000 0.0000 0.0000 0.0000 0.0000 23.1170
#
#
#
# Elastic Compliance Matrix: (Units=1/GPa)
#
#
# Indices 1 2 3 4 5 6 
#
# 1 -5.409649 -4.179560 3.705115 0.000000 0.000000 0.000000
# 2 -4.179560 -3.191969 2.824593 0.000000 0.000000 0.000000
# 3 3.705115 2.824593 -2.417832 0.000000 0.000000 0.000000
# 4 0.000000 0.000000 0.000000 0.037572 0.000000 0.000000
# 5 0.000000 0.000000 0.000000 0.000000 0.035648 0.000000
# 6 0.000000 0.000000 0.000000 0.000000 0.000000 0.043258
#
#
# Mechanical properties :
#
#
# Convention : Reuss Voigt Hill
#
# Bulk Modulus (GPa) = -0.15825 5.17772 2.50974
# Shear Modulus (GPa) = -0.28233 20.81503 10.26635
#
# Velocity S-wave (km/s) = -0.37260 3.19930 2.24685
# Velocity P-wave (km/s) = 0.51277 4.02411 2.82228
#
# Compressibility (1/GPa) = -6.31915394
#
# Stress axis : x y z
#
# Youngs Moduli (GPa) = -0.18485 -0.31329 -0.41359
#
# Poissons Ratio (x) = -1.30940 1.53241
# Poissons Ratio (y) = -0.77261 1.16823
# Poissons Ratio (z) = 0.68491 0.88491
#
# Static dielectric constant tensor:
#      x y z
#    x 1.751510 0.000000 0.000000 
#    y 0.000000 1.802120 0.000000 
#    z 0.000000 0.000000 1.721820 
# 
# From -- ./inp_files/14975.got.cif
#   From: 2010.05.17/outbox.ucp.g08.bks.cvg/sg71_8_cif.got.tgz:14975.got - 2010.06.11 16:29:00.
