data_PCOD9524750
_publ_section_title
;
Structure prediction by ZEFSAII (Michael W. Deem and Ramdas Pophale) SiO2 
 PCOD9524750
Probable space group: I M M M
;
_chemical_formula_sum "Si O2"
_cell_formula_units_Z 44
_cell_length_a 18.000000
_cell_length_b 30.000000
_cell_length_c 9.000000
_cell_angle_alpha 90.000000
_cell_angle_beta 90.000000
_cell_angle_gamma 90.000000
_cell_volume 4860.000000
_symmetry_space_group_name_H-M "I M M M"
_symmetry_group_IT_number 71
_symmetry_cell_setting 'orthorhombic'
loop_
_space_group_symop_operation_xyz
x,y,z
-x,-y,z
x,-y,-z
-x,y,-z
-x,-y,-z
x,y,-z
-x,y,z
x,-y,z
1/2+x,1/2+y,1/2+z
1/2-x,1/2-y,1/2+z
1/2+x,1/2-y,1/2-z
1/2-x,1/2+y,1/2-z
1/2-x,1/2-y,1/2-z
1/2+x,1/2+y,1/2-z
1/2-x,1/2+y,1/2+z
1/2+x,1/2-y,1/2+z
loop_
_atom_site_type_symbol
_atom_site_label
_atom_site_fract_x
_atom_site_fract_y
_atom_site_fract_z
Si Si1 0.000000 0.448147 0.819251
Si Si2 0.912369 0.195806 0.821979
Si Si3 0.588734 0.211840 0.167543
Si Si4 0.804433 0.877141 0.320333
Si Si5 0.131262 0.619564 0.179308
Si Si6 0.419571 0.550807 0.819464
O O1 0.073759 0.419779 0.775130
O O2 0.000000 0.500000 0.769100
O O3 0.000000 0.449343 0.000000
O O4 0.891546 0.245031 0.764034
O O5 0.851525 0.162923 0.751285
O O6 0.000000 0.186912 0.778478
O O7 0.909367 0.193696 0.000000
O O8 0.500000 0.213035 0.155884
O O9 0.607982 0.165956 0.247332
O O10 0.620084 0.214176 0.000000
O O11 0.808142 0.872130 0.500000
O O12 0.718364 0.884780 0.282046
O O13 0.850878 0.920254 0.272139
O O14 0.125732 0.622715 0.000000
O O15 0.500000 0.569366 0.772598
O O16 0.414541 0.500000 0.769916
O O17 0.419516 0.550467 0.000000
#
# Coordination Sequence:
#
# PCOD9524750 Si02
#       6
#     8  16  16  16  16  16
#     4   9  18  34  57  83 111 145 185 229 278 331
#     4  10  21  36  55  79 108 144 180 218 269 324
#     4  10  20  35  57  80 103 137 182 226 269 321
#     4  10  20  32  50  79 111 143 180 223 268 318
#     4  10  20  34  54  79 109 144 179 220 273 325
#     4   8  14  26  46  72 102 136 172 213 260 306
#
# _framework density 9.0534979999999994
#
# number of rings (size 3 to 8) (size 9 to 14) (size 15 to 20)
#    0.000    2.455    0.909    2.182    0.000    4.727 
#    0.000    3.636    0.000    1.636    0.000    5.091 
#    0.000    0.000    0.000    0.000    0.000    0.000 
#
# Total GULP energy -245093.305821 kJ/mol
# GULP energy per Si atom -5570.302405 kJ/mol
# Density = 0.903289 g / cm^3
# Si number density = 9.053498 Si / 1000 Ang^3
#
#
#
# Elastic Constant Matrix: (Units=GPa)
#
#
# Indices 1 2 3 4 5 6 
#
# 1 132.3076 94.2691 38.8464 0.0000 -0.0001 -0.0001
# 2 94.2691 140.6001 26.1557 -0.0005 0.0001 -0.0001
# 3 38.8464 26.1557 21.7256 -0.0019 0.0004 -0.0007
# 4 0.0000 -0.0005 -0.0019 19.9816 -0.0001 -0.0002
# 5 -0.0001 0.0001 0.0004 -0.0001 20.4964 -0.0006
# 6 -0.0001 -0.0001 -0.0007 -0.0002 -0.0006 -9.3202
#
#
#
# Elastic Compliance Matrix: (Units=1/GPa)
#
#
# Indices 1 2 3 4 5 6 
#
# 1 0.023714 -0.010324 -0.029973 -0.000003 0.000001 0.000002
# 2 -0.010324 0.013660 0.002015 0.000000 0.000000 0.000000
# 3 -0.029973 0.002015 0.097196 0.000009 -0.000002 -0.000007
# 4 -0.000003 0.000000 0.000009 0.050046 0.000000 -0.000001
# 5 0.000001 0.000000 -0.000002 0.000000 0.048789 -0.000003
# 6 0.000002 0.000000 -0.000007 -0.000001 -0.000003 -0.107294
#
#
# Mechanical properties :
#
#
# Convention : Reuss Voigt Hill
#
# Bulk Modulus (GPa) = 17.23967 68.13063 42.68515
# Shear Modulus (GPa) = 22.52142 15.25570 18.88856
#
# Velocity S-wave (km/s) = 3.53058 2.90579 3.23331
# Velocity P-wave (km/s) = 5.11484 6.99761 6.12895
#
# Compressibility (1/GPa) = 0.05800575
#
# Stress axis : x y z
#
# Youngs Moduli (GPa) = 42.16854 73.20879 10.28846
#
# Poissons Ratio (x) = 0.75581 0.30838
# Poissons Ratio (y) = 0.43535 -0.02073
# Poissons Ratio (z) = 1.26393 -0.14752
#
# Static dielectric constant tensor:
#      x y z
#    x 1.633320 0.000000 0.000000 
#    y 0.000000 1.618910 0.000000 
#    z 0.000000 0.000000 1.621580 
# 
# From -- ./inp_files/8855.got.cif
#   From: 2010.05.17/outbox.ucp.g08.bks.cvg/sg71_5_cif.got.tgz:8855.got - 2010.06.11 16:29:00.
