data_PCOD9524964
_publ_section_title
;
Structure prediction by ZEFSAII (Michael W. Deem and Ramdas Pophale) SiO2 
 PCOD9524964
Probable space group: I B A M
;
_chemical_formula_sum "Si O2"
_cell_formula_units_Z 128
_cell_length_a 22.356445
_cell_length_b 12.950813
_cell_length_c 17.277974
_cell_angle_alpha 90.000000
_cell_angle_beta 90.000000
_cell_angle_gamma 90.000000
_cell_volume 5002.563318
_symmetry_space_group_name_H-M "I B A M"
_symmetry_group_IT_number 72
_symmetry_cell_setting 'orthorhombic'
loop_
_space_group_symop_operation_xyz
x,y,z
-x,-y,z
x,-y,1/2-z
-x,y,1/2-z
-x,-y,-z
x,y,-z
-x,y,1/2+z
x,-y,1/2+z
1/2+x,1/2+y,1/2+z
1/2-x,1/2-y,1/2+z
1/2+x,1/2-y,-z
1/2-x,1/2+y,-z
1/2-x,1/2-y,1/2-z
1/2+x,1/2+y,1/2-z
1/2-x,1/2+y,z
1/2+x,1/2-y,z
loop_
_atom_site_type_symbol
_atom_site_label
_atom_site_fract_x
_atom_site_fract_y
_atom_site_fract_z
Si Si1 0.973153 0.318417 0.910541
Si Si2 0.724544 0.381280 0.127107
Si Si3 0.852220 0.365665 0.829618
Si Si4 0.093582 0.655582 0.335210
Si Si5 0.182312 0.866440 0.198590
Si Si6 0.401251 0.629965 0.914644
Si Si7 0.214177 0.637187 0.586543
Si Si8 0.428651 0.591555 0.409165
O O1 0.907072 0.355608 0.888001
O O2 0.970102 0.193269 0.898181
O O3 0.025804 0.367218 0.859016
O O4 0.985154 0.339990 0.000000
O O5 0.794108 0.415219 0.129115
O O6 0.701018 0.392413 0.215126
O O7 0.665450 0.419358 0.082882
O O8 0.722698 0.261845 0.096160
O O9 0.884800 0.387438 0.747341
O O10 0.822097 0.257022 0.805319
O O11 0.096237 0.781140 0.349264
O O12 0.145386 0.616614 0.392390
O O13 0.236398 0.903576 0.145187
O O14 0.120123 0.897876 0.159613
O O15 0.443005 0.530497 0.904795
O O16 0.412238 0.677554 0.000000
O O17 0.228055 0.605787 0.500000
O O18 0.408204 0.605927 0.500000
#
# Coordination Sequence:
#
# PCOD9524964 Si02
#       8
#    16  16  16  16  16  16  16  16
#     4  10  21  33  47  66  95 134 169 199 236 284
#     4  10  17  30  47  69  91 116 153 201 254 294
#     4  10  18  31  48  66  94 119 155 204 249 294
#     4  11  18  32  47  69  93 128 165 208 242 279
#     4  10  16  30  47  65  91 121 153 196 249 295
#     4  10  20  32  49  69  94 128 168 207 241 283
#     4  10  17  26  46  70  90 118 155 199 247 297
#     4   9  20  34  45  66  96 131 168 201 236 280
#
# _framework density 25.586881999999999
#
# number of rings (size 3 to 8) (size 9 to 14) (size 15 to 20)
#    0.000    2.000    3.750    3.750    0.000    4.500 
#    0.000    1.875    0.000    1.500    0.000    0.000 
#    0.000    1.000    0.750    5.250    1.750    0.250 
#
# Total GULP energy -357183.266240 kJ/mol
# GULP energy per Si atom -5580.988535 kJ/mol
# Density = 2.552865 g / cm^3
# Si number density = 25.586882 Si / 1000 Ang^3
#
#
#
# Elastic Constant Matrix: (Units=GPa)
#
#
# Indices 1 2 3 4 5 6 
#
# 1 178.1831 11.7296 22.0735 0.0000 0.0000 0.0000
# 2 11.7296 67.5154 -14.2825 0.0000 0.0000 0.0000
# 3 22.0735 -14.2825 60.6827 0.0000 0.0000 0.0000
# 4 0.0000 0.0000 0.0000 -10.7174 0.0000 0.0000
# 5 0.0000 0.0000 0.0000 0.0000 24.1804 0.0000
# 6 0.0000 0.0000 0.0000 0.0000 0.0000 37.9594
#
#
#
# Elastic Compliance Matrix: (Units=1/GPa)
#
#
# Indices 1 2 3 4 5 6 
#
# 1 0.006035 -0.001592 -0.002570 0.000000 0.000000 0.000000
# 2 -0.001592 0.016008 0.004347 0.000000 0.000000 0.000000
# 3 -0.002570 0.004347 0.018437 0.000000 0.000000 0.000000
# 4 0.000000 0.000000 0.000000 -0.093306 0.000000 0.000000
# 5 0.000000 0.000000 0.000000 0.000000 0.041356 0.000000
# 6 0.000000 0.000000 0.000000 0.000000 0.000000 0.026344
#
#
# Mechanical properties :
#
#
# Convention : Reuss Voigt Hill
#
# Bulk Modulus (GPa) = 24.48044 38.38026 31.43035
# Shear Modulus (GPa) = 177.80030 29.40854 103.60442
#
# Velocity S-wave (km/s) = 8.34504 3.39390 6.37017
# Velocity P-wave (km/s) = 10.12133 5.51277 8.14960
#
# Compressibility (1/GPa) = 0.04084893
#
# Stress axis : x y z
#
# Youngs Moduli (GPa) = 165.68880 62.47037 54.23836
#
# Poissons Ratio (x) = 0.09947 0.13940
# Poissons Ratio (y) = 0.26382 -0.23576
# Poissons Ratio (z) = 0.42585 -0.27155
#
# Static dielectric constant tensor:
#      x y z
#    x 2.055920 0.000000 0.000000 
#    y 0.000000 2.188800 0.000000 
#    z 0.000000 0.000000 1.968240 
# 
# From -- ./inp_files/33567.got.cif
#   From: 2010.05.17/outbox.cif.g08.bks.cpg/sg72_17_cif.got.tgz:33567.got - 2010.06.03 17:03:01.
