data_PCOD9524827
_publ_section_title
;
Structure prediction by ZEFSAII (Michael W. Deem and Ramdas Pophale) SiO2 
 PCOD9524827
Probable space group: I M M M
;
_chemical_formula_sum "Si O2"
_cell_formula_units_Z 52
_cell_length_a 24.000000
_cell_length_b 15.000000
_cell_length_c 15.000000
_cell_angle_alpha 90.000000
_cell_angle_beta 90.000000
_cell_angle_gamma 90.000000
_cell_volume 5400.000000
_symmetry_space_group_name_H-M "I M M M"
_symmetry_group_IT_number 71
_symmetry_cell_setting 'orthorhombic'
loop_
_space_group_symop_operation_xyz
x,y,z
-x,-y,z
x,-y,-z
-x,y,-z
-x,-y,-z
x,y,-z
-x,y,z
x,-y,z
1/2+x,1/2+y,1/2+z
1/2-x,1/2-y,1/2+z
1/2+x,1/2-y,1/2-z
1/2-x,1/2+y,1/2-z
1/2-x,1/2-y,1/2-z
1/2+x,1/2+y,1/2-z
1/2-x,1/2+y,1/2+z
1/2+x,1/2-y,1/2+z
loop_
_atom_site_type_symbol
_atom_site_label
_atom_site_fract_x
_atom_site_fract_y
_atom_site_fract_z
Si Si1 0.065960 0.892052 0.896999
Si Si2 0.281657 0.608111 0.101764
Si Si3 0.618401 0.339922 0.787104
Si Si4 0.845899 0.608354 0.099091
Si Si5 0.066035 0.000000 0.397911
Si Si6 0.935046 0.683972 0.399169
Si Si7 0.439841 0.101657 0.272796
O O1 0.101962 0.850565 0.816327
O O2 0.000000 0.872275 0.883085
O O3 0.071782 0.000000 0.891068
O O4 0.080098 0.866892 0.000000
O O5 0.284384 0.500000 0.105710
O O6 0.318133 0.645895 0.182193
O O7 0.217652 0.637403 0.111052
O O8 0.300214 0.632878 0.000000
O O9 0.586456 0.416713 0.841947
O O10 0.597066 0.253006 0.837558
O O11 0.843109 0.500000 0.101904
O O12 0.888485 0.641042 0.173209
O O13 0.865269 0.633264 0.000000
O O14 0.087376 0.000000 0.500000
O O15 0.000000 0.000000 0.402259
O O16 0.914466 0.674223 0.500000
O O17 0.932803 0.599953 0.333697
O O18 0.000000 0.711270 0.404996
O O19 0.500000 0.145772 0.291125
O O20 0.443345 0.000000 0.304126
#
# Coordination Sequence:
#
# PCOD9524827 Si02
#       7
#    16  16  16  16   8  16  16
#     4   9  17  29  44  62  87 126 178 223 250 278
#     4   9  16  27  45  72 104 137 169 197 235 292
#     4  12  19  29  47  69 100 138 173 205 243 288
#     4   8  15  29  51  78 104 127 156 200 250 301
#     4  11  20  26  39  67  99 131 169 209 240 275
#     4  10  21  34  48  71 103 132 160 206 262 305
#     4   9  18  34  55  75  94 123 164 208 258 319
#
# _framework density 9.6296300000000006
#
# number of rings (size 3 to 8) (size 9 to 14) (size 15 to 20)
#    0.000    2.385    1.538    4.154    0.000    1.846 
#    0.000    4.615    0.000    1.846    0.000    2.154 
#    0.000    0.000    0.000    0.000    0.000    0.000 
#
# Total GULP energy -289506.946243 kJ/mol
# GULP energy per Si atom -5567.441274 kJ/mol
# Density = 0.960771 g / cm^3
# Si number density = 9.629630 Si / 1000 Ang^3
#
#
#
# Elastic Constant Matrix: (Units=GPa)
#
#
# Indices 1 2 3 4 5 6 
#
# 1 83.3836 19.8827 90.8728 0.0000 0.0000 0.0000
# 2 19.8827 40.0545 10.9744 0.0000 0.0000 0.0000
# 3 90.8728 10.9744 182.6876 0.0000 0.0000 0.0000
# 4 0.0000 0.0000 0.0000 13.8213 0.0000 0.0000
# 5 0.0000 0.0000 0.0000 0.0000 27.4205 0.0000
# 6 0.0000 0.0000 0.0000 0.0000 0.0000 3.5331
#
#
#
# Elastic Compliance Matrix: (Units=1/GPa)
#
#
# Indices 1 2 3 4 5 6 
#
# 1 0.030395 -0.011128 -0.014450 0.000000 0.000000 0.000000
# 2 -0.011128 0.029458 0.003766 0.000000 0.000000 0.000000
# 3 -0.014450 0.003766 0.012436 0.000000 0.000000 0.000000
# 4 0.000000 0.000000 0.000000 0.072352 0.000000 0.000000
# 5 0.000000 0.000000 0.000000 0.000000 0.036469 0.000000
# 6 0.000000 0.000000 0.000000 0.000000 0.000000 0.283041
#
#
# Mechanical properties :
#
#
# Convention : Reuss Voigt Hill
#
# Bulk Modulus (GPa) = 34.88874 61.06505 47.97690
# Shear Modulus (GPa) = 9.66500 21.24804 15.45652
#
# Velocity S-wave (km/s) = 2.24260 3.32514 2.83601
# Velocity P-wave (km/s) = 4.98601 6.82040 5.97403
#
# Compressibility (1/GPa) = 0.02866254
#
# Stress axis : x y z
#
# Youngs Moduli (GPa) = 32.90050 33.94636 80.41442
#
# Poissons Ratio (x) = 0.37777 1.16203
# Poissons Ratio (y) = 0.36613 -0.30283
# Poissons Ratio (z) = 0.47543 -0.12784
#
# Static dielectric constant tensor:
#      x y z
#    x 1.708000 0.000000 0.000000 
#    y 0.000000 1.797070 0.000000 
#    z 0.000000 0.000000 1.662990 
# 
# From -- ./inp_files/39268.got.cif
#   From: 2010.05.17/outbox.ucp.g08.bks.cvg/sg71_20_cif.got.tgz:39268.got - 2010.06.11 16:29:00.
