data_PCOD9524562
_publ_section_title
;
Structure prediction by ZEFSAII (Michael W. Deem and Ramdas Pophale) SiO2 
 PCOD9524562
Probable space group: I M M M
;
_chemical_formula_sum "Si O2"
_cell_formula_units_Z 72
_cell_length_a 14.437385
_cell_length_b 30.011918
_cell_length_c 7.349479
_cell_angle_alpha 90.000000
_cell_angle_beta 90.000000
_cell_angle_gamma 90.000000
_cell_volume 3184.482322
_symmetry_space_group_name_H-M "I M M M"
_symmetry_group_IT_number 71
_symmetry_cell_setting 'orthorhombic'
loop_
_space_group_symop_operation_xyz
x,y,z
-x,-y,z
x,-y,-z
-x,y,-z
-x,-y,-z
x,y,-z
-x,y,z
x,-y,z
1/2+x,1/2+y,1/2+z
1/2-x,1/2-y,1/2+z
1/2+x,1/2-y,1/2-z
1/2-x,1/2+y,1/2-z
1/2-x,1/2-y,1/2-z
1/2+x,1/2+y,1/2-z
1/2-x,1/2+y,1/2+z
1/2+x,1/2-y,1/2+z
loop_
_atom_site_type_symbol
_atom_site_label
_atom_site_fract_x
_atom_site_fract_y
_atom_site_fract_z
Si Si1 0.211587 0.910803 0.223054
Si Si2 0.396190 0.126488 0.788689
Si Si3 0.391560 0.321499 0.278669
Si Si4 0.393206 0.500000 0.722086
Si Si5 0.110194 0.725449 0.217443
O O1 0.317398 0.905618 0.286330
O O2 0.158920 0.865993 0.281971
O O3 0.159675 0.955382 0.280101
O O4 0.211275 0.910633 0.000000
O O5 0.500000 0.125730 0.708610
O O6 0.357722 0.177354 0.784031
O O7 0.405533 0.115109 0.000000
O O8 0.388236 0.320811 0.500000
O O9 0.500000 0.323876 0.229180
O O10 0.352424 0.273277 0.217169
O O11 0.500000 0.500000 0.779727
O O12 0.393454 0.500000 0.500000
O O13 0.000000 0.726436 0.262205
O O14 0.118255 0.724341 0.000000
#
# Coordination Sequence:
#
# PCOD9524562 Si02
#       5
#    16  16  16   8  16
#     4   9  16  25  38  57  81 109 139 170 208 251
#     4   9  17  28  40  57  86 119 142 163 198 243
#     4   8  13  22  37  57  80 105 135 173 213 247
#     4   9  16  26  41  61  84 107 133 171 216 254
#     4   8  14  25  41  60  82 110 143 174 202 236
#
# _framework density 22.609639999999999
#
# number of rings (size 3 to 8) (size 9 to 14) (size 15 to 20)
#    0.000    3.444    0.000    2.000    0.000    3.556 
#    0.000    0.556    0.000    3.333    0.000    0.778 
#    0.000    7.111    0.000    0.000    0.000    0.667 
#
# Total GULP energy -200895.660347 kJ/mol
# GULP energy per Si atom -5580.435010 kJ/mol
# Density = 2.255818 g / cm^3
# Si number density = 22.609640 Si / 1000 Ang^3
#
#
#
# Elastic Constant Matrix: (Units=GPa)
#
#
# Indices 1 2 3 4 5 6 
#
# 1 142.4463 118.7171 2.1240 -0.0029 0.0008 0.0001
# 2 118.7171 160.8771 7.1490 0.0015 0.0014 0.0003
# 3 2.1240 7.1490 78.5386 -0.0085 0.0137 0.0014
# 4 -0.0029 0.0015 -0.0085 7.8430 0.0026 0.0013
# 5 0.0008 0.0014 0.0137 0.0026 -7.4877 -0.0006
# 6 0.0001 0.0003 0.0014 0.0013 -0.0006 41.3208
#
#
#
# Elastic Compliance Matrix: (Units=1/GPa)
#
#
# Indices 1 2 3 4 5 6 
#
# 1 0.018277 -0.013520 0.000736 0.000010 0.000001 0.000000
# 2 -0.013520 0.016242 -0.001113 -0.000009 0.000000 0.000000
# 3 0.000736 -0.001113 0.012814 0.000014 0.000023 0.000000
# 4 0.000010 -0.000009 0.000014 0.127502 0.000044 -0.000004
# 5 0.000001 0.000000 0.000023 0.000044 -0.133552 -0.000002
# 6 0.000000 0.000000 0.000000 -0.000004 -0.000002 0.024201
#
#
# Mechanical properties :
#
#
# Convention : Reuss Voigt Hill
#
# Bulk Modulus (GPa) = 51.17610 70.87137 61.02374
# Shear Modulus (GPa) = 50.10519 25.26002 37.68261
#
# Velocity S-wave (km/s) = 4.71265 3.34612 4.08690
# Velocity P-wave (km/s) = 7.23159 6.80752 7.02276
#
# Compressibility (1/GPa) = 0.01954037
#
# Stress axis : x y z
#
# Youngs Moduli (GPa) = 54.71357 61.56770 78.03980
#
# Poissons Ratio (x) = 0.83240 -0.05747
# Poissons Ratio (y) = 0.73973 0.08684
# Poissons Ratio (z) = -0.04029 0.06851
#
# Static dielectric constant tensor:
#      x y z
#    x 1.862220 0.000000 0.000000 
#    y 0.000000 1.800760 -0.000010 
#    z 0.000000 -0.000010 1.963810 
# 
# From -- ./inp_files/6412.got.cif
#   From: 2010.05.17/outbox.cif.g08.bks.cpg/sg71_4_cif.got.tgz:6412.got - 2010.06.03 16:22:01.
