data_PCOD9524403
_publ_section_title
;
Structure prediction by ZEFSAII (Michael W. Deem and Ramdas Pophale) SiO2 
 PCOD9524403
Probable space group: I M M M
;
_chemical_formula_sum "Si O2"
_cell_formula_units_Z 68
_cell_length_a 17.250456
_cell_length_b 20.130846
_cell_length_c 9.909701
_cell_angle_alpha 90.000000
_cell_angle_beta 90.000000
_cell_angle_gamma 90.000000
_cell_volume 3441.304934
_symmetry_space_group_name_H-M "I M M M"
_symmetry_group_IT_number 71
_symmetry_cell_setting 'orthorhombic'
loop_
_space_group_symop_operation_xyz
x,y,z
-x,-y,z
x,-y,-z
-x,y,-z
-x,-y,-z
x,y,-z
-x,y,z
x,-y,z
1/2+x,1/2+y,1/2+z
1/2-x,1/2-y,1/2+z
1/2+x,1/2-y,1/2-z
1/2-x,1/2+y,1/2-z
1/2-x,1/2-y,1/2-z
1/2+x,1/2+y,1/2-z
1/2-x,1/2+y,1/2+z
1/2+x,1/2-y,1/2+z
loop_
_atom_site_type_symbol
_atom_site_label
_atom_site_fract_x
_atom_site_fract_y
_atom_site_fract_z
Si Si1 0.860513 0.118280 0.704734
Si Si2 0.588837 0.000000 0.336035
Si Si3 0.910995 0.732762 0.344146
Si Si4 0.601308 0.500000 0.000000
Si Si5 0.590593 0.579595 0.500000
Si Si6 0.177791 0.633647 0.157990
O O1 0.898457 0.188524 0.668123
O O2 0.895906 0.058389 0.617505
O O3 0.769344 0.122368 0.671026
O O4 0.871626 0.105828 0.863139
O O5 0.633940 0.066555 0.296133
O O6 0.500000 0.000000 0.289590
O O7 0.588625 0.000000 0.500000
O O8 0.897799 0.713756 0.500000
O O9 0.852729 0.694115 0.247040
O O10 0.000000 0.716452 0.308075
O O11 0.595673 0.500000 0.500000
O O12 0.500000 0.598631 0.500000
O O13 0.159789 0.645062 0.000000
#
# Coordination Sequence:
#
# PCOD9524403 Si02
#       6
#    16   8  16   4   8  16
#     4  12  24  44  69  98 135 177 228 285 345 408
#     4   9  19  37  62  95 131 169 217 273 334 403
#     4  11  25  44  63  94 138 183 228 280 344 417
#     4  12  22  44  71 102 135 174 226 280 338 398
#     4  11  26  44  63  95 135 172 219 275 336 408
#     4  11  23  40  70 100 133 174 230 284 347 410
#
# _framework density 19.759947
#
# number of rings (size 3 to 8) (size 9 to 14) (size 15 to 20)
#    0.000    0.941    3.529    2.824    4.941    1.412 
#    0.000    2.941    0.000    2.118    0.000    0.000 
#    0.000    0.000    0.000    0.000    0.000    0.000 
#
# Total GULP energy -189632.483186 kJ/mol
# GULP energy per Si atom -5577.425976 kJ/mol
# Density = 1.971497 g / cm^3
# Si number density = 19.759947 Si / 1000 Ang^3
#
#
#
# Elastic Constant Matrix: (Units=GPa)
#
#
# Indices 1 2 3 4 5 6 
#
# 1 62.2396 9.4778 12.3487 0.0000 0.0000 0.0000
# 2 9.4778 101.3320 30.8636 0.0000 0.0000 0.0000
# 3 12.3487 30.8636 117.7959 0.0000 0.0000 0.0000
# 4 0.0000 0.0000 0.0000 65.8791 0.0000 0.0000
# 5 0.0000 0.0000 0.0000 0.0000 144.4130 0.0000
# 6 0.0000 0.0000 0.0000 0.0000 0.0000 -18.4708
#
#
#
# Elastic Compliance Matrix: (Units=1/GPa)
#
#
# Indices 1 2 3 4 5 6 
#
# 1 0.016522 -0.001106 -0.001442 0.000000 0.000000 0.000000
# 2 -0.001106 0.010798 -0.002713 0.000000 0.000000 0.000000
# 3 -0.001442 -0.002713 0.009351 0.000000 0.000000 0.000000
# 4 0.000000 0.000000 0.000000 0.015179 0.000000 0.000000
# 5 0.000000 0.000000 0.000000 0.000000 0.006925 0.000000
# 6 0.000000 0.000000 0.000000 0.000000 0.000000 -0.054140
#
#
# Mechanical properties :
#
#
# Convention : Reuss Voigt Hill
#
# Bulk Modulus (GPa) = 38.24355 42.97195 40.60775
# Shear Modulus (GPa) = 209.42627 53.60942 131.51785
#
# Velocity S-wave (km/s) = 10.30608 5.21433 8.16715
# Velocity P-wave (km/s) = 12.68923 7.61883 10.46573
#
# Compressibility (1/GPa) = 0.02614820
#
# Stress axis : x y z
#
# Youngs Moduli (GPa) = 60.52718 92.60603 106.93622
#
# Poissons Ratio (x) = 0.10243 0.15422
# Poissons Ratio (y) = 0.06695 0.29015
# Poissons Ratio (z) = 0.08729 0.25127
#
# Static dielectric constant tensor:
#      x y z
#    x 1.701770 0.000000 0.000000 
#    y 0.000000 1.664580 0.000000 
#    z 0.000000 0.000000 1.672510 
# 
# From -- ./inp_files/7689.got.cif
#   From: 2010.05.17/outbox.cif.g08.bks.cpg/sg71_4_cif.got.tgz:7689.got - 2010.06.03 16:22:01.
