data_PCOD9524378
_publ_section_title
;
Structure prediction by ZEFSAII (Michael W. Deem and Ramdas Pophale) SiO2 
 PCOD9524378
Probable space group: I M M M
;
_chemical_formula_sum "Si O2"
_cell_formula_units_Z 88
_cell_length_a 22.236412
_cell_length_b 8.821716
_cell_length_c 23.207043
_cell_angle_alpha 90.000000
_cell_angle_beta 90.000000
_cell_angle_gamma 90.000000
_cell_volume 4552.370406
_symmetry_space_group_name_H-M "I M M M"
_symmetry_group_IT_number 71
_symmetry_cell_setting 'orthorhombic'
loop_
_space_group_symop_operation_xyz
x,y,z
-x,-y,z
x,-y,-z
-x,y,-z
-x,-y,-z
x,y,-z
-x,y,z
x,-y,z
1/2+x,1/2+y,1/2+z
1/2-x,1/2-y,1/2+z
1/2+x,1/2-y,1/2-z
1/2-x,1/2+y,1/2-z
1/2-x,1/2-y,1/2-z
1/2+x,1/2+y,1/2-z
1/2-x,1/2+y,1/2+z
1/2+x,1/2-y,1/2+z
loop_
_atom_site_type_symbol
_atom_site_label
_atom_site_fract_x
_atom_site_fract_y
_atom_site_fract_z
Si Si1 0.259957 0.319312 0.434820
Si Si2 0.375949 0.182591 0.383927
Si Si3 0.683712 0.180718 0.261269
Si Si4 0.571479 0.170059 0.067582
Si Si5 0.000000 0.182535 0.931344
Si Si6 0.159691 0.175673 0.646349
O O1 0.237922 0.290120 0.500000
O O2 0.262684 0.500000 0.426459
O O3 0.325593 0.247779 0.426897
O O4 0.216321 0.246178 0.387630
O O5 0.349884 0.225274 0.320388
O O6 0.440354 0.251162 0.400818
O O7 0.378572 0.000000 0.386986
O O8 0.750000 0.250000 0.250000
O O9 0.647902 0.237607 0.205643
O O10 0.689472 0.000000 0.261805
O O11 0.500000 0.173709 0.074884
O O12 0.604042 0.295460 0.104506
O O13 0.593196 0.000000 0.084227
O O14 0.584164 0.188190 0.000000
O O15 0.000000 0.000000 0.926949
O O16 0.000000 0.221377 0.000000
O O17 0.171187 0.000000 0.657545
#
# Coordination Sequence:
#
# PCOD9524378 Si02
#       6
#    16  16  16  16   8  16
#     4  11  23  38  60  90 124 162 203 251 310 373
#     4  11  24  42  66  95 125 162 210 263 319 375
#     4  11  23  41  65  91 122 161 203 251 309 370
#     4   9  19  38  62  86 116 157 202 248 303 364
#     4  11  25  45  69  97 131 173 216 259 318 389
#     4  12  24  37  58  89 123 161 204 251 306 367
#
# _framework density 19.330590000000001
#
# number of rings (size 3 to 8) (size 9 to 14) (size 15 to 20)
#    0.000    1.182    1.818    5.182    0.000    9.455 
#    1.636    0.909    0.000    0.000    0.000    0.000 
#    0.000    0.000    0.000    0.000    0.000    0.000 
#
# Total GULP energy -245922.982243 kJ/mol
# GULP energy per Si atom -5589.158687 kJ/mol
# Density = 1.928659 g / cm^3
# Si number density = 19.330590 Si / 1000 Ang^3
#
#
#
# Elastic Constant Matrix: (Units=GPa)
#
#
# Indices 1 2 3 4 5 6 
#
# 1 94.6265 35.3231 52.5753 0.0000 0.0000 0.0000
# 2 35.3231 74.8282 50.3612 0.0000 0.0000 0.0000
# 3 52.5753 50.3612 104.9352 0.0000 0.0000 0.0000
# 4 0.0000 0.0000 0.0000 30.3296 0.0000 0.0000
# 5 0.0000 0.0000 0.0000 0.0000 17.1875 0.0000
# 6 0.0000 0.0000 0.0000 0.0000 0.0000 37.1329
#
#
#
# Elastic Compliance Matrix: (Units=1/GPa)
#
#
# Indices 1 2 3 4 5 6 
#
# 1 0.015089 -0.003006 -0.006117 0.000000 0.000000 0.000000
# 2 -0.003006 0.020339 -0.008255 0.000000 0.000000 0.000000
# 3 -0.006117 -0.008255 0.016557 0.000000 0.000000 0.000000
# 4 0.000000 0.000000 0.000000 0.032971 0.000000 0.000000
# 5 0.000000 0.000000 0.000000 0.000000 0.058182 0.000000
# 6 0.000000 0.000000 0.000000 0.000000 0.000000 0.026930
#
#
# Mechanical properties :
#
#
# Convention : Reuss Voigt Hill
#
# Bulk Modulus (GPa) = 58.04630 61.21211 59.62921
# Shear Modulus (GPa) = 23.74554 26.00536 24.87545
#
# Velocity S-wave (km/s) = 3.50864 3.67181 3.59115
# Velocity P-wave (km/s) = 6.81964 7.05059 6.93608
#
# Compressibility (1/GPa) = 0.01722763
#
# Stress axis : x y z
#
# Youngs Moduli (GPa) = 66.27486 49.16730 60.39898
#
# Poissons Ratio (x) = 0.14778 0.36948
# Poissons Ratio (y) = 0.19919 0.49861
# Poissons Ratio (z) = 0.40543 0.40589
#
# Static dielectric constant tensor:
#      x y z
#    x 1.681400 0.000000 0.000000 
#    y 0.000000 1.662400 0.000000 
#    z 0.000000 0.000000 1.690110 
# 
# From -- ./inp_files/55526.got.cif
#   From: 2010.05.17/outbox.cif.g08.bks.cpg/sg71_28_cif.got.tgz:55526.got - 2010.06.03 16:22:01.
