data_PCOD9524051
_publ_section_title
;
Structure prediction by ZEFSAII (Michael W. Deem and Ramdas Pophale) SiO2 
 PCOD9524051
Probable space group: I M M M
;
_chemical_formula_sum "Si O2"
_cell_formula_units_Z 104
_cell_length_a 13.576416
_cell_length_b 28.176898
_cell_length_c 14.783156
_cell_angle_alpha 90.000000
_cell_angle_beta 90.000000
_cell_angle_gamma 90.000000
_cell_volume 5655.167549
_symmetry_space_group_name_H-M "I M M M"
_symmetry_group_IT_number 71
_symmetry_cell_setting 'orthorhombic'
loop_
_space_group_symop_operation_xyz
x,y,z
-x,-y,z
x,-y,-z
-x,y,-z
-x,-y,-z
x,y,-z
-x,y,z
x,-y,z
1/2+x,1/2+y,1/2+z
1/2-x,1/2-y,1/2+z
1/2+x,1/2-y,1/2-z
1/2-x,1/2+y,1/2-z
1/2-x,1/2-y,1/2-z
1/2+x,1/2+y,1/2-z
1/2-x,1/2+y,1/2+z
1/2+x,1/2-y,1/2+z
loop_
_atom_site_type_symbol
_atom_site_label
_atom_site_fract_x
_atom_site_fract_y
_atom_site_fract_z
Si Si1 0.308920 0.401778 0.603270
Si Si2 0.116679 0.000000 0.893805
Si Si3 0.257497 0.146150 0.397799
Si Si4 0.117381 0.821737 0.764244
Si Si5 0.118078 0.739941 0.898595
Si Si6 0.111772 0.554353 0.636793
Si Si7 0.386304 0.054373 0.644891
O O1 0.343998 0.398603 0.500000
O O2 0.343246 0.451655 0.646289
O O3 0.355099 0.360317 0.660150
O O4 0.191140 0.407609 0.604379
O O5 0.000000 0.000000 0.889901
O O6 0.146267 0.000000 0.000000
O O7 0.217497 0.147654 0.500000
O O8 0.176496 0.161410 0.324120
O O9 0.340176 0.187130 0.389851
O O10 0.310366 0.095241 0.383768
O O11 0.148585 0.772682 0.813905
O O12 0.000000 0.820360 0.747956
O O13 0.000000 0.739387 0.898087
O O14 0.148756 0.757746 0.000000
O O15 0.136547 0.500000 0.607951
O O16 0.113346 0.554608 0.745737
O O17 0.000000 0.564011 0.608044
O O18 0.500000 0.064286 0.616005
O O19 0.362338 0.000000 0.616600
#
# Coordination Sequence:
#
# PCOD9524051 Si02
#       7
#    16   8  16  16  16  16  16
#     4  11  20  32  52  77 106 143 187 233 280 330
#     4   9  18  30  45  71 102 134 182 237 279 319
#     4  11  22  37  60  86 113 146 186 231 280 336
#     4  11  23  39  57  79 111 151 191 232 276 323
#     4   9  19  37  62  91 116 138 174 226 283 339
#     4   9  17  31  51  76 110 148 182 220 277 349
#     4   9  18  34  57  85 115 146 183 230 285 342
#
# _framework density 18.390260000000001
#
# number of rings (size 3 to 8) (size 9 to 14) (size 15 to 20)
#    0.000    2.077    2.308    2.769    0.000    3.385 
#    0.000    1.538    0.000    0.000    0.000    3.231 
#    0.000    0.000    0.000    0.000    0.000    0.000 
#
# Total GULP energy -289912.726454 kJ/mol
# GULP energy per Si atom -5575.244740 kJ/mol
# Density = 1.834840 g / cm^3
# Si number density = 18.390260 Si / 1000 Ang^3
#
#
#
# Elastic Constant Matrix: (Units=GPa)
#
#
# Indices 1 2 3 4 5 6 
#
# 1 56.7947 30.3207 29.0680 0.0000 0.0000 0.0000
# 2 30.3207 98.7489 41.3866 0.0000 0.0000 0.0000
# 3 29.0680 41.3866 106.2705 -0.0001 0.0000 0.0000
# 4 0.0000 0.0000 -0.0001 29.1760 0.0000 0.0000
# 5 0.0000 0.0000 0.0000 0.0000 3.7696 0.0000
# 6 0.0000 0.0000 0.0000 0.0000 0.0000 26.4002
#
#
#
# Elastic Compliance Matrix: (Units=1/GPa)
#
#
# Indices 1 2 3 4 5 6 
#
# 1 0.022485 -0.005170 -0.004137 0.000000 0.000000 0.000000
# 2 -0.005170 0.013291 -0.003762 0.000000 0.000000 0.000000
# 3 -0.004137 -0.003762 0.012006 0.000000 0.000000 0.000000
# 4 0.000000 0.000000 0.000000 0.034275 0.000000 0.000000
# 5 0.000000 0.000000 0.000000 0.000000 0.265278 0.000000
# 6 0.000000 0.000000 0.000000 0.000000 0.000000 0.037879
#
#
# Mechanical properties :
#
#
# Convention : Reuss Voigt Hill
#
# Bulk Modulus (GPa) = 46.20106 51.48496 48.84301
# Shear Modulus (GPa) = 11.94555 22.60509 17.27532
#
# Velocity S-wave (km/s) = 2.55141 3.50978 3.06824
# Velocity P-wave (km/s) = 5.81865 6.66943 6.25851
#
# Compressibility (1/GPa) = 0.02164452
#
# Stress axis : x y z
#
# Youngs Moduli (GPa) = 44.47482 75.23999 83.28828
#
# Poissons Ratio (x) = 0.38900 0.34454
# Poissons Ratio (y) = 0.22994 0.31332
# Poissons Ratio (z) = 0.18398 0.28304
#
# Static dielectric constant tensor:
#      x y z
#    x 1.643290 0.000000 0.000000 
#    y 0.000000 1.639640 0.000000 
#    z 0.000000 0.000000 1.664200 
# 
# From -- ./inp_files/34902.got.cif
#   From: 2010.05.17/outbox.cif.g08.bks.cpg/sg71_18_cif.got.tgz:34902.got - 2010.06.03 16:22:01.
