data_PCOD9524301
_publ_section_title
;
Structure prediction by ZEFSAII (Michael W. Deem and Ramdas Pophale) SiO2 
 PCOD9524301
Probable space group: I M M M
;
_chemical_formula_sum "Si O2"
_cell_formula_units_Z 56
_cell_length_a 10.921447
_cell_length_b 26.796597
_cell_length_c 10.049259
_cell_angle_alpha 90.000000
_cell_angle_beta 90.000000
_cell_angle_gamma 90.000000
_cell_volume 2940.992161
_symmetry_space_group_name_H-M "I M M M"
_symmetry_group_IT_number 71
_symmetry_cell_setting 'orthorhombic'
loop_
_space_group_symop_operation_xyz
x,y,z
-x,-y,z
x,-y,-z
-x,y,-z
-x,-y,-z
x,y,-z
-x,y,z
x,-y,z
1/2+x,1/2+y,1/2+z
1/2-x,1/2-y,1/2+z
1/2+x,1/2-y,1/2-z
1/2-x,1/2+y,1/2-z
1/2-x,1/2-y,1/2-z
1/2+x,1/2+y,1/2-z
1/2-x,1/2+y,1/2+z
1/2+x,1/2-y,1/2+z
loop_
_atom_site_type_symbol
_atom_site_label
_atom_site_fract_x
_atom_site_fract_y
_atom_site_fract_z
Si Si1 0.645194 0.559299 0.000000
Si Si2 0.649379 0.218039 0.162788
Si Si3 0.000000 0.558322 0.849635
Si Si4 0.235160 0.392540 0.745655
Si Si5 0.644613 0.556139 0.500000
O O1 0.688018 0.592900 0.123758
O O2 0.691888 0.500000 0.000000
O O3 0.500000 0.554932 0.000000
O O4 0.500000 0.226791 0.187340
O O5 0.750000 0.250000 0.250000
O O6 0.686201 0.162446 0.211192
O O7 0.666071 0.223279 0.000000
O O8 0.884322 0.574940 0.768095
O O9 0.000000 0.500000 0.864640
O O10 0.000000 0.580882 0.000000
O O11 0.312875 0.413255 0.625712
O O12 0.696439 0.500000 0.500000
O O13 0.500000 0.552209 0.500000
#
# Coordination Sequence:
#
# PCOD9524301 Si02
#       5
#     8  16   8  16   8
#     4  11  24  41  64  99 144 192 238 279 329 404
#     4  11  27  51  74 102 137 176 230 297 357 421
#     4  11  22  37  65 103 141 179 227 273 326 399
#     4  12  23  43  68  97 138 180 226 280 343 405
#     4  11  24  41  64  99 142 182 224 275 335 410
#
# _framework density 19.041193
#
# number of rings (size 3 to 8) (size 9 to 14) (size 15 to 20)
#    0.000    0.714    4.286    3.429    2.000    5.714 
#    0.000    1.429    0.000    0.000    0.000    0.000 
#    0.000    0.000    0.000    0.000    0.000    0.000 
#
# Total GULP energy -155926.024777 kJ/mol
# GULP energy per Si atom -5568.786599 kJ/mol
# Density = 1.899785 g / cm^3
# Si number density = 19.041193 Si / 1000 Ang^3
#
#
#
# Elastic Constant Matrix: (Units=GPa)
#
#
# Indices 1 2 3 4 5 6 
#
# 1 145.0551 60.6998 71.2427 0.0000 0.0000 0.0000
# 2 60.6998 113.3304 55.4140 0.0000 0.0000 0.0000
# 3 71.2427 55.4140 172.7807 -0.0001 0.0002 0.0000
# 4 0.0000 0.0000 -0.0001 32.9551 0.0000 0.0000
# 5 0.0000 0.0000 0.0002 0.0000 42.9162 0.0000
# 6 0.0000 0.0000 0.0000 0.0000 0.0000 43.9296
#
#
#
# Elastic Compliance Matrix: (Units=1/GPa)
#
#
# Indices 1 2 3 4 5 6 
#
# 1 0.009932 -0.003934 -0.002833 0.000000 0.000000 0.000000
# 2 -0.003934 0.012023 -0.002234 0.000000 0.000000 0.000000
# 3 -0.002833 -0.002234 0.007672 0.000000 0.000000 0.000000
# 4 0.000000 0.000000 0.000000 0.030344 0.000000 0.000000
# 5 0.000000 0.000000 0.000000 0.000000 0.023301 0.000000
# 6 0.000000 0.000000 0.000000 0.000000 0.000000 0.022764
#
#
# Mechanical properties :
#
#
# Convention : Reuss Voigt Hill
#
# Bulk Modulus (GPa) = 86.02476 89.54215 87.78346
# Shear Modulus (GPa) = 39.08867 40.21416 39.65141
#
# Velocity S-wave (km/s) = 4.53575 4.60059 4.56828
# Velocity P-wave (km/s) = 8.52684 8.68033 8.60393
#
# Compressibility (1/GPa) = 0.01162456
#
# Stress axis : x y z
#
# Youngs Moduli (GPa) = 100.68666 83.17309 130.33617
#
# Poissons Ratio (x) = 0.32721 0.36930
# Poissons Ratio (y) = 0.39610 0.29116
# Poissons Ratio (z) = 0.28529 0.18580
#
# Static dielectric constant tensor:
#      x y z
#    x 1.651340 0.000000 0.000000 
#    y 0.000000 1.664800 0.000000 
#    z 0.000000 0.000000 1.713470 
# 
# From -- ./inp_files/3394.got.cif
#   From: 2010.05.17/outbox.cif.g08.bks.cpg/sg71_2_cif.got.tgz:3394.got - 2010.06.03 16:22:01.
