data_PCOD9524559
_publ_section_title
;
Structure prediction by ZEFSAII (Michael W. Deem and Ramdas Pophale) SiO2 
 PCOD9524559
Probable space group: I M M M
;
_chemical_formula_sum "Si O2"
_cell_formula_units_Z 80
_cell_length_a 28.047583
_cell_length_b 7.616511
_cell_length_c 19.410971
_cell_angle_alpha 90.000000
_cell_angle_beta 90.000000
_cell_angle_gamma 90.000000
_cell_volume 4146.663331
_symmetry_space_group_name_H-M "I M M M"
_symmetry_group_IT_number 71
_symmetry_cell_setting 'orthorhombic'
loop_
_space_group_symop_operation_xyz
x,y,z
-x,-y,z
x,-y,-z
-x,y,-z
-x,-y,-z
x,y,-z
-x,y,z
x,-y,z
1/2+x,1/2+y,1/2+z
1/2-x,1/2-y,1/2+z
1/2+x,1/2-y,1/2-z
1/2-x,1/2+y,1/2-z
1/2-x,1/2-y,1/2-z
1/2+x,1/2+y,1/2-z
1/2-x,1/2+y,1/2+z
1/2+x,1/2-y,1/2+z
loop_
_atom_site_type_symbol
_atom_site_label
_atom_site_fract_x
_atom_site_fract_y
_atom_site_fract_z
Si Si1 0.847818 0.785527 0.077139
Si Si2 0.554202 0.210672 0.924087
Si Si3 0.397043 0.290377 0.782693
Si Si4 0.800484 0.789419 0.216124
Si Si5 0.553011 0.285723 0.645304
O O1 0.812138 0.727897 0.138175
O O2 0.901705 0.733243 0.098998
O O3 0.847368 0.000000 0.076658
O O4 0.836356 0.726122 0.000000
O O5 0.500000 0.275125 0.912449
O O6 0.586623 0.253711 0.859506
O O7 0.552008 0.000000 0.927124
O O8 0.569965 0.273064 0.000000
O O9 0.395781 0.500000 0.775426
O O10 0.344615 0.223638 0.762624
O O11 0.433772 0.229570 0.723409
O O12 0.750000 0.750000 0.250000
O O13 0.803681 0.000000 0.213430
O O14 0.500000 0.225877 0.625583
O O15 0.552191 0.500000 0.643617
#
# Coordination Sequence:
#
# PCOD9524559 Si02
#       5
#    16  16  16  16  16
#     4   8  14  25  41  62  88 115 142 173 210 254
#     4   9  18  31  45  64  92 122 151 186 227 270
#     4   9  17  29  45  65  89 117 150 186 223 267
#     4   9  18  32  49  68  89 115 149 188 227 266
#     4   8  13  21  36  61  90 116 141 170 205 249
#
# _framework density 19.292619999999999
#
# number of rings (size 3 to 8) (size 9 to 14) (size 15 to 20)
#    0.000    3.400    0.000    3.600    0.000    2.800 
#    0.000    4.000    0.000    4.200    0.000    0.000 
#    0.000    0.000    0.000   21.200    0.000   16.000 
#
# Total GULP energy -222823.361537 kJ/mol
# GULP energy per Si atom -5570.584038 kJ/mol
# Density = 1.924871 g / cm^3
# Si number density = 19.292620 Si / 1000 Ang^3
#
#
#
# Elastic Constant Matrix: (Units=GPa)
#
#
# Indices 1 2 3 4 5 6 
#
# 1 122.9697 4.4204 89.7868 0.0000 0.0000 0.0000
# 2 4.4204 34.1572 4.6404 0.0000 0.0000 0.0000
# 3 89.7868 4.6404 188.7778 0.0000 0.0000 0.0000
# 4 0.0000 0.0000 0.000014727.4117 0.0000 0.0000
# 5 0.0000 0.0000 0.0000 0.0000 15.6522 0.0000
# 6 0.0000 0.0000 0.0000 0.0000 0.0000 13.9779
#
#
#
# Elastic Compliance Matrix: (Units=1/GPa)
#
#
# Indices 1 2 3 4 5 6 
#
# 1 0.012481 -0.000811 -0.005916 0.000000 0.000000 0.000000
# 2 -0.000811 0.029427 -0.000337 0.000000 0.000000 0.000000
# 3 -0.005916 -0.000337 0.008119 0.000000 0.000000 0.000000
# 4 0.000000 0.000000 0.000000 0.000068 0.000000 0.000000
# 5 0.000000 0.000000 0.000000 0.000000 0.063889 0.000000
# 6 0.000000 0.000000 0.000000 0.000000 0.000000 0.071542
#
#
# Mechanical properties :
#
#
# Convention : Reuss Voigt Hill
#
# Bulk Modulus (GPa) = 27.85719 60.40001 44.12860
# Shear Modulus (GPa) = 23.62701 2967.87884 1495.75292
#
# Velocity S-wave (km/s) = 3.50332 39.26435 27.87438
# Velocity P-wave (km/s) = 5.55292 45.68326 32.54071
#
# Compressibility (1/GPa) = 0.03589738
#
# Stress axis : x y z
#
# Youngs Moduli (GPa) = 80.12126 33.98211 123.16091
#
# Poissons Ratio (x) = 0.02758 0.72866
# Poissons Ratio (y) = 0.06502 0.04156
# Poissons Ratio (z) = 0.47402 0.01147
#
# Static dielectric constant tensor:
#      x y z
#    x 1.669000 0.000000 0.000000 
#    y 0.000000 1.748330 0.000000 
#    z 0.000000 0.000000 1.687250 
# 
# From -- ./inp_files/8261.got.cif
#   From: 2010.05.17/outbox.cif.g08.bks.cpg/sg71_5_cif.got.tgz:8261.got - 2010.06.03 16:22:01.
