data_PCOD9524959
_publ_section_title
;
Structure prediction by ZEFSAII (Michael W. Deem and Ramdas Pophale) SiO2 
 PCOD9524959
Probable space group: I B A M
;
_chemical_formula_sum "Si O2"
_cell_formula_units_Z 96
_cell_length_a 12.140259
_cell_length_b 20.496627
_cell_length_c 20.669463
_cell_angle_alpha 90.000000
_cell_angle_beta 90.000000
_cell_angle_gamma 90.000000
_cell_volume 5143.272606
_symmetry_space_group_name_H-M "I B A M"
_symmetry_group_IT_number 72
_symmetry_cell_setting 'orthorhombic'
loop_
_space_group_symop_operation_xyz
x,y,z
-x,-y,z
x,-y,1/2-z
-x,y,1/2-z
-x,-y,-z
x,y,-z
-x,y,1/2+z
x,-y,1/2+z
1/2+x,1/2+y,1/2+z
1/2-x,1/2-y,1/2+z
1/2+x,1/2-y,-z
1/2-x,1/2+y,-z
1/2-x,1/2-y,1/2-z
1/2+x,1/2+y,1/2-z
1/2-x,1/2+y,z
1/2+x,1/2-y,z
loop_
_atom_site_type_symbol
_atom_site_label
_atom_site_fract_x
_atom_site_fract_y
_atom_site_fract_z
Si Si1 0.829912 0.943670 0.000000
Si Si2 0.619437 0.523498 0.646057
Si Si3 0.298293 0.064303 0.500000
Si Si4 0.456050 0.655279 0.177940
Si Si5 0.337752 0.225094 0.387923
Si Si6 0.729250 0.804384 0.000000
Si Si7 0.521834 0.158929 0.000000
Si Si8 0.692104 0.611335 0.132499
O O1 0.883598 0.965269 0.932044
O O2 0.718403 0.986960 0.000000
O O3 0.811438 0.866466 0.000000
O O4 0.500000 0.500000 0.668413
O O5 0.631312 0.595498 0.674523
O O6 0.695845 0.461669 0.663163
O O7 0.423719 0.087466 0.500000
O O8 0.234701 0.095849 0.560492
O O9 0.500000 0.662188 0.250000
O O10 0.398640 0.720235 0.153304
O O11 0.565405 0.635407 0.136524
O O12 0.252497 0.260941 0.436719
O O13 0.426726 0.193203 0.436534
O O14 0.272843 0.169968 0.347099
O O15 0.607506 0.833085 0.000000
#
# Coordination Sequence:
#
# PCOD9524959 Si02
#       8
#     8  16   8  16  16   8   8  16
#     4  10  16  29  49  78 104 133 171 212 267 323
#     4   9  18  32  51  76 104 136 174 220 269 317
#     4   8  17  33  53  76 106 135 179 213 269 321
#     4  11  22  34  52  78 107 139 182 225 267 313
#     4  10  20  35  51  77 107 141 179 213 272 322
#     4  11  19  29  53  77 111 138 170 215 264 327
#     4   9  19  33  51  77 105 142 171 217 261 324
#     4   9  19  34  54  74 105 139 173 220 268 320
#
# _framework density 18.665158999999999
#
# number of rings (size 3 to 8) (size 9 to 14) (size 15 to 20)
#    0.000    2.333    1.667    1.750    0.000    7.333 
#    0.000    0.000    0.000    0.000    0.000    0.000 
#    0.000    0.000    0.000    0.000    0.000    0.000 
#
# Total GULP energy -267244.442963 kJ/mol
# GULP energy per Si atom -5567.592562 kJ/mol
# Density = 1.862268 g / cm^3
# Si number density = 18.665159 Si / 1000 Ang^3
#
#
#
# Elastic Constant Matrix: (Units=GPa)
#
#
# Indices 1 2 3 4 5 6 
#
# 1 51.3034 15.1680 14.6440 0.0000 0.0000 0.0000
# 2 15.1680 129.4215 26.4088 0.0000 0.0000 0.0000
# 3 14.6440 26.4088 48.4071 0.0000 0.0000 0.0000
# 4 0.0000 0.0000 0.0000 6.9668 0.0000 0.0000
# 5 0.0000 0.0000 0.0000 0.0000 0.8689 0.0000
# 6 0.0000 0.0000 0.0000 0.0000 0.0000 37.9650
#
#
#
# Elastic Compliance Matrix: (Units=1/GPa)
#
#
# Indices 1 2 3 4 5 6 
#
# 1 0.021540 -0.001344 -0.005783 0.000000 0.000000 0.000000
# 2 -0.001344 0.008779 -0.004382 0.000000 0.000000 0.000000
# 3 -0.005783 -0.004382 0.024798 0.000000 0.000000 0.000000
# 4 0.000000 0.000000 0.000000 0.143537 0.000000 0.000000
# 5 0.000000 0.000000 0.000000 0.000000 1.150861 0.000000
# 6 0.000000 0.000000 0.000000 0.000000 0.000000 0.026340
#
#
# Mechanical properties :
#
#
# Convention : Reuss Voigt Hill
#
# Bulk Modulus (GPa) = 31.15501 37.95263 34.55382
# Shear Modulus (GPa) = 3.54717 20.68757 12.11737
#
# Velocity S-wave (km/s) = 1.38005 3.33280 2.55070
# Velocity P-wave (km/s) = 4.38944 5.93192 5.21799
#
# Compressibility (1/GPa) = 0.03209757
#
# Stress axis : x y z
#
# Youngs Moduli (GPa) = 46.42523 113.91456 40.32522
#
# Poissons Ratio (x) = 0.15315 0.23319
# Poissons Ratio (y) = 0.06242 0.17672
# Poissons Ratio (z) = 0.26847 0.49922
#
# Static dielectric constant tensor:
#      x y z
#    x 1.634280 0.000000 0.000000 
#    y 0.000000 1.713830 0.000000 
#    z 0.000000 0.000000 1.662460 
# 
# From -- ./inp_files/37177.got.cif
#   From: 2010.05.17/outbox.cif.g08.bks.cpg/sg72_19_cif.got.tgz:37177.got - 2010.06.03 17:03:01.
