data_PCOD9524834
_publ_section_title
;
Structure prediction by ZEFSAII (Michael W. Deem and Ramdas Pophale) SiO2 
 PCOD9524834
Probable space group: I M M M
;
_chemical_formula_sum "Si O2"
_cell_formula_units_Z 52
_cell_length_a 27.000000
_cell_length_b 21.000000
_cell_length_c 9.000000
_cell_angle_alpha 90.000000
_cell_angle_beta 90.000000
_cell_angle_gamma 90.000000
_cell_volume 5103.000000
_symmetry_space_group_name_H-M "I M M M"
_symmetry_group_IT_number 71
_symmetry_cell_setting 'orthorhombic'
loop_
_space_group_symop_operation_xyz
x,y,z
-x,-y,z
x,-y,-z
-x,y,-z
-x,-y,-z
x,y,-z
-x,y,z
x,-y,z
1/2+x,1/2+y,1/2+z
1/2-x,1/2-y,1/2+z
1/2+x,1/2-y,1/2-z
1/2-x,1/2+y,1/2-z
1/2-x,1/2-y,1/2-z
1/2+x,1/2+y,1/2-z
1/2-x,1/2+y,1/2+z
1/2+x,1/2-y,1/2+z
loop_
_atom_site_type_symbol
_atom_site_label
_atom_site_fract_x
_atom_site_fract_y
_atom_site_fract_z
Si Si1 0.715481 0.302368 0.820906
Si Si2 0.941255 0.500000 0.672947
Si Si3 0.054429 0.292981 0.677494
Si Si4 0.391245 0.673393 0.175212
Si Si5 0.445966 0.575400 0.669259
Si Si6 0.120323 0.390877 0.177224
Si Si7 0.269082 0.070826 0.319368
O O1 0.750000 0.250000 0.750000
O O2 0.659200 0.295271 0.771134
O O3 0.732947 0.372776 0.775631
O O4 0.719007 0.297289 0.000000
O O5 0.927151 0.500000 0.500000
O O6 0.918010 0.440444 0.754850
O O7 0.000000 0.500000 0.681908
O O8 0.058349 0.304543 0.500000
O O9 0.062185 0.218522 0.704724
O O10 0.099436 0.325830 0.759939
O O11 0.000000 0.314660 0.726047
O O12 0.401503 0.606002 0.244177
O O13 0.386145 0.666926 0.000000
O O14 0.445043 0.598768 0.500000
O O15 0.500000 0.590738 0.735272
O O16 0.442290 0.500000 0.666469
O O17 0.175374 0.409593 0.226143
O O18 0.119312 0.392249 0.000000
O O19 0.269062 0.068916 0.500000
O O20 0.257214 0.000000 0.265615
#
# Coordination Sequence:
#
# PCOD9524834 Si02
#       7
#    16   8  16  16  16  16  16
#     4  10  21  37  59  84 112 147 187 235 287 340
#     4  11  23  37  53  75 107 143 175 215 274 329
#     4  10  21  36  52  74 111 151 181 220 277 332
#     4  10  21  36  56  84 113 146 189 234 281 335
#     4   9  19  36  57  82 114 151 187 227 282 344
#     4  11  21  35  56  80 105 138 185 231 267 315
#     4   9  18  35  57  80 108 143 181 224 279 330
#
# _framework density 10.190084000000001
#
# number of rings (size 3 to 8) (size 9 to 14) (size 15 to 20)
#    0.000    2.077    0.769    3.000    0.000    5.846 
#    0.000    3.077    0.000    0.000    0.000    0.000 
#    0.000    0.000    0.000    0.000    0.000    0.000 
#
# Total GULP energy -289773.883515 kJ/mol
# GULP energy per Si atom -5572.574683 kJ/mol
# Density = 1.016689 g / cm^3
# Si number density = 10.190084 Si / 1000 Ang^3
#
#
#
# Elastic Constant Matrix: (Units=GPa)
#
#
# Indices 1 2 3 4 5 6 
#
# 1 80.4205 66.1559 16.8621 0.0000 0.0000 0.0000
# 2 66.1559 87.8711 44.5921 0.0000 0.0000 0.0000
# 3 16.8621 44.5921 -40.5733 0.0000 0.0000 0.0000
# 4 0.0000 0.0000 0.0000 21.1737 0.0000 0.0000
# 5 0.0000 0.0000 0.0000 0.0000 14.2370 0.0000
# 6 0.0000 0.0000 0.0000 0.0000 0.0000 25.3409
#
#
#
# Elastic Compliance Matrix: (Units=1/GPa)
#
#
# Indices 1 2 3 4 5 6 
#
# 1 0.028546 -0.017661 -0.007547 0.000000 0.000000 0.000000
# 2 -0.017661 0.018233 0.012699 0.000000 0.000000 0.000000
# 3 -0.007547 0.012699 -0.013827 0.000000 0.000000 0.000000
# 4 0.000000 0.000000 0.000000 0.047228 0.000000 0.000000
# 5 0.000000 0.000000 0.000000 0.000000 0.070240 0.000000
# 6 0.000000 0.000000 0.000000 0.000000 0.000000 0.039462
#
#
# Mechanical properties :
#
#
# Convention : Reuss Voigt Hill
#
# Bulk Modulus (GPa) = 126.06783 42.54872 84.30827
# Shear Modulus (GPa) = 22.98366 12.15752 17.57059
#
# Velocity S-wave (km/s) = 3.36184 2.44506 2.93941
# Velocity P-wave (km/s) = 8.77848 5.37531 7.27858
#
# Compressibility (1/GPa) = 0.00793224
#
# Stress axis : x y z
#
# Youngs Moduli (GPa) = 35.03136 54.84606 -72.32376
#
# Poissons Ratio (x) = 0.96866 -0.54585
# Poissons Ratio (y) = 0.61870 0.91843
# Poissons Ratio (z) = 0.26439 -0.69648
#
# Static dielectric constant tensor:
#      x y z
#    x 1.725100 0.000000 0.000000 
#    y 0.000000 1.787830 0.000000 
#    z 0.000000 0.000000 1.704190 
# 
# From -- ./inp_files/15050.got.cif
#   From: 2010.05.17/outbox.ucp.g08.bks.cvg/sg71_8_cif.got.tgz:15050.got - 2010.06.11 16:29:00.
