data_PCOD9524795
_publ_section_title
;
Structure prediction by ZEFSAII (Michael W. Deem and Ramdas Pophale) SiO2 
 PCOD9524795
Probable space group: I M M M
;
_chemical_formula_sum "Si O2"
_cell_formula_units_Z 52
_cell_length_a 21.000000
_cell_length_b 9.000000
_cell_length_c 30.000000
_cell_angle_alpha 90.000000
_cell_angle_beta 90.000000
_cell_angle_gamma 90.000000
_cell_volume 5670.000000
_symmetry_space_group_name_H-M "I M M M"
_symmetry_group_IT_number 71
_symmetry_cell_setting 'orthorhombic'
loop_
_space_group_symop_operation_xyz
x,y,z
-x,-y,z
x,-y,-z
-x,y,-z
-x,-y,-z
x,y,-z
-x,y,z
x,-y,z
1/2+x,1/2+y,1/2+z
1/2-x,1/2-y,1/2+z
1/2+x,1/2-y,1/2-z
1/2-x,1/2+y,1/2-z
1/2-x,1/2-y,1/2-z
1/2+x,1/2+y,1/2-z
1/2-x,1/2+y,1/2+z
1/2+x,1/2-y,1/2+z
loop_
_atom_site_type_symbol
_atom_site_label
_atom_site_fract_x
_atom_site_fract_y
_atom_site_fract_z
Si Si1 0.070027 0.825906 0.770324
Si Si2 0.193312 0.822917 0.636549
Si Si3 0.744446 0.175979 0.951426
Si Si4 0.130205 0.331052 0.073767
Si Si5 0.070743 0.675322 0.325106
Si Si6 0.500000 0.670849 0.446325
Si Si7 0.322307 0.830671 0.324416
O O1 0.070572 0.728857 0.725833
O O2 0.129834 0.774982 0.798789
O O3 0.000000 0.803025 0.792315
O O4 0.074736 0.000000 0.759091
O O5 0.209823 0.757565 0.588567
O O6 0.125549 0.765049 0.651040
O O7 0.249440 0.777259 0.671119
O O8 0.196263 0.000000 0.634797
O O9 0.816857 0.233155 0.950441
O O10 0.743441 0.000000 0.944197
O O11 0.716631 0.208956 0.000000
O O12 0.129070 0.500000 0.056741
O O13 0.152469 0.336670 0.124968
O O14 0.062288 0.255710 0.069812
O O15 0.082843 0.500000 0.327648
O O16 0.000000 0.705014 0.343335
O O17 0.500000 0.500000 0.431046
O O18 0.500000 0.671787 0.500000
O O19 0.324088 0.000000 0.306405
#
# Coordination Sequence:
#
# PCOD9524795 Si02
#       7
#    16  16  16  16  16   8  16
#     4  10  21  35  53  79 108 143 187 229 270 319
#     4  10  21  37  58  84 112 143 181 224 269 321
#     4  10  20  35  56  81 109 141 177 219 268 323
#     4  10  21  35  51  73 101 138 182 229 277 326
#     4  10  21  38  60  84 110 143 178 216 269 328
#     4  11  23  35  47  67  97 135 181 231 283 335
#     4   9  20  36  52  75 106 141 181 223 272 322
#
# _framework density 9.1710759999999993
#
# number of rings (size 3 to 8) (size 9 to 14) (size 15 to 20)
#    0.000    2.077    0.000    3.923    1.077    9.846 
#    0.000    0.000    0.000    0.462    0.000    3.231 
#    0.000    0.000    0.000    0.000    0.000    0.000 
#
# Total GULP energy -290077.899017 kJ/mol
# GULP energy per Si atom -5578.421135 kJ/mol
# Density = 0.915020 g / cm^3
# Si number density = 9.171076 Si / 1000 Ang^3
#
#
#
# Elastic Constant Matrix: (Units=GPa)
#
#
# Indices 1 2 3 4 5 6 
#
# 1 65.7946 38.4399 36.3701 0.0000 0.0000 0.0000
# 2 38.4399 44.8227 18.8548 0.0000 0.0000 0.0000
# 3 36.3701 18.8548 32.5261 0.0000 0.0000 0.0000
# 4 0.0000 0.0000 0.0000 30.5327 0.0000 0.0000
# 5 0.0000 0.0000 0.0000 0.0000-2052.1580 0.0000
# 6 0.0000 0.0000 0.0000 0.0000 0.0000 30.7782
#
#
#
# Elastic Compliance Matrix: (Units=1/GPa)
#
#
# Indices 1 2 3 4 5 6 
#
# 1 0.061585 -0.031538 -0.050581 0.000000 0.000000 0.000000
# 2 -0.031538 0.045656 0.008800 0.000000 0.000000 0.000000
# 3 -0.050581 0.008800 0.082203 0.000000 0.000000 0.000000
# 4 0.000000 0.000000 0.000000 0.032752 0.000000 0.000000
# 5 0.000000 0.000000 0.000000 0.000000 -0.000487 0.000000
# 6 0.000000 0.000000 0.000000 0.000000 0.000000 0.032491
#
#
# Mechanical properties :
#
#
# Convention : Reuss Voigt Hill
#
# Bulk Modulus (GPa) = 23.36241 36.71924 30.04083
# Shear Modulus (GPa) = 12.04510 -394.87085 -191.41288
#
# Velocity S-wave (km/s) = 2.56538 -14.68836 -10.22660
# Velocity P-wave (km/s) = 4.64107 16.35853 11.09193
#
# Compressibility (1/GPa) = 0.04280380
#
# Stress axis : x y z
#
# Youngs Moduli (GPa) = 16.23764 21.90311 12.16504
#
# Poissons Ratio (x) = 0.69078 0.61533
# Poissons Ratio (y) = 0.51211 -0.10705
# Poissons Ratio (z) = 0.82132 -0.19274
#
# Static dielectric constant tensor:
#      x y z
#    x 1.636820 0.000000 0.000000 
#    y 0.000000 1.608010 0.000000 
#    z 0.000000 0.000000 1.641240 
# 
# From -- ./inp_files/66782.got.cif
#   From: 2010.05.17/outbox.ucp.g08.bks.cvg/sg71_34_cif.got.tgz:66782.got - 2010.06.11 16:29:00.
