data_PCOD9524645
_publ_section_title
;
Structure prediction by ZEFSAII (Michael W. Deem and Ramdas Pophale) SiO2 
 PCOD9524645
Probable space group: I M M M
;
_chemical_formula_sum "Si O2"
_cell_formula_units_Z 104
_cell_length_a 22.528156
_cell_length_b 14.379647
_cell_length_c 15.603727
_cell_angle_alpha 90.000000
_cell_angle_beta 90.000000
_cell_angle_gamma 90.000000
_cell_volume 5054.779471
_symmetry_space_group_name_H-M "I M M M"
_symmetry_group_IT_number 71
_symmetry_cell_setting 'orthorhombic'
loop_
_space_group_symop_operation_xyz
x,y,z
-x,-y,z
x,-y,-z
-x,y,-z
-x,-y,-z
x,y,-z
-x,y,z
x,-y,z
1/2+x,1/2+y,1/2+z
1/2-x,1/2-y,1/2+z
1/2+x,1/2-y,1/2-z
1/2-x,1/2+y,1/2-z
1/2-x,1/2-y,1/2-z
1/2+x,1/2+y,1/2-z
1/2-x,1/2+y,1/2+z
1/2+x,1/2-y,1/2+z
loop_
_atom_site_type_symbol
_atom_site_label
_atom_site_fract_x
_atom_site_fract_y
_atom_site_fract_z
Si Si1 0.573388 0.895229 0.500000
Si Si2 0.107408 0.208961 0.407525
Si Si3 0.928398 0.103119 0.240086
Si Si4 0.567339 0.216096 0.656528
Si Si5 0.730516 0.106383 0.769436
Si Si6 0.750039 0.731039 0.897358
Si Si7 0.592406 0.104896 0.176819
O O1 0.500000 0.898820 0.500000
O O2 0.596392 0.840613 0.418502
O O3 0.593862 0.000000 0.500000
O O4 0.089165 0.174601 0.500000
O O5 0.086288 0.139868 0.334226
O O6 0.178579 0.217801 0.402625
O O7 0.083245 0.313558 0.391789
O O8 0.904461 0.185867 0.180366
O O9 0.000000 0.101989 0.232104
O O10 0.906046 0.000000 0.223109
O O11 0.500000 0.236478 0.628790
O O12 0.564632 0.148508 0.737645
O O13 0.760304 0.173424 0.841917
O O14 0.731277 0.152992 0.674136
O O15 0.662230 0.101762 0.800491
O O16 0.753378 0.000000 0.766599
O O17 0.769232 0.730493 0.000000
O O18 0.572934 0.000000 0.156885
#
# Coordination Sequence:
#
# PCOD9524645 Si02
#       7
#     8  16  16  16  16  16  16
#     4   9  16  26  43  67  91 115 148 188 225 265
#     4   9  18  31  48  70  92 119 156 193 231 275
#     4   9  18  32  48  66  91 123 156 191 232 273
#     4   9  17  30  47  67  92 122 156 191 226 270
#     4   9  18  32  49  71  98 126 157 194 238 285
#     4   9  18  33  51  71  96 125 158 197 238 282
#     4   9  17  30  47  68  95 124 152 185 231 282
#
# _framework density 20.574587999999999
#
# number of rings (size 3 to 8) (size 9 to 14) (size 15 to 20)
#    0.000    3.000    0.000    0.462    0.000    3.077 
#    1.385    5.769    0.000    2.308    0.000    4.308 
#    0.000    0.000    0.000    0.000    0.000    0.000 
#
# Total GULP energy -289509.153083 kJ/mol
# GULP energy per Si atom -5567.483713 kJ/mol
# Density = 2.052776 g / cm^3
# Si number density = 20.574588 Si / 1000 Ang^3
#
#
#
# Elastic Constant Matrix: (Units=GPa)
#
#
# Indices 1 2 3 4 5 6 
#
# 1 35.4539 4.5310 1.6936 0.0000 0.0000 0.0000
# 2 4.5310 138.8543 46.9449 0.0000 0.0000 0.0000
# 3 1.6936 46.9449 116.6412 0.0000 0.0000 0.0000
# 4 0.0000 0.0000 0.0000 -11.5776 0.0000 0.0000
# 5 0.0000 0.0000 0.0000 0.0000 7.9375 0.0000
# 6 0.0000 0.0000 0.0000 0.0000 0.0000 7.5611
#
#
#
# Elastic Compliance Matrix: (Units=1/GPa)
#
#
# Indices 1 2 3 4 5 6 
#
# 1 0.028324 -0.000909 -0.000045 0.000000 0.000000 0.000000
# 2 -0.000909 0.008365 -0.003354 0.000000 0.000000 0.000000
# 3 -0.000045 -0.003354 0.009924 0.000000 0.000000 0.000000
# 4 0.000000 0.000000 0.000000 -0.086374 0.000000 0.000000
# 5 0.000000 0.000000 0.000000 0.000000 0.125985 0.000000
# 6 0.000000 0.000000 0.000000 0.000000 0.000000 0.132256
#
#
# Mechanical properties :
#
#
# Convention : Reuss Voigt Hill
#
# Bulk Modulus (GPa) = 26.31781 44.14316 35.23048
# Shear Modulus (GPa) = 20.85404 16.63619 18.74511
#
# Velocity S-wave (km/s) = 3.18713 2.84664 3.02169
# Velocity P-wave (km/s) = 5.13449 5.68386 5.41614
#
# Compressibility (1/GPa) = 0.03799708
#
# Stress axis : x y z
#
# Youngs Moduli (GPa) = 35.30575 119.54206 100.76902
#
# Poissons Ratio (x) = 0.10865 0.00458
# Poissons Ratio (y) = 0.03209 0.33794
# Poissons Ratio (z) = 0.00161 0.40089
#
# Static dielectric constant tensor:
#      x y z
#    x 1.790090 0.000000 0.000000 
#    y 0.000000 1.739670 0.000000 
#    z 0.000000 0.000000 1.832730 
# 
# From -- ./inp_files/41101.got.cif
#   From: 2010.05.17/outbox.cif.g08.bks.cpg/sg71_21_cif.got.tgz:41101.got - 2010.06.03 16:22:01.
