data_PCOD9524268
_publ_section_title
;
Structure prediction by ZEFSAII (Michael W. Deem and Ramdas Pophale) SiO2 
 PCOD9524268
Probable space group: I M M M
;
_chemical_formula_sum "Si O2"
_cell_formula_units_Z 104
_cell_length_a 23.064320
_cell_length_b 14.629836
_cell_length_c 16.645187
_cell_angle_alpha 90.000000
_cell_angle_beta 90.000000
_cell_angle_gamma 90.000000
_cell_volume 5616.539160
_symmetry_space_group_name_H-M "I M M M"
_symmetry_group_IT_number 71
_symmetry_cell_setting 'orthorhombic'
loop_
_space_group_symop_operation_xyz
x,y,z
-x,-y,z
x,-y,-z
-x,y,-z
-x,-y,-z
x,y,-z
-x,y,z
x,-y,z
1/2+x,1/2+y,1/2+z
1/2-x,1/2-y,1/2+z
1/2+x,1/2-y,1/2-z
1/2-x,1/2+y,1/2-z
1/2-x,1/2-y,1/2-z
1/2+x,1/2+y,1/2-z
1/2-x,1/2+y,1/2+z
1/2+x,1/2-y,1/2+z
loop_
_atom_site_type_symbol
_atom_site_label
_atom_site_fract_x
_atom_site_fract_y
_atom_site_fract_z
Si Si1 0.567407 0.596492 0.240944
Si Si2 0.434370 0.106029 0.096726
Si Si3 0.352057 0.245718 0.817286
Si Si4 0.069070 0.500000 0.902913
Si Si5 0.272386 0.606657 0.093417
Si Si6 0.566265 0.672355 0.411466
Si Si7 0.146853 0.665975 0.856889
O O1 0.500000 0.598299 0.220664
O O2 0.592681 0.500000 0.213355
O O3 0.597750 0.682963 0.204598
O O4 0.572263 0.604579 0.337146
O O5 0.500000 0.134003 0.123270
O O6 0.382731 0.169076 0.128514
O O7 0.426360 0.000000 0.121084
O O8 0.434307 0.109011 0.000000
O O9 0.304397 0.311736 0.858023
O O10 0.335590 0.197634 0.733024
O O11 0.098680 0.587073 0.861371
O O12 0.000000 0.500000 0.893240
O O13 0.081062 0.500000 0.000000
O O14 0.281607 0.500000 0.119735
O O15 0.204088 0.628213 0.100650
O O16 0.290310 0.612074 0.000000
O O17 0.571340 0.631286 0.500000
O O18 0.500000 0.711196 0.405380
O O19 0.615163 0.748911 0.399604
#
# Coordination Sequence:
#
# PCOD9524268 Si02
#       7
#    16  16  16   8  16  16  16
#     4   9  18  32  50  75 108 142 178 226 280 329
#     4   9  19  36  58  84 114 147 183 229 287 350
#     4  11  22  36  56  83 112 147 188 238 289 347
#     4  11  22  36  58  88 123 159 194 234 287 354
#     4  11  23  40  61  80 107 150 201 248 290 346
#     4   9  17  30  50  76 107 143 182 222 272 339
#     4  11  22  36  54  82 115 149 186 238 294 343
#
# _framework density 18.516741
#
# number of rings (size 3 to 8) (size 9 to 14) (size 15 to 20)
#    0.000    1.923    0.769    4.154    1.077    3.385 
#    0.000    1.538    0.000    0.923    0.000    6.462 
#    0.000    0.000    0.000    0.000    0.000    0.000 
#
# Total GULP energy -289818.803565 kJ/mol
# GULP energy per Si atom -5573.438530 kJ/mol
# Density = 1.847460 g / cm^3
# Si number density = 18.516741 Si / 1000 Ang^3
#
#
#
# Elastic Constant Matrix: (Units=GPa)
#
#
# Indices 1 2 3 4 5 6 
#
# 1 81.9773 36.7525 25.8781 0.0000 0.0000 0.0000
# 2 36.7525 86.5309 23.9850 0.0000 0.0000 0.0000
# 3 25.8781 23.9850 54.6849 0.0000 0.0000 0.0000
# 4 0.0000 0.0000 0.0000 19.5156 0.0000 0.0000
# 5 0.0000 0.0000 0.0000 0.0000 22.4632 0.0000
# 6 0.0000 0.0000 0.0000 0.0000 0.0000 20.4004
#
#
#
# Elastic Compliance Matrix: (Units=1/GPa)
#
#
# Indices 1 2 3 4 5 6 
#
# 1 0.016329 -0.005457 -0.005334 0.000000 0.000000 0.000000
# 2 -0.005457 0.014980 -0.003988 0.000000 0.000000 0.000000
# 3 -0.005334 -0.003988 0.022560 0.000000 0.000000 0.000000
# 4 0.000000 0.000000 0.000000 0.051241 0.000000 0.000000
# 5 0.000000 0.000000 0.000000 0.000000 0.044517 0.000000
# 6 0.000000 0.000000 0.000000 0.000000 0.000000 0.049019
#
#
# Mechanical properties :
#
#
# Convention : Reuss Voigt Hill
#
# Bulk Modulus (GPa) = 41.13325 44.04714 42.59019
# Shear Modulus (GPa) = 21.15907 21.58102 21.37004
#
# Velocity S-wave (km/s) = 3.38405 3.41763 3.40088
# Velocity P-wave (km/s) = 6.12629 6.27797 6.20259
#
# Compressibility (1/GPa) = 0.02431123
#
# Stress axis : x y z
#
# Youngs Moduli (GPa) = 61.24194 66.75723 44.32691
#
# Poissons Ratio (x) = 0.36429 0.23643
# Poissons Ratio (y) = 0.33419 0.17677
# Poissons Ratio (z) = 0.32664 0.26621
#
# Static dielectric constant tensor:
#      x y z
#    x 1.627930 0.000000 0.000000 
#    y 0.000000 1.654910 0.000000 
#    z 0.000000 0.000000 1.655620 
# 
# From -- ./inp_files/39269.got.cif
#   From: 2010.05.17/outbox.cif.g08.bks.cpg/sg71_20_cif.got.tgz:39269.got - 2010.06.03 16:22:01.
