data_PCOD9524914
_publ_section_title
;
Structure prediction by ZEFSAII (Michael W. Deem and Ramdas Pophale) SiO2 
 PCOD9524914
Probable space group: I M M M
;
_chemical_formula_sum "Si O2"
_cell_formula_units_Z 28
_cell_length_a 18.000000
_cell_length_b 9.000000
_cell_length_c 18.000000
_cell_angle_alpha 90.000000
_cell_angle_beta 90.000000
_cell_angle_gamma 90.000000
_cell_volume 2916.000000
_symmetry_space_group_name_H-M "I M M M"
_symmetry_group_IT_number 71
_symmetry_cell_setting 'orthorhombic'
loop_
_space_group_symop_operation_xyz
x,y,z
-x,-y,z
x,-y,-z
-x,y,-z
-x,-y,-z
x,y,-z
-x,y,z
x,-y,z
1/2+x,1/2+y,1/2+z
1/2-x,1/2-y,1/2+z
1/2+x,1/2-y,1/2-z
1/2-x,1/2+y,1/2-z
1/2-x,1/2-y,1/2-z
1/2+x,1/2+y,1/2-z
1/2-x,1/2+y,1/2+z
1/2+x,1/2-y,1/2+z
loop_
_atom_site_type_symbol
_atom_site_label
_atom_site_fract_x
_atom_site_fract_y
_atom_site_fract_z
Si Si1 0.914878 0.319468 0.000000
Si Si2 0.589222 0.171084 0.339486
Si Si3 0.676433 0.675055 0.215914
Si Si4 0.085762 0.678079 0.587682
O O1 0.880607 0.280588 0.920617
O O2 0.918619 0.500000 0.000000
O O3 0.000000 0.263263 0.000000
O O4 0.500000 0.167209 0.344701
O O5 0.614176 0.280889 0.276032
O O6 0.613080 0.000000 0.323841
O O7 0.686895 0.500000 0.209112
O O8 0.750000 0.750000 0.250000
O O9 0.646129 0.742539 0.138938
O O10 0.095952 0.708318 0.500000
O O11 0.091052 0.500000 0.598531
O O12 0.000000 0.720360 0.607052
#
# Coordination Sequence:
#
# PCOD9524914 Si02
#       4
#     8  16  16  16
#     4   7  12  26  51  81 107 135 174 215 258 317
#     4   9  17  33  58  84 111 145 185 230 281 337
#     4  12  25  39  55  80 116 156 197 239 290 346
#     4   9  19  39  67  94 119 150 190 240 299 359
#
# _framework density 9.602195
#
# number of rings (size 3 to 8) (size 9 to 14) (size 15 to 20)
#    0.000    2.429    0.000    6.000    0.000    5.143 
#    2.571    2.143    0.000    2.571    0.000    0.000 
#    0.000    0.000    0.000    0.000    0.000    0.000 
#
# Total GULP energy -156125.733572 kJ/mol
# GULP energy per Si atom -5575.919056 kJ/mol
# Density = 0.958034 g / cm^3
# Si number density = 9.602195 Si / 1000 Ang^3
#
#
#
# Elastic Constant Matrix: (Units=GPa)
#
#
# Indices 1 2 3 4 5 6 
#
# 1 72.1055 49.2748 49.6384 0.0000 0.0000 0.0000
# 2 49.2748 87.6831 58.5187 0.0000 0.0000 0.0000
# 3 49.6384 58.5187 105.3333 0.0000 0.0000 0.0000
# 4 0.0000 0.0000 0.0000 16.7952 0.0000 0.0000
# 5 0.0000 0.0000 0.0000 0.0000 24.6868 0.0000
# 6 0.0000 0.0000 0.0000 0.0000 0.0000 25.9301
#
#
#
# Elastic Compliance Matrix: (Units=1/GPa)
#
#
# Indices 1 2 3 4 5 6 
#
# 1 0.024888 -0.009788 -0.006291 0.000000 0.000000 0.000000
# 2 -0.009788 0.021974 -0.007595 0.000000 0.000000 0.000000
# 3 -0.006291 -0.007595 0.016678 0.000000 0.000000 0.000000
# 4 0.000000 0.000000 0.000000 0.059541 0.000000 0.000000
# 5 0.000000 0.000000 0.000000 0.000000 0.040507 0.000000
# 6 0.000000 0.000000 0.000000 0.000000 0.000000 0.038565
#
#
# Mechanical properties :
#
#
# Convention : Reuss Voigt Hill
#
# Bulk Modulus (GPa) = 61.75865 64.44286 63.10075
# Shear Modulus (GPa) = 19.61564 20.66176 20.13870
#
# Velocity S-wave (km/s) = 3.19942 3.28363 3.24180
# Velocity P-wave (km/s) = 6.77325 6.92860 6.85136
#
# Compressibility (1/GPa) = 0.01619206
#
# Stress axis : x y z
#
# Youngs Moduli (GPa) = 40.18018 45.50804 59.95952
#
# Poissons Ratio (x) = 0.44542 0.37719
# Poissons Ratio (y) = 0.39327 0.45542
# Poissons Ratio (z) = 0.25277 0.34565
#
# Static dielectric constant tensor:
#      x y z
#    x 1.217160 0.000000 0.000000 
#    y 0.000000 1.645390 0.000000 
#    z 0.000000 0.000000 1.717940 
# 
# From -- ./inp_files/7212.got.cif
#   From: 2010.05.17/outbox.ucp.g08.bks.cvg/sg71_4_cif.got.tgz:7212.got - 2010.06.11 16:29:00.
