data_PCOD9524425
_publ_section_title
;
Structure prediction by ZEFSAII (Michael W. Deem and Ramdas Pophale) SiO2 
 PCOD9524425
Probable space group: I M M M
;
_chemical_formula_sum "Si O2"
_cell_formula_units_Z 88
_cell_length_a 18.305790
_cell_length_b 26.700131
_cell_length_c 9.012512
_cell_angle_alpha 90.000000
_cell_angle_beta 90.000000
_cell_angle_gamma 90.000000
_cell_volume 4405.018372
_symmetry_space_group_name_H-M "I M M M"
_symmetry_group_IT_number 71
_symmetry_cell_setting 'orthorhombic'
loop_
_space_group_symop_operation_xyz
x,y,z
-x,-y,z
x,-y,-z
-x,y,-z
-x,-y,-z
x,y,-z
-x,y,z
x,-y,z
1/2+x,1/2+y,1/2+z
1/2-x,1/2-y,1/2+z
1/2+x,1/2-y,1/2-z
1/2-x,1/2+y,1/2-z
1/2-x,1/2-y,1/2-z
1/2+x,1/2+y,1/2-z
1/2-x,1/2+y,1/2+z
1/2+x,1/2-y,1/2+z
loop_
_atom_site_type_symbol
_atom_site_label
_atom_site_fract_x
_atom_site_fract_y
_atom_site_fract_z
Si Si1 0.139309 0.383799 0.321739
Si Si2 0.416515 0.577537 0.326315
Si Si3 0.767451 0.057152 0.329312
Si Si4 0.414899 0.302714 0.662514
Si Si5 0.000000 0.559803 0.821050
Si Si6 0.678178 0.771541 0.827070
O O1 0.130062 0.386087 0.500000
O O2 0.214765 0.410076 0.272881
O O3 0.071678 0.412464 0.244791
O O4 0.148343 0.325584 0.274721
O O5 0.408203 0.563319 0.500000
O O6 0.500000 0.564569 0.282023
O O7 0.350417 0.557306 0.229327
O O8 0.408708 0.637783 0.318765
O O9 0.764890 0.074800 0.500000
O O10 0.740319 0.000000 0.325463
O O11 0.382361 0.289747 0.500000
O O12 0.500000 0.291238 0.656921
O O13 0.380356 0.270989 0.791916
O O14 0.000000 0.500000 0.784420
O O15 0.000000 0.563945 0.000000
O O16 0.750000 0.750000 0.750000
O O17 0.692583 0.777251 0.000000
#
# Coordination Sequence:
#
# PCOD9524425 Si02
#       6
#    16  16  16  16   8  16
#     4  11  25  43  64  91 124 162 207 257 310 374
#     4   9  19  37  60  87 120 158 202 248 295 357
#     4  11  24  40  59  86 119 154 199 254 308 364
#     4   9  19  36  58  84 115 151 190 232 282 340
#     4  11  25  45  69  97 127 161 209 269 328 385
#     4  11  24  39  58  87 122 157 198 246 294 354
#
# _framework density 19.977215000000001
#
# number of rings (size 3 to 8) (size 9 to 14) (size 15 to 20)
#    0.000    1.727    0.000    4.636    1.273   13.455 
#    0.000    3.636    0.000    0.000    0.000    0.000 
#    0.000    0.000    0.000    0.000    0.000    0.000 
#
# Total GULP energy -245701.327865 kJ/mol
# GULP energy per Si atom -5584.121088 kJ/mol
# Density = 1.993175 g / cm^3
# Si number density = 19.977215 Si / 1000 Ang^3
#
#
#
# Elastic Constant Matrix: (Units=GPa)
#
#
# Indices 1 2 3 4 5 6 
#
# 1 93.1721 47.5104 32.7407 0.0000 0.0000 0.0000
# 2 47.5104 88.7406 36.8926 0.0000 0.0000 0.0000
# 3 32.7407 36.8926 58.8551 0.0000 0.0000 0.0000
# 4 0.0000 0.0000 0.0000 35.1002 0.0000 0.0000
# 5 0.0000 0.0000 0.0000 0.0000 37.1183 0.0000
# 6 0.0000 0.0000 0.0000 0.0000 0.0000 28.2082
#
#
#
# Elastic Compliance Matrix: (Units=1/GPa)
#
#
# Indices 1 2 3 4 5 6 
#
# 1 0.015660 -0.006441 -0.004674 0.000000 0.000000 0.000000
# 2 -0.006441 0.017890 -0.007631 0.000000 0.000000 0.000000
# 3 -0.004674 -0.007631 0.024374 0.000000 0.000000 0.000000
# 4 0.000000 0.000000 0.000000 0.028490 0.000000 0.000000
# 5 0.000000 0.000000 0.000000 0.000000 0.026941 0.000000
# 6 0.000000 0.000000 0.000000 0.000000 0.000000 0.035451
#
#
# Mechanical properties :
#
#
# Convention : Reuss Voigt Hill
#
# Bulk Modulus (GPa) = 48.94253 52.78392 50.86323
# Shear Modulus (GPa) = 25.89240 28.32692 27.10966
#
# Velocity S-wave (km/s) = 3.60404 3.76967 3.68778
# Velocity P-wave (km/s) = 6.47079 6.73993 6.60673
#
# Compressibility (1/GPa) = 0.02043213
#
# Stress axis : x y z
#
# Youngs Moduli (GPa) = 63.85884 55.89871 41.02678
#
# Poissons Ratio (x) = 0.36003 0.19176
# Poissons Ratio (y) = 0.41130 0.31307
# Poissons Ratio (z) = 0.29848 0.42656
#
# Static dielectric constant tensor:
#      x y z
#    x 1.298600 0.000000 0.000000 
#    y 0.000000 1.840410 0.000000 
#    z 0.000000 0.000000 1.358320 
# 
# From -- ./inp_files/8872.got.cif
#   From: 2010.05.17/outbox.cif.g08.bks.cpg/sg71_5_cif.got.tgz:8872.got - 2010.06.03 16:22:01.
