data_PCOD9524609
_publ_section_title
;
Structure prediction by ZEFSAII (Michael W. Deem and Ramdas Pophale) SiO2 
 PCOD9524609
Probable space group: I M M M
;
_chemical_formula_sum "Si O2"
_cell_formula_units_Z 56
_cell_length_a 24.787784
_cell_length_b 7.472800
_cell_length_c 12.609348
_cell_angle_alpha 90.000000
_cell_angle_beta 90.000000
_cell_angle_gamma 90.000000
_cell_volume 2335.681888
_symmetry_space_group_name_H-M "I M M M"
_symmetry_group_IT_number 71
_symmetry_cell_setting 'orthorhombic'
loop_
_space_group_symop_operation_xyz
x,y,z
-x,-y,z
x,-y,-z
-x,y,-z
-x,-y,-z
x,y,-z
-x,y,z
x,-y,z
1/2+x,1/2+y,1/2+z
1/2-x,1/2-y,1/2+z
1/2+x,1/2-y,1/2-z
1/2-x,1/2+y,1/2-z
1/2-x,1/2-y,1/2-z
1/2+x,1/2+y,1/2-z
1/2-x,1/2+y,1/2+z
1/2+x,1/2-y,1/2+z
loop_
_atom_site_type_symbol
_atom_site_label
_atom_site_fract_x
_atom_site_fract_y
_atom_site_fract_z
Si Si1 0.207638 0.717332 0.385681
Si Si2 0.327375 0.705334 0.656701
Si Si3 0.557618 0.287741 0.673687
Si Si4 0.500000 0.213918 0.878951
O O1 0.184386 0.763740 0.500000
O O2 0.207970 0.500000 0.375917
O O3 0.270212 0.780582 0.381193
O O4 0.178044 0.791732 0.283946
O O5 0.328050 0.500000 0.620073
O O6 0.385787 0.787166 0.633341
O O7 0.500000 0.216499 0.632433
O O8 0.558646 0.500000 0.651812
O O9 0.549816 0.267362 0.801750
O O10 0.500000 0.000000 0.884503
O O11 0.500000 0.281803 0.000000
#
# Coordination Sequence:
#
# PCOD9524609 Si02
#       4
#    16  16  16   8
#     4   9  18  31  47  68  93 119 149 189 231 265
#     4   9  17  31  49  67  90 121 154 185 221 269
#     4   8  16  29  44  61  83 115 147 176 212 259
#     4   9  17  27  39  59  86 113 142 176 215 261
#
# _framework density 23.975867999999998
#
# number of rings (size 3 to 8) (size 9 to 14) (size 15 to 20)
#    0.857    2.429    0.000    0.000    0.000    4.000 
#    0.000    5.714    0.000    0.857    0.000    6.000 
#    0.000    1.143    0.000    0.000    0.000    0.000 
#
# Total GULP energy -155928.014269 kJ/mol
# GULP energy per Si atom -5568.857652 kJ/mol
# Density = 2.392130 g / cm^3
# Si number density = 23.975868 Si / 1000 Ang^3
#
#
#
# Elastic Constant Matrix: (Units=GPa)
#
#
# Indices 1 2 3 4 5 6 
#
# 1 127.1417 5.5948 -2.9378 0.0000 0.0000 0.0000
# 2 5.5948 79.1154 1.5044 0.0000 0.0000 0.0000
# 3 -2.9378 1.5044 121.8072 0.0000 0.0000 0.0000
# 4 0.0000 0.0000 0.0000 -11.5070 0.0000 0.0000
# 5 0.0000 0.0000 0.0000 0.0000 -6.7065 0.0000
# 6 0.0000 0.0000 0.0000 0.0000 0.0000 -4.8057
#
#
#
# Elastic Compliance Matrix: (Units=1/GPa)
#
#
# Indices 1 2 3 4 5 6 
#
# 1 0.007895 -0.000562 0.000197 0.000000 0.000000 0.000000
# 2 -0.000562 0.012683 -0.000170 0.000000 0.000000 0.000000
# 3 0.000197 -0.000170 0.008217 0.000000 0.000000 0.000000
# 4 0.000000 0.000000 0.000000 -0.086903 0.000000 0.000000
# 5 0.000000 0.000000 0.000000 0.000000 -0.149108 0.000000
# 6 0.000000 0.000000 0.000000 0.000000 0.000000 -0.208088
#
#
# Mechanical properties :
#
#
# Convention : Reuss Voigt Hill
#
# Bulk Modulus (GPa) = 36.06973 37.37634 36.72304
# Shear Modulus (GPa) = -12.34584 16.98968 2.32192
#
# Velocity S-wave (km/s) = -2.27166 2.66487 0.98516
# Velocity P-wave (km/s) = 2.86291 5.00916 4.07970
#
# Compressibility (1/GPa) = 0.02772408
#
# Stress axis : x y z
#
# Youngs Moduli (GPa) = 126.66991 78.84725 121.70552
#
# Poissons Ratio (x) = 0.04431 -0.02402
# Poissons Ratio (y) = 0.07119 0.02071
# Poissons Ratio (z) = -0.02500 0.01342
#
# Static dielectric constant tensor:
#      x y z
#    x 1.948960 0.000000 0.000000 
#    y 0.000000 1.925190 0.000000 
#    z 0.000000 0.000000 1.911940 
# 
# From -- ./inp_files/5766.got.cif
#   From: 2010.05.17/outbox.cif.g08.bks.cpg/sg71_3_cif.got.tgz:5766.got - 2010.06.03 16:22:01.
