data_PCOD9524681
_publ_section_title
;
Structure prediction by ZEFSAII (Michael W. Deem and Ramdas Pophale) SiO2 
 PCOD9524681
Probable space group: I M M M
;
_chemical_formula_sum "Si O2"
_cell_formula_units_Z 36
_cell_length_a 15.000000
_cell_length_b 30.000000
_cell_length_c 9.000000
_cell_angle_alpha 90.000000
_cell_angle_beta 90.000000
_cell_angle_gamma 90.000000
_cell_volume 4050.000000
_symmetry_space_group_name_H-M "I M M M"
_symmetry_group_IT_number 71
_symmetry_cell_setting 'orthorhombic'
loop_
_space_group_symop_operation_xyz
x,y,z
-x,-y,z
x,-y,-z
-x,y,-z
-x,-y,-z
x,y,-z
-x,y,z
x,-y,z
1/2+x,1/2+y,1/2+z
1/2-x,1/2-y,1/2+z
1/2+x,1/2-y,1/2-z
1/2-x,1/2+y,1/2-z
1/2-x,1/2-y,1/2-z
1/2+x,1/2+y,1/2-z
1/2-x,1/2+y,1/2+z
1/2+x,1/2-y,1/2+z
loop_
_atom_site_type_symbol
_atom_site_label
_atom_site_fract_x
_atom_site_fract_y
_atom_site_fract_z
Si Si1 0.286129 0.316201 0.178488
Si Si2 0.896951 0.000000 0.180615
Si Si3 0.394812 0.234718 0.320649
Si Si4 0.213484 0.911245 0.180542
Si Si5 0.097278 0.447964 0.319590
O O1 0.353142 0.279026 0.245409
O O2 0.182522 0.302190 0.215500
O O3 0.310167 0.364183 0.246751
O O4 0.293485 0.316636 0.000000
O O5 0.845852 0.954403 0.224081
O O6 0.000000 0.000000 0.229195
O O7 0.895958 0.000000 0.000000
O O8 0.393688 0.239812 0.500000
O O9 0.500000 0.226677 0.278797
O O10 0.315297 0.921933 0.227302
O O11 0.209529 0.907700 0.000000
O O12 0.097109 0.447183 0.500000
O O13 0.105523 0.500000 0.277330
O O14 0.000000 0.431432 0.269058
#
# Coordination Sequence:
#
# PCOD9524681 Si02
#       5
#    16   8  16  16  16
#     4  10  21  35  53  81 111 137 168 214 268 318
#     4   9  18  32  50  72  98 133 179 221 248 282
#     4   9  19  38  60  78 101 137 177 214 256 313
#     4  10  18  31  51  74 101 136 177 217 255 303
#     4   8  13  23  42  68  95 124 164 215 261 294
#
# _framework density 8.8888890000000007
#
# number of rings (size 3 to 8) (size 9 to 14) (size 15 to 20)
#    0.000    2.778    1.111    1.333    0.000    3.111 
#    0.000    2.778    0.000    0.667    0.000    1.556 
#    0.000    0.000    0.000    0.000    0.000    0.000 
#
# Total GULP energy -200526.324004 kJ/mol
# GULP energy per Si atom -5570.175667 kJ/mol
# Density = 0.886866 g / cm^3
# Si number density = 8.888889 Si / 1000 Ang^3
#
#
#
# Elastic Constant Matrix: (Units=GPa)
#
#
# Indices 1 2 3 4 5 6 
#
# 1 116.2368 43.7233 18.6977 0.0000 0.0002 0.0001
# 2 43.7233 121.6100 23.6730 0.0000 0.0001 0.0000
# 3 18.6977 23.6730 19.6402 0.0001 -0.0002 -0.0001
# 4 0.0000 0.0000 0.0001 18.3891 0.0000 -0.0001
# 5 0.0002 0.0001 -0.0002 0.0000 19.1337 0.0000
# 6 0.0001 0.0000 -0.0001 -0.0001 0.0000 17.7070
#
#
#
# Elastic Compliance Matrix: (Units=1/GPa)
#
#
# Indices 1 2 3 4 5 6 
#
# 1 0.010682 -0.002432 -0.007239 0.000000 0.000000 0.000000
# 2 -0.002432 0.011297 -0.011302 0.000000 0.000000 0.000000
# 3 -0.007239 -0.011302 0.071430 -0.000001 0.000001 0.000001
# 4 0.000000 0.000000 -0.000001 0.054380 0.000000 0.000000
# 5 0.000000 0.000000 0.000001 0.000000 0.052264 0.000000
# 6 0.000000 0.000000 0.000001 0.000000 0.000000 0.056475
#
#
# Mechanical properties :
#
#
# Convention : Reuss Voigt Hill
#
# Bulk Modulus (GPa) = 19.43077 47.74165 33.58621
# Shear Modulus (GPa) = 15.84141 22.47216 19.15678
#
# Velocity S-wave (km/s) = 2.98833 3.55922 3.28620
# Velocity P-wave (km/s) = 4.78125 6.61844 5.77339
#
# Compressibility (1/GPa) = 0.05146476
#
# Stress axis : x y z
#
# Youngs Moduli (GPa) = 93.61390 88.51630 13.99968
#
# Poissons Ratio (x) = 0.21523 0.10134
# Poissons Ratio (y) = 0.22762 0.15823
# Poissons Ratio (z) = 0.67765 1.00043
#
# Static dielectric constant tensor:
#      x y z
#    x 1.635490 0.000000 0.000000 
#    y 0.000000 1.601530 0.000000 
#    z 0.000000 0.000000 1.584740 
# 
# From -- ./inp_files/6419.got.cif
#   From: 2010.05.17/outbox.ucp.g08.bks.cvg/sg71_4_cif.got.tgz:6419.got - 2010.06.11 16:29:00.
