data_PCOD9524252
_publ_section_title
;
Structure prediction by ZEFSAII (Michael W. Deem and Ramdas Pophale) SiO2 
 PCOD9524252
Probable space group: I M M M
;
_chemical_formula_sum "Si O2"
_cell_formula_units_Z 104
_cell_length_a 23.102380
_cell_length_b 27.021811
_cell_length_c 7.558293
_cell_angle_alpha 90.000000
_cell_angle_beta 90.000000
_cell_angle_gamma 90.000000
_cell_volume 4718.401558
_symmetry_space_group_name_H-M "I M M M"
_symmetry_group_IT_number 71
_symmetry_cell_setting 'orthorhombic'
loop_
_space_group_symop_operation_xyz
x,y,z
-x,-y,z
x,-y,-z
-x,y,-z
-x,-y,-z
x,y,-z
-x,y,z
x,-y,z
1/2+x,1/2+y,1/2+z
1/2-x,1/2-y,1/2+z
1/2+x,1/2-y,1/2-z
1/2-x,1/2+y,1/2-z
1/2-x,1/2-y,1/2-z
1/2+x,1/2+y,1/2-z
1/2-x,1/2+y,1/2+z
1/2+x,1/2-y,1/2+z
loop_
_atom_site_type_symbol
_atom_site_label
_atom_site_fract_x
_atom_site_fract_y
_atom_site_fract_z
Si Si1 0.563967 0.606318 0.784971
Si Si2 0.814436 0.268068 0.698405
Si Si3 0.434084 0.278055 0.784119
Si Si4 0.223018 0.372764 0.801946
Si Si5 0.000000 0.557768 0.715358
Si Si6 0.123818 0.441254 0.711381
Si Si7 0.820231 0.055671 0.716819
O O1 0.500000 0.591714 0.724638
O O2 0.573711 0.663889 0.737640
O O3 0.615260 0.570487 0.728594
O O4 0.563978 0.605266 0.000000
O O5 0.820333 0.249891 0.500000
O O6 0.750000 0.250000 0.750000
O O7 0.875927 0.250472 0.781542
O O8 0.806970 0.326982 0.707288
O O9 0.500000 0.263269 0.725596
O O10 0.436184 0.274370 0.000000
O O11 0.175938 0.415745 0.807161
O O12 0.278623 0.399916 0.721750
O O13 0.237788 0.355380 0.000000
O O14 0.061276 0.579308 0.770306
O O15 0.000000 0.500000 0.768556
O O16 0.000000 0.557619 0.500000
O O17 0.129854 0.433232 0.500000
O O18 0.124150 0.500000 0.739559
O O19 0.816886 0.055955 0.500000
O O20 0.804152 0.000000 0.773533
#
# Coordination Sequence:
#
# PCOD9524252 Si02
#       7
#    16  16  16  16   8  16  16
#     4   8  13  23  42  68  97 127 160 202 252 305
#     4  11  22  37  58  81 106 137 179 227 277 329
#     4   8  15  30  52  77 104 136 174 215 264 326
#     4  11  22  35  50  72 105 143 180 217 265 319
#     4   7  12  26  49  73  95 125 167 213 259 307
#     4   9  17  32  54  77 101 132 174 221 266 315
#     4   9  17  28  43  67 101 139 173 206 251 306
#
# _framework density 22.041361999999999
#
# number of rings (size 3 to 8) (size 9 to 14) (size 15 to 20)
#    0.000    2.846    0.000    4.154    0.000    3.692 
#    1.385    1.923    0.000    2.769    0.000    0.000 
#    0.000    1.846    0.000   12.462    0.000   11.692 
#
# Total GULP energy -289748.324093 kJ/mol
# GULP energy per Si atom -5572.083156 kJ/mol
# Density = 2.199120 g / cm^3
# Si number density = 22.041362 Si / 1000 Ang^3
#
#
#
# Elastic Constant Matrix: (Units=GPa)
#
#
# Indices 1 2 3 4 5 6 
#
# 1 115.8711 23.3153 8.5449 0.0000 0.0000 0.0000
# 2 23.3153 39.0262 3.1076 0.0000 0.0000 0.0000
# 3 8.5449 3.1076 41.4032 0.0000 0.0000 0.0000
# 4 0.0000 0.0000 0.0000 11.8104 0.0000 0.0000
# 5 0.0000 0.0000 0.0000 0.0000 13.6737 0.0000
# 6 0.0000 0.0000 0.0000 0.0000 0.0000 35.7929
#
#
#
# Elastic Compliance Matrix: (Units=1/GPa)
#
#
# Indices 1 2 3 4 5 6 
#
# 1 0.009915 -0.005795 -0.001611 0.000000 0.000000 0.000000
# 2 -0.005795 0.029165 -0.000993 0.000000 0.000000 0.000000
# 3 -0.001611 -0.000993 0.024560 0.000000 0.000000 0.000000
# 4 0.000000 0.000000 0.000000 0.084671 0.000000 0.000000
# 5 0.000000 0.000000 0.000000 0.000000 0.073133 0.000000
# 6 0.000000 0.000000 0.000000 0.000000 0.000000 0.027939
#
#
# Mechanical properties :
#
#
# Convention : Reuss Voigt Hill
#
# Bulk Modulus (GPa) = 21.34890 29.58180 25.46535
# Shear Modulus (GPa) = 17.74335 23.01092 20.37713
#
# Velocity S-wave (km/s) = 2.84033 3.23459 3.04385
# Velocity P-wave (km/s) = 4.52366 5.23452 4.89202
#
# Compressibility (1/GPa) = 0.04684082
#
# Stress axis : x y z
#
# Youngs Moduli (GPa) = 100.85507 34.28752 40.71695
#
# Poissons Ratio (x) = 0.19871 0.06561
# Poissons Ratio (y) = 0.58448 0.04043
# Poissons Ratio (z) = 0.16251 0.03405
#
# Static dielectric constant tensor:
#      x y z
#    x 1.875030 0.000000 0.000000 
#    y 0.000000 1.752360 0.000000 
#    z 0.000000 0.000000 1.971520 
# 
# From -- ./inp_files/11088.got.cif
#   From: 2010.05.17/outbox.cif.g08.bks.cpg/sg71_6_cif.got.tgz:11088.got - 2010.06.03 16:22:01.
