data_PCOD9524474
_publ_section_title
;
Structure prediction by ZEFSAII (Michael W. Deem and Ramdas Pophale) SiO2 
 PCOD9524474
Probable space group: I M M M
;
_chemical_formula_sum "Si O2"
_cell_formula_units_Z 88
_cell_length_a 29.385358
_cell_length_b 8.899837
_cell_length_c 18.660688
_cell_angle_alpha 90.000000
_cell_angle_beta 90.000000
_cell_angle_gamma 90.000000
_cell_volume 4880.234496
_symmetry_space_group_name_H-M "I M M M"
_symmetry_group_IT_number 71
_symmetry_cell_setting 'orthorhombic'
loop_
_space_group_symop_operation_xyz
x,y,z
-x,-y,z
x,-y,-z
-x,y,-z
-x,-y,-z
x,y,-z
-x,y,z
x,-y,z
1/2+x,1/2+y,1/2+z
1/2-x,1/2-y,1/2+z
1/2+x,1/2-y,1/2-z
1/2-x,1/2+y,1/2-z
1/2-x,1/2-y,1/2-z
1/2+x,1/2+y,1/2-z
1/2-x,1/2+y,1/2+z
1/2+x,1/2-y,1/2+z
loop_
_atom_site_type_symbol
_atom_site_label
_atom_site_fract_x
_atom_site_fract_y
_atom_site_fract_z
Si Si1 0.054872 0.176565 0.657255
Si Si2 0.751002 0.674287 0.584470
Si Si3 0.884217 0.678524 0.224984
Si Si4 0.356045 0.680596 0.582289
Si Si5 0.553269 0.682751 0.000000
Si Si6 0.706678 0.677372 0.210751
O O1 0.075661 0.266706 0.723048
O O2 0.071800 0.229391 0.578015
O O3 0.000000 0.185636 0.656903
O O4 0.067081 0.000000 0.665002
O O5 0.759155 0.681714 0.500000
O O6 0.756964 0.500000 0.607449
O O7 0.697654 0.714072 0.595665
O O8 0.783935 0.781128 0.628432
O O9 0.881785 0.500000 0.222990
O O10 0.885246 0.742364 0.144116
O O11 0.838669 0.746962 0.260070
O O12 0.366448 0.724500 0.500000
O O13 0.360471 0.500000 0.587063
O O14 0.554313 0.500000 0.000000
O O15 0.500000 0.726560 0.000000
O O16 0.704895 0.500000 0.222658
O O17 0.750000 0.750000 0.250000
#
# Coordination Sequence:
#
# PCOD9524474 Si02
#       6
#    16  16  16  16   8  16
#     4   9  18  36  62  87 111 142 181 228 277 325
#     4   9  18  34  55  77 104 139 179 226 276 324
#     4  12  24  36  54  82 114 149 184 223 275 328
#     4   9  18  34  57  81 106 140 182 229 276 325
#     4   7  12  28  57  87 109 135 177 225 269 315
#     4  12  23  36  54  77 108 145 186 228 272 321
#
# _framework density 18.031921000000001
#
# number of rings (size 3 to 8) (size 9 to 14) (size 15 to 20)
#    0.000    2.091    1.818    5.455    0.000    1.091 
#    1.636    2.273    0.000    2.182    0.000    3.818 
#    0.000    0.000    0.000    0.000    0.000    0.000 
#
# Total GULP energy -245473.242621 kJ/mol
# GULP energy per Si atom -5578.937332 kJ/mol
# Density = 1.799088 g / cm^3
# Si number density = 18.031921 Si / 1000 Ang^3
#
#
#
# Elastic Constant Matrix: (Units=GPa)
#
#
# Indices 1 2 3 4 5 6 
#
# 1 23.5677 22.6921 29.2492 0.0000 0.0000 0.0000
# 2 22.6921 80.8558 59.5020 0.0000 0.0000 0.0000
# 3 29.2492 59.5020 144.2627 0.0000 0.0000 0.0000
# 4 0.0000 0.0000 0.0000 25.0288 0.0000 0.0000
# 5 0.0000 0.0000 0.0000 0.0000 28.2655 0.0000
# 6 0.0000 0.0000 0.0000 0.0000 0.0000 19.6403
#
#
#
# Elastic Compliance Matrix: (Units=1/GPa)
#
#
# Indices 1 2 3 4 5 6 
#
# 1 0.063973 -0.012074 -0.007991 0.000000 0.000000 0.000000
# 2 -0.012074 0.020036 -0.005816 0.000000 0.000000 0.000000
# 3 -0.007991 -0.005816 0.010951 0.000000 0.000000 0.000000
# 4 0.000000 0.000000 0.000000 0.039954 0.000000 0.000000
# 5 0.000000 0.000000 0.000000 0.000000 0.035379 0.000000
# 6 0.000000 0.000000 0.000000 0.000000 0.000000 0.050916
#
#
# Mechanical properties :
#
#
# Convention : Reuss Voigt Hill
#
# Bulk Modulus (GPa) = 23.14862 52.39698 37.77280
# Shear Modulus (GPa) = 17.39924 23.73645 20.56785
#
# Velocity S-wave (km/s) = 3.10968 3.63210 3.38099
# Velocity P-wave (km/s) = 5.07532 6.83451 6.01953
#
# Compressibility (1/GPa) = 0.04319911
#
# Stress axis : x y z
#
# Youngs Moduli (GPa) = 15.63164 49.90952 91.31749
#
# Poissons Ratio (x) = 0.60259 0.72969
# Poissons Ratio (y) = 0.18873 0.53112
# Poissons Ratio (z) = 0.12491 0.29028
#
# Static dielectric constant tensor:
#      x y z
#    x 1.604490 0.000000 0.000000 
#    y 0.000000 1.603330 0.000000 
#    z 0.000000 0.000000 1.685790 
# 
# From -- ./inp_files/42450.got.cif
#   From: 2010.05.17/outbox.cif.g08.bks.cpg/sg71_22_cif.got.tgz:42450.got - 2010.06.03 16:22:01.
