data_PCOD9524370
_publ_section_title
;
Structure prediction by ZEFSAII (Michael W. Deem and Ramdas Pophale) SiO2 
 PCOD9524370
Probable space group: I M M M
;
_chemical_formula_sum "Si O2"
_cell_formula_units_Z 42
_cell_length_a 7.840030
_cell_length_b 8.083906
_cell_length_c 32.275670
_cell_angle_alpha 90.000000
_cell_angle_beta 90.000000
_cell_angle_gamma 90.000000
_cell_volume 2045.569529
_symmetry_space_group_name_H-M "I M M M"
_symmetry_group_IT_number 71
_symmetry_cell_setting 'orthorhombic'
loop_
_space_group_symop_operation_xyz
x,y,z
-x,-y,z
x,-y,-z
-x,y,-z
-x,-y,-z
x,y,-z
-x,y,z
x,-y,z
1/2+x,1/2+y,1/2+z
1/2-x,1/2-y,1/2+z
1/2+x,1/2-y,1/2-z
1/2-x,1/2+y,1/2-z
1/2-x,1/2-y,1/2-z
1/2+x,1/2+y,1/2-z
1/2-x,1/2+y,1/2+z
1/2+x,1/2-y,1/2+z
loop_
_atom_site_type_symbol
_atom_site_label
_atom_site_fract_x
_atom_site_fract_y
_atom_site_fract_z
Si Si1 0.296185 0.190000 0.795749
Si Si2 0.000000 0.000000 0.000000
Si Si3 0.690794 0.000000 0.067614
Si Si4 0.699781 0.182837 0.617809
O O1 0.500000 0.196992 0.800264
O O2 0.250000 0.250000 0.750000
O O3 0.217295 0.295093 0.832825
O O4 0.239734 0.000000 0.800617
O O5 0.847639 0.000000 0.035808
O O6 0.709058 0.836053 0.095937
O O7 0.500000 0.000000 0.049399
O O8 0.500000 0.191436 0.606843
O O9 0.764131 0.000000 0.605951
#
# Coordination Sequence:
#
# PCOD9524370 Si02
#       4
#    16   2   8  16
#     4  11  23  37  56  89 132 181 238 292 343 408
#     4  12  26  52  78 110 148 178 238 300 366 430
#     4  12  25  47  77 108 141 185 232 291 361 430
#     4  11  23  42  69 100 139 186 234 287 353 421
#
# _framework density 20.532177999999998
#
# number of rings (size 3 to 8) (size 9 to 14) (size 15 to 20)
#    0.000    0.762    3.810    3.714    0.000    9.905 
#    0.000    1.905    0.000    2.286    0.000    0.000 
#    0.000    0.000    0.000    0.000    0.000    0.000 
#
# Total GULP energy -117171.373053 kJ/mol
# GULP energy per Si atom -5579.589193 kJ/mol
# Density = 2.048545 g / cm^3
# Si number density = 20.532178 Si / 1000 Ang^3
#
#
#
# Elastic Constant Matrix: (Units=GPa)
#
#
# Indices 1 2 3 4 5 6 
#
# 1 112.5898 37.5108 30.6055 0.0000 0.0000 0.0000
# 2 37.5108 164.7192 40.5714 0.0000 0.0000 0.0000
# 3 30.6055 40.5714 105.1836 0.0000 0.0000 0.0000
# 4 0.0000 0.0000 0.0000 -12.2897 0.0000 0.0000
# 5 0.0000 0.0000 0.0000 0.0000 32.6365 0.0000
# 6 0.0000 0.0000 0.0000 0.0000 0.0000 11.4230
#
#
#
# Elastic Compliance Matrix: (Units=1/GPa)
#
#
# Indices 1 2 3 4 5 6 
#
# 1 0.010075 -0.001737 -0.002262 0.000000 0.000000 0.000000
# 2 -0.001737 0.007008 -0.002198 0.000000 0.000000 0.000000
# 3 -0.002262 -0.002198 0.011013 0.000000 0.000000 0.000000
# 4 0.000000 0.000000 0.000000 -0.081369 0.000000 0.000000
# 5 0.000000 0.000000 0.000000 0.000000 0.030641 0.000000
# 6 0.000000 0.000000 0.000000 0.000000 0.000000 0.087543
#
#
# Mechanical properties :
#
#
# Convention : Reuss Voigt Hill
#
# Bulk Modulus (GPa) = 63.68123 66.65200 65.16661
# Shear Modulus (GPa) = 60.57817 24.60761 42.59289
#
# Velocity S-wave (km/s) = 5.43765 3.46568 4.55955
# Velocity P-wave (km/s) = 8.39683 6.96759 7.71537
#
# Compressibility (1/GPa) = 0.01570321
#
# Stress axis : x y z
#
# Youngs Moduli (GPa) = 99.25180 142.69696 90.80296
#
# Poissons Ratio (x) = 0.24792 0.20535
# Poissons Ratio (y) = 0.17244 0.19954
# Poissons Ratio (z) = 0.22446 0.31358
#
# Static dielectric constant tensor:
#      x y z
#    x 1.735310 0.000000 0.000000 
#    y 0.000000 1.737390 0.000000 
#    z 0.000000 0.000000 1.691860 
# 
# From -- ./inp_files/2083.got.cif
#   From: 2010.05.17/outbox.cif.g08.bks.cpg/sg71_2_cif.got.tgz:2083.got - 2010.06.03 16:22:01.
