data_PCOD9524328
_publ_section_title
;
Structure prediction by ZEFSAII (Michael W. Deem and Ramdas Pophale) SiO2 
 PCOD9524328
Probable space group: I M M M
;
_chemical_formula_sum "Si O2"
_cell_formula_units_Z 56
_cell_length_a 11.198895
_cell_length_b 10.388057
_cell_length_c 25.461201
_cell_angle_alpha 90.000000
_cell_angle_beta 90.000000
_cell_angle_gamma 90.000000
_cell_volume 2962.022697
_symmetry_space_group_name_H-M "I M M M"
_symmetry_group_IT_number 71
_symmetry_cell_setting 'orthorhombic'
loop_
_space_group_symop_operation_xyz
x,y,z
-x,-y,z
x,-y,-z
-x,y,-z
-x,-y,-z
x,y,-z
-x,y,z
x,-y,z
1/2+x,1/2+y,1/2+z
1/2-x,1/2-y,1/2+z
1/2+x,1/2-y,1/2-z
1/2-x,1/2+y,1/2-z
1/2-x,1/2-y,1/2-z
1/2+x,1/2+y,1/2-z
1/2-x,1/2+y,1/2+z
1/2+x,1/2-y,1/2+z
loop_
_atom_site_type_symbol
_atom_site_label
_atom_site_fract_x
_atom_site_fract_y
_atom_site_fract_z
Si Si1 0.363368 0.500000 0.705530
Si Si2 0.308377 0.752273 0.638787
Si Si3 0.857378 0.648765 0.558682
Si Si4 0.645093 0.000000 0.711256
Si Si5 0.500000 0.151500 0.438254
O O1 0.500000 0.500000 0.728766
O O2 0.350686 0.627086 0.670087
O O3 0.245805 0.500000 0.743013
O O4 0.183229 0.725451 0.610283
O O5 0.325599 0.873517 0.676871
O O6 0.389002 0.780718 0.588419
O O7 0.819058 0.695172 0.500000
O O8 0.815175 0.500000 0.563910
O O9 0.000000 0.646817 0.557744
O O10 0.500000 0.000000 0.724158
O O11 0.500000 0.162494 0.500000
O O12 0.500000 0.000000 0.424086
#
# Coordination Sequence:
#
# PCOD9524328 Si02
#       5
#     8  16  16   8   8
#     4  12  26  42  66  93 126 162 223 294 334 372
#     4  12  21  42  64  92 128 162 216 271 324 386
#     4   9  19  36  60  93 131 168 207 258 326 400
#     4  12  26  46  66  87 130 180 223 270 334 402
#     4  11  22  39  67  97 133 175 205 249 336 411
#
# _framework density 18.905999000000001
#
# number of rings (size 3 to 8) (size 9 to 14) (size 15 to 20)
#    0.000    1.000    5.714    2.571    0.000    2.286 
#    0.000    0.714    0.000    1.714    0.000    0.000 
#    0.000    0.000    0.000    0.000    0.000    0.000 
#
# Total GULP energy -156016.012672 kJ/mol
# GULP energy per Si atom -5572.000453 kJ/mol
# Density = 1.886297 g / cm^3
# Si number density = 18.905999 Si / 1000 Ang^3
#
#
#
# Elastic Constant Matrix: (Units=GPa)
#
#
# Indices 1 2 3 4 5 6 
#
# 1 101.8247 32.1310 59.4518 0.0000 0.0000 0.0000
# 2 32.1310 126.4340 55.2609 0.0000 0.0000 0.0000
# 3 59.4518 55.2609 86.9796 0.0000 0.0000 0.0000
# 4 0.0000 0.0000 0.0000 -9.1444 0.0000 0.0000
# 5 0.0000 0.0000 0.0000 0.0000 24.5157 0.0000
# 6 0.0000 0.0000 0.0000 0.0000 0.0000 25.6850
#
#
#
# Elastic Compliance Matrix: (Units=1/GPa)
#
#
# Indices 1 2 3 4 5 6 
#
# 1 0.016436 0.001015 -0.011880 0.000000 0.000000 0.000000
# 2 0.001015 0.011013 -0.007691 0.000000 0.000000 0.000000
# 3 -0.011880 -0.007691 0.024503 0.000000 0.000000 0.000000
# 4 0.000000 0.000000 0.000000 -0.109357 0.000000 0.000000
# 5 0.000000 0.000000 0.000000 0.000000 0.040790 0.000000
# 6 0.000000 0.000000 0.000000 0.000000 0.000000 0.038933
#
#
# Mechanical properties :
#
#
# Convention : Reuss Voigt Hill
#
# Bulk Modulus (GPa) = 67.37590 67.65841 67.51716
# Shear Modulus (GPa) = 77.66912 19.43758 48.55335
#
# Velocity S-wave (km/s) = 6.41646 3.20990 5.07318
# Velocity P-wave (km/s) = 9.51889 7.04290 8.37292
#
# Compressibility (1/GPa) = 0.01484210
#
# Stress axis : x y z
#
# Youngs Moduli (GPa) = 60.84021 90.80510 40.81163
#
# Poissons Ratio (x) = -0.09218 0.48482
# Poissons Ratio (y) = -0.06176 0.31386
# Poissons Ratio (z) = 0.72275 0.69834
#
# Static dielectric constant tensor:
#      x y z
#    x 1.647690 0.000000 0.000000 
#    y 0.000000 1.729760 0.000000 
#    z 0.000000 0.000000 1.661270 
# 
# From -- ./inp_files/28227.got.cif
#   From: 2010.05.17/outbox.cif.g08.bks.cpg/sg71_15_cif.got.tgz:28227.got - 2010.06.03 16:22:01.
