data_PCOD9524007
_publ_section_title
;
Structure prediction by ZEFSAII (Michael W. Deem and Ramdas Pophale) SiO2 
 PCOD9524007
Probable space group: I M M M
;
_chemical_formula_sum "Si O2"
_cell_formula_units_Z 104
_cell_length_a 28.592471
_cell_length_b 22.436739
_cell_length_c 8.008793
_cell_angle_alpha 90.000000
_cell_angle_beta 90.000000
_cell_angle_gamma 90.000000
_cell_volume 5137.815375
_symmetry_space_group_name_H-M "I M M M"
_symmetry_group_IT_number 71
_symmetry_cell_setting 'orthorhombic'
loop_
_space_group_symop_operation_xyz
x,y,z
-x,-y,z
x,-y,-z
-x,y,-z
-x,-y,-z
x,y,-z
-x,y,z
x,-y,z
1/2+x,1/2+y,1/2+z
1/2-x,1/2-y,1/2+z
1/2+x,1/2-y,1/2-z
1/2-x,1/2+y,1/2-z
1/2-x,1/2-y,1/2-z
1/2+x,1/2+y,1/2-z
1/2-x,1/2+y,1/2+z
1/2+x,1/2-y,1/2+z
loop_
_atom_site_type_symbol
_atom_site_label
_atom_site_fract_x
_atom_site_fract_y
_atom_site_fract_z
Si Si1 0.206048 0.407187 0.812395
Si Si2 0.945524 0.726961 0.294470
Si Si3 0.702173 0.221682 0.806417
Si Si4 0.124325 0.823730 0.696667
Si Si5 0.554789 0.000000 0.312166
Si Si6 0.188716 0.068466 0.295959
Si Si7 0.608090 0.890968 0.190862
O O1 0.197292 0.336361 0.804629
O O2 0.257527 0.419421 0.736724
O O3 0.156088 0.424985 0.740693
O O4 0.208926 0.429608 0.000000
O O5 0.944510 0.726849 0.500000
O O6 0.922053 0.789846 0.238669
O O7 0.913252 0.670934 0.235057
O O8 0.000000 0.720712 0.245734
O O9 0.750000 0.250000 0.750000
O O10 0.662759 0.271337 0.791685
O O11 0.704520 0.203098 0.000000
O O12 0.115700 0.836153 0.500000
O O13 0.150633 0.882846 0.764860
O O14 0.569564 0.059306 0.218014
O O15 0.500000 0.000000 0.327468
O O16 0.575685 0.000000 0.500000
O O17 0.190072 0.074552 0.500000
O O18 0.176764 0.000000 0.256472
O O19 0.615850 0.875029 0.000000
#
# Coordination Sequence:
#
# PCOD9524007 Si02
#       7
#    16  16  16  16   8  16  16
#     4  11  21  33  51  77 109 144 182 223 272 329
#     4   9  17  30  51  77 103 133 173 227 285 333
#     4  11  19  31  50  76 106 137 175 218 269 326
#     4   9  16  29  48  73 103 132 174 225 271 328
#     4  11  25  43  59  77 107 149 195 239 280 327
#     4   9  18  31  48  71 102 144 185 220 267 331
#     4  11  22  37  56  80 110 144 187 234 278 332
#
# _framework density 20.242065
#
# number of rings (size 3 to 8) (size 9 to 14) (size 15 to 20)
#    0.000    1.923    3.077    2.077    1.077    1.231 
#    0.000    0.000    0.000    0.462    0.000    3.231 
#    0.000    0.000    0.000    0.000    0.000    3.538 
#
# Total GULP energy -289553.421914 kJ/mol
# GULP energy per Si atom -5568.335037 kJ/mol
# Density = 2.019599 g / cm^3
# Si number density = 20.242065 Si / 1000 Ang^3
#
#
#
# Elastic Constant Matrix: (Units=GPa)
#
#
# Indices 1 2 3 4 5 6 
#
# 1 108.4311 53.4080 8.7916 0.0000 0.0000 0.0000
# 2 53.4080 123.2123 7.1304 0.0000 0.0000 0.0000
# 3 8.7916 7.1304 18.1536 0.0000 0.0000 0.0000
# 4 0.0000 0.0000 0.0000 9.0920 0.0000 0.0000
# 5 0.0000 0.0000 0.0000 0.0000 4.3134 0.0000
# 6 0.0000 0.0000 0.0000 0.0000 0.0000 -2.3839
#
#
#
# Elastic Compliance Matrix: (Units=1/GPa)
#
#
# Indices 1 2 3 4 5 6 
#
# 1 0.011983 -0.004972 -0.003851 0.000000 0.000000 0.000000
# 2 -0.004972 0.010367 -0.001664 0.000000 0.000000 0.000000
# 3 -0.003851 -0.001664 0.057604 0.000000 0.000000 0.000000
# 4 0.000000 0.000000 0.000000 0.109987 0.000000 0.000000
# 5 0.000000 0.000000 0.000000 0.000000 0.231833 0.000000
# 6 0.000000 0.000000 0.000000 0.000000 0.000000 -0.419488
#
#
# Mechanical properties :
#
#
# Convention : Reuss Voigt Hill
#
# Bulk Modulus (GPa) = 16.95443 43.16187 30.05815
# Shear Modulus (GPa) = 116.49374 14.23544 65.36459
#
# Velocity S-wave (km/s) = 7.59442 2.65478 5.68872
# Velocity P-wave (km/s) = 9.23549 5.54674 7.61776
#
# Compressibility (1/GPa) = 0.05898163
#
# Stress axis : x y z
#
# Youngs Moduli (GPa) = 83.44879 96.45644 17.35983
#
# Poissons Ratio (x) = 0.47954 0.06685
# Poissons Ratio (y) = 0.41487 0.02889
# Poissons Ratio (z) = 0.32134 0.16055
#
# Static dielectric constant tensor:
#      x y z
#    x 2.061460 0.000000 0.000000 
#    y 0.000000 1.716950 0.000000 
#    z 0.000000 0.000000 1.782860 
# 
# From -- ./inp_files/15274.got.cif
#   From: 2010.05.17/outbox.cif.g08.bks.cpg/sg71_8_cif.got.tgz:15274.got - 2010.06.03 16:22:01.
