data_PCOD9524768
_publ_section_title
;
Structure prediction by ZEFSAII (Michael W. Deem and Ramdas Pophale) SiO2 
 PCOD9524768
Probable space group: I M M M
;
_chemical_formula_sum "Si O2"
_cell_formula_units_Z 44
_cell_length_a 12.000000
_cell_length_b 15.000000
_cell_length_c 24.000000
_cell_angle_alpha 90.000000
_cell_angle_beta 90.000000
_cell_angle_gamma 90.000000
_cell_volume 4320.000000
_symmetry_space_group_name_H-M "I M M M"
_symmetry_group_IT_number 71
_symmetry_cell_setting 'orthorhombic'
loop_
_space_group_symop_operation_xyz
x,y,z
-x,-y,z
x,-y,-z
-x,y,-z
-x,-y,-z
x,y,-z
-x,y,z
x,-y,z
1/2+x,1/2+y,1/2+z
1/2-x,1/2-y,1/2+z
1/2+x,1/2-y,1/2-z
1/2-x,1/2+y,1/2-z
1/2-x,1/2-y,1/2-z
1/2+x,1/2+y,1/2-z
1/2-x,1/2+y,1/2+z
1/2+x,1/2-y,1/2+z
loop_
_atom_site_type_symbol
_atom_site_label
_atom_site_fract_x
_atom_site_fract_y
_atom_site_fract_z
Si Si1 0.500000 0.598898 0.155203
Si Si2 0.244929 0.223388 0.061920
Si Si3 0.203148 0.606035 0.248124
Si Si4 0.249187 0.099877 0.380639
Si Si5 0.500000 0.194728 0.810839
Si Si6 0.500000 0.171268 0.062326
Si Si7 0.628899 0.393507 0.343529
O O1 0.500000 0.500000 0.186399
O O2 0.385619 0.597283 0.120695
O O3 0.500000 0.697669 0.182476
O O4 0.211703 0.323337 0.078461
O O5 0.380089 0.219481 0.061419
O O6 0.197560 0.157754 0.108918
O O7 0.206235 0.198739 0.000000
O O8 0.178102 0.500000 0.253221
O O9 0.218062 0.624530 0.182899
O O10 0.314903 0.623080 0.283544
O O11 0.107335 0.662827 0.276905
O O12 0.289662 0.000000 0.392729
O O13 0.500000 0.143734 0.871578
O O14 0.500000 0.122664 0.000000
O O15 0.500000 0.366297 0.344114
O O16 0.635205 0.500000 0.353529
#
# Coordination Sequence:
#
# PCOD9524768 Si02
#       7
#     8  16  16  16   8   8  16
#     4  10  20  33  55  85 120 157 194 236 289 357
#     4  11  22  40  62  87 119 158 205 247 293 354
#     4  10  22  38  61  91 122 154 196 246 299 362
#     4  10  21  39  59  89 124 156 197 246 302 353
#     4  12  19  38  64  88 121 161 194 242 299 356
#     4  10  20  37  59  90 125 154 196 249 291 346
#     4  10  22  40  62  91 122 154 195 246 301 357
#
# _framework density 10.185185000000001
#
# number of rings (size 3 to 8) (size 9 to 14) (size 15 to 20)
#    0.000    1.636    3.636    0.273    1.273    4.000 
#    1.636    1.364    0.000    6.273    0.000    1.273 
#    0.000    0.000    0.000    0.000    0.000    0.000 
#
# Total GULP energy -245453.845903 kJ/mol
# GULP energy per Si atom -5578.496498 kJ/mol
# Density = 1.016200 g / cm^3
# Si number density = 10.185185 Si / 1000 Ang^3
#
#
#
# Elastic Constant Matrix: (Units=GPa)
#
#
# Indices 1 2 3 4 5 6 
#
# 1 68.0687 23.3498 8.3190 0.0000 0.0000 0.0000
# 2 23.3498 36.5296 -0.8590 0.0000 0.0000 0.0000
# 3 8.3190 -0.8590 34.8226 0.0000 0.0000 0.0000
# 4 0.0000 0.0000 0.0000 17.9406 0.0000 0.0000
# 5 0.0000 0.0000 0.0000 0.0000 4.8273 0.0000
# 6 0.0000 0.0000 0.0000 0.0000 0.0000 21.6723
#
#
#
# Elastic Compliance Matrix: (Units=1/GPa)
#
#
# Indices 1 2 3 4 5 6 
#
# 1 0.019653 -0.012680 -0.005008 0.000000 0.000000 0.000000
# 2 -0.012680 0.035572 0.003907 0.000000 0.000000 0.000000
# 3 -0.005008 0.003907 0.030010 0.000000 0.000000 0.000000
# 4 0.000000 0.000000 0.000000 0.055739 0.000000 0.000000
# 5 0.000000 0.000000 0.000000 0.000000 0.207154 0.000000
# 6 0.000000 0.000000 0.000000 0.000000 0.000000 0.046142
#
#
# Mechanical properties :
#
#
# Convention : Reuss Voigt Hill
#
# Bulk Modulus (GPa) = 17.33929 22.33784 19.83857
# Shear Modulus (GPa) = 11.33644 16.12880 13.73262
#
# Velocity S-wave (km/s) = 2.36162 2.81691 2.59925
# Velocity P-wave (km/s) = 3.99585 4.64431 4.33223
#
# Compressibility (1/GPa) = 0.05767248
#
# Stress axis : x y z
#
# Youngs Moduli (GPa) = 50.88374 28.11211 33.32253
#
# Poissons Ratio (x) = 0.35646 0.16687
# Poissons Ratio (y) = 0.64519 -0.13018
# Poissons Ratio (z) = 0.25481 -0.10982
#
# Static dielectric constant tensor:
#      x y z
#    x 1.711520 0.000000 0.000000 
#    y 0.000000 1.744190 0.000000 
#    z 0.000000 0.000000 1.722530 
# 
# From -- ./inp_files/58763.got.cif
#   From: 2010.05.17/outbox.ucp.g08.bks.cvg/sg71_30_cif.got.tgz:58763.got - 2010.06.11 16:29:00.
