data_PCOD9524274
_publ_section_title
;
Structure prediction by ZEFSAII (Michael W. Deem and Ramdas Pophale) SiO2 
 PCOD9524274
Probable space group: I M M M
;
_chemical_formula_sum "Si O2"
_cell_formula_units_Z 100
_cell_length_a 19.265180
_cell_length_b 28.586926
_cell_length_c 7.769671
_cell_angle_alpha 90.000000
_cell_angle_beta 90.000000
_cell_angle_gamma 90.000000
_cell_volume 4279.008586
_symmetry_space_group_name_H-M "I M M M"
_symmetry_group_IT_number 71
_symmetry_cell_setting 'orthorhombic'
loop_
_space_group_symop_operation_xyz
x,y,z
-x,-y,z
x,-y,-z
-x,y,-z
-x,-y,-z
x,y,-z
-x,y,z
x,-y,z
1/2+x,1/2+y,1/2+z
1/2-x,1/2-y,1/2+z
1/2+x,1/2-y,1/2-z
1/2-x,1/2+y,1/2-z
1/2-x,1/2-y,1/2-z
1/2+x,1/2+y,1/2-z
1/2-x,1/2+y,1/2+z
1/2+x,1/2-y,1/2+z
loop_
_atom_site_type_symbol
_atom_site_label
_atom_site_fract_x
_atom_site_fract_y
_atom_site_fract_z
Si Si1 0.719286 0.698722 0.205364
Si Si2 0.904224 0.500000 0.500000
Si Si3 0.577586 0.444795 0.709123
Si Si4 0.922649 0.766368 0.710261
Si Si5 0.275783 0.405115 0.701453
Si Si6 0.867432 0.565733 0.186931
Si Si7 0.083221 0.337595 0.302891
O O1 0.750000 0.750000 0.250000
O O2 0.638717 0.700203 0.262915
O O3 0.744812 0.649594 0.279986
O O4 0.723507 0.694663 0.000000
O O5 0.901451 0.539995 0.347833
O O6 0.576461 0.441913 0.500000
O O7 0.500000 0.429585 0.768695
O O8 0.585472 0.500000 0.752522
O O9 0.646304 0.416669 0.766665
O O10 0.924186 0.764708 0.500000
O O11 0.901972 0.714068 0.766684
O O12 0.000000 0.777902 0.769264
O O13 0.273478 0.417465 0.500000
O O14 0.215893 0.435528 0.790330
O O15 0.888351 0.619736 0.198097
O O16 0.888088 0.548599 0.000000
O O17 0.108685 0.340434 0.500000
O O18 0.000000 0.340431 0.307924
#
# Coordination Sequence:
#
# PCOD9524274 Si02
#       7
#    16   4  16  16  16  16  16
#     4  11  22  36  56  85 120 158 204 257 316 378
#     4  12  26  48  65  92 129 164 206 268 330 362
#     4   8  16  32  57  87 117 158 211 259 308 367
#     4   8  16  32  57  85 115 159 209 256 308 366
#     4  11  22  37  61  87 126 169 207 260 319 373
#     4  12  25  42  66  95 125 163 214 260 313 382
#     4   9  17  36  65  92 123 165 210 259 316 375
#
# _framework density 23.369900000000001
#
# number of rings (size 3 to 8) (size 9 to 14) (size 15 to 20)
#    0.000    2.080    1.600    3.600    1.120    2.240 
#    0.000    1.600    0.000    5.760    0.000    4.480 
#    0.000    0.000    0.000    0.000    0.000    0.000 
#
# Total GULP energy -278790.351272 kJ/mol
# GULP energy per Si atom -5575.807025 kJ/mol
# Density = 2.331671 g / cm^3
# Si number density = 23.369900 Si / 1000 Ang^3
#
#
#
# Elastic Constant Matrix: (Units=GPa)
#
#
# Indices 1 2 3 4 5 6 
#
# 1 32.2909 18.7766 6.3672 0.0000 0.0000 0.0000
# 2 18.7766 48.5971 5.3595 0.0000 0.0000 0.0000
# 3 6.3672 5.3595 108.1653 0.0000 0.0000 0.0000
# 4 0.0000 0.0000 0.0000 -502.2113 0.0000 0.0000
# 5 0.0000 0.0000 0.0000 0.0000 7.6186 0.0000
# 6 0.0000 0.0000 0.0000 0.0000 0.0000 -704.0177
#
#
#
# Elastic Compliance Matrix: (Units=1/GPa)
#
#
# Indices 1 2 3 4 5 6 
#
# 1 0.040218 -0.015362 -0.001606 0.000000 0.000000 0.000000
# 2 -0.015362 0.026558 -0.000412 0.000000 0.000000 0.000000
# 3 -0.001606 -0.000412 0.009360 0.000000 0.000000 0.000000
# 4 0.000000 0.000000 0.000000 -0.001991 0.000000 0.000000
# 5 0.000000 0.000000 0.000000 0.000000 0.131258 0.000000
# 6 0.000000 0.000000 0.000000 0.000000 0.000000 -0.001420
#
#
# Mechanical properties :
#
#
# Convention : Reuss Voigt Hill
#
# Bulk Modulus (GPa) = 24.16832 27.78440 25.97636
# Shear Modulus (GPa) = 19.79931 -229.15209 -104.67639
#
# Velocity S-wave (km/s) = 2.91385 -9.91298 -6.69988
# Velocity P-wave (km/s) = 4.65669 10.91367 6.97938
#
# Compressibility (1/GPa) = 0.04137648
#
# Stress axis : x y z
#
# Youngs Moduli (GPa) = 24.86454 37.65316 106.83695
#
# Poissons Ratio (x) = 0.57843 0.17161
# Poissons Ratio (y) = 0.38197 0.04398
# Poissons Ratio (z) = 0.03994 0.01550
#
# Static dielectric constant tensor:
#      x y z
#    x 1.933760 0.000000 0.000000 
#    y 0.000000 1.849170 0.000000 
#    z 0.000000 0.000000 1.842360 
# 
# From -- ./inp_files/11142.got.cif
#   From: 2010.05.17/outbox.cif.g08.bks.cpg/sg71_6_cif.got.tgz:11142.got - 2010.06.03 16:22:01.
