data_PCOD9524526
_publ_section_title
;
Structure prediction by ZEFSAII (Michael W. Deem and Ramdas Pophale) SiO2 
 PCOD9524526
Probable space group: I M M M
;
_chemical_formula_sum "Si O2"
_cell_formula_units_Z 96
_cell_length_a 7.265509
_cell_length_b 24.757564
_cell_length_c 25.343308
_cell_angle_alpha 90.000000
_cell_angle_beta 90.000000
_cell_angle_gamma 90.000000
_cell_volume 4558.660576
_symmetry_space_group_name_H-M "I M M M"
_symmetry_group_IT_number 71
_symmetry_cell_setting 'orthorhombic'
loop_
_space_group_symop_operation_xyz
x,y,z
-x,-y,z
x,-y,-z
-x,y,-z
-x,-y,-z
x,y,-z
-x,y,z
x,-y,z
1/2+x,1/2+y,1/2+z
1/2-x,1/2-y,1/2+z
1/2+x,1/2-y,1/2-z
1/2-x,1/2+y,1/2-z
1/2-x,1/2-y,1/2-z
1/2+x,1/2+y,1/2-z
1/2-x,1/2+y,1/2+z
1/2+x,1/2-y,1/2+z
loop_
_atom_site_type_symbol
_atom_site_label
_atom_site_fract_x
_atom_site_fract_y
_atom_site_fract_z
Si Si1 0.722841 0.061228 0.443349
Si Si2 0.723806 0.060432 0.856618
Si Si3 0.714210 0.774317 0.439978
Si Si4 0.724111 0.061636 0.734548
Si Si5 0.222108 0.352041 0.559203
Si Si6 0.277223 0.857189 0.353599
O O1 0.780428 0.083463 0.500000
O O2 0.500000 0.060222 0.443152
O O3 0.776202 0.096761 0.395092
O O4 0.785185 0.000000 0.439035
O O5 0.500000 0.061440 0.856768
O O6 0.778070 0.067828 0.795644
O O7 0.786989 0.106793 0.896189
O O8 0.778837 0.000000 0.873313
O O9 0.789314 0.784740 0.500000
O O10 0.500000 0.790991 0.443243
O O11 0.724478 0.710116 0.431934
O O12 0.785677 0.804407 0.387029
O O13 0.500000 0.060919 0.731756
O O14 0.784192 0.114094 0.700814
O O15 0.779224 0.000000 0.717154
O O16 0.282039 0.367317 0.500000
O O17 0.000000 0.353274 0.559596
O O18 0.500000 0.852006 0.348339
#
# Coordination Sequence:
#
# PCOD9524526 Si02
#       6
#    16  16  16  16  16  16
#     4   8  12  16  23  39  65  95 126 162 200 232
#     4   8  14  25  41  61  82 101 125 162 206 246
#     4   9  17  28  41  58  83 113 140 167 198 231
#     4   8  13  21  34  54  81 109 133 162 203 245
#     4   9  17  29  45  63  82 105 133 165 201 242
#     4   9  14  20  32  50  74 107 141 163 188 234
#
# _framework density 21.058819
#
# number of rings (size 3 to 8) (size 9 to 14) (size 15 to 20)
#    0.000    3.500    0.000    2.500    0.000    4.333 
#    0.000    2.500    0.000    0.500    0.000    2.333 
#    0.000    4.000    0.000   18.833    0.000   19.000 
#
# Total GULP energy -267279.673003 kJ/mol
# GULP energy per Si atom -5568.326521 kJ/mol
# Density = 2.101089 g / cm^3
# Si number density = 21.058819 Si / 1000 Ang^3
#
#
#
# Elastic Constant Matrix: (Units=GPa)
#
#
# Indices 1 2 3 4 5 6 
#
# 1 89.7205 -2.3456 1.4963 0.0000 0.0000 0.0000
# 2 -2.3456 135.0204 97.5553 0.0000 0.0000 0.0000
# 3 1.4963 97.5553 127.4112 0.0000 0.0000 0.0000
# 4 0.0000 0.0000 0.0000 45.9065 0.0000 0.0000
# 5 0.0000 0.0000 0.0000 0.0000 -23.2267 0.0000
# 6 0.0000 0.0000 0.0000 0.0000 0.0000 44.3513
#
#
#
# Elastic Compliance Matrix: (Units=1/GPa)
#
#
# Indices 1 2 3 4 5 6 
#
# 1 0.011173 0.000647 -0.000626 0.000000 0.000000 0.000000
# 2 0.000647 0.016614 -0.012729 0.000000 0.000000 0.000000
# 3 -0.000626 -0.012729 0.017602 0.000000 0.000000 0.000000
# 4 0.000000 0.000000 0.000000 0.021783 0.000000 0.000000
# 5 0.000000 0.000000 0.000000 0.000000 -0.043054 0.000000
# 6 0.000000 0.000000 0.000000 0.000000 0.000000 0.022547
#
#
# Mechanical properties :
#
#
# Convention : Reuss Voigt Hill
#
# Bulk Modulus (GPa) = 50.06870 60.61823 55.34347
# Shear Modulus (GPa) = 63.49982 30.43597 46.96790
#
# Velocity S-wave (km/s) = 5.49718 3.80581 4.72775
# Velocity P-wave (km/s) = 8.00745 6.93974 7.49264
#
# Compressibility (1/GPa) = 0.01997256
#
# Stress axis : x y z
#
# Youngs Moduli (GPa) = 89.50090 60.18912 56.81181
#
# Poissons Ratio (x) = -0.03892 0.03558
# Poissons Ratio (y) = -0.05787 0.72314
# Poissons Ratio (z) = 0.05606 0.76613
#
# Static dielectric constant tensor:
#      x y z
#    x 1.373660 0.000000 0.000000 
#    y 0.000000 1.740780 0.000000 
#    z 0.000000 0.000000 1.756250 
# 
# From -- ./inp_files/13124.got.cif
#   From: 2010.05.17/outbox.cif.g08.bks.cpg/sg71_7_cif.got.tgz:13124.got - 2010.06.03 16:22:01.
