data_PCOD9524488
_publ_section_title
;
Structure prediction by ZEFSAII (Michael W. Deem and Ramdas Pophale) SiO2 
 PCOD9524488
Probable space group: I M M M
;
_chemical_formula_sum "Si O2"
_cell_formula_units_Z 88
_cell_length_a 14.214423
_cell_length_b 13.312538
_cell_length_c 22.165983
_cell_angle_alpha 90.000000
_cell_angle_beta 90.000000
_cell_angle_gamma 90.000000
_cell_volume 4194.469990
_symmetry_space_group_name_H-M "I M M M"
_symmetry_group_IT_number 71
_symmetry_cell_setting 'orthorhombic'
loop_
_space_group_symop_operation_xyz
x,y,z
-x,-y,z
x,-y,-z
-x,y,-z
-x,-y,-z
x,y,-z
-x,y,z
x,-y,z
1/2+x,1/2+y,1/2+z
1/2-x,1/2-y,1/2+z
1/2+x,1/2-y,1/2-z
1/2-x,1/2+y,1/2-z
1/2-x,1/2-y,1/2-z
1/2+x,1/2+y,1/2-z
1/2-x,1/2+y,1/2+z
1/2+x,1/2-y,1/2+z
loop_
_atom_site_type_symbol
_atom_site_label
_atom_site_fract_x
_atom_site_fract_y
_atom_site_fract_z
Si Si1 0.886050 0.819212 0.064742
Si Si2 0.612773 0.114476 0.379025
Si Si3 0.384471 0.881594 0.000000
Si Si4 0.394674 0.381030 0.302915
Si Si5 0.109591 0.378008 0.370196
Si Si6 0.709076 0.877625 0.746792
O O1 0.866748 0.700565 0.072530
O O2 0.858025 0.868285 0.128207
O O3 0.000000 0.832196 0.063699
O O4 0.850375 0.857360 0.000000
O O5 0.500000 0.113397 0.370460
O O6 0.659981 0.147706 0.316108
O O7 0.641361 0.000000 0.394064
O O8 0.352775 0.839352 0.064935
O O9 0.500000 0.876375 0.000000
O O10 0.361401 0.000000 0.000000
O O11 0.500000 0.336865 0.297794
O O12 0.402788 0.500000 0.293541
O O13 0.316865 0.344808 0.255821
O O14 0.114455 0.500000 0.372895
O O15 0.157786 0.347278 0.308439
O O16 0.000000 0.350914 0.366444
O O17 0.707419 0.000000 0.746966
#
# Coordination Sequence:
#
# PCOD9524488 Si02
#       6
#    16  16   8  16  16  16
#     4   9  18  32  48  66  90 122 157 189 226 272
#     4   9  17  29  47  72  99 121 143 179 227 281
#     4   7  10  16  26  42  67 101 137 169 201 240
#     4   9  18  32  47  64  89 121 158 198 230 257
#     4   8  12  19  32  51  78 110 141 174 213 261
#     4   9  16  26  41  64  90 117 148 182 224 271
#
# _framework density 20.980004000000001
#
# number of rings (size 3 to 8) (size 9 to 14) (size 15 to 20)
#    0.000    3.364    0.000    1.636    0.000    3.636 
#    1.636    3.636    0.000    0.000    0.000    0.000 
#    0.000    2.182    0.000    7.091    0.000    0.182 
#
# Total GULP energy -245331.004080 kJ/mol
# GULP energy per Si atom -5575.704638 kJ/mol
# Density = 2.093225 g / cm^3
# Si number density = 20.980004 Si / 1000 Ang^3
#
#
#
# Elastic Constant Matrix: (Units=GPa)
#
#
# Indices 1 2 3 4 5 6 
#
# 1 53.8999 -1.8033 37.3588 0.0000 0.0000 0.0000
# 2 -1.8033 39.4815 -1.1466 0.0000 0.0000 0.0000
# 3 37.3588 -1.1466 104.0975 0.0000 0.0000 0.0000
# 4 0.0000 0.0000 0.0000 7.9697 0.0000 0.0000
# 5 0.0000 0.0000 0.0000 0.0000 23.1627 0.0000
# 6 0.0000 0.0000 0.0000 0.0000 0.0000 8.6380
#
#
#
# Elastic Compliance Matrix: (Units=1/GPa)
#
#
# Indices 1 2 3 4 5 6 
#
# 1 0.024726 0.000872 -0.008864 0.000000 0.000000 0.000000
# 2 0.000872 0.025367 -0.000034 0.000000 0.000000 0.000000
# 3 -0.008864 -0.000034 0.012787 0.000000 0.000000 0.000000
# 4 0.000000 0.000000 0.000000 0.125476 0.000000 0.000000
# 5 0.000000 0.000000 0.000000 0.000000 0.043173 0.000000
# 6 0.000000 0.000000 0.000000 0.000000 0.000000 0.115767
#
#
# Mechanical properties :
#
#
# Convention : Reuss Voigt Hill
#
# Bulk Modulus (GPa) = 21.35433 29.58852 25.47143
# Shear Modulus (GPa) = 13.19412 18.82541 16.00977
#
# Velocity S-wave (km/s) = 2.51049 2.99875 2.76542
# Velocity P-wave (km/s) = 4.31323 5.11115 4.72905
#
# Compressibility (1/GPa) = 0.04682890
#
# Stress axis : x y z
#
# Youngs Moduli (GPa) = 40.44335 39.42107 78.20326
#
# Poissons Ratio (x) = -0.03437 0.69320
# Poissons Ratio (y) = -0.03526 0.00262
# Poissons Ratio (z) = 0.35849 0.00132
#
# Static dielectric constant tensor:
#      x y z
#    x 1.821580 0.000000 0.000000 
#    y 0.000000 1.777720 0.000000 
#    z 0.000000 0.000000 1.754780 
# 
# From -- ./inp_files/59768.got.cif
#   From: 2010.05.17/outbox.cif.g08.bks.cpg/sg71_30_cif.got.tgz:59768.got - 2010.06.03 16:22:01.
