data_PCOD9524924
_publ_section_title
;
Structure prediction by ZEFSAII (Michael W. Deem and Ramdas Pophale) SiO2 
 PCOD9524924
Probable space group: I B A M
;
_chemical_formula_sum "Si O2"
_cell_formula_units_Z 80
_cell_length_a 9.829670
_cell_length_b 15.430782
_cell_length_c 27.241293
_cell_angle_alpha 90.000000
_cell_angle_beta 90.000000
_cell_angle_gamma 90.000000
_cell_volume 4131.945563
_symmetry_space_group_name_H-M "I B A M"
_symmetry_group_IT_number 72
_symmetry_cell_setting 'orthorhombic'
loop_
_space_group_symop_operation_xyz
x,y,z
-x,-y,z
x,-y,1/2-z
-x,y,1/2-z
-x,-y,-z
x,y,-z
-x,y,1/2+z
x,-y,1/2+z
1/2+x,1/2+y,1/2+z
1/2-x,1/2-y,1/2+z
1/2+x,1/2-y,-z
1/2-x,1/2+y,-z
1/2-x,1/2-y,1/2-z
1/2+x,1/2+y,1/2-z
1/2-x,1/2+y,z
1/2+x,1/2-y,z
loop_
_atom_site_type_symbol
_atom_site_label
_atom_site_fract_x
_atom_site_fract_y
_atom_site_fract_z
Si Si1 0.644295 0.951950 0.704456
Si Si2 0.961438 0.256928 0.302508
Si Si3 0.625743 0.094225 0.443204
Si Si4 0.679039 0.921718 0.597551
Si Si5 0.775376 0.265021 0.872769
O O1 0.608271 0.850476 0.710702
O O2 0.709483 0.960468 0.651433
O O3 0.500000 0.000000 0.699895
O O4 0.714517 0.000000 0.750000
O O5 0.849103 0.212878 0.336571
O O6 0.000000 0.216514 0.250000
O O7 0.093542 0.265751 0.336950
O O8 0.595715 0.111944 0.500000
O O9 0.482426 0.093848 0.412997
O O10 0.711477 0.166618 0.416070
O O11 0.701538 0.001463 0.439059
O O12 0.749770 0.828412 0.601240
#
# Coordination Sequence:
#
# PCOD9524924 Si02
#       5
#    16  16  16  16  16
#     4  10  15  27  57  85 116 145 199 244 292 343
#     4  11  21  36  59  92 123 166 196 246 304 378
#     4  11  22  39  64  91 118 161 218 266 302 358
#     4  10  20  39  62  90 123 159 213 256 302 365
#     4  11  22  40  62  92 132 156 204 257 313 366
#
# _framework density 19.361339999999998
#
# number of rings (size 3 to 8) (size 9 to 14) (size 15 to 20)
#    0.000    1.400    8.000    1.800    0.000    1.600 
#    0.000    1.000    0.000    2.400    0.000    0.000 
#    0.000    0.000    0.000    0.000    0.000    0.000 
#
# Total GULP energy -222700.443703 kJ/mol
# GULP energy per Si atom -5567.511093 kJ/mol
# Density = 1.931727 g / cm^3
# Si number density = 19.361340 Si / 1000 Ang^3
#
#
#
# Elastic Constant Matrix: (Units=GPa)
#
#
# Indices 1 2 3 4 5 6 
#
# 1 54.4918 13.6041 34.5791 0.0000 0.0000 0.0000
# 2 13.6041 99.5032 47.9293 0.0000 0.0000 0.0000
# 3 34.5791 47.9293 129.6908 0.0000 0.0000 0.0000
# 4 0.0000 0.0000 0.0000 21.6707 0.0000 0.0000
# 5 0.0000 0.0000 0.0000 0.0000 6.6565 0.0000
# 6 0.0000 0.0000 0.0000 0.0000 0.0000 22.7762
#
#
#
# Elastic Compliance Matrix: (Units=1/GPa)
#
#
# Indices 1 2 3 4 5 6 
#
# 1 0.022093 -0.000223 -0.005808 0.000000 0.000000 0.000000
# 2 -0.000223 0.012229 -0.004460 0.000000 0.000000 0.000000
# 3 -0.005808 -0.004460 0.010907 0.000000 0.000000 0.000000
# 4 0.000000 0.000000 0.000000 0.046145 0.000000 0.000000
# 5 0.000000 0.000000 0.000000 0.000000 0.150228 0.000000
# 6 0.000000 0.000000 0.000000 0.000000 0.000000 0.043906
#
#
# Mechanical properties :
#
#
# Convention : Reuss Voigt Hill
#
# Bulk Modulus (GPa) = 41.24200 52.87897 47.06048
# Shear Modulus (GPa) = 15.89461 22.72557 19.31009
#
# Velocity S-wave (km/s) = 2.86832 3.42974 3.16152
# Velocity P-wave (km/s) = 5.68482 6.56163 6.13890
#
# Compressibility (1/GPa) = 0.02424713
#
# Stress axis : x y z
#
# Youngs Moduli (GPa) = 45.26374 81.77518 91.68010
#
# Poissons Ratio (x) = 0.01822 0.53250
# Poissons Ratio (y) = 0.01008 0.40888
# Poissons Ratio (z) = 0.26290 0.36471
#
# Static dielectric constant tensor:
#      x y z
#    x 1.690170 0.000000 0.000000 
#    y 0.000000 1.746550 0.000000 
#    z 0.000000 0.000000 1.713800 
# 
# From -- ./inp_files/47171.got.cif
#   From: 2010.05.17/outbox.cif.g08.bks.cpg/sg72_24_cif.got.tgz:47171.got - 2010.06.03 17:03:01.
