data_PCOD9524001
_publ_section_title
;
Structure prediction by ZEFSAII (Michael W. Deem and Ramdas Pophale) SiO2 
 PCOD9524001
Probable space group: I M M M
;
_chemical_formula_sum "Si O2"
_cell_formula_units_Z 96
_cell_length_a 30.632791
_cell_length_b 28.449636
_cell_length_c 8.850151
_cell_angle_alpha 90.000000
_cell_angle_beta 90.000000
_cell_angle_gamma 90.000000
_cell_volume 7712.833615
_symmetry_space_group_name_H-M "I M M M"
_symmetry_group_IT_number 71
_symmetry_cell_setting 'orthorhombic'
loop_
_space_group_symop_operation_xyz
x,y,z
-x,-y,z
x,-y,-z
-x,y,-z
-x,-y,-z
x,y,-z
-x,y,z
x,-y,z
1/2+x,1/2+y,1/2+z
1/2-x,1/2-y,1/2+z
1/2+x,1/2-y,1/2-z
1/2-x,1/2+y,1/2-z
1/2-x,1/2-y,1/2-z
1/2+x,1/2+y,1/2-z
1/2-x,1/2+y,1/2+z
1/2+x,1/2-y,1/2+z
loop_
_atom_site_type_symbol
_atom_site_label
_atom_site_fract_x
_atom_site_fract_y
_atom_site_fract_z
Si Si1 0.907588 0.500000 0.816272
Si Si2 0.632058 0.842961 0.683506
Si Si3 0.049498 0.598114 0.815841
Si Si4 0.194713 0.500000 0.181721
Si Si5 0.712545 0.098568 0.820414
Si Si6 0.766266 0.176948 0.327090
Si Si7 0.318618 0.754270 0.325691
O O1 0.931887 0.452615 0.766578
O O2 0.856747 0.500000 0.773134
O O3 0.908418 0.500000 0.000000
O O4 0.636439 0.845479 0.500000
O O5 0.584736 0.862413 0.726815
O O6 0.668899 0.876846 0.753164
O O7 0.643296 0.789404 0.727980
O O8 0.000000 0.605550 0.763869
O O9 0.048739 0.597272 0.000000
O O10 0.215514 0.547251 0.247489
O O11 0.196741 0.500000 0.000000
O O12 0.752274 0.132623 0.772629
O O13 0.709221 0.095697 0.000000
O O14 0.772422 0.162498 0.500000
O O15 0.724208 0.211913 0.322672
O O16 0.806254 0.208328 0.268032
O O17 0.326248 0.741229 0.500000
#
# Coordination Sequence:
#
# PCOD9524001 Si02
#       7
#     8  16  16   8  16  16  16
#     4   9  15  23  38  54  68  86 116 156 194 225
#     4   9  16  27  40  55  72  94 118 146 185 225
#     4   9  15  23  37  57  74  89 119 160 194 226
#     4  11  19  30  43  53  70  96 124 153 186 222
#     4  11  20  28  39  55  73  92 117 147 182 219
#     4   9  16  26  39  54  71  91 113 138 174 215
#     4   8  14  23  36  53  73  91 112 140 174 215
#
# _framework density 12.446788
#
# number of rings (size 3 to 8) (size 9 to 14) (size 15 to 20)
#    0.000    2.667    1.667    3.500    0.000    5.000 
#    0.000    0.000    0.000    0.500    0.000    1.167 
#    0.000    0.000    0.000    0.000    0.000    0.000 
#
# Total GULP energy -267282.134038 kJ/mol
# GULP energy per Si atom -5568.377792 kJ/mol
# Density = 1.241846 g / cm^3
# Si number density = 12.446788 Si / 1000 Ang^3
#
#
#
# Elastic Constant Matrix: (Units=GPa)
#
#
# Indices 1 2 3 4 5 6 
#
# 1 53.3839 48.4328 13.8204 0.0000 0.0000 0.0000
# 2 48.4328 79.6141 29.4886 0.0000 0.0000 0.0000
# 3 13.8204 29.4886 39.6356 0.0000 0.0000 0.0000
# 4 0.0000 0.0000 0.0000 17.6500 0.0000 0.0000
# 5 0.0000 0.0000 0.0000 0.0000 7.0653 0.0000
# 6 0.0000 0.0000 0.0000 0.0000 0.0000 13.7486
#
#
#
# Elastic Compliance Matrix: (Units=1/GPa)
#
#
# Indices 1 2 3 4 5 6 
#
# 1 0.042865 -0.028354 0.006149 0.000000 0.000000 0.000000
# 2 -0.028354 0.036094 -0.016967 0.000000 0.000000 0.000000
# 3 0.006149 -0.016967 0.035709 0.000000 0.000000 0.000000
# 4 0.000000 0.000000 0.000000 0.056657 0.000000 0.000000
# 5 0.000000 0.000000 0.000000 0.000000 0.141537 0.000000
# 6 0.000000 0.000000 0.000000 0.000000 0.000000 0.072735
#
#
# Mechanical properties :
#
#
# Convention : Reuss Voigt Hill
#
# Bulk Modulus (GPa) = 27.53041 39.56859 33.54950
# Shear Modulus (GPa) = 10.50312 13.08558 11.79435
#
# Velocity S-wave (km/s) = 2.90805 3.24593 3.08162
# Velocity P-wave (km/s) = 5.78292 6.77549 6.29879
#
# Compressibility (1/GPa) = 0.03632347
#
# Stress axis : x y z
#
# Youngs Moduli (GPa) = 23.32923 27.70537 28.00398
#
# Poissons Ratio (x) = 0.78556 -0.17219
# Poissons Ratio (y) = 0.66148 0.47515
# Poissons Ratio (z) = -0.14345 0.47008
#
# Static dielectric constant tensor:
#      x y z
#    x 1.395980 0.000000 0.000000 
#    y 0.000000 1.408500 0.000000 
#    z 0.000000 0.000000 1.419920 
# 
# From -- ./inp_files/17555.got.cif
#   From: 2010.05.17/outbox.cif.g08.bks.cpg/sg71_9_cif.got.tgz:17555.got - 2010.06.03 16:22:01.
