data_PCOD9524342
_publ_section_title
;
Structure prediction by ZEFSAII (Michael W. Deem and Ramdas Pophale) SiO2 
 PCOD9524342
Probable space group: I M M M
;
_chemical_formula_sum "Si O2"
_cell_formula_units_Z 88
_cell_length_a 30.712171
_cell_length_b 11.327354
_cell_length_c 12.254970
_cell_angle_alpha 90.000000
_cell_angle_beta 90.000000
_cell_angle_gamma 90.000000
_cell_volume 4263.352506
_symmetry_space_group_name_H-M "I M M M"
_symmetry_group_IT_number 71
_symmetry_cell_setting 'orthorhombic'
loop_
_space_group_symop_operation_xyz
x,y,z
-x,-y,z
x,-y,-z
-x,y,-z
-x,-y,-z
x,y,-z
-x,y,z
x,-y,z
1/2+x,1/2+y,1/2+z
1/2-x,1/2-y,1/2+z
1/2+x,1/2-y,1/2-z
1/2-x,1/2+y,1/2-z
1/2-x,1/2-y,1/2-z
1/2+x,1/2+y,1/2-z
1/2-x,1/2+y,1/2+z
1/2+x,1/2-y,1/2+z
loop_
_atom_site_type_symbol
_atom_site_label
_atom_site_fract_x
_atom_site_fract_y
_atom_site_fract_z
Si Si1 0.051717 0.760477 0.786731
Si Si2 0.838765 0.500000 0.630298
Si Si3 0.407108 0.362506 0.500000
Si Si4 0.202195 0.770906 0.201683
Si Si5 0.627677 0.743759 0.869560
Si Si6 0.947862 0.500000 0.873706
Si Si7 0.241104 0.000000 0.877827
Si Si8 0.162511 0.357408 0.000000
O O1 0.064570 0.839353 0.891032
O O2 0.082274 0.793900 0.684682
O O3 0.063806 0.624552 0.819292
O O4 0.000000 0.766289 0.765581
O O5 0.837423 0.500000 0.500000
O O6 0.864975 0.382594 0.654738
O O7 0.789360 0.500000 0.679039
O O8 0.391414 0.500000 0.500000
O O9 0.373511 0.250138 0.500000
O O10 0.250000 0.750000 0.250000
O O11 0.168225 0.801861 0.297855
O O12 0.187374 0.673125 0.113781
O O13 0.210643 0.889572 0.137460
O O14 0.630395 0.722444 0.000000
O O15 0.000000 0.500000 0.873545
O O16 0.934512 0.500000 0.000000
O O17 0.255650 0.000000 0.000000
O O18 0.153907 0.500000 0.000000
#
# Coordination Sequence:
#
# PCOD9524342 Si02
#       8
#    16   8   8  16  16   8   8   8
#     4  11  23  41  69 102 140 185 235 294 361 431
#     4   9  19  37  62  91 132 181 233 282 347 412
#     4  12  27  46  73 109 144 182 238 301 367 433
#     4  12  26  43  70 101 141 186 242 293 354 419
#     4  11  24  42  63  95 136 183 236 291 354 425
#     4   9  17  32  61 101 138 173 216 280 357 418
#     4  11  22  41  68  97 133 187 238 297 358 424
#     4  12  30  47  73 113 149 189 241 297 364 424
#
# _framework density 20.641033
#
# number of rings (size 3 to 8) (size 9 to 14) (size 15 to 20)
#    0.000    1.000    5.455    0.818    6.364    1.091 
#    0.000    0.455    0.000    3.273    0.000    1.273 
#    0.000    0.000    0.000    0.000    0.000    0.000 
#
# Total GULP energy -245115.450052 kJ/mol
# GULP energy per Si atom -5570.805683 kJ/mol
# Density = 2.059405 g / cm^3
# Si number density = 20.641033 Si / 1000 Ang^3
#
#
#
# Elastic Constant Matrix: (Units=GPa)
#
#
# Indices 1 2 3 4 5 6 
#
# 1 143.6808 31.7997 85.2370 0.0000 0.0000 0.0000
# 2 31.7997 91.8117 16.8487 0.0000 0.0000 0.0000
# 3 85.2370 16.8487 136.0907 0.0000 0.0000 0.0000
# 4 0.0000 0.0000 0.0000 18.6353 0.0000 0.0000
# 5 0.0000 0.0000 0.0000 0.0000 37.6153 0.0000
# 6 0.0000 0.0000 0.0000 0.0000 0.0000 71.6674
#
#
#
# Elastic Compliance Matrix: (Units=1/GPa)
#
#
# Indices 1 2 3 4 5 6 
#
# 1 0.011728 -0.002777 -0.007002 0.000000 0.000000 0.000000
# 2 -0.002777 0.011803 0.000278 0.000000 0.000000 0.000000
# 3 -0.007002 0.000278 0.011699 0.000000 0.000000 0.000000
# 4 0.000000 0.000000 0.000000 0.053662 0.000000 0.000000
# 5 0.000000 0.000000 0.000000 0.000000 0.026585 0.000000
# 6 0.000000 0.000000 0.000000 0.000000 0.000000 0.013953
#
#
# Mechanical properties :
#
#
# Convention : Reuss Voigt Hill
#
# Bulk Modulus (GPa) = 61.62092 71.03932 66.33012
# Shear Modulus (GPa) = 32.50100 41.43011 36.96556
#
# Velocity S-wave (km/s) = 3.97241 4.48501 4.23647
# Velocity P-wave (km/s) = 7.13852 7.83018 7.49233
#
# Compressibility (1/GPa) = 0.01622825
#
# Stress axis : x y z
#
# Youngs Moduli (GPa) = 85.26353 84.72622 85.47690
#
# Poissons Ratio (x) = 0.23531 0.59850
# Poissons Ratio (y) = 0.23680 -0.02378
# Poissons Ratio (z) = 0.59701 -0.02357
#
# Static dielectric constant tensor:
#      x y z
#    x 1.936130 0.000000 0.000000 
#    y 0.000000 1.836060 0.000000 
#    z 0.000000 0.000000 1.611210 
# 
# From -- ./inp_files/29811.got.cif
#   From: 2010.05.17/outbox.cif.g08.bks.cpg/sg71_15_cif.got.tgz:29811.got - 2010.06.03 16:22:01.
