data_PCOD9524395
_publ_section_title
;
Structure prediction by ZEFSAII (Michael W. Deem and Ramdas Pophale) SiO2 
 PCOD9524395
Probable space group: I M M M
;
_chemical_formula_sum "Si O2"
_cell_formula_units_Z 72
_cell_length_a 18.701571
_cell_length_b 23.535098
_cell_length_c 8.250167
_cell_angle_alpha 90.000000
_cell_angle_beta 90.000000
_cell_angle_gamma 90.000000
_cell_volume 3631.255780
_symmetry_space_group_name_H-M "I M M M"
_symmetry_group_IT_number 71
_symmetry_cell_setting 'orthorhombic'
loop_
_space_group_symop_operation_xyz
x,y,z
-x,-y,z
x,-y,-z
-x,y,-z
-x,-y,-z
x,y,-z
-x,y,z
x,-y,z
1/2+x,1/2+y,1/2+z
1/2-x,1/2-y,1/2+z
1/2+x,1/2-y,1/2-z
1/2-x,1/2+y,1/2-z
1/2-x,1/2-y,1/2-z
1/2+x,1/2+y,1/2-z
1/2-x,1/2+y,1/2+z
1/2+x,1/2-y,1/2+z
loop_
_atom_site_type_symbol
_atom_site_label
_atom_site_fract_x
_atom_site_fract_y
_atom_site_fract_z
Si Si1 0.414918 0.563920 0.500000
Si Si2 0.417850 0.858377 0.691453
Si Si3 0.349928 0.620283 0.182454
Si Si4 0.169014 0.252610 0.312818
Si Si5 0.208270 0.566833 0.309233
O O1 0.385237 0.500000 0.500000
O O2 0.500000 0.562369 0.500000
O O3 0.390056 0.592920 0.333970
O O4 0.417668 0.870110 0.500000
O O5 0.500000 0.857462 0.748715
O O6 0.379800 0.797668 0.720396
O O7 0.368565 0.905399 0.776438
O O8 0.358114 0.688064 0.195182
O O9 0.267351 0.601613 0.208162
O O10 0.372221 0.602825 0.000000
O O11 0.170429 0.271016 0.500000
O O12 0.250000 0.250000 0.250000
O O13 0.225577 0.572882 0.500000
O O14 0.210112 0.500000 0.268096
#
# Coordination Sequence:
#
# PCOD9524395 Si02
#       5
#     8  16  16  16  16
#     4  11  26  46  68  98 133 171 218 272 331 392
#     4  11  25  42  62  93 131 172 217 270 334 393
#     4  11  24  42  68  99 131 172 220 271 328 392
#     4  11  23  39  64  94 125 163 211 264 324 389
#     4  11  23  40  65  95 128 171 223 272 323 389
#
# _framework density 19.827850000000002
#
# number of rings (size 3 to 8) (size 9 to 14) (size 15 to 20)
#    0.000    1.000    3.333    2.667    3.111    6.667 
#    0.000    5.556    0.000    0.000    0.000    0.000 
#    0.000    0.000    0.000    0.000    0.000    0.000 
#
# Total GULP energy -201259.162875 kJ/mol
# GULP energy per Si atom -5590.532302 kJ/mol
# Density = 1.978272 g / cm^3
# Si number density = 19.827850 Si / 1000 Ang^3
#
#
#
# Elastic Constant Matrix: (Units=GPa)
#
#
# Indices 1 2 3 4 5 6 
#
# 1 83.2362 11.7176 16.0026 0.0000 0.0000 0.0000
# 2 11.7176 79.5164 21.3842 0.0000 0.0000 0.0000
# 3 16.0026 21.3842 108.4790 0.0000 0.0000 0.0000
# 4 0.0000 0.0000 0.0000 32.3667 0.0000 0.0000
# 5 0.0000 0.0000 0.0000 0.0000 28.0599 0.0000
# 6 0.0000 0.0000 0.0000 0.0000 0.0000 27.4734
#
#
#
# Elastic Compliance Matrix: (Units=1/GPa)
#
#
# Indices 1 2 3 4 5 6 
#
# 1 0.012515 -0.001423 -0.001566 0.000000 0.000000 0.000000
# 2 -0.001423 0.013442 -0.002440 0.000000 0.000000 0.000000
# 3 -0.001566 -0.002440 0.009930 0.000000 0.000000 0.000000
# 4 0.000000 0.000000 0.000000 0.030896 0.000000 0.000000
# 5 0.000000 0.000000 0.000000 0.000000 0.035638 0.000000
# 6 0.000000 0.000000 0.000000 0.000000 0.000000 0.036399
#
#
# Mechanical properties :
#
#
# Convention : Reuss Voigt Hill
#
# Bulk Modulus (GPa) = 39.95192 41.04897 40.50044
# Shear Modulus (GPa) = 31.64132 32.38848 32.01490
#
# Velocity S-wave (km/s) = 3.99908 4.04602 4.02262
# Velocity P-wave (km/s) = 6.44334 6.52493 6.48427
#
# Compressibility (1/GPa) = 0.02503009
#
# Stress axis : x y z
#
# Youngs Moduli (GPa) = 79.90179 74.39437 100.70196
#
# Poissons Ratio (x) = 0.10588 0.15767
# Poissons Ratio (y) = 0.11372 0.24569
# Poissons Ratio (z) = 0.12510 0.18151
#
# Static dielectric constant tensor:
#      x y z
#    x 1.692560 0.000000 0.000000 
#    y 0.000000 1.696810 0.000000 
#    z 0.000000 0.000000 1.750670 
# 
# From -- ./inp_files/7914.got.cif
#   From: 2010.05.17/outbox.cif.g08.bks.cpg/sg71_4_cif.got.tgz:7914.got - 2010.06.03 16:22:01.
