data_PCOD9524095
_publ_section_title
;
Structure prediction by ZEFSAII (Michael W. Deem and Ramdas Pophale) SiO2 
 PCOD9524095
Probable space group: I M M M
;
_chemical_formula_sum "Si O2"
_cell_formula_units_Z 80
_cell_length_a 14.765536
_cell_length_b 16.016315
_cell_length_c 18.992791
_cell_angle_alpha 90.000000
_cell_angle_beta 90.000000
_cell_angle_gamma 90.000000
_cell_volume 4491.595186
_symmetry_space_group_name_H-M "I M M M"
_symmetry_group_IT_number 71
_symmetry_cell_setting 'orthorhombic'
loop_
_space_group_symop_operation_xyz
x,y,z
-x,-y,z
x,-y,-z
-x,y,-z
-x,-y,-z
x,y,-z
-x,y,z
x,-y,z
1/2+x,1/2+y,1/2+z
1/2-x,1/2-y,1/2+z
1/2+x,1/2-y,1/2-z
1/2-x,1/2+y,1/2-z
1/2-x,1/2-y,1/2-z
1/2+x,1/2+y,1/2-z
1/2-x,1/2+y,1/2+z
1/2+x,1/2-y,1/2+z
loop_
_atom_site_type_symbol
_atom_site_label
_atom_site_fract_x
_atom_site_fract_y
_atom_site_fract_z
Si Si1 0.610133 0.839783 0.500000
Si Si2 0.102681 0.656752 0.847013
Si Si3 0.105995 0.898523 0.578488
Si Si4 0.610425 0.647644 0.500000
Si Si5 0.779660 0.099083 0.287783
Si Si6 0.103430 0.858237 0.847458
O O1 0.500000 0.836745 0.500000
O O2 0.633281 0.877907 0.575801
O O3 0.642833 0.743939 0.500000
O O4 0.178249 0.633522 0.791163
O O5 0.099688 0.757287 0.852854
O O6 0.000000 0.628282 0.832395
O O7 0.136667 0.871810 0.500000
O O8 0.164737 0.867608 0.644153
O O9 0.000000 0.875615 0.586816
O O10 0.108769 0.000000 0.579114
O O11 0.500000 0.649650 0.500000
O O12 0.635096 0.610088 0.575632
O O13 0.832705 0.119121 0.216696
O O14 0.774809 0.000000 0.294853
O O15 0.000000 0.887278 0.834504
#
# Coordination Sequence:
#
# PCOD9524095 Si02
#       6
#     8  16  16   8  16  16
#     4   7  12  26  47  67  86 115 158 197 229 266
#     4   9  18  32  49  68  93 127 163 199 235 277
#     4   8  15  28  42  57  85 125 160 187 220 266
#     4   7  12  26  49  71  90 113 144 189 243 288
#     4  11  21  29  44  70  99 127 159 194 234 283
#     4   9  17  32  52  72  94 121 155 195 240 287
#
# _framework density 17.811045
#
# number of rings (size 3 to 8) (size 9 to 14) (size 15 to 20)
#    0.000    3.200    0.000    4.200    1.400    1.600 
#    0.000    0.500    0.000    3.600    0.000    0.700 
#    0.000    1.600    0.000    0.000    0.000    0.000 
#
# Total GULP energy -222715.619914 kJ/mol
# GULP energy per Si atom -5567.890498 kJ/mol
# Density = 1.777051 g / cm^3
# Si number density = 17.811045 Si / 1000 Ang^3
#
#
#
# Elastic Constant Matrix: (Units=GPa)
#
#
# Indices 1 2 3 4 5 6 
#
# 1 94.8210 6.8070 90.3377 0.0000 0.0000 0.0000
# 2 6.8070 16.2307 0.8370 0.0000 0.0000 0.0000
# 3 90.3377 0.8370 192.8746 0.0000 0.0000 0.0000
# 4 0.0000 0.0000 0.0000 7.7827 0.0000 0.0000
# 5 0.0000 0.0000 0.0000 0.0000 19.4051 0.0000
# 6 0.0000 0.0000 0.0000 0.0000 0.0000 -3.3251
#
#
#
# Elastic Compliance Matrix: (Units=1/GPa)
#
#
# Indices 1 2 3 4 5 6 
#
# 1 0.020011 -0.007911 -0.009338 0.000000 0.000000 0.000000
# 2 -0.007911 0.064753 0.003424 0.000000 0.000000 0.000000
# 3 -0.009338 0.003424 0.009544 0.000000 0.000000 0.000000
# 4 0.000000 0.000000 0.000000 0.128490 0.000000 0.000000
# 5 0.000000 0.000000 0.000000 0.000000 0.051533 0.000000
# 6 0.000000 0.000000 0.000000 0.000000 0.000000 -0.300743
#
#
# Mechanical properties :
#
#
# Convention : Reuss Voigt Hill
#
# Bulk Modulus (GPa) = 15.00205 55.54330 35.27267
# Shear Modulus (GPa) = 213.15766 18.50217 115.82992
#
# Velocity S-wave (km/s) = 10.95158 3.22654 8.07303
# Velocity P-wave (km/s) = 12.97525 6.71813 10.33176
#
# Compressibility (1/GPa) = 0.06665758
#
# Stress axis : x y z
#
# Youngs Moduli (GPa) = 49.97307 15.44336 104.78171
#
# Poissons Ratio (x) = 0.12217 0.97848
# Poissons Ratio (y) = 0.39533 -0.35880
# Poissons Ratio (z) = 0.46666 -0.05288
#
# Static dielectric constant tensor:
#      x y z
#    x 1.613200 0.000000 0.000000 
#    y 0.000000 1.612730 0.000000 
#    z 0.000000 0.000000 1.663180 
# 
# From -- ./inp_files/36262.got.cif
#   From: 2010.05.17/outbox.cif.g08.bks.cpg/sg71_19_cif.got.tgz:36262.got - 2010.06.03 16:22:01.
