data_PCOD9524700
_publ_section_title
;
Structure prediction by ZEFSAII (Michael W. Deem and Ramdas Pophale) SiO2 
 PCOD9524700
Probable space group: I M M M
;
_chemical_formula_sum "Si O2"
_cell_formula_units_Z 52
_cell_length_a 9.000000
_cell_length_b 27.000000
_cell_length_c 24.000000
_cell_angle_alpha 90.000000
_cell_angle_beta 90.000000
_cell_angle_gamma 90.000000
_cell_volume 5832.000000
_symmetry_space_group_name_H-M "I M M M"
_symmetry_group_IT_number 71
_symmetry_cell_setting 'orthorhombic'
loop_
_space_group_symop_operation_xyz
x,y,z
-x,-y,z
x,-y,-z
-x,y,-z
-x,-y,-z
x,y,-z
-x,y,z
x,-y,z
1/2+x,1/2+y,1/2+z
1/2-x,1/2-y,1/2+z
1/2+x,1/2-y,1/2-z
1/2-x,1/2+y,1/2-z
1/2-x,1/2-y,1/2-z
1/2+x,1/2+y,1/2-z
1/2-x,1/2+y,1/2+z
1/2+x,1/2-y,1/2+z
loop_
_atom_site_type_symbol
_atom_site_label
_atom_site_fract_x
_atom_site_fract_y
_atom_site_fract_z
Si Si1 0.178477 0.685739 0.196594
Si Si2 0.331937 0.941175 0.232179
Si Si3 0.320745 0.206815 0.823141
Si Si4 0.321261 0.851297 0.937161
Si Si5 0.822433 0.941784 0.883608
Si Si6 0.319746 0.500000 0.066219
Si Si7 0.679149 0.588029 0.846960
O O1 0.243329 0.739536 0.180939
O O2 0.214326 0.679517 0.263528
O O3 0.250199 0.643201 0.157349
O O4 0.000000 0.685127 0.190916
O O5 0.500000 0.919908 0.236284
O O6 0.249573 0.926121 0.175617
O O7 0.238411 0.932901 0.288052
O O8 0.346855 0.000000 0.227073
O O9 0.500000 0.212741 0.823540
O O10 0.278389 0.180688 0.881891
O O11 0.500000 0.856249 0.934632
O O12 0.246303 0.904740 0.928479
O O13 0.284600 0.832216 0.000000
O O14 0.000000 0.936745 0.880896
O O15 0.788750 0.000000 0.893617
O O16 0.500000 0.500000 0.065164
O O17 0.277136 0.549354 0.102988
O O18 0.272227 0.500000 0.000000
O O19 0.500000 0.591165 0.847525
#
# Coordination Sequence:
#
# PCOD9524700 Si02
#       7
#    16  16  16  16  16   8  16
#     4  10  20  34  57  86 113 140 177 228 288 343
#     4  10  19  31  50  77 110 143 176 220 273 324
#     4   9  19  37  57  80 110 142 180 227 280 337
#     4  10  21  37  57  79 106 145 189 229 274 331
#     4  10  21  35  52  77 110 146 187 230 271 319
#     4   9  20  38  57  79 111 153 198 239 278 331
#     4  11  20  33  56  83 111 145 187 231 278 335
#
# _framework density 8.9163239999999995
#
# number of rings (size 3 to 8) (size 9 to 14) (size 15 to 20)
#    0.000    2.077    0.769    2.769    0.000    4.615 
#    0.000    2.308    0.000    8.308    0.000    0.000 
#    0.000    0.000    0.000    0.000    0.000    0.000 
#
# Total GULP energy -289892.473631 kJ/mol
# GULP energy per Si atom -5574.855262 kJ/mol
# Density = 0.889603 g / cm^3
# Si number density = 8.916324 Si / 1000 Ang^3
#
#
#
# Elastic Constant Matrix: (Units=GPa)
#
#
# Indices 1 2 3 4 5 6 
#
# 1 50.6745 33.3613 32.6669 0.0000 0.0000 0.0000
# 2 33.3613 108.8437 59.7078 0.0000 0.0000 0.0000
# 3 32.6669 59.7078 137.7327 0.0000 0.0000 0.0000
# 4 0.0000 0.0000 0.0000 31.8204 0.0000 0.0000
# 5 0.0000 0.0000 0.0000 0.0000 26.1734 0.0000
# 6 0.0000 0.0000 0.0000 0.0000 0.0000 33.1391
#
#
#
# Elastic Compliance Matrix: (Units=1/GPa)
#
#
# Indices 1 2 3 4 5 6 
#
# 1 0.025985 -0.006014 -0.003556 0.000000 0.000000 0.000000
# 2 -0.006014 0.013446 -0.004402 0.000000 0.000000 0.000000
# 3 -0.003556 -0.004402 0.010012 0.000000 0.000000 0.000000
# 4 0.000000 0.000000 0.000000 0.031426 0.000000 0.000000
# 5 0.000000 0.000000 0.000000 0.000000 0.038207 0.000000
# 6 0.000000 0.000000 0.000000 0.000000 0.000000 0.030176
#
#
# Mechanical properties :
#
#
# Convention : Reuss Voigt Hill
#
# Bulk Modulus (GPa) = 46.51455 60.96920 53.74188
# Shear Modulus (GPa) = 27.12030 29.66091 28.39061
#
# Velocity S-wave (km/s) = 3.90400 4.08277 3.99439
# Velocity P-wave (km/s) = 6.81632 7.51593 7.17466
#
# Compressibility (1/GPa) = 0.02149865
#
# Stress axis : x y z
#
# Youngs Moduli (GPa) = 38.48312 74.37244 99.87679
#
# Poissons Ratio (x) = 0.44727 0.35517
# Poissons Ratio (y) = 0.23144 0.43970
# Poissons Ratio (z) = 0.13685 0.32742
#
# Static dielectric constant tensor:
#      x y z
#    x 1.597820 0.000000 0.000000 
#    y 0.000000 1.657090 0.000000 
#    z 0.000000 0.000000 1.605400 
# 
# From -- ./inp_files/50936.got.cif
#   From: 2010.05.17/outbox.ucp.g08.bks.cvg/sg71_26_cif.got.tgz:50936.got - 2010.06.11 16:29:00.
