data_PCOD9524586
_publ_section_title
;
Structure prediction by ZEFSAII (Michael W. Deem and Ramdas Pophale) SiO2 
 PCOD9524586
Probable space group: I M M M
;
_chemical_formula_sum "Si O2"
_cell_formula_units_Z 88
_cell_length_a 10.371098
_cell_length_b 27.788413
_cell_length_c 14.386095
_cell_angle_alpha 90.000000
_cell_angle_beta 90.000000
_cell_angle_gamma 90.000000
_cell_volume 4146.020134
_symmetry_space_group_name_H-M "I M M M"
_symmetry_group_IT_number 71
_symmetry_cell_setting 'orthorhombic'
loop_
_space_group_symop_operation_xyz
x,y,z
-x,-y,z
x,-y,-z
-x,y,-z
-x,-y,-z
x,y,-z
-x,y,z
x,-y,z
1/2+x,1/2+y,1/2+z
1/2-x,1/2-y,1/2+z
1/2+x,1/2-y,1/2-z
1/2-x,1/2+y,1/2-z
1/2-x,1/2-y,1/2-z
1/2+x,1/2+y,1/2-z
1/2-x,1/2+y,1/2+z
1/2+x,1/2-y,1/2+z
loop_
_atom_site_type_symbol
_atom_site_label
_atom_site_fract_x
_atom_site_fract_y
_atom_site_fract_z
Si Si1 0.646373 0.269771 0.635669
Si Si2 0.850813 0.084920 0.387018
Si Si3 0.142810 0.876420 0.893566
Si Si4 0.858189 0.444585 0.386161
Si Si5 0.856126 0.803633 0.650836
Si Si6 0.652109 0.000000 0.613204
O O1 0.500000 0.260996 0.604684
O O2 0.690828 0.321978 0.601396
O O3 0.741357 0.227372 0.607615
O O4 0.639631 0.280581 0.746093
O O5 0.847313 0.088110 0.500000
O O6 0.829285 0.139292 0.349652
O O7 0.000000 0.070489 0.362927
O O8 0.739721 0.046585 0.360083
O O9 0.245556 0.911294 0.849015
O O10 0.000000 0.876394 0.850460
O O11 0.128742 0.892991 0.000000
O O12 0.859232 0.442845 0.500000
O O13 0.839031 0.500000 0.360623
O O14 0.000000 0.428733 0.355535
O O15 0.000000 0.797618 0.610419
O O16 0.500000 0.000000 0.644228
O O17 0.647434 0.000000 0.500000
#
# Coordination Sequence:
#
# PCOD9524586 Si02
#       6
#    16  16  16  16  16   8
#     4   9  18  32  47  64  90 121 152 186 226 271
#     4   9  17  30  49  72  96 122 154 191 228 270
#     4   9  17  28  43  64  88 114 145 182 222 262
#     4   8  14  25  41  61  84 110 141 177 217 259
#     4   9  18  32  49  67  88 119 155 186 222 269
#     4   9  17  29  47  73 101 125 150 183 228 280
#
# _framework density 21.225175
#
# number of rings (size 3 to 8) (size 9 to 14) (size 15 to 20)
#    0.000    3.182    0.000    0.818    0.000    3.636 
#    0.000    1.818    2.000    0.000    0.000    0.000 
#    0.000    0.000    0.000    0.000    0.000    0.000 
#
# Total GULP energy -245219.877856 kJ/mol
# GULP energy per Si atom -5573.179042 kJ/mol
# Density = 2.117687 g / cm^3
# Si number density = 21.225175 Si / 1000 Ang^3
#
#
#
# Elastic Constant Matrix: (Units=GPa)
#
#
# Indices 1 2 3 4 5 6 
#
# 1 168.2938 136.9122 5.4542 0.0001 0.0000 0.0000
# 2 136.9122 144.0178 3.3166 0.0000 0.0000 0.0000
# 3 5.4542 3.3166 56.6830 0.0004 -0.0001 0.0000
# 4 0.0001 0.0000 0.0004 22.1644 0.0000 0.0000
# 5 0.0000 0.0000 -0.0001 0.0000 -0.1200 0.0000
# 6 0.0000 0.0000 0.0000 0.0000 0.0000 46.7033
#
#
#
# Elastic Compliance Matrix: (Units=1/GPa)
#
#
# Indices 1 2 3 4 5 6 
#
# 1 0.026286 -0.024965 -0.001069 0.000000 0.000000 0.000000
# 2 -0.024965 0.030662 0.000608 0.000000 0.000000 0.000000
# 3 -0.001069 0.000608 0.017709 0.000000 -0.000019 0.000000
# 4 0.000000 0.000000 0.000000 0.045117 -0.000018 0.000000
# 5 0.000000 0.000000 -0.000019 -0.000018 -8.334754 0.000006
# 6 0.000000 0.000000 0.000000 0.000000 0.000006 0.021412
#
#
# Mechanical properties :
#
#
# Convention : Reuss Voigt Hill
#
# Bulk Modulus (GPa) = 42.00355 73.37341 57.68848
# Shear Modulus (GPa) = -0.61464 28.63700 14.01118
#
# Velocity S-wave (km/s) = -0.53871 3.67713 2.57207
# Velocity P-wave (km/s) = 4.40971 7.25758 6.00491
#
# Compressibility (1/GPa) = 0.02380751
#
# Stress axis : x y z
#
# Youngs Moduli (GPa) = 38.04299 32.61323 56.46779
#
# Poissons Ratio (x) = 0.81417 0.06034
# Poissons Ratio (y) = 0.94973 -0.03434
# Poissons Ratio (z) = 0.04065 -0.01983
#
# Static dielectric constant tensor:
#      x y z
#    x 1.786910 0.000000 0.000000 
#    y 0.000000 1.711470 0.000000 
#    z 0.000000 0.000000 1.953860 
# 
# From -- ./inp_files/51059.got.cif
#   From: 2010.05.17/outbox.cif.g08.bks.cpg/sg71_26_cif.got.tgz:51059.got - 2010.06.03 16:22:01.
