data_PCOD9524225
_publ_section_title
;
Structure prediction by ZEFSAII (Michael W. Deem and Ramdas Pophale) SiO2 
 PCOD9524225
Probable space group: I M M M
;
_chemical_formula_sum "Si O2"
_cell_formula_units_Z 64
_cell_length_a 24.468719
_cell_length_b 16.835401
_cell_length_c 7.736187
_cell_angle_alpha 90.000000
_cell_angle_beta 90.000000
_cell_angle_gamma 90.000000
_cell_volume 3186.850260
_symmetry_space_group_name_H-M "I M M M"
_symmetry_group_IT_number 71
_symmetry_cell_setting 'orthorhombic'
loop_
_space_group_symop_operation_xyz
x,y,z
-x,-y,z
x,-y,-z
-x,y,-z
-x,-y,-z
x,y,-z
-x,y,z
x,-y,z
1/2+x,1/2+y,1/2+z
1/2-x,1/2-y,1/2+z
1/2+x,1/2-y,1/2-z
1/2-x,1/2+y,1/2-z
1/2-x,1/2-y,1/2-z
1/2+x,1/2+y,1/2-z
1/2-x,1/2+y,1/2+z
1/2+x,1/2-y,1/2+z
loop_
_atom_site_type_symbol
_atom_site_label
_atom_site_fract_x
_atom_site_fract_y
_atom_site_fract_z
Si Si1 0.258938 0.590255 0.709850
Si Si2 0.139853 0.352840 0.294741
Si Si3 0.065112 0.907628 0.500000
Si Si4 0.562783 0.000000 0.707373
Si Si5 0.369669 0.325020 0.301610
O O1 0.256414 0.588555 0.500000
O O2 0.269812 0.500000 0.768236
O O3 0.199434 0.618560 0.769487
O O4 0.308514 0.648413 0.755002
O O5 0.143829 0.338343 0.500000
O O6 0.096165 0.422340 0.265435
O O7 0.124964 0.269619 0.209112
O O8 0.089321 0.865790 0.330721
O O9 0.000000 0.901973 0.500000
O O10 0.081145 0.000000 0.500000
O O11 0.500000 0.000000 0.769658
O O12 0.561924 0.000000 0.500000
O O13 0.377584 0.351404 0.500000
#
# Coordination Sequence:
#
# PCOD9524225 Si02
#       5
#    16  16   8   8  16
#     4   9  18  35  62  95 132 170 212 270 332 394
#     4  11  21  40  65  94 133 174 222 275 327 388
#     4  11  26  48  70  97 131 167 221 278 328 397
#     4  11  25  43  61  89 131 179 231 277 323 390
#     4  11  23  42  68  98 135 172 218 272 334 392
#
# _framework density 20.082526000000001
#
# number of rings (size 3 to 8) (size 9 to 14) (size 15 to 20)
#    0.000    1.500    2.500    2.625    0.000    4.000 
#    4.500    1.250    0.000    0.000    0.000    0.000 
#    0.000    0.000    0.000    0.000    0.000    0.000 
#
# Total GULP energy -178915.314826 kJ/mol
# GULP energy per Si atom -5591.103588 kJ/mol
# Density = 2.003682 g / cm^3
# Si number density = 20.082526 Si / 1000 Ang^3
#
#
#
# Elastic Constant Matrix: (Units=GPa)
#
#
# Indices 1 2 3 4 5 6 
#
# 1 109.9946 66.8284 31.1461 0.0000 0.0000 0.0000
# 2 66.8284 151.5625 25.5321 0.0000 0.0000 0.0000
# 3 31.1461 25.5321 84.9177 0.0000 0.0000 0.0000
# 4 0.0000 0.0000 0.0000 5.8907 0.0000 0.0000
# 5 0.0000 0.0000 0.0000 0.0000 11.1182 0.0000
# 6 0.0000 0.0000 0.0000 0.0000 0.0000 25.6930
#
#
#
# Elastic Compliance Matrix: (Units=1/GPa)
#
#
# Indices 1 2 3 4 5 6 
#
# 1 0.013224 -0.005281 -0.003262 0.000000 0.000000 0.000000
# 2 -0.005281 0.009059 -0.000787 0.000000 0.000000 0.000000
# 3 -0.003262 -0.000787 0.013209 0.000000 0.000000 0.000000
# 4 0.000000 0.000000 0.000000 0.169760 0.000000 0.000000
# 5 0.000000 0.000000 0.000000 0.000000 0.089942 0.000000
# 6 0.000000 0.000000 0.000000 0.000000 0.000000 0.038921
#
#
# Mechanical properties :
#
#
# Convention : Reuss Voigt Hill
#
# Bulk Modulus (GPa) = 59.41219 65.94309 62.67764
# Shear Modulus (GPa) = 13.95142 23.40493 18.67817
#
# Velocity S-wave (km/s) = 2.63858 3.41755 3.05301
# Velocity P-wave (km/s) = 6.23948 6.96278 6.61103
#
# Compressibility (1/GPa) = 0.01683156
#
# Stress axis : x y z
#
# Youngs Moduli (GPa) = 75.62151 110.38626 75.70472
#
# Poissons Ratio (x) = 0.58297 0.24697
# Poissons Ratio (y) = 0.39937 0.05956
# Poissons Ratio (z) = 0.24670 0.08685
#
# Static dielectric constant tensor:
#      x y z
#    x 1.682870 0.000000 0.000000 
#    y 0.000000 1.681330 0.000000 
#    z 0.000000 0.000000 1.750210 
# 
# From -- ./inp_files/12007.got.cif
#   From: 2010.05.17/outbox.cif.g08.bks.cpg/sg71_7_cif.got.tgz:12007.got - 2010.06.03 16:22:01.
