data_PCOD9524054
_publ_section_title
;
Structure prediction by ZEFSAII (Michael W. Deem and Ramdas Pophale) SiO2 
 PCOD9524054
Probable space group: I M M M
;
_chemical_formula_sum "Si O2"
_cell_formula_units_Z 80
_cell_length_a 22.882496
_cell_length_b 21.828833
_cell_length_c 10.174154
_cell_angle_alpha 90.000000
_cell_angle_beta 90.000000
_cell_angle_gamma 90.000000
_cell_volume 5081.971445
_symmetry_space_group_name_H-M "I M M M"
_symmetry_group_IT_number 71
_symmetry_cell_setting 'orthorhombic'
loop_
_space_group_symop_operation_xyz
x,y,z
-x,-y,z
x,-y,-z
-x,y,-z
-x,-y,-z
x,y,-z
-x,y,z
x,-y,z
1/2+x,1/2+y,1/2+z
1/2-x,1/2-y,1/2+z
1/2+x,1/2-y,1/2-z
1/2-x,1/2+y,1/2-z
1/2-x,1/2-y,1/2-z
1/2+x,1/2+y,1/2-z
1/2-x,1/2+y,1/2+z
1/2+x,1/2-y,1/2+z
loop_
_atom_site_type_symbol
_atom_site_label
_atom_site_fract_x
_atom_site_fract_y
_atom_site_fract_z
Si Si1 0.230285 0.071686 0.000000
Si Si2 0.232068 0.428904 0.000000
Si Si3 0.162220 0.732907 0.658469
Si Si4 0.067484 0.355962 0.265860
Si Si5 0.272083 0.350411 0.249711
Si Si6 0.908702 0.428398 0.000000
Si Si7 0.128188 0.429038 0.500000
O O1 0.209315 0.107162 0.870816
O O2 0.301541 0.075561 0.000000
O O3 0.215189 0.000000 0.000000
O O4 0.253871 0.393085 0.871674
O O5 0.250553 0.500000 0.000000
O O6 0.161755 0.427886 0.000000
O O7 0.156105 0.730286 0.500000
O O8 0.104573 0.706660 0.728737
O O9 0.215656 0.688619 0.701996
O O10 0.180586 0.800594 0.703644
O O11 0.071050 0.391717 0.128413
O O12 0.100553 0.397418 0.373201
O O13 0.000000 0.346693 0.301405
O O14 0.927215 0.500000 0.000000
O O15 0.112664 0.500000 0.500000
#
# Coordination Sequence:
#
# PCOD9524054 Si02
#       7
#     8   8  16  16  16   8   8
#     4  11  20  35  55  79 109 134 167 214 256 302
#     4  11  20  33  53  77 103 136 175 214 260 310
#     4  11  21  35  53  74 102 132 176 216 258 304
#     4  12  23  36  52  71 100 138 184 222 255 292
#     4  11  20  34  54  76 101 136 171 208 264 317
#     4  11  23  37  49  71 107 140 178 221 259 295
#     4  11  21  35  51  71 101 140 186 219 245 289
#
# _framework density 15.741922000000001
#
# number of rings (size 3 to 8) (size 9 to 14) (size 15 to 20)
#    0.000    0.800    7.000    1.800    0.000    6.400 
#    0.000    0.000    0.000    0.000    0.000    0.000 
#    0.000    4.800    0.000    0.000    0.000    0.000 
#
# Total GULP energy -223422.471351 kJ/mol
# GULP energy per Si atom -5585.561784 kJ/mol
# Density = 1.570609 g / cm^3
# Si number density = 15.741922 Si / 1000 Ang^3
#
#
#
# Elastic Constant Matrix: (Units=GPa)
#
#
# Indices 1 2 3 4 5 6 
#
# 1 52.7254 40.6004 12.2786 0.0000 0.0000 0.0000
# 2 40.6004 127.0740 48.9095 0.0000 0.0000 0.0000
# 3 12.2786 48.9095 114.2033 0.0000 0.0000 0.0000
# 4 0.0000 0.0000 0.0000 13.4688 0.0000 0.0000
# 5 0.0000 0.0000 0.0000 0.0000 29.0603 0.0000
# 6 0.0000 0.0000 0.0000 0.0000 0.0000 12.4390
#
#
#
# Elastic Compliance Matrix: (Units=1/GPa)
#
#
# Indices 1 2 3 4 5 6 
#
# 1 0.025230 -0.008402 0.000886 0.000000 0.000000 0.000000
# 2 -0.008402 0.012221 -0.004330 0.000000 0.000000 0.000000
# 3 0.000886 -0.004330 0.010516 0.000000 0.000000 0.000000
# 4 0.000000 0.000000 0.000000 0.074245 0.000000 0.000000
# 5 0.000000 0.000000 0.000000 0.000000 0.034411 0.000000
# 6 0.000000 0.000000 0.000000 0.000000 0.000000 0.080392
#
#
# Mechanical properties :
#
#
# Convention : Reuss Voigt Hill
#
# Bulk Modulus (GPa) = 41.19833 55.28663 48.24248
# Shear Modulus (GPa) = 18.60127 23.80789 21.20458
#
# Velocity S-wave (km/s) = 3.44123 3.89316 3.67415
# Velocity P-wave (km/s) = 6.48208 7.44351 6.97937
#
# Compressibility (1/GPa) = 0.02427283
#
# Stress axis : x y z
#
# Youngs Moduli (GPa) = 39.63592 81.82953 95.09654
#
# Poissons Ratio (x) = 0.68752 -0.08422
# Poissons Ratio (y) = 0.33301 0.41180
# Poissons Ratio (z) = -0.03510 0.35435
#
# Static dielectric constant tensor:
#      x y z
#    x 1.503660 0.000000 0.000000 
#    y 0.000000 1.529640 0.000000 
#    z 0.000000 0.000000 1.529960 
# 
# From -- ./inp_files/12438.got.cif
#   From: 2010.05.17/outbox.cif.g08.bks.cpg/sg71_7_cif.got.tgz:12438.got - 2010.06.03 16:22:01.
