data_PCOD9524057
_publ_section_title
;
Structure prediction by ZEFSAII (Michael W. Deem and Ramdas Pophale) SiO2 
 PCOD9524057
Probable space group: I M M M
;
_chemical_formula_sum "Si O2"
_cell_formula_units_Z 80
_cell_length_a 26.669714
_cell_length_b 8.915611
_cell_length_c 24.477170
_cell_angle_alpha 90.000000
_cell_angle_beta 90.000000
_cell_angle_gamma 90.000000
_cell_volume 5820.103046
_symmetry_space_group_name_H-M "I M M M"
_symmetry_group_IT_number 71
_symmetry_cell_setting 'orthorhombic'
loop_
_space_group_symop_operation_xyz
x,y,z
-x,-y,z
x,-y,-z
-x,y,-z
-x,-y,-z
x,y,-z
-x,y,z
x,-y,z
1/2+x,1/2+y,1/2+z
1/2-x,1/2-y,1/2+z
1/2+x,1/2-y,1/2-z
1/2-x,1/2+y,1/2-z
1/2-x,1/2-y,1/2-z
1/2+x,1/2+y,1/2-z
1/2-x,1/2+y,1/2+z
1/2+x,1/2-y,1/2+z
loop_
_atom_site_type_symbol
_atom_site_label
_atom_site_fract_x
_atom_site_fract_y
_atom_site_fract_z
Si Si1 0.557990 0.178895 0.889622
Si Si2 0.703678 0.320618 0.283373
Si Si3 0.642075 0.320745 0.817502
Si Si4 0.753496 0.819716 0.380677
Si Si5 0.601146 0.319568 0.000000
Si Si6 0.281575 0.682311 0.000000
O O1 0.500000 0.215854 0.878387
O O2 0.595176 0.235916 0.842621
O O3 0.575162 0.256249 0.945910
O O4 0.562365 0.000000 0.895663
O O5 0.708712 0.500000 0.284196
O O6 0.750000 0.250000 0.250000
O O7 0.655875 0.284531 0.245381
O O8 0.710720 0.255349 0.343723
O O9 0.634338 0.500000 0.822113
O O10 0.691992 0.285911 0.853530
O O11 0.755980 0.769826 0.443522
O O12 0.747856 0.000000 0.378143
O O13 0.598856 0.500000 0.000000
O O14 0.659840 0.274446 0.000000
O O15 0.281175 0.500000 0.000000
#
# Coordination Sequence:
#
# PCOD9524057 Si02
#       6
#    16  16  16  16   8   8
#     4  11  23  34  43  60  84 106 137 184 226 254
#     4   9  17  28  42  61  82 103 131 168 206 248
#     4   9  17  30  46  60  77 106 141 173 207 251
#     4   9  16  28  44  62  83 107 136 170 205 243
#     4  11  20  34  49  58  76 110 148 181 213 251
#     4   9  16  28  44  61  84 110 139 175 206 237
#
# _framework density 13.74546
#
# number of rings (size 3 to 8) (size 9 to 14) (size 15 to 20)
#    0.000    2.400    2.000    3.000    0.000    6.800 
#    0.000    0.500    0.000    0.000    0.000    0.000 
#    0.000    0.000    0.000    0.900    0.000   17.600 
#
# Total GULP energy -222865.263898 kJ/mol
# GULP energy per Si atom -5571.631597 kJ/mol
# Density = 1.371417 g / cm^3
# Si number density = 13.745460 Si / 1000 Ang^3
#
#
#
# Elastic Constant Matrix: (Units=GPa)
#
#
# Indices 1 2 3 4 5 6 
#
# 1 65.9404 36.0647 63.9713 0.0000 0.0000 0.0000
# 2 36.0647 35.6561 43.1336 0.0000 0.0000 0.0000
# 3 63.9713 43.1336 125.1152 0.0000 0.0000 0.0000
# 4 0.0000 0.0000 0.0000 23.1713 0.0000 0.0000
# 5 0.0000 0.0000 0.0000 0.0000 9.2650 0.0000
# 6 0.0000 0.0000 0.0000 0.0000 0.0000 19.3126
#
#
#
# Elastic Compliance Matrix: (Units=1/GPa)
#
#
# Indices 1 2 3 4 5 6 
#
# 1 0.042038 -0.028335 -0.011725 0.000000 0.000000 0.000000
# 2 -0.028335 0.067209 -0.008683 0.000000 0.000000 0.000000
# 3 -0.011725 -0.008683 0.016981 0.000000 0.000000 0.000000
# 4 0.000000 0.000000 0.000000 0.043157 0.000000 0.000000
# 5 0.000000 0.000000 0.000000 0.000000 0.107933 0.000000
# 6 0.000000 0.000000 0.000000 0.000000 0.000000 0.051780
#
#
# Mechanical properties :
#
#
# Convention : Reuss Voigt Hill
#
# Bulk Modulus (GPa) = 34.79273 57.00564 45.89919
# Shear Modulus (GPa) = 11.46358 15.91926 13.69142
#
# Velocity S-wave (km/s) = 2.89102 3.40685 3.15948
# Velocity P-wave (km/s) = 6.04244 7.55234 6.83919
#
# Compressibility (1/GPa) = 0.02874164
#
# Stress axis : x y z
#
# Youngs Moduli (GPa) = 23.78823 14.87896 58.88923
#
# Poissons Ratio (x) = 0.42160 0.69049
# Poissons Ratio (y) = 0.67404 0.51131
# Poissons Ratio (z) = 0.27892 0.12919
#
# Static dielectric constant tensor:
#      x y z
#    x 1.428470 0.000000 0.000000 
#    y 0.000000 1.459620 0.000000 
#    z 0.000000 0.000000 1.479560 
# 
# From -- ./inp_files/12750.got.cif
#   From: 2010.05.17/outbox.cif.g08.bks.cpg/sg71_7_cif.got.tgz:12750.got - 2010.06.03 16:22:01.
