data_PCOD9524804
_publ_section_title
;
Structure prediction by ZEFSAII (Michael W. Deem and Ramdas Pophale) SiO2 
 PCOD9524804
Probable space group: I M M M
;
_chemical_formula_sum "Si O2"
_cell_formula_units_Z 44
_cell_length_a 21.000000
_cell_length_b 18.000000
_cell_length_c 12.000000
_cell_angle_alpha 90.000000
_cell_angle_beta 90.000000
_cell_angle_gamma 90.000000
_cell_volume 4536.000000
_symmetry_space_group_name_H-M "I M M M"
_symmetry_group_IT_number 71
_symmetry_cell_setting 'orthorhombic'
loop_
_space_group_symop_operation_xyz
x,y,z
-x,-y,z
x,-y,-z
-x,y,-z
-x,-y,-z
x,y,-z
-x,y,z
x,-y,z
1/2+x,1/2+y,1/2+z
1/2-x,1/2-y,1/2+z
1/2+x,1/2-y,1/2-z
1/2-x,1/2+y,1/2-z
1/2-x,1/2-y,1/2-z
1/2+x,1/2+y,1/2-z
1/2-x,1/2+y,1/2+z
1/2+x,1/2-y,1/2+z
loop_
_atom_site_type_symbol
_atom_site_label
_atom_site_fract_x
_atom_site_fract_y
_atom_site_fract_z
Si Si1 0.630731 0.637913 0.761298
Si Si2 0.074335 0.418116 0.731269
Si Si3 0.745138 0.086430 0.628134
Si Si4 0.423870 0.682136 0.000000
Si Si5 0.924261 0.000000 0.126144
Si Si6 0.421818 0.145422 0.000000
Si Si7 0.368240 0.205811 0.630093
O O1 0.700567 0.606332 0.785215
O O2 0.599650 0.647611 0.883769
O O3 0.596049 0.574834 0.689850
O O4 0.633208 0.717723 0.699294
O O5 0.096967 0.500000 0.767335
O O6 0.102556 0.393852 0.612060
O O7 0.081383 0.351186 0.817489
O O8 0.000000 0.425353 0.710653
O O9 0.768793 0.091317 0.500000
O O10 0.693239 0.151658 0.639266
O O11 0.725150 0.000000 0.642143
O O12 0.402949 0.768511 0.000000
O O13 0.500000 0.679761 0.000000
O O14 0.000000 0.000000 0.120794
O O15 0.898187 0.000000 0.000000
O O16 0.500000 0.144271 0.000000
O O17 0.379079 0.221958 0.500000
#
# Coordination Sequence:
#
# PCOD9524804 Si02
#       7
#    16  16  16   8   8   8  16
#     4  12  22  42  66  90 125 161 209 261 315 376
#     4  10  20  35  58  86 119 159 202 255 311 370
#     4  10  21  40  64  91 120 158 203 261 318 362
#     4  11  22  36  64 100 125 155 204 265 318 371
#     4  11  26  45  67  95 131 170 206 253 316 386
#     4   9  17  34  56  84 120 155 195 247 312 369
#     4  11  24  39  60  88 122 169 213 251 306 378
#
# _framework density 9.7001760000000008
#
# number of rings (size 3 to 8) (size 9 to 14) (size 15 to 20)
#    0.000    1.364    3.636    2.455    0.000    3.636 
#    0.000    1.818    2.000    0.000    0.000    0.000 
#    0.000    0.000    0.000    0.000    0.000    0.000 
#
# Total GULP energy -245246.363080 kJ/mol
# GULP energy per Si atom -5573.780979 kJ/mol
# Density = 0.967810 g / cm^3
# Si number density = 9.700176 Si / 1000 Ang^3
#
#
#
# Elastic Constant Matrix: (Units=GPa)
#
#
# Indices 1 2 3 4 5 6 
#
# 1 35.0613 31.4715 46.8299 0.0000 0.0000 0.0000
# 2 31.4715 179.6481 86.1317 0.0000 0.0000 0.0000
# 3 46.8299 86.1317 138.5584 0.0000 0.0000 0.0000
# 4 0.0000 0.0000 0.0000 -254.5651 0.0000 0.0000
# 5 0.0000 0.0000 0.0000 0.0000 31.8075 0.0000
# 6 0.0000 0.0000 0.0000 0.0000 0.0000 26.6960
#
#
#
# Elastic Compliance Matrix: (Units=1/GPa)
#
#
# Indices 1 2 3 4 5 6 
#
# 1 0.052112 -0.000976 -0.017006 0.000000 0.000000 0.000000
# 2 -0.000976 0.007948 -0.004611 0.000000 0.000000 0.000000
# 3 -0.017006 -0.004611 0.015831 0.000000 0.000000 0.000000
# 4 0.000000 0.000000 0.000000 -0.003928 0.000000 0.000000
# 5 0.000000 0.000000 0.000000 0.000000 0.031439 0.000000
# 6 0.000000 0.000000 0.000000 0.000000 0.000000 0.037459
#
#
# Mechanical properties :
#
#
# Convention : Reuss Voigt Hill
#
# Bulk Modulus (GPa) = 32.56758 75.79267 54.18012
# Shear Modulus (GPa) = 25.47361 -26.62334 -0.57486
#
# Velocity S-wave (km/s) = 3.62753 -3.70849 -0.54494
# Velocity P-wave (km/s) = 5.86250 4.56238 5.25282
#
# Compressibility (1/GPa) = 0.03070539
#
# Stress axis : x y z
#
# Youngs Moduli (GPa) = 19.18954 125.81663 63.16604
#
# Poissons Ratio (x) = 0.12274 1.07422
# Poissons Ratio (y) = 0.01872 0.29126
# Poissons Ratio (z) = 0.32634 0.58014
#
# Static dielectric constant tensor:
#      x y z
#    x 1.743210 0.000000 0.000000 
#    y 0.000000 1.648280 0.000000 
#    z 0.000000 0.000000 1.684110 
# 
# From -- ./inp_files/25697.got.cif
#   From: 2010.05.17/outbox.ucp.g08.bks.cvg/sg71_13_cif.got.tgz:25697.got - 2010.06.11 16:29:00.
