data_PCOD9524289
_publ_section_title
;
Structure prediction by ZEFSAII (Michael W. Deem and Ramdas Pophale) SiO2 
 PCOD9524289
Probable space group: I M M M
;
_chemical_formula_sum "Si O2"
_cell_formula_units_Z 72
_cell_length_a 8.242115
_cell_length_b 15.970895
_cell_length_c 27.642244
_cell_angle_alpha 90.000000
_cell_angle_beta 90.000000
_cell_angle_gamma 90.000000
_cell_volume 3638.657854
_symmetry_space_group_name_H-M "I M M M"
_symmetry_group_IT_number 71
_symmetry_cell_setting 'orthorhombic'
loop_
_space_group_symop_operation_xyz
x,y,z
-x,-y,z
x,-y,-z
-x,y,-z
-x,-y,-z
x,y,-z
-x,y,z
x,-y,z
1/2+x,1/2+y,1/2+z
1/2-x,1/2-y,1/2+z
1/2+x,1/2-y,1/2-z
1/2-x,1/2+y,1/2-z
1/2-x,1/2-y,1/2-z
1/2+x,1/2+y,1/2-z
1/2-x,1/2+y,1/2+z
1/2+x,1/2-y,1/2+z
loop_
_atom_site_type_symbol
_atom_site_label
_atom_site_fract_x
_atom_site_fract_y
_atom_site_fract_z
Si Si1 0.198533 0.500000 0.276495
Si Si2 0.198268 0.500000 0.388125
Si Si3 0.805939 0.500000 0.944572
Si Si4 0.194102 0.667561 0.221709
Si Si5 0.305851 0.334037 0.889041
Si Si6 0.301579 0.167005 0.055808
O O1 0.250153 0.500000 0.332344
O O2 0.252695 0.583666 0.248938
O O3 0.000000 0.500000 0.276318
O O4 0.250502 0.583714 0.415923
O O5 0.000000 0.500000 0.388257
O O6 0.750743 0.582657 0.916297
O O7 0.000000 0.500000 0.945929
O O8 0.744272 0.500000 0.000000
O O9 0.250000 0.750000 0.250000
O O10 0.250536 0.667615 0.166390
O O11 0.000000 0.665820 0.222326
O O12 0.500000 0.332645 0.889756
O O13 0.247166 0.251003 0.917053
O O14 0.500000 0.167082 0.055998
O O15 0.249924 0.165963 0.000000
#
# Coordination Sequence:
#
# PCOD9524289 Si02
#       6
#     8   8   8  16  16  16
#     4   9  19  34  53  77 108 145 182 229 286 338
#     4   9  15  27  48  75 108 141 174 215 270 332
#     4  11  24  41  60  84 116 155 198 245 300 358
#     4  11  22  38  59  84 116 153 194 240 292 349
#     4  11  22  37  58  84 115 151 193 240 290 346
#     4   9  17  29  49  79 111 141 176 222 276 335
#
# _framework density 19.787516
#
# number of rings (size 3 to 8) (size 9 to 14) (size 15 to 20)
#    0.000    1.889    0.000    4.667    0.000    7.556 
#    0.000    1.667    0.000    0.000    0.000    2.333 
#    0.000   10.667    0.000    0.000    0.000    0.000 
#
# Total GULP energy -201219.022789 kJ/mol
# GULP energy per Si atom -5589.417300 kJ/mol
# Density = 1.974248 g / cm^3
# Si number density = 19.787516 Si / 1000 Ang^3
#
#
#
# Elastic Constant Matrix: (Units=GPa)
#
#
# Indices 1 2 3 4 5 6 
#
# 1 29.0790 24.9142 23.1293 0.0000 0.0000 0.0000
# 2 24.9142 242.1878 148.2316 0.0000 0.0000 0.0000
# 3 23.1293 148.2316 241.7346 0.0000 0.0000 0.0000
# 4 0.0000 0.0000 0.0000 47.6486 0.0000 0.0000
# 5 0.0000 0.0000 0.0000 0.0000 25.9913 0.0000
# 6 0.0000 0.0000 0.0000 0.0000 0.0000 13.1454
#
#
#
# Elastic Compliance Matrix: (Units=1/GPa)
#
#
# Indices 1 2 3 4 5 6 
#
# 1 0.038307 -0.002717 -0.001999 0.000000 0.000000 0.000000
# 2 -0.002717 0.006802 -0.003911 0.000000 0.000000 0.000000
# 3 -0.001999 -0.003911 0.006726 0.000000 0.000000 0.000000
# 4 0.000000 0.000000 0.000000 0.020987 0.000000 0.000000
# 5 0.000000 0.000000 0.000000 0.000000 0.038474 0.000000
# 6 0.000000 0.000000 0.000000 0.000000 0.000000 0.076072
#
#
# Mechanical properties :
#
#
# Convention : Reuss Voigt Hill
#
# Bulk Modulus (GPa) = 28.91766 100.61684 64.76725
# Shear Modulus (GPa) = 23.13192 38.47214 30.80203
#
# Velocity S-wave (km/s) = 3.42280 4.41416 3.94971
# Velocity P-wave (km/s) = 5.50150 8.77148 7.32138
#
# Compressibility (1/GPa) = 0.03458095
#
# Stress axis : x y z
#
# Youngs Moduli (GPa) = 26.10482 147.00576 148.66699
#
# Poissons Ratio (x) = 0.39944 0.29720
# Poissons Ratio (y) = 0.07093 0.58148
# Poissons Ratio (z) = 0.05219 0.57498
#
# Static dielectric constant tensor:
#      x y z
#    x 1.701860 0.000000 0.000000 
#    y 0.000000 1.666290 0.000000 
#    z 0.000000 0.000000 1.697160 
# 
# From -- ./inp_files/6176.got.cif
#   From: 2010.05.17/outbox.cif.g08.bks.cpg/sg71_4_cif.got.tgz:6176.got - 2010.06.03 16:22:01.
