data_PCOD9524271
_publ_section_title
;
Structure prediction by ZEFSAII (Michael W. Deem and Ramdas Pophale) SiO2 
 PCOD9524271
Probable space group: I M M M
;
_chemical_formula_sum "Si O2"
_cell_formula_units_Z 100
_cell_length_a 19.159450
_cell_length_b 32.121887
_cell_length_c 7.633904
_cell_angle_alpha 90.000000
_cell_angle_beta 90.000000
_cell_angle_gamma 90.000000
_cell_volume 4698.192227
_symmetry_space_group_name_H-M "I M M M"
_symmetry_group_IT_number 71
_symmetry_cell_setting 'orthorhombic'
loop_
_space_group_symop_operation_xyz
x,y,z
-x,-y,z
x,-y,-z
-x,y,-z
-x,-y,-z
x,y,-z
-x,y,z
x,-y,z
1/2+x,1/2+y,1/2+z
1/2-x,1/2-y,1/2+z
1/2+x,1/2-y,1/2-z
1/2-x,1/2+y,1/2-z
1/2-x,1/2-y,1/2-z
1/2+x,1/2+y,1/2-z
1/2-x,1/2+y,1/2+z
1/2+x,1/2-y,1/2+z
loop_
_atom_site_type_symbol
_atom_site_label
_atom_site_fract_x
_atom_site_fract_y
_atom_site_fract_z
Si Si1 0.579140 0.380263 0.208947
Si Si2 0.326140 0.124182 0.201342
Si Si3 0.920378 0.789101 0.208195
Si Si4 0.707417 0.567727 0.797936
Si Si5 0.242369 0.000000 0.000000
Si Si6 0.420006 0.801647 0.792953
Si Si7 0.582928 0.045996 0.710409
O O1 0.500000 0.382898 0.281278
O O2 0.609247 0.334221 0.246839
O O3 0.631499 0.416437 0.264196
O O4 0.574747 0.383760 0.000000
O O5 0.257804 0.107942 0.297535
O O6 0.368428 0.163221 0.278564
O O7 0.378486 0.084711 0.206814
O O8 0.307263 0.133423 0.000000
O O9 0.891113 0.745116 0.271306
O O10 0.000000 0.790173 0.280218
O O11 0.923119 0.786502 0.000000
O O12 0.737124 0.536021 0.655896
O O13 0.704462 0.552214 0.000000
O O14 0.500000 0.803439 0.721549
O O15 0.425582 0.810082 0.000000
O O16 0.594422 0.047281 0.500000
O O17 0.500000 0.048825 0.740008
O O18 0.605966 0.000000 0.773990
#
# Coordination Sequence:
#
# PCOD9524271 Si02
#       7
#    16  16  16  16   4  16  16
#     4   9  19  39  66  93 123 158 196 243 301 371
#     4  11  22  36  55  81 117 159 207 259 308 364
#     4   9  17  29  53  88 121 155 199 249 300 361
#     4  11  25  44  67  94 123 160 206 251 309 376
#     4  12  26  48  69  92 125 162 204 256 308 378
#     4   9  18  33  53  80 119 166 211 254 305 360
#     4   9  19  34  51  74 104 143 195 251 306 362
#
# _framework density 21.284780999999999
#
# number of rings (size 3 to 8) (size 9 to 14) (size 15 to 20)
#    0.000    2.240    0.800    2.160    2.240    4.480 
#    0.000    4.000    0.000    1.920    0.000    0.000 
#    0.000    0.000    0.000    0.000    0.000    0.000 
#
# Total GULP energy -278484.873984 kJ/mol
# GULP energy per Si atom -5569.697480 kJ/mol
# Density = 2.123634 g / cm^3
# Si number density = 21.284781 Si / 1000 Ang^3
#
#
#
# Elastic Constant Matrix: (Units=GPa)
#
#
# Indices 1 2 3 4 5 6 
#
# 1 53.4119 23.0707 10.0142 -0.0002 0.0016 0.0004
# 2 23.0707 64.5185 12.7170 0.0006 0.0009 0.0007
# 3 10.0142 12.7170 74.1812 0.0068 0.0127 -0.0027
# 4 -0.0002 0.0006 0.0068 45.3493 0.0029 0.0001
# 5 0.0016 0.0009 0.0127 0.0029 14.0739 0.0000
# 6 0.0004 0.0007 -0.0027 0.0001 0.0000 8.7301
#
#
#
# Elastic Compliance Matrix: (Units=1/GPa)
#
#
# Indices 1 2 3 4 5 6 
#
# 1 0.022349 -0.007656 -0.001705 0.000000 0.000000 -0.000001
# 2 -0.007656 0.018664 -0.002166 0.000000 0.000002 -0.000002
# 3 -0.001705 -0.002166 0.014082 -0.000002 -0.000012 0.000005
# 4 0.000000 0.000000 -0.000002 0.022051 -0.000005 0.000000
# 5 0.000000 0.000002 -0.000012 -0.000005 0.071053 0.000000
# 6 -0.000001 -0.000002 0.000005 0.000000 0.000000 0.114547
#
#
# Mechanical properties :
#
#
# Convention : Reuss Voigt Hill
#
# Bulk Modulus (GPa) = 31.20896 31.52393 31.36644
# Shear Modulus (GPa) = 16.86461 23.38464 20.12462
#
# Velocity S-wave (km/s) = 2.81789 3.31819 3.07822
# Velocity P-wave (km/s) = 5.02810 5.43353 5.23474
#
# Compressibility (1/GPa) = 0.03204208
#
# Stress axis : x y z
#
# Youngs Moduli (GPa) = 44.74528 53.57944 71.01285
#
# Poissons Ratio (x) = 0.41018 0.12105
# Poissons Ratio (y) = 0.34255 0.15382
# Poissons Ratio (z) = 0.07627 0.11606
#
# Static dielectric constant tensor:
#      x y z
#    x 1.806590 0.000000 0.000000 
#    y 0.000000 1.779760 0.000000 
#    z 0.000000 0.000000 1.776210 
# 
# From -- ./inp_files/11115.got.cif
#   From: 2010.05.17/outbox.cif.g08.bks.cpg/sg71_6_cif.got.tgz:11115.got - 2010.06.03 16:22:01.
