data_PCOD9524216
_publ_section_title
;
Structure prediction by ZEFSAII (Michael W. Deem and Ramdas Pophale) SiO2 
 PCOD9524216
Probable space group: I M M M
;
_chemical_formula_sum "Si O2"
_cell_formula_units_Z 66
_cell_length_a 16.771016
_cell_length_b 20.376473
_cell_length_c 10.095061
_cell_angle_alpha 90.000000
_cell_angle_beta 90.000000
_cell_angle_gamma 90.000000
_cell_volume 3449.827138
_symmetry_space_group_name_H-M "I M M M"
_symmetry_group_IT_number 71
_symmetry_cell_setting 'orthorhombic'
loop_
_space_group_symop_operation_xyz
x,y,z
-x,-y,z
x,-y,-z
-x,y,-z
-x,-y,-z
x,y,-z
-x,y,z
x,-y,z
1/2+x,1/2+y,1/2+z
1/2-x,1/2-y,1/2+z
1/2+x,1/2-y,1/2-z
1/2-x,1/2+y,1/2-z
1/2-x,1/2-y,1/2-z
1/2+x,1/2+y,1/2-z
1/2-x,1/2+y,1/2+z
1/2+x,1/2-y,1/2+z
loop_
_atom_site_type_symbol
_atom_site_label
_atom_site_fract_x
_atom_site_fract_y
_atom_site_fract_z
Si Si1 0.500000 0.500000 0.000000
Si Si2 0.409534 0.354050 0.295710
Si Si3 0.907116 0.295870 0.217947
Si Si4 0.177865 0.700043 0.500000
Si Si5 0.210845 0.667588 0.000000
Si Si6 0.627018 0.383721 0.000000
Si Si7 0.703480 0.422055 0.500000
O O1 0.569891 0.555120 0.000000
O O2 0.500000 0.376677 0.318512
O O3 0.402086 0.278604 0.338770
O O4 0.393780 0.350248 0.139187
O O5 0.349906 0.401545 0.372425
O O6 0.875251 0.297042 0.367778
O O7 0.845705 0.335483 0.127365
O O8 0.000000 0.315517 0.210652
O O9 0.238627 0.763042 0.500000
O O10 0.225021 0.630811 0.500000
O O11 0.277743 0.611530 0.000000
O O12 0.721752 0.500000 0.500000
#
# Coordination Sequence:
#
# PCOD9524216 Si02
#       7
#     2  16  16   8   8   8   8
#     4  12  28  44  56  98 130 172 194 254 296 404
#     4  11  21  38  58  88 123 165 204 252 309 377
#     4  11  22  38  65  94 124 156 209 271 332 364
#     4  12  21  40  61  93 124 161 212 268 319 375
#     4  12  21  38  62  94 123 163 204 271 310 373
#     4  12  24  39  63  85 126 164 211 248 303 371
#     4  12  27  38  56  85 129 172 209 249 306 385
#
# _framework density 19.131392000000002
#
# number of rings (size 3 to 8) (size 9 to 14) (size 15 to 20)
#    0.000    0.485    6.061    3.273    1.697    4.848 
#    0.000    0.000    0.000    1.455    0.000    0.848 
#    0.000    0.000    0.000    0.000    0.000    0.000 
#
# Total GULP energy -183951.382285 kJ/mol
# GULP energy per Si atom -5574.284312 kJ/mol
# Density = 1.908785 g / cm^3
# Si number density = 19.131392 Si / 1000 Ang^3
#
#
#
# Elastic Constant Matrix: (Units=GPa)
#
#
# Indices 1 2 3 4 5 6 
#
# 1 162.9876 55.5265 47.1441 0.0000 0.0000 0.0000
# 2 55.5265 80.5296 21.7245 0.0000 0.0000 0.0000
# 3 47.1441 21.7245 107.9337 0.0000 0.0000 0.0000
# 4 0.0000 0.0000 0.0000 14.3105 0.0000 0.0000
# 5 0.0000 0.0000 0.0000 0.0000 -48.9610 0.0000
# 6 0.0000 0.0000 0.0000 0.0000 0.0000 39.2665
#
#
#
# Elastic Compliance Matrix: (Units=1/GPa)
#
#
# Indices 1 2 3 4 5 6 
#
# 1 0.008729 -0.005277 -0.002751 0.000000 0.000000 0.000000
# 2 -0.005277 0.016320 -0.000980 0.000000 0.000000 0.000000
# 3 -0.002751 -0.000980 0.010664 0.000000 0.000000 0.000000
# 4 0.000000 0.000000 0.000000 0.069879 0.000000 0.000000
# 5 0.000000 0.000000 0.000000 0.000000 -0.020424 0.000000
# 6 0.000000 0.000000 0.000000 0.000000 0.000000 0.025467
#
#
# Mechanical properties :
#
#
# Convention : Reuss Voigt Hill
#
# Bulk Modulus (GPa) = 56.50277 66.69344 61.59810
# Shear Modulus (GPa) = 37.16148 16.06025 26.61087
#
# Velocity S-wave (km/s) = 4.41209 2.90051 3.73359
# Velocity P-wave (km/s) = 7.45342 6.79365 7.13117
#
# Compressibility (1/GPa) = 0.01769825
#
# Stress axis : x y z
#
# Youngs Moduli (GPa) = 114.56565 61.27273 93.77675
#
# Poissons Ratio (x) = 0.32331 0.25793
# Poissons Ratio (y) = 0.60451 0.09192
# Poissons Ratio (z) = 0.31511 0.06006
#
# Static dielectric constant tensor:
#      x y z
#    x 1.672220 0.000000 0.000000 
#    y 0.000000 1.631830 0.000000 
#    z 0.000000 0.000000 1.681340 
# 
# From -- ./inp_files/7709.got.cif
#   From: 2010.05.17/outbox.cif.g08.bks.cpg/sg71_4_cif.got.tgz:7709.got - 2010.06.03 16:22:01.
