data_PCOD9524098
_publ_section_title
;
Structure prediction by ZEFSAII (Michael W. Deem and Ramdas Pophale) SiO2 
 PCOD9524098
Probable space group: I M M M
;
_chemical_formula_sum "Si O2"
_cell_formula_units_Z 104
_cell_length_a 18.000533
_cell_length_b 21.844088
_cell_length_c 15.215160
_cell_angle_alpha 90.000000
_cell_angle_beta 90.000000
_cell_angle_gamma 90.000000
_cell_volume 5982.680440
_symmetry_space_group_name_H-M "I M M M"
_symmetry_group_IT_number 71
_symmetry_cell_setting 'orthorhombic'
loop_
_space_group_symop_operation_xyz
x,y,z
-x,-y,z
x,-y,-z
-x,y,-z
-x,-y,-z
x,y,-z
-x,y,z
x,-y,z
1/2+x,1/2+y,1/2+z
1/2-x,1/2-y,1/2+z
1/2+x,1/2-y,1/2-z
1/2-x,1/2+y,1/2-z
1/2-x,1/2-y,1/2-z
1/2+x,1/2+y,1/2-z
1/2-x,1/2+y,1/2+z
1/2+x,1/2-y,1/2+z
loop_
_atom_site_type_symbol
_atom_site_label
_atom_site_fract_x
_atom_site_fract_y
_atom_site_fract_z
Si Si1 0.263051 0.931888 0.326242
Si Si2 0.287766 0.304155 0.100027
Si Si3 0.642389 0.571314 0.309805
Si Si4 0.413722 0.425648 0.500000
Si Si5 0.918567 0.188213 0.729764
Si Si6 0.415857 0.903343 0.398200
Si Si7 0.622100 0.760525 0.400913
O O1 0.233332 0.875600 0.384206
O O2 0.225656 0.923241 0.230152
O O3 0.351790 0.927874 0.334809
O O4 0.240154 0.000000 0.356058
O O5 0.352426 0.288768 0.167864
O O6 0.211004 0.267373 0.113061
O O7 0.311745 0.295541 0.000000
O O8 0.620694 0.500000 0.302705
O O9 0.629102 0.591000 0.410442
O O10 0.594429 0.616396 0.249365
O O11 0.416561 0.500000 0.500000
O O12 0.500000 0.404460 0.500000
O O13 0.911501 0.220847 0.823784
O O14 0.000000 0.198920 0.692214
O O15 0.399956 0.921591 0.500000
O O16 0.500000 0.921553 0.377224
O O17 0.409491 0.829547 0.396417
O O18 0.608240 0.737404 0.500000
#
# Coordination Sequence:
#
# PCOD9524098 Si02
#       7
#    16  16  16   8  16  16  16
#     4   9  17  30  48  69  93 124 161 191 222 277
#     4   9  19  35  50  65  93 129 159 192 230 271
#     4   9  19  33  46  65  95 127 156 188 232 283
#     4   9  16  28  46  64  87 119 149 185 237 279
#     4  11  21  30  48  74  95 121 157 195 233 277
#     4   9  17  29  46  71 101 125 147 188 242 282
#     4   9  18  33  51  70  93 121 155 192 234 285
#
# _framework density 17.383512
#
# number of rings (size 3 to 8) (size 9 to 14) (size 15 to 20)
#    0.000    2.692    0.000    2.769    1.077    3.692 
#    0.000    0.769    0.000    0.000    0.000    4.846 
#    0.000    3.077    0.000    0.000    0.000    0.000 
#
# Total GULP energy -289766.821434 kJ/mol
# GULP energy per Si atom -5572.438874 kJ/mol
# Density = 1.734395 g / cm^3
# Si number density = 17.383512 Si / 1000 Ang^3
#
#
#
# Elastic Constant Matrix: (Units=GPa)
#
#
# Indices 1 2 3 4 5 6 
#
# 1 112.6049 5.4663 49.6922 0.0000 0.0000 0.0000
# 2 5.4663 32.8722 4.7472 0.0000 0.0000 0.0000
# 3 49.6922 4.7472 67.4444 0.0000 0.0000 0.0000
# 4 0.0000 0.0000 0.0000 19.7953 0.0000 0.0000
# 5 0.0000 0.0000 0.0000 0.0000 16.1296 0.0000
# 6 0.0000 0.0000 0.0000 0.0000 0.0000 8.1783
#
#
#
# Elastic Compliance Matrix: (Units=1/GPa)
#
#
# Indices 1 2 3 4 5 6 
#
# 1 0.013180 -0.000797 -0.009655 0.000000 0.000000 0.000000
# 2 -0.000797 0.030781 -0.001579 0.000000 0.000000 0.000000
# 3 -0.009655 -0.001579 0.022052 0.000000 0.000000 0.000000
# 4 0.000000 0.000000 0.000000 0.050517 0.000000 0.000000
# 5 0.000000 0.000000 0.000000 0.000000 0.061998 0.000000
# 6 0.000000 0.000000 0.000000 0.000000 0.000000 0.122275
#
#
# Mechanical properties :
#
#
# Convention : Reuss Voigt Hill
#
# Bulk Modulus (GPa) = 23.83754 36.97033 30.40393
# Shear Modulus (GPa) = 14.75587 19.02170 16.88878
#
# Velocity S-wave (km/s) = 2.91665 3.31152 3.12034
# Velocity P-wave (km/s) = 5.00849 5.99459 5.52359
#
# Compressibility (1/GPa) = 0.04195064
#
# Stress axis : x y z
#
# Youngs Moduli (GPa) = 75.87318 32.48709 45.34817
#
# Poissons Ratio (x) = 0.02591 0.43782
# Poissons Ratio (y) = 0.06050 0.07161
# Poissons Ratio (z) = 0.73253 0.05130
#
# Static dielectric constant tensor:
#      x y z
#    x 1.606730 0.000000 0.000000 
#    y 0.000000 1.627770 0.000000 
#    z 0.000000 0.000000 1.576380 
# 
# From -- ./inp_files/36898.got.cif
#   From: 2010.05.17/outbox.cif.g08.bks.cpg/sg71_19_cif.got.tgz:36898.got - 2010.06.03 16:22:01.
