data_PCOD9524870
_publ_section_title
;
Structure prediction by ZEFSAII (Michael W. Deem and Ramdas Pophale) SiO2 
 PCOD9524870
Probable space group: I M M M
;
_chemical_formula_sum "Si O2"
_cell_formula_units_Z 48
_cell_length_a 21.000000
_cell_length_b 27.000000
_cell_length_c 9.000000
_cell_angle_alpha 90.000000
_cell_angle_beta 90.000000
_cell_angle_gamma 90.000000
_cell_volume 5103.000000
_symmetry_space_group_name_H-M "I M M M"
_symmetry_group_IT_number 71
_symmetry_cell_setting 'orthorhombic'
loop_
_space_group_symop_operation_xyz
x,y,z
-x,-y,z
x,-y,-z
-x,y,-z
-x,-y,-z
x,y,-z
-x,y,z
x,-y,z
1/2+x,1/2+y,1/2+z
1/2-x,1/2-y,1/2+z
1/2+x,1/2-y,1/2-z
1/2-x,1/2+y,1/2-z
1/2-x,1/2-y,1/2-z
1/2+x,1/2+y,1/2-z
1/2-x,1/2+y,1/2+z
1/2+x,1/2-y,1/2+z
loop_
_atom_site_type_symbol
_atom_site_label
_atom_site_fract_x
_atom_site_fract_y
_atom_site_fract_z
Si Si1 0.799857 0.422854 0.167454
Si Si2 0.427623 0.632845 0.820185
Si Si3 0.069562 0.559219 0.668317
Si Si4 0.648610 0.726250 0.177814
Si Si5 0.669073 0.444005 0.674847
Si Si6 0.789167 0.305782 0.832052
O O1 0.869340 0.431994 0.232281
O O2 0.741213 0.441709 0.265354
O O3 0.793566 0.363998 0.163571
O O4 0.793758 0.442108 0.000000
O O5 0.500000 0.622535 0.773230
O O6 0.405204 0.687979 0.773653
O O7 0.376442 0.594377 0.758044
O O8 0.425204 0.630969 0.000000
O O9 0.079630 0.578292 0.500000
O O10 0.065184 0.500000 0.658159
O O11 0.000000 0.577330 0.721991
O O12 0.717940 0.705236 0.226479
O O13 0.653681 0.781110 0.241416
O O14 0.646952 0.727735 0.000000
O O15 0.669156 0.433075 0.500000
O O16 0.645267 0.500000 0.697728
O O17 0.792194 0.285883 0.000000
#
# Coordination Sequence:
#
# PCOD9524870 Si02
#       6
#    16  16  16  16  16  16
#     4  11  21  35  56  84 115 146 183 231 280 328
#     4  10  21  39  61  83 111 147 187 234 287 340
#     4   9  19  36  55  76 107 146 185 225 272 328
#     4   9  17  33  54  79 107 137 176 219 265 323
#     4  11  24  39  56  81 113 148 190 238 284 334
#     4   9  18  32  52  79 109 138 173 219 269 320
#
# _framework density 9.4062319999999993
#
# number of rings (size 3 to 8) (size 9 to 14) (size 15 to 20)
#    0.000    2.167    1.667    2.000    0.000    6.667 
#    0.000    3.333    0.000    3.000    0.000    0.000 
#    0.000    0.000    0.000    0.000    0.000    0.000 
#
# Total GULP energy -267330.701455 kJ/mol
# GULP energy per Si atom -5569.389614 kJ/mol
# Density = 0.938482 g / cm^3
# Si number density = 9.406232 Si / 1000 Ang^3
#
#
#
# Elastic Constant Matrix: (Units=GPa)
#
#
# Indices 1 2 3 4 5 6 
#
# 1 85.9871 16.0259 22.5427 0.0000 0.0000 0.0000
# 2 16.0259 54.0609 22.6766 0.0000 0.0000 0.0000
# 3 22.5427 22.6766 22.6204 0.0000 0.0000 0.0000
# 4 0.0000 0.0000 0.0000 28.2221 0.0000 0.0000
# 5 0.0000 0.0000 0.0000 0.0000 23.8313 0.0000
# 6 0.0000 0.0000 0.0000 0.0000 0.0000 51.2285
#
#
#
# Elastic Compliance Matrix: (Units=1/GPa)
#
#
# Indices 1 2 3 4 5 6 
#
# 1 0.016092 0.003376 -0.019421 0.000000 0.000000 0.000000
# 2 0.003376 0.032629 -0.036075 0.000000 0.000000 0.000000
# 3 -0.019421 -0.036075 0.099727 0.000000 0.000000 0.000000
# 4 0.000000 0.000000 0.000000 0.035433 0.000000 0.000000
# 5 0.000000 0.000000 0.000000 0.000000 0.041962 0.000000
# 6 0.000000 0.000000 0.000000 0.000000 0.000000 0.019520
#
#
# Mechanical properties :
#
#
# Convention : Reuss Voigt Hill
#
# Bulk Modulus (GPa) = 22.62019 31.68430 27.15224
# Shear Modulus (GPa) = 13.72347 27.41791 20.57069
#
# Velocity S-wave (km/s) = 2.70383 3.82178 3.31034
# Velocity P-wave (km/s) = 4.66881 6.02938 5.39218
#
# Compressibility (1/GPa) = 0.04420830
#
# Stress axis : x y z
#
# Youngs Moduli (GPa) = 62.14275 30.64768 10.02736
#
# Poissons Ratio (x) = -0.10348 0.19475
# Poissons Ratio (y) = -0.20981 0.36173
# Poissons Ratio (z) = 1.20690 1.10561
#
# Static dielectric constant tensor:
#      x y z
#    x 1.650040 0.000000 0.000000 
#    y 0.000000 1.702710 0.000000 
#    z 0.000000 0.000000 1.680110 
# 
# From -- ./inp_files/10881.got.cif
#   From: 2010.05.17/outbox.ucp.g08.bks.cvg/sg71_6_cif.got.tgz:10881.got - 2010.06.11 16:29:00.
