data_PCOD9524703
_publ_section_title
;
Structure prediction by ZEFSAII (Michael W. Deem and Ramdas Pophale) SiO2 
 PCOD9524703
Probable space group: I M M M
;
_chemical_formula_sum "Si O2"
_cell_formula_units_Z 34
_cell_length_a 9.000000
_cell_length_b 18.000000
_cell_length_c 21.000000
_cell_angle_alpha 90.000000
_cell_angle_beta 90.000000
_cell_angle_gamma 90.000000
_cell_volume 3402.000000
_symmetry_space_group_name_H-M "I M M M"
_symmetry_group_IT_number 71
_symmetry_cell_setting 'orthorhombic'
loop_
_space_group_symop_operation_xyz
x,y,z
-x,-y,z
x,-y,-z
-x,y,-z
-x,-y,-z
x,y,-z
-x,y,z
x,-y,z
1/2+x,1/2+y,1/2+z
1/2-x,1/2-y,1/2+z
1/2+x,1/2-y,1/2-z
1/2-x,1/2+y,1/2-z
1/2-x,1/2-y,1/2-z
1/2+x,1/2+y,1/2-z
1/2-x,1/2+y,1/2+z
1/2+x,1/2-y,1/2+z
loop_
_atom_site_type_symbol
_atom_site_label
_atom_site_fract_x
_atom_site_fract_y
_atom_site_fract_z
Si Si1 0.323272 0.861770 0.705185
Si Si2 0.728068 0.500000 0.000000
Si Si3 0.677678 0.758121 0.876933
Si Si4 0.178977 0.416231 0.348993
Si Si5 0.320948 0.342656 0.000000
Si Si6 0.664349 0.500000 0.856579
O O1 0.500000 0.858597 0.697702
O O2 0.253886 0.784578 0.681610
O O3 0.291949 0.889244 0.776833
O O4 0.252664 0.927023 0.663109
O O5 0.785651 0.585159 0.000000
O O6 0.650625 0.500000 0.067967
O O7 0.500000 0.759760 0.864687
O O8 0.728081 0.843254 0.887875
O O9 0.703664 0.707503 0.938314
O O10 0.237728 0.500000 0.360358
O O11 0.000000 0.421542 0.356385
O O12 0.500000 0.363403 0.000000
O O13 0.500000 0.500000 0.827363
#
# Coordination Sequence:
#
# PCOD9524703 Si02
#       6
#    16   4  16  16   8   8
#     4  11  21  35  54  79 113 141 171 219 269 314
#     4  12  21  34  55  78 111 144 173 218 263 302
#     4  10  20  35  56  78 104 142 183 218 261 318
#     4   9  18  34  55  78 107 140 172 219 276 316
#     4  10  19  32  51  79 107 136 179 224 260 306
#     4  12  22  35  56  81 108 144 185 215 252 315
#
# _framework density 9.9941209999999998
#
# number of rings (size 3 to 8) (size 9 to 14) (size 15 to 20)
#    0.000    1.647    3.529    2.824    0.000    0.000 
#    0.000    4.706    0.000    3.529    0.000    0.000 
#    0.000    1.882    0.000    0.000    0.000    0.000 
#
# Total GULP energy -189394.194536 kJ/mol
# GULP energy per Si atom -5570.417486 kJ/mol
# Density = 0.997137 g / cm^3
# Si number density = 9.994121 Si / 1000 Ang^3
#
#
#
# Elastic Constant Matrix: (Units=GPa)
#
#
# Indices 1 2 3 4 5 6 
#
# 1 23.2717 22.0381 19.1119 0.0000 0.0000 0.0000
# 2 22.0381 217.4344 39.6772 0.0000 0.0000 0.0000
# 3 19.1119 39.6772 52.7285 0.0000 0.0000 0.0000
# 4 0.0000 0.0000 0.0000 24.2842 0.0000 0.0000
# 5 0.0000 0.0000 0.0000 0.0000 4.5342 0.0000
# 6 0.0000 0.0000 0.0000 0.0000 0.0000 18.3001
#
#
#
# Elastic Compliance Matrix: (Units=1/GPa)
#
#
# Indices 1 2 3 4 5 6 
#
# 1 0.062376 -0.002546 -0.020693 0.000000 0.000000 0.000000
# 2 -0.002546 0.005435 -0.003167 0.000000 0.000000 0.000000
# 3 -0.020693 -0.003167 0.028848 0.000000 0.000000 0.000000
# 4 0.000000 0.000000 0.000000 0.041179 0.000000 0.000000
# 5 0.000000 0.000000 0.000000 0.000000 0.220545 0.000000
# 6 0.000000 0.000000 0.000000 0.000000 0.000000 0.054645
#
#
# Mechanical properties :
#
#
# Convention : Reuss Voigt Hill
#
# Bulk Modulus (GPa) = 22.80624 50.56546 36.68585
# Shear Modulus (GPa) = 10.40680 23.59751 17.00216
#
# Velocity S-wave (km/s) = 2.28424 3.43967 2.91968
# Velocity P-wave (km/s) = 4.28854 6.41308 5.45524
#
# Compressibility (1/GPa) = 0.04384765
#
# Stress axis : x y z
#
# Youngs Moduli (GPa) = 16.03187 183.99108 34.66396
#
# Poissons Ratio (x) = 0.46846 0.71729
# Poissons Ratio (y) = 0.04082 0.10978
# Poissons Ratio (z) = 0.33174 0.58268
#
# Static dielectric constant tensor:
#      x y z
#    x 1.674520 0.000000 0.000000 
#    y 0.000000 1.750090 0.000000 
#    z 0.000000 0.000000 1.736270 
# 
# From -- ./inp_files/8058.got.cif
#   From: 2010.05.17/outbox.ucp.g08.bks.cvg/sg71_5_cif.got.tgz:8058.got - 2010.06.11 16:29:00.
