data_PCOD9524241
_publ_section_title
;
Structure prediction by ZEFSAII (Michael W. Deem and Ramdas Pophale) SiO2 
 PCOD9524241
Probable space group: I M M M
;
_chemical_formula_sum "Si O2"
_cell_formula_units_Z 96
_cell_length_a 21.140373
_cell_length_b 7.504598
_cell_length_c 28.806534
_cell_angle_alpha 90.000000
_cell_angle_beta 90.000000
_cell_angle_gamma 90.000000
_cell_volume 4570.156646
_symmetry_space_group_name_H-M "I M M M"
_symmetry_group_IT_number 71
_symmetry_cell_setting 'orthorhombic'
loop_
_space_group_symop_operation_xyz
x,y,z
-x,-y,z
x,-y,-z
-x,y,-z
-x,-y,-z
x,y,-z
-x,y,z
x,-y,z
1/2+x,1/2+y,1/2+z
1/2-x,1/2-y,1/2+z
1/2+x,1/2-y,1/2-z
1/2-x,1/2+y,1/2-z
1/2-x,1/2-y,1/2-z
1/2+x,1/2+y,1/2-z
1/2-x,1/2+y,1/2+z
1/2+x,1/2-y,1/2+z
loop_
_atom_site_type_symbol
_atom_site_label
_atom_site_fract_x
_atom_site_fract_y
_atom_site_fract_z
Si Si1 0.183688 0.282150 0.446698
Si Si2 0.807407 0.781204 0.889718
Si Si3 0.193830 0.792343 0.785483
Si Si4 0.428976 0.282915 0.553505
Si Si5 0.570996 0.214008 0.226297
Si Si6 0.427993 0.782653 0.120689
O O1 0.181020 0.223943 0.500000
O O2 0.182991 0.500000 0.447005
O O3 0.248058 0.227459 0.421160
O O4 0.123892 0.223182 0.416084
O O5 0.800782 0.713556 0.837042
O O6 0.873246 0.723645 0.912855
O O7 0.807683 0.000000 0.890031
O O8 0.250000 0.750000 0.750000
O O9 0.126353 0.758733 0.761651
O O10 0.199124 0.000000 0.793310
O O11 0.417189 0.230065 0.500000
O O12 0.500000 0.225892 0.566592
O O13 0.428945 0.500000 0.553943
O O14 0.500000 0.277606 0.238428
O O15 0.586249 0.274366 0.173659
O O16 0.568275 0.000000 0.224422
O O17 0.500000 0.729203 0.109732
O O18 0.426892 0.000000 0.120713
#
# Coordination Sequence:
#
# PCOD9524241 Si02
#       6
#    16  16  16  16  16  16
#     4   9  15  22  35  56  84 118 152 185 224 277
#     4   9  17  27  39  58  86 120 154 189 233 281
#     4  11  22  34  50  71  98 132 168 207 246 286
#     4   8  13  22  37  57  84 118 149 177 220 283
#     4   9  18  34  54  73  98 132 164 197 242 294
#     4   8  14  25  41  61  87 120 152 182 226 283
#
# _framework density 21.005845000000001
#
# number of rings (size 3 to 8) (size 9 to 14) (size 15 to 20)
#    0.000    3.000    0.000    3.500    0.000    6.000 
#    0.000    3.333    0.000    0.000    0.000    0.000 
#    0.000   31.333    0.000   29.333    0.000   26.667 
#
# Total GULP energy -267906.471379 kJ/mol
# GULP energy per Si atom -5581.384820 kJ/mol
# Density = 2.095803 g / cm^3
# Si number density = 21.005845 Si / 1000 Ang^3
#
#
#
# Elastic Constant Matrix: (Units=GPa)
#
#
# Indices 1 2 3 4 5 6 
#
# 1 71.8588 -6.8504 31.2366 0.0000 0.0000 0.0000
# 2 -6.8504 51.9738 -3.7944 0.0000 0.0000 0.0000
# 3 31.2366 -3.7944 77.4949 0.0000 0.0000 0.0000
# 4 0.0000 0.0000 0.0000 8.5573 0.0000 0.0000
# 5 0.0000 0.0000 0.0000 0.0000 32.3629 0.0000
# 6 0.0000 0.0000 0.0000 0.0000 0.0000 5.5158
#
#
#
# Elastic Compliance Matrix: (Units=1/GPa)
#
#
# Indices 1 2 3 4 5 6 
#
# 1 0.017030 0.001750 -0.006779 0.000000 0.000000 0.000000
# 2 0.001750 0.019489 0.000249 0.000000 0.000000 0.000000
# 3 -0.006779 0.000249 0.015649 0.000000 0.000000 0.000000
# 4 0.000000 0.000000 0.000000 0.116859 0.000000 0.000000
# 5 0.000000 0.000000 0.000000 0.000000 0.030900 0.000000
# 6 0.000000 0.000000 0.000000 0.000000 0.000000 0.181298
#
#
# Mechanical properties :
#
#
# Convention : Reuss Voigt Hill
#
# Bulk Modulus (GPa) = 23.46998 26.94568 25.20783
# Shear Modulus (GPa) = 12.34610 21.33624 16.84117
#
# Velocity S-wave (km/s) = 2.42698 3.19051 2.83457
# Velocity P-wave (km/s) = 4.36474 5.14082 4.76859
#
# Compressibility (1/GPa) = 0.04260763
#
# Stress axis : x y z
#
# Youngs Moduli (GPa) = 58.72120 51.31028 63.90346
#
# Poissons Ratio (x) = -0.08978 0.43318
# Poissons Ratio (y) = -0.10275 -0.01591
# Poissons Ratio (z) = 0.39805 -0.01277
#
# Static dielectric constant tensor:
#      x y z
#    x 1.702810 0.000000 0.000000 
#    y 0.000000 1.874210 0.000000 
#    z 0.000000 0.000000 1.734550 
# 
# From -- ./inp_files/10919.got.cif
#   From: 2010.05.17/outbox.cif.g08.bks.cpg/sg71_6_cif.got.tgz:10919.got - 2010.06.03 16:22:01.
