data_PCOD9524833
_publ_section_title
;
Structure prediction by ZEFSAII (Michael W. Deem and Ramdas Pophale) SiO2 
 PCOD9524833
Probable space group: I M M M
;
_chemical_formula_sum "Si O2"
_cell_formula_units_Z 58
_cell_length_a 18.000000
_cell_length_b 18.000000
_cell_length_c 18.000000
_cell_angle_alpha 90.000000
_cell_angle_beta 90.000000
_cell_angle_gamma 90.000000
_cell_volume 5832.000000
_symmetry_space_group_name_H-M "I M M M"
_symmetry_group_IT_number 71
_symmetry_cell_setting 'orthorhombic'
loop_
_space_group_symop_operation_xyz
x,y,z
-x,-y,z
x,-y,-z
-x,y,-z
-x,-y,-z
x,y,-z
-x,y,z
x,-y,z
1/2+x,1/2+y,1/2+z
1/2-x,1/2-y,1/2+z
1/2+x,1/2-y,1/2-z
1/2-x,1/2+y,1/2-z
1/2-x,1/2-y,1/2-z
1/2+x,1/2+y,1/2-z
1/2-x,1/2+y,1/2+z
1/2+x,1/2-y,1/2+z
loop_
_atom_site_type_symbol
_atom_site_label
_atom_site_fract_x
_atom_site_fract_y
_atom_site_fract_z
Si Si1 0.087650 0.415423 0.700213
Si Si2 0.412264 0.585514 0.814065
Si Si3 0.312335 0.177319 0.089293
Si Si4 0.414713 0.692366 0.319681
Si Si5 0.877186 0.644457 0.136523
Si Si6 0.787607 0.852583 0.412228
Si Si7 0.000000 0.368018 0.000000
Si Si8 0.664218 0.416277 0.411813
O O1 0.114483 0.500000 0.686672
O O2 0.127439 0.358416 0.644317
O O3 0.099116 0.395357 0.786990
O O4 0.000000 0.412927 0.685728
O O5 0.500000 0.596508 0.831589
O O6 0.405116 0.500000 0.788005
O O7 0.389907 0.646907 0.752682
O O8 0.355829 0.600568 0.880305
O O9 0.301429 0.264779 0.103790
O O10 0.236943 0.131961 0.106745
O O11 0.328007 0.167998 0.000000
O O12 0.500000 0.713604 0.308768
O O13 0.375376 0.767594 0.343792
O O14 0.404955 0.630830 0.383139
O O15 0.792672 0.622934 0.118004
O O16 0.934126 0.632858 0.067129
O O17 0.784642 0.859678 0.500000
O O18 0.661270 0.420536 0.500000
O O19 0.667585 0.500000 0.381931
#
# Coordination Sequence:
#
# PCOD9524833 Si02
#       8
#    16  16  16  16  16  16   4  16
#     4  11  25  44  64  92 128 170 223 272 329 401
#     4  10  24  45  65  93 134 174 213 269 338 393
#     4  10  22  41  66  94 129 168 209 271 331 393
#     4  11  22  37  64  91 125 169 215 261 318 394
#     4  12  24  42  67 100 131 174 222 277 333 390
#     4  11  24  41  67  98 127 164 226 274 323 398
#     4  12  24  44  73  96 141 180 212 278 344 376
#     4  10  21  35  54  86 126 166 208 256 316 382
#
# _framework density 9.9451300000000007
#
# number of rings (size 3 to 8) (size 9 to 14) (size 15 to 20)
#    0.000    1.241    3.448    1.655    2.897    6.069 
#    0.000    4.138    0.000    0.000    0.000    0.000 
#    0.000    0.000    0.000    0.000    0.000    0.000 
#
# Total GULP energy -323250.928563 kJ/mol
# GULP energy per Si atom -5573.291872 kJ/mol
# Density = 0.992249 g / cm^3
# Si number density = 9.945130 Si / 1000 Ang^3
#
#
#
# Elastic Constant Matrix: (Units=GPa)
#
#
# Indices 1 2 3 4 5 6 
#
# 1 52.2109 10.3590 35.8631 0.0000 0.0000 0.0000
# 2 10.3590 11.2727 4.2577 0.0000 0.0000 0.0000
# 3 35.8631 4.2577 53.2985 0.0000 0.0000 0.0000
# 4 0.0000 0.0000 0.0000 22.6587 0.0000 0.0000
# 5 0.0000 0.0000 0.0000 0.0000 41.7331 0.0000
# 6 0.0000 0.0000 0.0000 0.0000 0.0000 1.6922
#
#
#
# Elastic Compliance Matrix: (Units=1/GPa)
#
#
# Indices 1 2 3 4 5 6 
#
# 1 0.043587 -0.029878 -0.026942 0.000000 0.000000 0.000000
# 2 -0.029878 0.111951 0.011161 0.000000 0.000000 0.000000
# 3 -0.026942 0.011161 0.035999 0.000000 0.000000 0.000000
# 4 0.000000 0.000000 0.000000 0.044133 0.000000 0.000000
# 5 0.000000 0.000000 0.000000 0.000000 0.023962 0.000000
# 6 0.000000 0.000000 0.000000 0.000000 0.000000 0.590939
#
#
# Mechanical properties :
#
#
# Convention : Reuss Voigt Hill
#
# Bulk Modulus (GPa) = 9.97811 24.19351 17.08581
# Shear Modulus (GPa) = 5.12665 17.63695 11.38180
#
# Velocity S-wave (km/s) = 1.60719 2.98100 2.39473
# Velocity P-wave (km/s) = 2.91059 4.90290 4.03175
#
# Compressibility (1/GPa) = 0.10021940
#
# Stress axis : x y z
#
# Youngs Moduli (GPa) = 22.94243 8.93249 27.77839
#
# Poissons Ratio (x) = 0.26689 0.74840
# Poissons Ratio (y) = 0.68548 -0.31005
# Poissons Ratio (z) = 0.61811 -0.09970
#
# Static dielectric constant tensor:
#      x y z
#    x 1.695520 0.000000 0.000000 
#    y 0.000000 1.720250 0.000000 
#    z 0.000000 0.000000 1.709920 
# 
# From -- ./inp_files/46207.got.cif
#   From: 2010.05.17/outbox.ucp.g08.bks.cvg/sg71_24_cif.got.tgz:46207.got - 2010.06.11 16:29:00.
