data_PCOD9524017
_publ_section_title
;
Structure prediction by ZEFSAII (Michael W. Deem and Ramdas Pophale) SiO2 
 PCOD9524017
Probable space group: I M M M
;
_chemical_formula_sum "Si O2"
_cell_formula_units_Z 76
_cell_length_a 34.503328
_cell_length_b 15.702238
_cell_length_c 7.427791
_cell_angle_alpha 90.000000
_cell_angle_beta 90.000000
_cell_angle_gamma 90.000000
_cell_volume 4024.224657
_symmetry_space_group_name_H-M "I M M M"
_symmetry_group_IT_number 71
_symmetry_cell_setting 'orthorhombic'
loop_
_space_group_symop_operation_xyz
x,y,z
-x,-y,z
x,-y,-z
-x,y,-z
-x,-y,-z
x,y,-z
-x,y,z
x,-y,z
1/2+x,1/2+y,1/2+z
1/2-x,1/2-y,1/2+z
1/2+x,1/2-y,1/2-z
1/2-x,1/2+y,1/2-z
1/2-x,1/2-y,1/2-z
1/2+x,1/2+y,1/2-z
1/2-x,1/2+y,1/2+z
1/2+x,1/2-y,1/2+z
loop_
_atom_site_type_symbol
_atom_site_label
_atom_site_fract_x
_atom_site_fract_y
_atom_site_fract_z
Si Si1 0.545573 0.000000 0.717522
Si Si2 0.787600 0.403629 0.716037
Si Si3 0.500000 0.227640 0.500000
Si Si4 0.301664 0.404119 0.214471
Si Si5 0.433392 0.189768 0.208328
Si Si6 0.653183 0.240402 0.219781
O O1 0.564979 0.086632 0.782540
O O2 0.500000 0.000000 0.770747
O O3 0.545878 0.000000 0.500000
O O4 0.791148 0.406483 0.500000
O O5 0.793960 0.500000 0.783973
O O6 0.743204 0.379495 0.756304
O O7 0.818327 0.334880 0.782326
O O8 0.466256 0.221750 0.342598
O O9 0.307155 0.500000 0.287114
O O10 0.329950 0.330737 0.282948
O O11 0.307437 0.408709 0.000000
O O12 0.391097 0.221929 0.266394
O O13 0.440186 0.214741 0.000000
O O14 0.654669 0.240389 0.000000
#
# Coordination Sequence:
#
# PCOD9524017 Si02
#       6
#     8  16   4  16  16  16
#     4  11  19  35  53  77 108 138 184 222 258 326
#     4   9  17  30  47  71 104 141 179 217 260 319
#     4  12  22  41  54  82 111 138 188 234 267 344
#     4   9  17  32  52  74 103 138 178 223 271 321
#     4  11  22  36  56  77 107 147 182 223 276 323
#     4   9  19  33  50  76 104 138 182 223 266 324
#
# _framework density 18.885625000000001
#
# number of rings (size 3 to 8) (size 9 to 14) (size 15 to 20)
#    0.000    2.211    2.105    1.263    1.474    0.421 
#    3.789    0.000    0.000    0.000    0.000    1.474 
#    0.000    5.053    0.000    0.000    0.000    0.000 
#
# Total GULP energy -211622.727911 kJ/mol
# GULP energy per Si atom -5569.019156 kJ/mol
# Density = 1.884264 g / cm^3
# Si number density = 18.885625 Si / 1000 Ang^3
#
#
#
# Elastic Constant Matrix: (Units=GPa)
#
#
# Indices 1 2 3 4 5 6 
#
# 1 196.4040 110.2532 38.7185 0.0000 0.0000 0.0000
# 2 110.2532 90.4998 22.4148 0.0000 0.0000 0.0000
# 3 38.7185 22.4148 91.3748 0.0000 0.0000 0.0000
# 4 0.0000 0.0000 0.0000 -5.5426 0.0000 0.0000
# 5 0.0000 0.0000 0.0000 0.0000 25.8461 0.0000
# 6 0.0000 0.0000 0.0000 0.0000 0.0000 -17.0713
#
#
#
# Elastic Compliance Matrix: (Units=1/GPa)
#
#
# Indices 1 2 3 4 5 6 
#
# 1 0.016510 -0.019570 -0.002195 0.000000 0.000000 0.000000
# 2 -0.019570 0.034962 -0.000284 0.000000 0.000000 0.000000
# 3 -0.002195 -0.000284 0.011944 0.000000 0.000000 0.000000
# 4 0.000000 0.000000 0.000000 -0.180421 0.000000 0.000000
# 5 0.000000 0.000000 0.000000 0.000000 0.038691 0.000000
# 6 0.000000 0.000000 0.000000 0.000000 0.000000 -0.058578
#
#
# Mechanical properties :
#
#
# Convention : Reuss Voigt Hill
#
# Bulk Modulus (GPa) = 51.76712 80.11684 65.94198
# Shear Modulus (GPa) = -57.90026 14.43924 -21.73051
#
# Velocity S-wave (km/s) = -5.54301 2.76807 -3.39579
# Velocity P-wave (km/s) = 3.67372 7.26158 4.42913
#
# Compressibility (1/GPa) = 0.01931728
#
# Stress axis : x y z
#
# Youngs Moduli (GPa) = 60.56876 28.60271 83.72577
#
# Poissons Ratio (x) = 0.55976 0.18380
# Poissons Ratio (y) = 1.18534 0.02377
# Poissons Ratio (z) = 0.13296 0.00812
#
# Static dielectric constant tensor:
#      x y z
#    x 1.615360 0.000000 0.000000 
#    y 0.000000 1.662300 0.000000 
#    z 0.000000 0.000000 1.718040 
# 
# From -- ./inp_files/14626.got.cif
#   From: 2010.05.17/outbox.cif.g08.bks.cpg/sg71_8_cif.got.tgz:14626.got - 2010.06.03 16:22:01.
