data_PCOD9524801
_publ_section_title
;
Structure prediction by ZEFSAII (Michael W. Deem and Ramdas Pophale) SiO2 
 PCOD9524801
Probable space group: I M M M
;
_chemical_formula_sum "Si O2"
_cell_formula_units_Z 40
_cell_length_a 12.000000
_cell_length_b 24.000000
_cell_length_c 15.000000
_cell_angle_alpha 90.000000
_cell_angle_beta 90.000000
_cell_angle_gamma 90.000000
_cell_volume 4320.000000
_symmetry_space_group_name_H-M "I M M M"
_symmetry_group_IT_number 71
_symmetry_cell_setting 'orthorhombic'
loop_
_space_group_symop_operation_xyz
x,y,z
-x,-y,z
x,-y,-z
-x,y,-z
-x,-y,-z
x,y,-z
-x,y,z
x,-y,z
1/2+x,1/2+y,1/2+z
1/2-x,1/2-y,1/2+z
1/2+x,1/2-y,1/2-z
1/2-x,1/2+y,1/2-z
1/2-x,1/2-y,1/2-z
1/2+x,1/2+y,1/2-z
1/2-x,1/2+y,1/2+z
1/2+x,1/2-y,1/2+z
loop_
_atom_site_type_symbol
_atom_site_label
_atom_site_fract_x
_atom_site_fract_y
_atom_site_fract_z
Si Si1 0.214564 0.362184 0.901100
Si Si2 0.256304 0.934886 0.897476
Si Si3 0.631862 0.358038 0.267061
Si Si4 0.865938 0.235296 0.901564
Si Si5 0.000000 0.564155 0.859246
Si Si6 0.000000 0.564360 0.645123
O O1 0.303737 0.369023 0.823811
O O2 0.169638 0.299071 0.893726
O O3 0.110028 0.403379 0.889796
O O4 0.262026 0.369744 0.000000
O O5 0.167461 0.905936 0.835214
O O6 0.381928 0.910848 0.885244
O O7 0.263592 0.000000 0.873363
O O8 0.224402 0.930006 0.000000
O O9 0.500000 0.355218 0.253453
O O10 0.671580 0.302244 0.319011
O O11 0.000000 0.232858 0.901704
O O12 0.827939 0.214667 0.000000
O O13 0.000000 0.564563 0.751781
O O14 0.000000 0.500000 0.888711
O O15 0.000000 0.500000 0.611915
#
# Coordination Sequence:
#
# PCOD9524801 Si02
#       6
#    16  16  16  16   8   8
#     4  11  22  38  60  83 111 148 189 239 293 338
#     4  10  20  35  57  84 114 148 186 232 286 342
#     4  11  23  37  55  81 114 156 197 230 271 329
#     4   9  18  35  59  85 111 142 185 235 287 340
#     4  11  21  37  63  92 115 141 185 243 303 352
#     4   9  17  33  57  84 115 145 178 230 295 346
#
# _framework density 9.2592590000000001
#
# number of rings (size 3 to 8) (size 9 to 14) (size 15 to 20)
#    0.000    1.800    3.000    1.800    0.000    4.000 
#    0.000    1.000    0.000    0.000    0.000    2.800 
#    0.000    0.000    0.000    0.000    0.000    0.000 
#
# Total GULP energy -223106.644442 kJ/mol
# GULP energy per Si atom -5577.666111 kJ/mol
# Density = 0.923818 g / cm^3
# Si number density = 9.259259 Si / 1000 Ang^3
#
#
#
# Elastic Constant Matrix: (Units=GPa)
#
#
# Indices 1 2 3 4 5 6 
#
# 1 58.4863 30.9020 32.0698 0.0000 0.0000 0.0000
# 2 30.9020 72.8320 28.4858 0.0000 0.0000 0.0000
# 3 32.0698 28.4858 47.4025 0.0000 0.0000 0.0000
# 4 0.0000 0.0000 0.0000 8.8170 0.0001 0.0000
# 5 0.0000 0.0000 0.0000 0.0001 246.1436 0.0000
# 6 0.0000 0.0000 0.0000 0.0000 0.0000 17.6330
#
#
#
# Elastic Compliance Matrix: (Units=1/GPa)
#
#
# Indices 1 2 3 4 5 6 
#
# 1 0.029102 -0.006075 -0.016038 0.000000 0.000000 0.000000
# 2 -0.006075 0.019217 -0.007438 0.000000 0.000000 0.000000
# 3 -0.016038 -0.007438 0.036416 0.000000 0.000000 0.000000
# 4 0.000000 0.000000 0.000000 0.113417 0.000000 0.000000
# 5 0.000000 0.000000 0.000000 0.000000 0.004063 0.000000
# 6 0.000000 0.000000 0.000000 0.000000 0.000000 0.056712
#
#
# Mechanical properties :
#
#
# Convention : Reuss Voigt Hill
#
# Bulk Modulus (GPa) = 39.01257 40.18177 39.59717
# Shear Modulus (GPa) = 15.31051 60.33628 37.82340
#
# Velocity S-wave (km/s) = 2.87848 5.71422 4.52426
# Velocity P-wave (km/s) = 5.67098 8.07971 6.98003
#
# Compressibility (1/GPa) = 0.02563277
#
# Stress axis : x y z
#
# Youngs Moduli (GPa) = 34.36198 52.03735 27.46028
#
# Poissons Ratio (x) = 0.31612 0.44041
# Poissons Ratio (y) = 0.20875 0.20425
# Poissons Ratio (z) = 0.55110 0.38706
#
# Static dielectric constant tensor:
#      x y z
#    x 1.623030 0.000000 0.000000 
#    y 0.000000 1.650460 0.000000 
#    z 0.000000 0.000000 1.652530 
# 
# From -- ./inp_files/27126.got.cif
#   From: 2010.05.17/outbox.ucp.g08.bks.cvg/sg71_14_cif.got.tgz:27126.got - 2010.06.11 16:29:00.
