data_PCOD9524418
_publ_section_title
;
Structure prediction by ZEFSAII (Michael W. Deem and Ramdas Pophale) SiO2 
 PCOD9524418
Probable space group: I M M M
;
_chemical_formula_sum "Si O2"
_cell_formula_units_Z 112
_cell_length_a 18.350144
_cell_length_b 14.710951
_cell_length_c 21.630561
_cell_angle_alpha 90.000000
_cell_angle_beta 90.000000
_cell_angle_gamma 90.000000
_cell_volume 5839.128178
_symmetry_space_group_name_H-M "I M M M"
_symmetry_group_IT_number 71
_symmetry_cell_setting 'orthorhombic'
loop_
_space_group_symop_operation_xyz
x,y,z
-x,-y,z
x,-y,-z
-x,y,-z
-x,-y,-z
x,y,-z
-x,y,z
x,-y,z
1/2+x,1/2+y,1/2+z
1/2-x,1/2-y,1/2+z
1/2+x,1/2-y,1/2-z
1/2-x,1/2+y,1/2-z
1/2-x,1/2-y,1/2-z
1/2+x,1/2+y,1/2-z
1/2-x,1/2+y,1/2+z
1/2+x,1/2-y,1/2+z
loop_
_atom_site_type_symbol
_atom_site_label
_atom_site_fract_x
_atom_site_fract_y
_atom_site_fract_z
Si Si1 0.311475 0.750000 0.068367
Si Si2 0.916791 0.750000 0.269791
Si Si3 0.915066 0.891936 0.071307
Si Si4 0.327823 0.250000 0.351298
Si Si5 0.415551 0.606447 0.121252
Si Si6 0.084935 0.608064 0.928693
Si Si7 0.584449 0.893553 0.121252
O O1 0.254770 0.750000 0.125110
O O2 0.362307 0.661576 0.076453
O O3 0.362307 0.838424 0.076453
O O4 0.277029 0.750000 0.000000
O O5 0.853269 0.750000 0.219364
O O6 0.911130 0.838138 0.314134
O O7 0.911130 0.661862 0.314134
O O8 0.000000 0.750000 0.243026
O O9 0.864928 0.837326 0.117215
O O10 0.000000 0.869790 0.082164
O O11 0.906785 0.000000 0.077934
O O12 0.898629 0.868400 0.000000
O O13 0.364929 0.162675 0.382785
O O14 0.500000 0.614093 0.100835
O O15 0.397838 0.500000 0.127242
O O16 0.093216 0.500000 0.922066
O O17 0.000000 0.630209 0.917837
O O18 0.101371 0.631600 0.000000
O O19 0.500000 0.885907 0.100836
O O20 0.602162 0.000000 0.127242
#
# Coordination Sequence:
#
# PCOD9524418 Si02
#       7
#    16  16  16  16  16  16  16
#     4  11  24  38  55  86 121 149 186 232 277 339
#     4   9  19  36  59  87 114 144 190 235 269 326
#     4   9  18  32  49  70 100 145 201 247 275 310
#     4  12  22  33  52  81 119 158 182 215 279 337
#     4   9  20  41  65  85 108 141 184 239 296 340
#     4   9  18  32  49  70 100 145 201 247 275 310
#     4   9  20  41  65  85 108 141 184 239 296 340
#
# _framework density 19.180945999999999
#
# number of rings (size 3 to 8) (size 9 to 14) (size 15 to 20)
#    0.000    2.286    0.000    4.714    0.000    7.429 
#    0.000    5.714    0.000    0.000    0.000    0.000 
#    0.000    0.000    0.000    0.000    0.000    0.000 
#
# Total GULP energy -312529.139267 kJ/mol
# GULP energy per Si atom -5580.877487 kJ/mol
# Density = 1.913729 g / cm^3
# Si number density = 19.180946 Si / 1000 Ang^3
#
#
#
# Elastic Constant Matrix: (Units=GPa)
#
#
# Indices 1 2 3 4 5 6 
#
# 1 63.2075 33.3698 30.7118 0.0000 0.0000 0.0000
# 2 33.3698 116.1417 16.2487 0.0000 0.0000 0.0000
# 3 30.7118 16.2487 50.3515 0.0000 0.0000 0.0000
# 4 0.0000 0.0000 0.0000 14.3242 0.0000 0.0000
# 5 0.0000 0.0000 0.0000 0.0000 37.3376 0.0000
# 6 0.0000 0.0000 0.0000 0.0000 0.0000 21.3964
#
#
#
# Elastic Compliance Matrix: (Units=1/GPa)
#
#
# Indices 1 2 3 4 5 6 
#
# 1 0.025308 -0.005354 -0.013709 0.000000 0.000000 0.000000
# 2 -0.005354 0.010150 -0.000010 0.000000 0.000000 0.000000
# 3 -0.013709 -0.000010 0.028225 0.000000 0.000000 0.000000
# 4 0.000000 0.000000 0.000000 0.069812 0.000000 0.000000
# 5 0.000000 0.000000 0.000000 0.000000 0.026783 0.000000
# 6 0.000000 0.000000 0.000000 0.000000 0.000000 0.046737
#
#
# Mechanical properties :
#
#
# Convention : Reuss Voigt Hill
#
# Bulk Modulus (GPa) = 39.15711 43.37348 41.26530
# Shear Modulus (GPa) = 19.71042 24.56970 22.14006
#
# Velocity S-wave (km/s) = 3.20910 3.58291 3.40115
# Velocity P-wave (km/s) = 5.84722 6.30700 6.08146
#
# Compressibility (1/GPa) = 0.02553815
#
# Stress axis : x y z
#
# Youngs Moduli (GPa) = 39.51253 98.52445 35.42903
#
# Poissons Ratio (x) = 0.52746 0.48570
# Poissons Ratio (y) = 0.21154 0.00035
# Poissons Ratio (z) = 0.54168 0.00098
#
# Static dielectric constant tensor:
#      x y z
#    x 1.691760 0.000000 0.000000 
#    y 0.000000 1.643140 0.000000 
#    z 0.000000 0.000000 1.667660 
# 
# From -- ./inp_files/59937.got.cif
#   From: 2010.05.17/outbox.cif.g08.bks.cpg/sg71_30_cif.got.tgz:59937.got - 2010.06.03 16:22:01.
