data_PCOD9524934
_publ_section_title
;
Structure prediction by ZEFSAII (Michael W. Deem and Ramdas Pophale) SiO2 
 PCOD9524934
Probable space group: I B A M
;
_chemical_formula_sum "Si O2"
_cell_formula_units_Z 96
_cell_length_a 22.195042
_cell_length_b 8.435215
_cell_length_c 26.920388
_cell_angle_alpha 90.000000
_cell_angle_beta 90.000000
_cell_angle_gamma 90.000000
_cell_volume 5040.033728
_symmetry_space_group_name_H-M "I B A M"
_symmetry_group_IT_number 72
_symmetry_cell_setting 'orthorhombic'
loop_
_space_group_symop_operation_xyz
x,y,z
-x,-y,z
x,-y,1/2-z
-x,y,1/2-z
-x,-y,-z
x,y,-z
-x,y,1/2+z
x,-y,1/2+z
1/2+x,1/2+y,1/2+z
1/2-x,1/2-y,1/2+z
1/2+x,1/2-y,-z
1/2-x,1/2+y,-z
1/2-x,1/2-y,1/2-z
1/2+x,1/2+y,1/2-z
1/2-x,1/2+y,z
1/2+x,1/2-y,z
loop_
_atom_site_type_symbol
_atom_site_label
_atom_site_fract_x
_atom_site_fract_y
_atom_site_fract_z
Si Si1 0.846514 0.725100 0.500000
Si Si2 0.718382 0.558312 0.332232
Si Si3 0.500000 0.000000 0.161537
Si Si4 0.399421 0.866116 0.396206
Si Si5 0.591225 0.000000 0.750000
Si Si6 0.685749 0.154447 0.105472
Si Si7 0.267568 0.097125 0.500000
Si Si8 0.828388 0.750127 0.300967
O O1 0.886012 0.705782 0.549803
O O2 0.804584 0.881186 0.500000
O O3 0.798199 0.577601 0.500000
O O4 0.681078 0.681591 0.365310
O O5 0.762394 0.450928 0.367111
O O6 0.763840 0.664263 0.300235
O O7 0.680020 0.436718 0.300344
O O8 0.533038 0.874546 0.125395
O O9 0.447934 0.957025 0.201439
O O10 0.358079 0.780693 0.355229
O O11 0.373655 0.046568 0.396623
O O12 0.630834 0.153550 0.737150
O O13 0.708704 0.179405 0.049876
#
# Coordination Sequence:
#
# PCOD9524934 Si02
#       8
#     8  16   8  16   8  16   8  16
#     4  10  18  27  44  74 102 127 156 186 226 286
#     4   9  16  27  43  67 103 127 147 187 239 294
#     4   9  18  35  52  64  84 117 160 215 246 270
#     4   9  18  30  47  68  93 127 167 198 233 273
#     4   9  18  32  52  68  82 114 162 201 246 292
#     4   9  16  26  42  68 100 136 161 185 228 284
#     4  10  16  24  40  66 104 132 156 182 214 276
#     4   9  17  29  46  71  96 125 154 186 238 297
#
# _framework density 19.047491000000001
#
# number of rings (size 3 to 8) (size 9 to 14) (size 15 to 20)
#    0.000    2.833    0.000    4.000    0.000    1.000 
#    0.000    0.000    0.000    4.000    0.000   18.667 
#    0.000   21.333    0.000    0.000    0.000    0.000 
#
# Total GULP energy -267546.404305 kJ/mol
# GULP energy per Si atom -5573.883423 kJ/mol
# Density = 1.900414 g / cm^3
# Si number density = 19.047491 Si / 1000 Ang^3
#
#
#
# Elastic Constant Matrix: (Units=GPa)
#
#
# Indices 1 2 3 4 5 6 
#
# 1 37.9177 1.4328 27.2551 0.0000 0.0000 0.0000
# 2 1.4328 63.6212 23.9411 0.0000 0.0000 0.0000
# 3 27.2551 23.9411 123.0349 0.0000 0.0000 0.0000
# 4 0.0000 0.0000 0.0000 20.6396 0.0000 0.0000
# 5 0.0000 0.0000 0.0000 0.0000 7.3122 0.0000
# 6 0.0000 0.0000 0.0000 0.0000 0.0000 2.0944
#
#
#
# Elastic Compliance Matrix: (Units=1/GPa)
#
#
# Indices 1 2 3 4 5 6 
#
# 1 0.031620 0.002076 -0.007408 0.000000 0.000000 0.000000
# 2 0.002076 0.017096 -0.003787 0.000000 0.000000 0.000000
# 3 -0.007408 -0.003787 0.010506 0.000000 0.000000 0.000000
# 4 0.000000 0.000000 0.000000 0.048451 0.000000 0.000000
# 5 0.000000 0.000000 0.000000 0.000000 0.136758 0.000000
# 6 0.000000 0.000000 0.000000 0.000000 0.000000 0.477458
#
#
# Mechanical properties :
#
#
# Convention : Reuss Voigt Hill
#
# Bulk Modulus (GPa) = 24.40029 36.64799 30.52414
# Shear Modulus (GPa) = 6.63317 17.47223 12.05270
#
# Velocity S-wave (km/s) = 1.86815 3.03198 2.51822
# Velocity P-wave (km/s) = 4.18227 5.61599 4.95130
#
# Compressibility (1/GPa) = 0.04098311
#
# Stress axis : x y z
#
# Youngs Moduli (GPa) = 31.62593 58.49262 95.18618
#
# Poissons Ratio (x) = -0.12142 0.70518
# Poissons Ratio (y) = -0.06565 0.36043
# Poissons Ratio (z) = 0.23430 0.22148
#
# Static dielectric constant tensor:
#      x y z
#    x 1.684860 0.000000 0.000000 
#    y 0.000000 1.678420 0.000000 
#    z 0.000000 0.000000 1.696210 
# 
# From -- ./inp_files/49667.got.cif
#   From: 2010.05.17/outbox.cif.g08.bks.cpg/sg72_25_cif.got.tgz:49667.got - 2010.06.03 17:03:01.
