data_PCOD9524334
_publ_section_title
;
Structure prediction by ZEFSAII (Michael W. Deem and Ramdas Pophale) SiO2 
 PCOD9524334
Probable space group: I M M M
;
_chemical_formula_sum "Si O2"
_cell_formula_units_Z 64
_cell_length_a 17.052083
_cell_length_b 8.515118
_cell_length_c 22.751071
_cell_angle_alpha 90.000000
_cell_angle_beta 90.000000
_cell_angle_gamma 90.000000
_cell_volume 3303.466859
_symmetry_space_group_name_H-M "I M M M"
_symmetry_group_IT_number 71
_symmetry_cell_setting 'orthorhombic'
loop_
_space_group_symop_operation_xyz
x,y,z
-x,-y,z
x,-y,-z
-x,y,-z
-x,-y,-z
x,y,-z
-x,y,z
x,-y,z
1/2+x,1/2+y,1/2+z
1/2-x,1/2-y,1/2+z
1/2+x,1/2-y,1/2-z
1/2-x,1/2+y,1/2-z
1/2-x,1/2-y,1/2-z
1/2+x,1/2+y,1/2-z
1/2-x,1/2+y,1/2+z
1/2+x,1/2-y,1/2+z
loop_
_atom_site_type_symbol
_atom_site_label
_atom_site_fract_x
_atom_site_fract_y
_atom_site_fract_z
Si Si1 0.090755 0.191285 0.767138
Si Si2 0.820700 0.811560 0.114743
Si Si3 0.350620 0.688610 0.860250
Si Si4 0.590630 0.811722 0.500000
Si Si5 0.000000 0.688495 0.431418
O O1 0.135616 0.243070 0.825655
O O2 0.133004 0.240880 0.707021
O O3 0.000000 0.242423 0.766965
O O4 0.090320 0.000000 0.767259
O O5 0.731346 0.754825 0.116999
O O6 0.865571 0.748778 0.057895
O O7 0.822384 0.000000 0.113634
O O8 0.348172 0.500000 0.861167
O O9 0.423202 0.745680 0.899308
O O10 0.500000 0.758520 0.500000
O O11 0.591858 0.000000 0.500000
O O12 0.000000 0.500000 0.427256
O O13 0.000000 0.732730 0.500000
#
# Coordination Sequence:
#
# PCOD9524334 Si02
#       5
#    16  16  16   8   8
#     4   9  18  36  62  92 124 161 204 253 307 367
#     4  11  23  39  64  93 126 163 207 256 309 369
#     4  11  22  40  65  92 127 164 206 254 310 370
#     4  11  25  45  65  90 125 162 209 259 309 367
#     4  11  25  43  63  89 125 164 211 260 308 366
#
# _framework density 19.373584999999999
#
# number of rings (size 3 to 8) (size 9 to 14) (size 15 to 20)
#    0.000    1.500    1.250    3.750    1.750    3.000 
#    0.000    3.750    0.000    0.000    0.000    0.000 
#    0.000    0.000    0.000    0.000    0.000    0.000 
#
# Total GULP energy -178944.276526 kJ/mol
# GULP energy per Si atom -5592.008641 kJ/mol
# Density = 1.932949 g / cm^3
# Si number density = 19.373585 Si / 1000 Ang^3
#
#
#
# Elastic Constant Matrix: (Units=GPa)
#
#
# Indices 1 2 3 4 5 6 
#
# 1 208.9712 41.4918 118.9626 0.0000 0.0000 0.0000
# 2 41.4918 49.0723 48.2822 0.0000 0.0000 0.0000
# 3 118.9626 48.2822 206.1497 0.0000 0.0000 0.0000
# 4 0.0000 0.0000 0.0000 5.9037 0.0000 0.0000
# 5 0.0000 0.0000 0.0000 0.0000 -3.7772 0.0000
# 6 0.0000 0.0000 0.0000 0.0000 0.0000 17.0873
#
#
#
# Elastic Compliance Matrix: (Units=1/GPa)
#
#
# Indices 1 2 3 4 5 6 
#
# 1 0.007385 -0.002665 -0.003638 0.000000 0.000000 0.000000
# 2 -0.002665 0.027442 -0.004889 0.000000 0.000000 0.000000
# 3 -0.003638 -0.004889 0.008095 0.000000 0.000000 0.000000
# 4 0.000000 0.000000 0.000000 0.169384 0.000000 0.000000
# 5 0.000000 0.000000 0.000000 0.000000 -0.264747 0.000000
# 6 0.000000 0.000000 0.000000 0.000000 0.000000 0.058523
#
#
# Mechanical properties :
#
#
# Convention : Reuss Voigt Hill
#
# Bulk Modulus (GPa) = 48.68944 97.96292 73.32618
# Shear Modulus (GPa) = 141.59090 20.87321 81.23206
#
# Velocity S-wave (km/s) = 8.55822 3.28595 6.48231
# Velocity P-wave (km/s) = 11.08350 8.06669 9.69318
#
# Compressibility (1/GPa) = 0.02053833
#
# Stress axis : x y z
#
# Youngs Moduli (GPa) = 135.40242 36.44031 123.53234
#
# Poissons Ratio (x) = 0.09713 0.44936
# Poissons Ratio (y) = 0.36091 0.60395
# Poissons Ratio (z) = 0.49254 0.17816
#
# Static dielectric constant tensor:
#      x y z
#    x 1.634860 0.000000 0.000000 
#    y 0.000000 1.655840 0.000000 
#    z 0.000000 0.000000 1.655380 
# 
# From -- ./inp_files/5511.got.cif
#   From: 2010.05.17/outbox.cif.g08.bks.cpg/sg71_3_cif.got.tgz:5511.got - 2010.06.03 16:22:01.
