data_PCOD9524303
_publ_section_title
;
Structure prediction by ZEFSAII (Michael W. Deem and Ramdas Pophale) SiO2 
 PCOD9524303
Probable space group: I M M M
;
_chemical_formula_sum "Si O2"
_cell_formula_units_Z 104
_cell_length_a 21.644363
_cell_length_b 29.322573
_cell_length_c 8.712937
_cell_angle_alpha 90.000000
_cell_angle_beta 90.000000
_cell_angle_gamma 90.000000
_cell_volume 5529.825908
_symmetry_space_group_name_H-M "I M M M"
_symmetry_group_IT_number 71
_symmetry_cell_setting 'orthorhombic'
loop_
_space_group_symop_operation_xyz
x,y,z
-x,-y,z
x,-y,-z
-x,y,-z
-x,-y,-z
x,y,-z
-x,y,z
x,-y,z
1/2+x,1/2+y,1/2+z
1/2-x,1/2-y,1/2+z
1/2+x,1/2-y,1/2-z
1/2-x,1/2+y,1/2-z
1/2-x,1/2-y,1/2-z
1/2+x,1/2+y,1/2-z
1/2-x,1/2+y,1/2+z
1/2+x,1/2-y,1/2+z
loop_
_atom_site_type_symbol
_atom_site_label
_atom_site_fract_x
_atom_site_fract_y
_atom_site_fract_z
Si Si1 0.264147 0.878876 0.322265
Si Si2 0.630778 0.052786 0.315204
Si Si3 0.070975 0.809982 0.317435
Si Si4 0.071177 0.080436 0.676711
Si Si5 0.684692 0.448461 0.328823
Si Si6 0.704864 0.711242 0.682523
Si Si7 0.000000 0.554967 0.326491
O O1 0.273643 0.866203 0.500000
O O2 0.322977 0.907493 0.261461
O O3 0.212040 0.917131 0.303027
O O4 0.238544 0.835758 0.231523
O O5 0.634697 0.051755 0.500000
O O6 0.562398 0.066210 0.262374
O O7 0.643253 0.000000 0.262741
O O8 0.073079 0.800694 0.500000
O O9 0.076606 0.864837 0.298850
O O10 0.133479 0.788963 0.243847
O O11 0.000000 0.797544 0.265024
O O12 0.089173 0.070514 0.500000
O O13 0.112333 0.054684 0.799122
O O14 0.000000 0.068433 0.691960
O O15 0.700298 0.431566 0.500000
O O16 0.706724 0.500000 0.315222
O O17 0.702364 0.715189 0.500000
O O18 0.750000 0.750000 0.750000
O O19 0.000000 0.500000 0.335475
O O20 0.000000 0.573045 0.500000
#
# Coordination Sequence:
#
# PCOD9524303 Si02
#       7
#    16  16  16  16  16  16   8
#     4  11  22  38  59  83 113 149 192 239 288 340
#     4   9  18  33  55  82 112 150 193 234 279 336
#     4   9  18  36  63  92 120 151 190 239 292 347
#     4   9  18  33  54  78 106 146 193 237 282 334
#     4  11  23  35  49  76 114 153 192 236 285 336
#     4  12  25  41  64  92 121 153 192 238 293 352
#     4   9  17  29  49  79 113 149 189 233 279 333
#
# _framework density 18.807102
#
# number of rings (size 3 to 8) (size 9 to 14) (size 15 to 20)
#    0.000    1.923    1.538    3.923    0.000    4.923 
#    0.000    4.615    1.692    0.000    0.000    0.000 
#    0.000    0.000    0.000    0.000    0.000    0.000 
#
# Total GULP energy -289787.816759 kJ/mol
# GULP energy per Si atom -5572.842630 kJ/mol
# Density = 1.876430 g / cm^3
# Si number density = 18.807102 Si / 1000 Ang^3
#
#
#
# Elastic Constant Matrix: (Units=GPa)
#
#
# Indices 1 2 3 4 5 6 
#
# 1 150.0118 50.8776 41.7154 0.0000 0.0000 0.0000
# 2 50.8776 61.9925 27.7369 0.0000 0.0000 0.0000
# 3 41.7154 27.7369 47.5593 0.0000 0.0000 0.0000
# 4 0.0000 0.0000 0.0000 14.9192 0.0000 0.0000
# 5 0.0000 0.0000 0.0000 0.0000 18.6096 0.0000
# 6 0.0000 0.0000 0.0000 0.0000 0.0000 30.9456
#
#
#
# Elastic Compliance Matrix: (Units=1/GPa)
#
#
# Indices 1 2 3 4 5 6 
#
# 1 0.010200 -0.005911 -0.005500 0.000000 0.000000 0.000000
# 2 -0.005911 0.025251 -0.009542 0.000000 0.000000 0.000000
# 3 -0.005500 -0.009542 0.031415 0.000000 0.000000 0.000000
# 4 0.000000 0.000000 0.000000 0.067028 0.000000 0.000000
# 5 0.000000 0.000000 0.000000 0.000000 0.053736 0.000000
# 6 0.000000 0.000000 0.000000 0.000000 0.000000 0.032315
#
#
# Mechanical properties :
#
#
# Convention : Reuss Voigt Hill
#
# Bulk Modulus (GPa) = 40.06159 55.58035 47.82097
# Shear Modulus (GPa) = 18.50679 22.17714 20.34196
#
# Velocity S-wave (km/s) = 3.14033 3.43766 3.29235
# Velocity P-wave (km/s) = 5.87337 6.73600 6.31942
#
# Compressibility (1/GPa) = 0.02496157
#
# Stress axis : x y z
#
# Youngs Moduli (GPa) = 98.03807 39.60181 31.83145
#
# Poissons Ratio (x) = 0.23407 0.17506
# Poissons Ratio (y) = 0.57947 0.30375
# Poissons Ratio (z) = 0.53917 0.37790
#
# Static dielectric constant tensor:
#      x y z
#    x 1.723520 0.000000 0.000000 
#    y 0.000000 1.644160 0.000000 
#    z 0.000000 0.000000 1.656430 
# 
# From -- ./inp_files/11153.got.cif
#   From: 2010.05.17/outbox.cif.g08.bks.cpg/sg71_6_cif.got.tgz:11153.got - 2010.06.03 16:22:01.
