data_PCOD9524196
_publ_section_title
;
Structure prediction by ZEFSAII (Michael W. Deem and Ramdas Pophale) SiO2 
 PCOD9524196
Probable space group: I M M M
;
_chemical_formula_sum "Si O2"
_cell_formula_units_Z 58
_cell_length_a 14.740896
_cell_length_b 26.603836
_cell_length_c 8.577548
_cell_angle_alpha 90.000000
_cell_angle_beta 90.000000
_cell_angle_gamma 90.000000
_cell_volume 3363.808791
_symmetry_space_group_name_H-M "I M M M"
_symmetry_group_IT_number 71
_symmetry_cell_setting 'orthorhombic'
loop_
_space_group_symop_operation_xyz
x,y,z
-x,-y,z
x,-y,-z
-x,y,-z
-x,-y,-z
x,y,-z
-x,y,z
x,-y,z
1/2+x,1/2+y,1/2+z
1/2-x,1/2-y,1/2+z
1/2+x,1/2-y,1/2-z
1/2-x,1/2+y,1/2-z
1/2-x,1/2-y,1/2-z
1/2+x,1/2+y,1/2-z
1/2-x,1/2+y,1/2+z
1/2+x,1/2-y,1/2+z
loop_
_atom_site_type_symbol
_atom_site_label
_atom_site_fract_x
_atom_site_fract_y
_atom_site_fract_z
Si Si1 0.000000 0.000000 0.000000
Si Si2 0.000000 0.850152 0.686595
Si Si3 0.500000 0.769127 0.813235
Si Si4 0.694121 0.797902 0.313774
Si Si5 0.690475 0.390065 0.311581
Si Si6 0.689346 0.500000 0.327230
O O1 0.081510 0.000000 0.132719
O O2 0.909983 0.874460 0.757402
O O3 0.000000 0.855825 0.500000
O O4 0.000000 0.790601 0.722022
O O5 0.408881 0.792408 0.743100
O O6 0.500000 0.774721 0.000000
O O7 0.698974 0.797459 0.500000
O O8 0.750000 0.750000 0.250000
O O9 0.740884 0.848114 0.249139
O O10 0.690513 0.391165 0.500000
O O11 0.711368 0.446458 0.252580
O O12 0.734518 0.500000 0.500000
#
# Coordination Sequence:
#
# PCOD9524196 Si02
#       6
#     2   8   8  16  16   8
#     4   8  12  32  52  84 122 142 200 232 270 338
#     4  11  22  33  52  83 119 153 192 236 286 344
#     4  11  23  40  59  83 116 152 193 237 292 347
#     4  12  24  39  58  85 116 151 193 239 291 348
#     4  11  21  36  59  83 114 155 195 236 284 340
#     4   8  18  32  54  82 114 151 192 234 279 339
#
# _framework density 17.242359
#
# number of rings (size 3 to 8) (size 9 to 14) (size 15 to 20)
#    0.414    0.828    2.759    4.966    0.000    1.103 
#    0.000    3.448    0.000    0.828    0.000    5.793 
#    0.000    0.000    0.000    0.000    0.000    0.000 
#
# Total GULP energy -161647.499806 kJ/mol
# GULP energy per Si atom -5574.051717 kJ/mol
# Density = 1.720311 g / cm^3
# Si number density = 17.242359 Si / 1000 Ang^3
#
#
#
# Elastic Constant Matrix: (Units=GPa)
#
#
# Indices 1 2 3 4 5 6 
#
# 1 127.1200 81.4793 40.8226 -0.0001 -0.0001 0.0001
# 2 81.4793 186.8430 58.3095 0.0000 0.0000 0.0000
# 3 40.8226 58.3095 80.8519 0.0001 -0.0008 -0.0015
# 4 -0.0001 0.0000 0.0001 22.3063 0.0000 -0.0002
# 5 -0.0001 0.0000 -0.0008 0.0000 30.3882 -0.0001
# 6 0.0001 0.0000 -0.0015 -0.0002 -0.0001 -4.1783
#
#
#
# Elastic Compliance Matrix: (Units=1/GPa)
#
#
# Indices 1 2 3 4 5 6 
#
# 1 0.011389 -0.004093 -0.002798 0.000000 0.000000 0.000001
# 2 -0.004093 0.008378 -0.003975 0.000000 0.000000 0.000001
# 3 -0.002798 -0.003975 0.016648 0.000000 0.000000 -0.000006
# 4 0.000000 0.000000 0.000000 0.044830 0.000000 -0.000002
# 5 0.000000 0.000000 0.000000 0.000000 0.032907 0.000000
# 6 0.000001 0.000001 -0.000006 -0.000002 0.000000 -0.239333
#
#
# Mechanical properties :
#
#
# Convention : Reuss Voigt Hill
#
# Bulk Modulus (GPa) = 68.11477 84.00419 76.05948
# Shear Modulus (GPa) = -50.73355 23.98349 -13.37503
#
# Velocity S-wave (km/s) = -5.43025 3.73361 -2.78817
# Velocity P-wave (km/s) = 0.52268 8.21047 5.81743
#
# Compressibility (1/GPa) = 0.01468110
#
# Stress axis : x y z
#
# Youngs Moduli (GPa) = 87.80553 119.36560 60.06714
#
# Poissons Ratio (x) = 0.48859 0.16809
# Poissons Ratio (y) = 0.35940 0.23878
# Poissons Ratio (z) = 0.24571 0.47450
#
# Static dielectric constant tensor:
#      x y z
#    x 1.548430 0.000000 0.000000 
#    y 0.000000 1.615260 0.000000 
#    z 0.000000 0.000000 1.589120 
# 
# From -- ./inp_files/3455.got.cif
#   From: 2010.05.17/outbox.cif.g08.bks.cpg/sg71_2_cif.got.tgz:3455.got - 2010.06.03 16:22:01.
