data_PCOD9524507
_publ_section_title
;
Structure prediction by ZEFSAII (Michael W. Deem and Ramdas Pophale) SiO2 
 PCOD9524507
Probable space group: I M M M
;
_chemical_formula_sum "Si O2"
_cell_formula_units_Z 80
_cell_length_a 7.576917
_cell_length_b 23.086007
_cell_length_c 23.131771
_cell_angle_alpha 90.000000
_cell_angle_beta 90.000000
_cell_angle_gamma 90.000000
_cell_volume 4046.226938
_symmetry_space_group_name_H-M "I M M M"
_symmetry_group_IT_number 71
_symmetry_cell_setting 'orthorhombic'
loop_
_space_group_symop_operation_xyz
x,y,z
-x,-y,z
x,-y,-z
-x,y,-z
-x,-y,-z
x,y,-z
-x,y,z
x,-y,z
1/2+x,1/2+y,1/2+z
1/2-x,1/2-y,1/2+z
1/2+x,1/2-y,1/2-z
1/2-x,1/2+y,1/2-z
1/2-x,1/2-y,1/2-z
1/2+x,1/2+y,1/2-z
1/2-x,1/2+y,1/2+z
1/2+x,1/2-y,1/2+z
loop_
_atom_site_type_symbol
_atom_site_label
_atom_site_fract_x
_atom_site_fract_y
_atom_site_fract_z
Si Si1 0.789952 0.873135 0.565849
Si Si2 0.209122 0.790789 0.335398
Si Si3 0.286355 0.832243 0.789701
Si Si4 0.210074 0.500000 0.065890
Si Si5 0.716569 0.933405 0.873392
Si Si6 0.296910 0.070397 0.000000
O O1 0.718316 0.870996 0.500000
O O2 0.717540 0.825029 0.609527
O O3 0.000000 0.864674 0.561762
O O4 0.763792 0.938006 0.590743
O O5 0.233031 0.827869 0.277013
O O6 0.278919 0.726686 0.320871
O O7 0.000000 0.783858 0.344978
O O8 0.500000 0.831497 0.790896
O O9 0.227428 0.888796 0.824308
O O10 0.000000 0.500000 0.063503
O O11 0.282806 0.500000 0.000000
O O12 0.500000 0.933477 0.875321
O O13 0.770118 0.000000 0.863469
O O14 0.778760 0.913845 0.937461
O O15 0.500000 0.091028 0.000000
O O16 0.300183 0.000000 0.000000
#
# Coordination Sequence:
#
# PCOD9524507 Si02
#       6
#    16  16  16   8  16   8
#     4   9  17  31  49  67  91 122 154 190 233 278
#     4   9  18  32  47  64  89 122 156 187 224 272
#     4   9  17  30  47  66  90 122 155 187 225 266
#     4   9  17  29  47  71  95 117 145 184 231 280
#     4   8  13  23  40  64  93 118 143 179 222 265
#     4   7  10  18  34  58  89 119 137 162 215 266
#
# _framework density 19.771505000000001
#
# number of rings (size 3 to 8) (size 9 to 14) (size 15 to 20)
#    0.000    3.400    0.000    1.500    0.000    2.000 
#    3.600    0.000    0.000    0.000    0.000    0.700 
#    0.000    2.400    0.000    0.000    0.000    0.000 
#
# Total GULP energy -222761.708982 kJ/mol
# GULP energy per Si atom -5569.042725 kJ/mol
# Density = 1.972650 g / cm^3
# Si number density = 19.771505 Si / 1000 Ang^3
#
#
#
# Elastic Constant Matrix: (Units=GPa)
#
#
# Indices 1 2 3 4 5 6 
#
# 1 45.2578 -1.0847 -1.1393 0.0000 0.0000 0.0000
# 2 -1.0847 93.0493 74.6025 0.0000 0.0000 0.0000
# 3 -1.1393 74.6025 99.5406 0.0000 0.0000 0.0000
# 4 0.0000 0.0000 0.0000 30.7263 0.0000 0.0000
# 5 0.0000 0.0000 0.0000 0.0000 11.1263 0.0000
# 6 0.0000 0.0000 0.0000 0.0000 0.0000 -3.5454
#
#
#
# Elastic Compliance Matrix: (Units=1/GPa)
#
#
# Indices 1 2 3 4 5 6 
#
# 1 0.022103 0.000137 0.000150 0.000000 0.000000 0.000000
# 2 0.000137 0.026928 -0.020180 0.000000 0.000000 0.000000
# 3 0.000150 -0.020180 0.025172 0.000000 0.000000 0.000000
# 4 0.000000 0.000000 0.000000 0.032545 0.000000 0.000000
# 5 0.000000 0.000000 0.000000 0.000000 0.089877 0.000000
# 6 0.000000 0.000000 0.000000 0.000000 0.000000 -0.282059
#
#
# Mechanical properties :
#
#
# Convention : Reuss Voigt Hill
#
# Bulk Modulus (GPa) = 29.05496 42.51163 35.78330
# Shear Modulus (GPa) = -146.30530 18.69271 -63.80629
#
# Velocity S-wave (km/s) = -8.61154 3.07813 -5.68699
# Velocity P-wave (km/s) = 9.17339 5.84648 4.99848
#
# Compressibility (1/GPa) = 0.03441753
#
# Stress axis : x y z
#
# Youngs Moduli (GPa) = 45.24329 37.13594 39.72625
#
# Poissons Ratio (x) = -0.00510 -0.00596
# Poissons Ratio (y) = -0.00622 0.80168
# Poissons Ratio (z) = -0.00679 0.74941
#
# Static dielectric constant tensor:
#      x y z
#    x 1.758350 0.000000 0.000000 
#    y 0.000000 1.696560 0.000000 
#    z 0.000000 0.000000 1.701460 
# 
# From -- ./inp_files/12782.got.cif
#   From: 2010.05.17/outbox.cif.g08.bks.cpg/sg71_7_cif.got.tgz:12782.got - 2010.06.03 16:22:01.
