data_PCOD9524373
_publ_section_title
;
Structure prediction by ZEFSAII (Michael W. Deem and Ramdas Pophale) SiO2 
 PCOD9524373
Probable space group: I M M M
;
_chemical_formula_sum "Si O2"
_cell_formula_units_Z 56
_cell_length_a 9.814457
_cell_length_b 16.161037
_cell_length_c 17.772380
_cell_angle_alpha 90.000000
_cell_angle_beta 90.000000
_cell_angle_gamma 90.000000
_cell_volume 2818.909230
_symmetry_space_group_name_H-M "I M M M"
_symmetry_group_IT_number 71
_symmetry_cell_setting 'orthorhombic'
loop_
_space_group_symop_operation_xyz
x,y,z
-x,-y,z
x,-y,-z
-x,y,-z
-x,-y,-z
x,y,-z
-x,y,z
x,-y,z
1/2+x,1/2+y,1/2+z
1/2-x,1/2-y,1/2+z
1/2+x,1/2-y,1/2-z
1/2-x,1/2+y,1/2-z
1/2-x,1/2-y,1/2-z
1/2+x,1/2+y,1/2-z
1/2-x,1/2+y,1/2+z
1/2+x,1/2-y,1/2+z
loop_
_atom_site_type_symbol
_atom_site_label
_atom_site_fract_x
_atom_site_fract_y
_atom_site_fract_z
Si Si1 0.647887 0.597557 0.127827
Si Si2 0.846421 0.398289 0.000000
Si Si3 0.656705 0.099784 0.911992
Si Si4 0.660273 0.323782 0.715723
O O1 0.500000 0.634403 0.107759
O O2 0.642053 0.500000 0.112602
O O3 0.667404 0.610098 0.216160
O O4 0.765507 0.630365 0.073972
O O5 0.850787 0.500000 0.000000
O O6 0.000000 0.368607 0.000000
O O7 0.500000 0.122118 0.891284
O O8 0.765407 0.142790 0.858210
O O9 0.667896 0.000000 0.904835
O O10 0.676414 0.120092 0.000000
O O11 0.500000 0.303845 0.703972
O O12 0.750000 0.250000 0.750000
#
# Coordination Sequence:
#
# PCOD9524373 Si02
#       4
#    16   8  16  16
#     4   9  18  34  55  77 104 141 183 225 272 329
#     4   9  17  29  49  79 107 131 168 217 264 313
#     4   9  19  38  64  91 118 151 193 242 296 352
#     4  11  23  38  56  82 116 153 193 236 289 347
#
# _framework density 19.865839999999999
#
# number of rings (size 3 to 8) (size 9 to 14) (size 15 to 20)
#    0.000    2.429    0.000    3.000    0.000    6.286 
#    2.571    4.286    0.000    0.000    0.000    0.000 
#    0.000    0.000    0.000    0.000    0.000    0.000 
#
# Total GULP energy -156183.047284 kJ/mol
# GULP energy per Si atom -5577.965974 kJ/mol
# Density = 1.982062 g / cm^3
# Si number density = 19.865840 Si / 1000 Ang^3
#
#
#
# Elastic Constant Matrix: (Units=GPa)
#
#
# Indices 1 2 3 4 5 6 
#
# 1 206.5918 41.1653 110.8690 0.0000 0.0000 0.0000
# 2 41.1653 21.1640 20.8301 0.0000 0.0000 0.0000
# 3 110.8690 20.8301 110.9739 0.0000 0.0000 0.0000
# 4 0.0000 0.0000 0.0000 16.1879 0.0000 0.0000
# 5 0.0000 0.0000 0.0000 0.0000 42.5027 0.0000
# 6 0.0000 0.0000 0.0000 0.0000 0.0000 21.6620
#
#
#
# Elastic Compliance Matrix: (Units=1/GPa)
#
#
# Indices 1 2 3 4 5 6 
#
# 1 0.013925 -0.016427 -0.010828 0.000000 0.000000 0.000000
# 2 -0.016427 0.077336 0.001895 0.000000 0.000000 0.000000
# 3 -0.010828 0.001895 0.019473 0.000000 0.000000 0.000000
# 4 0.000000 0.000000 0.000000 0.061775 0.000000 0.000000
# 5 0.000000 0.000000 0.000000 0.000000 0.023528 0.000000
# 6 0.000000 0.000000 0.000000 0.000000 0.000000 0.046164
#
#
# Mechanical properties :
#
#
# Convention : Reuss Voigt Hill
#
# Bulk Modulus (GPa) = 16.66265 76.05096 46.35680
# Shear Modulus (GPa) = 15.97825 27.12820 21.55323
#
# Velocity S-wave (km/s) = 2.83911 3.69937 3.29741
# Velocity P-wave (km/s) = 4.37643 7.52413 6.15490
#
# Compressibility (1/GPa) = 0.06001448
#
# Stress axis : x y z
#
# Youngs Moduli (GPa) = 71.81481 12.93053 51.35248
#
# Poissons Ratio (x) = 0.21241 0.55605
# Poissons Ratio (y) = 1.17971 -0.09733
# Poissons Ratio (z) = 0.77762 -0.02451
#
# Static dielectric constant tensor:
#      x y z
#    x 1.709140 0.000000 0.000000 
#    y 0.000000 1.710130 0.000000 
#    z 0.000000 0.000000 1.687880 
# 
# From -- ./inp_files/7211.got.cif
#   From: 2010.05.17/outbox.cif.g08.bks.cpg/sg71_4_cif.got.tgz:7211.got - 2010.06.03 16:22:01.
