data_PCOD9524094
_publ_section_title
;
Structure prediction by ZEFSAII (Michael W. Deem and Ramdas Pophale) SiO2 
 PCOD9524094
Probable space group: I M M M
;
_chemical_formula_sum "Si O2"
_cell_formula_units_Z 112
_cell_length_a 14.630062
_cell_length_b 32.994637
_cell_length_c 15.123671
_cell_angle_alpha 90.000000
_cell_angle_beta 90.000000
_cell_angle_gamma 90.000000
_cell_volume 7300.401446
_symmetry_space_group_name_H-M "I M M M"
_symmetry_group_IT_number 71
_symmetry_cell_setting 'orthorhombic'
loop_
_space_group_symop_operation_xyz
x,y,z
-x,-y,z
x,-y,-z
-x,y,-z
-x,-y,-z
x,y,-z
-x,y,z
x,-y,z
1/2+x,1/2+y,1/2+z
1/2-x,1/2-y,1/2+z
1/2+x,1/2-y,1/2-z
1/2-x,1/2+y,1/2-z
1/2-x,1/2-y,1/2-z
1/2+x,1/2+y,1/2-z
1/2-x,1/2+y,1/2+z
1/2+x,1/2-y,1/2+z
loop_
_atom_site_type_symbol
_atom_site_label
_atom_site_fract_x
_atom_site_fract_y
_atom_site_fract_z
Si Si1 0.895371 0.117643 0.893674
Si Si2 0.608450 0.895507 0.102128
Si Si3 0.891408 0.679291 0.271649
Si Si4 0.397206 0.733299 0.849566
Si Si5 0.702495 0.789983 0.403820
Si Si6 0.394449 0.707332 0.646017
Si Si7 0.734088 0.545540 0.393278
O O1 0.858056 0.162333 0.871758
O O2 0.836646 0.079710 0.860754
O O3 0.000000 0.115587 0.861203
O O4 0.897252 0.115201 0.000000
O O5 0.500000 0.902332 0.106124
O O6 0.631535 0.860094 0.171074
O O7 0.666132 0.935591 0.122591
O O8 0.630932 0.883600 0.000000
O O9 0.878685 0.718992 0.332918
O O10 0.835660 0.685993 0.181281
O O11 0.000000 0.678483 0.249742
O O12 0.500000 0.728447 0.886090
O O13 0.311851 0.714033 0.898740
O O14 0.396350 0.714872 0.750795
O O15 0.674952 0.806349 0.500000
O O16 0.661573 0.744469 0.394230
O O17 0.500000 0.708901 0.613670
O O18 0.723206 0.543455 0.500000
O O19 0.721771 0.500000 0.358880
#
# Coordination Sequence:
#
# PCOD9524094 Si02
#       7
#    16  16  16  16  16  16  16
#     4   9  17  27  41  62  86 115 150 183 216 258
#     4   9  18  31  48  68  89 118 153 187 223 264
#     4   9  18  32  47  65  89 116 151 193 229 262
#     4   9  19  32  43  59  86 118 151 188 227 262
#     4  11  21  29  44  66  90 124 155 187 228 263
#     4   9  17  30  46  63  84 114 154 194 226 258
#     4   9  18  29  42  63  89 117 146 179 223 271
#
# _framework density 15.341621999999999
#
# number of rings (size 3 to 8) (size 9 to 14) (size 15 to 20)
#    0.000    2.714    0.000    3.429    4.000    3.143 
#    0.000    4.286    0.000    0.000    0.000    0.000 
#    0.000    0.571    0.000    3.143    0.000    8.143 
#
# Total GULP energy -312009.843997 kJ/mol
# GULP energy per Si atom -5571.604357 kJ/mol
# Density = 1.530670 g / cm^3
# Si number density = 15.341622 Si / 1000 Ang^3
#
#
#
# Elastic Constant Matrix: (Units=GPa)
#
#
# Indices 1 2 3 4 5 6 
#
# 1 45.8912 8.8558 7.8867 0.0000 0.0000 0.0000
# 2 8.8558 71.1778 5.4938 0.0000 0.0000 0.0000
# 3 7.8867 5.4938 31.5897 0.0004 -0.0002 0.0000
# 4 0.0000 0.0000 0.0004 16.6572 0.0000 0.0000
# 5 0.0000 0.0000 -0.0002 0.0000 6.4130 0.0000
# 6 0.0000 0.0000 0.0000 0.0000 0.0000 17.4294
#
#
#
# Elastic Compliance Matrix: (Units=1/GPa)
#
#
# Indices 1 2 3 4 5 6 
#
# 1 0.023189 -0.002471 -0.005360 0.000000 0.000000 0.000000
# 2 -0.002471 0.014504 -0.001905 0.000000 0.000000 0.000000
# 3 -0.005360 -0.001905 0.033325 -0.000001 0.000001 0.000000
# 4 0.000000 0.000000 -0.000001 0.060034 0.000000 0.000000
# 5 0.000000 0.000000 0.000001 0.000000 0.155932 0.000000
# 6 0.000000 0.000000 0.000000 0.000000 0.000000 0.057374
#
#
# Mechanical properties :
#
#
# Convention : Reuss Voigt Hill
#
# Bulk Modulus (GPa) = 19.40042 21.45904 20.42973
# Shear Modulus (GPa) = 13.12291 16.52808 14.82549
#
# Velocity S-wave (km/s) = 2.92786 3.28584 3.11200
# Velocity P-wave (km/s) = 4.90947 5.33043 5.12427
#
# Compressibility (1/GPa) = 0.05154527
#
# Stress axis : x y z
#
# Youngs Moduli (GPa) = 43.12448 68.94713 30.00721
#
# Poissons Ratio (x) = 0.17040 0.16082
# Poissons Ratio (y) = 0.10658 0.05717
# Poissons Ratio (z) = 0.23113 0.13137
#
# Static dielectric constant tensor:
#      x y z
#    x 1.567180 0.000000 0.000000 
#    y 0.000000 1.496420 0.000000 
#    z 0.000000 0.000000 1.500520 
# 
# From -- ./inp_files/35370.got.cif
#   From: 2010.05.17/outbox.cif.g08.bks.cpg/sg71_18_cif.got.tgz:35370.got - 2010.06.03 16:22:01.
