data_PCOD9524251
_publ_section_title
;
Structure prediction by ZEFSAII (Michael W. Deem and Ramdas Pophale) SiO2 
 PCOD9524251
Probable space group: I M M M
;
_chemical_formula_sum "Si O2"
_cell_formula_units_Z 80
_cell_length_a 10.828882
_cell_length_b 17.406221
_cell_length_c 21.916674
_cell_angle_alpha 90.000000
_cell_angle_beta 90.000000
_cell_angle_gamma 90.000000
_cell_volume 4131.071982
_symmetry_space_group_name_H-M "I M M M"
_symmetry_group_IT_number 71
_symmetry_cell_setting 'orthorhombic'
loop_
_space_group_symop_operation_xyz
x,y,z
-x,-y,z
x,-y,-z
-x,y,-z
-x,-y,-z
x,y,-z
-x,y,z
x,-y,z
1/2+x,1/2+y,1/2+z
1/2-x,1/2-y,1/2+z
1/2+x,1/2-y,1/2-z
1/2-x,1/2+y,1/2-z
1/2-x,1/2-y,1/2-z
1/2+x,1/2+y,1/2-z
1/2-x,1/2+y,1/2+z
1/2+x,1/2-y,1/2+z
loop_
_atom_site_type_symbol
_atom_site_label
_atom_site_fract_x
_atom_site_fract_y
_atom_site_fract_z
Si Si1 0.143152 0.589333 0.222804
Si Si2 0.000000 0.408582 0.430359
Si Si3 0.801671 0.673950 0.347815
Si Si4 0.853087 0.147330 0.633239
Si Si5 0.853417 0.087581 0.069009
Si Si6 0.351517 0.587367 0.000000
O O1 0.146569 0.500000 0.241922
O O2 0.174313 0.642908 0.280400
O O3 0.251735 0.603098 0.173838
O O4 0.000000 0.604831 0.202782
O O5 0.886541 0.373975 0.394031
O O6 0.000000 0.500000 0.428493
O O7 0.000000 0.382913 0.500000
O O8 0.834042 0.762897 0.352656
O O9 0.673036 0.648657 0.377593
O O10 0.821189 0.130151 0.562674
O O11 0.000000 0.127750 0.643266
O O12 0.000000 0.082829 0.064306
O O13 0.809233 0.000000 0.083080
O O14 0.807239 0.107360 0.000000
O O15 0.302347 0.500000 0.000000
O O16 0.500000 0.582171 0.000000
#
# Coordination Sequence:
#
# PCOD9524251 Si02
#       6
#    16   8  16  16  16   8
#     4  11  24  43  64  88 126 169 213 264 324 390
#     4  11  22  34  56  90 128 169 209 247 298 370
#     4  12  22  36  61  90 126 163 206 258 318 374
#     4  11  24  41  66  95 126 163 209 268 325 386
#     4   9  19  35  54  81 122 170 215 255 300 363
#     4   9  20  40  65  91 121 158 205 261 319 373
#
# _framework density 19.365432999999999
#
# number of rings (size 3 to 8) (size 9 to 14) (size 15 to 20)
#    0.000    1.400    2.000    4.200    2.800    4.400 
#    0.000    0.500    0.000    1.800    0.000    0.000 
#    0.000    0.000    0.000    0.000    0.000    0.000 
#
# Total GULP energy -223078.371628 kJ/mol
# GULP energy per Si atom -5576.959291 kJ/mol
# Density = 1.932136 g / cm^3
# Si number density = 19.365433 Si / 1000 Ang^3
#
#
#
# Elastic Constant Matrix: (Units=GPa)
#
#
# Indices 1 2 3 4 5 6 
#
# 1 87.0321 24.2551 41.0066 0.0000 0.0000 0.0000
# 2 24.2551 81.5796 40.6913 0.0000 0.0000 0.0000
# 3 41.0066 40.6913 115.2771 0.0000 0.0000 0.0000
# 4 0.0000 0.0000 0.0000 42.5184 0.0000 0.0000
# 5 0.0000 0.0000 0.0000 0.0000 41.6180 0.0000
# 6 0.0000 0.0000 0.0000 0.0000 0.0000 30.8444
#
#
#
# Elastic Compliance Matrix: (Units=1/GPa)
#
#
# Indices 1 2 3 4 5 6 
#
# 1 0.014080 -0.002049 -0.004285 0.000000 0.000000 0.000000
# 2 -0.002049 0.015175 -0.004628 0.000000 0.000000 0.000000
# 3 -0.004285 -0.004628 0.011833 0.000000 0.000000 0.000000
# 4 0.000000 0.000000 0.000000 0.023519 0.000000 0.000000
# 5 0.000000 0.000000 0.000000 0.000000 0.024028 0.000000
# 6 0.000000 0.000000 0.000000 0.000000 0.000000 0.032421
#
#
# Mechanical properties :
#
#
# Convention : Reuss Voigt Hill
#
# Bulk Modulus (GPa) = 52.18081 55.08830 53.63456
# Shear Modulus (GPa) = 33.47419 34.85854 34.16637
#
# Velocity S-wave (km/s) = 4.16210 4.24729 4.20491
# Velocity P-wave (km/s) = 7.07822 7.24990 7.16458
#
# Compressibility (1/GPa) = 0.01916413
#
# Stress axis : x y z
#
# Youngs Moduli (GPa) = 71.02210 65.89574 84.51093
#
# Poissons Ratio (x) = 0.13500 0.36217
# Poissons Ratio (y) = 0.14551 0.39111
# Poissons Ratio (z) = 0.30436 0.30496
#
# Static dielectric constant tensor:
#      x y z
#    x 3.223790 0.000000 0.000000 
#    y 0.000000 1.665280 0.000000 
#    z 0.000000 0.000000 1.662000 
# 
# From -- ./inp_files/51720.got.cif
#   From: 2010.05.17/outbox.cif.g08.bks.cpg/sg71_26_cif.got.tgz:51720.got - 2010.06.03 16:22:01.
