data_PCOD9524266
_publ_section_title
;
Structure prediction by ZEFSAII (Michael W. Deem and Ramdas Pophale) SiO2 
 PCOD9524266
Probable space group: I M M M
;
_chemical_formula_sum "Si O2"
_cell_formula_units_Z 116
_cell_length_a 28.915064
_cell_length_b 7.831495
_cell_length_c 27.028643
_cell_angle_alpha 90.000000
_cell_angle_beta 90.000000
_cell_angle_gamma 90.000000
_cell_volume 6120.586992
_symmetry_space_group_name_H-M "I M M M"
_symmetry_group_IT_number 71
_symmetry_cell_setting 'orthorhombic'
loop_
_space_group_symop_operation_xyz
x,y,z
-x,-y,z
x,-y,-z
-x,y,-z
-x,-y,-z
x,y,-z
-x,y,z
x,-y,z
1/2+x,1/2+y,1/2+z
1/2-x,1/2-y,1/2+z
1/2+x,1/2-y,1/2-z
1/2-x,1/2+y,1/2-z
1/2-x,1/2-y,1/2-z
1/2+x,1/2+y,1/2-z
1/2-x,1/2+y,1/2+z
1/2+x,1/2-y,1/2+z
loop_
_atom_site_type_symbol
_atom_site_label
_atom_site_fract_x
_atom_site_fract_y
_atom_site_fract_z
Si Si1 0.699759 0.312060 0.448294
Si Si2 0.449185 0.293100 0.196480
Si Si3 0.652222 0.208873 0.054028
Si Si4 0.050883 0.297786 0.581347
Si Si5 0.185394 0.695436 0.846075
Si Si6 0.209377 0.299390 0.650523
Si Si7 0.645683 0.702188 0.241055
Si Si8 0.741376 0.000000 0.500000
O O1 0.671414 0.306938 0.500000
O O2 0.722662 0.500000 0.447176
O O3 0.673359 0.289028 0.397334
O O4 0.733753 0.152708 0.457447
O O5 0.500000 0.240628 0.214622
O O6 0.448515 0.500000 0.193840
O O7 0.444310 0.226660 0.140407
O O8 0.406167 0.235759 0.229302
O O9 0.598731 0.267315 0.058529
O O10 0.680133 0.262825 0.102821
O O11 0.652320 0.000000 0.054210
O O12 0.670257 0.267349 0.000000
O O13 0.049671 0.500000 0.570388
O O14 0.000000 0.227303 0.567047
O O15 0.172337 0.500000 0.851304
O O16 0.241012 0.713378 0.842563
O O17 0.162763 0.763451 0.796190
O O18 0.218241 0.500000 0.643471
O O19 0.179370 0.279258 0.699868
O O20 0.646583 0.500000 0.232844
#
# Coordination Sequence:
#
# PCOD9524266 Si02
#       8
#    16  16  16  16  16  16  16   4
#     4   9  17  32  53  77 107 141 179 223 267 313
#     4   9  18  33  54  77 103 135 169 211 268 333
#     4   9  18  32  49  72 102 133 173 223 275 328
#     4   9  16  28  50  75  98 127 168 217 270 325
#     4  12  23  37  54  76 105 139 182 228 276 327
#     4  11  22  36  51  70  99 137 179 224 280 333
#     4  11  22  36  54  77 103 134 173 217 271 331
#     4   8  14  32  52  78 108 140 179 222 263 314
#
# _framework density 18.952428999999999
#
# number of rings (size 3 to 8) (size 9 to 14) (size 15 to 20)
#    0.414    1.655    2.069    2.483    0.000    1.379 
#    0.000    2.759    0.000    3.310    0.000    1.931 
#    0.000    0.552    0.000    7.379    0.000    4.552 
#
# Total GULP energy -322970.412433 kJ/mol
# GULP energy per Si atom -5568.455387 kJ/mol
# Density = 1.890929 g / cm^3
# Si number density = 18.952429 Si / 1000 Ang^3
#
#
#
# Elastic Constant Matrix: (Units=GPa)
#
#
# Indices 1 2 3 4 5 6 
#
# 1 45.9797 -7.8314 28.6056 0.0000 0.0000 0.0000
# 2 -7.8314 52.7541 -13.0159 0.0000 0.0000 0.0000
# 3 28.6056 -13.0159 122.6866 0.0000 0.0000 0.0000
# 4 0.0000 0.0000 0.0000 22.6582 0.0000 0.0000
# 5 0.0000 0.0000 0.0000 0.0000 22.7136 0.0000
# 6 0.0000 0.0000 0.0000 0.0000 0.0000 -7.7917
#
#
#
# Elastic Compliance Matrix: (Units=1/GPa)
#
#
# Indices 1 2 3 4 5 6 
#
# 1 0.025732 0.002403 -0.005745 0.000000 0.000000 0.000000
# 2 0.002403 0.019690 0.001529 0.000000 0.000000 0.000000
# 3 -0.005745 0.001529 0.009652 0.000000 0.000000 0.000000
# 4 0.000000 0.000000 0.000000 0.044134 0.000000 0.000000
# 5 0.000000 0.000000 0.000000 0.000000 0.044027 0.000000
# 6 0.000000 0.000000 0.000000 0.000000 0.000000 -0.128342
#
#
# Mechanical properties :
#
#
# Convention : Reuss Voigt Hill
#
# Bulk Modulus (GPa) = 19.43741 26.32632 22.88187
# Shear Modulus (GPa) = 140.17890 21.76017 80.96954
#
# Velocity S-wave (km/s) = 8.60954 3.39211 6.54334
# Velocity P-wave (km/s) = 10.44559 5.40951 8.31784
#
# Compressibility (1/GPa) = 0.05144718
#
# Stress axis : x y z
#
# Youngs Moduli (GPa) = 38.86217 50.78789 103.60031
#
# Poissons Ratio (x) = -0.12202 0.59516
# Poissons Ratio (y) = -0.09337 -0.15838
# Poissons Ratio (z) = 0.22325 -0.07764
#
# Static dielectric constant tensor:
#      x y z
#    x 1.677490 0.000000 0.000000 
#    y 0.000000 1.693060 0.000000 
#    z 0.000000 0.000000 1.687200 
# 
# From -- ./inp_files/67366.got.cif
#   From: 2010.05.17/outbox.cif.g08.bks.cpg/sg71_34_cif.got.tgz:67366.got - 2010.06.03 16:22:01.
