data_PCOD9524165
_publ_section_title
;
Structure prediction by ZEFSAII (Michael W. Deem and Ramdas Pophale) SiO2 
 PCOD9524165
Probable space group: I M M M
;
_chemical_formula_sum "Si O2"
_cell_formula_units_Z 96
_cell_length_a 26.011237
_cell_length_b 8.689397
_cell_length_c 24.018933
_cell_angle_alpha 90.000000
_cell_angle_beta 90.000000
_cell_angle_gamma 90.000000
_cell_volume 5428.806428
_symmetry_space_group_name_H-M "I M M M"
_symmetry_group_IT_number 71
_symmetry_cell_setting 'orthorhombic'
loop_
_space_group_symop_operation_xyz
x,y,z
-x,-y,z
x,-y,-z
-x,y,-z
-x,-y,-z
x,y,-z
-x,y,z
x,-y,z
1/2+x,1/2+y,1/2+z
1/2-x,1/2-y,1/2+z
1/2+x,1/2-y,1/2-z
1/2-x,1/2+y,1/2-z
1/2-x,1/2-y,1/2-z
1/2+x,1/2+y,1/2-z
1/2-x,1/2+y,1/2+z
1/2+x,1/2-y,1/2+z
loop_
_atom_site_type_symbol
_atom_site_label
_atom_site_fract_x
_atom_site_fract_y
_atom_site_fract_z
Si Si1 0.843166 0.683589 0.623640
Si Si2 0.847248 0.815391 0.139550
Si Si3 0.255826 0.183882 0.564723
Si Si4 0.558993 0.314895 0.934907
Si Si5 0.807711 0.315822 0.252859
Si Si6 0.058643 0.812610 0.936429
O O1 0.837438 0.500000 0.618543
O O2 0.799926 0.764041 0.585946
O O3 0.898917 0.734875 0.603038
O O4 0.832188 0.726413 0.687730
O O5 0.798660 0.763866 0.102643
O O6 0.839639 0.747478 0.200787
O O7 0.898696 0.761870 0.107538
O O8 0.847890 0.000000 0.143025
O O9 0.262716 0.225242 0.500000
O O10 0.260455 0.000000 0.570281
O O11 0.500000 0.273380 0.921513
O O12 0.563592 0.500000 0.929976
O O13 0.568069 0.276348 0.000000
O O14 0.804866 0.500000 0.249320
O O15 0.750000 0.250000 0.250000
O O16 0.000000 0.764489 0.924074
O O17 0.059008 0.000000 0.936294
O O18 0.071252 0.764939 0.000000
#
# Coordination Sequence:
#
# PCOD9524165 Si02
#       6
#    16  16  16  16  16  16
#     4  11  23  37  56  82 110 143 187 234 281 331
#     4  11  21  34  56  84 111 143 185 232 280 331
#     4  11  23  36  53  79 112 147 181 224 280 339
#     4   9  19  37  60  85 114 148 184 224 276 337
#     4  11  23  39  57  78 108 149 190 230 279 333
#     4   8  15  30  53  81 112 144 179 223 274 326
#
# _framework density 17.683444999999999
#
# number of rings (size 3 to 8) (size 9 to 14) (size 15 to 20)
#    0.000    1.833    1.667    4.000    0.000    6.667 
#    0.000    1.667    0.000    5.000    0.000    5.833 
#    0.000    0.000    0.000    0.000    0.000    0.000 
#
# Total GULP energy -268087.173329 kJ/mol
# GULP energy per Si atom -5585.149444 kJ/mol
# Density = 1.764320 g / cm^3
# Si number density = 17.683445 Si / 1000 Ang^3
#
#
#
# Elastic Constant Matrix: (Units=GPa)
#
#
# Indices 1 2 3 4 5 6 
#
# 1 90.6393 15.3030 37.8896 0.0000 0.0000 0.0000
# 2 15.3030 29.9952 27.3523 0.0000 0.0000 0.0000
# 3 37.8896 27.3523 79.9667 0.0000 0.0000 0.0000
# 4 0.0000 0.0000 0.0000 30.8377 0.0000 0.0000
# 5 0.0000 0.0000 0.0000 0.0000 17.0239 0.0000
# 6 0.0000 0.0000 0.0000 0.0000 0.0000 19.0691
#
#
#
# Elastic Compliance Matrix: (Units=1/GPa)
#
#
# Indices 1 2 3 4 5 6 
#
# 1 0.013808 -0.001568 -0.006006 0.000000 0.000000 0.000000
# 2 -0.001568 0.048629 -0.015891 0.000000 0.000000 0.000000
# 3 -0.006006 -0.015891 0.020786 0.000000 0.000000 0.000000
# 4 0.000000 0.000000 0.000000 0.032428 0.000000 0.000000
# 5 0.000000 0.000000 0.000000 0.000000 0.058741 0.000000
# 6 0.000000 0.000000 0.000000 0.000000 0.000000 0.052441
#
#
# Mechanical properties :
#
#
# Convention : Reuss Voigt Hill
#
# Bulk Modulus (GPa) = 27.55236 40.18786 33.87011
# Shear Modulus (GPa) = 17.49106 21.38990 19.44048
#
# Velocity S-wave (km/s) = 3.14844 3.48170 3.31926
# Velocity P-wave (km/s) = 5.36951 6.24008 5.82109
#
# Compressibility (1/GPa) = 0.03629453
#
# Stress axis : x y z
#
# Youngs Moduli (GPa) = 72.42063 20.56390 48.10826
#
# Poissons Ratio (x) = 0.03223 0.28896
# Poissons Ratio (y) = 0.11352 0.76447
# Poissons Ratio (z) = 0.43499 0.32677
#
# Static dielectric constant tensor:
#      x y z
#    x 1.586630 0.000000 0.000000 
#    y 0.000000 1.601390 0.000000 
#    z 0.000000 0.000000 1.588660 
# 
# From -- ./inp_files/10874.got.cif
#   From: 2010.05.17/outbox.cif.g08.bks.cpg/sg71_6_cif.got.tgz:10874.got - 2010.06.03 16:22:01.
