data_PCOD9524223
_publ_section_title
;
Structure prediction by ZEFSAII (Michael W. Deem and Ramdas Pophale) SiO2 
 PCOD9524223
Probable space group: I M M M
;
_chemical_formula_sum "Si O2"
_cell_formula_units_Z 88
_cell_length_a 17.095769
_cell_length_b 27.495115
_cell_length_c 10.408246
_cell_angle_alpha 90.000000
_cell_angle_beta 90.000000
_cell_angle_gamma 90.000000
_cell_volume 4892.397434
_symmetry_space_group_name_H-M "I M M M"
_symmetry_group_IT_number 71
_symmetry_cell_setting 'orthorhombic'
loop_
_space_group_symop_operation_xyz
x,y,z
-x,-y,z
x,-y,-z
-x,y,-z
-x,-y,-z
x,y,-z
-x,y,z
x,-y,z
1/2+x,1/2+y,1/2+z
1/2-x,1/2-y,1/2+z
1/2+x,1/2-y,1/2-z
1/2-x,1/2+y,1/2-z
1/2-x,1/2-y,1/2-z
1/2+x,1/2+y,1/2-z
1/2-x,1/2+y,1/2+z
1/2+x,1/2-y,1/2+z
loop_
_atom_site_type_symbol
_atom_site_label
_atom_site_fract_x
_atom_site_fract_y
_atom_site_fract_z
Si Si1 0.093351 0.767574 0.500000
Si Si2 0.790293 0.199519 0.281129
Si Si3 0.092993 0.650306 0.500000
Si Si4 0.594155 0.058167 0.500000
Si Si5 0.676835 0.888533 0.260284
Si Si6 0.084023 0.855299 0.150250
Si Si7 0.176258 0.945010 0.844142
O O1 0.141234 0.790746 0.382921
O O2 0.104795 0.708905 0.500000
O O3 0.000000 0.776524 0.500000
O O4 0.750000 0.250000 0.250000
O O5 0.725206 0.158701 0.311976
O O6 0.841340 0.179032 0.164593
O O7 0.130091 0.628706 0.368186
O O8 0.000000 0.640995 0.500000
O O9 0.500000 0.061077 0.500000
O O10 0.627133 0.086014 0.626747
O O11 0.615024 0.000000 0.500000
O O12 0.741924 0.926658 0.212198
O O13 0.110833 0.907309 0.204256
O O14 0.000000 0.838351 0.202265
O O15 0.074805 0.862251 0.000000
O O16 0.159342 0.000000 0.807776
O O17 0.180776 0.942560 0.000000
#
# Coordination Sequence:
#
# PCOD9524223 Si02
#       7
#     8  16   8   8  16  16  16
#     4  11  23  39  57  84 117 157 200 245 302 359
#     4  11  22  35  60  83 116 151 200 241 297 357
#     4  11  22  37  60  87 118 154 198 259 305 354
#     4  11  25  44  62  84 122 164 201 255 323 378
#     4  11  21  40  61  87 119 154 206 249 305 368
#     4   9  19  34  52  78 115 150 183 229 284 343
#     4   9  17  30  55  85 110 143 188 238 287 342
#
# _framework density 17.987090999999999
#
# number of rings (size 3 to 8) (size 9 to 14) (size 15 to 20)
#    0.000    1.727    2.727    2.182    2.545    0.364 
#    0.000    1.818    0.000    2.182    0.000    0.000 
#    0.000   13.091    0.000    0.000    0.000    0.000 
#
# Total GULP energy -245017.913429 kJ/mol
# GULP energy per Si atom -5568.588942 kJ/mol
# Density = 1.794615 g / cm^3
# Si number density = 17.987091 Si / 1000 Ang^3
#
#
#
# Elastic Constant Matrix: (Units=GPa)
#
#
# Indices 1 2 3 4 5 6 
#
# 1 123.7298 61.3883 45.8530 0.0000 0.0001 0.0000
# 2 61.3883 118.0050 32.9214 0.0001 0.0000 0.0000
# 3 45.8530 32.9214 80.8658 0.0004 -0.0001 -0.0001
# 4 0.0000 0.0001 0.0004 19.9992 -0.0001 0.0000
# 5 0.0001 0.0000 -0.0001 -0.0001 25.3307 0.0000
# 6 0.0000 0.0000 -0.0001 0.0000 0.0000 21.1174
#
#
#
# Elastic Compliance Matrix: (Units=1/GPa)
#
#
# Indices 1 2 3 4 5 6 
#
# 1 0.012456 -0.005087 -0.004992 0.000000 0.000000 0.000000
# 2 -0.005087 0.011638 -0.001853 0.000000 0.000000 0.000000
# 3 -0.004992 -0.001853 0.015951 0.000000 0.000000 0.000000
# 4 0.000000 0.000000 0.000000 0.050002 0.000000 0.000000
# 5 0.000000 0.000000 0.000000 0.000000 0.039478 0.000000
# 6 0.000000 0.000000 0.000000 0.000000 0.000000 0.047354
#
#
# Mechanical properties :
#
#
# Convention : Reuss Voigt Hill
#
# Bulk Modulus (GPa) = 61.80364 66.99177 64.39771
# Shear Modulus (GPa) = 24.25572 25.45201 24.85386
#
# Velocity S-wave (km/s) = 3.67619 3.76575 3.72124
# Velocity P-wave (km/s) = 7.24249 7.49887 7.37180
#
# Compressibility (1/GPa) = 0.01618028
#
# Stress axis : x y z
#
# Youngs Moduli (GPa) = 80.28213 85.92760 62.69143
#
# Poissons Ratio (x) = 0.43713 0.31295
# Poissons Ratio (y) = 0.40841 0.11618
# Poissons Ratio (z) = 0.40076 0.15925
#
# Static dielectric constant tensor:
#      x y z
#    x 1.635860 0.000000 0.000000 
#    y 0.000000 1.622690 0.000000 
#    z 0.000000 0.000000 1.688730 
# 
# From -- ./inp_files/22369.got.cif
#   From: 2010.05.17/outbox.cif.g08.bks.cpg/sg71_12_cif.got.tgz:22369.got - 2010.06.03 16:22:01.
