data_PCOD9524410
_publ_section_title
;
Structure prediction by ZEFSAII (Michael W. Deem and Ramdas Pophale) SiO2 
 PCOD9524410
Probable space group: I M M M
;
_chemical_formula_sum "Si O2"
_cell_formula_units_Z 64
_cell_length_a 22.444795
_cell_length_b 8.708686
_cell_length_c 16.776402
_cell_angle_alpha 90.000000
_cell_angle_beta 90.000000
_cell_angle_gamma 90.000000
_cell_volume 3279.193914
_symmetry_space_group_name_H-M "I M M M"
_symmetry_group_IT_number 71
_symmetry_cell_setting 'orthorhombic'
loop_
_space_group_symop_operation_xyz
x,y,z
-x,-y,z
x,-y,-z
-x,y,-z
-x,-y,-z
x,y,-z
-x,y,z
x,-y,z
1/2+x,1/2+y,1/2+z
1/2-x,1/2-y,1/2+z
1/2+x,1/2-y,1/2-z
1/2-x,1/2+y,1/2-z
1/2-x,1/2-y,1/2-z
1/2+x,1/2+y,1/2-z
1/2-x,1/2+y,1/2+z
1/2+x,1/2-y,1/2+z
loop_
_atom_site_type_symbol
_atom_site_label
_atom_site_fract_x
_atom_site_fract_y
_atom_site_fract_z
Si Si1 0.360630 0.683059 0.348404
Si Si2 0.500000 0.682638 0.094903
Si Si3 0.928869 0.681878 0.000000
Si Si4 0.236386 0.182662 0.595227
Si Si5 0.617914 0.183358 0.175505
O O1 0.364242 0.500000 0.342144
O O2 0.399959 0.742536 0.422102
O O3 0.292896 0.734103 0.365975
O O4 0.381510 0.759937 0.266543
O O5 0.500000 0.500000 0.110258
O O6 0.441331 0.756712 0.132635
O O7 0.500000 0.706244 0.000000
O O8 0.914827 0.500000 0.000000
O O9 0.000000 0.700647 0.000000
O O10 0.237394 0.208045 0.500000
O O11 0.175543 0.245695 0.632119
O O12 0.240850 0.000000 0.609569
O O13 0.620809 0.000000 0.172388
#
# Coordination Sequence:
#
# PCOD9524410 Si02
#       5
#    16   8   8  16  16
#     4  12  25  43  68  98 134 173 223 273 327 391
#     4  11  25  47  71  98 133 172 219 271 331 393
#     4  11  25  45  69  97 135 176 219 270 332 394
#     4  11  23  42  68  97 134 174 219 273 333 392
#     4  12  26  43  67  97 134 174 221 273 330 392
#
# _framework density 19.516991999999998
#
# number of rings (size 3 to 8) (size 9 to 14) (size 15 to 20)
#    0.000    0.500    1.250    7.500    1.750    6.500 
#    0.000    0.000    0.000    0.000    0.000    0.000 
#    0.000    0.000    0.000    0.000    0.000    0.000 
#
# Total GULP energy -179276.764609 kJ/mol
# GULP energy per Si atom -5602.398894 kJ/mol
# Density = 1.947257 g / cm^3
# Si number density = 19.516992 Si / 1000 Ang^3
#
#
#
# Elastic Constant Matrix: (Units=GPa)
#
#
# Indices 1 2 3 4 5 6 
#
# 1 92.3428 20.5935 17.6343 0.0000 0.0000 0.0000
# 2 20.5935 93.2074 31.1003 0.0000 0.0000 0.0000
# 3 17.6343 31.1003 72.5812 0.0000 0.0000 0.0000
# 4 0.0000 0.0000 0.0000 36.3695 0.0000 0.0000
# 5 0.0000 0.0000 0.0000 0.0000 48.6021 0.0000
# 6 0.0000 0.0000 0.0000 0.0000 0.0000 -188.6601
#
#
#
# Elastic Compliance Matrix: (Units=1/GPa)
#
#
# Indices 1 2 3 4 5 6 
#
# 1 0.011637 -0.001899 -0.002014 0.000000 0.000000 0.000000
# 2 -0.001899 0.012829 -0.005035 0.000000 0.000000 0.000000
# 3 -0.002014 -0.005035 0.016425 0.000000 0.000000 0.000000
# 4 0.000000 0.000000 0.000000 0.027496 0.000000 0.000000
# 5 0.000000 0.000000 0.000000 0.000000 0.020575 0.000000
# 6 0.000000 0.000000 0.000000 0.000000 0.000000 -0.005301
#
#
# Mechanical properties :
#
#
# Convention : Reuss Voigt Hill
#
# Bulk Modulus (GPa) = 43.49009 44.08750 43.78879
# Shear Modulus (GPa) = 45.77839 -8.15080 18.81379
#
# Velocity S-wave (km/s) = 4.84836 -2.04581 3.10815
# Velocity P-wave (km/s) = 7.32623 4.13012 5.94691
#
# Compressibility (1/GPa) = 0.02299375
#
# Stress axis : x y z
#
# Youngs Moduli (GPa) = 85.93057 77.95100 60.88461
#
# Poissons Ratio (x) = 0.14805 0.12259
# Poissons Ratio (y) = 0.16321 0.30658
# Poissons Ratio (z) = 0.17303 0.39252
#
# Static dielectric constant tensor:
#      x y z
#    x 1.641350 0.000000 0.000000 
#    y 0.000000 1.649840 0.000000 
#    z 0.000000 0.000000 1.652270 
# 
# From -- ./inp_files/46808.got.cif
#   From: 2010.05.17/outbox.cif.g08.bks.cpg/sg71_24_cif.got.tgz:46808.got - 2010.06.03 16:22:01.
