data_PCOD9524769
_publ_section_title
;
Structure prediction by ZEFSAII (Michael W. Deem and Ramdas Pophale) SiO2 
 PCOD9524769
Probable space group: I M M M
;
_chemical_formula_sum "Si O2"
_cell_formula_units_Z 60
_cell_length_a 15.000000
_cell_length_b 30.000000
_cell_length_c 15.000000
_cell_angle_alpha 90.000000
_cell_angle_beta 90.000000
_cell_angle_gamma 90.000000
_cell_volume 6750.000000
_symmetry_space_group_name_H-M "I M M M"
_symmetry_group_IT_number 71
_symmetry_cell_setting 'orthorhombic'
loop_
_space_group_symop_operation_xyz
x,y,z
-x,-y,z
x,-y,-z
-x,y,-z
-x,-y,-z
x,y,-z
-x,y,z
x,-y,z
1/2+x,1/2+y,1/2+z
1/2-x,1/2-y,1/2+z
1/2+x,1/2-y,1/2-z
1/2-x,1/2+y,1/2-z
1/2-x,1/2-y,1/2-z
1/2+x,1/2+y,1/2-z
1/2-x,1/2+y,1/2+z
1/2+x,1/2-y,1/2+z
loop_
_atom_site_type_symbol
_atom_site_label
_atom_site_fract_x
_atom_site_fract_y
_atom_site_fract_z
Si Si1 0.605498 0.692791 0.361579
Si Si2 0.500000 0.553645 0.600969
Si Si3 0.323082 0.553542 0.713051
Si Si4 0.099629 0.783343 0.659892
Si Si5 0.602632 0.180770 0.224430
Si Si6 0.396280 0.554311 0.099546
Si Si7 0.764104 0.374357 0.603046
Si Si8 0.697619 0.789317 0.399980
O O1 0.500000 0.691543 0.388950
O O2 0.605316 0.690708 0.253854
O O3 0.671707 0.654228 0.394390
O O4 0.653985 0.739573 0.388278
O O5 0.500000 0.500000 0.592923
O O6 0.500000 0.572090 0.500000
O O7 0.413538 0.564265 0.658690
O O8 0.310151 0.500000 0.711100
O O9 0.338379 0.568195 0.815530
O O10 0.249568 0.580993 0.660389
O O11 0.099576 0.731475 0.688435
O O12 0.194246 0.789673 0.610362
O O13 0.000000 0.792820 0.619985
O O14 0.500000 0.165797 0.234434
O O15 0.659820 0.153607 0.153017
O O16 0.653783 0.182897 0.319256
O O17 0.500000 0.567476 0.112523
O O18 0.395884 0.500000 0.099906
O O19 0.368319 0.568848 0.000000
O O20 0.785192 0.383133 0.500000
O O21 0.675463 0.804514 0.500000
#
# Coordination Sequence:
#
# PCOD9524769 Si02
#       8
#    16   8  16  16  16  16  16  16
#     4  10  20  34  51  75 111 148 185 228 271 317
#     4   9  16  28  45  67  99 141 182 216 261 325
#     4  10  20  34  50  73 108 144 182 230 279 333
#     4   9  17  33  56  78 110 150 180 218 269 322
#     4  10  21  39  58  78 105 137 182 234 282 329
#     4   8  13  25  48  74  98 130 174 217 258 313
#     4  12  24  36  54  79 106 141 188 236 283 332
#     4  11  19  33  57  83 114 147 183 221 268 332
#
# _framework density 8.8888890000000007
#
# number of rings (size 3 to 8) (size 9 to 14) (size 15 to 20)
#    0.000    2.067    3.333    3.200    0.933    3.200 
#    0.000    2.000    0.000    0.400    0.000    0.933 
#    0.000    0.000    0.000    4.533    0.000    0.000 
#
# Total GULP energy -334603.166901 kJ/mol
# GULP energy per Si atom -5576.719448 kJ/mol
# Density = 0.886866 g / cm^3
# Si number density = 8.888889 Si / 1000 Ang^3
#
#
#
# Elastic Constant Matrix: (Units=GPa)
#
#
# Indices 1 2 3 4 5 6 
#
# 1 114.4358 16.6560 44.4382 0.0000 0.0000 0.0000
# 2 16.6560 29.1498 33.9069 0.0000 0.0000 0.0000
# 3 44.4382 33.9069 154.9299 0.0000 0.0000 0.0000
# 4 0.0000 0.0000 0.0000 18.3922 0.0000 0.0000
# 5 0.0000 0.0000 0.0000 0.0000 6.5981 0.0000
# 6 0.0000 0.0000 0.0000 0.0000 0.0000 10.3732
#
#
#
# Elastic Compliance Matrix: (Units=1/GPa)
#
#
# Indices 1 2 3 4 5 6 
#
# 1 0.010052 -0.003206 -0.002182 0.000000 0.000000 0.000000
# 2 -0.003206 0.047044 -0.009376 0.000000 0.000000 0.000000
# 3 -0.002182 -0.009376 0.009132 0.000000 0.000000 0.000000
# 4 0.000000 0.000000 0.000000 0.054371 0.000000 0.000000
# 5 0.000000 0.000000 0.000000 0.000000 0.151558 0.000000
# 6 0.000000 0.000000 0.000000 0.000000 0.000000 0.096403
#
#
# Mechanical properties :
#
#
# Convention : Reuss Voigt Hill
#
# Bulk Modulus (GPa) = 27.24753 54.27976 40.76365
# Shear Modulus (GPa) = 12.18558 20.64033 16.41296
#
# Velocity S-wave (km/s) = 2.62093 3.41107 3.04176
# Velocity P-wave (km/s) = 4.95167 6.79062 5.94271
#
# Compressibility (1/GPa) = 0.03670058
#
# Stress axis : x y z
#
# Youngs Moduli (GPa) = 99.47915 21.25686 109.50207
#
# Poissons Ratio (x) = 0.06815 0.23889
# Poissons Ratio (y) = 0.31895 1.02669
# Poissons Ratio (z) = 0.21702 0.19930
#
# Static dielectric constant tensor:
#      x y z
#    x 1.605620 0.000000 0.000000 
#    y 0.000000 1.621290 0.000000 
#    z 0.000000 0.000000 1.630240 
# 
# From -- ./inp_files/35448.got.cif
#   From: 2010.05.17/outbox.ucp.g08.bks.cvg/sg71_18_cif.got.tgz:35448.got - 2010.06.11 16:29:00.
