data_PCOD9524751
_publ_section_title
;
Structure prediction by ZEFSAII (Michael W. Deem and Ramdas Pophale) SiO2 
 PCOD9524751
Probable space group: I M M M
;
_chemical_formula_sum "Si O2"
_cell_formula_units_Z 36
_cell_length_a 30.000000
_cell_length_b 9.000000
_cell_length_c 15.000000
_cell_angle_alpha 90.000000
_cell_angle_beta 90.000000
_cell_angle_gamma 90.000000
_cell_volume 4050.000000
_symmetry_space_group_name_H-M "I M M M"
_symmetry_group_IT_number 71
_symmetry_cell_setting 'orthorhombic'
loop_
_space_group_symop_operation_xyz
x,y,z
-x,-y,z
x,-y,-z
-x,y,-z
-x,-y,-z
x,y,-z
-x,y,z
x,-y,z
1/2+x,1/2+y,1/2+z
1/2-x,1/2-y,1/2+z
1/2+x,1/2-y,1/2-z
1/2-x,1/2+y,1/2-z
1/2-x,1/2-y,1/2-z
1/2+x,1/2+y,1/2-z
1/2-x,1/2+y,1/2+z
1/2+x,1/2-y,1/2+z
loop_
_atom_site_type_symbol
_atom_site_label
_atom_site_fract_x
_atom_site_fract_y
_atom_site_fract_z
Si Si1 0.083605 0.831130 0.100691
Si Si2 0.000000 0.325725 0.896080
Si Si3 0.766173 0.323706 0.098771
Si Si4 0.669115 0.176774 0.098338
Si Si5 0.832823 0.169404 0.772796
O O1 0.045207 0.734176 0.144225
O O2 0.128081 0.830415 0.155926
O O3 0.066984 0.000000 0.096389
O O4 0.092793 0.778406 0.000000
O O5 0.000000 0.500000 0.897457
O O6 0.000000 0.271462 0.000000
O O7 0.758612 0.500000 0.104450
O O8 0.719973 0.235100 0.099590
O O9 0.794896 0.268067 0.181469
O O10 0.786906 0.294516 0.000000
O O11 0.648907 0.261791 0.181730
O O12 0.668021 0.000000 0.110362
O O13 0.650759 0.212094 0.000000
O O14 0.817268 0.000000 0.758963
#
# Coordination Sequence:
#
# PCOD9524751 Si02
#       5
#    16   8  16  16  16
#     4   9  18  32  49  70  98 130 158 184 222 276
#     4   9  17  29  47  71  98 127 156 187 223 266
#     4  10  20  33  49  69  95 127 161 198 239 283
#     4  10  21  36  51  66  89 124 164 204 244 285
#     4  11  21  32  49  72  97 125 159 199 239 281
#
# _framework density 8.8888890000000007
#
# number of rings (size 3 to 8) (size 9 to 14) (size 15 to 20)
#    0.000    2.111    0.000    3.667    0.000    6.667 
#    0.000    2.222    0.000    0.000    0.000    0.778 
#    0.000    6.222    0.000    0.000    0.000    0.000 
#
# Total GULP energy -200526.761841 kJ/mol
# GULP energy per Si atom -5570.187829 kJ/mol
# Density = 0.886866 g / cm^3
# Si number density = 8.888889 Si / 1000 Ang^3
#
#
#
# Elastic Constant Matrix: (Units=GPa)
#
#
# Indices 1 2 3 4 5 6 
#
# 1 27.2455 10.6376 11.7082 0.0000 0.0000 0.0000
# 2 10.6376 36.3356 31.6472 0.0000 0.0000 0.0000
# 3 11.7082 31.6472 95.1907 0.0000 0.0000 0.0000
# 4 0.0000 0.0000 0.0000 25.2175 0.0000 0.0000
# 5 0.0000 0.0000 0.0000 0.0000 -39.3567 0.0000
# 6 0.0000 0.0000 0.0000 0.0000 0.0000 1.4456
#
#
#
# Elastic Compliance Matrix: (Units=1/GPa)
#
#
# Indices 1 2 3 4 5 6 
#
# 1 0.041592 -0.010868 -0.001503 0.000000 0.000000 0.000000
# 2 -0.010868 0.041578 -0.012486 0.000000 0.000000 0.000000
# 3 -0.001503 -0.012486 0.014841 0.000000 0.000000 0.000000
# 4 0.000000 0.000000 0.000000 0.039655 0.000000 0.000000
# 5 0.000000 0.000000 0.000000 0.000000 -0.025409 0.000000
# 6 0.000000 0.000000 0.000000 0.000000 0.000000 0.691740
#
#
# Mechanical properties :
#
#
# Convention : Reuss Voigt Hill
#
# Bulk Modulus (GPa) = 20.70478 29.63974 25.17226
# Shear Modulus (GPa) = 5.74837 4.44654 5.09746
#
# Velocity S-wave (km/s) = 1.80013 1.58323 1.69515
# Velocity P-wave (km/s) = 3.99905 4.47780 4.24518
#
# Compressibility (1/GPa) = 0.04829803
#
# Stress axis : x y z
#
# Youngs Moduli (GPa) = 24.04299 24.05109 67.37958
#
# Poissons Ratio (x) = 0.26138 0.10125
# Poissons Ratio (y) = 0.26129 0.84133
# Poissons Ratio (z) = 0.03613 0.30031
#
# Static dielectric constant tensor:
#      x y z
#    x 1.604370 0.000000 0.000000 
#    y 0.000000 1.610830 0.000000 
#    z 0.000000 0.000000 1.666850 
# 
# From -- ./inp_files/6041.got.cif
#   From: 2010.05.17/outbox.ucp.g08.bks.cvg/sg71_4_cif.got.tgz:6041.got - 2010.06.11 16:29:00.
