data_PCOD9524394
_publ_section_title
;
Structure prediction by ZEFSAII (Michael W. Deem and Ramdas Pophale) SiO2 
 PCOD9524394
Probable space group: I M M M
;
_chemical_formula_sum "Si O2"
_cell_formula_units_Z 88
_cell_length_a 22.507607
_cell_length_b 9.543070
_cell_length_c 21.675238
_cell_angle_alpha 90.000000
_cell_angle_beta 90.000000
_cell_angle_gamma 90.000000
_cell_volume 4655.660549
_symmetry_space_group_name_H-M "I M M M"
_symmetry_group_IT_number 71
_symmetry_cell_setting 'orthorhombic'
loop_
_space_group_symop_operation_xyz
x,y,z
-x,-y,z
x,-y,-z
-x,y,-z
-x,-y,-z
x,y,-z
-x,y,z
x,-y,z
1/2+x,1/2+y,1/2+z
1/2-x,1/2-y,1/2+z
1/2+x,1/2-y,1/2-z
1/2-x,1/2+y,1/2-z
1/2-x,1/2-y,1/2-z
1/2+x,1/2+y,1/2-z
1/2-x,1/2+y,1/2+z
1/2+x,1/2-y,1/2+z
loop_
_atom_site_type_symbol
_atom_site_label
_atom_site_fract_x
_atom_site_fract_y
_atom_site_fract_z
Si Si1 0.430523 0.500000 0.926836
Si Si2 0.871254 0.330291 0.129864
Si Si3 0.570323 0.000000 0.070710
Si Si4 0.742565 0.329790 0.684072
Si Si5 0.931597 0.330872 0.000000
Si Si6 0.870631 0.250338 0.641281
Si Si7 0.568635 0.337628 0.266960
O O1 0.500000 0.500000 0.903559
O O2 0.391020 0.373642 0.902623
O O3 0.434555 0.500000 0.000000
O O4 0.863462 0.500000 0.135111
O O5 0.812296 0.244459 0.149124
O O6 0.919198 0.270641 0.178262
O O7 0.895393 0.294672 0.061762
O O8 0.591712 0.872938 0.111762
O O9 0.500000 0.000000 0.065826
O O10 0.594053 0.000000 0.000000
O O11 0.735879 0.500000 0.691384
O O12 0.750000 0.250000 0.750000
O O13 0.802473 0.296265 0.646134
O O14 0.935677 0.500000 0.000000
O O15 0.000000 0.277520 0.000000
O O16 0.891005 0.206718 0.709669
O O17 0.500000 0.331626 0.247986
O O18 0.581703 0.500000 0.284434
#
# Coordination Sequence:
#
# PCOD9524394 Si02
#       7
#     8  16   8  16   8  16  16
#     4  11  24  44  69  98 132 175 222 269 327 393
#     4  11  24  42  69 101 130 177 222 272 341 397
#     4  11  24  44  67  94 132 171 214 269 331 395
#     4  12  26  45  66  94 135 176 222 277 332 398
#     4   9  20  44  71 101 139 175 220 275 332 401
#     4  12  24  42  64  96 130 172 221 270 330 393
#     4  11  23  39  63  97 134 168 216 278 337 396
#
# _framework density 18.901720999999998
#
# number of rings (size 3 to 8) (size 9 to 14) (size 15 to 20)
#    0.000    0.818    3.636    3.818    3.818    2.545 
#    3.273    1.818    0.000    3.273    0.000    0.000 
#    0.000    0.000    0.000    0.000    0.000    0.000 
#
# Total GULP energy -245520.356663 kJ/mol
# GULP energy per Si atom -5580.008106 kJ/mol
# Density = 1.885870 g / cm^3
# Si number density = 18.901721 Si / 1000 Ang^3
#
#
#
# Elastic Constant Matrix: (Units=GPa)
#
#
# Indices 1 2 3 4 5 6 
#
# 1 121.9530 44.5406 38.7121 0.0000 0.0000 0.0000
# 2 44.5406 157.3199 41.4475 0.0000 0.0000 0.0000
# 3 38.7121 41.4475 111.5083 0.0000 0.0000 0.0000
# 4 0.0000 0.0000 0.0000 37.1610 0.0000 0.0000
# 5 0.0000 0.0000 0.0000 0.0000 39.0926 0.0000
# 6 0.0000 0.0000 0.0000 0.0000 0.0000 50.1758
#
#
#
# Elastic Compliance Matrix: (Units=1/GPa)
#
#
# Indices 1 2 3 4 5 6 
#
# 1 0.009794 -0.002081 -0.002627 0.000000 0.000000 0.000000
# 2 -0.002081 0.007489 -0.002061 0.000000 0.000000 0.000000
# 3 -0.002627 -0.002061 0.010646 0.000000 0.000000 0.000000
# 4 0.000000 0.000000 0.000000 0.026910 0.000000 0.000000
# 5 0.000000 0.000000 0.000000 0.000000 0.025580 0.000000
# 6 0.000000 0.000000 0.000000 0.000000 0.000000 0.019930
#
#
# Mechanical properties :
#
#
# Convention : Reuss Voigt Hill
#
# Bulk Modulus (GPa) = 69.48721 71.13129 70.30925
# Shear Modulus (GPa) = 42.12925 43.02461 42.57693
#
# Velocity S-wave (km/s) = 4.72620 4.77616 4.75124
# Velocity P-wave (km/s) = 8.16240 8.25406 8.20836
#
# Compressibility (1/GPa) = 0.01439114
#
# Stress axis : x y z
#
# Youngs Moduli (GPa) = 102.10738 133.53610 93.93259
#
# Poissons Ratio (x) = 0.27786 0.24672
# Poissons Ratio (y) = 0.21246 0.19361
# Poissons Ratio (z) = 0.26820 0.27524
#
# Static dielectric constant tensor:
#      x y z
#    x 1.666710 0.000000 0.000000 
#    y 0.000000 1.928600 0.000000 
#    z 0.000000 0.000000 1.645940 
# 
# From -- ./inp_files/55618.got.cif
#   From: 2010.05.17/outbox.cif.g08.bks.cpg/sg71_28_cif.got.tgz:55618.got - 2010.06.03 16:22:01.
