data_PCOD9524922
_publ_section_title
;
Structure prediction by ZEFSAII (Michael W. Deem and Ramdas Pophale) SiO2 
 PCOD9524922
Probable space group: I B A M
;
_chemical_formula_sum "Si O2"
_cell_formula_units_Z 88
_cell_length_a 13.280818
_cell_length_b 20.498542
_cell_length_c 14.873029
_cell_angle_alpha 90.000000
_cell_angle_beta 90.000000
_cell_angle_gamma 90.000000
_cell_volume 4048.994828
_symmetry_space_group_name_H-M "I B A M"
_symmetry_group_IT_number 72
_symmetry_cell_setting 'orthorhombic'
loop_
_space_group_symop_operation_xyz
x,y,z
-x,-y,z
x,-y,1/2-z
-x,y,1/2-z
-x,-y,-z
x,y,-z
-x,y,1/2+z
x,-y,1/2+z
1/2+x,1/2+y,1/2+z
1/2-x,1/2-y,1/2+z
1/2+x,1/2-y,-z
1/2-x,1/2+y,-z
1/2-x,1/2-y,1/2-z
1/2+x,1/2+y,1/2-z
1/2-x,1/2+y,z
1/2+x,1/2-y,z
loop_
_atom_site_type_symbol
_atom_site_label
_atom_site_fract_x
_atom_site_fract_y
_atom_site_fract_z
Si Si1 0.578646 0.141606 0.898055
Si Si2 0.373088 0.798162 0.390643
Si Si3 0.390200 0.482082 0.854318
Si Si4 0.306270 0.064289 0.895064
Si Si5 0.802127 0.157305 0.890441
Si Si6 0.000000 0.500000 0.365250
O O1 0.483196 0.179025 0.858108
O O2 0.687807 0.149282 0.855827
O O3 0.551242 0.065314 0.903876
O O4 0.588109 0.166875 0.000000
O O5 0.377001 0.794124 0.500000
O O6 0.298430 0.859042 0.372760
O O7 0.342820 0.726973 0.358397
O O8 0.500000 0.500000 0.892785
O O9 0.392498 0.500000 0.750000
O O10 0.296146 0.523914 0.891184
O O11 0.366104 0.405816 0.864317
O O12 0.395953 0.035275 0.833188
O O13 0.343151 0.059811 0.000000
O O14 0.800601 0.156861 0.000000
#
# Coordination Sequence:
#
# PCOD9524922 Si02
#       6
#    16  16  16  16  16   8
#     4   9  15  25  47  78 112 141 171 220 281 329
#     4   8  17  30  51  87 121 141 171 226 289 339
#     4  11  25  41  54  74 111 157 198 237 282 326
#     4  10  18  33  59  87 111 143 185 231 281 338
#     4  10  19  34  57  84 111 145 187 231 282 342
#     4  10  15  26  53  86 111 136 175 230 285 330
#
# _framework density 21.733789000000002
#
# number of rings (size 3 to 8) (size 9 to 14) (size 15 to 20)
#    0.000    2.364    1.818    3.273    0.000    2.909 
#    0.000    5.000    0.000    0.000    0.000    0.000 
#    0.000    0.000    0.000    0.000    0.000    0.000 
#
# Total GULP energy -245060.442059 kJ/mol
# GULP energy per Si atom -5569.555501 kJ/mol
# Density = 2.168432 g / cm^3
# Si number density = 21.733789 Si / 1000 Ang^3
#
#
#
# Elastic Constant Matrix: (Units=GPa)
#
#
# Indices 1 2 3 4 5 6 
#
# 1 149.0044 111.6675 -9.3561 -0.0001 0.0000 0.0000
# 2 111.6675 228.9059 14.6362 -0.0002 0.0000 0.0000
# 3 -9.3561 14.6362 48.5341 -0.0006 0.0000 0.0000
# 4 -0.0001 -0.0002 -0.0006 -71.7927 0.0001 0.0000
# 5 0.0000 0.0000 0.0000 0.0001 31.0040 0.0000
# 6 0.0000 0.0000 0.0000 0.0000 0.0000 35.4046
#
#
#
# Elastic Compliance Matrix: (Units=1/GPa)
#
#
# Indices 1 2 3 4 5 6 
#
# 1 0.011260 -0.005742 0.003902 0.000000 0.000000 0.000000
# 2 -0.005742 0.007383 -0.003333 0.000000 0.000000 0.000000
# 3 0.003902 -0.003333 0.022362 0.000000 0.000000 0.000000
# 4 0.000000 0.000000 0.000000 -0.013929 0.000000 0.000000
# 5 0.000000 0.000000 0.000000 0.000000 0.032254 0.000000
# 6 0.000000 0.000000 0.000000 0.000000 0.000000 0.028245
#
#
# Mechanical properties :
#
#
# Convention : Reuss Voigt Hill
#
# Bulk Modulus (GPa) = 32.61870 73.37106 52.99488
# Shear Modulus (GPa) = 46.23623 19.55629 32.89626
#
# Velocity S-wave (km/s) = 4.61737 3.00294 3.89472
# Velocity P-wave (km/s) = 6.59300 6.77169 6.68294
#
# Compressibility (1/GPa) = 0.03065726
#
# Stress axis : x y z
#
# Youngs Moduli (GPa) = 88.81251 135.44564 44.71956
#
# Poissons Ratio (x) = 0.77777 -0.17451
# Poissons Ratio (y) = 0.50999 0.14907
# Poissons Ratio (z) = -0.34657 0.45150
#
# Static dielectric constant tensor:
#      x y z
#    x 1.803340 0.000000 0.000000 
#    y 0.000000 1.770330 0.000000 
#    z 0.000000 0.000000 2.057170 
# 
# From -- ./inp_files/36857.got.cif
#   From: 2010.05.17/outbox.cif.g08.bks.cpg/sg72_19_cif.got.tgz:36857.got - 2010.06.03 17:03:01.
