data_PCOD9524219
_publ_section_title
;
Structure prediction by ZEFSAII (Michael W. Deem and Ramdas Pophale) SiO2 
 PCOD9524219
Probable space group: I M M M
;
_chemical_formula_sum "Si O2"
_cell_formula_units_Z 56
_cell_length_a 17.316998
_cell_length_b 8.614149
_cell_length_c 19.002593
_cell_angle_alpha 90.000000
_cell_angle_beta 90.000000
_cell_angle_gamma 90.000000
_cell_volume 2834.639620
_symmetry_space_group_name_H-M "I M M M"
_symmetry_group_IT_number 71
_symmetry_cell_setting 'orthorhombic'
loop_
_space_group_symop_operation_xyz
x,y,z
-x,-y,z
x,-y,-z
-x,y,-z
-x,-y,-z
x,y,-z
-x,y,z
x,-y,z
1/2+x,1/2+y,1/2+z
1/2-x,1/2-y,1/2+z
1/2+x,1/2-y,1/2-z
1/2-x,1/2+y,1/2-z
1/2-x,1/2-y,1/2-z
1/2+x,1/2+y,1/2-z
1/2-x,1/2+y,1/2+z
1/2+x,1/2-y,1/2+z
loop_
_atom_site_type_symbol
_atom_site_label
_atom_site_fract_x
_atom_site_fract_y
_atom_site_fract_z
Si Si1 0.698679 0.813860 0.918400
Si Si2 0.500000 0.811285 0.419605
Si Si3 0.846485 0.313389 0.835652
Si Si4 0.910750 0.814042 0.693518
O O1 0.772120 0.752433 0.874962
O O2 0.623673 0.747460 0.879349
O O3 0.697431 0.000000 0.915458
O O4 0.703636 0.765618 0.000000
O O5 0.500000 0.756595 0.500000
O O6 0.422936 0.763713 0.378863
O O7 0.500000 0.000000 0.420642
O O8 0.842135 0.500000 0.834719
O O9 0.859096 0.252832 0.756843
O O10 0.000000 0.765786 0.703567
O O11 0.907014 0.000000 0.695176
#
# Coordination Sequence:
#
# PCOD9524219 Si02
#       4
#    16   8  16  16
#     4  11  25  43  63  90 125 164 207 256 311 368
#     4   9  18  32  55  89 124 159 198 243 297 356
#     4  11  21  38  64  92 126 163 205 254 303 366
#     4  11  24  42  65  92 124 162 207 257 309 368
#
# _framework density 19.755597999999999
#
# number of rings (size 3 to 8) (size 9 to 14) (size 15 to 20)
#    0.000    1.286    1.429    4.286    0.000    5.714 
#    0.000    2.857    0.000    3.429    0.000    0.000 
#    0.000    0.000    0.000    0.000    0.000    0.000 
#
# Total GULP energy -156620.074003 kJ/mol
# GULP energy per Si atom -5593.574072 kJ/mol
# Density = 1.971063 g / cm^3
# Si number density = 19.755598 Si / 1000 Ang^3
#
#
#
# Elastic Constant Matrix: (Units=GPa)
#
#
# Indices 1 2 3 4 5 6 
#
# 1 59.7401 17.0446 61.8892 0.0000 0.0000 0.0000
# 2 17.0446 47.5701 38.2116 0.0000 0.0000 0.0000
# 3 61.8892 38.2116 147.7570 0.0000 0.0000 0.0000
# 4 0.0000 0.0000 0.0000 28.9758 0.0000 0.0000
# 5 0.0000 0.0000 0.0000 0.0000 12.0046 0.0000
# 6 0.0000 0.0000 0.0000 0.0000 0.0000 27.8106
#
#
#
# Elastic Compliance Matrix: (Units=1/GPa)
#
#
# Indices 1 2 3 4 5 6 
#
# 1 0.029596 -0.000816 -0.012185 0.000000 0.000000 0.000000
# 2 -0.000816 0.026556 -0.006526 0.000000 0.000000 0.000000
# 3 -0.012185 -0.006526 0.013559 0.000000 0.000000 0.000000
# 4 0.000000 0.000000 0.000000 0.034512 0.000000 0.000000
# 5 0.000000 0.000000 0.000000 0.000000 0.083301 0.000000
# 6 0.000000 0.000000 0.000000 0.000000 0.000000 0.035958
#
#
# Mechanical properties :
#
#
# Convention : Reuss Voigt Hill
#
# Bulk Modulus (GPa) = 32.61947 54.37311 43.49629
# Shear Modulus (GPa) = 18.33147 22.95299 20.64223
#
# Velocity S-wave (km/s) = 3.04947 3.41229 3.23597
# Velocity P-wave (km/s) = 5.38018 6.56564 6.00225
#
# Compressibility (1/GPa) = 0.03065654
#
# Stress axis : x y z
#
# Youngs Moduli (GPa) = 33.78866 37.65622 73.74939
#
# Poissons Ratio (x) = 0.03073 0.89866
# Poissons Ratio (y) = 0.02758 0.48128
# Poissons Ratio (z) = 0.41173 0.24574
#
# Static dielectric constant tensor:
#      x y z
#    x 1.680660 0.000000 0.000000 
#    y 0.000000 1.660540 0.000000 
#    z 0.000000 0.000000 1.678020 
# 
# From -- ./inp_files/7209.got.cif
#   From: 2010.05.17/outbox.cif.g08.bks.cpg/sg71_4_cif.got.tgz:7209.got - 2010.06.03 16:22:01.
