data_PCOD9524440
_publ_section_title
;
Structure prediction by ZEFSAII (Michael W. Deem and Ramdas Pophale) SiO2 
 PCOD9524440
Probable space group: I M M M
;
_chemical_formula_sum "Si O2"
_cell_formula_units_Z 116
_cell_length_a 7.473954
_cell_length_b 26.648965
_cell_length_c 23.922301
_cell_angle_alpha 90.000000
_cell_angle_beta 90.000000
_cell_angle_gamma 90.000000
_cell_volume 4764.679772
_symmetry_space_group_name_H-M "I M M M"
_symmetry_group_IT_number 71
_symmetry_cell_setting 'orthorhombic'
loop_
_space_group_symop_operation_xyz
x,y,z
-x,-y,z
x,-y,-z
-x,y,-z
-x,-y,-z
x,y,-z
-x,y,z
x,-y,z
1/2+x,1/2+y,1/2+z
1/2-x,1/2-y,1/2+z
1/2+x,1/2-y,1/2-z
1/2-x,1/2+y,1/2-z
1/2-x,1/2-y,1/2-z
1/2+x,1/2+y,1/2-z
1/2-x,1/2+y,1/2+z
1/2+x,1/2-y,1/2+z
loop_
_atom_site_type_symbol
_atom_site_label
_atom_site_fract_x
_atom_site_fract_y
_atom_site_fract_z
Si Si1 0.500000 0.500000 0.221295
Si Si2 0.783900 0.874561 0.936128
Si Si3 0.294331 0.845904 0.240463
Si Si4 0.282021 0.299142 0.061316
Si Si5 0.790444 0.718658 0.644166
Si Si6 0.782444 0.942509 0.163324
Si Si7 0.215952 0.083992 0.439699
Si Si8 0.706561 0.076285 0.683305
O O1 0.344495 0.542325 0.215444
O O2 0.719370 0.826423 0.901122
O O3 0.737985 0.923524 0.899289
O O4 0.000000 0.871696 0.936681
O O5 0.720856 0.875234 0.000000
O O6 0.500000 0.831695 0.248330
O O7 0.210068 0.802680 0.202049
O O8 0.284877 0.896423 0.201722
O O9 0.233066 0.866737 0.300451
O O10 0.500000 0.297702 0.062390
O O11 0.212491 0.266482 0.112550
O O12 0.232087 0.357396 0.062761
O O13 0.227862 0.278785 0.000000
O O14 0.000000 0.728945 0.654555
O O15 0.000000 0.943954 0.169056
O O16 0.721903 0.000000 0.172932
O O17 0.275377 0.063719 0.500000
O O18 0.280406 0.062274 0.381643
O O19 0.000000 0.080527 0.438744
O O20 0.500000 0.070247 0.699601
#
# Coordination Sequence:
#
# PCOD9524440 Si02
#       8
#     4  16  16  16  16  16  16  16
#     4  12  26  44  69  96 120 162 203 250 298 354
#     4   9  17  28  40  60  94 131 170 227 292 344
#     4   9  20  34  50  75 111 146 182 242 297 341
#     4   8  14  26  52  86 114 150 202 248 289 351
#     4   9  16  30  50  75 107 146 192 239 289 341
#     4   9  18  29  45  65  86 125 179 228 281 350
#     4   9  18  37  63  90 122 158 195 239 293 355
#     4  11  24  42  64  94 125 156 200 246 298 360
#
# _framework density 24.345811000000001
#
# number of rings (size 3 to 8) (size 9 to 14) (size 15 to 20)
#    0.000    2.759    0.690    1.448    1.931    1.655 
#    0.000    3.448    0.000    1.655    0.000    3.862 
#    0.000    0.000    0.000    0.000    0.000    0.000 
#
# Total GULP energy -323230.345947 kJ/mol
# GULP energy per Si atom -5572.936999 kJ/mol
# Density = 2.429040 g / cm^3
# Si number density = 24.345811 Si / 1000 Ang^3
#
#
#
# Elastic Constant Matrix: (Units=GPa)
#
#
# Indices 1 2 3 4 5 6 
#
# 1 92.7883 3.9152 7.7537 0.0000 0.0000 0.0000
# 2 3.9152 55.9684 9.1880 0.0000 0.0000 0.0000
# 3 7.7537 9.1880 103.4290 -0.0001 0.0000 0.0000
# 4 0.0000 0.0000 -0.0001 -37.5795 0.0000 0.0000
# 5 0.0000 0.0000 0.0000 0.0000 9.1811 0.0000
# 6 0.0000 0.0000 0.0000 0.0000 0.0000 2.5602
#
#
#
# Elastic Compliance Matrix: (Units=1/GPa)
#
#
# Indices 1 2 3 4 5 6 
#
# 1 0.010867 -0.000636 -0.000758 0.000000 0.000000 0.000000
# 2 -0.000636 0.018169 -0.001566 0.000000 0.000000 0.000000
# 3 -0.000758 -0.001566 0.009864 0.000000 0.000000 0.000000
# 4 0.000000 0.000000 0.000000 -0.026610 0.000000 0.000000
# 5 0.000000 0.000000 0.000000 0.000000 0.108919 0.000000
# 6 0.000000 0.000000 0.000000 0.000000 0.000000 0.390596
#
#
# Mechanical properties :
#
#
# Convention : Reuss Voigt Hill
#
# Bulk Modulus (GPa) = 30.32133 32.65548 31.48841
# Shear Modulus (GPa) = 9.45680 10.25428 9.85554
#
# Velocity S-wave (km/s) = 1.97302 2.05452 2.01418
# Velocity P-wave (km/s) = 4.20379 4.36697 4.28616
#
# Compressibility (1/GPa) = 0.03298009
#
# Stress axis : x y z
#
# Youngs Moduli (GPa) = 92.01826 55.03934 101.37407
#
# Poissons Ratio (x) = 0.03499 0.07686
# Poissons Ratio (y) = 0.05850 0.15879
# Poissons Ratio (z) = 0.06977 0.08621
#
# Static dielectric constant tensor:
#      x y z
#    x 1.903010 0.000000 0.000000 
#    y 0.000000 1.966730 0.000000 
#    z 0.000000 0.000000 2.023330 
# 
# From -- ./inp_files/58074.got.cif
#   From: 2010.05.17/outbox.cif.g08.bks.cpg/sg71_30_cif.got.tgz:58074.got - 2010.06.03 16:22:01.
