data_PCOD9524637
_publ_section_title
;
Structure prediction by ZEFSAII (Michael W. Deem and Ramdas Pophale) SiO2 
 PCOD9524637
Probable space group: I M M M
;
_chemical_formula_sum "Si O2"
_cell_formula_units_Z 72
_cell_length_a 38.011805
_cell_length_b 15.176553
_cell_length_c 7.437993
_cell_angle_alpha 90.000000
_cell_angle_beta 90.000000
_cell_angle_gamma 90.000000
_cell_volume 4290.890194
_symmetry_space_group_name_H-M "I M M M"
_symmetry_group_IT_number 71
_symmetry_cell_setting 'orthorhombic'
loop_
_space_group_symop_operation_xyz
x,y,z
-x,-y,z
x,-y,-z
-x,y,-z
-x,-y,-z
x,y,-z
-x,y,z
x,-y,z
1/2+x,1/2+y,1/2+z
1/2-x,1/2-y,1/2+z
1/2+x,1/2-y,1/2-z
1/2-x,1/2+y,1/2-z
1/2-x,1/2-y,1/2-z
1/2+x,1/2+y,1/2-z
1/2-x,1/2+y,1/2+z
1/2+x,1/2-y,1/2+z
loop_
_atom_site_type_symbol
_atom_site_label
_atom_site_fract_x
_atom_site_fract_y
_atom_site_fract_z
Si Si1 0.665413 0.217175 0.219939
Si Si2 0.097566 0.604007 0.286034
Si Si3 0.188081 0.901647 0.289245
Si Si4 0.460189 0.106567 0.500000
Si Si5 0.269231 0.100471 0.216981
O O1 0.630955 0.162321 0.269989
O O2 0.667032 0.318018 0.283714
O O3 0.700656 0.166467 0.279495
O O4 0.666195 0.217792 0.000000
O O5 0.092198 0.613940 0.500000
O O6 0.104893 0.500000 0.252410
O O7 0.063160 0.629879 0.173612
O O8 0.179500 0.907521 0.500000
O O9 0.229610 0.879288 0.276253
O O10 0.183230 0.000000 0.211439
O O11 0.500000 0.141053 0.500000
O O12 0.462486 0.000000 0.500000
O O13 0.277255 0.000000 0.273080
O O14 0.269113 0.102095 0.000000
#
# Coordination Sequence:
#
# PCOD9524637 Si02
#       5
#    16  16  16   8  16
#     4   9  16  27  42  58  80 111 145 180 221 264
#     4   9  17  30  47  67  92 120 148 178 214 256
#     4   9  17  28  39  54  79 109 144 187 227 261
#     4   9  18  32  48  70  99 123 145 173 208 262
#     4   9  16  26  39  54  75 106 144 184 223 263
#
# _framework density 16.779734000000001
#
# number of rings (size 3 to 8) (size 9 to 14) (size 15 to 20)
#    0.000    3.000    0.000    1.333    0.000    3.111 
#    4.000    2.222    0.000    0.000    0.000    0.000 
#    0.000    1.778    0.000    8.667    0.000    0.222 
#
# Total GULP energy -200713.409653 kJ/mol
# GULP energy per Si atom -5575.372490 kJ/mol
# Density = 1.674154 g / cm^3
# Si number density = 16.779734 Si / 1000 Ang^3
#
#
#
# Elastic Constant Matrix: (Units=GPa)
#
#
# Indices 1 2 3 4 5 6 
#
# 1 91.5707 78.5396 22.2861 0.0001 0.0001 0.0000
# 2 78.5396 100.7580 26.2852 0.0001 0.0001 0.0000
# 3 22.2861 26.2852 57.5442 0.0004 0.0003 0.0000
# 4 0.0001 0.0001 0.0004 1.7246 0.0002 0.0000
# 5 0.0001 0.0001 0.0003 0.0002 19.5928 0.0000
# 6 0.0000 0.0000 0.0000 0.0000 0.0000 10.0716
#
#
#
# Elastic Compliance Matrix: (Units=1/GPa)
#
#
# Indices 1 2 3 4 5 6 
#
# 1 0.033018 -0.025432 -0.001171 -0.000001 0.000000 0.000000
# 2 -0.025432 0.030856 -0.004245 0.000002 0.000000 0.000000
# 3 -0.001171 -0.004245 0.019770 -0.000005 0.000000 0.000000
# 4 -0.000001 0.000002 -0.000005 0.579858 -0.000006 -0.000002
# 5 0.000000 0.000000 0.000000 -0.000006 0.051039 0.000000
# 6 0.000000 0.000000 0.000000 -0.000002 0.000000 0.099289
#
#
# Mechanical properties :
#
#
# Convention : Reuss Voigt Hill
#
# Bulk Modulus (GPa) = 45.55936 56.01055 50.78495
# Shear Modulus (GPa) = 5.66352 14.46191 10.06272
#
# Velocity S-wave (km/s) = 1.83917 2.93894 2.45152
# Velocity P-wave (km/s) = 5.63209 6.70588 6.19230
#
# Compressibility (1/GPa) = 0.02194939
#
# Stress axis : x y z
#
# Youngs Moduli (GPa) = 30.28625 32.40849 50.58066
#
# Poissons Ratio (x) = 0.82421 0.05921
# Poissons Ratio (y) = 0.77024 0.21472
# Poissons Ratio (z) = 0.03545 0.13758
#
# Static dielectric constant tensor:
#      x y z
#    x 1.528330 0.000000 0.000000 
#    y 0.000000 1.590000 0.000000 
#    z 0.000000 0.000000 1.613570 
# 
# From -- ./inp_files/6462.got.cif
#   From: 2010.05.17/outbox.cif.g08.bks.cpg/sg71_4_cif.got.tgz:6462.got - 2010.06.03 16:22:01.
