data_PCOD9524362
_publ_section_title
;
Structure prediction by ZEFSAII (Michael W. Deem and Ramdas Pophale) SiO2 
 PCOD9524362
Probable space group: I M M M
;
_chemical_formula_sum "Si O2"
_cell_formula_units_Z 72
_cell_length_a 9.788903
_cell_length_b 15.380037
_cell_length_c 23.899797
_cell_angle_alpha 90.000000
_cell_angle_beta 90.000000
_cell_angle_gamma 90.000000
_cell_volume 3598.202636
_symmetry_space_group_name_H-M "I M M M"
_symmetry_group_IT_number 71
_symmetry_cell_setting 'orthorhombic'
loop_
_space_group_symop_operation_xyz
x,y,z
-x,-y,z
x,-y,-z
-x,y,-z
-x,-y,-z
x,y,-z
-x,y,z
x,-y,z
1/2+x,1/2+y,1/2+z
1/2-x,1/2-y,1/2+z
1/2+x,1/2-y,1/2-z
1/2-x,1/2+y,1/2-z
1/2-x,1/2-y,1/2-z
1/2+x,1/2+y,1/2-z
1/2-x,1/2+y,1/2+z
1/2+x,1/2-y,1/2+z
loop_
_atom_site_type_symbol
_atom_site_label
_atom_site_fract_x
_atom_site_fract_y
_atom_site_fract_z
Si Si1 0.659551 0.605750 0.122665
Si Si2 0.661942 0.171086 0.725261
Si Si3 0.656612 0.606352 0.561440
Si Si4 0.352317 0.898679 0.156173
Si Si5 0.665659 0.600271 0.000000
O O1 0.500000 0.629872 0.133572
O O2 0.662297 0.500000 0.121421
O O3 0.761637 0.638034 0.170247
O O4 0.702311 0.638183 0.060545
O O5 0.500000 0.189057 0.716230
O O6 0.750000 0.250000 0.750000
O O7 0.672400 0.105594 0.777832
O O8 0.712889 0.630404 0.500000
O O9 0.500000 0.634911 0.564970
O O10 0.653644 0.500000 0.562730
O O11 0.740482 0.639371 0.614559
O O12 0.500000 0.856771 0.145838
O O13 0.360562 0.000000 0.141343
O O14 0.714591 0.500000 0.000000
O O15 0.500000 0.597319 0.000000
#
# Coordination Sequence:
#
# PCOD9524362 Si02
#       5
#    16  16  16  16   8
#     4   9  17  32  57  86 112 140 176 217 265 322
#     4  11  23  37  52  72 104 142 180 221 265 315
#     4   8  14  25  43  69  98 124 152 192 241 288
#     4   9  18  32  50  72  97 126 163 208 255 303
#     4   7  12  26  51  83 113 137 166 209 260 319
#
# _framework density 20.009989999999998
#
# number of rings (size 3 to 8) (size 9 to 14) (size 15 to 20)
#    0.000    3.000    0.000    3.333    0.000    3.556 
#    0.000    5.000    2.444    2.000    0.000    0.000 
#    0.000    0.000    0.000    0.000    0.000    0.000 
#
# Total GULP energy -200436.042073 kJ/mol
# GULP energy per Si atom -5567.667835 kJ/mol
# Density = 1.996445 g / cm^3
# Si number density = 20.009990 Si / 1000 Ang^3
#
#
#
# Elastic Constant Matrix: (Units=GPa)
#
#
# Indices 1 2 3 4 5 6 
#
# 1 116.8147 18.6594 109.8132 0.0000 0.0000 0.0000
# 2 18.6594 25.3666 10.1833 0.0000 0.0000 0.0000
# 3 109.8132 10.1833 192.9469 0.0000 0.0000 0.0000
# 4 0.0000 0.0000 0.0000 4.9812 0.0000 0.0000
# 5 0.0000 0.0000 0.0000 0.0000 32.9049 0.0000
# 6 0.0000 0.0000 0.0000 0.0000 0.0000 12.1365
#
#
#
# Elastic Compliance Matrix: (Units=1/GPa)
#
#
# Indices 1 2 3 4 5 6 
#
# 1 0.020986 -0.010872 -0.011370 0.000000 0.000000 0.000000
# 2 -0.010872 0.045908 0.003765 0.000000 0.000000 0.000000
# 3 -0.011370 0.003765 0.011455 0.000000 0.000000 0.000000
# 4 0.000000 0.000000 0.000000 0.200753 0.000000 0.000000
# 5 0.000000 0.000000 0.000000 0.000000 0.030391 0.000000
# 6 0.000000 0.000000 0.000000 0.000000 0.000000 0.082396
#
#
# Mechanical properties :
#
#
# Convention : Reuss Voigt Hill
#
# Bulk Modulus (GPa) = 24.15799 68.04890 46.10345
# Shear Modulus (GPa) = 11.29582 23.10269 17.19925
#
# Velocity S-wave (km/s) = 2.37852 3.40156 2.93496
# Velocity P-wave (km/s) = 4.43196 7.03625 5.88010
#
# Compressibility (1/GPa) = 0.04139417
#
# Stress axis : x y z
#
# Youngs Moduli (GPa) = 47.65140 21.78263 87.29722
#
# Poissons Ratio (x) = 0.23683 0.99256
# Poissons Ratio (y) = 0.51809 -0.32868
# Poissons Ratio (z) = 0.54179 -0.08201
#
# Static dielectric constant tensor:
#      x y z
#    x 1.705200 0.000000 0.000000 
#    y 0.000000 1.707850 0.000000 
#    z 0.000000 0.000000 1.743570 
# 
# From -- ./inp_files/7910.got.cif
#   From: 2010.05.17/outbox.cif.g08.bks.cpg/sg71_4_cif.got.tgz:7910.got - 2010.06.03 16:22:01.
