data_PCOD9524275
_publ_section_title
;
Structure prediction by ZEFSAII (Michael W. Deem and Ramdas Pophale) SiO2 
 PCOD9524275
Probable space group: I M M M
;
_chemical_formula_sum "Si O2"
_cell_formula_units_Z 72
_cell_length_a 9.042828
_cell_length_b 14.093429
_cell_length_c 29.756898
_cell_angle_alpha 90.000000
_cell_angle_beta 90.000000
_cell_angle_gamma 90.000000
_cell_volume 3792.351630
_symmetry_space_group_name_H-M "I M M M"
_symmetry_group_IT_number 71
_symmetry_cell_setting 'orthorhombic'
loop_
_space_group_symop_operation_xyz
x,y,z
-x,-y,z
x,-y,-z
-x,y,-z
-x,-y,-z
x,y,-z
-x,y,z
x,-y,z
1/2+x,1/2+y,1/2+z
1/2-x,1/2-y,1/2+z
1/2+x,1/2-y,1/2-z
1/2-x,1/2+y,1/2-z
1/2-x,1/2-y,1/2-z
1/2+x,1/2+y,1/2-z
1/2-x,1/2+y,1/2+z
1/2+x,1/2-y,1/2+z
loop_
_atom_site_type_symbol
_atom_site_label
_atom_site_fract_x
_atom_site_fract_y
_atom_site_fract_z
Si Si1 0.174668 0.608905 0.946196
Si Si2 0.830886 0.113169 0.000000
Si Si3 0.821840 0.304985 0.314250
Si Si4 0.323747 0.206487 0.085104
Si Si5 0.678035 0.605815 0.771854
O O1 0.210372 0.500000 0.935036
O O2 0.271941 0.685017 0.920541
O O3 0.000000 0.624109 0.937617
O O4 0.196957 0.620927 0.000000
O O5 0.751427 0.150632 0.044533
O O6 0.000000 0.148153 0.000000
O O7 0.830052 0.000000 0.000000
O O8 0.780311 0.328486 0.365293
O O9 0.745981 0.369581 0.276735
O O10 0.780557 0.195157 0.303226
O O11 0.000000 0.312735 0.310121
O O12 0.500000 0.200287 0.081142
O O13 0.500000 0.606442 0.768726
O O14 0.724282 0.500000 0.786550
#
# Coordination Sequence:
#
# PCOD9524275 Si02
#       5
#    16   8  16  16  16
#     4   9  18  33  53  77 108 145 181 220 267 319
#     4  11  25  43  60  77 104 147 193 234 276 323
#     4   9  20  36  54  81 114 144 176 221 276 327
#     4  11  22  36  57  84 113 145 183 230 280 327
#     4   9  18  35  58  81 108 143 181 221 265 320
#
# _framework density 18.985581
#
# number of rings (size 3 to 8) (size 9 to 14) (size 15 to 20)
#    0.000    2.333    1.111    1.667    0.000    5.333 
#    0.000    7.778    0.000    0.000    0.000    0.000 
#    0.000    0.000    0.000    0.000    0.000    0.000 
#
# Total GULP energy -200930.248959 kJ/mol
# GULP energy per Si atom -5581.395804 kJ/mol
# Density = 1.894237 g / cm^3
# Si number density = 18.985581 Si / 1000 Ang^3
#
#
#
# Elastic Constant Matrix: (Units=GPa)
#
#
# Indices 1 2 3 4 5 6 
#
# 1 28.6843 5.7616 25.5278 0.0000 0.0000 0.0000
# 2 5.7616 48.9920 3.5467 0.0000 0.0000 -0.0002
# 3 25.5278 3.5467 94.2367 0.0000 0.0000 -0.0001
# 4 0.0000 0.0000 0.0000 6.6629 0.0000 -0.0002
# 5 0.0000 0.0000 0.0000 0.0000 25.4850 0.0000
# 6 0.0000 -0.0002 -0.0001 -0.0002 0.0000 2189.2562
#
#
#
# Elastic Compliance Matrix: (Units=1/GPa)
#
#
# Indices 1 2 3 4 5 6 
#
# 1 0.046954 -0.004614 -0.012546 0.000000 0.000000 0.000000
# 2 -0.004614 0.020921 0.000462 0.000000 0.000000 0.000000
# 3 -0.012546 0.000462 0.013993 0.000000 0.000000 0.000000
# 4 0.000000 0.000000 0.000000 0.150084 0.000000 0.000000
# 5 0.000000 0.000000 0.000000 0.000000 0.039239 0.000000
# 6 0.000000 0.000000 0.000000 0.000000 0.000000 0.000457
#
#
# Mechanical properties :
#
#
# Convention : Reuss Voigt Hill
#
# Bulk Modulus (GPa) = 20.62987 26.84279 23.73633
# Shear Modulus (GPa) = 15.56668 453.41929 234.49298
#
# Velocity S-wave (km/s) = 2.86653 15.47066 11.12561
# Velocity P-wave (km/s) = 4.67394 18.25626 13.32548
#
# Compressibility (1/GPa) = 0.04847341
#
# Stress axis : x y z
#
# Youngs Moduli (GPa) = 21.29741 47.79977 71.46589
#
# Poissons Ratio (x) = 0.22053 0.89659
# Poissons Ratio (y) = 0.09826 -0.03305
# Poissons Ratio (z) = 0.26719 -0.02210
#
# Static dielectric constant tensor:
#      x y z
#    x 1.630380 0.000000 0.000000 
#    y 0.000000 1.672060 0.000000 
#    z 0.000000 0.000000 1.648270 
# 
# From -- ./inp_files/6081.got.cif
#   From: 2010.05.17/outbox.cif.g08.bks.cpg/sg71_4_cif.got.tgz:6081.got - 2010.06.03 16:22:01.
