data_PCOD9524856
_publ_section_title
;
Structure prediction by ZEFSAII (Michael W. Deem and Ramdas Pophale) SiO2 
 PCOD9524856
Probable space group: I M M M
;
_chemical_formula_sum "Si O2"
_cell_formula_units_Z 58
_cell_length_a 24.000000
_cell_length_b 27.000000
_cell_length_c 9.000000
_cell_angle_alpha 90.000000
_cell_angle_beta 90.000000
_cell_angle_gamma 90.000000
_cell_volume 5832.000000
_symmetry_space_group_name_H-M "I M M M"
_symmetry_group_IT_number 71
_symmetry_cell_setting 'orthorhombic'
loop_
_space_group_symop_operation_xyz
x,y,z
-x,-y,z
x,-y,-z
-x,y,-z
-x,-y,-z
x,y,-z
-x,y,z
x,-y,z
1/2+x,1/2+y,1/2+z
1/2-x,1/2-y,1/2+z
1/2+x,1/2-y,1/2-z
1/2-x,1/2+y,1/2-z
1/2-x,1/2-y,1/2-z
1/2+x,1/2+y,1/2-z
1/2-x,1/2+y,1/2+z
1/2+x,1/2-y,1/2+z
loop_
_atom_site_type_symbol
_atom_site_label
_atom_site_fract_x
_atom_site_fract_y
_atom_site_fract_z
Si Si1 0.890220 0.094676 0.660431
Si Si2 0.270501 0.445063 0.173274
Si Si3 0.000000 0.932137 0.500000
Si Si4 0.562431 0.234727 0.824838
Si Si5 0.734708 0.845329 0.176374
Si Si6 0.380160 0.851503 0.675721
Si Si7 0.143352 0.188338 0.175013
Si Si8 0.434737 0.942116 0.177068
O O1 0.879136 0.121754 0.500000
O O2 0.838020 0.058344 0.679477
O O3 0.885049 0.135469 0.787088
O O4 0.949900 0.070332 0.627847
O O5 0.252203 0.500000 0.215264
O O6 0.247163 0.401871 0.275410
O O7 0.255131 0.435986 0.000000
O O8 0.500000 0.254616 0.798494
O O9 0.571796 0.183715 0.739361
O O10 0.608724 0.271991 0.766015
O O11 0.568582 0.226301 0.000000
O O12 0.678269 0.831514 0.259646
O O13 0.791359 0.816127 0.217380
O O14 0.726988 0.841475 0.000000
O O15 0.378552 0.850599 0.500000
O O16 0.393938 0.906036 0.735756
O O17 0.140224 0.198795 0.000000
O O18 0.500000 0.932463 0.213966
O O19 0.424031 0.000000 0.206728
O O20 0.428501 0.933829 0.000000
#
# Coordination Sequence:
#
# PCOD9524856 Si02
#       8
#    16  16   4  16  16  16  16  16
#     4   8  16  30  49  74 109 149 187 230 280 341
#     4   9  17  32  53  79 110 144 186 239 289 331
#     4   8  16  28  51  76 108 154 194 228 279 354
#     4  11  25  42  63  88 117 154 188 224 277 341
#     4  10  22  40  60  81 111 153 194 235 286 346
#     4  12  25  40  60  88 121 152 189 238 286 331
#     4  10  21  37  58  85 113 145 192 242 287 334
#     4   9  19  38  64  90 119 158 198 234 279 340
#
# _framework density 9.9451300000000007
#
# number of rings (size 3 to 8) (size 9 to 14) (size 15 to 20)
#    0.414    1.793    0.000    3.310    0.966    6.345 
#    0.000    1.379    0.000    0.000    0.000    0.000 
#    0.000    4.414    0.000    0.000    0.000    0.000 
#
# Total GULP energy -323035.071422 kJ/mol
# GULP energy per Si atom -5569.570197 kJ/mol
# Density = 0.992249 g / cm^3
# Si number density = 9.945130 Si / 1000 Ang^3
#
#
#
# Elastic Constant Matrix: (Units=GPa)
#
#
# Indices 1 2 3 4 5 6 
#
# 1 91.5862 26.0171 54.1642 0.0000 0.0000 0.0000
# 2 26.0171 53.8264 35.1630 0.0000 0.0000 0.0000
# 3 54.1642 35.1630 79.6891 0.0000 0.0000 0.0000
# 4 0.0000 0.0000 0.0000 19.3780 0.0000 0.0000
# 5 0.0000 0.0000 0.0000 0.0000 29.3434 0.0000
# 6 0.0000 0.0000 0.0000 0.0000 0.0000 14.7598
#
#
#
# Elastic Compliance Matrix: (Units=1/GPa)
#
#
# Indices 1 2 3 4 5 6 
#
# 1 0.018297 -0.001011 -0.011990 0.000000 0.000000 0.000000
# 2 -0.001011 0.026158 -0.010855 0.000000 0.000000 0.000000
# 3 -0.011990 -0.010855 0.025488 0.000000 0.000000 0.000000
# 4 0.000000 0.000000 0.000000 0.051605 0.000000 0.000000
# 5 0.000000 0.000000 0.000000 0.000000 0.034079 0.000000
# 6 0.000000 0.000000 0.000000 0.000000 0.000000 0.067751
#
#
# Mechanical properties :
#
#
# Convention : Reuss Voigt Hill
#
# Bulk Modulus (GPa) = 44.98295 50.64337 47.81316
# Shear Modulus (GPa) = 17.95318 20.01340 18.98329
#
# Velocity S-wave (km/s) = 3.00761 3.17549 3.09269
# Velocity P-wave (km/s) = 5.89284 6.24193 6.06990
#
# Compressibility (1/GPa) = 0.02223064
#
# Stress axis : x y z
#
# Youngs Moduli (GPa) = 54.65413 38.22877 39.23374
#
# Poissons Ratio (x) = 0.03865 0.47042
# Poissons Ratio (y) = 0.05526 0.42589
# Poissons Ratio (z) = 0.65531 0.41498
#
# Static dielectric constant tensor:
#      x y z
#    x 1.703150 0.000000 0.000000 
#    y 0.000000 1.744520 0.000000 
#    z 0.000000 0.000000 1.670550 
# 
# From -- ./inp_files/13439.got.cif
#   From: 2010.05.17/outbox.ucp.g08.bks.cvg/sg71_7_cif.got.tgz:13439.got - 2010.06.11 16:29:00.
