data_PCOD9524073
_publ_section_title
;
Structure prediction by ZEFSAII (Michael W. Deem and Ramdas Pophale) SiO2 
 PCOD9524073
Probable space group: I M M M
;
_chemical_formula_sum "Si O2"
_cell_formula_units_Z 72
_cell_length_a 7.687655
_cell_length_b 19.347684
_cell_length_c 24.276032
_cell_angle_alpha 90.000000
_cell_angle_beta 90.000000
_cell_angle_gamma 90.000000
_cell_volume 3610.776207
_symmetry_space_group_name_H-M "I M M M"
_symmetry_group_IT_number 71
_symmetry_cell_setting 'orthorhombic'
loop_
_space_group_symop_operation_xyz
x,y,z
-x,-y,z
x,-y,-z
-x,y,-z
-x,-y,-z
x,y,-z
-x,y,z
x,-y,z
1/2+x,1/2+y,1/2+z
1/2-x,1/2-y,1/2+z
1/2+x,1/2-y,1/2-z
1/2-x,1/2+y,1/2-z
1/2-x,1/2-y,1/2-z
1/2+x,1/2+y,1/2-z
1/2-x,1/2+y,1/2+z
1/2+x,1/2-y,1/2+z
loop_
_atom_site_type_symbol
_atom_site_label
_atom_site_fract_x
_atom_site_fract_y
_atom_site_fract_z
Si Si1 0.196723 0.164663 0.385799
Si Si2 0.211609 0.686820 0.436356
Si Si3 0.208384 0.670336 0.238163
Si Si4 0.000000 0.418189 0.938174
Si Si5 0.787382 0.579880 0.343924
O O1 0.255240 0.241246 0.405659
O O2 0.204185 0.156598 0.320239
O O3 0.329048 0.110126 0.409655
O O4 0.000000 0.155233 0.405770
O O5 0.271417 0.685157 0.500000
O O6 0.269388 0.623412 0.397623
O O7 0.000000 0.684196 0.437695
O O8 0.250000 0.750000 0.250000
O O9 0.264711 0.621565 0.288772
O O10 0.000000 0.662364 0.232085
O O11 0.000000 0.500000 0.938082
O O12 0.000000 0.390983 0.000000
O O13 0.731249 0.500000 0.343986
O O14 0.000000 0.580021 0.344256
#
# Coordination Sequence:
#
# PCOD9524073 Si02
#       5
#    16  16  16   8  16
#     4  11  22  40  65  93 125 163 208 260 317 377
#     4   9  17  31  54  84 117 155 202 249 297 364
#     4  11  20  35  59  89 123 163 210 263 314 371
#     4  11  26  46  66  94 127 161 208 262 321 386
#     4   9  18  31  50  81 120 159 198 249 310 363
#
# _framework density 19.940308999999999
#
# number of rings (size 3 to 8) (size 9 to 14) (size 15 to 20)
#    0.000    1.889    3.333    1.333    0.000    3.111 
#    0.000    3.333    0.000    2.000    0.000    0.000 
#    0.000    4.444    0.000    0.222    0.000    0.000 
#
# Total GULP energy -201068.008018 kJ/mol
# GULP energy per Si atom -5585.222445 kJ/mol
# Density = 1.989492 g / cm^3
# Si number density = 19.940309 Si / 1000 Ang^3
#
#
#
# Elastic Constant Matrix: (Units=GPa)
#
#
# Indices 1 2 3 4 5 6 
#
# 1 62.3773 23.8022 17.9553 0.0000 0.0000 0.0000
# 2 23.8022 105.2230 65.0051 0.0000 0.0000 0.0000
# 3 17.9553 65.0051 166.1877 0.0000 0.0000 0.0000
# 4 0.0000 0.0000 0.0000 30.2862 0.0000 0.0000
# 5 0.0000 0.0000 0.0000 0.0000 11.1168 0.0000
# 6 0.0000 0.0000 0.0000 0.0000 0.0000 21.1672
#
#
#
# Elastic Compliance Matrix: (Units=1/GPa)
#
#
# Indices 1 2 3 4 5 6 
#
# 1 0.017572 -0.003695 -0.000453 0.000000 0.000000 0.000000
# 2 -0.003695 0.013309 -0.004807 0.000000 0.000000 0.000000
# 3 -0.000453 -0.004807 0.007946 0.000000 0.000000 0.000000
# 4 0.000000 0.000000 0.000000 0.033018 0.000000 0.000000
# 5 0.000000 0.000000 0.000000 0.000000 0.089954 0.000000
# 6 0.000000 0.000000 0.000000 0.000000 0.000000 0.047243
#
#
# Mechanical properties :
#
#
# Convention : Reuss Voigt Hill
#
# Bulk Modulus (GPa) = 47.80653 60.81258 54.30955
# Shear Modulus (GPa) = 21.37442 27.64906 24.51174
#
# Velocity S-wave (km/s) = 3.27757 3.72774 3.50988
# Velocity P-wave (km/s) = 6.19275 7.00654 6.61217
#
# Compressibility (1/GPa) = 0.02091765
#
# Stress axis : x y z
#
# Youngs Moduli (GPa) = 56.90922 75.13768 125.84311
#
# Poissons Ratio (x) = 0.27762 0.05704
# Poissons Ratio (y) = 0.21027 0.60488
# Poissons Ratio (z) = 0.02579 0.36116
#
# Static dielectric constant tensor:
#      x y z
#    x 1.733030 0.000000 0.000000 
#    y 0.000000 1.764600 0.000000 
#    z 0.000000 0.000000 1.694430 
# 
# From -- ./inp_files/57294.got.cif
#   From: 2010.05.17/outbox.cif.g08.bks.cpg/sg71_29_cif.got.tgz:57294.got - 2010.06.03 16:22:01.
