data_PCOD9524272
_publ_section_title
;
Structure prediction by ZEFSAII (Michael W. Deem and Ramdas Pophale) SiO2 
 PCOD9524272
Probable space group: I M M M
;
_chemical_formula_sum "Si O2"
_cell_formula_units_Z 88
_cell_length_a 21.713614
_cell_length_b 24.580389
_cell_length_c 8.446442
_cell_angle_alpha 90.000000
_cell_angle_beta 90.000000
_cell_angle_gamma 90.000000
_cell_volume 4508.111707
_symmetry_space_group_name_H-M "I M M M"
_symmetry_group_IT_number 71
_symmetry_cell_setting 'orthorhombic'
loop_
_space_group_symop_operation_xyz
x,y,z
-x,-y,z
x,-y,-z
-x,y,-z
-x,-y,-z
x,y,-z
-x,y,z
x,-y,z
1/2+x,1/2+y,1/2+z
1/2-x,1/2-y,1/2+z
1/2+x,1/2-y,1/2-z
1/2-x,1/2+y,1/2-z
1/2-x,1/2-y,1/2-z
1/2+x,1/2+y,1/2-z
1/2-x,1/2+y,1/2+z
1/2+x,1/2-y,1/2+z
loop_
_atom_site_type_symbol
_atom_site_label
_atom_site_fract_x
_atom_site_fract_y
_atom_site_fract_z
Si Si1 0.904929 0.058322 0.311015
Si Si2 0.772025 0.099297 0.317677
Si Si3 0.803306 0.212115 0.181337
Si Si4 0.572358 0.934025 0.000000
Si Si5 0.067186 0.819737 0.690883
Si Si6 0.866951 0.435798 0.176375
O O1 0.918395 0.057962 0.500000
O O2 0.831004 0.061476 0.292619
O O3 0.927873 0.117012 0.251900
O O4 0.926775 0.000000 0.246409
O O5 0.777597 0.119660 0.500000
O O6 0.778985 0.150735 0.205174
O O7 0.706374 0.071128 0.303447
O O8 0.750000 0.250000 0.250000
O O9 0.871505 0.211848 0.257489
O O10 0.811129 0.226267 0.000000
O O11 0.601357 0.913128 0.834980
O O12 0.500000 0.923512 0.000000
O O13 0.581518 0.000000 0.000000
O O14 0.068359 0.821395 0.500000
O O15 0.000000 0.798237 0.740773
O O16 0.881604 0.500000 0.170936
O O17 0.883090 0.413416 0.000000
#
# Coordination Sequence:
#
# PCOD9524272 Si02
#       6
#    16  16  16   8  16  16
#     4   8  13  23  43  73 108 143 178 214 249 292
#     4   9  17  30  49  74 103 132 169 217 267 313
#     4  11  22  36  56  79 103 132 172 222 275 328
#     4   9  18  30  44  66  98 134 173 215 255 309
#     4   9  18  33  53  78 110 146 183 222 264 313
#     4   9  17  29  48  73 101 136 174 214 262 315
#
# _framework density 19.520368000000001
#
# number of rings (size 3 to 8) (size 9 to 14) (size 15 to 20)
#    0.000    2.818    0.000    3.273    1.273    3.273 
#    0.000    3.636    0.000    6.000    0.000    7.636 
#    0.000    0.000    0.000    0.000    0.000    0.000 
#
# Total GULP energy -244999.218479 kJ/mol
# GULP energy per Si atom -5568.164056 kJ/mol
# Density = 1.947594 g / cm^3
# Si number density = 19.520368 Si / 1000 Ang^3
#
#
#
# Elastic Constant Matrix: (Units=GPa)
#
#
# Indices 1 2 3 4 5 6 
#
# 1 123.5526 30.3744 69.6482 0.0000 0.0000 0.0000
# 2 30.3744 38.5966 8.8985 0.0000 0.0000 0.0000
# 3 69.6482 8.8985 90.3427 0.0000 0.0000 0.0000
# 4 0.0000 0.0000 0.0000 13.2462 0.0000 0.0000
# 5 0.0000 0.0000 0.0000 0.0000 21.7280 0.0000
# 6 0.0000 0.0000 0.0000 0.0000 0.0000 3.7467
#
#
#
# Elastic Compliance Matrix: (Units=1/GPa)
#
#
# Indices 1 2 3 4 5 6 
#
# 1 0.018116 -0.011293 -0.012854 0.000000 0.000000 0.000000
# 2 -0.011293 0.033551 0.005402 0.000000 0.000000 0.000000
# 3 -0.012854 0.005402 0.020446 0.000000 0.000000 0.000000
# 4 0.000000 0.000000 0.000000 0.075494 0.000000 0.000000
# 5 0.000000 0.000000 0.000000 0.000000 0.046024 0.000000
# 6 0.000000 0.000000 0.000000 0.000000 0.000000 0.266903
#
#
# Mechanical properties :
#
#
# Convention : Reuss Voigt Hill
#
# Bulk Modulus (GPa) = 28.88287 52.25934 40.57111
# Shear Modulus (GPa) = 9.81229 17.31556 13.56392
#
# Velocity S-wave (km/s) = 2.24446 2.98157 2.63888
# Velocity P-wave (km/s) = 4.64168 6.21955 5.48762
#
# Compressibility (1/GPa) = 0.03462260
#
# Stress axis : x y z
#
# Youngs Moduli (GPa) = 55.19998 29.80524 48.90846
#
# Poissons Ratio (x) = 0.33660 0.62866
# Poissons Ratio (y) = 0.62339 -0.26419
# Poissons Ratio (z) = 0.70953 -0.16100
#
# Static dielectric constant tensor:
#      x y z
#    x 1.700270 0.000000 0.000000 
#    y 0.000000 1.690980 0.000000 
#    z 0.000000 0.000000 1.714100 
# 
# From -- ./inp_files/11395.got.cif
#   From: 2010.05.17/outbox.cif.g08.bks.cpg/sg71_6_cif.got.tgz:11395.got - 2010.06.03 16:22:01.
