data_PCOD9524701
_publ_section_title
;
Structure prediction by ZEFSAII (Michael W. Deem and Ramdas Pophale) SiO2 
 PCOD9524701
Probable space group: I M M M
;
_chemical_formula_sum "Si O2"
_cell_formula_units_Z 56
_cell_length_a 15.000000
_cell_length_b 15.000000
_cell_length_c 27.000000
_cell_angle_alpha 90.000000
_cell_angle_beta 90.000000
_cell_angle_gamma 90.000000
_cell_volume 6075.000000
_symmetry_space_group_name_H-M "I M M M"
_symmetry_group_IT_number 71
_symmetry_cell_setting 'orthorhombic'
loop_
_space_group_symop_operation_xyz
x,y,z
-x,-y,z
x,-y,-z
-x,y,-z
-x,-y,-z
x,y,-z
-x,y,z
x,-y,z
1/2+x,1/2+y,1/2+z
1/2-x,1/2-y,1/2+z
1/2+x,1/2-y,1/2-z
1/2-x,1/2+y,1/2-z
1/2-x,1/2-y,1/2-z
1/2+x,1/2+y,1/2-z
1/2-x,1/2+y,1/2+z
1/2+x,1/2-y,1/2+z
loop_
_atom_site_type_symbol
_atom_site_label
_atom_site_fract_x
_atom_site_fract_y
_atom_site_fract_z
Si Si1 0.271637 0.604299 0.553948
Si Si2 0.654888 0.257494 0.223591
Si Si3 0.101356 0.260390 0.076264
Si Si4 0.404901 0.672558 0.321467
Si Si5 0.758373 0.895654 0.555881
Si Si6 0.290421 0.102243 0.159430
Si Si7 0.604146 0.393458 0.141333
O O1 0.229289 0.617054 0.500000
O O2 0.295995 0.500000 0.559052
O O3 0.357449 0.667699 0.556632
O O4 0.210727 0.626275 0.601117
O O5 0.750000 0.250000 0.250000
O O6 0.592596 0.277427 0.269519
O O7 0.649026 0.168936 0.190746
O O8 0.645311 0.340619 0.187125
O O9 0.102614 0.245471 0.135256
O O10 0.170247 0.337004 0.062447
O O11 0.000000 0.275463 0.060255
O O12 0.500000 0.624284 0.329149
O O13 0.314349 0.615147 0.325098
O O14 0.791167 0.883975 0.500000
O O15 0.835328 0.870643 0.594200
O O16 0.737148 0.000000 0.563339
O O17 0.315447 0.000000 0.166112
O O18 0.500000 0.369668 0.135512
O O19 0.608629 0.500000 0.148976
#
# Coordination Sequence:
#
# PCOD9524701 Si02
#       7
#    16  16  16  16  16  16  16
#     4   9  17  29  46  70 100 132 166 205 250 301
#     4  10  19  32  50  74 104 133 164 210 260 309
#     4  10  20  34  51  73 106 145 179 212 255 314
#     4   9  18  32  49  69  97 133 169 208 255 301
#     4  10  21  36  54  77 105 137 174 218 268 320
#     4   9  18  31  48  72 101 134 168 202 247 303
#     4  10  21  37  58  82 105 134 177 227 275 317
#
# _framework density 9.2181069999999998
#
# number of rings (size 3 to 8) (size 9 to 14) (size 15 to 20)
#    0.000    2.429    0.000    3.429    0.000    4.571 
#    0.000    6.429    0.000    2.571    0.000    0.000 
#    0.000    0.000    0.000   33.714    0.000    0.429 
#
# Total GULP energy -311825.777659 kJ/mol
# GULP energy per Si atom -5568.317458 kJ/mol
# Density = 0.919713 g / cm^3
# Si number density = 9.218107 Si / 1000 Ang^3
#
#
#
# Elastic Constant Matrix: (Units=GPa)
#
#
# Indices 1 2 3 4 5 6 
#
# 1 27.5323 21.3303 19.1781 0.0000 0.0000 0.0000
# 2 21.3303 45.7320 50.3583 0.0000 0.0000 0.0000
# 3 19.1781 50.3583 142.3202 0.0000 0.0000 0.0000
# 4 0.0000 0.0000 0.0000 15.1642 0.0000 0.0000
# 5 0.0000 0.0000 0.0000 0.0000 -86.1188 0.0000
# 6 0.0000 0.0000 0.0000 0.0000 0.0000 17.7278
#
#
#
# Elastic Compliance Matrix: (Units=1/GPa)
#
#
# Indices 1 2 3 4 5 6 
#
# 1 0.057572 -0.029998 0.002856 0.000000 0.000000 0.000000
# 2 -0.029998 0.051456 -0.014165 0.000000 0.000000 0.000000
# 3 0.002856 -0.014165 0.011654 0.000000 0.000000 0.000000
# 4 0.000000 0.000000 0.000000 0.065945 0.000000 0.000000
# 5 0.000000 0.000000 0.000000 0.000000 -0.011612 0.000000
# 6 0.000000 0.000000 0.000000 0.000000 0.000000 0.056408
#
#
# Mechanical properties :
#
#
# Convention : Reuss Voigt Hill
#
# Bulk Modulus (GPa) = 26.26838 44.14645 35.20741
# Shear Modulus (GPa) = 15.30340 -2.33084 6.48628
#
# Velocity S-wave (km/s) = 2.88422 -1.12562 1.87773
# Velocity P-wave (km/s) = 5.03695 4.72315 4.88257
#
# Compressibility (1/GPa) = 0.03806859
#
# Stress axis : x y z
#
# Youngs Moduli (GPa) = 17.36959 19.43412 85.81101
#
# Poissons Ratio (x) = 0.58299 -0.24512
# Poissons Ratio (y) = 0.52105 1.21549
# Poissons Ratio (z) = -0.04962 0.27528
#
# Static dielectric constant tensor:
#      x y z
#    x 1.584660 0.000000 0.000000 
#    y 0.000000 1.692540 0.000000 
#    z 0.000000 0.000000 1.747600 
# 
# From -- ./inp_files/65512.got.cif
#   From: 2010.05.17/outbox.ucp.g08.bks.cvg/sg71_33_cif.got.tgz:65512.got - 2010.06.11 16:29:00.
