data_PCOD9524069
_publ_section_title
;
Structure prediction by ZEFSAII (Michael W. Deem and Ramdas Pophale) SiO2 
 PCOD9524069
Probable space group: I M M M
;
_chemical_formula_sum "Si O2"
_cell_formula_units_Z 58
_cell_length_a 13.808129
_cell_length_b 25.583053
_cell_length_c 9.962912
_cell_angle_alpha 90.000000
_cell_angle_beta 90.000000
_cell_angle_gamma 90.000000
_cell_volume 3519.439472
_symmetry_space_group_name_H-M "I M M M"
_symmetry_group_IT_number 71
_symmetry_cell_setting 'orthorhombic'
loop_
_space_group_symop_operation_xyz
x,y,z
-x,-y,z
x,-y,-z
-x,y,-z
-x,-y,-z
x,y,-z
-x,y,z
x,-y,z
1/2+x,1/2+y,1/2+z
1/2-x,1/2-y,1/2+z
1/2+x,1/2-y,1/2-z
1/2-x,1/2+y,1/2-z
1/2-x,1/2-y,1/2-z
1/2+x,1/2+y,1/2-z
1/2-x,1/2+y,1/2+z
1/2+x,1/2-y,1/2+z
loop_
_atom_site_type_symbol
_atom_site_label
_atom_site_fract_x
_atom_site_fract_y
_atom_site_fract_z
Si Si1 0.500000 0.764962 0.500000
Si Si2 0.500000 0.763777 0.000000
Si Si3 0.797054 0.326591 0.000000
Si Si4 0.789702 0.285651 0.500000
Si Si5 0.798526 0.942718 0.000000
Si Si6 0.000000 0.814216 0.749033
Si Si7 0.710255 0.641392 0.726515
Si Si8 0.000000 0.000000 0.000000
O O1 0.404453 0.801484 0.500000
O O2 0.500000 0.724805 0.375839
O O3 0.403071 0.797346 0.000000
O O4 0.500000 0.725563 0.126117
O O5 0.770592 0.357455 0.864155
O O6 0.726452 0.276077 0.000000
O O7 0.742543 0.310188 0.367692
O O8 0.775350 0.908907 0.868031
O O9 0.750729 0.000000 0.000000
O O10 0.913382 0.955329 0.000000
O O11 0.903417 0.849157 0.746190
#
# Coordination Sequence:
#
# PCOD9524069 Si02
#       8
#     4   4   8   8   8   8  16   2
#     4  12  22  31  52  74 110 152 188 215 248 304
#     4  12  22  30  48  72 114 154 182 216 252 300
#     4  12  21  35  49  81 110 148 183 221 257 320
#     4  11  20  35  47  75 109 152 186 216 246 317
#     4   9  20  37  57  79 100 137 171 224 263 329
#     4  12  19  30  49  77 108 150 183 207 259 311
#     4  11  21  34  54  76 112 146 181 213 269 311
#     4   8  16  38  64  82 108 118 192 208 268 332
#
# _framework density 16.479897000000001
#
# number of rings (size 3 to 8) (size 9 to 14) (size 15 to 20)
#    0.414    0.552    5.517    4.138    0.000    0.000 
#    0.000    0.690    0.000    0.828    0.000   18.345 
#    0.000    0.000    0.000    0.000    0.000    0.000 
#
# Total GULP energy -161518.475308 kJ/mol
# GULP energy per Si atom -5569.602597 kJ/mol
# Density = 1.644239 g / cm^3
# Si number density = 16.479897 Si / 1000 Ang^3
#
#
#
# Elastic Constant Matrix: (Units=GPa)
#
#
# Indices 1 2 3 4 5 6 
#
# 1 74.2599 -7.4114 -1.9786 -0.0001 0.0006 0.0000
# 2 -7.4114 67.4340 28.5613 0.0001 -0.0002 0.0000
# 3 -1.9786 28.5613 125.1281 0.0025 -0.0046 -0.0003
# 4 -0.0001 0.0001 0.0025 3.7879 -0.0030 -0.0002
# 5 0.0006 -0.0002 -0.0046 -0.0030 87.9693 0.0001
# 6 0.0000 0.0000 -0.0003 -0.0002 0.0001 20.6151
#
#
#
# Elastic Compliance Matrix: (Units=1/GPa)
#
#
# Indices 1 2 3 4 5 6 
#
# 1 0.013618 0.001556 -0.000140 0.000000 0.000000 0.000000
# 2 0.001556 0.016594 -0.003763 0.000002 0.000000 0.000000
# 3 -0.000140 -0.003763 0.008849 -0.000006 0.000000 0.000000
# 4 0.000000 0.000002 -0.000006 0.263999 0.000009 0.000003
# 5 0.000000 0.000000 0.000000 0.000009 0.011368 0.000000
# 6 0.000000 0.000000 0.000000 0.000003 0.000000 0.048508
#
#
# Mechanical properties :
#
#
# Convention : Reuss Voigt Hill
#
# Bulk Modulus (GPa) = 29.09818 33.90717 31.50268
# Shear Modulus (GPa) = 13.18967 38.98451 26.08709
#
# Velocity S-wave (km/s) = 2.83211 4.86900 3.98296
# Velocity P-wave (km/s) = 5.32819 7.22697 6.34896
#
# Compressibility (1/GPa) = 0.03436640
#
# Stress axis : x y z
#
# Youngs Moduli (GPa) = 73.43345 60.26219 113.01281
#
# Poissons Ratio (x) = -0.09376 0.01580
# Poissons Ratio (y) = -0.11425 0.42528
# Poissons Ratio (z) = 0.01027 0.22677
#
# Static dielectric constant tensor:
#      x y z
#    x 1.573330 0.000000 0.000000 
#    y 0.000000 1.534610 0.000000 
#    z 0.000000 0.000000 1.556930 
# 
# From -- ./inp_files/5840.got.cif
#   From: 2010.05.17/outbox.cif.g08.bks.cpg/sg71_3_cif.got.tgz:5840.got - 2010.06.03 16:22:01.
