data_PCOD9524617
_publ_section_title
;
Structure prediction by ZEFSAII (Michael W. Deem and Ramdas Pophale) SiO2 
 PCOD9524617
Probable space group: I M M M
;
_chemical_formula_sum "Si O2"
_cell_formula_units_Z 104
_cell_length_a 29.523149
_cell_length_b 25.027984
_cell_length_c 7.744316
_cell_angle_alpha 90.000000
_cell_angle_beta 90.000000
_cell_angle_gamma 90.000000
_cell_volume 5722.313046
_symmetry_space_group_name_H-M "I M M M"
_symmetry_group_IT_number 71
_symmetry_cell_setting 'orthorhombic'
loop_
_space_group_symop_operation_xyz
x,y,z
-x,-y,z
x,-y,-z
-x,y,-z
-x,-y,-z
x,y,-z
-x,y,z
x,-y,z
1/2+x,1/2+y,1/2+z
1/2-x,1/2-y,1/2+z
1/2+x,1/2-y,1/2-z
1/2-x,1/2+y,1/2-z
1/2-x,1/2-y,1/2-z
1/2+x,1/2+y,1/2-z
1/2-x,1/2+y,1/2+z
1/2+x,1/2-y,1/2+z
loop_
_atom_site_type_symbol
_atom_site_label
_atom_site_fract_x
_atom_site_fract_y
_atom_site_fract_z
Si Si1 0.447892 0.237293 0.291882
Si Si2 0.373395 0.561073 0.793572
Si Si3 0.274783 0.560951 0.294435
Si Si4 0.089523 0.373664 0.788421
Si Si5 0.551492 0.357403 0.793172
Si Si6 0.000000 0.438574 0.210771
Si Si7 0.676260 0.061267 0.706353
O O1 0.448838 0.235489 0.500000
O O2 0.500000 0.229956 0.231716
O O3 0.417981 0.187412 0.232093
O O4 0.433356 0.296643 0.240609
O O5 0.375572 0.500000 0.724943
O O6 0.323072 0.583968 0.760805
O O7 0.412897 0.599302 0.725148
O O8 0.378734 0.557792 0.000000
O O9 0.275025 0.558647 0.500000
O O10 0.274628 0.500000 0.222872
O O11 0.226402 0.584117 0.240730
O O12 0.045345 0.407615 0.736156
O O13 0.135265 0.402380 0.728125
O O14 0.090207 0.373654 0.000000
O O15 0.500000 0.363407 0.725250
O O16 0.549225 0.363992 0.000000
O O17 0.000000 0.500000 0.267593
O O18 0.000000 0.438683 0.000000
O O19 0.671048 0.057770 0.500000
O O20 0.673949 0.000000 0.774651
#
# Coordination Sequence:
#
# PCOD9524617 Si02
#       7
#    16  16  16  16  16   8  16
#     4   9  16  28  45  63  87 121 158 189 218 257
#     4   9  17  30  49  71  93 117 143 174 217 265
#     4   9  17  29  45  65  90 119 149 181 218 265
#     4   9  15  24  39  62  90 119 152 190 227 264
#     4   9  18  31  47  69  95 119 145 178 214 259
#     4   9  14  20  34  60  93 121 146 185 234 272
#     4   9  16  26  42  65  91 118 150 188 229 269
#
# _framework density 18.174468999999998
#
# number of rings (size 3 to 8) (size 9 to 14) (size 15 to 20)
#    0.000    3.000    0.769    0.923    0.000    4.615 
#    0.000    2.308    0.000    0.923    0.000    4.308 
#    0.000    3.692    0.000    0.000    0.000    0.000 
#
# Total GULP energy -289705.473466 kJ/mol
# GULP energy per Si atom -5571.259105 kJ/mol
# Density = 1.813310 g / cm^3
# Si number density = 18.174469 Si / 1000 Ang^3
#
#
#
# Elastic Constant Matrix: (Units=GPa)
#
#
# Indices 1 2 3 4 5 6 
#
# 1 160.5978 96.7742 3.9786 0.0000 0.0000 0.0000
# 2 96.7742 110.6547 4.9690 0.0000 0.0000 0.0000
# 3 3.9786 4.9690 26.1581 0.0000 0.0000 0.0000
# 4 0.0000 0.0000 0.0000 6.5794 0.0000 0.0000
# 5 0.0000 0.0000 0.0000 0.0000 -1.6079 0.0000
# 6 0.0000 0.0000 0.0000 0.0000 0.0000 8.9136
#
#
#
# Elastic Compliance Matrix: (Units=1/GPa)
#
#
# Indices 1 2 3 4 5 6 
#
# 1 0.013165 -0.011522 0.000186 0.000000 0.000000 0.000000
# 2 -0.011522 0.019199 -0.001895 0.000000 0.000000 0.000000
# 3 0.000186 -0.001895 0.038561 0.000000 0.000000 0.000000
# 4 0.000000 0.000000 0.000000 0.151989 0.000000 0.000000
# 5 0.000000 0.000000 0.000000 0.000000 -0.621910 0.000000
# 6 0.000000 0.000000 0.000000 0.000000 0.000000 0.112188
#
#
# Mechanical properties :
#
#
# Convention : Reuss Voigt Hill
#
# Bulk Modulus (GPa) = 22.49003 56.53936 39.51470
# Shear Modulus (GPa) = -20.36438 15.55627 -2.40405
#
# Velocity S-wave (km/s) = -3.35101 2.92882 -1.15136
# Velocity P-wave (km/s) = 1.60342 6.52795 4.47455
#
# Compressibility (1/GPa) = 0.04446414
#
# Stress axis : x y z
#
# Youngs Moduli (GPa) = 75.95781 52.08605 25.93317
#
# Poissons Ratio (x) = 0.60014 -0.00483
# Poissons Ratio (y) = 0.87520 0.04913
# Poissons Ratio (z) = -0.01415 0.09868
#
# Static dielectric constant tensor:
#      x y z
#    x 1.637000 0.000000 0.000000 
#    y 0.000000 1.616640 0.000000 
#    z 0.000000 0.000000 1.675890 
# 
# From -- ./inp_files/15516.got.cif
#   From: 2010.05.17/outbox.cif.g08.bks.cpg/sg71_8_cif.got.tgz:15516.got - 2010.06.03 16:22:01.
