data_PCOD9524088
_publ_section_title
;
Structure prediction by ZEFSAII (Michael W. Deem and Ramdas Pophale) SiO2 
 PCOD9524088
Probable space group: I M M M
;
_chemical_formula_sum "Si O2"
_cell_formula_units_Z 68
_cell_length_a 24.523652
_cell_length_b 7.760764
_cell_length_c 18.090850
_cell_angle_alpha 90.000000
_cell_angle_beta 90.000000
_cell_angle_gamma 90.000000
_cell_volume 3443.091739
_symmetry_space_group_name_H-M "I M M M"
_symmetry_group_IT_number 71
_symmetry_cell_setting 'orthorhombic'
loop_
_space_group_symop_operation_xyz
x,y,z
-x,-y,z
x,-y,-z
-x,y,-z
-x,-y,-z
x,y,-z
-x,y,z
x,-y,z
1/2+x,1/2+y,1/2+z
1/2-x,1/2-y,1/2+z
1/2+x,1/2-y,1/2-z
1/2-x,1/2+y,1/2-z
1/2-x,1/2-y,1/2-z
1/2+x,1/2+y,1/2-z
1/2-x,1/2+y,1/2+z
1/2+x,1/2-y,1/2+z
loop_
_atom_site_type_symbol
_atom_site_label
_atom_site_fract_x
_atom_site_fract_y
_atom_site_fract_z
Si Si1 0.000000 0.192415 0.711265
Si Si2 0.719939 0.208748 0.916850
Si Si3 0.381068 0.207840 0.826429
Si Si4 0.673543 0.703555 0.331253
Si Si5 0.500000 0.000000 0.672773
Si Si6 0.111037 0.500000 0.913421
O O1 0.057637 0.219556 0.669639
O O2 0.000000 0.334076 0.775004
O O3 0.000000 0.000000 0.742066
O O4 0.659887 0.263977 0.891266
O O5 0.763964 0.250552 0.852887
O O6 0.719107 0.000000 0.919658
O O7 0.734273 0.269629 0.000000
O O8 0.350086 0.259408 0.750334
O O9 0.385530 0.000000 0.826119
O O10 0.666746 0.500000 0.345771
O O11 0.640348 0.828449 0.384621
O O12 0.552442 0.000000 0.622934
O O13 0.108907 0.500000 0.000000
#
# Coordination Sequence:
#
# PCOD9524088 Si02
#       6
#     8  16  16  16   4   8
#     4  12  22  39  64  88 117 155 205 258 299 350
#     4   9  20  37  60  91 126 161 198 247 307 366
#     4  11  20  38  64  90 120 159 206 252 300 358
#     4  11  21  39  64  90 124 161 201 247 297 360
#     4  12  23  44  60  86 125 156 206 252 299 346
#     4  12  25  40  62  92 124 163 202 245 301 359
#
# _framework density 19.749690999999999
#
# number of rings (size 3 to 8) (size 9 to 14) (size 15 to 20)
#    0.000    1.176    4.706    2.294    0.000    1.412 
#    4.235    0.588    0.000    5.647    0.000    0.000 
#    0.000    0.000    0.000    0.000    0.000    0.000 
#
# Total GULP energy -189782.901388 kJ/mol
# GULP energy per Si atom -5581.850041 kJ/mol
# Density = 1.970474 g / cm^3
# Si number density = 19.749691 Si / 1000 Ang^3
#
#
#
# Elastic Constant Matrix: (Units=GPa)
#
#
# Indices 1 2 3 4 5 6 
#
# 1 145.5346 9.8960 59.9322 0.0000 0.0000 0.0000
# 2 9.8960 92.7354 16.4137 0.0000 0.0000 0.0000
# 3 59.9322 16.4137 -59.4655 0.0000 0.0000 0.0000
# 4 0.0000 0.0000 0.0000 13.6533 0.0000 0.0000
# 5 0.0000 0.0000 0.0000 0.0000 38.5868 0.0000
# 6 0.0000 0.0000 0.0000 0.0000 0.0000 35.4146
#
#
#
# Elastic Compliance Matrix: (Units=1/GPa)
#
#
# Indices 1 2 3 4 5 6 
#
# 1 0.005031 -0.001368 0.004693 0.000000 0.000000 0.000000
# 2 -0.001368 0.010653 0.001562 0.000000 0.000000 0.000000
# 3 0.004693 0.001562 -0.011655 0.000000 0.000000 0.000000
# 4 0.000000 0.000000 0.000000 0.073243 0.000000 0.000000
# 5 0.000000 0.000000 0.000000 0.000000 0.025916 0.000000
# 6 0.000000 0.000000 0.000000 0.000000 0.000000 0.028237
#
#
# Mechanical properties :
#
#
# Convention : Reuss Voigt Hill
#
# Bulk Modulus (GPa) = 72.43823 39.03204 55.73513
# Shear Modulus (GPa) = 39.60390 23.70178 31.65284
#
# Velocity S-wave (km/s) = 4.48291 3.46802 4.00772
# Velocity P-wave (km/s) = 7.97202 5.98686 7.04966
#
# Compressibility (1/GPa) = 0.01380487
#
# Stress axis : x y z
#
# Youngs Moduli (GPa) = 198.75073 93.87171 -85.79961
#
# Poissons Ratio (x) = 0.12838 0.40269
# Poissons Ratio (y) = 0.27182 0.13402
# Poissons Ratio (z) = -0.93282 -0.14663
#
# Static dielectric constant tensor:
#      x y z
#    x 1.721040 0.000000 0.000000 
#    y 0.000000 1.726320 0.000000 
#    z 0.000000 0.000000 1.663490 
# 
# From -- ./inp_files/47941.got.cif
#   From: 2010.05.17/outbox.cif.g08.bks.cpg/sg71_24_cif.got.tgz:47941.got - 2010.06.03 16:22:01.
