data_PCOD9524764
_publ_section_title
;
Structure prediction by ZEFSAII (Michael W. Deem and Ramdas Pophale) SiO2 
 PCOD9524764
Probable space group: I M M M
;
_chemical_formula_sum "Si O2"
_cell_formula_units_Z 48
_cell_length_a 9.000000
_cell_length_b 21.000000
_cell_length_c 27.000000
_cell_angle_alpha 90.000000
_cell_angle_beta 90.000000
_cell_angle_gamma 90.000000
_cell_volume 5103.000000
_symmetry_space_group_name_H-M "I M M M"
_symmetry_group_IT_number 71
_symmetry_cell_setting 'orthorhombic'
loop_
_space_group_symop_operation_xyz
x,y,z
-x,-y,z
x,-y,-z
-x,y,-z
-x,-y,-z
x,y,-z
-x,y,z
x,-y,z
1/2+x,1/2+y,1/2+z
1/2-x,1/2-y,1/2+z
1/2+x,1/2-y,1/2-z
1/2-x,1/2+y,1/2-z
1/2-x,1/2-y,1/2-z
1/2+x,1/2+y,1/2-z
1/2-x,1/2+y,1/2+z
1/2+x,1/2-y,1/2+z
loop_
_atom_site_type_symbol
_atom_site_label
_atom_site_fract_x
_atom_site_fract_y
_atom_site_fract_z
Si Si1 0.173732 0.808382 0.880968
Si Si2 0.827485 0.930878 0.439605
Si Si3 0.326417 0.206636 0.707876
Si Si4 0.676296 0.072021 0.167377
Si Si5 0.678628 0.427144 0.776160
Si Si6 0.670984 0.803435 0.558910
O O1 0.182258 0.753786 0.838824
O O2 0.264994 0.870635 0.866431
O O3 0.230043 0.766205 0.926913
O O4 0.000000 0.826556 0.886991
O O5 0.822725 0.930449 0.500000
O O6 0.751181 0.866625 0.421541
O O7 0.000000 0.929357 0.425150
O O8 0.764426 0.000000 0.424117
O O9 0.500000 0.195908 0.719936
O O10 0.250000 0.250000 0.750000
O O11 0.249972 0.137315 0.701041
O O12 0.500000 0.079406 0.176614
O O13 0.764605 0.075832 0.219276
O O14 0.699970 0.000000 0.147521
O O15 0.500000 0.421968 0.778443
O O16 0.717480 0.500000 0.794025
O O17 0.672507 0.808713 0.500000
O O18 0.500000 0.805759 0.575896
#
# Coordination Sequence:
#
# PCOD9524764 Si02
#       6
#    16  16  16  16  16  16
#     4  10  21  35  52  76 104 135 169 209 258 306
#     4   8  14  26  45  69  96 126 162 204 250 299
#     4  11  21  33  51  75 104 136 171 210 253 304
#     4  10  20  33  52  78 103 130 168 210 251 302
#     4  10  20  34  52  74 103 139 175 211 254 303
#     4   9  18  33  52  74 100 131 171 216 259 304
#
# _framework density 9.4062319999999993
#
# number of rings (size 3 to 8) (size 9 to 14) (size 15 to 20)
#    0.000    2.333    1.667    2.000    0.000    3.667 
#    0.000    2.500    0.000    5.500    0.000    3.500 
#    0.000    0.000    0.000    0.000    0.000    0.000 
#
# Total GULP energy -267467.036173 kJ/mol
# GULP energy per Si atom -5572.229920 kJ/mol
# Density = 0.938482 g / cm^3
# Si number density = 9.406232 Si / 1000 Ang^3
#
#
#
# Elastic Constant Matrix: (Units=GPa)
#
#
# Indices 1 2 3 4 5 6 
#
# 1 74.5141 61.7036 16.9380 0.0000 0.0000 0.0000
# 2 61.7036 177.8812 23.6426 0.0000 0.0000 0.0000
# 3 16.9380 23.6426 27.9934 0.0000 0.0000 0.0000
# 4 0.0000 0.0000 0.0000 23.7885 0.0000 0.0000
# 5 0.0000 0.0000 0.0000 0.0000 11.0127 0.0000
# 6 0.0000 0.0000 0.0000 0.0000 0.0000 43.2073
#
#
#
# Elastic Compliance Matrix: (Units=1/GPa)
#
#
# Indices 1 2 3 4 5 6 
#
# 1 0.019985 -0.005998 -0.007026 0.000000 0.000000 0.000000
# 2 -0.005998 0.008133 -0.003240 0.000000 0.000000 0.000000
# 3 -0.007026 -0.003240 0.042710 0.000000 0.000000 0.000000
# 4 0.000000 0.000000 0.000000 0.042037 0.000000 0.000000
# 5 0.000000 0.000000 0.000000 0.000000 0.090804 0.000000
# 6 0.000000 0.000000 0.000000 0.000000 0.000000 0.023144
#
#
# Mechanical properties :
#
#
# Convention : Reuss Voigt Hill
#
# Bulk Modulus (GPa) = 26.10986 53.88414 39.99700
# Shear Modulus (GPa) = 18.37509 27.47534 22.92522
#
# Velocity S-wave (km/s) = 3.12869 3.82578 3.49466
# Velocity P-wave (km/s) = 5.19238 6.94409 6.13112
#
# Compressibility (1/GPa) = 0.03829971
#
# Stress axis : x y z
#
# Youngs Moduli (GPa) = 50.03874 122.95533 23.41379
#
# Poissons Ratio (x) = 0.73754 0.16450
# Poissons Ratio (y) = 0.30015 0.07585
# Poissons Ratio (z) = 0.35157 0.39832
#
# Static dielectric constant tensor:
#      x y z
#    x 1.675190 0.000000 0.000000 
#    y 0.000000 1.673120 0.000000 
#    z 0.000000 0.000000 1.748170 
# 
# From -- ./inp_files/50828.got.cif
#   From: 2010.05.17/outbox.ucp.g08.bks.cvg/sg71_26_cif.got.tgz:50828.got - 2010.06.11 16:29:00.
