data_PCOD9524355
_publ_section_title
;
Structure prediction by ZEFSAII (Michael W. Deem and Ramdas Pophale) SiO2 
 PCOD9524355
Probable space group: I M M M
;
_chemical_formula_sum "Si O2"
_cell_formula_units_Z 48
_cell_length_a 39.333067
_cell_length_b 7.831166
_cell_length_c 8.133066
_cell_angle_alpha 90.000000
_cell_angle_beta 90.000000
_cell_angle_gamma 90.000000
_cell_volume 2505.177708
_symmetry_space_group_name_H-M "I M M M"
_symmetry_group_IT_number 71
_symmetry_cell_setting 'orthorhombic'
loop_
_space_group_symop_operation_xyz
x,y,z
-x,-y,z
x,-y,-z
-x,y,-z
-x,-y,-z
x,y,-z
-x,y,z
x,-y,z
1/2+x,1/2+y,1/2+z
1/2-x,1/2-y,1/2+z
1/2+x,1/2-y,1/2-z
1/2-x,1/2+y,1/2-z
1/2-x,1/2-y,1/2-z
1/2+x,1/2+y,1/2-z
1/2-x,1/2+y,1/2+z
1/2+x,1/2-y,1/2+z
loop_
_atom_site_type_symbol
_atom_site_label
_atom_site_fract_x
_atom_site_fract_y
_atom_site_fract_z
Si Si1 0.587001 0.000000 0.798235
Si Si2 0.538731 0.694449 0.799495
Si Si3 0.787604 0.192401 0.196536
Si Si4 0.664516 0.000000 0.804012
O O1 0.566023 0.166913 0.744942
O O2 0.625853 0.000000 0.740930
O O3 0.587211 0.000000 0.000000
O O4 0.500000 0.737938 0.749941
O O5 0.546057 0.500000 0.747554
O O6 0.538919 0.695364 0.000000
O O7 0.750000 0.250000 0.250000
O O8 0.814733 0.332375 0.251980
O O9 0.794330 0.000000 0.259047
O O10 0.787960 0.187835 0.000000
O O11 0.663040 0.000000 0.000000
#
# Coordination Sequence:
#
# PCOD9524355 Si02
#       4
#     8  16  16   8
#     4   9  17  27  40  63 100 140 176 212 258 317
#     4   8  13  22  38  60  89 131 180 221 257 302
#     4  11  23  39  61  83 105 136 178 227 276 326
#     4  11  23  36  53  82 116 150 182 218 273 335
#
# _framework density 19.160319000000001
#
# number of rings (size 3 to 8) (size 9 to 14) (size 15 to 20)
#    0.000    2.333    1.667    3.000    0.000    5.333 
#    0.000    3.333    0.000    0.000    0.000    0.000 
#    0.000   10.667    0.000   29.333    0.000   24.000 
#
# Total GULP energy -133954.648714 kJ/mol
# GULP energy per Si atom -5581.443696 kJ/mol
# Density = 1.911671 g / cm^3
# Si number density = 19.160319 Si / 1000 Ang^3
#
#
#
# Elastic Constant Matrix: (Units=GPa)
#
#
# Indices 1 2 3 4 5 6 
#
# 1 206.1916 143.4274 15.1134 0.0000 0.0000 0.0000
# 2 143.4274 203.4847 18.8321 0.0000 0.0000 0.0000
# 3 15.1134 18.8321 22.3867 0.0000 0.0000 0.0000
# 4 0.0000 0.0000 0.0000 18.5013 0.0000 0.0000
# 5 0.0000 0.0000 0.0000 0.0000 11.7810 0.0000
# 6 0.0000 0.0000 0.0000 0.0000 0.0000 9.5125
#
#
#
# Elastic Compliance Matrix: (Units=1/GPa)
#
#
# Indices 1 2 3 4 5 6 
#
# 1 0.009530 -0.006639 -0.000849 0.000000 0.000000 0.000000
# 2 -0.006639 0.009954 -0.003892 0.000000 0.000000 0.000000
# 3 -0.000849 -0.003892 0.048516 0.000000 0.000000 0.000000
# 4 0.000000 0.000000 0.000000 0.054050 0.000000 0.000000
# 5 0.000000 0.000000 0.000000 0.000000 0.084883 0.000000
# 6 0.000000 0.000000 0.000000 0.000000 0.000000 0.105125
#
#
# Mechanical properties :
#
#
# Convention : Reuss Voigt Hill
#
# Bulk Modulus (GPa) = 22.10365 87.42320 54.76342
# Shear Modulus (GPa) = 14.28992 24.93829 19.61410
#
# Velocity S-wave (km/s) = 2.73391 3.61163 3.20298
# Velocity P-wave (km/s) = 4.63971 7.94469 6.50557
#
# Compressibility (1/GPa) = 0.04524140
#
# Stress axis : x y z
#
# Youngs Moduli (GPa) = 104.93192 100.46361 20.61159
#
# Poissons Ratio (x) = 0.66695 0.01750
# Poissons Ratio (y) = 0.69661 0.08021
# Poissons Ratio (z) = 0.08910 0.39096
#
# Static dielectric constant tensor:
#      x y z
#    x 1.645710 0.000000 0.000000 
#    y 0.000000 1.665100 0.000000 
#    z 0.000000 0.000000 1.704570 
# 
# From -- ./inp_files/15980.got.cif
#   From: 2010.05.17/outbox.cif.g08.bks.cpg/sg71_8_cif.got.tgz:15980.got - 2010.06.03 16:22:01.
