data_PCOD9524018
_publ_section_title
;
Structure prediction by ZEFSAII (Michael W. Deem and Ramdas Pophale) SiO2 
 PCOD9524018
Probable space group: I M M M
;
_chemical_formula_sum "Si O2"
_cell_formula_units_Z 92
_cell_length_a 14.915522
_cell_length_b 16.149299
_cell_length_c 21.526278
_cell_angle_alpha 90.000000
_cell_angle_beta 90.000000
_cell_angle_gamma 90.000000
_cell_volume 5185.147046
_symmetry_space_group_name_H-M "I M M M"
_symmetry_group_IT_number 71
_symmetry_cell_setting 'orthorhombic'
loop_
_space_group_symop_operation_xyz
x,y,z
-x,-y,z
x,-y,-z
-x,y,-z
-x,-y,-z
x,y,-z
-x,y,z
x,-y,z
1/2+x,1/2+y,1/2+z
1/2-x,1/2-y,1/2+z
1/2+x,1/2-y,1/2-z
1/2-x,1/2+y,1/2-z
1/2-x,1/2-y,1/2-z
1/2+x,1/2+y,1/2-z
1/2-x,1/2+y,1/2+z
1/2+x,1/2-y,1/2+z
loop_
_atom_site_type_symbol
_atom_site_label
_atom_site_fract_x
_atom_site_fract_y
_atom_site_fract_z
Si Si1 0.000000 0.000000 0.263473
Si Si2 0.863050 0.155753 0.737654
Si Si3 0.396922 0.500000 0.575446
Si Si4 0.601354 0.235583 0.361669
Si Si5 0.341641 0.902363 0.276367
Si Si6 0.400637 0.813861 0.844515
Si Si7 0.228666 0.845971 0.927230
O O1 0.922487 0.926283 0.264104
O O2 0.881884 0.205815 0.801324
O O3 0.758946 0.132117 0.733444
O O4 0.884775 0.221291 0.682762
O O5 0.500000 0.500000 0.600479
O O6 0.403766 0.500000 0.500000
O O7 0.338264 0.420336 0.593533
O O8 0.500000 0.247938 0.383304
O O9 0.617494 0.144179 0.335647
O O10 0.672481 0.263572 0.412544
O O11 0.395000 0.872935 0.215567
O O12 0.341289 0.000000 0.282557
O O13 0.500000 0.818324 0.872345
O O14 0.320749 0.840805 0.889717
O O15 0.245447 0.856945 0.000000
#
# Coordination Sequence:
#
# PCOD9524018 Si02
#       7
#     4  16   8  16  16  16  16
#     4  12  20  30  62  98 114 142 192 230 304 374
#     4  11  19  35  55  88 118 147 182 241 297 348
#     4   9  20  39  58  80 111 146 197 252 286 327
#     4  11  21  36  56  82 119 148 186 239 289 348
#     4  11  21  35  58  85 116 152 187 231 292 351
#     4  11  22  38  58  81 121 154 191 239 286 344
#     4  11  23  39  59  84 115 158 201 237 286 340
#
# _framework density 17.742986999999999
#
# number of rings (size 3 to 8) (size 9 to 14) (size 15 to 20)
#    0.000    1.130    6.087    3.130    1.217    3.478 
#    1.565    0.000    0.000    2.087    0.000    1.826 
#    0.000    0.000    0.000    0.000    0.000    0.000 
#
# Total GULP energy -256445.839455 kJ/mol
# GULP energy per Si atom -5574.909553 kJ/mol
# Density = 1.770260 g / cm^3
# Si number density = 17.742987 Si / 1000 Ang^3
#
#
#
# Elastic Constant Matrix: (Units=GPa)
#
#
# Indices 1 2 3 4 5 6 
#
# 1 143.1156 37.1826 19.2625 0.0000 0.0000 0.0000
# 2 37.1826 103.3484 12.5123 0.0000 0.0000 0.0000
# 3 19.2625 12.5123 24.9434 0.0000 0.0000 0.0000
# 4 0.0000 0.0000 0.0000 15.2060 0.0000 0.0000
# 5 0.0000 0.0000 0.0000 0.0000 11.1908 0.0000
# 6 0.0000 0.0000 0.0000 0.0000 0.0000 36.2582
#
#
#
# Elastic Compliance Matrix: (Units=1/GPa)
#
#
# Indices 1 2 3 4 5 6 
#
# 1 0.008303 -0.002354 -0.005231 0.000000 0.000000 0.000000
# 2 -0.002354 0.010969 -0.003685 0.000000 0.000000 0.000000
# 3 -0.005231 -0.003685 0.045979 0.000000 0.000000 0.000000
# 4 0.000000 0.000000 0.000000 0.065764 0.000000 0.000000
# 5 0.000000 0.000000 0.000000 0.000000 0.089359 0.000000
# 6 0.000000 0.000000 0.000000 0.000000 0.000000 0.027580
#
#
# Mechanical properties :
#
#
# Convention : Reuss Voigt Hill
#
# Bulk Modulus (GPa) = 23.41289 45.48025 34.44657
# Shear Modulus (GPa) = 17.56047 26.02765 21.79406
#
# Velocity S-wave (km/s) = 3.14938 3.83420 3.50854
# Velocity P-wave (km/s) = 5.14286 6.72978 5.98911
#
# Compressibility (1/GPa) = 0.04271151
#
# Stress axis : x y z
#
# Youngs Moduli (GPa) = 120.43821 91.16611 21.74913
#
# Poissons Ratio (x) = 0.21460 0.11377
# Poissons Ratio (y) = 0.28350 0.08014
# Poissons Ratio (z) = 0.63004 0.33591
#
# Static dielectric constant tensor:
#      x y z
#    x 1.632340 0.000000 0.000000 
#    y 0.000000 1.611120 0.000000 
#    z 0.000000 0.000000 1.598650 
# 
# From -- ./inp_files/34545.got.cif
#   From: 2010.05.17/outbox.cif.g08.bks.cpg/sg71_18_cif.got.tgz:34545.got - 2010.06.03 16:22:01.
