data_PCOD9524733
_publ_section_title
;
Structure prediction by ZEFSAII (Michael W. Deem and Ramdas Pophale) SiO2 
 PCOD9524733
Probable space group: I M M M
;
_chemical_formula_sum "Si O2"
_cell_formula_units_Z 44
_cell_length_a 9.000000
_cell_length_b 21.000000
_cell_length_c 24.000000
_cell_angle_alpha 90.000000
_cell_angle_beta 90.000000
_cell_angle_gamma 90.000000
_cell_volume 4536.000000
_symmetry_space_group_name_H-M "I M M M"
_symmetry_group_IT_number 71
_symmetry_cell_setting 'orthorhombic'
loop_
_space_group_symop_operation_xyz
x,y,z
-x,-y,z
x,-y,-z
-x,y,-z
-x,-y,-z
x,y,-z
-x,y,z
x,-y,z
1/2+x,1/2+y,1/2+z
1/2-x,1/2-y,1/2+z
1/2+x,1/2-y,1/2-z
1/2-x,1/2+y,1/2-z
1/2-x,1/2-y,1/2-z
1/2+x,1/2+y,1/2-z
1/2-x,1/2+y,1/2+z
1/2+x,1/2-y,1/2+z
loop_
_atom_site_type_symbol
_atom_site_label
_atom_site_fract_x
_atom_site_fract_y
_atom_site_fract_z
Si Si1 0.830424 0.000000 0.067443
Si Si2 0.678449 0.296783 0.659831
Si Si3 0.679152 0.659342 0.165261
Si Si4 0.321044 0.425225 0.728361
Si Si5 0.680786 0.427374 0.064166
Si Si6 0.325562 0.132607 0.933196
O O1 0.745097 0.935798 0.083224
O O2 0.000000 0.000000 0.088775
O O3 0.837008 0.000000 0.000000
O O4 0.500000 0.293014 0.663713
O O5 0.746925 0.228318 0.677570
O O6 0.726606 0.362855 0.691484
O O7 0.736418 0.312043 0.597739
O O8 0.500000 0.669273 0.165495
O O9 0.710358 0.603357 0.210207
O O10 0.727372 0.628119 0.106489
O O11 0.500000 0.428554 0.721698
O O12 0.269005 0.500000 0.720095
O O13 0.500000 0.427497 0.065653
O O14 0.726491 0.500000 0.079870
O O15 0.725447 0.416322 0.000000
O O16 0.500000 0.134554 0.918757
O O17 0.312974 0.137730 0.000000
#
# Coordination Sequence:
#
# PCOD9524733 Si02
#       6
#     8  16  16  16  16  16
#     4   9  17  31  53  79 107 141 179 221 274 331
#     4  11  23  36  54  80 113 149 187 235 288 345
#     4  10  19  34  57  81 110 147 184 227 282 339
#     4   9  19  36  58  82 105 138 190 243 287 335
#     4   8  14  26  49  83 114 138 174 224 272 323
#     4  10  21  37  56  79 109 145 188 235 279 328
#
# _framework density 9.7001760000000008
#
# number of rings (size 3 to 8) (size 9 to 14) (size 15 to 20)
#    0.000    2.455    0.000    3.000    1.273    5.091 
#    0.000    2.727    0.000    4.364    0.000    1.273 
#    0.000    0.000    0.000    0.000    0.000    0.000 
#
# Total GULP energy -245215.177532 kJ/mol
# GULP energy per Si atom -5573.072217 kJ/mol
# Density = 0.967810 g / cm^3
# Si number density = 9.700176 Si / 1000 Ang^3
#
#
#
# Elastic Constant Matrix: (Units=GPa)
#
#
# Indices 1 2 3 4 5 6 
#
# 1 45.3807 27.5470 15.1481 0.0000 0.0000 0.0000
# 2 27.5470 164.9858 49.7529 0.0000 0.0000 0.0000
# 3 15.1481 49.7529 70.3324 0.0000 0.0000 0.0000
# 4 0.0000 0.0000 0.0000 34.3367 0.0000 0.0000
# 5 0.0000 0.0000 0.0000 0.0000 11.9191 0.0000
# 6 0.0000 0.0000 0.0000 0.0000 0.0000 34.4245
#
#
#
# Elastic Compliance Matrix: (Units=1/GPa)
#
#
# Indices 1 2 3 4 5 6 
#
# 1 0.025040 -0.003247 -0.003096 0.000000 0.000000 0.000000
# 2 -0.003247 0.008126 -0.005049 0.000000 0.000000 0.000000
# 3 -0.003096 -0.005049 0.018457 0.000000 0.000000 0.000000
# 4 0.000000 0.000000 0.000000 0.029123 0.000000 0.000000
# 5 0.000000 0.000000 0.000000 0.000000 0.083899 0.000000
# 6 0.000000 0.000000 0.000000 0.000000 0.000000 0.029049
#
#
# Mechanical properties :
#
#
# Convention : Reuss Voigt Hill
#
# Bulk Modulus (GPa) = 34.67581 51.73275 43.20428
# Shear Modulus (GPa) = 22.11499 28.68613 25.40056
#
# Velocity S-wave (km/s) = 3.37994 3.84948 3.62233
# Velocity P-wave (km/s) = 5.75714 6.81775 6.30977
#
# Compressibility (1/GPa) = 0.02883855
#
# Stress axis : x y z
#
# Youngs Moduli (GPa) = 39.93541 123.06467 54.18141
#
# Poissons Ratio (x) = 0.39962 0.16775
# Poissons Ratio (y) = 0.12968 0.27355
# Poissons Ratio (z) = 0.12364 0.62133
#
# Static dielectric constant tensor:
#      x y z
#    x 1.657780 0.000000 0.000000 
#    y 0.000000 1.666200 0.000000 
#    z 0.000000 0.000000 1.766480 
# 
# From -- ./inp_files/57577.got.cif
#   From: 2010.05.17/outbox.ucp.g08.bks.cvg/sg71_29_cif.got.tgz:57577.got - 2010.06.11 16:29:00.
