data_PCOD9524986
_publ_section_title
;
Structure prediction by ZEFSAII (Michael W. Deem and Ramdas Pophale) SiO2 
 PCOD9524986
Probable space group: I B A M
;
_chemical_formula_sum "Si O2"
_cell_formula_units_Z 64
_cell_length_a 19.124683
_cell_length_b 11.345722
_cell_length_c 13.647361
_cell_angle_alpha 90.000000
_cell_angle_beta 90.000000
_cell_angle_gamma 90.000000
_cell_volume 2961.249926
_symmetry_space_group_name_H-M "I B A M"
_symmetry_group_IT_number 72
_symmetry_cell_setting 'orthorhombic'
loop_
_space_group_symop_operation_xyz
x,y,z
-x,-y,z
x,-y,1/2-z
-x,y,1/2-z
-x,-y,-z
x,y,-z
-x,y,1/2+z
x,-y,1/2+z
1/2+x,1/2+y,1/2+z
1/2-x,1/2-y,1/2+z
1/2+x,1/2-y,-z
1/2-x,1/2+y,-z
1/2-x,1/2-y,1/2-z
1/2+x,1/2+y,1/2-z
1/2-x,1/2+y,z
1/2+x,1/2-y,z
loop_
_atom_site_type_symbol
_atom_site_label
_atom_site_fract_x
_atom_site_fract_y
_atom_site_fract_z
Si Si1 0.479016 0.130507 0.136244
Si Si2 0.816464 0.809511 0.115193
Si Si3 0.466842 0.619054 0.859054
Si Si4 0.170679 0.372708 0.295683
O O1 0.500000 0.125007 0.250000
O O2 0.515879 0.250263 0.100157
O O3 0.395963 0.152155 0.135879
O O4 0.500000 0.000000 0.098978
O O5 0.883349 0.892870 0.133341
O O6 0.826357 0.710947 0.199835
O O7 0.742031 0.865543 0.143184
O O8 0.816571 0.772996 0.000000
O O9 0.500000 0.500000 0.900503
O O10 0.500000 0.624507 0.750000
O O11 0.159987 0.500000 0.250000
#
# Coordination Sequence:
#
# PCOD9524986 Si02
#       4
#    16  16  16  16
#     4  10  16  35  65  94 114 161 216 260 313 382
#     4  11  25  41  61  96 132 167 216 270 321 387
#     4  10  20  36  64  93 123 167 215 261 326 380
#     4  11  22  40  68  87 126 177 213 263 327 389
#
# _framework density 21.612494000000002
#
# number of rings (size 3 to 8) (size 9 to 14) (size 15 to 20)
#    0.000    1.500    7.500    0.000    3.500    1.500 
#    0.000    1.250    0.000    5.250    0.000    0.000 
#    0.000    0.000    0.000    0.000    0.000    0.000 
#
# Total GULP energy -178339.427822 kJ/mol
# GULP energy per Si atom -5573.107119 kJ/mol
# Density = 2.156330 g / cm^3
# Si number density = 21.612494 Si / 1000 Ang^3
#
#
#
# Elastic Constant Matrix: (Units=GPa)
#
#
# Indices 1 2 3 4 5 6 
#
# 1 193.2550 18.9258 25.8348 0.0000 0.0000 0.0000
# 2 18.9258 113.9104 6.2908 0.0000 0.0000 0.0000
# 3 25.8348 6.2908 144.9861 0.0000 0.0000 0.0000
# 4 0.0000 0.0000 0.0000 -76.4042 0.0000 0.0000
# 5 0.0000 0.0000 0.0000 0.0000 -99.5555 0.0000
# 6 0.0000 0.0000 0.0000 0.0000 0.0000 29.6975
#
#
#
# Elastic Compliance Matrix: (Units=1/GPa)
#
#
# Indices 1 2 3 4 5 6 
#
# 1 0.005380 -0.000843 -0.000922 0.000000 0.000000 0.000000
# 2 -0.000843 0.008932 -0.000237 0.000000 0.000000 0.000000
# 3 -0.000922 -0.000237 0.007072 0.000000 0.000000 0.000000
# 4 0.000000 0.000000 0.000000 -0.013088 0.000000 0.000000
# 5 0.000000 0.000000 0.000000 0.000000 -0.010045 0.000000
# 6 0.000000 0.000000 0.000000 0.000000 0.000000 0.033673
#
#
# Mechanical properties :
#
#
# Convention : Reuss Voigt Hill
#
# Bulk Modulus (GPa) = 57.53999 61.58381 59.56190
# Shear Modulus (GPa) = 119.84064 -2.51242 58.66411
#
# Velocity S-wave (km/s) = 7.45453 -1.07936 5.21561
# Velocity P-wave (km/s) = 10.03866 5.19645 7.99305
#
# Compressibility (1/GPa) = 0.01737922
#
# Stress axis : x y z
#
# Youngs Moduli (GPa) = 185.86183 111.95708 141.40620
#
# Poissons Ratio (x) = 0.09438 0.13040
# Poissons Ratio (y) = 0.15668 0.03356
# Poissons Ratio (z) = 0.17139 0.02657
#
# Static dielectric constant tensor:
#      x y z
#    x 1.802950 0.000000 0.000000 
#    y 0.000000 1.811230 0.000000 
#    z 0.000000 0.000000 1.778590 
# 
# From -- ./inp_files/19713.got.cif
#   From: 2010.05.17/outbox.cif.g08.bks.cpg/sg72_10_cif.got.tgz:19713.got - 2010.06.03 17:03:01.
