data_PCOD9524392
_publ_section_title
;
Structure prediction by ZEFSAII (Michael W. Deem and Ramdas Pophale) SiO2 
 PCOD9524392
Probable space group: I M M M
;
_chemical_formula_sum "Si O2"
_cell_formula_units_Z 96
_cell_length_a 19.950119
_cell_length_b 8.369588
_cell_length_c 27.945372
_cell_angle_alpha 90.000000
_cell_angle_beta 90.000000
_cell_angle_gamma 90.000000
_cell_volume 4666.158273
_symmetry_space_group_name_H-M "I M M M"
_symmetry_group_IT_number 71
_symmetry_cell_setting 'orthorhombic'
loop_
_space_group_symop_operation_xyz
x,y,z
-x,-y,z
x,-y,-z
-x,y,-z
-x,-y,-z
x,y,-z
-x,y,z
x,-y,z
1/2+x,1/2+y,1/2+z
1/2-x,1/2-y,1/2+z
1/2+x,1/2-y,1/2-z
1/2-x,1/2+y,1/2-z
1/2-x,1/2-y,1/2-z
1/2+x,1/2+y,1/2-z
1/2-x,1/2+y,1/2+z
1/2+x,1/2-y,1/2+z
loop_
_atom_site_type_symbol
_atom_site_label
_atom_site_fract_x
_atom_site_fract_y
_atom_site_fract_z
Si Si1 0.784708 0.323840 0.443790
Si Si2 0.071973 0.805779 0.308938
Si Si3 0.860207 0.805451 0.944266
Si Si4 0.923973 0.308575 0.848859
Si Si5 0.177178 0.807799 0.232720
Si Si6 0.927334 0.808285 0.580483
O O1 0.771898 0.341079 0.500000
O O2 0.790687 0.500000 0.421382
O O3 0.714606 0.246984 0.427724
O O4 0.856601 0.242945 0.440305
O O5 0.130085 0.747593 0.275727
O O6 0.076107 0.758210 0.364040
O O7 0.000000 0.755247 0.289624
O O8 0.073932 0.000000 0.309009
O O9 0.910247 0.745448 0.903598
O O10 0.858453 0.000000 0.943552
O O11 0.873773 0.758425 0.000000
O O12 0.922836 0.500000 0.846480
O O13 0.863198 0.245929 0.815024
O O14 0.000000 0.254112 0.834806
O O15 0.250000 0.750000 0.250000
O O16 0.178990 0.000000 0.231115
O O17 0.000000 0.750415 0.561075
O O18 0.929555 0.000000 0.577941
#
# Coordination Sequence:
#
# PCOD9524392 Si02
#       6
#    16  16  16  16  16  16
#     4   9  19  35  53  76 109 146 186 236 292 351
#     4   8  16  33  55  77 105 144 187 231 279 335
#     4   9  20  40  64  90 120 157 202 250 305 372
#     4  11  25  43  63  91 127 163 203 253 305 361
#     4  11  23  39  61  90 122 158 201 247 298 357
#     4   9  18  32  51  77 107 142 188 237 284 339
#
# _framework density 20.573671000000001
#
# number of rings (size 3 to 8) (size 9 to 14) (size 15 to 20)
#    0.000    2.500    0.000    3.500    2.333    4.333 
#    0.000    5.833    0.000    2.000    0.000    0.000 
#    0.000    0.000    0.000    0.000    0.000    0.000 
#
# Total GULP energy -267212.837707 kJ/mol
# GULP energy per Si atom -5566.934119 kJ/mol
# Density = 2.052684 g / cm^3
# Si number density = 20.573671 Si / 1000 Ang^3
#
#
#
# Elastic Constant Matrix: (Units=GPa)
#
#
# Indices 1 2 3 4 5 6 
#
# 1 151.7822 23.5998 56.9661 0.0000 0.0000 0.0000
# 2 23.5998 31.7912 15.3369 0.0000 0.0000 0.0000
# 3 56.9661 15.3369 76.1230 0.0000 0.0000 0.0000
# 4 0.0000 0.0000 0.0000 19.2949 0.0000 0.0000
# 5 0.0000 0.0000 0.0000 0.0000 35.4786 0.0000
# 6 0.0000 0.0000 0.0000 0.0000 0.0000 27.1998
#
#
#
# Elastic Compliance Matrix: (Units=1/GPa)
#
#
# Indices 1 2 3 4 5 6 
#
# 1 0.009612 -0.004060 -0.006375 0.000000 0.000000 0.000000
# 2 -0.004060 0.036557 -0.004327 0.000000 0.000000 0.000000
# 3 -0.006375 -0.004327 0.018779 0.000000 0.000000 0.000000
# 4 0.000000 0.000000 0.000000 0.051827 0.000000 0.000000
# 5 0.000000 0.000000 0.000000 0.000000 0.028186 0.000000
# 6 0.000000 0.000000 0.000000 0.000000 0.000000 0.036765
#
#
# Mechanical properties :
#
#
# Convention : Reuss Voigt Hill
#
# Bulk Modulus (GPa) = 28.22974 50.16689 39.19832
# Shear Modulus (GPa) = 22.41556 27.31423 24.86490
#
# Velocity S-wave (km/s) = 3.30438 3.64762 3.48023
# Velocity P-wave (km/s) = 5.32068 6.49439 5.93661
#
# Compressibility (1/GPa) = 0.03542363
#
# Stress axis : x y z
#
# Youngs Moduli (GPa) = 104.03189 27.35486 53.24978
#
# Poissons Ratio (x) = 0.11106 0.33949
# Poissons Ratio (y) = 0.42237 0.23041
# Poissons Ratio (z) = 0.66325 0.11836
#
# Static dielectric constant tensor:
#      x y z
#    x 1.962880 0.000000 0.000000 
#    y 0.000000 1.737910 0.000000 
#    z 0.000000 0.000000 1.746860 
# 
# From -- ./inp_files/66333.got.cif
#   From: 2010.05.17/outbox.cif.g08.bks.cpg/sg71_34_cif.got.tgz:66333.got - 2010.06.03 16:22:01.
