data_PCOD9524788
_publ_section_title
;
Structure prediction by ZEFSAII (Michael W. Deem and Ramdas Pophale) SiO2 
 PCOD9524788
Probable space group: I M M M
;
_chemical_formula_sum "Si O2"
_cell_formula_units_Z 48
_cell_length_a 9.000000
_cell_length_b 24.000000
_cell_length_c 24.000000
_cell_angle_alpha 90.000000
_cell_angle_beta 90.000000
_cell_angle_gamma 90.000000
_cell_volume 5184.000000
_symmetry_space_group_name_H-M "I M M M"
_symmetry_group_IT_number 71
_symmetry_cell_setting 'orthorhombic'
loop_
_space_group_symop_operation_xyz
x,y,z
-x,-y,z
x,-y,-z
-x,y,-z
-x,-y,-z
x,y,-z
-x,y,z
x,-y,z
1/2+x,1/2+y,1/2+z
1/2-x,1/2-y,1/2+z
1/2+x,1/2-y,1/2-z
1/2-x,1/2+y,1/2-z
1/2-x,1/2-y,1/2-z
1/2+x,1/2+y,1/2-z
1/2-x,1/2+y,1/2+z
1/2+x,1/2-y,1/2+z
loop_
_atom_site_type_symbol
_atom_site_label
_atom_site_fract_x
_atom_site_fract_y
_atom_site_fract_z
Si Si1 0.676580 0.736407 0.809093
Si Si2 0.180610 0.438906 0.563241
Si Si3 0.672982 0.876936 0.345691
Si Si4 0.822560 0.062930 0.247731
Si Si5 0.322239 0.857867 0.157559
Si Si6 0.166333 0.935291 0.566353
O O1 0.500000 0.728168 0.802998
O O2 0.750000 0.750000 0.750000
O O3 0.751259 0.681878 0.833534
O O4 0.703647 0.792310 0.844340
O O5 0.231489 0.433185 0.500000
O O6 0.226457 0.500000 0.584518
O O7 0.228092 0.389320 0.602287
O O8 0.000000 0.438683 0.562344
O O9 0.500000 0.874029 0.333147
O O10 0.751032 0.922916 0.306860
O O11 0.709923 0.896654 0.407421
O O12 0.759575 0.110417 0.207300
O O13 0.000000 0.066429 0.250565
O O14 0.781632 0.000000 0.230015
O O15 0.500000 0.865806 0.165462
O O16 0.166792 0.932008 0.500000
O O17 0.000000 0.918822 0.586053
O O18 0.188780 0.000000 0.581237
#
# Coordination Sequence:
#
# PCOD9524788 Si02
#       6
#    16  16  16  16  16  16
#     4  11  22  37  56  79 109 149 191 234 282 332
#     4   8  14  27  50  80 111 139 168 211 267 321
#     4  12  24  37  56  82 112 149 189 232 280 333
#     4  11  23  36  53  79 111 144 178 225 284 340
#     4  10  20  34  55  81 107 139 184 229 273 327
#     4   9  19  38  63  88 115 148 185 230 287 345
#
# _framework density 9.2592590000000001
#
# number of rings (size 3 to 8) (size 9 to 14) (size 15 to 20)
#    0.000    1.833    1.667    4.500    0.000    5.333 
#    0.000    1.667    0.000    3.500    0.000    2.333 
#    0.000    0.000    0.000    0.000    0.000    0.000 
#
# Total GULP energy -267762.391056 kJ/mol
# GULP energy per Si atom -5578.383147 kJ/mol
# Density = 0.923818 g / cm^3
# Si number density = 9.259259 Si / 1000 Ang^3
#
#
#
# Elastic Constant Matrix: (Units=GPa)
#
#
# Indices 1 2 3 4 5 6 
#
# 1 39.6478 34.9059 15.6727 0.0000 0.0000 0.0000
# 2 34.9059 63.4287 31.0313 0.0000 0.0000 0.0000
# 3 15.6727 31.0313 55.2051 0.0000 0.0000 0.0000
# 4 0.0000 0.0000 0.0000 129.5225 0.0000 0.0000
# 5 0.0000 0.0000 0.0000 0.0000 17.8257 0.0000
# 6 0.0000 0.0000 0.0000 0.0000 0.0000 21.1731
#
#
#
# Elastic Compliance Matrix: (Units=1/GPa)
#
#
# Indices 1 2 3 4 5 6 
#
# 1 0.049046 -0.027833 0.001721 0.000000 0.000000 0.000000
# 2 -0.027833 0.037540 -0.013200 0.000000 0.000000 0.000000
# 3 0.001721 -0.013200 0.025046 0.000000 0.000000 0.000000
# 4 0.000000 0.000000 0.000000 0.007721 0.000000 0.000000
# 5 0.000000 0.000000 0.000000 0.000000 0.056099 0.000000
# 6 0.000000 0.000000 0.000000 0.000000 0.000000 0.047230
#
#
# Mechanical properties :
#
#
# Convention : Reuss Voigt Hill
#
# Bulk Modulus (GPa) = 30.29567 35.72240 33.00904
# Shear Modulus (GPa) = 16.00989 38.81571 27.41280
#
# Velocity S-wave (km/s) = 2.94349 4.58323 3.85163
# Velocity P-wave (km/s) = 5.28652 6.88040 6.13544
#
# Compressibility (1/GPa) = 0.03300802
#
# Stress axis : x y z
#
# Youngs Moduli (GPa) = 20.38920 26.63796 39.92712
#
# Poissons Ratio (x) = 0.74140 -0.06871
# Poissons Ratio (y) = 0.56748 0.52704
# Poissons Ratio (z) = -0.03509 0.35163
#
# Static dielectric constant tensor:
#      x y z
#    x 1.630570 0.000000 0.000000 
#    y 0.000000 1.547610 0.000000 
#    z 0.000000 0.000000 1.701300 
# 
# From -- ./inp_files/12812.got.cif
#   From: 2010.05.17/outbox.ucp.g08.bks.cvg/sg71_7_cif.got.tgz:12812.got - 2010.06.11 16:29:00.
