data_PCOD9524485
_publ_section_title
;
Structure prediction by ZEFSAII (Michael W. Deem and Ramdas Pophale) SiO2 
 PCOD9524485
Probable space group: I M M M
;
_chemical_formula_sum "Si O2"
_cell_formula_units_Z 72
_cell_length_a 29.715000
_cell_length_b 7.306693
_cell_length_c 15.798654
_cell_angle_alpha 90.000000
_cell_angle_beta 90.000000
_cell_angle_gamma 90.000000
_cell_volume 3430.178202
_symmetry_space_group_name_H-M "I M M M"
_symmetry_group_IT_number 71
_symmetry_cell_setting 'orthorhombic'
loop_
_space_group_symop_operation_xyz
x,y,z
-x,-y,z
x,-y,-z
-x,y,-z
-x,-y,-z
x,y,-z
-x,y,z
x,-y,z
1/2+x,1/2+y,1/2+z
1/2-x,1/2-y,1/2+z
1/2+x,1/2-y,1/2-z
1/2-x,1/2+y,1/2-z
1/2-x,1/2-y,1/2-z
1/2+x,1/2+y,1/2-z
1/2-x,1/2+y,1/2+z
1/2+x,1/2-y,1/2+z
loop_
_atom_site_type_symbol
_atom_site_label
_atom_site_fract_x
_atom_site_fract_y
_atom_site_fract_z
Si Si1 0.681313 0.721876 0.591602
Si Si2 0.054779 0.712461 0.000000
Si Si3 0.363106 0.209503 0.228411
Si Si4 0.273115 0.782435 0.158991
Si Si5 0.051776 0.724652 0.186081
O O1 0.662327 0.775826 0.500000
O O2 0.680215 0.500000 0.596619
O O3 0.657264 0.791926 0.675855
O O4 0.733889 0.780627 0.596574
O O5 0.066841 0.789375 0.092032
O O6 0.067980 0.500000 0.000000
O O7 0.000000 0.716731 0.000000
O O8 0.323835 0.291326 0.169330
O O9 0.412624 0.287808 0.243874
O O10 0.369104 0.000000 0.200760
O O11 0.250000 0.750000 0.250000
O O12 0.277567 0.000000 0.145878
O O13 0.052740 0.500000 0.183770
O O14 0.000000 0.776945 0.200203
#
# Coordination Sequence:
#
# PCOD9524485 Si02
#       5
#    16   8  16  16  16
#     4   9  17  27  37  49  69  96 119 139 168 208
#     4   7  10  16  24  36  59  87 105 121 153 193
#     4   9  16  24  38  56  70  87 114 148 176 199
#     4   8  14  25  37  50  68  88 112 141 173 204
#     4   8  13  20  30  47  70  90 108 135 172 205
#
# _framework density 20.990162999999999
#
# number of rings (size 3 to 8) (size 9 to 14) (size 15 to 20)
#    0.000    3.667    0.000    1.333    1.556    0.444 
#    0.000    0.000    0.000    0.667    0.000    1.556 
#    0.000    0.889    0.000   12.444    0.000    0.000 
#
# Total GULP energy -200414.513503 kJ/mol
# GULP energy per Si atom -5567.069820 kJ/mol
# Density = 2.094239 g / cm^3
# Si number density = 20.990163 Si / 1000 Ang^3
#
#
#
# Elastic Constant Matrix: (Units=GPa)
#
#
# Indices 1 2 3 4 5 6 
#
# 1 126.4965 -1.2497 -0.8172 0.0000 0.0000 0.0000
# 2 -1.2497 89.8505 -5.6379 0.0000 0.0000 0.0000
# 3 -0.8172 -5.6379 13.8559 0.0000 0.0000 0.0000
# 4 0.0000 0.0000 0.0000 -0.8240 0.0000 0.0000
# 5 0.0000 0.0000 0.0000 0.0000 37.3669 0.0000
# 6 0.0000 0.0000 0.0000 0.0000 0.0000 -5.0605
#
#
#
# Elastic Compliance Matrix: (Units=1/GPa)
#
#
# Indices 1 2 3 4 5 6 
#
# 1 0.007910 0.000143 0.000525 0.000000 0.000000 0.000000
# 2 0.000143 0.011424 0.004657 0.000000 0.000000 0.000000
# 3 0.000525 0.004657 0.074097 0.000000 0.000000 0.000000
# 4 0.000000 0.000000 0.000000 -1.213566 0.000000 0.000000
# 5 0.000000 0.000000 0.000000 0.000000 0.026762 0.000000
# 6 0.000000 0.000000 0.000000 0.000000 0.000000 -0.197609
#
#
# Mechanical properties :
#
#
# Convention : Reuss Voigt Hill
#
# Bulk Modulus (GPa) = 9.60800 23.86591 16.73696
# Shear Modulus (GPa) = -3.94652 22.15698 9.10523
#
# Velocity S-wave (km/s) = -1.37268 3.25251 2.08501
# Velocity P-wave (km/s) = 1.44048 5.04973 3.71314
#
# Compressibility (1/GPa) = 0.10407991
#
# Stress axis : x y z
#
# Youngs Moduli (GPa) = 126.41968 87.53664 13.49578
#
# Poissons Ratio (x) = -0.01251 -0.00708
# Poissons Ratio (y) = -0.01807 -0.06285
# Poissons Ratio (z) = -0.06633 -0.40763
#
# Static dielectric constant tensor:
#      x y z
#    x 1.852830 0.000000 0.000000 
#    y 0.000000 1.793580 0.000000 
#    z 0.000000 0.000000 1.723670 
# 
# From -- ./inp_files/24333.got.cif
#   From: 2010.05.17/outbox.cif.g08.bks.cpg/sg71_13_cif.got.tgz:24333.got - 2010.06.03 16:22:01.
