data_PCOD9524103
_publ_section_title
;
Structure prediction by ZEFSAII (Michael W. Deem and Ramdas Pophale) SiO2 
 PCOD9524103
Probable space group: I M M M
;
_chemical_formula_sum "Si O2"
_cell_formula_units_Z 104
_cell_length_a 27.183199
_cell_length_b 7.552892
_cell_length_c 24.883092
_cell_angle_alpha 90.000000
_cell_angle_beta 90.000000
_cell_angle_gamma 90.000000
_cell_volume 5108.791569
_symmetry_space_group_name_H-M "I M M M"
_symmetry_group_IT_number 71
_symmetry_cell_setting 'orthorhombic'
loop_
_space_group_symop_operation_xyz
x,y,z
-x,-y,z
x,-y,-z
-x,y,-z
-x,-y,-z
x,y,-z
-x,y,z
x,-y,z
1/2+x,1/2+y,1/2+z
1/2-x,1/2-y,1/2+z
1/2+x,1/2-y,1/2-z
1/2-x,1/2+y,1/2-z
1/2-x,1/2-y,1/2-z
1/2+x,1/2+y,1/2-z
1/2-x,1/2+y,1/2+z
1/2+x,1/2-y,1/2+z
loop_
_atom_site_type_symbol
_atom_site_label
_atom_site_fract_x
_atom_site_fract_y
_atom_site_fract_z
Si Si1 0.827156 0.793014 0.159982
Si Si2 0.357772 0.784324 0.938522
Si Si3 0.106622 0.285804 0.938935
Si Si4 0.283322 0.783261 0.847070
Si Si5 0.056038 0.283590 0.642271
Si Si6 0.869145 0.291551 0.270417
Si Si7 0.000000 0.703687 0.065427
O O1 0.851635 0.763977 0.102479
O O2 0.771989 0.716732 0.160679
O O3 0.862892 0.728343 0.207187
O O4 0.822269 0.000000 0.169743
O O5 0.310763 0.731638 0.902379
O O6 0.406902 0.731371 0.905817
O O7 0.357881 0.000000 0.939378
O O8 0.356530 0.723134 0.000000
O O9 0.103345 0.500000 0.940410
O O10 0.052842 0.217987 0.920035
O O11 0.115697 0.225777 0.000000
O O12 0.319720 0.723148 0.799523
O O13 0.281642 0.000000 0.847095
O O14 0.054187 0.500000 0.641656
O O15 0.083156 0.224551 0.697452
O O16 0.000000 0.221550 0.637371
O O17 0.869360 0.500000 0.281528
O O18 0.000000 0.500000 0.084643
O O19 0.000000 0.699590 0.000000
#
# Coordination Sequence:
#
# PCOD9524103 Si02
#       7
#    16  16  16  16  16  16   8
#     4  11  21  31  46  71  98 122 155 197 241 285
#     4   8  13  22  38  62  93 126 155 185 229 283
#     4   9  18  34  54  73  93 119 153 190 229 278
#     4   8  16  29  44  63  90 127 164 196 231 277
#     4   8  14  25  42  65  91 119 154 195 235 275
#     4   9  17  32  50  65  88 125 167 202 233 274
#     4   7  12  28  53  71  83 109 149 185 214 257
#
# _framework density 20.357064999999999
#
# number of rings (size 3 to 8) (size 9 to 14) (size 15 to 20)
#    0.000    3.308    0.000    3.692    0.000    1.231 
#    1.385    4.231    0.000    1.385    0.000    0.000 
#    0.000    5.538    0.000    5.538    0.000    6.154 
#
# Total GULP energy -289768.967035 kJ/mol
# GULP energy per Si atom -5572.480135 kJ/mol
# Density = 2.031073 g / cm^3
# Si number density = 20.357065 Si / 1000 Ang^3
#
#
#
# Elastic Constant Matrix: (Units=GPa)
#
#
# Indices 1 2 3 4 5 6 
#
# 1 27.4918 0.3509 8.8932 0.0000 0.0000 0.0000
# 2 0.3509 42.3713 -8.8172 0.0000 0.0000 0.0000
# 3 8.8932 -8.8172 89.9182 0.0000 0.0000 0.0000
# 4 0.0000 0.0000 0.0000 -3.3155 0.0000 0.0000
# 5 0.0000 0.0000 0.0000 0.0000 11.0126 0.0000
# 6 0.0000 0.0000 0.0000 0.0000 0.0000 5.8274
#
#
#
# Elastic Compliance Matrix: (Units=1/GPa)
#
#
# Indices 1 2 3 4 5 6 
#
# 1 0.037628 -0.001109 -0.003830 0.000000 0.000000 0.000000
# 2 -0.001109 0.024125 0.002475 0.000000 0.000000 0.000000
# 3 -0.003830 0.002475 0.011743 0.000000 0.000000 0.000000
# 4 0.000000 0.000000 0.000000 -0.301616 0.000000 0.000000
# 5 0.000000 0.000000 0.000000 0.000000 0.090805 0.000000
# 6 0.000000 0.000000 0.000000 0.000000 0.000000 0.171604
#
#
# Mechanical properties :
#
#
# Convention : Reuss Voigt Hill
#
# Bulk Modulus (GPa) = 14.58397 17.84834 16.21615
# Shear Modulus (GPa) = 80.55087 13.32852 46.93970
#
# Velocity S-wave (km/s) = 6.29721 2.56156 4.80710
# Velocity P-wave (km/s) = 7.74938 4.18753 6.22849
#
# Compressibility (1/GPa) = 0.06856843
#
# Stress axis : x y z
#
# Youngs Moduli (GPa) = 26.57623 41.45053 85.15882
#
# Poissons Ratio (x) = 0.04595 0.32617
# Poissons Ratio (y) = 0.02946 -0.21080
# Poissons Ratio (z) = 0.10179 -0.10260
#
# Static dielectric constant tensor:
#      x y z
#    x 1.730830 0.000000 0.000000 
#    y 0.000000 1.809030 0.000000 
#    z 0.000000 0.000000 1.705010 
# 
# From -- ./inp_files/61954.got.cif
#   From: 2010.05.17/outbox.cif.g08.bks.cpg/sg71_31_cif.got.tgz:61954.got - 2010.06.03 16:22:01.
