data_PCOD9524456
_publ_section_title
;
Structure prediction by ZEFSAII (Michael W. Deem and Ramdas Pophale) SiO2 
 PCOD9524456
Probable space group: I M M M
;
_chemical_formula_sum "Si O2"
_cell_formula_units_Z 104
_cell_length_a 14.997646
_cell_length_b 22.117737
_cell_length_c 17.858891
_cell_angle_alpha 90.000000
_cell_angle_beta 90.000000
_cell_angle_gamma 90.000000
_cell_volume 5924.043988
_symmetry_space_group_name_H-M "I M M M"
_symmetry_group_IT_number 71
_symmetry_cell_setting 'orthorhombic'
loop_
_space_group_symop_operation_xyz
x,y,z
-x,-y,z
x,-y,-z
-x,y,-z
-x,-y,-z
x,y,-z
-x,y,z
x,-y,z
1/2+x,1/2+y,1/2+z
1/2-x,1/2-y,1/2+z
1/2+x,1/2-y,1/2-z
1/2-x,1/2+y,1/2-z
1/2-x,1/2-y,1/2-z
1/2+x,1/2+y,1/2-z
1/2-x,1/2+y,1/2+z
1/2+x,1/2-y,1/2+z
loop_
_atom_site_type_symbol
_atom_site_label
_atom_site_fract_x
_atom_site_fract_y
_atom_site_fract_z
Si Si1 0.778778 0.895552 0.164254
Si Si2 0.905076 0.181461 0.916479
Si Si3 0.741689 0.312357 0.199986
Si Si4 0.896208 0.241627 0.414215
Si Si5 0.107028 0.000000 0.089390
Si Si6 0.601009 0.825820 0.584663
Si Si7 0.101272 0.613319 0.588620
O O1 0.812958 0.836838 0.119402
O O2 0.780334 0.870002 0.247842
O O3 0.680412 0.913928 0.137675
O O4 0.849627 0.943827 0.133797
O O5 0.906202 0.253220 0.920865
O O6 0.000000 0.163169 0.879493
O O7 0.906089 0.155499 0.000000
O O8 0.750000 0.250000 0.250000
O O9 0.664283 0.295287 0.142081
O O10 0.828444 0.331870 0.151591
O O11 0.866421 0.232675 0.500000
O O12 0.893541 0.313960 0.399877
O O13 0.000000 0.224226 0.408148
O O14 0.000000 0.000000 0.093566
O O15 0.130917 0.000000 0.000000
O O16 0.626646 0.846928 0.500000
O O17 0.500000 0.848336 0.600840
O O18 0.116064 0.601833 0.500000
O O19 0.000000 0.594233 0.606627
#
# Coordination Sequence:
#
# PCOD9524456 Si02
#       7
#    16  16  16  16   8  16  16
#     4  12  22  34  52  76 106 143 187 241 292 323
#     4   9  16  27  46  71 101 141 185 225 269 327
#     4  12  21  30  48  82 114 143 180 232 292 349
#     4   9  18  32  48  70 106 146 177 209 263 343
#     4  11  26  46  63  79 106 153 209 249 273 312
#     4   9  18  32  49  73 110 150 181 214 268 347
#     4   9  17  30  49  72 101 139 177 213 261 328
#
# _framework density 17.555575999999999
#
# number of rings (size 3 to 8) (size 9 to 14) (size 15 to 20)
#    0.000    1.923    3.077    4.154    0.000    6.154 
#    0.000    0.385    0.000    1.385    0.000    2.154 
#    0.000    4.923    0.000    0.000    0.000    0.000 
#
# Total GULP energy -289487.658469 kJ/mol
# GULP energy per Si atom -5567.070355 kJ/mol
# Density = 1.751562 g / cm^3
# Si number density = 17.555576 Si / 1000 Ang^3
#
#
#
# Elastic Constant Matrix: (Units=GPa)
#
#
# Indices 1 2 3 4 5 6 
#
# 1 91.2567 15.6965 57.6349 0.0000 0.0000 0.0000
# 2 15.6965 30.8212 27.2598 0.0001 0.0000 0.0000
# 3 57.6349 27.2598 93.7515 0.0003 0.0000 0.0000
# 4 0.0000 0.0001 0.0003 14.0498 0.0000 0.0000
# 5 0.0000 0.0000 0.0000 0.0000 -78.0594 0.0000
# 6 0.0000 0.0000 0.0000 0.0000 0.0000 16.2868
#
#
#
# Elastic Compliance Matrix: (Units=1/GPa)
#
#
# Indices 1 2 3 4 5 6 
#
# 1 0.017929 0.000832 -0.011264 0.000000 0.000000 0.000000
# 2 0.000832 0.043716 -0.013222 0.000000 0.000000 0.000000
# 3 -0.011264 -0.013222 0.021436 0.000000 0.000000 0.000000
# 4 0.000000 0.000000 0.000000 0.071175 0.000000 0.000000
# 5 0.000000 0.000000 0.000000 0.000000 -0.012811 0.000000
# 6 0.000000 0.000000 0.000000 0.000000 0.000000 0.061399
#
#
# Mechanical properties :
#
#
# Convention : Reuss Voigt Hill
#
# Bulk Modulus (GPa) = 27.95520 46.33465 37.14493
# Shear Modulus (GPa) = 19.07826 -1.86201 8.60813
#
# Velocity S-wave (km/s) = 3.30014 -1.03099 2.21675
# Velocity P-wave (km/s) = 5.52084 5.00332 5.26844
#
# Compressibility (1/GPa) = 0.03577151
#
# Stress axis : x y z
#
# Youngs Moduli (GPa) = 55.77563 22.87474 46.65105
#
# Poissons Ratio (x) = -0.01902 0.52547
# Poissons Ratio (y) = -0.04638 0.61684
# Poissons Ratio (z) = 0.62825 0.30246
#
# Static dielectric constant tensor:
#      x y z
#    x 1.673760 0.000000 0.000000 
#    y 0.000000 1.647770 0.000000 
#    z 0.000000 0.000000 1.632700 
# 
# From -- ./inp_files/45142.got.cif
#   From: 2010.05.17/outbox.cif.g08.bks.cpg/sg71_23_cif.got.tgz:45142.got - 2010.06.03 16:22:01.
