data_PCOD9524123
_publ_section_title
;
Structure prediction by ZEFSAII (Michael W. Deem and Ramdas Pophale) SiO2 
 PCOD9524123
Probable space group: I M M M
;
_chemical_formula_sum "Si O2"
_cell_formula_units_Z 80
_cell_length_a 32.405099
_cell_length_b 15.170001
_cell_length_c 9.169283
_cell_angle_alpha 90.000000
_cell_angle_beta 90.000000
_cell_angle_gamma 90.000000
_cell_volume 4507.485507
_symmetry_space_group_name_H-M "I M M M"
_symmetry_group_IT_number 71
_symmetry_cell_setting 'orthorhombic'
loop_
_space_group_symop_operation_xyz
x,y,z
-x,-y,z
x,-y,-z
-x,y,-z
-x,-y,-z
x,y,-z
-x,y,z
x,-y,z
1/2+x,1/2+y,1/2+z
1/2-x,1/2-y,1/2+z
1/2+x,1/2-y,1/2-z
1/2-x,1/2+y,1/2-z
1/2-x,1/2-y,1/2-z
1/2+x,1/2+y,1/2-z
1/2-x,1/2+y,1/2+z
1/2+x,1/2-y,1/2+z
loop_
_atom_site_type_symbol
_atom_site_label
_atom_site_fract_x
_atom_site_fract_y
_atom_site_fract_z
Si Si1 0.801942 0.334950 0.335217
Si Si2 0.115921 0.280183 0.826070
Si Si3 0.132024 0.902979 0.676014
Si Si4 0.224595 0.870225 0.665079
Si Si5 0.451185 0.103880 0.828835
O O1 0.811406 0.363579 0.500000
O O2 0.843119 0.327343 0.239420
O O3 0.784584 0.234721 0.342011
O O4 0.764317 0.387657 0.263107
O O5 0.114068 0.181763 0.757434
O O6 0.076944 0.335906 0.771829
O O7 0.118696 0.275431 0.000000
O O8 0.130372 0.888639 0.500000
O O9 0.180606 0.906107 0.716222
O O10 0.113934 0.000000 0.707169
O O11 0.232501 0.899560 0.500000
O O12 0.500000 0.118859 0.806284
O O13 0.443250 0.000000 0.803381
O O14 0.442161 0.121907 0.000000
#
# Coordination Sequence:
#
# PCOD9524123 Si02
#       5
#    16  16  16  16  16
#     4   9  16  27  44  65  93 132 174 213 254 301
#     4  11  21  32  51  79 110 141 171 210 260 310
#     4   9  18  33  52  73 101 141 186 226 261 302
#     4   8  14  25  42  65  92 125 169 220 267 301
#     4   9  19  38  63  86 106 130 162 202 251 311
#
# _framework density 17.748255
#
# number of rings (size 3 to 8) (size 9 to 14) (size 15 to 20)
#    0.000    2.800    0.000    4.200    0.000    6.000 
#    0.000    2.000    0.000    4.200    0.000    4.200 
#    0.000    0.000    0.000    0.000    0.000    0.000 
#
# Total GULP energy -222921.218703 kJ/mol
# GULP energy per Si atom -5573.030468 kJ/mol
# Density = 1.770786 g / cm^3
# Si number density = 17.748255 Si / 1000 Ang^3
#
#
#
# Elastic Constant Matrix: (Units=GPa)
#
#
# Indices 1 2 3 4 5 6 
#
# 1 61.4224 41.4005 59.4547 0.0000 0.0000 0.0000
# 2 41.4005 66.6167 51.1579 0.0000 0.0000 0.0000
# 3 59.4547 51.1579 111.4799 0.0000 0.0000 0.0000
# 4 0.0000 0.0000 0.0000 10.0616 0.0000 0.0000
# 5 0.0000 0.0000 0.0000 0.0000 29.7224 0.0000
# 6 0.0000 0.0000 0.0000 0.0000 0.0000 4.0710
#
#
#
# Elastic Compliance Matrix: (Units=1/GPa)
#
#
# Indices 1 2 3 4 5 6 
#
# 1 0.039849 -0.013040 -0.015269 0.000000 0.000000 0.000000
# 2 -0.013040 0.027447 -0.005641 0.000000 0.000000 0.000000
# 3 -0.015269 -0.005641 0.019702 0.000000 0.000000 0.000000
# 4 0.000000 0.000000 0.000000 0.099388 0.000000 0.000000
# 5 0.000000 0.000000 0.000000 0.000000 0.033645 0.000000
# 6 0.000000 0.000000 0.000000 0.000000 0.000000 0.245642
#
#
# Mechanical properties :
#
#
# Convention : Reuss Voigt Hill
#
# Bulk Modulus (GPa) = 52.35721 60.39388 56.37555
# Shear Modulus (GPa) = 9.26031 14.60473 11.93252
#
# Velocity S-wave (km/s) = 2.28668 2.87170 2.59573
# Velocity P-wave (km/s) = 6.04449 6.71547 6.38879
#
# Compressibility (1/GPa) = 0.01909957
#
# Stress axis : x y z
#
# Youngs Moduli (GPa) = 25.09445 36.43363 50.75647
#
# Poissons Ratio (x) = 0.47509 0.77498
# Poissons Ratio (y) = 0.32723 0.28631
# Poissons Ratio (z) = 0.38316 0.20552
#
# Static dielectric constant tensor:
#      x y z
#    x 1.585610 0.000000 0.000000 
#    y 0.000000 1.659510 0.000000 
#    z 0.000000 0.000000 1.606360 
# 
# From -- ./inp_files/16526.got.cif
#   From: 2010.05.17/outbox.cif.g08.bks.cpg/sg71_9_cif.got.tgz:16526.got - 2010.06.03 16:22:01.
