data_PCOD9524011
_publ_section_title
;
Structure prediction by ZEFSAII (Michael W. Deem and Ramdas Pophale) SiO2 
 PCOD9524011
Probable space group: I M M M
;
_chemical_formula_sum "Si O2"
_cell_formula_units_Z 72
_cell_length_a 16.168103
_cell_length_b 10.693087
_cell_length_c 25.392610
_cell_angle_alpha 90.000000
_cell_angle_beta 90.000000
_cell_angle_gamma 90.000000
_cell_volume 4390.050438
_symmetry_space_group_name_H-M "I M M M"
_symmetry_group_IT_number 71
_symmetry_cell_setting 'orthorhombic'
loop_
_space_group_symop_operation_xyz
x,y,z
-x,-y,z
x,-y,-z
-x,y,-z
-x,-y,-z
x,y,-z
-x,y,z
x,-y,z
1/2+x,1/2+y,1/2+z
1/2-x,1/2-y,1/2+z
1/2+x,1/2-y,1/2-z
1/2-x,1/2+y,1/2-z
1/2-x,1/2-y,1/2-z
1/2+x,1/2+y,1/2-z
1/2-x,1/2+y,1/2+z
1/2+x,1/2-y,1/2+z
loop_
_atom_site_type_symbol
_atom_site_label
_atom_site_fract_x
_atom_site_fract_y
_atom_site_fract_z
Si Si1 0.194219 0.754320 0.695597
Si Si2 0.899124 0.500000 0.710317
Si Si3 0.401527 0.500000 0.649635
Si Si4 0.595542 0.000000 0.328222
Si Si5 0.400194 0.848536 0.500000
Si Si6 0.335853 0.236089 0.388313
Si Si7 0.400746 0.500000 0.772485
O O1 0.250000 0.750000 0.750000
O O2 0.140204 0.628371 0.689360
O O3 0.249024 0.768368 0.642857
O O4 0.136558 0.875163 0.702452
O O5 0.865990 0.500000 0.770767
O O6 0.000000 0.500000 0.706028
O O7 0.500000 0.500000 0.648228
O O8 0.369999 0.626194 0.623141
O O9 0.375523 0.500000 0.710811
O O10 0.615395 0.125109 0.359118
O O11 0.500000 0.000000 0.317577
O O12 0.500000 0.816508 0.500000
O O13 0.352096 0.795867 0.550895
O O14 0.396573 0.000000 0.500000
O O15 0.500000 0.500000 0.775228
#
# Coordination Sequence:
#
# PCOD9524011 Si02
#       7
#    16   8   8   8   8  16   8
#     4  12  21  36  56  86 117 152 193 239 287 342
#     4  11  22  36  56  85 120 156 191 230 290 359
#     4  11  21  34  52  80 117 153 186 227 285 340
#     4  11  19  32  54  82 113 155 198 229 273 336
#     4  11  24  41  59  83 114 153 199 233 271 337
#     4  12  23  36  57  81 113 156 195 238 280 324
#     4  11  22  36  54  83 120 154 185 230 292 351
#
# _framework density 16.400722999999999
#
# number of rings (size 3 to 8) (size 9 to 14) (size 15 to 20)
#    0.000    0.556    5.556    4.667    0.000    4.000 
#    0.000    1.111    0.000    0.000    0.000    4.667 
#    0.000    0.000    0.000    0.000    0.000    0.000 
#
# Total GULP energy -200794.029898 kJ/mol
# GULP energy per Si atom -5577.611942 kJ/mol
# Density = 1.636339 g / cm^3
# Si number density = 16.400723 Si / 1000 Ang^3
#
#
#
# Elastic Constant Matrix: (Units=GPa)
#
#
# Indices 1 2 3 4 5 6 
#
# 1 73.2329 50.4789 52.5461 0.0000 0.0000 0.0000
# 2 50.4789 159.6654 50.3354 0.0000 0.0000 0.0000
# 3 52.5461 50.3354 129.8228 0.0000 0.0000 0.0000
# 4 0.0000 0.0000 0.0000 9.0385 0.0000 0.0000
# 5 0.0000 0.0000 0.0000 0.0000 19.4625 0.0000
# 6 0.0000 0.0000 0.0000 0.0000 0.0000 43.9492
#
#
#
# Elastic Compliance Matrix: (Units=1/GPa)
#
#
# Indices 1 2 3 4 5 6 
#
# 1 0.021979 -0.004721 -0.007066 0.000000 0.000000 0.000000
# 2 -0.004721 0.008149 -0.001249 0.000000 0.000000 0.000000
# 3 -0.007066 -0.001249 0.011047 0.000000 0.000000 0.000000
# 4 0.000000 0.000000 0.000000 0.110638 0.000000 0.000000
# 5 0.000000 0.000000 0.000000 0.000000 0.051381 0.000000
# 6 0.000000 0.000000 0.000000 0.000000 0.000000 0.022754
#
#
# Mechanical properties :
#
#
# Convention : Reuss Voigt Hill
#
# Bulk Modulus (GPa) = 66.20729 74.38243 70.29486
# Shear Modulus (GPa) = 19.45120 28.44743 23.94932
#
# Velocity S-wave (km/s) = 3.44757 4.16928 3.82548
# Velocity P-wave (km/s) = 7.50358 8.28425 7.90356
#
# Compressibility (1/GPa) = 0.01510408
#
# Stress axis : x y z
#
# Youngs Moduli (GPa) = 45.49775 122.70774 90.52424
#
# Poissons Ratio (x) = 0.57935 0.63960
# Poissons Ratio (y) = 0.21481 0.11304
# Poissons Ratio (z) = 0.32147 0.15323
#
# Static dielectric constant tensor:
#      x y z
#    x 1.573060 0.000000 0.000000 
#    y 0.000000 1.546610 0.000000 
#    z 0.000000 0.000000 1.564710 
# 
# From -- ./inp_files/60412.got.cif
#   From: 2010.05.17/outbox.cif.g08.bks.cpg/sg71_31_cif.got.tgz:60412.got - 2010.06.03 16:22:01.
