data_PCOD9524002
_publ_section_title
;
Structure prediction by ZEFSAII (Michael W. Deem and Ramdas Pophale) SiO2 
 PCOD9524002
Probable space group: I M M M
;
_chemical_formula_sum "Si O2"
_cell_formula_units_Z 104
_cell_length_a 22.919706
_cell_length_b 7.958701
_cell_length_c 28.363163
_cell_angle_alpha 90.000000
_cell_angle_beta 90.000000
_cell_angle_gamma 90.000000
_cell_volume 5173.755395
_symmetry_space_group_name_H-M "I M M M"
_symmetry_group_IT_number 71
_symmetry_cell_setting 'orthorhombic'
loop_
_space_group_symop_operation_xyz
x,y,z
-x,-y,z
x,-y,-z
-x,y,-z
-x,-y,-z
x,y,-z
-x,y,z
x,-y,z
1/2+x,1/2+y,1/2+z
1/2-x,1/2-y,1/2+z
1/2+x,1/2-y,1/2-z
1/2-x,1/2+y,1/2-z
1/2-x,1/2-y,1/2-z
1/2+x,1/2+y,1/2-z
1/2-x,1/2+y,1/2+z
1/2+x,1/2-y,1/2+z
loop_
_atom_site_type_symbol
_atom_site_label
_atom_site_fract_x
_atom_site_fract_y
_atom_site_fract_z
Si Si1 0.724975 0.805886 0.200576
Si Si2 0.164526 0.802806 0.867980
Si Si3 0.069208 0.804339 0.500000
Si Si4 0.567141 0.705054 0.704689
Si Si5 0.871687 0.306768 0.405542
Si Si6 0.748427 0.293088 0.445012
Si Si7 0.598368 0.687662 0.808598
O O1 0.750000 0.750000 0.250000
O O2 0.777753 0.793967 0.164303
O O3 0.668663 0.695170 0.191147
O O4 0.705805 0.000000 0.202097
O O5 0.112084 0.732455 0.835529
O O6 0.189713 0.736129 0.917655
O O7 0.150114 0.000000 0.875723
O O8 0.093972 0.718274 0.453631
O O9 0.000000 0.796657 0.500000
O O10 0.087270 0.000000 0.500000
O O11 0.500000 0.741183 0.693143
O O12 0.574638 0.500000 0.706347
O O13 0.580021 0.767440 0.758351
O O14 0.859597 0.500000 0.395541
O O15 0.806956 0.233411 0.417352
O O16 0.911556 0.251156 0.361501
O O17 0.751041 0.244572 0.500000
O O18 0.748793 0.500000 0.443877
O O19 0.574942 0.500000 0.806780
#
# Coordination Sequence:
#
# PCOD9524002 Si02
#       7
#    16  16   8  16  16  16  16
#     4  11  19  30  49  76 106 136 174 221 273 329
#     4   9  16  28  48  74 101 132 175 221 269 328
#     4  11  25  43  59  77 107 149 194 235 274 324
#     4   9  18  32  49  70 101 144 187 223 265 325
#     4  11  21  36  58  82 109 142 183 231 280 330
#     4   9  16  28  49  77 105 132 166 218 282 334
#     4  11  21  33  51  79 111 144 181 223 274 329
#
# _framework density 20.101452999999999
#
# number of rings (size 3 to 8) (size 9 to 14) (size 15 to 20)
#    0.000    1.923    3.846    1.615    0.000    1.231 
#    0.000    1.538    0.000    1.846    0.000    3.231 
#    0.000    0.000    0.000    0.000    0.000    4.308 
#
# Total GULP energy -289689.565302 kJ/mol
# GULP energy per Si atom -5570.953179 kJ/mol
# Density = 2.005570 g / cm^3
# Si number density = 20.101453 Si / 1000 Ang^3
#
#
#
# Elastic Constant Matrix: (Units=GPa)
#
#
# Indices 1 2 3 4 5 6 
#
# 1 68.8377 7.3148 28.0750 0.0000 0.0000 0.0000
# 2 7.3148 18.0954 11.7227 0.0000 0.0000 0.0000
# 3 28.0750 11.7227 105.3290 0.0000 0.0000 0.0000
# 4 0.0000 0.0000 0.0000 0.4914 0.0000 0.0000
# 5 0.0000 0.0000 0.0000 0.0000 153.3348 0.0000
# 6 0.0000 0.0000 0.0000 0.0000 0.0000 9.2689
#
#
#
# Elastic Compliance Matrix: (Units=1/GPa)
#
#
# Indices 1 2 3 4 5 6 
#
# 1 0.016581 -0.004138 -0.003959 0.000000 0.000000 0.000000
# 2 -0.004138 0.060589 -0.005640 0.000000 0.000000 0.000000
# 3 -0.003959 -0.005640 0.011177 0.000000 0.000000 0.000000
# 4 0.000000 0.000000 0.000000 2.035119 0.000000 0.000000
# 5 0.000000 0.000000 0.000000 0.000000 0.006522 0.000000
# 6 0.000000 0.000000 0.000000 0.000000 0.000000 0.107887
#
#
# Mechanical properties :
#
#
# Convention : Reuss Voigt Hill
#
# Bulk Modulus (GPa) = 16.42770 31.83189 24.12980
# Shear Modulus (GPa) = 2.18757 42.29567 22.24162
#
# Velocity S-wave (km/s) = 1.04433 4.59203 3.32997
# Velocity P-wave (km/s) = 3.10553 6.63217 5.17832
#
# Compressibility (1/GPa) = 0.06087278
#
# Stress axis : x y z
#
# Youngs Moduli (GPa) = 60.30874 16.50460 89.46853
#
# Poissons Ratio (x) = 0.06829 0.35422
# Poissons Ratio (y) = 0.24955 0.50464
# Poissons Ratio (z) = 0.23877 0.09309
#
# Static dielectric constant tensor:
#      x y z
#    x 1.705400 0.000000 0.000000 
#    y 0.000000 1.462780 0.000000 
#    z 0.000000 0.000000 1.798470 
# 
# From -- ./inp_files/17026.got.cif
#   From: 2010.05.17/outbox.cif.g08.bks.cpg/sg71_9_cif.got.tgz:17026.got - 2010.06.03 16:22:01.
