data_PCOD9524655
_publ_section_title
;
Structure prediction by ZEFSAII (Michael W. Deem and Ramdas Pophale) SiO2 
 PCOD9524655
Probable space group: I M M M
;
_chemical_formula_sum "Si O2"
_cell_formula_units_Z 80
_cell_length_a 29.371157
_cell_length_b 7.723980
_cell_length_c 15.806466
_cell_angle_alpha 90.000000
_cell_angle_beta 90.000000
_cell_angle_gamma 90.000000
_cell_volume 3585.890113
_symmetry_space_group_name_H-M "I M M M"
_symmetry_group_IT_number 71
_symmetry_cell_setting 'orthorhombic'
loop_
_space_group_symop_operation_xyz
x,y,z
-x,-y,z
x,-y,-z
-x,y,-z
-x,-y,-z
x,y,-z
-x,y,z
x,-y,z
1/2+x,1/2+y,1/2+z
1/2-x,1/2-y,1/2+z
1/2+x,1/2-y,1/2-z
1/2-x,1/2+y,1/2-z
1/2-x,1/2-y,1/2-z
1/2+x,1/2+y,1/2-z
1/2-x,1/2+y,1/2+z
1/2+x,1/2-y,1/2+z
loop_
_atom_site_type_symbol
_atom_site_label
_atom_site_fract_x
_atom_site_fract_y
_atom_site_fract_z
Si Si1 0.711712 0.300895 0.632145
Si Si2 0.386380 0.304984 0.597827
Si Si3 0.693418 0.787603 0.824833
Si Si4 0.598439 0.793036 0.903268
Si Si5 0.052464 0.500000 0.895693
Si Si6 0.500000 0.705458 0.903182
O O1 0.712036 0.500000 0.603131
O O2 0.664650 0.226894 0.597678
O O3 0.703225 0.288348 0.732678
O O4 0.762858 0.233864 0.618375
O O5 0.399639 0.323129 0.500000
O O6 0.386250 0.500000 0.634961
O O7 0.421046 0.168966 0.636845
O O8 0.643988 0.731593 0.856662
O O9 0.694632 0.000000 0.819198
O O10 0.548696 0.756380 0.864774
O O11 0.602844 0.000000 0.907340
O O12 0.598392 0.724917 0.000000
O O13 0.000000 0.500000 0.872150
O O14 0.054721 0.500000 0.000000
O O15 0.500000 0.500000 0.908419
O O16 0.500000 0.779568 0.000000
#
# Coordination Sequence:
#
# PCOD9524655 Si02
#       6
#    16  16  16  16   8   8
#     4   9  18  32  49  71  99 131 163 199 248 301
#     4   9  18  32  52  77 103 133 168 209 254 298
#     4   9  18  31  49  72  96 129 166 200 246 298
#     4   9  17  30  49  72  96 124 162 204 242 287
#     4   9  18  32  52  78 104 132 167 206 254 306
#     4   9  17  29  47  69  95 127 158 195 246 293
#
# _framework density 22.309663
#
# number of rings (size 3 to 8) (size 9 to 14) (size 15 to 20)
#    0.000    3.000    0.000    0.300    1.400    3.200 
#    0.000    6.000    2.200    0.000    0.000    0.000 
#    0.000    0.000    0.000    0.000    0.000    0.000 
#
# Total GULP energy -222840.754309 kJ/mol
# GULP energy per Si atom -5571.018858 kJ/mol
# Density = 2.225889 g / cm^3
# Si number density = 22.309663 Si / 1000 Ang^3
#
#
#
# Elastic Constant Matrix: (Units=GPa)
#
#
# Indices 1 2 3 4 5 6 
#
# 1 236.6929 44.8250 24.0962 0.0000 0.0000 0.0000
# 2 44.8250 67.2522 4.8636 0.0000 0.0000 0.0000
# 3 24.0962 4.8636 22.9469 0.0000 0.0000 0.0000
# 4 0.0000 0.0000 0.0000 2.0896 0.0000 0.0000
# 5 0.0000 0.0000 0.0000 0.0000 36.7764 0.0000
# 6 0.0000 0.0000 0.0000 0.0000 0.0000 554.0391
#
#
#
# Elastic Compliance Matrix: (Units=1/GPa)
#
#
# Indices 1 2 3 4 5 6 
#
# 1 0.005331 -0.003198 -0.004921 0.000000 0.000000 0.000000
# 2 -0.003198 0.017019 -0.000249 0.000000 0.000000 0.000000
# 3 -0.004921 -0.000249 0.048799 0.000000 0.000000 0.000000
# 4 0.000000 0.000000 0.000000 0.478569 0.000000 0.000000
# 5 0.000000 0.000000 0.000000 0.000000 0.027191 0.000000
# 6 0.000000 0.000000 0.000000 0.000000 0.000000 0.001805
#
#
# Mechanical properties :
#
#
# Convention : Reuss Voigt Hill
#
# Bulk Modulus (GPa) = 18.37770 52.71795 35.54783
# Shear Modulus (GPa) = 8.14879 135.45483 71.80181
#
# Velocity S-wave (km/s) = 1.91325 7.80049 5.67926
# Velocity P-wave (km/s) = 3.62438 10.23775 7.67944
#
# Compressibility (1/GPa) = 0.05441377
#
# Stress axis : x y z
#
# Youngs Moduli (GPa) = 187.56811 58.75887 20.49225
#
# Poissons Ratio (x) = 0.18789 0.10084
# Poissons Ratio (y) = 0.59977 0.00511
# Poissons Ratio (z) = 0.92297 0.01465
#
# Static dielectric constant tensor:
#      x y z
#    x 1.861880 0.000000 0.000000 
#    y 0.000000 1.541690 0.000000 
#    z 0.000000 0.000000 1.840470 
# 
# From -- ./inp_files/14755.got.cif
#   From: 2010.05.17/outbox.cif.g08.bks.cpg/sg71_8_cif.got.tgz:14755.got - 2010.06.03 16:22:01.
