data_PCOD9524009
_publ_section_title
;
Structure prediction by ZEFSAII (Michael W. Deem and Ramdas Pophale) SiO2 
 PCOD9524009
Probable space group: I M M M
;
_chemical_formula_sum "Si O2"
_cell_formula_units_Z 88
_cell_length_a 24.825398
_cell_length_b 30.751533
_cell_length_c 8.775827
_cell_angle_alpha 90.000000
_cell_angle_beta 90.000000
_cell_angle_gamma 90.000000
_cell_volume 6699.633475
_symmetry_space_group_name_H-M "I M M M"
_symmetry_group_IT_number 71
_symmetry_cell_setting 'orthorhombic'
loop_
_space_group_symop_operation_xyz
x,y,z
-x,-y,z
x,-y,-z
-x,y,-z
-x,-y,-z
x,y,-z
-x,y,z
x,-y,z
1/2+x,1/2+y,1/2+z
1/2-x,1/2-y,1/2+z
1/2+x,1/2-y,1/2-z
1/2-x,1/2+y,1/2-z
1/2-x,1/2-y,1/2-z
1/2+x,1/2+y,1/2-z
1/2-x,1/2+y,1/2+z
1/2+x,1/2-y,1/2+z
loop_
_atom_site_type_symbol
_atom_site_label
_atom_site_fract_x
_atom_site_fract_y
_atom_site_fract_z
Si Si1 0.619353 0.249515 0.315390
Si Si2 0.000000 0.241581 0.178261
Si Si3 0.000000 0.862696 0.822364
Si Si4 0.563739 0.500000 0.317179
Si Si5 0.281154 0.791548 0.182277
Si Si6 0.177838 0.159009 0.182959
Si Si7 0.102239 0.909994 0.681162
O O1 0.619854 0.248519 0.500000
O O2 0.558062 0.244382 0.258654
O O3 0.659696 0.212971 0.252337
O O4 0.643394 0.297431 0.273479
O O5 0.000000 0.189213 0.182146
O O6 0.000000 0.254566 0.000000
O O7 0.947844 0.881456 0.740832
O O8 0.000000 0.876425 0.000000
O O9 0.500000 0.500000 0.271446
O O10 0.565175 0.500000 0.500000
O O11 0.592763 0.457187 0.253705
O O12 0.250000 0.750000 0.250000
O O13 0.240456 0.830972 0.218058
O O14 0.284013 0.787877 0.000000
O O15 0.154138 0.116690 0.262630
O O16 0.171947 0.154642 0.000000
O O17 0.101539 0.913304 0.500000
#
# Coordination Sequence:
#
# PCOD9524009 Si02
#       7
#    16   8   8   8  16  16  16
#     4   9  16  27  42  59  79 105 135 166 198 238
#     4   9  16  27  42  58  79 109 139 165 199 246
#     4  11  19  32  46  55  77 109 138 162 201 257
#     4  11  23  37  51  59  74 110 138 157 202 261
#     4   9  17  28  41  57  77 102 130 164 201 237
#     4   9  17  30  45  57  75 106 136 161 200 253
#     4  12  23  32  45  65  82  96 128 177 215 240
#
# _framework density 13.135047
#
# number of rings (size 3 to 8) (size 9 to 14) (size 15 to 20)
#    0.000    2.091    2.727    3.818    0.000    4.000 
#    0.000    0.455    0.000    0.000    0.000    0.000 
#    0.000    0.000    0.000    0.000    0.000    0.909 
#
# Total GULP energy -245157.431557 kJ/mol
# GULP energy per Si atom -5571.759808 kJ/mol
# Density = 1.310515 g / cm^3
# Si number density = 13.135047 Si / 1000 Ang^3
#
#
#
# Elastic Constant Matrix: (Units=GPa)
#
#
# Indices 1 2 3 4 5 6 
#
# 1 113.5408 46.1010 32.5376 0.0000 0.0000 0.0000
# 2 46.1010 55.8228 30.0189 0.0000 0.0000 0.0000
# 3 32.5376 30.0189 46.0438 0.0000 0.0000 0.0000
# 4 0.0000 0.0000 0.0000 15.1661 0.0000 0.0000
# 5 0.0000 0.0000 0.0000 0.0000 19.8071 0.0000
# 6 0.0000 0.0000 0.0000 0.0000 0.0000 14.5172
#
#
#
# Elastic Compliance Matrix: (Units=1/GPa)
#
#
# Indices 1 2 3 4 5 6 
#
# 1 0.013613 -0.009345 -0.003527 0.000000 0.000000 0.000000
# 2 -0.009345 0.034001 -0.015563 0.000000 0.000000 0.000000
# 3 -0.003527 -0.015563 0.034357 0.000000 0.000000 0.000000
# 4 0.000000 0.000000 0.000000 0.065936 0.000000 0.000000
# 5 0.000000 0.000000 0.000000 0.000000 0.050487 0.000000
# 6 0.000000 0.000000 0.000000 0.000000 0.000000 0.068884
#
#
# Mechanical properties :
#
#
# Convention : Reuss Voigt Hill
#
# Bulk Modulus (GPa) = 39.84054 48.08028 43.96041
# Shear Modulus (GPa) = 15.03689 17.01474 16.02581
#
# Velocity S-wave (km/s) = 3.38715 3.60303 3.49675
# Velocity P-wave (km/s) = 6.75976 7.34800 7.06001
#
# Compressibility (1/GPa) = 0.02510006
#
# Stress axis : x y z
#
# Youngs Moduli (GPa) = 73.46150 29.41100 29.10585
#
# Poissons Ratio (x) = 0.27486 0.10265
# Poissons Ratio (y) = 0.68653 0.45298
# Poissons Ratio (z) = 0.25907 0.45773
#
# Static dielectric constant tensor:
#      x y z
#    x 1.448790 0.000000 0.000000 
#    y 0.000000 1.424810 0.000000 
#    z 0.000000 0.000000 1.439480 
# 
# From -- ./inp_files/13574.got.cif
#   From: 2010.05.17/outbox.cif.g08.bks.cpg/sg71_7_cif.got.tgz:13574.got - 2010.06.03 16:22:01.
