data_PCOD9524790
_publ_section_title
;
Structure prediction by ZEFSAII (Michael W. Deem and Ramdas Pophale) SiO2 
 PCOD9524790
Probable space group: I M M M
;
_chemical_formula_sum "Si O2"
_cell_formula_units_Z 48
_cell_length_a 21.000000
_cell_length_b 9.000000
_cell_length_c 27.000000
_cell_angle_alpha 90.000000
_cell_angle_beta 90.000000
_cell_angle_gamma 90.000000
_cell_volume 5103.000000
_symmetry_space_group_name_H-M "I M M M"
_symmetry_group_IT_number 71
_symmetry_cell_setting 'orthorhombic'
loop_
_space_group_symop_operation_xyz
x,y,z
-x,-y,z
x,-y,-z
-x,y,-z
-x,-y,-z
x,y,-z
-x,y,z
x,-y,z
1/2+x,1/2+y,1/2+z
1/2-x,1/2-y,1/2+z
1/2+x,1/2-y,1/2-z
1/2-x,1/2+y,1/2-z
1/2-x,1/2-y,1/2-z
1/2+x,1/2+y,1/2-z
1/2-x,1/2+y,1/2+z
1/2+x,1/2-y,1/2+z
loop_
_atom_site_type_symbol
_atom_site_label
_atom_site_fract_x
_atom_site_fract_y
_atom_site_fract_z
Si Si1 0.926742 0.176063 0.940665
Si Si2 0.301845 0.321889 0.286824
Si Si3 0.570818 0.820203 0.125760
Si Si4 0.187265 0.323464 0.557477
Si Si5 0.073562 0.321842 0.742523
Si Si6 0.805128 0.323062 0.893177
O O1 0.874033 0.270164 0.912409
O O2 0.000000 0.212718 0.927449
O O3 0.916973 0.000000 0.930776
O O4 0.920133 0.196805 0.000000
O O5 0.296909 0.500000 0.285942
O O6 0.250000 0.250000 0.250000
O O7 0.372362 0.267963 0.270923
O O8 0.290370 0.258074 0.341476
O O9 0.500000 0.766490 0.111159
O O10 0.629366 0.769899 0.092205
O O11 0.580229 0.788152 0.183871
O O12 0.569599 0.000000 0.121655
O O13 0.169738 0.309028 0.500000
O O14 0.198594 0.500000 0.567209
O O15 0.251127 0.233992 0.569245
O O16 0.083269 0.500000 0.748998
O O17 0.000000 0.289148 0.756603
O O18 0.803395 0.500000 0.887460
#
# Coordination Sequence:
#
# PCOD9524790 Si02
#       6
#    16  16  16  16  16  16
#     4   9  19  38  63  88 115 149 189 234 286 342
#     4  12  25  41  61  84 113 148 189 238 290 345
#     4   8  15  30  54  83 113 146 184 226 271 320
#     4  10  20  34  55  83 115 151 190 234 282 331
#     4   9  18  35  59  85 115 152 193 234 276 329
#     4  12  25  39  57  82 113 150 191 235 283 338
#
# _framework density 9.4062319999999993
#
# number of rings (size 3 to 8) (size 9 to 14) (size 15 to 20)
#    0.000    2.000    0.000    6.000    0.000    5.667 
#    0.000    2.500    0.000    1.500    0.000    1.167 
#    0.000    0.000    0.000    0.000    0.000    0.000 
#
# Total GULP energy -268129.849728 kJ/mol
# GULP energy per Si atom -5586.038536 kJ/mol
# Density = 0.938482 g / cm^3
# Si number density = 9.406232 Si / 1000 Ang^3
#
#
#
# Elastic Constant Matrix: (Units=GPa)
#
#
# Indices 1 2 3 4 5 6 
#
# 1 47.2579 18.5559 -0.8588 0.0000 0.0000 0.0000
# 2 18.5559 78.3217 14.3699 0.0000 0.0000 0.0000
# 3 -0.8588 14.3699 26.7520 0.0000 0.0000 0.0000
# 4 0.0000 0.0000 0.0000 23.3479 0.0000 0.0000
# 5 0.0000 0.0000 0.0000 0.0000 30.4284 0.0000
# 6 0.0000 0.0000 0.0000 0.0000 0.0000 24.8147
#
#
#
# Elastic Compliance Matrix: (Units=1/GPa)
#
#
# Indices 1 2 3 4 5 6 
#
# 1 0.023749 -0.006397 0.004198 0.000000 0.000000 0.000000
# 2 -0.006397 0.015887 -0.008739 0.000000 0.000000 0.000000
# 3 0.004198 -0.008739 0.042209 0.000000 0.000000 0.000000
# 4 0.000000 0.000000 0.000000 0.042830 0.000000 0.000000
# 5 0.000000 0.000000 0.000000 0.000000 0.032864 0.000000
# 6 0.000000 0.000000 0.000000 0.000000 0.000000 0.040299
#
#
# Mechanical properties :
#
#
# Convention : Reuss Voigt Hill
#
# Bulk Modulus (GPa) = 16.67500 24.05174 20.36337
# Shear Modulus (GPa) = 20.85920 23.73584 22.29752
#
# Velocity S-wave (km/s) = 3.33347 3.55591 3.44648
# Velocity P-wave (km/s) = 4.86817 5.44721 5.16581
#
# Compressibility (1/GPa) = 0.05997003
#
# Stress axis : x y z
#
# Youngs Moduli (GPa) = 42.10790 62.94557 23.69140
#
# Poissons Ratio (x) = 0.40265 -0.09947
# Poissons Ratio (y) = 0.26936 0.20704
# Poissons Ratio (z) = -0.17679 0.55008
#
# Static dielectric constant tensor:
#      x y z
#    x 1.650220 0.000000 0.000000 
#    y 0.000000 1.623060 0.000000 
#    z 0.000000 0.000000 1.650030 
# 
# From -- ./inp_files/66334.got.cif
#   From: 2010.05.17/outbox.ucp.g08.bks.cvg/sg71_34_cif.got.tgz:66334.got - 2010.06.11 16:29:00.
