data_PCOD9524728
_publ_section_title
;
Structure prediction by ZEFSAII (Michael W. Deem and Ramdas Pophale) SiO2 
 PCOD9524728
Probable space group: I M M M
;
_chemical_formula_sum "Si O2"
_cell_formula_units_Z 52
_cell_length_a 18.000000
_cell_length_b 18.000000
_cell_length_c 18.000000
_cell_angle_alpha 90.000000
_cell_angle_beta 90.000000
_cell_angle_gamma 90.000000
_cell_volume 5832.000000
_symmetry_space_group_name_H-M "I M M M"
_symmetry_group_IT_number 71
_symmetry_cell_setting 'orthorhombic'
loop_
_space_group_symop_operation_xyz
x,y,z
-x,-y,z
x,-y,-z
-x,y,-z
-x,-y,-z
x,y,-z
-x,y,z
x,-y,z
1/2+x,1/2+y,1/2+z
1/2-x,1/2-y,1/2+z
1/2+x,1/2-y,1/2-z
1/2-x,1/2+y,1/2-z
1/2-x,1/2-y,1/2-z
1/2+x,1/2+y,1/2-z
1/2-x,1/2+y,1/2+z
1/2+x,1/2-y,1/2+z
loop_
_atom_site_type_symbol
_atom_site_label
_atom_site_fract_x
_atom_site_fract_y
_atom_site_fract_z
Si Si1 0.800368 0.411497 0.588797
Si Si2 0.701306 0.695003 0.693908
Si Si3 0.588213 0.915932 0.500000
Si Si4 0.915396 0.588359 0.287314
Si Si5 0.686358 0.588057 0.914479
Si Si6 0.337990 0.155280 0.357251
Si Si7 0.087241 0.088053 0.280615
O O1 0.801253 0.395317 0.500000
O O2 0.780984 0.500000 0.596843
O O3 0.748137 0.357700 0.638261
O O4 0.878869 0.401152 0.631673
O O5 0.750000 0.750000 0.750000
O O6 0.658695 0.756291 0.645518
O O7 0.642858 0.642001 0.736088
O O8 0.500000 0.918400 0.500000
O O9 0.615676 0.876998 0.425465
O O10 0.618314 0.000000 0.500000
O O11 0.915405 0.500000 0.273041
O O12 0.867395 0.624463 0.221408
O O13 0.000000 0.615646 0.284450
O O14 0.703261 0.500000 0.913794
O O15 0.753878 0.629150 0.873585
O O16 0.612037 0.598070 0.866468
O O17 0.680758 0.612243 0.000000
O O18 0.000000 0.103965 0.269404
O O19 0.099784 0.000000 0.262624
#
# Coordination Sequence:
#
# PCOD9524728 Si02
#       7
#    16  16   8  16  16  16  16
#     4  10  22  41  65  89 118 159 211 261 306 368
#     4  12  23  40  61  92 120 157 198 260 314 369
#     4  11  24  40  58  88 128 166 202 243 306 380
#     4  10  20  35  57  87 123 161 202 247 301 368
#     4  10  19  33  57  87 121 158 201 248 299 363
#     4  12  22  35  58  87 121 166 204 251 303 369
#     4  10  22  41  64  88 119 162 211 257 305 370
#
# _framework density 8.9163239999999995
#
# number of rings (size 3 to 8) (size 9 to 14) (size 15 to 20)
#    0.000    1.308    3.846    2.308    1.077    5.538 
#    0.000    3.077    0.000    0.000    0.000    2.154 
#    0.000    0.000    0.000    0.000    0.000    0.000 
#
# Total GULP energy -290012.611248 kJ/mol
# GULP energy per Si atom -5577.165601 kJ/mol
# Density = 0.889603 g / cm^3
# Si number density = 8.916324 Si / 1000 Ang^3
#
#
#
# Elastic Constant Matrix: (Units=GPa)
#
#
# Indices 1 2 3 4 5 6 
#
# 1 94.9323 54.9155 59.5467 0.0000 0.0000 0.0000
# 2 54.9155 92.7186 66.6994 0.0000 0.0000 0.0000
# 3 59.5467 66.6994 140.8309 0.0000 0.0000 0.0000
# 4 0.0000 0.0000 0.0000 26.0203 0.0000 0.0000
# 5 0.0000 0.0000 0.0000 0.0000 24.2313 0.0000
# 6 0.0000 0.0000 0.0000 0.0000 0.0000 11.8001
#
#
#
# Elastic Compliance Matrix: (Units=1/GPa)
#
#
# Indices 1 2 3 4 5 6 
#
# 1 0.017217 -0.007524 -0.003716 0.000000 0.000000 0.000000
# 2 -0.007524 0.019647 -0.006124 0.000000 0.000000 0.000000
# 3 -0.003716 -0.006124 0.011572 0.000000 0.000000 0.000000
# 4 0.000000 0.000000 0.000000 0.038432 0.000000 0.000000
# 5 0.000000 0.000000 0.000000 0.000000 0.041269 0.000000
# 6 0.000000 0.000000 0.000000 0.000000 0.000000 0.084745
#
#
# Mechanical properties :
#
#
# Convention : Reuss Voigt Hill
#
# Bulk Modulus (GPa) = 72.94829 76.75609 74.85219
# Shear Modulus (GPa) = 19.82708 22.23167 21.02937
#
# Velocity S-wave (km/s) = 3.33805 3.53467 3.43776
# Velocity P-wave (km/s) = 7.47347 7.73269 7.60418
#
# Compressibility (1/GPa) = 0.01370834
#
# Stress axis : x y z
#
# Youngs Moduli (GPa) = 58.08083 50.89867 86.41259
#
# Poissons Ratio (x) = 0.38296 0.32115
# Poissons Ratio (y) = 0.43700 0.52916
# Poissons Ratio (z) = 0.21585 0.31169
#
# Static dielectric constant tensor:
#      x y z
#    x 1.627800 0.000000 0.000000 
#    y 0.000000 1.613440 0.000000 
#    z 0.000000 0.000000 1.609540 
# 
# From -- ./inp_files/46163.got.cif
#   From: 2010.05.17/outbox.ucp.g08.bks.cvg/sg71_24_cif.got.tgz:46163.got - 2010.06.11 16:29:00.
