data_PCOD9524599
_publ_section_title
;
Structure prediction by ZEFSAII (Michael W. Deem and Ramdas Pophale) SiO2 
 PCOD9524599
Probable space group: I M M M
;
_chemical_formula_sum "Si O2"
_cell_formula_units_Z 80
_cell_length_a 33.894493
_cell_length_b 8.917877
_cell_length_c 15.248280
_cell_angle_alpha 90.000000
_cell_angle_beta 90.000000
_cell_angle_gamma 90.000000
_cell_volume 4609.050624
_symmetry_space_group_name_H-M "I M M M"
_symmetry_group_IT_number 71
_symmetry_cell_setting 'orthorhombic'
loop_
_space_group_symop_operation_xyz
x,y,z
-x,-y,z
x,-y,-z
-x,y,-z
-x,-y,-z
x,y,-z
-x,y,z
x,-y,z
1/2+x,1/2+y,1/2+z
1/2-x,1/2-y,1/2+z
1/2+x,1/2-y,1/2-z
1/2-x,1/2+y,1/2-z
1/2-x,1/2-y,1/2-z
1/2+x,1/2+y,1/2-z
1/2-x,1/2+y,1/2+z
1/2+x,1/2-y,1/2+z
loop_
_atom_site_type_symbol
_atom_site_label
_atom_site_fract_x
_atom_site_fract_y
_atom_site_fract_z
Si Si1 0.455696 0.317497 0.398784
Si Si2 0.640200 0.680025 0.094009
Si Si3 0.880314 0.181956 0.788368
Si Si4 0.278373 0.829491 0.131836
Si Si5 0.799708 0.670811 0.839026
O O1 0.448850 0.272923 0.500000
O O2 0.500000 0.269250 0.373250
O O3 0.455707 0.500000 0.397424
O O4 0.420323 0.268954 0.336111
O O5 0.638535 0.500000 0.095156
O O6 0.621292 0.731111 0.186075
O O7 0.685638 0.731226 0.096978
O O8 0.623217 0.731944 0.000000
O O9 0.841775 0.247123 0.836833
O O10 0.877969 0.000000 0.790584
O O11 0.235639 0.759266 0.114342
O O12 0.286021 0.833996 0.236886
O O13 0.280721 0.000000 0.100660
O O14 0.803061 0.500000 0.870404
#
# Coordination Sequence:
#
# PCOD9524599 Si02
#       5
#    16  16  16  16  16
#     4   8  14  26  46  71  93 110 134 173 218 262
#     4   9  17  28  41  59  86 119 152 184 218 256
#     4   9  16  27  45  66  87 114 147 181 218 261
#     4   9  16  26  41  60  82 112 152 191 221 251
#     4   9  16  26  41  61  86 115 146 182 223 261
#
# _framework density 17.357153
#
# number of rings (size 3 to 8) (size 9 to 14) (size 15 to 20)
#    0.000    3.200    0.000    1.800    0.000    5.200 
#    0.000    1.000    0.000    5.400    0.000    5.600 
#    0.000    0.000    0.000   10.000    0.000   10.400 
#
# Total GULP energy -222690.414256 kJ/mol
# GULP energy per Si atom -5567.260356 kJ/mol
# Density = 1.731765 g / cm^3
# Si number density = 17.357153 Si / 1000 Ang^3
#
#
#
# Elastic Constant Matrix: (Units=GPa)
#
#
# Indices 1 2 3 4 5 6 
#
# 1 146.5529 17.8638 68.1076 0.0000 0.0000 0.0000
# 2 17.8638 10.6107 4.2577 0.0000 0.0000 0.0000
# 3 68.1076 4.2577 73.5433 0.0000 0.0000 0.0000
# 4 0.0000 0.0000 0.0000 2.2491 0.0000 0.0000
# 5 0.0000 0.0000 0.0000 0.0000 -7.1566 0.0000
# 6 0.0000 0.0000 0.0000 0.0000 0.0000 15.7037
#
#
#
# Elastic Compliance Matrix: (Units=1/GPa)
#
#
# Indices 1 2 3 4 5 6 
#
# 1 0.015437 -0.020734 -0.013095 0.000000 0.000000 0.000000
# 2 -0.020734 0.124334 0.012003 0.000000 0.000000 0.000000
# 3 -0.013095 0.012003 0.025030 0.000000 0.000000 0.000000
# 4 0.000000 0.000000 0.000000 0.444615 0.000000 0.000000
# 5 0.000000 0.000000 0.000000 0.000000 -0.139730 0.000000
# 6 0.000000 0.000000 0.000000 0.000000 0.000000 0.063679
#
#
# Mechanical properties :
#
#
# Convention : Reuss Voigt Hill
#
# Bulk Modulus (GPa) = 8.25431 45.68502 26.96967
# Shear Modulus (GPa) = 8.09849 11.52443 9.81146
#
# Velocity S-wave (km/s) = 2.16239 2.57953 2.38012
# Velocity P-wave (km/s) = 3.31669 5.93715 4.80885
#
# Compressibility (1/GPa) = 0.12114878
#
# Stress axis : x y z
#
# Youngs Moduli (GPa) = 64.78138 8.04285 39.95227
#
# Poissons Ratio (x) = 0.16676 0.52318
# Poissons Ratio (y) = 1.34316 -0.47955
# Poissons Ratio (z) = 0.84833 -0.09654
#
# Static dielectric constant tensor:
#      x y z
#    x 1.559030 0.000000 0.000000 
#    y 0.000000 1.591780 0.000000 
#    z 0.000000 0.000000 1.660270 
# 
# From -- ./inp_files/8591.got.cif
#   From: 2010.05.17/outbox.cif.g08.bks.cpg/sg71_5_cif.got.tgz:8591.got - 2010.06.03 16:22:01.
