data_PCOD9524904
_publ_section_title
;
Structure prediction by ZEFSAII (Michael W. Deem and Ramdas Pophale) SiO2 
 PCOD9524904
Probable space group: I M M M
;
_chemical_formula_sum "Si O2"
_cell_formula_units_Z 44
_cell_length_a 24.000000
_cell_length_b 21.000000
_cell_length_c 9.000000
_cell_angle_alpha 90.000000
_cell_angle_beta 90.000000
_cell_angle_gamma 90.000000
_cell_volume 4536.000000
_symmetry_space_group_name_H-M "I M M M"
_symmetry_group_IT_number 71
_symmetry_cell_setting 'orthorhombic'
loop_
_space_group_symop_operation_xyz
x,y,z
-x,-y,z
x,-y,-z
-x,y,-z
-x,-y,-z
x,y,-z
-x,y,z
x,-y,z
1/2+x,1/2+y,1/2+z
1/2-x,1/2-y,1/2+z
1/2+x,1/2-y,1/2-z
1/2-x,1/2+y,1/2-z
1/2-x,1/2-y,1/2-z
1/2+x,1/2+y,1/2-z
1/2-x,1/2+y,1/2+z
1/2+x,1/2-y,1/2+z
loop_
_atom_site_type_symbol
_atom_site_label
_atom_site_fract_x
_atom_site_fract_y
_atom_site_fract_z
Si Si1 0.102707 0.828335 0.822195
Si Si2 0.000000 0.076202 0.819873
Si Si3 0.222150 0.812497 0.320235
Si Si4 0.935878 0.296867 0.334436
Si Si5 0.580770 0.071103 0.326865
Si Si6 0.713957 0.066706 0.325573
O O1 0.161051 0.832920 0.735848
O O2 0.086351 0.755729 0.779430
O O3 0.054908 0.880712 0.778021
O O4 0.109942 0.833494 0.000000
O O5 0.000000 0.000000 0.772531
O O6 0.000000 0.074565 0.000000
O O7 0.222581 0.806445 0.500000
O O8 0.250000 0.750000 0.250000
O O9 0.261018 0.869755 0.264123
O O10 0.909392 0.293367 0.500000
O O11 0.934662 0.368471 0.271348
O O12 0.000000 0.279514 0.350473
O O13 0.564642 0.080354 0.500000
O O14 0.647628 0.069225 0.321876
O O15 0.561890 0.000000 0.280687
O O16 0.729693 0.065653 0.500000
O O17 0.732934 0.000000 0.256686
#
# Coordination Sequence:
#
# PCOD9524904 Si02
#       6
#    16   8  16  16  16  16
#     4  11  22  39  62  86 116 156 199 248 305 368
#     4   9  20  40  65  91 118 155 206 261 317 378
#     4  11  22  36  58  89 122 156 196 246 299 360
#     4  11  23  37  55  79 111 148 190 242 292 343
#     4   9  18  34  57  83 111 148 194 237 278 335
#     4   8  16  33  55  78 107 144 184 225 273 331
#
# _framework density 9.7001760000000008
#
# number of rings (size 3 to 8) (size 9 to 14) (size 15 to 20)
#    0.000    2.091    0.909    3.818    0.000    4.000 
#    0.000    2.727    0.000    7.636    0.000    0.000 
#    0.000    0.000    0.000    0.000    0.000    0.000 
#
# Total GULP energy -244988.421748 kJ/mol
# GULP energy per Si atom -5567.918676 kJ/mol
# Density = 0.967810 g / cm^3
# Si number density = 9.700176 Si / 1000 Ang^3
#
#
#
# Elastic Constant Matrix: (Units=GPa)
#
#
# Indices 1 2 3 4 5 6 
#
# 1 100.3991 59.4723 21.9888 0.0000 0.0000 0.0000
# 2 59.4723 152.2367 27.9810 0.0000 0.0000 0.0000
# 3 21.9888 27.9810 60.0338 0.0000 0.0000 0.0000
# 4 0.0000 0.0000 0.0000 20.2286 0.0000 0.0000
# 5 0.0000 0.0000 0.0000 0.0000 21.7467 0.0000
# 6 0.0000 0.0000 0.0000 0.0000 0.0000 36.1971
#
#
#
# Elastic Compliance Matrix: (Units=1/GPa)
#
#
# Indices 1 2 3 4 5 6 
#
# 1 0.013344 -0.004719 -0.002688 0.000000 0.000000 0.000000
# 2 -0.004719 0.008853 -0.002398 0.000000 0.000000 0.000000
# 3 -0.002688 -0.002398 0.018759 0.000000 0.000000 0.000000
# 4 0.000000 0.000000 0.000000 0.049435 0.000000 0.000000
# 5 0.000000 0.000000 0.000000 0.000000 0.045984 0.000000
# 6 0.000000 0.000000 0.000000 0.000000 0.000000 0.027627
#
#
# Mechanical properties :
#
#
# Convention : Reuss Voigt Hill
#
# Bulk Modulus (GPa) = 46.84553 59.06155 52.95354
# Shear Modulus (GPa) = 26.21537 29.18298 27.69918
#
# Velocity S-wave (km/s) = 3.67997 3.88267 3.78268
# Velocity P-wave (km/s) = 6.50041 7.11406 6.81415
#
# Compressibility (1/GPa) = 0.02134675
#
# Stress axis : x y z
#
# Youngs Moduli (GPa) = 74.93828 112.95705 53.30637
#
# Poissons Ratio (x) = 0.53304 0.14330
# Poissons Ratio (y) = 0.35363 0.12782
# Poissons Ratio (z) = 0.20145 0.27085
#
# Static dielectric constant tensor:
#      x y z
#    x -0.581170 0.000000 0.000000 
#    y 0.000000 1.686760 0.000000 
#    z 0.000000 0.000000 1.685620 
# 
# From -- ./inp_files/10487.got.cif
#   From: 2010.05.17/outbox.ucp.g08.bks.cvg/sg71_6_cif.got.tgz:10487.got - 2010.06.11 16:29:00.
