data_PCOD9524677
_publ_section_title
;
Structure prediction by ZEFSAII (Michael W. Deem and Ramdas Pophale) SiO2 
 PCOD9524677
Probable space group: I M M M
;
_chemical_formula_sum "Si O2"
_cell_formula_units_Z 52
_cell_length_a 15.000000
_cell_length_b 24.000000
_cell_length_c 18.000000
_cell_angle_alpha 90.000000
_cell_angle_beta 90.000000
_cell_angle_gamma 90.000000
_cell_volume 6480.000000
_symmetry_space_group_name_H-M "I M M M"
_symmetry_group_IT_number 71
_symmetry_cell_setting 'orthorhombic'
loop_
_space_group_symop_operation_xyz
x,y,z
-x,-y,z
x,-y,-z
-x,y,-z
-x,-y,-z
x,y,-z
-x,y,z
x,-y,z
1/2+x,1/2+y,1/2+z
1/2-x,1/2-y,1/2+z
1/2+x,1/2-y,1/2-z
1/2-x,1/2+y,1/2-z
1/2-x,1/2-y,1/2-z
1/2+x,1/2+y,1/2-z
1/2-x,1/2+y,1/2+z
1/2+x,1/2-y,1/2+z
loop_
_atom_site_type_symbol
_atom_site_label
_atom_site_fract_x
_atom_site_fract_y
_atom_site_fract_z
Si Si1 0.106003 0.638237 0.500000
Si Si2 0.897157 0.773589 0.500000
Si Si3 0.197767 0.360235 0.658765
Si Si4 0.606639 0.320871 0.320172
Si Si5 0.607679 0.000000 0.586804
Si Si6 0.608617 0.893400 0.310580
Si Si7 0.606944 0.209115 0.415140
Si Si8 0.107453 0.239039 0.661787
O O1 0.106050 0.705981 0.500000
O O2 0.156977 0.622236 0.422537
O O3 0.000000 0.621750 0.500000
O O4 0.862484 0.788292 0.582811
O O5 0.000000 0.792466 0.500000
O O6 0.306527 0.359605 0.662767
O O7 0.155756 0.392706 0.729805
O O8 0.161593 0.296575 0.669978
O O9 0.500000 0.338601 0.327325
O O10 0.619380 0.268959 0.376787
O O11 0.617595 0.298062 0.235579
O O12 0.631048 0.945763 0.636110
O O13 0.500000 0.000000 0.581766
O O14 0.639603 0.000000 0.500000
O O15 0.500000 0.892060 0.299969
O O16 0.636807 0.838676 0.357871
O O17 0.642643 0.206325 0.500000
O O18 0.500000 0.200972 0.420777
O O19 0.000000 0.251725 0.655722
#
# Coordination Sequence:
#
# PCOD9524677 Si02
#       8
#     8   8  16  16   8  16  16  16
#     4   9  18  30  45  66  89 118 159 199 224 272
#     4   7  12  22  38  53  74 109 148 191 229 262
#     4  11  19  29  46  65  90 126 164 196 240 283
#     4  10  20  30  41  61  94 131 167 205 238 277
#     4   9  18  32  52  77 102 126 151 189 246 304
#     4  10  18  30  49  71  95 123 157 197 242 297
#     4   9  17  28  42  61  92 130 163 198 238 281
#     4   9  15  26  40  59  85 117 160 202 236 276
#
# _framework density 8.0246910000000007
#
# number of rings (size 3 to 8) (size 9 to 14) (size 15 to 20)
#    0.000    2.538    1.538    3.231    1.077    1.846 
#    0.000    0.000    1.692    0.462    0.000    2.692 
#    0.000    0.615    0.000    1.385    0.000    0.154 
#
# Total GULP energy -289513.918432 kJ/mol
# GULP energy per Si atom -5567.575354 kJ/mol
# Density = 0.800643 g / cm^3
# Si number density = 8.024691 Si / 1000 Ang^3
#
#
#
# Elastic Constant Matrix: (Units=GPa)
#
#
# Indices 1 2 3 4 5 6 
#
# 1 79.5468 14.2109 36.8486 0.0000 0.0000 0.0000
# 2 14.2109 24.5863 24.7967 0.0000 0.0000 0.0000
# 3 36.8486 24.7967 165.2507 0.0002 0.0000 0.0000
# 4 0.0000 0.0000 0.0002 16.0138 0.0000 0.0000
# 5 0.0000 0.0000 0.0000 0.0000 23.9293 0.0000
# 6 0.0000 0.0000 0.0000 0.0000 0.0000 11.7124
#
#
#
# Elastic Compliance Matrix: (Units=1/GPa)
#
#
# Indices 1 2 3 4 5 6 
#
# 1 0.014767 -0.006144 -0.002371 0.000000 0.000000 0.000000
# 2 -0.006144 0.050483 -0.006205 0.000000 0.000000 0.000000
# 3 -0.002371 -0.006205 0.007511 0.000000 0.000000 0.000000
# 4 0.000000 0.000000 0.000000 0.062446 0.000000 0.000000
# 5 0.000000 0.000000 0.000000 0.000000 0.041790 0.000000
# 6 0.000000 0.000000 0.000000 0.000000 0.000000 0.085380
#
#
# Mechanical properties :
#
#
# Convention : Reuss Voigt Hill
#
# Bulk Modulus (GPa) = 23.08374 46.78846 34.93610
# Shear Modulus (GPa) = 16.32614 23.23293 19.77953
#
# Velocity S-wave (km/s) = 3.19289 3.80885 3.51439
# Velocity P-wave (km/s) = 5.29215 6.96844 6.18733
#
# Compressibility (1/GPa) = 0.04332053
#
# Stress axis : x y z
#
# Youngs Moduli (GPa) = 67.71790 19.80881 133.13466
#
# Poissons Ratio (x) = 0.12171 0.31565
# Poissons Ratio (y) = 0.41607 0.82611
# Poissons Ratio (z) = 0.16055 0.12292
#
# Static dielectric constant tensor:
#      x y z
#    x 1.573360 0.000000 0.000000 
#    y 0.000000 1.516660 0.000000 
#    z 0.000000 0.000000 1.580790 
# 
# From -- ./inp_files/45196.got.cif
#   From: 2010.05.17/outbox.ucp.g08.bks.cvg/sg71_23_cif.got.tgz:45196.got - 2010.06.11 16:29:00.
