data_PCOD9524838
_publ_section_title
;
Structure prediction by ZEFSAII (Michael W. Deem and Ramdas Pophale) SiO2 
 PCOD9524838
Probable space group: I M M M
;
_chemical_formula_sum "Si O2"
_cell_formula_units_Z 52
_cell_length_a 27.000000
_cell_length_b 21.000000
_cell_length_c 9.000000
_cell_angle_alpha 90.000000
_cell_angle_beta 90.000000
_cell_angle_gamma 90.000000
_cell_volume 5103.000000
_symmetry_space_group_name_H-M "I M M M"
_symmetry_group_IT_number 71
_symmetry_cell_setting 'orthorhombic'
loop_
_space_group_symop_operation_xyz
x,y,z
-x,-y,z
x,-y,-z
-x,y,-z
-x,-y,-z
x,y,-z
-x,y,z
x,-y,z
1/2+x,1/2+y,1/2+z
1/2-x,1/2-y,1/2+z
1/2+x,1/2-y,1/2-z
1/2-x,1/2+y,1/2-z
1/2-x,1/2-y,1/2-z
1/2+x,1/2+y,1/2-z
1/2-x,1/2+y,1/2+z
1/2+x,1/2-y,1/2+z
loop_
_atom_site_type_symbol
_atom_site_label
_atom_site_fract_x
_atom_site_fract_y
_atom_site_fract_z
Si Si1 0.889489 0.607086 0.169843
Si Si2 0.943249 0.167786 0.826609
Si Si3 0.788985 0.168794 0.324727
Si Si4 0.942274 0.500000 0.661862
Si Si5 0.278991 0.932796 0.325101
Si Si6 0.866933 0.261551 0.677274
Si Si7 0.360815 0.425612 0.329129
O O1 0.928063 0.562484 0.249228
O O2 0.837582 0.570056 0.175353
O O3 0.880076 0.671771 0.254226
O O4 0.902823 0.619445 0.000000
O O5 0.910160 0.214027 0.728030
O O6 0.916829 0.099416 0.818704
O O7 0.000000 0.166825 0.782039
O O8 0.940043 0.188326 0.000000
O O9 0.781726 0.180366 0.500000
O O10 0.741422 0.133060 0.259513
O O11 0.815048 0.231697 0.262389
O O12 0.829341 0.113691 0.290148
O O13 0.917087 0.500000 0.500000
O O14 0.000000 0.500000 0.644052
O O15 0.264211 0.933405 0.500000
O O16 0.261910 0.000000 0.257069
O O17 0.864487 0.264649 0.500000
O O18 0.344160 0.410510 0.500000
O O19 0.357054 0.500000 0.306015
#
# Coordination Sequence:
#
# PCOD9524838 Si02
#       7
#    16  16  16   8  16  16  16
#     4  11  22  39  63  88 113 146 184 224 274 331
#     4   9  18  33  52  73  99 137 184 229 276 332
#     4   9  18  33  54  78 108 150 192 224 265 325
#     4  11  25  45  67  91 119 147 179 229 290 345
#     4   9  17  32  56  84 112 145 186 228 269 319
#     4  10  21  36  54  80 113 147 184 230 280 329
#     4   9  17  29  46  72 107 140 177 229 279 323
#
# _framework density 10.190084000000001
#
# number of rings (size 3 to 8) (size 9 to 14) (size 15 to 20)
#    0.000    2.385    0.769    1.615    0.000    4.000 
#    0.000    3.077    0.000    0.000    0.000    4.308 
#    0.000    0.000    0.000    0.000    0.000    0.000 
#
# Total GULP energy -289514.907397 kJ/mol
# GULP energy per Si atom -5567.594373 kJ/mol
# Density = 1.016689 g / cm^3
# Si number density = 10.190084 Si / 1000 Ang^3
#
#
#
# Elastic Constant Matrix: (Units=GPa)
#
#
# Indices 1 2 3 4 5 6 
#
# 1 54.3724 24.8023 13.3007 0.0000 0.0000 0.0000
# 2 24.8023 73.1114 -7.2791 0.0000 0.0000 0.0000
# 3 13.3007 -7.2791 9.3418 0.0000 0.0000 0.0000
# 4 0.0000 0.0000 0.0000 169.5181 0.0000 0.0000
# 5 0.0000 0.0000 0.0000 0.0000 525.8947 0.0000
# 6 0.0000 0.0000 0.0000 0.0000 0.0000 26.4936
#
#
#
# Elastic Compliance Matrix: (Units=1/GPa)
#
#
# Indices 1 2 3 4 5 6 
#
# 1 0.058487 -0.030498 -0.107037 0.000000 0.000000 0.000000
# 2 -0.030498 0.030731 0.067368 0.000000 0.000000 0.000000
# 3 -0.107037 0.067368 0.311936 0.000000 0.000000 0.000000
# 4 0.000000 0.000000 0.000000 0.005899 0.000000 0.000000
# 5 0.000000 0.000000 0.000000 0.000000 0.001902 0.000000
# 6 0.000000 0.000000 0.000000 0.000000 0.000000 0.037745
#
#
# Mechanical properties :
#
#
# Convention : Reuss Voigt Hill
#
# Bulk Modulus (GPa) = 3.83405 22.05262 12.94333
# Shear Modulus (GPa) = 7.41868 151.44807 79.43337
#
# Velocity S-wave (km/s) = 1.90999 8.62976 6.24983
# Velocity P-wave (km/s) = 2.59796 10.49482 7.64495
#
# Compressibility (1/GPa) = 0.26082087
#
# Stress axis : x y z
#
# Youngs Moduli (GPa) = 17.09772 32.54017 3.20578
#
# Poissons Ratio (x) = 0.99241 0.34314
# Poissons Ratio (y) = 0.52145 -0.21597
# Poissons Ratio (z) = 1.83009 -2.19218
#
# Static dielectric constant tensor:
#      x y z
#    x 1.757010 0.000000 0.000000 
#    y 0.000000 1.749620 0.000000 
#    z 0.000000 0.000000 1.726590 
# 
# From -- ./inp_files/11063.got.cif
#   From: 2010.05.17/outbox.ucp.g08.bks.cvg/sg71_6_cif.got.tgz:11063.got - 2010.06.11 16:29:00.
