data_PCOD9524892
_publ_section_title
;
Structure prediction by ZEFSAII (Michael W. Deem and Ramdas Pophale) SiO2 
 PCOD9524892
Probable space group: I M M M
;
_chemical_formula_sum "Si O2"
_cell_formula_units_Z 44
_cell_length_a 9.000000
_cell_length_b 21.000000
_cell_length_c 24.000000
_cell_angle_alpha 90.000000
_cell_angle_beta 90.000000
_cell_angle_gamma 90.000000
_cell_volume 4536.000000
_symmetry_space_group_name_H-M "I M M M"
_symmetry_group_IT_number 71
_symmetry_cell_setting 'orthorhombic'
loop_
_space_group_symop_operation_xyz
x,y,z
-x,-y,z
x,-y,-z
-x,y,-z
-x,-y,-z
x,y,-z
-x,y,z
x,-y,z
1/2+x,1/2+y,1/2+z
1/2-x,1/2-y,1/2+z
1/2+x,1/2-y,1/2-z
1/2-x,1/2+y,1/2-z
1/2-x,1/2-y,1/2-z
1/2+x,1/2+y,1/2-z
1/2-x,1/2+y,1/2+z
1/2+x,1/2-y,1/2+z
loop_
_atom_site_type_symbol
_atom_site_label
_atom_site_fract_x
_atom_site_fract_y
_atom_site_fract_z
Si Si1 0.821165 0.423811 0.250895
Si Si2 0.164218 0.575249 0.437693
Si Si3 0.172530 0.147203 0.145073
Si Si4 0.179318 0.243978 0.566835
Si Si5 0.321639 0.119994 0.624013
Si Si6 0.673352 0.500000 0.933416
O O1 0.778963 0.500000 0.253893
O O2 0.744998 0.379015 0.297675
O O3 0.788844 0.394963 0.189402
O O4 0.000000 0.422042 0.258945
O O5 0.182338 0.602131 0.500000
O O6 0.154420 0.500000 0.442184
O O7 0.299419 0.589887 0.397794
O O8 0.000000 0.596919 0.416601
O O9 0.255894 0.201736 0.108560
O O10 0.000000 0.163357 0.153227
O O11 0.220776 0.248263 0.500000
O O12 0.243249 0.180281 0.595474
O O13 0.000000 0.244493 0.568530
O O14 0.500000 0.125876 0.619174
O O15 0.259020 0.060323 0.590382
O O16 0.500000 0.500000 0.915737
O O17 0.676300 0.500000 0.000000
#
# Coordination Sequence:
#
# PCOD9524892 Si02
#       6
#    16  16  16  16  16   8
#     4  10  22  43  67  92 127 170 214 259 314 382
#     4   9  18  34  56  81 112 155 205 256 315 380
#     4  12  25  38  58  90 124 164 212 262 317 370
#     4  11  25  45  67  92 126 170 215 259 318 390
#     4  11  23  42  68  98 128 164 212 267 321 372
#     4  11  23  39  63  97 135 173 210 253 314 385
#
# _framework density 9.7001760000000008
#
# number of rings (size 3 to 8) (size 9 to 14) (size 15 to 20)
#    0.000    1.364    0.909    5.182    0.000   12.000 
#    0.000    0.909    0.000    0.000    0.000    0.000 
#    0.000    0.000    0.000    0.000    0.000    0.000 
#
# Total GULP energy -245398.938686 kJ/mol
# GULP energy per Si atom -5577.248607 kJ/mol
# Density = 0.967810 g / cm^3
# Si number density = 9.700176 Si / 1000 Ang^3
#
#
#
# Elastic Constant Matrix: (Units=GPa)
#
#
# Indices 1 2 3 4 5 6 
#
# 1 99.1012 51.6575 72.0015 0.0000 0.0000 0.0000
# 2 51.6575 143.1936 78.0518 0.0000 0.0000 0.0000
# 3 72.0015 78.0518 159.2252 0.0000 0.0000 0.0000
# 4 0.0000 0.0000 0.0000 38.2617 0.0000 0.0000
# 5 0.0000 0.0000 0.0000 0.0000 28.0177 0.0000
# 6 0.0000 0.0000 0.0000 0.0000 0.0000 19.7066
#
#
#
# Elastic Compliance Matrix: (Units=1/GPa)
#
#
# Indices 1 2 3 4 5 6 
#
# 1 0.015627 -0.002437 -0.005872 0.000000 0.000000 0.000000
# 2 -0.002437 0.009910 -0.003756 0.000000 0.000000 0.000000
# 3 -0.005872 -0.003756 0.010777 0.000000 0.000000 0.000000
# 4 0.000000 0.000000 0.000000 0.026136 0.000000 0.000000
# 5 0.000000 0.000000 0.000000 0.000000 0.035692 0.000000
# 6 0.000000 0.000000 0.000000 0.000000 0.000000 0.050744
#
#
# Mechanical properties :
#
#
# Convention : Reuss Voigt Hill
#
# Bulk Modulus (GPa) = 82.07189 89.43796 85.75492
# Shear Modulus (GPa) = 28.23628 30.51781 29.37705
#
# Velocity S-wave (km/s) = 3.81918 3.97048 3.89556
# Velocity P-wave (km/s) = 7.86412 8.19883 8.03322
#
# Compressibility (1/GPa) = 0.01218444
#
# Stress axis : x y z
#
# Youngs Moduli (GPa) = 63.99070 100.90934 92.79101
#
# Poissons Ratio (x) = 0.24590 0.54488
# Poissons Ratio (y) = 0.15593 0.34851
# Poissons Ratio (z) = 0.37576 0.37900
#
# Static dielectric constant tensor:
#      x y z
#    x 1.673370 0.000000 0.000000 
#    y 0.000000 1.627270 0.000000 
#    z 0.000000 0.000000 1.671560 
# 
# From -- ./inp_files/57529.got.cif
#   From: 2010.05.17/outbox.ucp.g08.bks.cvg/sg71_29_cif.got.tgz:57529.got - 2010.06.11 16:29:00.
