data_PCOD9524925
_publ_section_title
;
Structure prediction by ZEFSAII (Michael W. Deem and Ramdas Pophale) SiO2 
 PCOD9524925
Probable space group: I B A M
;
_chemical_formula_sum "Si O2"
_cell_formula_units_Z 84
_cell_length_a 16.272625
_cell_length_b 24.027015
_cell_length_c 14.903700
_cell_angle_alpha 90.000000
_cell_angle_beta 90.000000
_cell_angle_gamma 90.000000
_cell_volume 5827.087450
_symmetry_space_group_name_H-M "I B A M"
_symmetry_group_IT_number 72
_symmetry_cell_setting 'orthorhombic'
loop_
_space_group_symop_operation_xyz
x,y,z
-x,-y,z
x,-y,1/2-z
-x,y,1/2-z
-x,-y,-z
x,y,-z
-x,y,1/2+z
x,-y,1/2+z
1/2+x,1/2+y,1/2+z
1/2-x,1/2-y,1/2+z
1/2+x,1/2-y,-z
1/2-x,1/2+y,-z
1/2-x,1/2-y,1/2-z
1/2+x,1/2+y,1/2-z
1/2-x,1/2+y,z
1/2+x,1/2-y,z
loop_
_atom_site_type_symbol
_atom_site_label
_atom_site_fract_x
_atom_site_fract_y
_atom_site_fract_z
Si Si1 0.500000 0.000000 0.750000
Si Si2 0.619362 0.733091 0.000000
Si Si3 0.579731 0.102460 0.658135
Si Si4 0.799617 0.690199 0.000000
Si Si5 0.185922 0.360444 0.500000
Si Si6 0.365058 0.681858 0.000000
Si Si7 0.016510 0.788695 0.349693
Si Si8 0.915147 0.663837 0.844545
O O1 0.555448 0.040888 0.689839
O O2 0.701838 0.696147 0.000000
O O3 0.563625 0.721292 0.087864
O O4 0.647855 0.797622 0.000000
O O5 0.650569 0.108531 0.586499
O O6 0.495615 0.130656 0.621015
O O7 0.601737 0.137532 0.747510
O O8 0.834694 0.753585 0.000000
O O9 0.839555 0.661704 0.087284
O O10 0.283618 0.354562 0.500000
O O11 0.421179 0.676199 0.911585
O O12 0.057774 0.727936 0.335489
O O13 0.000000 0.811199 0.250000
#
# Coordination Sequence:
#
# PCOD9524925 Si02
#       8
#     4   8  16   8   8   8  16  16
#     4   8  20  34  40  72  80 106 154 186 216 252
#     4  10  18  25  39  64  84 112 159 178 204 256
#     4  10  18  29  49  59  87 111 150 184 211 271
#     4   9  17  26  38  59  88 109 150 194 204 233
#     4  11  17  29  42  62  83 120 141 177 221 252
#     4   8  20  25  37  62  85 108 158 183 196 255
#     4  10  15  28  41  55  85 121 150 181 208 238
#     4   9  15  27  41  58  77 119 146 175 213 253
#
# _framework density 14.415435
#
# number of rings (size 3 to 8) (size 9 to 14) (size 15 to 20)
#    0.000    2.667    3.810    1.143    0.000    1.905 
#    0.000    6.667    0.000    0.000    0.000    0.000 
#    0.000    0.000    0.000  112.286    0.000    0.000 
#
# Total GULP energy -233851.431158 kJ/mol
# GULP energy per Si atom -5567.891218 kJ/mol
# Density = 1.438263 g / cm^3
# Si number density = 14.415435 Si / 1000 Ang^3
#
#
#
# Elastic Constant Matrix: (Units=GPa)
#
#
# Indices 1 2 3 4 5 6 
#
# 1 100.3712 31.7948 73.8790 0.0000 0.0000 0.0000
# 2 31.7948 44.3942 31.6794 0.0000 0.0000 0.0000
# 3 73.8790 31.6794 128.9418 0.0001 0.0000 0.0000
# 4 0.0000 0.0000 0.0001 7.1749 0.0000 0.0000
# 5 0.0000 0.0000 0.0000 0.0000 2.2919 0.0000
# 6 0.0000 0.0000 0.0000 0.0000 0.0000 10.2018
#
#
#
# Elastic Compliance Matrix: (Units=1/GPa)
#
#
# Indices 1 2 3 4 5 6 
#
# 1 0.018883 -0.007037 -0.009091 0.000000 0.000000 0.000000
# 2 -0.007037 0.029937 -0.003323 0.000000 0.000000 0.000000
# 3 -0.009091 -0.003323 0.013780 0.000000 0.000000 0.000000
# 4 0.000000 0.000000 0.000000 0.139375 0.000001 0.000000
# 5 0.000000 0.000000 0.000000 0.000001 0.436326 0.000000
# 6 0.000000 0.000000 0.000000 0.000000 0.000000 0.098022
#
#
# Mechanical properties :
#
#
# Convention : Reuss Voigt Hill
#
# Bulk Modulus (GPa) = 42.19588 60.93485 51.56537
# Shear Modulus (GPa) = 6.38468 13.02397 9.70432
#
# Velocity S-wave (km/s) = 2.10682 3.00904 2.59740
# Velocity P-wave (km/s) = 5.93743 7.37799 6.69656
#
# Compressibility (1/GPa) = 0.02369900
#
# Stress axis : x y z
#
# Youngs Moduli (GPa) = 52.95669 33.40382 72.56671
#
# Poissons Ratio (x) = 0.23507 0.65967
# Poissons Ratio (y) = 0.37266 0.24114
# Poissons Ratio (z) = 0.48141 0.11100
#
# Static dielectric constant tensor:
#      x y z
#    x 1.480750 0.000000 0.000000 
#    y 0.000000 1.446390 0.000000 
#    z 0.000000 0.000000 1.505560 
# 
# From -- ./inp_files/22027.got.cif
#   From: 2010.05.17/outbox.cif.g08.bks.cpg/sg72_12_cif.got.tgz:22027.got - 2010.06.03 17:03:01.
