data_PCOD9524631
_publ_section_title
;
Structure prediction by ZEFSAII (Michael W. Deem and Ramdas Pophale) SiO2 
 PCOD9524631
Probable space group: I M M M
;
_chemical_formula_sum "Si O2"
_cell_formula_units_Z 88
_cell_length_a 28.631328
_cell_length_b 7.365720
_cell_length_c 18.346994
_cell_angle_alpha 90.000000
_cell_angle_beta 90.000000
_cell_angle_gamma 90.000000
_cell_volume 3869.203899
_symmetry_space_group_name_H-M "I M M M"
_symmetry_group_IT_number 71
_symmetry_cell_setting 'orthorhombic'
loop_
_space_group_symop_operation_xyz
x,y,z
-x,-y,z
x,-y,-z
-x,y,-z
-x,-y,-z
x,y,-z
-x,y,z
x,-y,z
1/2+x,1/2+y,1/2+z
1/2-x,1/2-y,1/2+z
1/2+x,1/2-y,1/2-z
1/2-x,1/2+y,1/2-z
1/2-x,1/2-y,1/2-z
1/2+x,1/2+y,1/2-z
1/2-x,1/2+y,1/2+z
1/2+x,1/2-y,1/2+z
loop_
_atom_site_type_symbol
_atom_site_label
_atom_site_fract_x
_atom_site_fract_y
_atom_site_fract_z
Si Si1 0.246125 0.722324 0.420573
Si Si2 0.655594 0.710067 0.623746
Si Si3 0.075861 0.718625 0.693438
Si Si4 0.051951 0.790430 0.141255
Si Si5 0.680005 0.218083 0.790361
Si Si6 0.000000 0.278162 0.418627
O O1 0.225739 0.771524 0.500000
O O2 0.246179 0.500000 0.417518
O O3 0.299815 0.785929 0.417892
O O4 0.218755 0.782754 0.347704
O O5 0.650856 0.500000 0.602248
O O6 0.602850 0.788021 0.617148
O O7 0.674273 0.714036 0.707626
O O8 0.072740 0.500000 0.700281
O O9 0.057819 0.789538 0.770948
O O10 0.129226 0.763464 0.678220
O O11 0.044250 0.779365 0.627691
O O12 0.000000 0.713244 0.123723
O O13 0.050832 0.000000 0.116805
O O14 0.684945 0.000000 0.784416
O O15 0.000000 0.500000 0.420113
O O16 0.000000 0.212889 0.500000
#
# Coordination Sequence:
#
# PCOD9524631 Si02
#       6
#    16  16  16  16  16   8
#     4   9  17  29  45  65  89 116 145 176 214 261
#     4   9  17  29  46  66  87 114 145 178 216 257
#     4   9  16  26  40  59  82 106 136 173 208 245
#     4   9  16  26  42  62  83 106 135 173 213 250
#     4   9  17  28  45  67  87 110 143 182 216 250
#     4   9  16  24  35  53  79 109 136 165 202 242
#
# _framework density 22.743694999999999
#
# number of rings (size 3 to 8) (size 9 to 14) (size 15 to 20)
#    0.000    3.000    0.909    0.545    0.000    0.727 
#    0.000    3.636    0.000    3.818    0.000    8.909 
#    0.000    0.000    0.000    9.091    0.000    9.455 
#
# Total GULP energy -245207.896406 kJ/mol
# GULP energy per Si atom -5572.906737 kJ/mol
# Density = 2.269193 g / cm^3
# Si number density = 22.743695 Si / 1000 Ang^3
#
#
#
# Elastic Constant Matrix: (Units=GPa)
#
#
# Indices 1 2 3 4 5 6 
#
# 1 140.9548 10.1961 13.6932 0.0000 0.0000 0.0000
# 2 10.1961 79.4532 -4.3263 0.0000 0.0000 0.0000
# 3 13.6932 -4.3263 26.7522 0.0000 0.0000 0.0000
# 4 0.0000 0.0000 0.0000 -2.4023 0.0000 0.0000
# 5 0.0000 0.0000 0.0000 0.0000 -1.7781 0.0000
# 6 0.0000 0.0000 0.0000 0.0000 0.0000 1.9761
#
#
#
# Elastic Compliance Matrix: (Units=1/GPa)
#
#
# Indices 1 2 3 4 5 6 
#
# 1 0.007576 -0.001194 -0.004071 0.000000 0.000000 0.000000
# 2 -0.001194 0.012886 0.002695 0.000000 0.000000 0.000000
# 3 -0.004071 0.002695 0.039900 0.000000 0.000000 0.000000
# 4 0.000000 0.000000 0.000000 -0.416276 0.000000 0.000000
# 5 0.000000 0.000000 0.000000 0.000000 -0.562413 0.000000
# 6 0.000000 0.000000 0.000000 0.000000 0.000000 0.506052
#
#
# Mechanical properties :
#
#
# Convention : Reuss Voigt Hill
#
# Bulk Modulus (GPa) = 18.10869 31.80957 24.95913
# Shear Modulus (GPa) = -12.86244 14.73230 0.93493
#
# Velocity S-wave (km/s) = -2.38069 2.54786 0.64184
# Velocity P-wave (km/s) = 0.64998 4.76150 3.39812
#
# Compressibility (1/GPa) = 0.05522209
#
# Stress axis : x y z
#
# Youngs Moduli (GPa) = 131.99019 77.60365 25.06285
#
# Poissons Ratio (x) = 0.09265 0.10203
# Poissons Ratio (y) = 0.15759 -0.06754
# Poissons Ratio (z) = 0.53734 -0.20914
#
# Static dielectric constant tensor:
#      x y z
#    x 1.893090 0.000000 0.000000 
#    y 0.000000 1.910720 0.000000 
#    z 0.000000 0.000000 1.806900 
# 
# From -- ./inp_files/49207.got.cif
#   From: 2010.05.17/outbox.cif.g08.bks.cpg/sg71_25_cif.got.tgz:49207.got - 2010.06.03 16:22:01.
