data_PCOD9524074
_publ_section_title
;
Structure prediction by ZEFSAII (Michael W. Deem and Ramdas Pophale) SiO2 
 PCOD9524074
Probable space group: I M M M
;
_chemical_formula_sum "Si O2"
_cell_formula_units_Z 56
_cell_length_a 10.908650
_cell_length_b 26.840064
_cell_length_c 10.049403
_cell_angle_alpha 90.000000
_cell_angle_beta 90.000000
_cell_angle_gamma 90.000000
_cell_volume 2942.353290
_symmetry_space_group_name_H-M "I M M M"
_symmetry_group_IT_number 71
_symmetry_cell_setting 'orthorhombic'
loop_
_space_group_symop_operation_xyz
x,y,z
-x,-y,z
x,-y,-z
-x,y,-z
-x,-y,-z
x,y,-z
-x,y,z
x,-y,z
1/2+x,1/2+y,1/2+z
1/2-x,1/2-y,1/2+z
1/2+x,1/2-y,1/2-z
1/2-x,1/2+y,1/2-z
1/2-x,1/2-y,1/2-z
1/2+x,1/2+y,1/2-z
1/2-x,1/2+y,1/2+z
1/2+x,1/2-y,1/2+z
loop_
_atom_site_type_symbol
_atom_site_label
_atom_site_fract_x
_atom_site_fract_y
_atom_site_fract_z
Si Si1 0.643059 0.555800 0.000000
Si Si2 0.649707 0.217862 0.337201
Si Si3 0.000000 0.558003 0.850061
Si Si4 0.235581 0.392752 0.756372
Si Si5 0.646988 0.559464 0.500000
O O1 0.680150 0.587802 0.125471
O O2 0.701374 0.500000 0.000000
O O3 0.500000 0.549184 0.000000
O O4 0.666538 0.222875 0.500000
O O5 0.500000 0.226386 0.313197
O O6 0.750000 0.250000 0.250000
O O7 0.686938 0.162428 0.288588
O O8 0.116100 0.573845 0.768009
O O9 0.000000 0.500000 0.867151
O O10 0.000000 0.581494 0.000000
O O11 0.304441 0.408359 0.623717
O O12 0.684914 0.500000 0.500000
O O13 0.500000 0.558702 0.500000
#
# Coordination Sequence:
#
# PCOD9524074 Si02
#       5
#     8  16   8  16   8
#     4  11  22  37  64 101 136 176 228 277 331 412
#     4  11  26  50  75 103 138 178 230 296 357 419
#     4  11  20  35  67 103 135 169 217 275 338 407
#     4  12  23  43  68  96 136 181 228 278 343 408
#     4  11  26  45  64  97 148 192 228 277 339 410
#
# _framework density 19.032384
#
# number of rings (size 3 to 8) (size 9 to 14) (size 15 to 20)
#    0.000    0.714    4.286    3.429    2.000    5.714 
#    0.000    1.429    0.000    0.000    0.000    0.000 
#    0.000    0.000    0.000    0.000    0.000    0.000 
#
# Total GULP energy -155944.216361 kJ/mol
# GULP energy per Si atom -5569.436299 kJ/mol
# Density = 1.898907 g / cm^3
# Si number density = 19.032384 Si / 1000 Ang^3
#
#
#
# Elastic Constant Matrix: (Units=GPa)
#
#
# Indices 1 2 3 4 5 6 
#
# 1 150.3993 61.1846 74.0924 0.0000 0.0000 0.0000
# 2 61.1846 117.7489 52.7156 0.0001 -0.0001 0.0000
# 3 74.0924 52.7156 175.4959 0.0003 -0.0005 0.0002
# 4 0.0000 0.0001 0.0003 32.9068 -0.0001 0.0001
# 5 0.0000 -0.0001 -0.0005 -0.0001 35.5175 0.0000
# 6 0.0000 0.0000 0.0002 0.0001 0.0000 90.7919
#
#
#
# Elastic Compliance Matrix: (Units=1/GPa)
#
#
# Indices 1 2 3 4 5 6 
#
# 1 0.009592 -0.003664 -0.002949 0.000000 0.000000 0.000000
# 2 -0.003664 0.011212 -0.001821 0.000000 0.000000 0.000000
# 3 -0.002949 -0.001821 0.007490 0.000000 0.000000 0.000000
# 4 0.000000 0.000000 0.000000 0.030389 0.000000 0.000000
# 5 0.000000 0.000000 0.000000 0.000000 0.028155 0.000000
# 6 0.000000 0.000000 0.000000 0.000000 0.000000 0.011014
#
#
# Mechanical properties :
#
#
# Convention : Reuss Voigt Hill
#
# Bulk Modulus (GPa) = 87.51866 91.06989 89.29428
# Shear Modulus (GPa) = 42.18354 48.88667 45.53511
#
# Velocity S-wave (km/s) = 4.71298 5.07364 4.89663
# Velocity P-wave (km/s) = 8.70058 9.07063 8.88753
#
# Compressibility (1/GPa) = 0.01142613
#
# Stress axis : x y z
#
# Youngs Moduli (GPa) = 104.24859 89.19199 133.50750
#
# Poissons Ratio (x) = 0.32681 0.39374
# Poissons Ratio (y) = 0.38197 0.24310
# Poissons Ratio (z) = 0.30745 0.16241
#
# Static dielectric constant tensor:
#      x y z
#    x 1.647960 0.000000 0.000000 
#    y 0.000000 1.728890 0.000000 
#    z 0.000000 0.000000 1.845420 
# 
# From -- ./inp_files/3395.got.cif
#   From: 2010.05.17/outbox.cif.g08.bks.cpg/sg71_2_cif.got.tgz:3395.got - 2010.06.03 16:22:01.
