data_PCOD9524185
_publ_section_title
;
Structure prediction by ZEFSAII (Michael W. Deem and Ramdas Pophale) SiO2 
 PCOD9524185
Probable space group: I M M M
;
_chemical_formula_sum "Si O2"
_cell_formula_units_Z 56
_cell_length_a 11.770465
_cell_length_b 27.979642
_cell_length_c 7.821762
_cell_angle_alpha 90.000000
_cell_angle_beta 90.000000
_cell_angle_gamma 90.000000
_cell_volume 2575.967449
_symmetry_space_group_name_H-M "I M M M"
_symmetry_group_IT_number 71
_symmetry_cell_setting 'orthorhombic'
loop_
_space_group_symop_operation_xyz
x,y,z
-x,-y,z
x,-y,-z
-x,y,-z
-x,-y,-z
x,y,-z
-x,y,z
x,-y,z
1/2+x,1/2+y,1/2+z
1/2-x,1/2-y,1/2+z
1/2+x,1/2-y,1/2-z
1/2-x,1/2+y,1/2-z
1/2-x,1/2-y,1/2-z
1/2+x,1/2+y,1/2-z
1/2-x,1/2+y,1/2+z
1/2+x,1/2-y,1/2+z
loop_
_atom_site_type_symbol
_atom_site_label
_atom_site_fract_x
_atom_site_fract_y
_atom_site_fract_z
Si Si1 0.305322 0.625691 0.698443
Si Si2 0.626921 0.271033 0.195650
Si Si3 0.000000 0.944417 0.706160
Si Si4 0.132411 0.552238 0.291760
O O1 0.289455 0.639340 0.500000
O O2 0.354835 0.671976 0.789288
O O3 0.393317 0.582525 0.714849
O O4 0.192755 0.600347 0.769994
O O5 0.500000 0.260083 0.274817
O O6 0.750000 0.250000 0.250000
O O7 0.617335 0.256373 0.000000
O O8 0.000000 0.938527 0.500000
O O9 0.000000 0.000000 0.746064
O O10 0.142554 0.552672 0.500000
O O11 0.178077 0.500000 0.233706
O O12 0.000000 0.553322 0.249822
#
# Coordination Sequence:
#
# PCOD9524185 Si02
#       4
#    16  16   8  16
#     4  11  21  35  60  90 120 155 203 256 313 381
#     4  11  25  45  68  93 126 165 212 269 331 398
#     4  11  23  37  55  83 123 167 207 251 308 371
#     4   8  15  29  50  80 119 158 196 243 298 359
#
# _framework density 21.739404
#
# number of rings (size 3 to 8) (size 9 to 14) (size 15 to 20)
#    0.000    1.857    1.429    3.857    0.000    5.143 
#    0.000    2.857    0.000    2.571    0.000   10.000 
#    0.000    0.000    0.000    0.000    0.000    0.000 
#
# Total GULP energy -156051.515527 kJ/mol
# GULP energy per Si atom -5573.268412 kJ/mol
# Density = 2.168992 g / cm^3
# Si number density = 21.739404 Si / 1000 Ang^3
#
#
#
# Elastic Constant Matrix: (Units=GPa)
#
#
# Indices 1 2 3 4 5 6 
#
# 1 144.6067 50.2500 11.7031 0.0001 -0.0015 0.0003
# 2 50.2500 72.3530 -0.3179 0.0000 -0.0003 -0.0002
# 3 11.7031 -0.3179 37.7892 0.0004 0.0025 -0.0038
# 4 0.0001 0.0000 0.0004 21.8147 -0.0004 -0.0011
# 5 -0.0015 -0.0003 0.0025 -0.0004 11.9987 -0.0005
# 6 0.0003 -0.0002 -0.0038 -0.0011 -0.0005 -12.5763
#
#
#
# Elastic Compliance Matrix: (Units=1/GPa)
#
#
# Indices 1 2 3 4 5 6 
#
# 1 0.009439 -0.006568 -0.002978 0.000000 0.000002 0.000001
# 2 -0.006568 0.018393 0.002189 0.000000 -0.000001 -0.000001
# 3 -0.002978 0.002189 0.027403 -0.000001 -0.000006 -0.000008
# 4 0.000000 0.000000 -0.000001 0.045841 0.000002 -0.000004
# 5 0.000002 -0.000001 -0.000006 0.000002 0.083342 -0.000003
# 6 0.000001 -0.000001 -0.000008 -0.000004 -0.000003 -0.079514
#
#
# Mechanical properties :
#
#
# Convention : Reuss Voigt Hill
#
# Bulk Modulus (GPa) = 24.67976 42.00215 33.34096
# Shear Modulus (GPa) = 37.55840 17.12165 27.34002
#
# Velocity S-wave (km/s) = 4.16103 2.80944 3.55015
# Velocity P-wave (km/s) = 5.87050 5.46687 5.67227
#
# Compressibility (1/GPa) = 0.04051903
#
# Stress axis : x y z
#
# Youngs Moduli (GPa) = 105.94488 54.36953 36.49181
#
# Poissons Ratio (x) = 0.35713 0.10869
# Poissons Ratio (y) = 0.69590 -0.07988
# Poissons Ratio (z) = 0.31555 -0.11901
#
# Static dielectric constant tensor:
#      x y z
#    x 1.806540 0.000000 0.000000 
#    y 0.000000 1.771480 0.000000 
#    z 0.000000 0.000000 1.829900 
# 
# From -- ./inp_files/3321.got.cif
#   From: 2010.05.17/outbox.cif.g08.bks.cpg/sg71_2_cif.got.tgz:3321.got - 2010.06.03 16:22:01.
