data_PCOD9524097
_publ_section_title
;
Structure prediction by ZEFSAII (Michael W. Deem and Ramdas Pophale) SiO2 
 PCOD9524097
Probable space group: I M M M
;
_chemical_formula_sum "Si O2"
_cell_formula_units_Z 88
_cell_length_a 8.743260
_cell_length_b 20.303200
_cell_length_c 31.228014
_cell_angle_alpha 90.000000
_cell_angle_beta 90.000000
_cell_angle_gamma 90.000000
_cell_volume 5543.477018
_symmetry_space_group_name_H-M "I M M M"
_symmetry_group_IT_number 71
_symmetry_cell_setting 'orthorhombic'
loop_
_space_group_symop_operation_xyz
x,y,z
-x,-y,z
x,-y,-z
-x,y,-z
-x,-y,-z
x,y,-z
-x,y,z
x,-y,z
1/2+x,1/2+y,1/2+z
1/2-x,1/2-y,1/2+z
1/2+x,1/2-y,1/2-z
1/2-x,1/2+y,1/2-z
1/2-x,1/2-y,1/2-z
1/2+x,1/2+y,1/2-z
1/2-x,1/2+y,1/2+z
1/2+x,1/2-y,1/2+z
loop_
_atom_site_type_symbol
_atom_site_label
_atom_site_fract_x
_atom_site_fract_y
_atom_site_fract_z
Si Si1 0.179581 0.926858 0.727761
Si Si2 0.320050 0.795844 0.133943
Si Si3 0.825296 0.500000 0.552123
Si Si4 0.321167 0.574139 0.331148
Si Si5 0.312748 0.855093 0.048888
Si Si6 0.680486 0.211678 0.291010
O O1 0.188142 0.924609 0.779493
O O2 0.267960 0.864116 0.710266
O O3 0.000000 0.920975 0.716690
O O4 0.233140 0.000000 0.714440
O O5 0.500000 0.781733 0.135550
O O6 0.286681 0.869056 0.151690
O O7 0.268896 0.801815 0.084462
O O8 0.235225 0.746383 0.165472
O O9 0.834818 0.500000 0.500000
O O10 0.755208 0.428560 0.561937
O O11 0.000000 0.500000 0.568824
O O12 0.500000 0.586755 0.342164
O O13 0.280999 0.500000 0.345390
O O14 0.500000 0.858998 0.049218
O O15 0.266726 0.841355 0.000000
O O16 0.500000 0.216993 0.287398
O O17 0.750000 0.250000 0.250000
#
# Coordination Sequence:
#
# PCOD9524097 Si02
#       6
#    16  16   8  16  16  16
#     4   9  18  34  54  72  94 125 158 196 241 283
#     4  11  21  30  47  72  94 123 163 204 245 285
#     4   7  10  20  38  58  85 119 151 193 245 279
#     4   9  18  31  45  63  92 128 161 198 243 285
#     4   8  15  27  42  63  92 122 155 199 245 285
#     4  12  23  35  50  69  98 130 163 199 237 283
#
# _framework density 15.874513
#
# number of rings (size 3 to 8) (size 9 to 14) (size 15 to 20)
#    0.000    2.455    1.818    4.364    1.273    0.727 
#    0.000    1.818    0.000    2.182    0.000    1.273 
#    0.000    0.727    0.000    8.364    0.000    2.364 
#
# Total GULP energy -245293.839416 kJ/mol
# GULP energy per Si atom -5574.859987 kJ/mol
# Density = 1.583838 g / cm^3
# Si number density = 15.874513 Si / 1000 Ang^3
#
#
#
# Elastic Constant Matrix: (Units=GPa)
#
#
# Indices 1 2 3 4 5 6 
#
# 1 50.3350 39.5811 31.1911 0.0000 0.0000 0.0000
# 2 39.5811 95.7966 55.4773 0.0000 0.0000 0.0000
# 3 31.1911 55.4773 88.9268 0.0000 0.0000 0.0000
# 4 0.0000 0.0000 0.0000 29.0245 0.0000 0.0000
# 5 0.0000 0.0000 0.0000 0.0000 10.2027 0.0000
# 6 0.0000 0.0000 0.0000 0.0000 0.0000 24.6657
#
#
#
# Elastic Compliance Matrix: (Units=1/GPa)
#
#
# Indices 1 2 3 4 5 6 
#
# 1 0.030509 -0.010034 -0.004442 0.000000 0.000000 0.000000
# 2 -0.010034 0.019643 -0.008735 0.000000 0.000000 0.000000
# 3 -0.004442 -0.008735 0.018253 0.000000 0.000000 0.000000
# 4 0.000000 0.000000 0.000000 0.034454 0.000000 0.000000
# 5 0.000000 0.000000 0.000000 0.000000 0.098013 0.000000
# 6 0.000000 0.000000 0.000000 0.000000 0.000000 0.040542
#
#
# Mechanical properties :
#
#
# Convention : Reuss Voigt Hill
#
# Bulk Modulus (GPa) = 45.48724 54.17304 49.83014
# Shear Modulus (GPa) = 16.93982 20.03250 18.48616
#
# Velocity S-wave (km/s) = 3.27021 3.55622 3.41621
# Velocity P-wave (km/s) = 6.55557 7.14578 6.85702
#
# Compressibility (1/GPa) = 0.02198419
#
# Stress axis : x y z
#
# Youngs Moduli (GPa) = 32.77704 50.90852 54.78683
#
# Poissons Ratio (x) = 0.51079 0.24334
# Poissons Ratio (y) = 0.32887 0.47857
# Poissons Ratio (z) = 0.14558 0.44469
#
# Static dielectric constant tensor:
#      x y z
#    x 1.548770 0.000000 0.000000 
#    y 0.000000 1.534130 0.000000 
#    z 0.000000 0.000000 1.560350 
# 
# From -- ./inp_files/68014.got.cif
#   From: 2010.05.17/outbox.cif.g08.bks.cpg/sg71_35_cif.got.tgz:68014.got - 2010.06.03 16:22:01.
