data_PCOD9524612
_publ_section_title
;
Structure prediction by ZEFSAII (Michael W. Deem and Ramdas Pophale) SiO2 
 PCOD9524612
Probable space group: I M M M
;
_chemical_formula_sum "Si O2"
_cell_formula_units_Z 72
_cell_length_a 7.348230
_cell_length_b 22.220657
_cell_length_c 21.155858
_cell_angle_alpha 90.000000
_cell_angle_beta 90.000000
_cell_angle_gamma 90.000000
_cell_volume 3454.381350
_symmetry_space_group_name_H-M "I M M M"
_symmetry_group_IT_number 71
_symmetry_cell_setting 'orthorhombic'
loop_
_space_group_symop_operation_xyz
x,y,z
-x,-y,z
x,-y,-z
-x,y,-z
-x,-y,-z
x,y,-z
-x,y,z
x,-y,z
1/2+x,1/2+y,1/2+z
1/2-x,1/2-y,1/2+z
1/2+x,1/2-y,1/2-z
1/2-x,1/2+y,1/2-z
1/2-x,1/2-y,1/2-z
1/2+x,1/2+y,1/2-z
1/2-x,1/2+y,1/2+z
1/2+x,1/2-y,1/2+z
loop_
_atom_site_type_symbol
_atom_site_label
_atom_site_fract_x
_atom_site_fract_y
_atom_site_fract_z
Si Si1 0.782674 0.569450 0.242489
Si Si2 0.216518 0.932289 0.888935
Si Si3 0.721707 0.870907 0.379351
Si Si4 0.783939 0.500000 0.073940
Si Si5 0.277490 0.207611 0.500000
Si Si6 0.722622 0.346017 0.500000
O O1 0.715453 0.500000 0.230280
O O2 0.745616 0.583037 0.315582
O O3 0.722249 0.622445 0.194408
O O4 0.000000 0.565729 0.234847
O O5 0.000000 0.935571 0.898638
O O6 0.288897 0.000000 0.899907
O O7 0.283495 0.883117 0.938390
O O8 0.500000 0.866480 0.380357
O O9 0.783029 0.937015 0.401311
O O10 0.781361 0.825157 0.434531
O O11 0.000000 0.500000 0.088064
O O12 0.759766 0.500000 0.000000
O O13 0.500000 0.204955 0.500000
O O14 0.220294 0.276867 0.500000
O O15 0.500000 0.344710 0.500000
#
# Coordination Sequence:
#
# PCOD9524612 Si02
#       6
#    16  16  16   8   8   8
#     4   9  16  26  42  67  95 115 134 169 215 258
#     4   9  17  30  48  66  83 108 143 181 221 260
#     4   9  14  21  35  59  91 119 139 167 209 251
#     4   9  12  16  30  54  85 116 141 166 202 247
#     4   9  16  24  38  61  88 116 146 178 211 247
#     4   9  17  30  45  60  79 107 146 188 219 248
#
# _framework density 20.843095999999999
#
# number of rings (size 3 to 8) (size 9 to 14) (size 15 to 20)
#    0.000    3.000    2.222    0.333    0.000    1.333 
#    0.000    1.667    0.000    2.667    0.000    2.333 
#    0.000    4.444    0.000    0.000    0.000    0.000 
#
# Total GULP energy -200482.218577 kJ/mol
# GULP energy per Si atom -5568.950516 kJ/mol
# Density = 2.079566 g / cm^3
# Si number density = 20.843096 Si / 1000 Ang^3
#
#
#
# Elastic Constant Matrix: (Units=GPa)
#
#
# Indices 1 2 3 4 5 6 
#
# 1 78.0641 10.0998 -2.1288 0.0000 0.0000 0.0000
# 2 10.0998 165.6899 126.4092 0.0000 0.0000 0.0000
# 3 -2.1288 126.4092 188.7282 0.0000 0.0000 0.0000
# 4 0.0000 0.0000 0.0000 82.5743 0.0000 0.0000
# 5 0.0000 0.0000 0.0000 0.0000 25.8069 0.0000
# 6 0.0000 0.0000 0.0000 0.0000 0.0000 -2.4339
#
#
#
# Elastic Compliance Matrix: (Units=1/GPa)
#
#
# Indices 1 2 3 4 5 6 
#
# 1 0.013089 -0.001862 0.001395 0.000000 0.000000 0.000000
# 2 -0.001862 0.012607 -0.008465 0.000000 0.000000 0.000000
# 3 0.001395 -0.008465 0.010984 0.000000 0.000000 0.000000
# 4 0.000000 0.000000 0.000000 0.012110 0.000000 0.000000
# 5 0.000000 0.000000 0.000000 0.000000 0.038749 0.000000
# 6 0.000000 0.000000 0.000000 0.000000 0.000000 -0.410867
#
#
# Mechanical properties :
#
#
# Convention : Reuss Voigt Hill
#
# Bulk Modulus (GPa) = 53.14739 77.91584 65.53162
# Shear Modulus (GPa) = -16.71179 41.06294 12.17557
#
# Velocity S-wave (km/s) = -2.83466 4.44339 2.41955
# Velocity P-wave (km/s) = 3.85233 7.98675 6.27011
#
# Compressibility (1/GPa) = 0.01881560
#
# Stress axis : x y z
#
# Youngs Moduli (GPa) = 76.40054 79.31944 91.03856
#
# Poissons Ratio (x) = 0.14769 -0.12698
# Poissons Ratio (y) = 0.14225 0.77067
# Poissons Ratio (z) = -0.10656 0.67146
#
# Static dielectric constant tensor:
#      x y z
#    x 1.838980 0.000000 0.000000 
#    y 0.000000 1.714790 0.000000 
#    z 0.000000 0.000000 1.790240 
# 
# From -- ./inp_files/10011.got.cif
#   From: 2010.05.17/outbox.cif.g08.bks.cpg/sg71_6_cif.got.tgz:10011.got - 2010.06.03 16:22:01.
