data_PCOD9524210
_publ_section_title
;
Structure prediction by ZEFSAII (Michael W. Deem and Ramdas Pophale) SiO2 
 PCOD9524210
Probable space group: I M M M
;
_chemical_formula_sum "Si O2"
_cell_formula_units_Z 72
_cell_length_a 9.078354
_cell_length_b 20.442613
_cell_length_c 19.768770
_cell_angle_alpha 90.000000
_cell_angle_beta 90.000000
_cell_angle_gamma 90.000000
_cell_volume 3668.792666
_symmetry_space_group_name_H-M "I M M M"
_symmetry_group_IT_number 71
_symmetry_cell_setting 'orthorhombic'
loop_
_space_group_symop_operation_xyz
x,y,z
-x,-y,z
x,-y,-z
-x,y,-z
-x,-y,-z
x,y,-z
-x,y,z
x,-y,z
1/2+x,1/2+y,1/2+z
1/2-x,1/2-y,1/2+z
1/2+x,1/2-y,1/2-z
1/2-x,1/2+y,1/2-z
1/2-x,1/2-y,1/2-z
1/2+x,1/2+y,1/2-z
1/2-x,1/2+y,1/2+z
1/2+x,1/2-y,1/2+z
loop_
_atom_site_type_symbol
_atom_site_label
_atom_site_fract_x
_atom_site_fract_y
_atom_site_fract_z
Si Si1 0.169279 0.202862 0.396580
Si Si2 0.675232 0.927030 0.385471
Si Si3 0.829947 0.869872 0.735121
Si Si4 0.676044 0.337294 0.389133
Si Si5 0.171353 0.422211 0.500000
O O1 0.242289 0.134381 0.419595
O O2 0.171744 0.193046 0.314664
O O3 0.259698 0.267428 0.412060
O O4 0.000000 0.207895 0.417969
O O5 0.500000 0.919236 0.391514
O O6 0.725772 0.918891 0.306778
O O7 0.715285 0.000000 0.409030
O O8 0.787338 0.852164 0.810768
O O9 0.000000 0.893960 0.734965
O O10 0.500000 0.336670 0.395689
O O11 0.748103 0.392231 0.435298
O O12 0.180144 0.500000 0.500000
O O13 0.000000 0.402513 0.500000
#
# Coordination Sequence:
#
# PCOD9524210 Si02
#       5
#    16  16  16  16   8
#     4   9  18  32  52  80 111 144 179 221 278 339
#     4   9  17  28  44  72 110 146 178 213 259 320
#     4   8  18  31  49  77 108 141 177 221 278 336
#     4  11  21  37  59  80 104 138 184 238 283 327
#     4  11  27  47  61  77 106 147 194 239 283 331
#
# _framework density 19.624984000000001
#
# number of rings (size 3 to 8) (size 9 to 14) (size 15 to 20)
#    1.333    1.222    0.000    2.333    0.000    5.333 
#    0.000    4.444    0.000    0.000    0.000    0.778 
#    0.000    6.222    0.000    0.000    0.000    0.222 
#
# Total GULP energy -200526.003295 kJ/mol
# GULP energy per Si atom -5570.166758 kJ/mol
# Density = 1.958032 g / cm^3
# Si number density = 19.624984 Si / 1000 Ang^3
#
#
#
# Elastic Constant Matrix: (Units=GPa)
#
#
# Indices 1 2 3 4 5 6 
#
# 1 82.4213 46.8400 22.5177 0.0000 0.0000 0.0000
# 2 46.8400 91.6043 18.4456 0.0000 0.0000 0.0000
# 3 22.5177 18.4456 83.6333 0.0000 0.0000 0.0000
# 4 0.0000 0.0000 0.0000 15.3354 0.0000 0.0000
# 5 0.0000 0.0000 0.0000 0.0000 9.7372 0.0000
# 6 0.0000 0.0000 0.0000 0.0000 0.0000 33.7633
#
#
#
# Elastic Compliance Matrix: (Units=1/GPa)
#
#
# Indices 1 2 3 4 5 6 
#
# 1 0.017753 -0.008492 -0.002907 0.000000 0.000000 0.000000
# 2 -0.008492 0.015486 -0.001129 0.000000 0.000000 0.000000
# 3 -0.002907 -0.001129 0.012989 0.000000 0.000000 0.000000
# 4 0.000000 0.000000 0.000000 0.065209 0.000000 0.000000
# 5 0.000000 0.000000 0.000000 0.000000 0.102699 0.000000
# 6 0.000000 0.000000 0.000000 0.000000 0.000000 0.029618
#
#
# Mechanical properties :
#
#
# Convention : Reuss Voigt Hill
#
# Bulk Modulus (GPa) = 47.23343 48.14062 47.68702
# Shear Modulus (GPa) = 18.12461 23.09086 20.60773
#
# Velocity S-wave (km/s) = 3.04229 3.43389 3.24400
# Velocity P-wave (km/s) = 6.03829 6.34867 6.19543
#
# Compressibility (1/GPa) = 0.02117145
#
# Stress axis : x y z
#
# Youngs Moduli (GPa) = 56.32788 64.57326 76.99034
#
# Poissons Ratio (x) = 0.54838 0.22380
# Poissons Ratio (y) = 0.47836 0.08692
# Poissons Ratio (z) = 0.16374 0.07291
#
# Static dielectric constant tensor:
#      x y z
#    x 1.657720 0.000000 0.000000 
#    y 0.000000 1.672110 0.000000 
#    z 0.000000 0.000000 1.736180 
# 
# From -- ./inp_files/50196.got.cif
#   From: 2010.05.17/outbox.cif.g08.bks.cpg/sg71_26_cif.got.tgz:50196.got - 2010.06.03 16:22:01.
