data_PCOD9524951
_publ_section_title
;
Structure prediction by ZEFSAII (Michael W. Deem and Ramdas Pophale) SiO2 
 PCOD9524951
Probable space group: I B A M
;
_chemical_formula_sum "Si O2"
_cell_formula_units_Z 68
_cell_length_a 12.164575
_cell_length_b 24.618353
_cell_length_c 13.205058
_cell_angle_alpha 90.000000
_cell_angle_beta 90.000000
_cell_angle_gamma 90.000000
_cell_volume 3954.542507
_symmetry_space_group_name_H-M "I B A M"
_symmetry_group_IT_number 72
_symmetry_cell_setting 'orthorhombic'
loop_
_space_group_symop_operation_xyz
x,y,z
-x,-y,z
x,-y,1/2-z
-x,y,1/2-z
-x,-y,-z
x,y,-z
-x,y,1/2+z
x,-y,1/2+z
1/2+x,1/2+y,1/2+z
1/2-x,1/2-y,1/2+z
1/2+x,1/2-y,-z
1/2-x,1/2+y,-z
1/2-x,1/2-y,1/2-z
1/2+x,1/2+y,1/2-z
1/2-x,1/2+y,z
1/2+x,1/2-y,z
loop_
_atom_site_type_symbol
_atom_site_label
_atom_site_fract_x
_atom_site_fract_y
_atom_site_fract_z
Si Si1 0.554422 0.682685 0.887344
Si Si2 0.868376 0.731244 0.882886
Si Si3 0.872622 0.086508 0.616288
Si Si4 0.000000 0.000000 0.750000
Si Si5 0.753190 0.173011 0.276245
O O1 0.483868 0.737332 0.873722
O O2 0.466835 0.633503 0.883616
O O3 0.645040 0.675111 0.802888
O O4 0.603050 0.682913 0.000000
O O5 0.777181 0.777938 0.855214
O O6 0.849006 0.686519 0.796239
O O7 0.857512 0.714076 0.000000
O O8 0.852406 0.071201 0.500000
O O9 0.767437 0.116313 0.666082
O O10 0.922377 0.037697 0.680901
#
# Coordination Sequence:
#
# PCOD9524951 Si02
#       5
#    16  16  16   4  16
#     4   9  16  28  42  59  85 116 150 184 216 257
#     4   9  17  25  39  60  79 109 151 183 214 258
#     4  10  19  29  42  59  81 110 146 183 214 250
#     4  12  18  32  44  62  84 112 152 184 216 256
#     4  10  16  28  42  57  85 117 146 182 220 254
#
# _framework density 17.195416000000002
#
# number of rings (size 3 to 8) (size 9 to 14) (size 15 to 20)
#    0.000    2.353    2.353    5.294    0.000    0.000 
#    0.000    0.000    0.000    2.824    0.000    0.000 
#    0.000    0.000    0.000   38.118    0.000  268.471 
#
# Total GULP energy -189532.476557 kJ/mol
# GULP energy per Si atom -5574.484605 kJ/mol
# Density = 1.715628 g / cm^3
# Si number density = 17.195416 Si / 1000 Ang^3
#
#
#
# Elastic Constant Matrix: (Units=GPa)
#
#
# Indices 1 2 3 4 5 6 
#
# 1 17.0944 8.9106 13.6827 0.0000 0.0000 0.0000
# 2 8.9106 75.8528 45.6463 -0.0001 0.0000 0.0000
# 3 13.6827 45.6463 139.0848 -0.0001 0.0000 0.0000
# 4 0.0000 -0.0001 -0.0001 24.6196 0.0000 0.0000
# 5 0.0000 0.0000 0.0000 0.0000 17.5224 0.0000
# 6 0.0000 0.0000 0.0000 0.0000 0.0000 20.1325
#
#
#
# Elastic Compliance Matrix: (Units=1/GPa)
#
#
# Indices 1 2 3 4 5 6 
#
# 1 0.064820 -0.004707 -0.004832 0.000000 0.000000 0.000000
# 2 -0.004707 0.016770 -0.005041 0.000000 0.000000 0.000000
# 3 -0.004832 -0.005041 0.009320 0.000000 0.000000 0.000000
# 4 0.000000 0.000000 0.000000 0.040618 0.000000 0.000000
# 5 0.000000 0.000000 0.000000 0.000000 0.057070 0.000000
# 6 0.000000 0.000000 0.000000 0.000000 0.000000 0.049671
#
#
# Mechanical properties :
#
#
# Convention : Reuss Voigt Hill
#
# Bulk Modulus (GPa) = 16.19426 40.94569 28.56997
# Shear Modulus (GPa) = 17.36050 23.37439 20.36744
#
# Velocity S-wave (km/s) = 3.18087 3.69092 3.44535
# Velocity P-wave (km/s) = 4.78840 6.48286 5.69896
#
# Compressibility (1/GPa) = 0.06175028
#
# Stress axis : x y z
#
# Youngs Moduli (GPa) = 15.42736 59.63158 107.30188
#
# Poissons Ratio (x) = 0.28067 0.51849
# Poissons Ratio (y) = 0.07261 0.54087
# Poissons Ratio (z) = 0.07455 0.30058
#
# Static dielectric constant tensor:
#      x y z
#    x 1.628690 0.000000 0.000000 
#    y 0.000000 1.585910 0.000000 
#    z 0.000000 0.000000 1.650940 
# 
# From -- ./inp_files/19967.got.cif
#   From: 2010.05.17/outbox.cif.g08.bks.cpg/sg72_10_cif.got.tgz:19967.got - 2010.06.03 17:03:01.
