data_PCOD9524329
_publ_section_title
;
Structure prediction by ZEFSAII (Michael W. Deem and Ramdas Pophale) SiO2 
 PCOD9524329
Probable space group: I M M M
;
_chemical_formula_sum "Si O2"
_cell_formula_units_Z 84
_cell_length_a 16.321726
_cell_length_b 11.698651
_cell_length_c 23.268084
_cell_angle_alpha 90.000000
_cell_angle_beta 90.000000
_cell_angle_gamma 90.000000
_cell_volume 4442.858595
_symmetry_space_group_name_H-M "I M M M"
_symmetry_group_IT_number 71
_symmetry_cell_setting 'orthorhombic'
loop_
_space_group_symop_operation_xyz
x,y,z
-x,-y,z
x,-y,-z
-x,y,-z
-x,-y,-z
x,y,-z
-x,y,z
x,-y,z
1/2+x,1/2+y,1/2+z
1/2-x,1/2-y,1/2+z
1/2+x,1/2-y,1/2-z
1/2-x,1/2+y,1/2-z
1/2-x,1/2-y,1/2-z
1/2+x,1/2+y,1/2-z
1/2-x,1/2+y,1/2+z
1/2+x,1/2-y,1/2+z
loop_
_atom_site_type_symbol
_atom_site_label
_atom_site_fract_x
_atom_site_fract_y
_atom_site_fract_z
Si Si1 0.500000 0.154544 0.500000
Si Si2 0.596224 0.500000 0.722970
Si Si3 0.350001 0.753340 0.701679
Si Si4 0.594222 0.500000 0.138571
Si Si5 0.292718 0.287475 0.114286
Si Si6 0.798654 0.363317 0.000000
Si Si7 0.096264 0.635706 0.321495
Si Si8 0.000000 0.634958 0.863612
O O1 0.602973 0.144931 0.500000
O O2 0.500000 0.154133 0.430923
O O3 0.500000 0.500000 0.704494
O O4 0.640229 0.383872 0.703039
O O5 0.595817 0.500000 0.792095
O O6 0.268530 0.792055 0.668920
O O7 0.366215 0.803416 0.765058
O O8 0.422292 0.806245 0.664243
O O9 0.500000 0.500000 0.120105
O O10 0.643089 0.609664 0.117420
O O11 0.240162 0.303560 0.056511
O O12 0.348548 0.175759 0.124887
O O13 0.778705 0.500000 0.000000
O O14 0.099536 0.500000 0.313816
O O15 0.000000 0.669554 0.326709
O O16 0.000000 0.500000 0.851258
#
# Coordination Sequence:
#
# PCOD9524329 Si02
#       8
#     4   8  16   8  16   8  16   8
#     4  12  25  44  70  91 142 181 214 266 331 380
#     4  11  22  40  61  94 140 181 217 259 337 406
#     4  12  24  38  66 101 136 176 220 273 329 401
#     4  11  24  43  66  93 134 176 213 269 348 407
#     4  12  26  41  66  96 135 168 225 276 329 398
#     4  12  25  44  67 102 127 172 223 276 324 389
#     4  11  24  43  67  98 134 172 215 272 341 398
#     4  12  23  39  65 100 137 178 220 271 328 392
#
# _framework density 18.906745999999998
#
# number of rings (size 3 to 8) (size 9 to 14) (size 15 to 20)
#    0.000    0.381    6.667    2.571    4.000    0.000 
#    0.000    2.857    0.000    3.429    0.000    0.000 
#    0.000    0.000    0.000    0.000    0.000    0.000 
#
# Total GULP energy -234174.547861 kJ/mol
# GULP energy per Si atom -5575.584473 kJ/mol
# Density = 1.886371 g / cm^3
# Si number density = 18.906746 Si / 1000 Ang^3
#
#
#
# Elastic Constant Matrix: (Units=GPa)
#
#
# Indices 1 2 3 4 5 6 
#
# 1 159.8905 50.8366 57.7019 0.0000 0.0000 0.0000
# 2 50.8366 108.3556 39.4400 0.0000 0.0000 0.0000
# 3 57.7019 39.4400 99.4203 0.0000 0.0000 0.0000
# 4 0.0000 0.0000 0.0000 -2.0209 0.0000 0.0000
# 5 0.0000 0.0000 0.0000 0.0000 50.7856 0.0000
# 6 0.0000 0.0000 0.0000 0.0000 0.0000 -44.3689
#
#
#
# Elastic Compliance Matrix: (Units=1/GPa)
#
#
# Indices 1 2 3 4 5 6 
#
# 1 0.008476 -0.002555 -0.003906 0.000000 0.000000 0.000000
# 2 -0.002555 0.011557 -0.003102 0.000000 0.000000 0.000000
# 3 -0.003906 -0.003102 0.013556 0.000000 0.000000 0.000000
# 4 0.000000 0.000000 0.000000 -0.494821 0.000000 0.000000
# 5 0.000000 0.000000 0.000000 0.000000 0.019691 0.000000
# 6 0.000000 0.000000 0.000000 0.000000 0.000000 -0.022538
#
#
# Mechanical properties :
#
#
# Convention : Reuss Voigt Hill
#
# Bulk Modulus (GPa) = 69.14011 73.73593 71.43802
# Shear Modulus (GPa) = -11.36016 15.52501 2.08242
#
# Velocity S-wave (km/s) = -2.45389 2.86866 1.05062
# Velocity P-wave (km/s) = 5.34973 7.07508 6.27202
#
# Compressibility (1/GPa) = 0.01446339
#
# Stress axis : x y z
#
# Youngs Moduli (GPa) = 117.97718 86.53113 73.77026
#
# Poissons Ratio (x) = 0.22109 0.28814
# Poissons Ratio (y) = 0.30144 0.22880
# Poissons Ratio (z) = 0.46080 0.26838
#
# Static dielectric constant tensor:
#      x y z
#    x 1.663160 0.000000 0.000000 
#    y 0.000000 1.666680 0.000000 
#    z 0.000000 0.000000 1.621350 
# 
# From -- ./inp_files/59723.got.cif
#   From: 2010.05.17/outbox.cif.g08.bks.cpg/sg71_30_cif.got.tgz:59723.got - 2010.06.03 16:22:01.
