data_PCOD9524842
_publ_section_title
;
Structure prediction by ZEFSAII (Michael W. Deem and Ramdas Pophale) SiO2 
 PCOD9524842
Probable space group: I M M M
;
_chemical_formula_sum "Si O2"
_cell_formula_units_Z 44
_cell_length_a 9.000000
_cell_length_b 21.000000
_cell_length_c 24.000000
_cell_angle_alpha 90.000000
_cell_angle_beta 90.000000
_cell_angle_gamma 90.000000
_cell_volume 4536.000000
_symmetry_space_group_name_H-M "I M M M"
_symmetry_group_IT_number 71
_symmetry_cell_setting 'orthorhombic'
loop_
_space_group_symop_operation_xyz
x,y,z
-x,-y,z
x,-y,-z
-x,y,-z
-x,-y,-z
x,y,-z
-x,y,z
x,-y,z
1/2+x,1/2+y,1/2+z
1/2-x,1/2-y,1/2+z
1/2+x,1/2-y,1/2-z
1/2-x,1/2+y,1/2-z
1/2-x,1/2-y,1/2-z
1/2+x,1/2+y,1/2-z
1/2-x,1/2+y,1/2+z
1/2+x,1/2-y,1/2+z
loop_
_atom_site_type_symbol
_atom_site_label
_atom_site_fract_x
_atom_site_fract_y
_atom_site_fract_z
Si Si1 0.677999 0.132846 0.334142
Si Si2 0.167752 0.000000 0.666639
Si Si3 0.667522 0.500000 0.700273
Si Si4 0.178569 0.170810 0.093699
Si Si5 0.678176 0.866399 0.795670
Si Si6 0.677840 0.298113 0.060918
Si Si7 0.319741 0.571803 0.500000
O O1 0.500000 0.137446 0.337818
O O2 0.718535 0.148554 0.269144
O O3 0.754736 0.171471 0.383423
O O4 0.736734 0.061927 0.345607
O O5 0.149745 0.000000 0.733210
O O6 0.000000 0.000000 0.642405
O O7 0.500000 0.500000 0.675148
O O8 0.759984 0.436602 0.689267
O O9 0.245210 0.174326 0.156013
O O10 0.247362 0.229322 0.060723
O O11 0.000000 0.174014 0.096814
O O12 0.221164 0.109230 0.056614
O O13 0.500000 0.863944 0.799621
O O14 0.500000 0.294207 0.066220
O O15 0.709873 0.329060 0.000000
O O16 0.263221 0.500000 0.500000
O O17 0.500000 0.570439 0.500000
#
# Coordination Sequence:
#
# PCOD9524842 Si02
#       7
#    16   8   8  16  16  16   8
#     4  10  21  38  62  89 121 158 197 241 293 355
#     4   9  17  33  58  88 122 154 189 235 290 346
#     4   9  17  31  53  81 115 157 197 232 283 351
#     4  11  22  38  62  87 117 158 202 247 295 353
#     4  10  21  36  55  86 122 155 192 244 300 349
#     4  11  24  42  63  85 115 154 197 247 302 356
#     4   9  20  38  59  87 121 156 200 251 290 336
#
# _framework density 9.7001760000000008
#
# number of rings (size 3 to 8) (size 9 to 14) (size 15 to 20)
#    0.000    1.909    0.909    2.727    1.273    6.182 
#    0.000    0.455    0.000    4.909    0.000    0.000 
#    0.000    0.000    0.000    0.000    0.000    0.000 
#
# Total GULP energy -245250.638076 kJ/mol
# GULP energy per Si atom -5573.878138 kJ/mol
# Density = 0.967810 g / cm^3
# Si number density = 9.700176 Si / 1000 Ang^3
#
#
#
# Elastic Constant Matrix: (Units=GPa)
#
#
# Indices 1 2 3 4 5 6 
#
# 1 91.1323 19.8544 64.9032 0.0000 0.0000 0.0000
# 2 19.8544 64.9282 57.2105 0.0000 0.0000 0.0000
# 3 64.9032 57.2105 163.1129 0.0000 0.0000 0.0000
# 4 0.0000 0.0000 0.0000 49.8941 0.0000 0.0000
# 5 0.0000 0.0000 0.0000 0.0000 21.3984 0.0000
# 6 0.0000 0.0000 0.0000 0.0000 0.0000 18.0299
#
#
#
# Elastic Compliance Matrix: (Units=1/GPa)
#
#
# Indices 1 2 3 4 5 6 
#
# 1 0.015357 0.000996 -0.006460 0.000000 0.000000 0.000000
# 2 0.000996 0.022355 -0.008237 0.000000 0.000000 0.000000
# 3 -0.006460 -0.008237 0.011590 0.000000 0.000000 0.000000
# 4 0.000000 0.000000 0.000000 0.020042 0.000000 0.000000
# 5 0.000000 0.000000 0.000000 0.000000 0.046732 0.000000
# 6 0.000000 0.000000 0.000000 0.000000 0.000000 0.055463
#
#
# Mechanical properties :
#
#
# Convention : Reuss Voigt Hill
#
# Bulk Modulus (GPa) = 45.66192 67.01219 56.33705
# Shear Modulus (GPa) = 24.24333 29.67817 26.96075
#
# Velocity S-wave (km/s) = 3.53885 3.91548 3.73192
# Velocity P-wave (km/s) = 6.34710 7.42011 6.90448
#
# Compressibility (1/GPa) = 0.02190009
#
# Stress axis : x y z
#
# Youngs Moduli (GPa) = 65.11830 44.73241 86.27936
#
# Poissons Ratio (x) = -0.04456 0.55735
# Poissons Ratio (y) = -0.06486 0.71070
# Poissons Ratio (z) = 0.42065 0.36847
#
# Static dielectric constant tensor:
#      x y z
#    x 1.644140 0.000000 0.000000 
#    y 0.000000 1.604360 0.000000 
#    z 0.000000 0.000000 1.673580 
# 
# From -- ./inp_files/12636.got.cif
#   From: 2010.05.17/outbox.ucp.g08.bks.cvg/sg71_7_cif.got.tgz:12636.got - 2010.06.11 16:29:00.
