data_PCOD9524977
_publ_section_title
;
Structure prediction by ZEFSAII (Michael W. Deem and Ramdas Pophale) SiO2 
 PCOD9524977
Probable space group: I B A M
;
_chemical_formula_sum "Si O2"
_cell_formula_units_Z 104
_cell_length_a 13.210633
_cell_length_b 20.882248
_cell_length_c 16.279537
_cell_angle_alpha 90.000000
_cell_angle_beta 90.000000
_cell_angle_gamma 90.000000
_cell_volume 4490.998666
_symmetry_space_group_name_H-M "I B A M"
_symmetry_group_IT_number 72
_symmetry_cell_setting 'orthorhombic'
loop_
_space_group_symop_operation_xyz
x,y,z
-x,-y,z
x,-y,1/2-z
-x,y,1/2-z
-x,-y,-z
x,y,-z
-x,y,1/2+z
x,-y,1/2+z
1/2+x,1/2+y,1/2+z
1/2-x,1/2-y,1/2+z
1/2+x,1/2-y,-z
1/2-x,1/2+y,-z
1/2-x,1/2-y,1/2-z
1/2+x,1/2+y,1/2-z
1/2-x,1/2+y,z
1/2+x,1/2-y,z
loop_
_atom_site_type_symbol
_atom_site_label
_atom_site_fract_x
_atom_site_fract_y
_atom_site_fract_z
Si Si1 0.382643 0.747577 0.673379
Si Si2 0.713363 0.622216 0.000000
Si Si3 0.297369 0.334608 0.301020
Si Si4 0.804791 0.569623 0.168683
Si Si5 0.217632 0.563589 0.094147
Si Si6 0.115513 0.291369 0.000000
Si Si7 0.007502 0.370046 0.362659
Si Si8 0.963415 0.807110 0.500000
O O1 0.386725 0.697780 0.748678
O O2 0.266754 0.772837 0.669057
O O3 0.437839 0.814563 0.688331
O O4 0.420606 0.720641 0.586723
O O5 0.757919 0.591716 0.081550
O O6 0.766783 0.692765 0.000000
O O7 0.591789 0.624408 0.000000
O O8 0.243400 0.381357 0.233989
O O9 0.299072 0.382917 0.377568
O O10 0.782691 0.494083 0.160149
O O11 0.925727 0.580912 0.173327
O O12 0.103981 0.593706 0.098179
O O13 0.235487 0.543683 0.000000
O O14 0.061746 0.328556 0.924836
O O15 0.078198 0.218310 0.000000
#
# Coordination Sequence:
#
# PCOD9524977 Si02
#       8
#    16   8  16  16  16   8  16   8
#     4   9  19  33  50  71  94 134 187 232 292 327
#     4  10  18  29  50  75 107 140 184 226 275 345
#     4  10  21  34  48  71 102 138 185 235 275 331
#     4  11  20  33  49  76 104 141 186 228 271 343
#     4  11  21  32  48  70 105 150 188 224 270 337
#     4   8  16  27  46  77  99 138 188 227 271 334
#     4   9  18  31  52  70 101 140 185 230 278 331
#     4  10  16  32  54  70  98 144 182 231 288 343
#
# _framework density 23.157433000000001
#
# number of rings (size 3 to 8) (size 9 to 14) (size 15 to 20)
#    0.000    2.154    3.077    0.923    3.231    3.077 
#    0.000    3.077    0.000    0.000    0.000    1.077 
#    0.000    0.000    0.000  150.923    2.462    8.615 
#
# Total GULP energy -289640.757379 kJ/mol
# GULP energy per Si atom -5570.014565 kJ/mol
# Density = 2.310473 g / cm^3
# Si number density = 23.157433 Si / 1000 Ang^3
#
#
#
# Elastic Constant Matrix: (Units=GPa)
#
#
# Indices 1 2 3 4 5 6 
#
# 1 30.4036 22.2110 -3.0115 0.0000 0.0000 0.0000
# 2 22.2110 94.1054 17.9131 -0.0001 0.0000 0.0000
# 3 -3.0115 17.9131 84.7887 -0.0002 0.0000 0.0000
# 4 0.0000 -0.0001 -0.0002 31.3294 0.0000 0.0000
# 5 0.0000 0.0000 0.0000 0.0000 22.1536 0.0000
# 6 0.0000 0.0000 0.0000 0.0000 0.0000 24.4517
#
#
#
# Elastic Compliance Matrix: (Units=1/GPa)
#
#
# Indices 1 2 3 4 5 6 
#
# 1 0.040788 -0.010317 0.003628 0.000000 0.000000 0.000000
# 2 -0.010317 0.013681 -0.003257 0.000000 0.000000 0.000000
# 3 0.003628 -0.003257 0.012611 0.000000 0.000000 0.000000
# 4 0.000000 0.000000 0.000000 0.031919 0.000000 0.000000
# 5 0.000000 0.000000 0.000000 0.000000 0.045139 0.000000
# 6 0.000000 0.000000 0.000000 0.000000 0.000000 0.040897
#
#
# Mechanical properties :
#
#
# Convention : Reuss Voigt Hill
#
# Bulk Modulus (GPa) = 21.19175 31.50253 26.34714
# Shear Modulus (GPa) = 22.65963 27.06593 24.86278
#
# Velocity S-wave (km/s) = 3.13150 3.42245 3.28020
# Velocity P-wave (km/s) = 4.71657 5.40839 5.07429
#
# Compressibility (1/GPa) = 0.04718817
#
# Stress axis : x y z
#
# Youngs Moduli (GPa) = 24.51727 73.09142 79.29598
#
# Poissons Ratio (x) = 0.75412 -0.28772
# Poissons Ratio (y) = 0.25296 0.25826
# Poissons Ratio (z) = -0.08896 0.23805
#
# Static dielectric constant tensor:
#      x y z
#    x 1.921440 0.000000 0.000000 
#    y 0.000000 1.895360 0.000000 
#    z 0.000000 0.000000 2.098910 
# 
# From -- ./inp_files/30759.got.cif
#   From: 2010.05.17/outbox.cif.g08.bks.cpg/sg72_16_cif.got.tgz:30759.got - 2010.06.03 17:03:01.
