data_PCOD9524561
_publ_section_title
;
Structure prediction by ZEFSAII (Michael W. Deem and Ramdas Pophale) SiO2 
 PCOD9524561
Probable space group: I M M M
;
_chemical_formula_sum "Si O2"
_cell_formula_units_Z 80
_cell_length_a 7.421289
_cell_length_b 27.620322
_cell_length_c 18.884509
_cell_angle_alpha 90.000000
_cell_angle_beta 90.000000
_cell_angle_gamma 90.000000
_cell_volume 3870.916285
_symmetry_space_group_name_H-M "I M M M"
_symmetry_group_IT_number 71
_symmetry_cell_setting 'orthorhombic'
loop_
_space_group_symop_operation_xyz
x,y,z
-x,-y,z
x,-y,-z
-x,y,-z
-x,-y,-z
x,y,-z
-x,y,z
x,-y,z
1/2+x,1/2+y,1/2+z
1/2-x,1/2-y,1/2+z
1/2+x,1/2-y,1/2-z
1/2-x,1/2+y,1/2-z
1/2-x,1/2-y,1/2-z
1/2+x,1/2+y,1/2-z
1/2-x,1/2+y,1/2+z
1/2+x,1/2-y,1/2+z
loop_
_atom_site_type_symbol
_atom_site_label
_atom_site_fract_x
_atom_site_fract_y
_atom_site_fract_z
Si Si1 0.715555 0.592276 0.670384
Si Si2 0.780055 0.000000 0.418983
Si Si3 0.795924 0.198871 0.344194
Si Si4 0.721254 0.594520 0.833391
Si Si5 0.714478 0.198865 0.179045
Si Si6 0.779188 0.000000 0.918613
O O1 0.500000 0.587892 0.673320
O O2 0.780172 0.588776 0.751723
O O3 0.755378 0.646723 0.644363
O O4 0.781015 0.548296 0.622373
O O5 0.723115 0.951555 0.378514
O O6 0.722234 0.000000 0.500000
O O7 0.000000 0.000000 0.418020
O O8 0.715600 0.146667 0.362895
O O9 0.798023 0.196829 0.257819
O O10 0.717776 0.252173 0.358890
O O11 0.000000 0.199060 0.371959
O O12 0.500000 0.596180 0.832987
O O13 0.500000 0.204802 0.188922
O O14 0.000000 0.000000 0.918007
O O15 0.722835 0.000000 0.000000
#
# Coordination Sequence:
#
# PCOD9524561 Si02
#       6
#    16   8  16  16  16   8
#     4   9  16  27  44  63  83 107 133 167 211 252
#     4   9  15  21  33  56  82 104 130 167 202 230
#     4   8  14  24  38  57  84 114 138 165 204 244
#     4   8  13  22  36  55  80 107 131 157 197 243
#     4   9  15  23  38  61  86 109 136 169 202 242
#     4   9  17  29  46  65  80 100 138 181 214 252
#
# _framework density 20.666941999999999
#
# number of rings (size 3 to 8) (size 9 to 14) (size 15 to 20)
#    0.000    3.400    0.000    2.400    0.000    3.200 
#    0.000    0.500    0.000    2.400    0.000    2.800 
#    0.000   25.600    0.000    0.000    0.000    2.200 
#
# Total GULP energy -222799.184434 kJ/mol
# GULP energy per Si atom -5569.979611 kJ/mol
# Density = 2.061990 g / cm^3
# Si number density = 20.666942 Si / 1000 Ang^3
#
#
#
# Elastic Constant Matrix: (Units=GPa)
#
#
# Indices 1 2 3 4 5 6 
#
# 1 71.9850 -0.3671 2.3142 0.0000 0.0000 0.0000
# 2 -0.3671 280.2330 86.6219 0.0000 0.0000 0.0000
# 3 2.3142 86.6219 63.0710 0.0000 0.0000 0.0000
# 4 0.0000 0.0000 0.0000 -5.1222 0.0000 0.0000
# 5 0.0000 0.0000 0.0000 0.0000 -1.9354 0.0000
# 6 0.0000 0.0000 0.0000 0.0000 0.0000 13.5335
#
#
#
# Elastic Compliance Matrix: (Units=1/GPa)
#
#
# Indices 1 2 3 4 5 6 
#
# 1 0.013923 0.000306 -0.000931 0.000000 0.000000 0.000000
# 2 0.000306 0.006208 -0.008537 0.000000 0.000000 0.000000
# 3 -0.000931 -0.008537 0.027614 0.000000 0.000000 0.000000
# 4 0.000000 0.000000 0.000000 -0.195227 0.000000 0.000000
# 5 0.000000 0.000000 0.000000 0.000000 -0.516696 0.000000
# 6 0.000000 0.000000 0.000000 0.000000 0.000000 0.073891
#
#
# Mechanical properties :
#
#
# Convention : Reuss Voigt Hill
#
# Bulk Modulus (GPa) = 33.98960 65.82523 49.90742
# Shear Modulus (GPa) = -8.89432 23.07650 7.09109
#
# Velocity S-wave (km/s) = -2.07677 3.34517 1.85434
# Velocity P-wave (km/s) = 3.27588 6.84396 5.36522
#
# Compressibility (1/GPa) = 0.02942076
#
# Stress axis : x y z
#
# Youngs Moduli (GPa) = 71.82216 161.09134 36.21374
#
# Poissons Ratio (x) = -0.04931 0.03372
# Poissons Ratio (y) = -0.02198 0.30915
# Poissons Ratio (z) = 0.06688 1.37521
#
# Static dielectric constant tensor:
#      x y z
#    x 1.816330 0.000000 0.000000 
#    y 0.000000 1.803220 0.000000 
#    z 0.000000 0.000000 1.663700 
# 
# From -- ./inp_files/48602.got.cif
#   From: 2010.05.17/outbox.cif.g08.bks.cpg/sg71_25_cif.got.tgz:48602.got - 2010.06.03 16:22:01.
