data_PCOD9524305
_publ_section_title
;
Structure prediction by ZEFSAII (Michael W. Deem and Ramdas Pophale) SiO2 
 PCOD9524305
Probable space group: I M M M
;
_chemical_formula_sum "Si O2"
_cell_formula_units_Z 64
_cell_length_a 12.531772
_cell_length_b 13.386018
_cell_length_c 19.111029
_cell_angle_alpha 90.000000
_cell_angle_beta 90.000000
_cell_angle_gamma 90.000000
_cell_volume 3205.885159
_symmetry_space_group_name_H-M "I M M M"
_symmetry_group_IT_number 71
_symmetry_cell_setting 'orthorhombic'
loop_
_space_group_symop_operation_xyz
x,y,z
-x,-y,z
x,-y,-z
-x,y,-z
-x,-y,-z
x,y,-z
-x,y,z
x,-y,z
1/2+x,1/2+y,1/2+z
1/2-x,1/2-y,1/2+z
1/2+x,1/2-y,1/2-z
1/2-x,1/2+y,1/2-z
1/2-x,1/2-y,1/2-z
1/2+x,1/2+y,1/2-z
1/2-x,1/2+y,1/2+z
1/2+x,1/2-y,1/2+z
loop_
_atom_site_type_symbol
_atom_site_label
_atom_site_fract_x
_atom_site_fract_y
_atom_site_fract_z
Si Si1 0.181228 0.607923 0.207880
Si Si2 0.879968 0.173222 0.788712
Si Si3 0.264414 0.121581 0.081200
Si Si4 0.000000 0.384677 0.585176
Si Si5 0.128759 0.500000 0.920781
O O1 0.140229 0.500000 0.235408
O O2 0.122176 0.708558 0.227934
O O3 0.301514 0.620575 0.233985
O O4 0.170395 0.593103 0.124587
O O5 0.822950 0.158096 0.863822
O O6 0.000000 0.135731 0.788851
O O7 0.383496 0.157652 0.103911
O O8 0.265795 0.000000 0.083158
O O9 0.245150 0.149862 0.000000
O O10 0.000000 0.500000 0.608295
O O11 0.000000 0.385953 0.500000
O O12 0.000000 0.500000 0.918124
O O13 0.163760 0.500000 0.000000
#
# Coordination Sequence:
#
# PCOD9524305 Si02
#       5
#    16  16  16   8   8
#     4   9  22  41  59  89 118 156 203 250 308 371
#     4  11  22  38  60  88 124 162 199 251 307 364
#     4   9  18  33  54  86 122 160 203 249 301 359
#     4   7  12  28  50  72 109 151 191 239 288 337
#     4   9  18  38  67  91 116 151 201 264 308 348
#
# _framework density 19.963286
#
# number of rings (size 3 to 8) (size 9 to 14) (size 15 to 20)
#    0.750    2.000    0.000    3.000    0.000    3.500 
#   11.250    1.250    0.000    1.500    0.000    0.000 
#    0.000    0.000    0.000    0.000    0.000    0.000 
#
# Total GULP energy -178243.562612 kJ/mol
# GULP energy per Si atom -5570.111332 kJ/mol
# Density = 1.991785 g / cm^3
# Si number density = 19.963286 Si / 1000 Ang^3
#
#
#
# Elastic Constant Matrix: (Units=GPa)
#
#
# Indices 1 2 3 4 5 6 
#
# 1 145.5866 -0.5565 58.1070 0.0000 0.0000 0.0000
# 2 -0.5565 67.6205 17.6513 0.0000 0.0000 0.0000
# 3 58.1070 17.6513 126.7114 0.0000 0.0000 0.0000
# 4 0.0000 0.0000 0.0000 21.7686 0.0000 0.0000
# 5 0.0000 0.0000 0.0000 0.0000 30.8779 0.0000
# 6 0.0000 0.0000 0.0000 0.0000 0.0000 -6.1624
#
#
#
# Elastic Compliance Matrix: (Units=1/GPa)
#
#
# Indices 1 2 3 4 5 6 
#
# 1 0.008490 0.001127 -0.004050 0.000000 0.000000 0.000000
# 2 0.001127 0.015496 -0.002676 0.000000 0.000000 0.000000
# 3 -0.004050 -0.002676 0.010122 0.000000 0.000000 0.000000
# 4 0.000000 0.000000 0.000000 0.045938 0.000000 0.000000
# 5 0.000000 0.000000 0.000000 0.000000 0.032386 0.000000
# 6 0.000000 0.000000 0.000000 0.000000 0.000000 -0.162274
#
#
# Mechanical properties :
#
#
# Convention : Reuss Voigt Hill
#
# Bulk Modulus (GPa) = 43.64807 54.48021 49.06414
# Shear Modulus (GPa) = -161.24353 26.94461 -67.14946
#
# Velocity S-wave (km/s) = -8.99697 3.67782 -5.80599
# Velocity P-wave (km/s) = 9.27446 6.73681 4.50727
#
# Compressibility (1/GPa) = 0.02291052
#
# Stress axis : x y z
#
# Youngs Moduli (GPa) = 117.79152 64.53242 98.79517
#
# Poissons Ratio (x) = -0.07273 0.40013
# Poissons Ratio (y) = -0.13276 0.26433
# Poissons Ratio (z) = 0.47707 0.17266
#
# Static dielectric constant tensor:
#      x y z
#    x 1.700880 0.000000 0.000000 
#    y 0.000000 1.742350 0.000000 
#    z 0.000000 0.000000 1.730460 
# 
# From -- ./inp_files/42913.got.cif
#   From: 2010.05.17/outbox.cif.g08.bks.cpg/sg71_22_cif.got.tgz:42913.got - 2010.06.03 16:22:01.
