data_PCOD9524113
_publ_section_title
;
Structure prediction by ZEFSAII (Michael W. Deem and Ramdas Pophale) SiO2 
 PCOD9524113
Probable space group: I M M M
;
_chemical_formula_sum "Si O2"
_cell_formula_units_Z 88
_cell_length_a 18.129985
_cell_length_b 7.671177
_cell_length_c 30.557760
_cell_angle_alpha 90.000000
_cell_angle_beta 90.000000
_cell_angle_gamma 90.000000
_cell_volume 4249.922044
_symmetry_space_group_name_H-M "I M M M"
_symmetry_group_IT_number 71
_symmetry_cell_setting 'orthorhombic'
loop_
_space_group_symop_operation_xyz
x,y,z
-x,-y,z
x,-y,-z
-x,y,-z
-x,-y,-z
x,y,-z
-x,y,z
x,-y,z
1/2+x,1/2+y,1/2+z
1/2-x,1/2-y,1/2+z
1/2+x,1/2-y,1/2-z
1/2-x,1/2+y,1/2-z
1/2-x,1/2-y,1/2-z
1/2+x,1/2+y,1/2-z
1/2-x,1/2+y,1/2+z
1/2+x,1/2-y,1/2+z
loop_
_atom_site_type_symbol
_atom_site_label
_atom_site_fract_x
_atom_site_fract_y
_atom_site_fract_z
Si Si1 0.212088 0.786193 0.050264
Si Si2 0.089961 0.201679 0.210740
Si Si3 0.916096 0.207968 0.304855
Si Si4 0.500000 0.291286 0.049876
Si Si5 0.415304 0.713663 0.384827
Si Si6 0.646893 0.204666 0.896565
O O1 0.139540 0.733376 0.076941
O O2 0.283561 0.722800 0.076949
O O3 0.213333 0.000000 0.049596
O O4 0.213098 0.728881 0.000000
O O5 0.111256 0.279134 0.257883
O O6 0.110452 0.276390 0.163402
O O7 0.000000 0.201368 0.211174
O O8 0.114942 0.000000 0.210085
O O9 0.866411 0.234818 0.347120
O O10 0.000000 0.273623 0.313552
O O11 0.922305 0.000000 0.298950
O O12 0.500000 0.500000 0.048583
O O13 0.427283 0.236343 0.075904
O O14 0.500000 0.224609 0.000000
O O15 0.500000 0.767171 0.391827
O O16 0.415399 0.500000 0.383199
O O17 0.659014 0.000000 0.893470
#
# Coordination Sequence:
#
# PCOD9524113 Si02
#       6
#    16  16  16   8  16  16
#     4   9  18  30  42  61  94 132 163 198 248 296
#     4   7  11  21  40  66  91 118 154 196 241 282
#     4   9  16  28  47  69  95 126 164 206 240 278
#     4  11  23  37  53  71  91 121 169 219 250 281
#     4   8  13  24  44  68  93 123 163 202 237 287
#     4  11  21  32  47  69 100 134 165 198 245 300
#
# _framework density 20.706261000000001
#
# number of rings (size 3 to 8) (size 9 to 14) (size 15 to 20)
#    0.000    3.000    0.909    3.545    0.000    1.818 
#    0.000    2.727    0.000    0.000    0.000    1.273 
#    0.000    4.364    0.000    8.909    0.000    9.455 
#
# Total GULP energy -245282.696633 kJ/mol
# GULP energy per Si atom -5574.606742 kJ/mol
# Density = 2.065913 g / cm^3
# Si number density = 20.706261 Si / 1000 Ang^3
#
#
#
# Elastic Constant Matrix: (Units=GPa)
#
#
# Indices 1 2 3 4 5 6 
#
# 1 106.1275 -2.0964 102.7524 0.0000 0.0000 0.0000
# 2 -2.0964 34.5790 6.3803 0.0000 0.0000 0.0000
# 3 102.7524 6.3803 210.0708 0.0000 0.0000 0.0000
# 4 0.0000 0.0000 0.0000 -0.8257 0.0000 0.0000
# 5 0.0000 0.0000 0.0000 0.0000 -310.4717 0.0000
# 6 0.0000 0.0000 0.0000 0.0000 0.0000 -5.8041
#
#
#
# Elastic Compliance Matrix: (Units=1/GPa)
#
#
# Indices 1 2 3 4 5 6 
#
# 1 0.018157 0.002755 -0.008965 0.000000 0.000000 0.000000
# 2 0.002755 0.029500 -0.002243 0.000000 0.000000 0.000000
# 3 -0.008965 -0.002243 0.009213 0.000000 0.000000 0.000000
# 4 0.000000 0.000000 0.000000 -1.211021 0.000000 0.000000
# 5 0.000000 0.000000 0.000000 0.000000 -0.003221 0.000000
# 6 0.000000 0.000000 0.000000 0.000000 0.000000 -0.172293
#
#
# Mechanical properties :
#
#
# Convention : Reuss Voigt Hill
#
# Bulk Modulus (GPa) = 25.02273 62.76111 43.89192
# Shear Modulus (GPa) = -3.84782 -47.17090 -25.50936
#
# Velocity S-wave (km/s) = -1.36467 -4.77812 -3.51374
# Velocity P-wave (km/s) = 3.10286 0.25412 2.18668
#
# Compressibility (1/GPa) = 0.03996367
#
# Stress axis : x y z
#
# Youngs Moduli (GPa) = 55.07631 33.89804 108.53812
#
# Poissons Ratio (x) = -0.09339 0.97301
# Poissons Ratio (y) = -0.15173 0.24351
# Poissons Ratio (z) = 0.49374 0.07605
#
# Static dielectric constant tensor:
#      x y z
#    x 1.712230 0.000000 0.000000 
#    y 0.000000 1.802250 0.000000 
#    z 0.000000 0.000000 1.774460 
# 
# From -- ./inp_files/42462.got.cif
#   From: 2010.05.17/outbox.cif.g08.bks.cpg/sg71_22_cif.got.tgz:42462.got - 2010.06.03 16:22:01.
