data_PCOD9524459
_publ_section_title
;
Structure prediction by ZEFSAII (Michael W. Deem and Ramdas Pophale) SiO2 
 PCOD9524459
Probable space group: I M M M
;
_chemical_formula_sum "Si O2"
_cell_formula_units_Z 40
_cell_length_a 14.668735
_cell_length_b 7.676068
_cell_length_c 18.074012
_cell_angle_alpha 90.000000
_cell_angle_beta 90.000000
_cell_angle_gamma 90.000000
_cell_volume 2035.101351
_symmetry_space_group_name_H-M "I M M M"
_symmetry_group_IT_number 71
_symmetry_cell_setting 'orthorhombic'
loop_
_space_group_symop_operation_xyz
x,y,z
-x,-y,z
x,-y,-z
-x,y,-z
-x,-y,-z
x,y,-z
-x,y,z
x,-y,z
1/2+x,1/2+y,1/2+z
1/2-x,1/2-y,1/2+z
1/2+x,1/2-y,1/2-z
1/2-x,1/2+y,1/2-z
1/2-x,1/2-y,1/2-z
1/2+x,1/2+y,1/2-z
1/2-x,1/2+y,1/2+z
1/2+x,1/2-y,1/2+z
loop_
_atom_site_type_symbol
_atom_site_label
_atom_site_fract_x
_atom_site_fract_y
_atom_site_fract_z
Si Si1 0.399853 0.207296 0.411700
Si Si2 0.780011 0.695008 0.667766
Si Si3 0.109465 0.000000 0.588005
O O1 0.398518 0.227823 0.500000
O O2 0.500000 0.263842 0.384692
O O3 0.314372 0.301132 0.377280
O O4 0.390864 0.000000 0.396314
O O5 0.818717 0.500000 0.668787
O O6 0.750000 0.750000 0.750000
O O7 0.846797 0.832862 0.628784
O O8 0.133593 0.000000 0.500000
O O9 0.000000 0.000000 0.593902
#
# Coordination Sequence:
#
# PCOD9524459 Si02
#       3
#    16  16   8
#     4   9  18  35  61  93 129 166 204 256 325 394
#     4  12  24  42  68  98 133 176 228 278 342 406
#     4  11  26  48  71  99 140 185 231 285 341 406
#
# _framework density 19.655041000000001
#
# number of rings (size 3 to 8) (size 9 to 14) (size 15 to 20)
#    0.000    1.400    4.000    2.400    0.000    6.400 
#    0.000    4.000    0.000    0.000    0.000    0.000 
#    0.000    0.000    0.000    0.000    0.000    0.000 
#
# Total GULP energy -111746.673322 kJ/mol
# GULP energy per Si atom -5587.333666 kJ/mol
# Density = 1.961031 g / cm^3
# Si number density = 19.655041 Si / 1000 Ang^3
#
#
#
# Elastic Constant Matrix: (Units=GPa)
#
#
# Indices 1 2 3 4 5 6 
#
# 1 99.2381 56.8541 44.2553 0.0000 0.0000 0.0000
# 2 56.8541 158.9038 71.6377 0.0000 0.0000 0.0000
# 3 44.2553 71.6377 94.7361 0.0000 0.0000 0.0000
# 4 0.0000 0.0000 0.0000 26.1743 0.0000 0.0000
# 5 0.0000 0.0000 0.0000 0.0000 -21.9016 0.0000
# 6 0.0000 0.0000 0.0000 0.0000 0.0000 9.6886
#
#
#
# Elastic Compliance Matrix: (Units=1/GPa)
#
#
# Indices 1 2 3 4 5 6 
#
# 1 0.013635 -0.003045 -0.004067 0.000000 0.000000 0.000000
# 2 -0.003045 0.010228 -0.006312 0.000000 0.000000 0.000000
# 3 -0.004067 -0.006312 0.017228 0.000000 0.000000 0.000000
# 4 0.000000 0.000000 0.000000 0.038205 0.000000 0.000000
# 5 0.000000 0.000000 0.000000 0.000000 -0.045659 0.000000
# 6 0.000000 0.000000 0.000000 0.000000 0.000000 0.103214
#
#
# Mechanical properties :
#
#
# Convention : Reuss Voigt Hill
#
# Bulk Modulus (GPa) = 70.20544 77.59693 73.90119
# Shear Modulus (GPa) = 29.68278 14.80097 22.24188
#
# Velocity S-wave (km/s) = 3.89033 2.74713 3.36759
# Velocity P-wave (km/s) = 7.48170 7.04467 7.26647
#
# Compressibility (1/GPa) = 0.01424391
#
# Stress axis : x y z
#
# Youngs Moduli (GPa) = 73.34124 97.76957 58.04367
#
# Poissons Ratio (x) = 0.29771 0.23606
# Poissons Ratio (y) = 0.22332 0.36637
# Poissons Ratio (z) = 0.29827 0.61711
#
# Static dielectric constant tensor:
#      x y z
#    x 1.675580 0.000000 0.000000 
#    y 0.000000 1.738870 0.000000 
#    z 0.000000 0.000000 1.647130 
# 
# From -- ./inp_files/4227.got.cif
#   From: 2010.05.17/outbox.cif.g08.bks.cpg/sg71_3_cif.got.tgz:4227.got - 2010.06.03 16:22:01.
