data_PCOD9524115
_publ_section_title
;
Structure prediction by ZEFSAII (Michael W. Deem and Ramdas Pophale) SiO2 
 PCOD9524115
Probable space group: I M M M
;
_chemical_formula_sum "Si O2"
_cell_formula_units_Z 104
_cell_length_a 9.061076
_cell_length_b 24.569699
_cell_length_c 29.185099
_cell_angle_alpha 90.000000
_cell_angle_beta 90.000000
_cell_angle_gamma 90.000000
_cell_volume 6497.417592
_symmetry_space_group_name_H-M "I M M M"
_symmetry_group_IT_number 71
_symmetry_cell_setting 'orthorhombic'
loop_
_space_group_symop_operation_xyz
x,y,z
-x,-y,z
x,-y,-z
-x,y,-z
-x,-y,-z
x,y,-z
-x,y,z
x,-y,z
1/2+x,1/2+y,1/2+z
1/2-x,1/2-y,1/2+z
1/2+x,1/2-y,1/2-z
1/2-x,1/2+y,1/2-z
1/2-x,1/2-y,1/2-z
1/2+x,1/2+y,1/2-z
1/2-x,1/2+y,1/2+z
1/2+x,1/2-y,1/2+z
loop_
_atom_site_type_symbol
_atom_site_label
_atom_site_fract_x
_atom_site_fract_y
_atom_site_fract_z
Si Si1 0.820295 0.355850 0.052077
Si Si2 0.176839 0.436179 0.679527
Si Si3 0.325108 0.731353 0.445281
Si Si4 0.674215 0.434891 0.500000
Si Si5 0.830024 0.066136 0.726611
Si Si6 0.676818 0.875589 0.913999
Si Si7 0.177930 0.436440 0.867791
O O1 0.779640 0.293684 0.063979
O O2 0.772313 0.399089 0.089947
O O3 0.000000 0.356821 0.051178
O O4 0.771051 0.367875 0.000000
O O5 0.214888 0.500000 0.672199
O O6 0.253236 0.416598 0.726179
O O7 0.217753 0.402111 0.634675
O O8 0.000000 0.433347 0.685349
O O9 0.306296 0.722503 0.500000
O O10 0.500000 0.725796 0.435622
O O11 0.234176 0.685874 0.418901
O O12 0.691198 0.500000 0.500000
O O13 0.500000 0.421601 0.500000
O O14 0.749088 0.409387 0.544869
O O15 0.746245 0.082496 0.680342
O O16 0.000000 0.083053 0.725295
O O17 0.824966 0.000000 0.727036
O O18 0.500000 0.877883 0.918732
O O19 0.217197 0.500000 0.875133
O O20 0.000000 0.433655 0.864653
#
# Coordination Sequence:
#
# PCOD9524115 Si02
#       7
#    16  16  16   8  16  16  16
#     4   8  15  28  47  72  99 128 162 197 232 275
#     4   9  18  32  48  67  92 121 153 192 241 289
#     4   9  17  31  49  66  90 126 166 201 235 280
#     4  11  23  35  47  67  97 131 162 193 236 291
#     4   9  17  29  46  68  94 124 157 192 231 281
#     4  11  21  32  49  71  95 123 158 203 246 285
#     4   9  16  27  47  74 101 128 157 191 234 282
#
# _framework density 16.006359
#
# number of rings (size 3 to 8) (size 9 to 14) (size 15 to 20)
#    0.000    2.692    0.769    2.538    0.000    4.615 
#    0.000    3.846    0.000    2.308    0.000    2.154 
#    0.000    0.000    0.000    0.000    0.000    0.000 
#
# Total GULP energy -289825.419730 kJ/mol
# GULP energy per Si atom -5573.565764 kJ/mol
# Density = 1.596993 g / cm^3
# Si number density = 16.006359 Si / 1000 Ang^3
#
#
#
# Elastic Constant Matrix: (Units=GPa)
#
#
# Indices 1 2 3 4 5 6 
#
# 1 38.4990 39.4296 55.3264 0.0000 0.0000 0.0000
# 2 39.4296 85.5571 86.5647 0.0000 0.0000 0.0000
# 3 55.3264 86.5647 161.7333 0.0000 0.0000 0.0000
# 4 0.0000 0.0000 0.0000 7.9480 0.0000 0.0000
# 5 0.0000 0.0000 0.0000 0.0000 12.9771 0.0000
# 6 0.0000 0.0000 0.0000 0.0000 0.0000 14.3167
#
#
#
# Elastic Compliance Matrix: (Units=1/GPa)
#
#
# Indices 1 2 3 4 5 6 
#
# 1 0.058426 -0.014623 -0.012160 0.000000 0.000000 0.000000
# 2 -0.014623 0.029154 -0.010602 0.000000 0.000000 0.000000
# 3 -0.012160 -0.010602 0.016017 0.000000 0.000000 0.000000
# 4 0.000000 0.000000 0.000000 0.125819 0.000000 0.000000
# 5 0.000000 0.000000 0.000000 0.000000 0.077059 0.000000
# 6 0.000000 0.000000 0.000000 0.000000 0.000000 0.069848
#
#
# Mechanical properties :
#
#
# Convention : Reuss Voigt Hill
#
# Bulk Modulus (GPa) = 34.68887 72.04786 53.36837
# Shear Modulus (GPa) = 10.85303 14.01294 12.43299
#
# Velocity S-wave (km/s) = 2.60675 2.96203 2.79005
# Velocity P-wave (km/s) = 5.54790 7.53710 6.61767
#
# Compressibility (1/GPa) = 0.02882769
#
# Stress axis : x y z
#
# Youngs Moduli (GPa) = 17.11574 34.30093 62.43297
#
# Poissons Ratio (x) = 0.50157 0.75919
# Poissons Ratio (y) = 0.25028 0.66190
# Poissons Ratio (z) = 0.20813 0.36365
#
# Static dielectric constant tensor:
#      x y z
#    x 1.535270 0.000000 0.000000 
#    y 0.000000 1.529760 0.000000 
#    z 0.000000 0.000000 1.519620 
# 
# From -- ./inp_files/13269.got.cif
#   From: 2010.05.17/outbox.cif.g08.bks.cpg/sg71_7_cif.got.tgz:13269.got - 2010.06.03 16:22:01.
