data_PCOD9524859
_publ_section_title
;
Structure prediction by ZEFSAII (Michael W. Deem and Ramdas Pophale) SiO2 
 PCOD9524859
Probable space group: I M M M
;
_chemical_formula_sum "Si O2"
_cell_formula_units_Z 36
_cell_length_a 9.000000
_cell_length_b 15.000000
_cell_length_c 27.000000
_cell_angle_alpha 90.000000
_cell_angle_beta 90.000000
_cell_angle_gamma 90.000000
_cell_volume 3645.000000
_symmetry_space_group_name_H-M "I M M M"
_symmetry_group_IT_number 71
_symmetry_cell_setting 'orthorhombic'
loop_
_space_group_symop_operation_xyz
x,y,z
-x,-y,z
x,-y,-z
-x,y,-z
-x,-y,-z
x,y,-z
-x,y,z
x,-y,z
1/2+x,1/2+y,1/2+z
1/2-x,1/2-y,1/2+z
1/2+x,1/2-y,1/2-z
1/2-x,1/2+y,1/2-z
1/2-x,1/2-y,1/2-z
1/2+x,1/2+y,1/2-z
1/2-x,1/2+y,1/2+z
1/2+x,1/2-y,1/2+z
loop_
_atom_site_type_symbol
_atom_site_label
_atom_site_fract_x
_atom_site_fract_y
_atom_site_fract_z
Si Si1 0.329107 0.209997 0.319797
Si Si2 0.677023 0.101789 0.500000
Si Si3 0.826110 0.895671 0.766236
Si Si4 0.671836 0.718845 0.082582
Si Si5 0.328926 0.599793 0.559938
O O1 0.500000 0.194037 0.334528
O O2 0.283965 0.144807 0.274983
O O3 0.317176 0.315860 0.306672
O O4 0.212348 0.190789 0.362388
O O5 0.500000 0.101448 0.500000
O O6 0.735052 0.156552 0.453448
O O7 0.730917 0.000000 0.500000
O O8 0.000000 0.893864 0.749844
O O9 0.794006 0.000000 0.779266
O O10 0.500000 0.711267 0.070772
O O11 0.725270 0.820642 0.076595
O O12 0.328741 0.599788 0.500000
O O13 0.500000 0.615853 0.575748
O O14 0.286248 0.500000 0.576413
#
# Coordination Sequence:
#
# PCOD9524859 Si02
#       5
#    16   8  16  16  16
#     4  10  21  37  59  87 118 155 196 237 287 351
#     4  11  25  45  66  85 110 151 203 252 296 347
#     4   9  19  38  62  87 116 150 190 240 295 347
#     4  12  24  38  59  88 122 157 194 244 297 346
#     4   9  18  34  57  82 111 151 194 235 283 340
#
# _framework density 9.8765429999999999
#
# number of rings (size 3 to 8) (size 9 to 14) (size 15 to 20)
#    0.000    1.889    1.111    3.667    0.000    4.444 
#    0.000    3.333    0.000    0.000    0.000    0.000 
#    0.000    0.000    0.000    0.000    0.000    0.000 
#
# Total GULP energy -200822.481604 kJ/mol
# GULP energy per Si atom -5578.402267 kJ/mol
# Density = 0.985406 g / cm^3
# Si number density = 9.876543 Si / 1000 Ang^3
#
#
#
# Elastic Constant Matrix: (Units=GPa)
#
#
# Indices 1 2 3 4 5 6 
#
# 1 62.5264 36.4817 12.4435 0.0000 0.0000 0.0000
# 2 36.4817 95.0185 12.1440 0.0000 0.0000 0.0000
# 3 12.4435 12.1440 33.5980 0.0000 0.0000 0.0000
# 4 0.0000 0.0000 0.0000 -20.2774 0.0000 0.0000
# 5 0.0000 0.0000 0.0000 0.0000 24.0991 0.0000
# 6 0.0000 0.0000 0.0000 0.0000 0.0000 125.1984
#
#
#
# Elastic Compliance Matrix: (Units=1/GPa)
#
#
# Indices 1 2 3 4 5 6 
#
# 1 0.021445 -0.007568 -0.005207 0.000000 0.000000 0.000000
# 2 -0.007568 0.013705 -0.002151 0.000000 0.000000 0.000000
# 3 -0.005207 -0.002151 0.032469 0.000000 0.000000 0.000000
# 4 0.000000 0.000000 0.000000 -0.049316 0.000000 0.000000
# 5 0.000000 0.000000 0.000000 0.000000 0.041495 0.000000
# 6 0.000000 0.000000 0.000000 0.000000 0.000000 0.007987
#
#
# Mechanical properties :
#
#
# Convention : Reuss Voigt Hill
#
# Bulk Modulus (GPa) = 26.47752 34.80903 30.64328
# Shear Modulus (GPa) = 45.36081 34.47561 39.91821
#
# Velocity S-wave (km/s) = 4.79727 4.18224 4.50027
# Velocity P-wave (km/s) = 6.64217 6.40171 6.52305
#
# Compressibility (1/GPa) = 0.03776788
#
# Stress axis : x y z
#
# Youngs Moduli (GPa) = 46.63032 72.96656 30.79815
#
# Poissons Ratio (x) = 0.55223 0.16037
# Poissons Ratio (y) = 0.35291 0.06624
# Poissons Ratio (z) = 0.24280 0.15693
#
# Static dielectric constant tensor:
#      x y z
#    x 1.655550 0.000000 0.000000 
#    y 0.000000 1.665950 0.000000 
#    z 0.000000 0.000000 1.745470 
# 
# From -- ./inp_files/6070.got.cif
#   From: 2010.05.17/outbox.ucp.g08.bks.cvg/sg71_4_cif.got.tgz:6070.got - 2010.06.11 16:29:00.
