data_PCOD9524152
_publ_section_title
;
Structure prediction by ZEFSAII (Michael W. Deem and Ramdas Pophale) SiO2 
 PCOD9524152
Probable space group: I M M M
;
_chemical_formula_sum "Si O2"
_cell_formula_units_Z 104
_cell_length_a 8.626592
_cell_length_b 27.722485
_cell_length_c 23.013316
_cell_angle_alpha 90.000000
_cell_angle_beta 90.000000
_cell_angle_gamma 90.000000
_cell_volume 5503.647577
_symmetry_space_group_name_H-M "I M M M"
_symmetry_group_IT_number 71
_symmetry_cell_setting 'orthorhombic'
loop_
_space_group_symop_operation_xyz
x,y,z
-x,-y,z
x,-y,-z
-x,y,-z
-x,-y,-z
x,y,-z
-x,y,z
x,-y,z
1/2+x,1/2+y,1/2+z
1/2-x,1/2-y,1/2+z
1/2+x,1/2-y,1/2-z
1/2-x,1/2+y,1/2-z
1/2-x,1/2-y,1/2-z
1/2+x,1/2+y,1/2-z
1/2-x,1/2+y,1/2+z
1/2+x,1/2-y,1/2+z
loop_
_atom_site_type_symbol
_atom_site_label
_atom_site_fract_x
_atom_site_fract_y
_atom_site_fract_z
Si Si1 0.821425 0.630089 0.161159
Si Si2 0.819636 0.808458 0.893791
Si Si3 0.185651 0.595404 0.631797
Si Si4 0.814535 0.204469 0.567611
Si Si5 0.814361 0.056627 0.253112
Si Si6 0.179287 0.700638 0.271373
Si Si7 0.311111 0.000000 0.065457
O O1 0.748520 0.661875 0.109202
O O2 0.738369 0.582624 0.186971
O O3 0.818924 0.665455 0.216893
O O4 0.000000 0.619125 0.146867
O O5 0.739848 0.859377 0.907900
O O6 0.748933 0.757683 0.914885
O O7 0.788918 0.811835 0.824780
O O8 0.000000 0.808761 0.908261
O O9 0.245367 0.585716 0.697754
O O10 0.237454 0.547518 0.598836
O O11 0.000000 0.598740 0.636397
O O12 0.774300 0.195805 0.500000
O O13 0.000000 0.205864 0.573333
O O14 0.000000 0.058815 0.249308
O O15 0.766505 0.000000 0.250753
O O16 0.250000 0.750000 0.250000
O O17 0.000000 0.704918 0.291572
O O18 0.500000 0.000000 0.065218
O O19 0.255777 0.000000 0.000000
#
# Coordination Sequence:
#
# PCOD9524152 Si02
#       7
#    16  16  16  16  16  16   8
#     4  11  23  38  62  92 122 159 199 245 304 365
#     4  12  24  37  57  87 122 160 199 246 300 352
#     4  11  21  36  59  87 119 158 206 257 307 360
#     4  11  25  44  65  88 119 162 206 248 298 362
#     4  11  23  38  60  91 126 159 197 249 311 369
#     4  11  21  33  54  86 118 152 191 235 289 348
#     4   9  20  38  59  81 109 153 206 255 300 351
#
# _framework density 18.896557999999999
#
# number of rings (size 3 to 8) (size 9 to 14) (size 15 to 20)
#    0.000    1.000    3.846    3.692    0.000    4.000 
#    0.000    1.538    0.000    3.692    0.000    3.231 
#    0.000    0.000    0.000    0.000    0.000    0.000 
#
# Total GULP energy -290055.672508 kJ/mol
# GULP energy per Si atom -5577.993702 kJ/mol
# Density = 1.885355 g / cm^3
# Si number density = 18.896558 Si / 1000 Ang^3
#
#
#
# Elastic Constant Matrix: (Units=GPa)
#
#
# Indices 1 2 3 4 5 6 
#
# 1 77.9403 29.8671 30.6174 0.0000 0.0000 0.0000
# 2 29.8671 104.7230 45.3462 0.0000 0.0000 0.0000
# 3 30.6174 45.3462 103.9711 0.0000 0.0000 0.0000
# 4 0.0000 0.0000 0.0000 13.0819 0.0000 0.0000
# 5 0.0000 0.0000 0.0000 0.0000 21.1136 0.0000
# 6 0.0000 0.0000 0.0000 0.0000 0.0000 23.6913
#
#
#
# Elastic Compliance Matrix: (Units=1/GPa)
#
#
# Indices 1 2 3 4 5 6 
#
# 1 0.015218 -0.002958 -0.003191 0.000000 0.000000 0.000000
# 2 -0.002958 0.012347 -0.004514 0.000000 0.000000 0.000000
# 3 -0.003191 -0.004514 0.012527 0.000000 0.000000 0.000000
# 4 0.000000 0.000000 0.000000 0.076441 0.000000 0.000000
# 5 0.000000 0.000000 0.000000 0.000000 0.047363 0.000000
# 6 0.000000 0.000000 0.000000 0.000000 0.000000 0.042210
#
#
# Mechanical properties :
#
#
# Convention : Reuss Voigt Hill
#
# Bulk Modulus (GPa) = 53.29169 55.36620 54.32894
# Shear Modulus (GPa) = 21.39618 23.63095 22.51357
#
# Velocity S-wave (km/s) = 3.36859 3.54014 3.45543
# Velocity P-wave (km/s) = 6.58733 6.78773 6.68828
#
# Compressibility (1/GPa) = 0.01876465
#
# Stress axis : x y z
#
# Youngs Moduli (GPa) = 65.71381 80.98908 79.83070
#
# Poissons Ratio (x) = 0.23959 0.25474
# Poissons Ratio (y) = 0.19440 0.36036
# Poissons Ratio (z) = 0.20969 0.36559
#
# Static dielectric constant tensor:
#      x y z
#    x 1.592040 0.000000 0.000000 
#    y 0.000000 -2.867840 0.000010 
#    z 0.000000 0.000010 1.808070 
# 
# From -- ./inp_files/57988.got.cif
#   From: 2010.05.17/outbox.cif.g08.bks.cpg/sg71_29_cif.got.tgz:57988.got - 2010.06.03 16:22:01.
