data_PCOD9524295
_publ_section_title
;
Structure prediction by ZEFSAII (Michael W. Deem and Ramdas Pophale) SiO2 
 PCOD9524295
Probable space group: I M M M
;
_chemical_formula_sum "Si O2"
_cell_formula_units_Z 116
_cell_length_a 8.301429
_cell_length_b 28.928661
_cell_length_c 23.971001
_cell_angle_alpha 90.000000
_cell_angle_beta 90.000000
_cell_angle_gamma 90.000000
_cell_volume 5756.617321
_symmetry_space_group_name_H-M "I M M M"
_symmetry_group_IT_number 71
_symmetry_cell_setting 'orthorhombic'
loop_
_space_group_symop_operation_xyz
x,y,z
-x,-y,z
x,-y,-z
-x,y,-z
-x,-y,-z
x,y,-z
-x,y,z
x,-y,z
1/2+x,1/2+y,1/2+z
1/2-x,1/2-y,1/2+z
1/2+x,1/2-y,1/2-z
1/2-x,1/2+y,1/2-z
1/2-x,1/2-y,1/2-z
1/2+x,1/2+y,1/2-z
1/2-x,1/2+y,1/2+z
1/2+x,1/2-y,1/2+z
loop_
_atom_site_type_symbol
_atom_site_label
_atom_site_fract_x
_atom_site_fract_y
_atom_site_fract_z
Si Si1 0.303309 0.050398 0.178935
Si Si2 0.690915 0.148318 0.350443
Si Si3 0.806435 0.950704 0.614512
Si Si4 0.691632 0.912075 0.061437
Si Si5 0.309581 0.722330 0.063478
Si Si6 0.304956 0.851836 0.226277
Si Si7 0.750664 0.500000 0.000000
Si Si8 0.687717 0.681797 0.389516
O O1 0.500000 0.050579 0.178904
O O2 0.248653 0.059567 0.115081
O O3 0.253915 0.095044 0.214247
O O4 0.249207 0.000000 0.198218
O O5 0.500000 0.156094 0.353471
O O6 0.725715 0.094286 0.360662
O O7 0.773624 0.179081 0.397209
O O8 0.746912 0.161671 0.288199
O O9 0.000000 0.945552 0.615396
O O10 0.765016 0.000000 0.643420
O O11 0.757379 0.960603 0.550048
O O12 0.500000 0.920156 0.059202
O O13 0.719497 0.858393 0.076983
O O14 0.758938 0.922505 0.000000
O O15 0.500000 0.731421 0.063736
O O16 0.224414 0.768004 0.086608
O O17 0.257983 0.713129 0.000000
O O18 0.500000 0.850298 0.224033
O O19 0.238927 0.822100 0.175135
O O20 0.500000 0.671305 0.394455
#
# Coordination Sequence:
#
# PCOD9524295 Si02
#       8
#    16  16  16  16  16  16   4  16
#     4   8  14  27  50  78 106 141 186 232 270 311
#     4  11  24  39  58  88 120 148 185 240 293 332
#     4   9  18  35  58  82 112 155 200 233 273 337
#     4   9  17  30  50  77 112 152 189 226 276 339
#     4  11  25  43  63  85 113 150 185 221 276 346
#     4   9  20  39  59  80 112 152 190 227 278 343
#     4   8  17  36  61  82 109 160 209 234 267 340
#     4  11  22  37  60  86 111 142 186 237 281 326
#
# _framework density 20.150721999999998
#
# number of rings (size 3 to 8) (size 9 to 14) (size 15 to 20)
#    0.414    1.931    0.000    3.724    0.966    5.793 
#    0.000    3.103    0.000    6.621    0.000    3.862 
#    0.000    0.000    0.000    0.000    0.000    0.000 
#
# Total GULP energy -323025.607717 kJ/mol
# GULP energy per Si atom -5569.407030 kJ/mol
# Density = 2.010486 g / cm^3
# Si number density = 20.150722 Si / 1000 Ang^3
#
#
#
# Elastic Constant Matrix: (Units=GPa)
#
#
# Indices 1 2 3 4 5 6 
#
# 1 10.6116 -6.8939 10.6132 0.0000 0.0000 0.0000
# 2 -6.8939 43.0722 17.6156 0.0000 0.0000 0.0000
# 3 10.6132 17.6156 113.6341 0.0000 0.0000 0.0001
# 4 0.0000 0.0000 0.0000 16.6593 0.0000 0.0000
# 5 0.0000 0.0000 0.0000 0.0000 13.7166 0.0000
# 6 0.0000 0.0000 0.0001 0.0000 0.0000 -43.1851
#
#
#
# Elastic Compliance Matrix: (Units=1/GPa)
#
#
# Indices 1 2 3 4 5 6 
#
# 1 0.127995 0.027093 -0.016154 0.000000 0.000000 0.000000
# 2 0.027093 0.030523 -0.007262 0.000000 0.000000 0.000000
# 3 -0.016154 -0.007262 0.011435 0.000000 0.000000 0.000000
# 4 0.000000 0.000000 0.000000 0.060026 0.000000 0.000000
# 5 0.000000 0.000000 0.000000 0.000000 0.072904 0.000000
# 6 0.000000 0.000000 0.000000 0.000000 0.000000 -0.023156
#
#
# Mechanical properties :
#
#
# Convention : Reuss Voigt Hill
#
# Bulk Modulus (GPa) = 5.63999 23.33196 14.48598
# Shear Modulus (GPa) = 15.08403 7.17036 11.12719
#
# Velocity S-wave (km/s) = 2.73895 1.88841 2.35244
# Velocity P-wave (km/s) = 3.57875 4.04458 3.81878
#
# Compressibility (1/GPa) = 0.17730530
#
# Stress axis : x y z
#
# Youngs Moduli (GPa) = 7.81283 32.76191 87.45273
#
# Poissons Ratio (x) = -0.88762 1.41275
# Poissons Ratio (y) = -0.21167 0.63509
# Poissons Ratio (z) = 0.12621 0.23792
#
# Static dielectric constant tensor:
#      x y z
#    x 1.720670 0.000000 0.000000 
#    y 0.000000 1.696640 0.000000 
#    z 0.000000 0.000000 1.716410 
# 
# From -- ./inp_files/58285.got.cif
#   From: 2010.05.17/outbox.cif.g08.bks.cpg/sg71_30_cif.got.tgz:58285.got - 2010.06.03 16:22:01.
