data_PCOD9524345
_publ_section_title
;
Structure prediction by ZEFSAII (Michael W. Deem and Ramdas Pophale) SiO2 
 PCOD9524345
Probable space group: I M M M
;
_chemical_formula_sum "Si O2"
_cell_formula_units_Z 68
_cell_length_a 18.067617
_cell_length_b 7.848747
_cell_length_c 21.620533
_cell_angle_alpha 90.000000
_cell_angle_beta 90.000000
_cell_angle_gamma 90.000000
_cell_volume 3065.967889
_symmetry_space_group_name_H-M "I M M M"
_symmetry_group_IT_number 71
_symmetry_cell_setting 'orthorhombic'
loop_
_space_group_symop_operation_xyz
x,y,z
-x,-y,z
x,-y,-z
-x,y,-z
-x,-y,-z
x,y,-z
-x,y,z
x,-y,z
1/2+x,1/2+y,1/2+z
1/2-x,1/2-y,1/2+z
1/2+x,1/2-y,1/2-z
1/2-x,1/2+y,1/2-z
1/2-x,1/2-y,1/2-z
1/2+x,1/2+y,1/2-z
1/2-x,1/2+y,1/2+z
1/2+x,1/2-y,1/2+z
loop_
_atom_site_type_symbol
_atom_site_label
_atom_site_fract_x
_atom_site_fract_y
_atom_site_fract_z
Si Si1 0.653554 0.703616 0.133604
Si Si2 0.880521 0.310514 0.765394
Si Si3 0.414855 0.795650 0.500000
Si Si4 0.000000 0.791826 0.571204
Si Si5 0.808297 0.800370 0.888160
Si Si6 0.000000 0.000000 0.230539
O O1 0.649395 0.500000 0.140345
O O2 0.661965 0.787313 0.200739
O O3 0.575201 0.762026 0.105183
O O4 0.725298 0.747620 0.093221
O O5 0.914291 0.500000 0.765410
O O6 0.829716 0.296981 0.825783
O O7 0.936591 0.151988 0.768608
O O8 0.500000 0.733332 0.500000
O O9 0.369307 0.737305 0.559867
O O10 0.416781 0.000000 0.500000
O O11 0.000000 0.738201 0.500000
O O12 0.000000 0.000000 0.572442
O O13 0.808947 0.000000 0.875566
#
# Coordination Sequence:
#
# PCOD9524345 Si02
#       6
#    16  16   8   8  16   4
#     4  11  22  42  73 105 146 185 242 299 361 431
#     4  12  25  44  72 107 146 191 239 299 362 432
#     4  11  27  49  73 104 137 186 249 299 363 435
#     4   9  21  40  67 102 141 187 234 293 354 425
#     4  12  26  46  70 104 145 190 240 299 366 431
#     4  12  24  44  68 109 151 180 238 284 368 430
#
# _framework density 22.178968000000001
#
# number of rings (size 3 to 8) (size 9 to 14) (size 15 to 20)
#    0.000    0.706    2.353    4.941    4.941    0.941 
#    0.000    1.765    0.000    2.824    0.000    0.000 
#    0.000    0.000    0.000    0.000    0.000    0.000 
#
# Total GULP energy -189693.168473 kJ/mol
# GULP energy per Si atom -5579.210837 kJ/mol
# Density = 2.212849 g / cm^3
# Si number density = 22.178968 Si / 1000 Ang^3
#
#
#
# Elastic Constant Matrix: (Units=GPa)
#
#
# Indices 1 2 3 4 5 6 
#
# 1 189.9352 36.3187 64.2858 0.0000 0.0000 0.0000
# 2 36.3187 160.0159 9.2411 0.0000 0.0000 0.0000
# 3 64.2858 9.2411 123.3877 0.0000 0.0000 0.0000
# 4 0.0000 0.0000 0.0000 -36.5517 0.0000 0.0000
# 5 0.0000 0.0000 0.0000 0.0000 469.4349 0.0000
# 6 0.0000 0.0000 0.0000 0.0000 0.0000 20.5108
#
#
#
# Elastic Compliance Matrix: (Units=1/GPa)
#
#
# Indices 1 2 3 4 5 6 
#
# 1 0.006657 -0.001316 -0.003370 0.000000 0.000000 0.000000
# 2 -0.001316 0.006537 0.000196 0.000000 0.000000 0.000000
# 3 -0.003370 0.000196 0.009846 0.000000 0.000000 0.000000
# 4 0.000000 0.000000 0.000000 -0.027359 0.000000 0.000000
# 5 0.000000 0.000000 0.000000 0.000000 0.002130 0.000000
# 6 0.000000 0.000000 0.000000 0.000000 0.000000 0.048755
#
#
# Mechanical properties :
#
#
# Convention : Reuss Voigt Hill
#
# Bulk Modulus (GPa) = 71.12550 77.00333 74.06442
# Shear Modulus (GPa) = 83.01161 114.91170 98.96166
#
# Velocity S-wave (km/s) = 6.12449 7.20580 6.68704
# Velocity P-wave (km/s) = 9.06372 10.19931 9.64823
#
# Compressibility (1/GPa) = 0.01405966
#
# Stress axis : x y z
#
# Youngs Moduli (GPa) = 150.21241 152.97954 101.56862
#
# Poissons Ratio (x) = 0.20138 0.34227
# Poissons Ratio (y) = 0.19774 -0.01993
# Poissons Ratio (z) = 0.50620 -0.03003
#
# Static dielectric constant tensor:
#      x y z
#    x 1.846200 0.000000 0.000000 
#    y 0.000000 1.786610 0.000000 
#    z 0.000000 0.000000 1.803020 
# 
# From -- ./inp_files/60383.got.cif
#   From: 2010.05.17/outbox.cif.g08.bks.cpg/sg71_31_cif.got.tgz:60383.got - 2010.06.03 16:22:01.
