data_PCOD9524168
_publ_section_title
;
Structure prediction by ZEFSAII (Michael W. Deem and Ramdas Pophale) SiO2 
 PCOD9524168
Probable space group: I M M M
;
_chemical_formula_sum "Si O2"
_cell_formula_units_Z 116
_cell_length_a 29.433713
_cell_length_b 23.608716
_cell_length_c 8.185377
_cell_angle_alpha 90.000000
_cell_angle_beta 90.000000
_cell_angle_gamma 90.000000
_cell_volume 5687.954394
_symmetry_space_group_name_H-M "I M M M"
_symmetry_group_IT_number 71
_symmetry_cell_setting 'orthorhombic'
loop_
_space_group_symop_operation_xyz
x,y,z
-x,-y,z
x,-y,-z
-x,y,-z
-x,-y,-z
x,y,-z
-x,y,z
x,-y,z
1/2+x,1/2+y,1/2+z
1/2-x,1/2-y,1/2+z
1/2+x,1/2-y,1/2-z
1/2-x,1/2+y,1/2-z
1/2-x,1/2-y,1/2-z
1/2+x,1/2+y,1/2-z
1/2-x,1/2+y,1/2+z
1/2+x,1/2-y,1/2+z
loop_
_atom_site_type_symbol
_atom_site_label
_atom_site_fract_x
_atom_site_fract_y
_atom_site_fract_z
Si Si1 0.801799 0.254473 0.805300
Si Si2 0.880396 0.180281 0.694473
Si Si3 0.500000 0.000000 0.287968
Si Si4 0.166570 0.375395 0.191046
Si Si5 0.448643 0.776504 0.198959
Si Si6 0.427576 0.094686 0.806087
Si Si7 0.255590 0.567175 0.311326
Si Si8 0.858930 0.062999 0.803194
O O1 0.750000 0.250000 0.750000
O O2 0.830890 0.200974 0.750437
O O3 0.826876 0.311434 0.741532
O O4 0.802057 0.258159 0.000000
O O5 0.882323 0.181334 0.500000
O O6 0.914912 0.227968 0.759784
O O7 0.888463 0.116359 0.751185
O O8 0.540020 0.049531 0.280223
O O9 0.126495 0.410121 0.278325
O O10 0.215848 0.403044 0.213215
O O11 0.154743 0.372943 0.000000
O O12 0.500000 0.763095 0.245826
O O13 0.437660 0.840822 0.249078
O O14 0.446056 0.777150 0.000000
O O15 0.437839 0.089082 0.000000
O O16 0.254011 0.587847 0.500000
O O17 0.247012 0.500000 0.313552
O O18 0.306873 0.573640 0.246935
O O19 0.872869 0.000000 0.747494
O O20 0.856939 0.061614 0.000000
#
# Coordination Sequence:
#
# PCOD9524168 Si02
#       8
#    16  16   4  16  16  16  16  16
#     4  11  23  37  55  81 117 156 197 243 294 357
#     4  11  21  34  57  88 116 149 192 236 295 357
#     4  12  25  40  69  98 109 144 215 270 305 358
#     4  11  24  38  52  78 115 152 188 235 295 353
#     4   9  18  35  59  84 114 149 188 240 295 348
#     4  11  21  38  61  85 111 143 193 252 299 347
#     4   9  19  36  56  77 103 145 196 236 275 333
#     4   9  19  37  60  85 116 153 192 235 283 339
#
# _framework density 20.393975000000001
#
# number of rings (size 3 to 8) (size 9 to 14) (size 15 to 20)
#    0.000    1.793    2.069    3.517    0.966    4.966 
#    0.000    2.069    0.000    3.724    0.000    2.897 
#    0.000    0.000    0.000    0.000    0.000    0.000 
#
# Total GULP energy -323397.970965 kJ/mol
# GULP energy per Si atom -5575.827086 kJ/mol
# Density = 2.034756 g / cm^3
# Si number density = 20.393975 Si / 1000 Ang^3
#
#
#
# Elastic Constant Matrix: (Units=GPa)
#
#
# Indices 1 2 3 4 5 6 
#
# 1 68.2018 57.5771 7.5713 0.0000 0.0000 0.0000
# 2 57.5771 147.0647 13.7127 0.0000 0.0000 0.0000
# 3 7.5713 13.7127 21.0691 0.0000 0.0000 0.0000
# 4 0.0000 0.0000 0.0000 9.6543 0.0000 0.0000
# 5 0.0000 0.0000 0.0000 0.0000 -1.6832 0.0000
# 6 0.0000 0.0000 0.0000 0.0000 0.0000 33.4350
#
#
#
# Elastic Compliance Matrix: (Units=1/GPa)
#
#
# Indices 1 2 3 4 5 6 
#
# 1 0.022019 -0.008392 -0.002451 0.000000 0.000000 0.000000
# 2 -0.008392 0.010438 -0.003777 0.000000 0.000000 0.000000
# 3 -0.002451 -0.003777 0.050802 0.000000 0.000000 0.000000
# 4 0.000000 0.000000 0.000000 0.103581 0.000000 0.000000
# 5 0.000000 0.000000 0.000000 0.000000 -0.594121 0.000000
# 6 0.000000 0.000000 0.000000 0.000000 0.000000 0.029909
#
#
# Mechanical properties :
#
#
# Convention : Reuss Voigt Hill
#
# Bulk Modulus (GPa) = 18.51228 43.78419 31.14823
# Shear Modulus (GPa) = -15.14574 18.77954 1.81690
#
# Velocity S-wave (km/s) = -2.72813 3.03782 0.94490
# Velocity P-wave (km/s) = 0.90916 5.81552 4.06163
#
# Compressibility (1/GPa) = 0.05401820
#
# Stress axis : x y z
#
# Youngs Moduli (GPa) = 45.41479 95.80777 19.68424
#
# Poissons Ratio (x) = 0.80404 0.04824
# Poissons Ratio (y) = 0.38113 0.07436
# Poissons Ratio (z) = 0.11130 0.36191
#
# Static dielectric constant tensor:
#      x y z
#    x 1.714790 0.000000 0.000000 
#    y 0.000000 1.755830 0.000000 
#    z 0.000000 0.000000 1.750220 
# 
# From -- ./inp_files/15392.got.cif
#   From: 2010.05.17/outbox.cif.g08.bks.cpg/sg71_8_cif.got.tgz:15392.got - 2010.06.03 16:22:01.
