data_PCOD9524673
_publ_section_title
;
Structure prediction by ZEFSAII (Michael W. Deem and Ramdas Pophale) SiO2 
 PCOD9524673
Probable space group: I M M M
;
_chemical_formula_sum "Si O2"
_cell_formula_units_Z 48
_cell_length_a 24.000000
_cell_length_b 9.000000
_cell_length_c 24.000000
_cell_angle_alpha 90.000000
_cell_angle_beta 90.000000
_cell_angle_gamma 90.000000
_cell_volume 5184.000000
_symmetry_space_group_name_H-M "I M M M"
_symmetry_group_IT_number 71
_symmetry_cell_setting 'orthorhombic'
loop_
_space_group_symop_operation_xyz
x,y,z
-x,-y,z
x,-y,-z
-x,y,-z
-x,-y,-z
x,y,-z
-x,y,z
x,-y,z
1/2+x,1/2+y,1/2+z
1/2-x,1/2-y,1/2+z
1/2+x,1/2-y,1/2-z
1/2-x,1/2+y,1/2-z
1/2-x,1/2-y,1/2-z
1/2+x,1/2+y,1/2-z
1/2-x,1/2+y,1/2+z
1/2+x,1/2-y,1/2+z
loop_
_atom_site_type_symbol
_atom_site_label
_atom_site_fract_x
_atom_site_fract_y
_atom_site_fract_z
Si Si1 0.564145 0.323753 0.619869
Si Si2 0.838779 0.674554 0.062132
Si Si3 0.138228 0.180063 0.664891
Si Si4 0.123590 0.678212 0.775849
Si Si5 0.265058 0.179436 0.665575
Si Si6 0.063476 0.180844 0.562839
O O1 0.500000 0.290455 0.607738
O O2 0.570025 0.500000 0.628395
O O3 0.605846 0.268188 0.572352
O O4 0.585088 0.237925 0.674718
O O5 0.851912 0.500000 0.072257
O O6 0.792434 0.718632 0.106519
O O7 0.817779 0.690209 0.000000
O O8 0.107637 0.247921 0.718004
O O9 0.202188 0.233672 0.667917
O O10 0.107730 0.227953 0.608622
O O11 0.137487 0.000000 0.667645
O O12 0.121971 0.500000 0.773815
O O13 0.187429 0.727093 0.790800
O O14 0.262368 0.000000 0.669429
O O15 0.076464 0.229687 0.500000
O O16 0.000000 0.225762 0.576401
O O17 0.063868 0.000000 0.562510
#
# Coordination Sequence:
#
# PCOD9524673 Si02
#       6
#    16  16  16  16  16  16
#     4  10  21  36  53  73  98 129 167 210 251 294
#     4   9  18  33  52  74 102 134 167 206 252 301
#     4  10  18  29  50  76  98 127 168 207 242 286
#     4  10  20  34  50  70 100 132 161 200 251 303
#     4   8  16  30  47  70  99 130 164 201 242 287
#     4   8  15  28  45  68  98 126 153 192 240 283
#
# _framework density 9.2592590000000001
#
# number of rings (size 3 to 8) (size 9 to 14) (size 15 to 20)
#    0.000    2.833    0.000    3.000    0.000    3.333 
#    0.000   10.000    0.000    0.500    0.000    1.167 
#    0.000    0.000    0.000    0.000    0.000    0.000 
#
# Total GULP energy -267398.295169 kJ/mol
# GULP energy per Si atom -5570.797816 kJ/mol
# Density = 0.923818 g / cm^3
# Si number density = 9.259259 Si / 1000 Ang^3
#
#
#
# Elastic Constant Matrix: (Units=GPa)
#
#
# Indices 1 2 3 4 5 6 
#
# 1 10.4630 7.0290 24.1596 0.0000 0.0000 0.0000
# 2 7.0290 14.7038 15.8168 0.0000 0.0000 0.0000
# 3 24.1596 15.8168 100.2406 0.0000 0.0000 0.0000
# 4 0.0000 0.0000 0.0000 20.1805 0.0000 0.0000
# 5 0.0000 0.0000 0.0000 0.0000 -4.8857 0.0000
# 6 0.0000 0.0000 0.0000 0.0000 0.0000 11.3106
#
#
#
# Elastic Compliance Matrix: (Units=1/GPa)
#
#
# Indices 1 2 3 4 5 6 
#
# 1 0.263685 -0.069483 -0.052589 0.000000 0.000000 0.000000
# 2 -0.069483 0.100222 0.000933 0.000000 0.000000 0.000000
# 3 -0.052589 0.000933 0.022504 0.000000 0.000000 0.000000
# 4 0.000000 0.000000 0.000000 0.049553 0.000000 0.000000
# 5 0.000000 0.000000 0.000000 0.000000 -0.204679 0.000000
# 6 0.000000 0.000000 0.000000 0.000000 0.000000 0.088413
#
#
# Mechanical properties :
#
#
# Convention : Reuss Voigt Hill
#
# Bulk Modulus (GPa) = 6.93807 24.37980 15.65893
# Shear Modulus (GPa) = 8.19647 10.54787 9.37217
#
# Velocity S-wave (km/s) = 2.10611 2.38919 2.25210
# Velocity P-wave (km/s) = 3.10950 4.56121 3.90343
#
# Compressibility (1/GPa) = 0.14413237
#
# Stress axis : x y z
#
# Youngs Moduli (GPa) = 3.79241 9.97787 44.43731
#
# Poissons Ratio (x) = 0.69329 2.33691
# Poissons Ratio (y) = 0.26351 -0.04145
# Poissons Ratio (z) = 0.19944 -0.00931
#
# Static dielectric constant tensor:
#      x y z
#    x 1.633760 0.000000 0.000000 
#    y 0.000000 1.611210 0.000000 
#    z 0.000000 0.000000 1.636640 
# 
# From -- ./inp_files/12830.got.cif
#   From: 2010.05.17/outbox.ucp.g08.bks.cvg/sg71_7_cif.got.tgz:12830.got - 2010.06.11 16:29:00.
