data_PCOD9524100
_publ_section_title
;
Structure prediction by ZEFSAII (Michael W. Deem and Ramdas Pophale) SiO2 
 PCOD9524100
Probable space group: I M M M
;
_chemical_formula_sum "Si O2"
_cell_formula_units_Z 72
_cell_length_a 7.935878
_cell_length_b 29.667777
_cell_length_c 16.051256
_cell_angle_alpha 90.000000
_cell_angle_beta 90.000000
_cell_angle_gamma 90.000000
_cell_volume 3779.105446
_symmetry_space_group_name_H-M "I M M M"
_symmetry_group_IT_number 71
_symmetry_cell_setting 'orthorhombic'
loop_
_space_group_symop_operation_xyz
x,y,z
-x,-y,z
x,-y,-z
-x,y,-z
-x,-y,-z
x,y,-z
-x,y,z
x,-y,z
1/2+x,1/2+y,1/2+z
1/2-x,1/2-y,1/2+z
1/2+x,1/2-y,1/2-z
1/2-x,1/2+y,1/2-z
1/2-x,1/2-y,1/2-z
1/2+x,1/2+y,1/2-z
1/2-x,1/2+y,1/2+z
1/2+x,1/2-y,1/2+z
loop_
_atom_site_type_symbol
_atom_site_label
_atom_site_fract_x
_atom_site_fract_y
_atom_site_fract_z
Si Si1 0.705912 0.695423 0.906473
Si Si2 0.202815 0.299385 0.407181
Si Si3 0.306715 0.945038 0.500000
Si Si4 0.702444 0.050892 0.680383
Si Si5 0.300186 0.360015 0.748146
O O1 0.500000 0.694586 0.906047
O O2 0.757382 0.747555 0.892841
O O3 0.769577 0.665345 0.830419
O O4 0.758702 0.681440 0.000000
O O5 0.261396 0.312751 0.500000
O O6 0.255244 0.332548 0.334166
O O7 0.000000 0.298591 0.408535
O O8 0.500000 0.928401 0.500000
O O9 0.228098 0.933477 0.589346
O O10 0.312819 0.000000 0.500000
O O11 0.500000 0.048477 0.671444
O O12 0.742121 0.088440 0.747869
O O13 0.762394 0.000000 0.697801
O O14 0.500000 0.360023 0.755481
#
# Coordination Sequence:
#
# PCOD9524100 Si02
#       5
#    16  16   8  16  16
#     4   8  16  31  49  72 104 138 168 199 241 295
#     4   9  18  35  56  72  93 132 176 212 247 294
#     4   7  12  26  47  67  89 123 165 205 239 271
#     4   9  18  33  51  70  97 134 173 209 243 288
#     4  11  21  30  49  78 106 134 163 206 256 300
#
# _framework density 19.052126999999999
#
# number of rings (size 3 to 8) (size 9 to 14) (size 15 to 20)
#    0.000    3.000    0.000    4.000    1.556    0.889 
#    0.000    1.111    0.000    5.333    0.000    4.667 
#    0.000    0.000    0.000    0.000    0.000    0.000 
#
# Total GULP energy -200721.897102 kJ/mol
# GULP energy per Si atom -5575.608253 kJ/mol
# Density = 1.900876 g / cm^3
# Si number density = 19.052127 Si / 1000 Ang^3
#
#
#
# Elastic Constant Matrix: (Units=GPa)
#
#
# Indices 1 2 3 4 5 6 
#
# 1 20.5505 9.1434 7.8400 0.0000 0.0000 0.0000
# 2 9.1434 108.1333 83.6559 0.0000 0.0000 0.0000
# 3 7.8400 83.6559 109.4819 0.0001 0.0000 0.0000
# 4 0.0000 0.0000 0.0001 27.0394 0.0000 0.0000
# 5 0.0000 0.0000 0.0000 0.0000 11.7151 0.0000
# 6 0.0000 0.0000 0.0000 0.0000 0.0000 10.1789
#
#
#
# Elastic Compliance Matrix: (Units=1/GPa)
#
#
# Indices 1 2 3 4 5 6 
#
# 1 0.050596 -0.003608 -0.000866 0.000000 0.000000 0.000000
# 2 -0.003608 0.022876 -0.017221 0.000000 0.000000 0.000000
# 3 -0.000866 -0.017221 0.022355 0.000000 0.000000 0.000000
# 4 0.000000 0.000000 0.000000 0.036983 0.000000 0.000000
# 5 0.000000 0.000000 0.000000 0.000000 0.085360 0.000000
# 6 0.000000 0.000000 0.000000 0.000000 0.000000 0.098243
#
#
# Mechanical properties :
#
#
# Convention : Reuss Voigt Hill
#
# Bulk Modulus (GPa) = 19.07089 48.82715 33.94902
# Shear Modulus (GPa) = 13.25265 18.95511 16.10388
#
# Velocity S-wave (km/s) = 2.64028 3.15764 2.91048
# Velocity P-wave (km/s) = 4.39618 6.24324 5.39928
#
# Compressibility (1/GPa) = 0.05243592
#
# Stress axis : x y z
#
# Youngs Moduli (GPa) = 19.76426 43.71395 44.73292
#
# Poissons Ratio (x) = 0.15773 0.03875
# Poissons Ratio (y) = 0.07131 0.77036
# Poissons Ratio (z) = 0.01712 0.75281
#
# Static dielectric constant tensor:
#      x y z
#    x 1.686570 0.000000 0.000000 
#    y 0.000000 1.673990 0.000000 
#    z 0.000000 0.000000 1.683120 
# 
# From -- ./inp_files/6020.got.cif
#   From: 2010.05.17/outbox.cif.g08.bks.cpg/sg71_4_cif.got.tgz:6020.got - 2010.06.03 16:22:01.
