data_PCOD9524982
_publ_section_title
;
Structure prediction by ZEFSAII (Michael W. Deem and Ramdas Pophale) SiO2 
 PCOD9524982
Probable space group: I B A M
;
_chemical_formula_sum "Si O2"
_cell_formula_units_Z 88
_cell_length_a 25.208191
_cell_length_b 5.444815
_cell_length_c 28.481822
_cell_angle_alpha 90.000000
_cell_angle_beta 90.000000
_cell_angle_gamma 90.000000
_cell_volume 3909.242188
_symmetry_space_group_name_H-M "I B A M"
_symmetry_group_IT_number 72
_symmetry_cell_setting 'orthorhombic'
loop_
_space_group_symop_operation_xyz
x,y,z
-x,-y,z
x,-y,1/2-z
-x,y,1/2-z
-x,-y,-z
x,y,-z
-x,y,1/2+z
x,-y,1/2+z
1/2+x,1/2+y,1/2+z
1/2-x,1/2-y,1/2+z
1/2+x,1/2-y,-z
1/2-x,1/2+y,-z
1/2-x,1/2-y,1/2-z
1/2+x,1/2+y,1/2-z
1/2-x,1/2+y,z
1/2+x,1/2-y,z
loop_
_atom_site_type_symbol
_atom_site_label
_atom_site_fract_x
_atom_site_fract_y
_atom_site_fract_z
Si Si1 0.554115 0.618349 0.370823
Si Si2 0.770460 0.236620 0.303874
Si Si3 0.108429 0.245934 0.779056
Si Si4 0.000000 0.500000 0.562954
Si Si5 0.778679 0.446269 0.056637
Si Si6 0.607530 0.714066 0.052676
O O1 0.500000 0.500000 0.351427
O O2 0.577038 0.763712 0.327196
O O3 0.530994 0.795524 0.409306
O O4 0.595027 0.449923 0.400772
O O5 0.750000 0.250000 0.250000
O O6 0.756711 0.498737 0.325999
O O7 0.832165 0.200248 0.297144
O O8 0.106010 0.500000 0.750000
O O9 0.092747 0.000000 0.750000
O O10 0.948404 0.647298 0.544865
O O11 0.757060 0.712609 0.072940
O O12 0.841017 0.381735 0.064485
O O13 0.773289 0.455316 0.000000
O O14 0.619145 0.597321 0.000000
#
# Coordination Sequence:
#
# PCOD9524982 Si02
#       6
#    16  16  16   8  16  16
#     4  10  26  46  62  97 137 171 228 301 340 411
#     4  10  16  34  59  94 127 164 209 274 323 393
#     4  12  24  41  71  95 129 181 222 266 344 408
#     4  10  23  44  67  96 140 174 236 301 349 404
#     4   9  19  36  62  96 136 178 224 280 342 415
#     4  10  22  42  72 100 135 186 236 289 360 421
#
# _framework density 22.510757000000002
#
# number of rings (size 3 to 8) (size 9 to 14) (size 15 to 20)
#    0.000    1.818    3.636    0.273    7.636    4.364 
#    0.000    1.818    0.000    0.000    0.000    0.000 
#    0.000    0.000    0.000    0.000    0.000    0.000 
#
# Total GULP energy -245025.841057 kJ/mol
# GULP energy per Si atom -5568.769115 kJ/mol
# Density = 2.245952 g / cm^3
# Si number density = 22.510757 Si / 1000 Ang^3
#
#
#
# Elastic Constant Matrix: (Units=GPa)
#
#
# Indices 1 2 3 4 5 6 
#
# 1 -46.4557 46.9538 111.6897 0.0000 0.0000 0.0000
# 2 46.9538 69.8144 -51.5334 0.0000 0.0000 0.0000
# 3 111.6897 -51.5334 -60.3609 0.0000 0.0000 0.0000
# 4 0.0000 0.0000 0.0000 74.6708 0.0000 0.0000
# 5 0.0000 0.0000 0.0000 0.0000 43.2664 0.0000
# 6 0.0000 0.0000 0.0000 0.0000 0.0000 38.5496
#
#
#
# Elastic Compliance Matrix: (Units=1/GPa)
#
#
# Indices 1 2 3 4 5 6 
#
# 1 0.007162 0.003046 0.010652 0.000000 0.000000 0.000000
# 2 0.003046 0.010082 -0.002971 0.000000 0.000000 0.000000
# 3 0.010652 -0.002971 0.005680 0.000000 0.000000 0.000000
# 4 0.000000 0.000000 0.000000 0.013392 0.000000 0.000000
# 5 0.000000 0.000000 0.000000 0.000000 0.023113 0.000000
# 6 0.000000 0.000000 0.000000 0.000000 0.000000 0.025941
#
#
# Mechanical properties :
#
#
# Convention : Reuss Voigt Hill
#
# Bulk Modulus (GPa) = 22.53479 19.69090 21.11284
# Shear Modulus (GPa) = 63.52570 21.68988 42.60779
#
# Velocity S-wave (km/s) = 5.31803 3.10745 4.35532
# Velocity P-wave (km/s) = 6.90948 4.65202 5.88992
#
# Compressibility (1/GPa) = 0.04437584
#
# Stress axis : x y z
#
# Youngs Moduli (GPa) = 139.62663 99.18855 176.06665
#
# Poissons Ratio (x) = -0.30211 -1.87543
# Poissons Ratio (y) = -0.42528 0.52318
# Poissons Ratio (z) = -1.48728 0.29474
#
# Static dielectric constant tensor:
#      x y z
#    x 1.770410 0.000000 0.000000 
#    y 0.000000 0.415950 0.000000 
#    z 0.000000 0.000000 1.766150 
# 
# From -- ./inp_files/52371.got.cif
#   From: 2010.05.17/outbox.cif.g08.bks.cpg/sg72_27_cif.got.tgz:52371.got - 2010.06.03 17:03:01.
