data_PCOD9524068
_publ_section_title
;
Structure prediction by ZEFSAII (Michael W. Deem and Ramdas Pophale) SiO2 
 PCOD9524068
Probable space group: I M M M
;
_chemical_formula_sum "Si O2"
_cell_formula_units_Z 100
_cell_length_a 19.487340
_cell_length_b 18.860338
_cell_length_c 15.195866
_cell_angle_alpha 90.000000
_cell_angle_beta 90.000000
_cell_angle_gamma 90.000000
_cell_volume 5585.055449
_symmetry_space_group_name_H-M "I M M M"
_symmetry_group_IT_number 71
_symmetry_cell_setting 'orthorhombic'
loop_
_space_group_symop_operation_xyz
x,y,z
-x,-y,z
x,-y,-z
-x,y,-z
-x,-y,-z
x,y,-z
-x,y,z
x,-y,z
1/2+x,1/2+y,1/2+z
1/2-x,1/2-y,1/2+z
1/2+x,1/2-y,1/2-z
1/2-x,1/2+y,1/2-z
1/2-x,1/2-y,1/2-z
1/2+x,1/2+y,1/2-z
1/2-x,1/2+y,1/2+z
1/2+x,1/2-y,1/2+z
loop_
_atom_site_type_symbol
_atom_site_label
_atom_site_fract_x
_atom_site_fract_y
_atom_site_fract_z
Si Si1 0.078791 0.867492 0.321517
Si Si2 0.201168 0.918370 0.794301
Si Si3 0.313813 0.915384 0.500000
Si Si4 0.107361 0.705559 0.654968
Si Si5 0.652194 0.585282 0.000000
Si Si6 0.000000 0.672970 0.500000
Si Si7 0.264813 0.283658 0.600762
Si Si8 0.325398 0.854313 0.315397
O O1 0.128053 0.903868 0.250756
O O2 0.081242 0.782356 0.313308
O O3 0.112824 0.885798 0.415250
O O4 0.000000 0.891252 0.318279
O O5 0.210946 0.861676 0.871478
O O6 0.260975 0.898393 0.723765
O O7 0.208165 0.000000 0.819849
O O8 0.232543 0.893702 0.500000
O O9 0.345496 0.886900 0.409182
O O10 0.315940 0.000000 0.500000
O O11 0.183473 0.718311 0.616300
O O12 0.118502 0.653945 0.738651
O O13 0.059308 0.677110 0.577987
O O14 0.649790 0.500000 0.000000
O O15 0.281580 0.268093 0.500000
O O16 0.298636 0.224949 0.663381
#
# Coordination Sequence:
#
# PCOD9524068 Si02
#       8
#    16  16   8  16   8   4  16  16
#     4  12  22  33  50  78 122 164 207 235 290 358
#     4  11  22  36  53  81 121 162 207 258 300 356
#     4  11  20  34  63  96 124 152 190 253 315 371
#     4  11  21  35  56  89 119 160 197 250 298 361
#     4  11  22  33  45  76 125 168 196 228 287 349
#     4  12  22  36  62  94 130 146 204 248 300 366
#     4  11  20  36  60  84 113 159 210 261 307 353
#     4  11  20  36  59  86 120 160 206 252 313 357
#
# _framework density 17.904926
#
# number of rings (size 3 to 8) (size 9 to 14) (size 15 to 20)
#    0.000    0.800    7.200    2.640    0.000    1.920 
#    0.000    0.000    0.000    0.960    0.000   29.680 
#    0.000    0.000    0.000    0.000    0.000    0.000 
#
# Total GULP energy -278755.441769 kJ/mol
# GULP energy per Si atom -5575.108835 kJ/mol
# Density = 1.786417 g / cm^3
# Si number density = 17.904926 Si / 1000 Ang^3
#
#
#
# Elastic Constant Matrix: (Units=GPa)
#
#
# Indices 1 2 3 4 5 6 
#
# 1 69.9330 29.3805 42.4102 0.0000 0.0000 0.0000
# 2 29.3805 92.3008 25.1102 0.0000 0.0000 0.0000
# 3 42.4102 25.1102 98.2713 0.0000 0.0000 0.0000
# 4 0.0000 0.0000 0.0000 -6.2242 0.0000 0.0000
# 5 0.0000 0.0000 0.0000 0.0000 30.8941 0.0000
# 6 0.0000 0.0000 0.0000 0.0000 0.0000 1.7989
#
#
#
# Elastic Compliance Matrix: (Units=1/GPa)
#
#
# Indices 1 2 3 4 5 6 
#
# 1 0.020997 -0.004534 -0.007903 0.000000 0.000000 0.000000
# 2 -0.004534 0.012622 -0.001269 0.000000 0.000000 0.000000
# 3 -0.007903 -0.001269 0.013911 0.000000 0.000000 0.000000
# 4 0.000000 0.000000 0.000000 -0.160663 0.000000 0.000000
# 5 0.000000 0.000000 0.000000 0.000000 0.032369 0.000000
# 6 0.000000 0.000000 0.000000 0.000000 0.000000 0.555892
#
#
# Mechanical properties :
#
#
# Convention : Reuss Voigt Hill
#
# Bulk Modulus (GPa) = 49.70356 50.47854 50.09105
# Shear Modulus (GPa) = 9.81845 16.20069 13.00957
#
# Velocity S-wave (km/s) = 2.34426 3.01128 2.69846
# Velocity P-wave (km/s) = 5.92852 6.35171 6.14376
#
# Compressibility (1/GPa) = 0.02011928
#
# Stress axis : x y z
#
# Youngs Moduli (GPa) = 47.62645 79.22428 71.88690
#
# Poissons Ratio (x) = 0.35917 0.56812
# Poissons Ratio (y) = 0.21592 0.09121
# Poissons Ratio (z) = 0.37639 0.10052
#
# Static dielectric constant tensor:
#      x y z
#    x 1.596460 0.000000 0.000000 
#    y 0.000000 1.624200 0.000000 
#    z 0.000000 0.000000 1.666620 
# 
# From -- ./inp_files/36726.got.cif
#   From: 2010.05.17/outbox.cif.g08.bks.cpg/sg71_19_cif.got.tgz:36726.got - 2010.06.03 16:22:01.
