data_PCOD9524191
_publ_section_title
;
Structure prediction by ZEFSAII (Michael W. Deem and Ramdas Pophale) SiO2 
 PCOD9524191
Probable space group: I M M M
;
_chemical_formula_sum "Si O2"
_cell_formula_units_Z 68
_cell_length_a 17.958093
_cell_length_b 22.610284
_cell_length_c 7.734000
_cell_angle_alpha 90.000000
_cell_angle_beta 90.000000
_cell_angle_gamma 90.000000
_cell_volume 3140.294666
_symmetry_space_group_name_H-M "I M M M"
_symmetry_group_IT_number 71
_symmetry_cell_setting 'orthorhombic'
loop_
_space_group_symop_operation_xyz
x,y,z
-x,-y,z
x,-y,-z
-x,y,-z
-x,-y,-z
x,y,-z
-x,y,z
x,-y,z
1/2+x,1/2+y,1/2+z
1/2-x,1/2-y,1/2+z
1/2+x,1/2-y,1/2-z
1/2-x,1/2+y,1/2-z
1/2-x,1/2-y,1/2-z
1/2+x,1/2+y,1/2-z
1/2-x,1/2+y,1/2+z
1/2+x,1/2-y,1/2+z
loop_
_atom_site_type_symbol
_atom_site_label
_atom_site_fract_x
_atom_site_fract_y
_atom_site_fract_z
Si Si1 0.417359 0.156676 0.701384
Si Si2 0.796087 0.435754 0.697744
Si Si3 0.834137 0.771511 0.293829
Si Si4 0.364144 0.593044 0.198680
Si Si5 0.597249 0.500000 0.500000
O O1 0.418421 0.140519 0.500000
O O2 0.500000 0.149034 0.774099
O O3 0.355732 0.115317 0.785815
O O4 0.390380 0.223759 0.717535
O O5 0.768248 0.436954 0.500000
O O6 0.829951 0.500000 0.736126
O O7 0.722610 0.426614 0.808097
O O8 0.839412 0.769318 0.500000
O O9 0.750000 0.750000 0.250000
O O10 0.856350 0.838190 0.244149
O O11 0.400998 0.551702 0.344449
O O12 0.394038 0.589146 0.000000
#
# Coordination Sequence:
#
# PCOD9524191 Si02
#       5
#    16  16  16  16   4
#     4  11  25  41  58  84 121 164 210 260 311 365
#     4  11  21  36  57  83 118 162 210 253 304 363
#     4  11  23  37  61  89 119 157 205 260 312 362
#     4  11  22  36  57  92 125 160 201 255 308 364
#     4  12  22  36  60  90 130 160 200 246 318 374
#
# _framework density 21.654018000000001
#
# number of rings (size 3 to 8) (size 9 to 14) (size 15 to 20)
#    0.000    0.941    4.706    2.471    3.294    3.765 
#    0.000    2.353    0.000    0.000    0.000    1.647 
#    0.000    3.765    0.000    0.000    0.000    0.000 
#
# Total GULP energy -189405.514014 kJ/mol
# GULP energy per Si atom -5570.750412 kJ/mol
# Density = 2.160473 g / cm^3
# Si number density = 21.654018 Si / 1000 Ang^3
#
#
#
# Elastic Constant Matrix: (Units=GPa)
#
#
# Indices 1 2 3 4 5 6 
#
# 1 32.0755 -6.3055 -3.4323 0.0000 0.0000 0.0000
# 2 -6.3055 142.4146 29.1311 0.0000 0.0000 0.0000
# 3 -3.4323 29.1311 98.5570 0.0000 0.0000 0.0000
# 4 0.0000 0.0000 0.0000 36.9397 0.0000 0.0000
# 5 0.0000 0.0000 0.0000 0.0000 -8.4086 0.0000
# 6 0.0000 0.0000 0.0000 0.0000 0.0000 -83.8840
#
#
#
# Elastic Compliance Matrix: (Units=1/GPa)
#
#
# Indices 1 2 3 4 5 6 
#
# 1 0.031499 0.001246 0.000729 0.000000 0.000000 0.000000
# 2 0.001246 0.007523 -0.002180 0.000000 0.000000 0.000000
# 3 0.000729 -0.002180 0.010816 0.000000 0.000000 0.000000
# 4 0.000000 0.000000 0.000000 0.027071 0.000000 0.000000
# 5 0.000000 0.000000 0.000000 0.000000 -0.118926 0.000000
# 6 0.000000 0.000000 0.000000 0.000000 0.000000 -0.011921
#
#
# Mechanical properties :
#
#
# Convention : Reuss Voigt Hill
#
# Bulk Modulus (GPa) = 20.23197 34.64820 27.44009
# Shear Modulus (GPa) = -134.95051 5.83968 -64.55542
#
# Velocity S-wave (km/s) = -7.90294 1.64398 -5.46598
# Velocity P-wave (km/s) = 8.59720 4.43160 5.20926
#
# Compressibility (1/GPa) = 0.04942672
#
# Stress axis : x y z
#
# Youngs Moduli (GPa) = 31.74676 132.92819 92.45388
#
# Poissons Ratio (x) = -0.16557 -0.06738
# Poissons Ratio (y) = -0.03954 0.20157
# Poissons Ratio (z) = -0.02314 0.28981
#
# Static dielectric constant tensor:
#      x y z
#    x 1.793130 0.000000 0.000000 
#    y 0.000000 1.648130 0.000000 
#    z 0.000000 0.000000 1.779110 
# 
# From -- ./inp_files/7627.got.cif
#   From: 2010.05.17/outbox.cif.g08.bks.cpg/sg71_4_cif.got.tgz:7627.got - 2010.06.03 16:22:01.
