data_PCOD9524306
_publ_section_title
;
Structure prediction by ZEFSAII (Michael W. Deem and Ramdas Pophale) SiO2 
 PCOD9524306
Probable space group: I M M M
;
_chemical_formula_sum "Si O2"
_cell_formula_units_Z 88
_cell_length_a 14.524540
_cell_length_b 15.801150
_cell_length_c 18.349473
_cell_angle_alpha 90.000000
_cell_angle_beta 90.000000
_cell_angle_gamma 90.000000
_cell_volume 4211.285437
_symmetry_space_group_name_H-M "I M M M"
_symmetry_group_IT_number 71
_symmetry_cell_setting 'orthorhombic'
loop_
_space_group_symop_operation_xyz
x,y,z
-x,-y,z
x,-y,-z
-x,y,-z
-x,-y,-z
x,y,-z
-x,y,z
x,-y,z
1/2+x,1/2+y,1/2+z
1/2-x,1/2-y,1/2+z
1/2+x,1/2-y,1/2-z
1/2-x,1/2+y,1/2-z
1/2-x,1/2-y,1/2-z
1/2+x,1/2+y,1/2-z
1/2-x,1/2+y,1/2+z
1/2+x,1/2-y,1/2+z
loop_
_atom_site_type_symbol
_atom_site_label
_atom_site_fract_x
_atom_site_fract_y
_atom_site_fract_z
Si Si1 0.109467 0.294732 0.360935
Si Si2 0.765257 0.681318 0.915073
Si Si3 0.400140 0.595382 0.266330
Si Si4 0.611607 0.906164 0.000000
Si Si5 0.195841 0.398871 0.230175
Si Si6 0.896122 0.156666 0.078235
O O1 0.165371 0.211043 0.384993
O O2 0.137335 0.358943 0.426087
O O3 0.136248 0.339639 0.284286
O O4 0.000000 0.282615 0.363992
O O5 0.812148 0.618947 0.856247
O O6 0.826431 0.766401 0.912371
O O7 0.760391 0.653743 0.000000
O O8 0.500000 0.635694 0.247651
O O9 0.402206 0.500000 0.237302
O O10 0.300986 0.629830 0.245994
O O11 0.394305 0.595546 0.353642
O O12 0.500000 0.909560 0.000000
O O13 0.649363 0.000000 0.000000
O O14 0.184117 0.500000 0.245587
O O15 0.000000 0.192538 0.077548
O O16 0.879023 0.115528 0.000000
#
# Coordination Sequence:
#
# PCOD9524306 Si02
#       6
#    16  16  16   8  16  16
#     4  11  22  38  61  93 128 164 207 254 310 378
#     4  11  23  41  62  88 119 157 210 261 311 369
#     4   9  18  33  54  81 114 150 188 236 294 353
#     4   9  18  34  56  84 122 164 200 239 294 362
#     4  11  24  41  60  88 121 159 209 258 311 370
#     4   9  18  33  54  81 113 149 190 238 292 350
#
# _framework density 20.896232999999999
#
# number of rings (size 3 to 8) (size 9 to 14) (size 15 to 20)
#    0.000    1.909    2.727    1.091    0.000    3.273 
#    0.000    1.818    0.000    0.000    0.000    7.636 
#    0.000    0.000    0.000    0.000    0.000    0.000 
#
# Total GULP energy -245128.489159 kJ/mol
# GULP energy per Si atom -5571.102026 kJ/mol
# Density = 2.084867 g / cm^3
# Si number density = 20.896233 Si / 1000 Ang^3
#
#
#
# Elastic Constant Matrix: (Units=GPa)
#
#
# Indices 1 2 3 4 5 6 
#
# 1 80.2573 -4.1253 10.7978 0.0000 0.0000 0.0000
# 2 -4.1253 21.1356 21.3030 0.0000 0.0000 0.0000
# 3 10.7978 21.3030 128.2189 0.0000 0.0000 0.0000
# 4 0.0000 0.0000 0.0000 24.5813 0.0000 0.0000
# 5 0.0000 0.0000 0.0000 0.0000 0.9044 0.0000
# 6 0.0000 0.0000 0.0000 0.0000 0.0000 3.0501
#
#
#
# Elastic Compliance Matrix: (Units=1/GPa)
#
#
# Indices 1 2 3 4 5 6 
#
# 1 0.012927 0.004349 -0.001811 0.000000 0.000000 0.000000
# 2 0.004349 0.058293 -0.010051 0.000000 0.000000 0.000000
# 3 -0.001811 -0.010051 0.009622 0.000000 0.000000 0.000000
# 4 0.000000 0.000000 0.000000 0.040681 0.000000 0.000000
# 5 0.000000 0.000000 0.000000 0.000000 1.105753 0.000000
# 6 0.000000 0.000000 0.000000 0.000000 0.000000 0.327859
#
#
# Mechanical properties :
#
#
# Convention : Reuss Voigt Hill
#
# Bulk Modulus (GPa) = 15.19425 31.72920 23.46173
# Shear Modulus (GPa) = 3.14050 19.14958 11.14504
#
# Velocity S-wave (km/s) = 1.22726 3.03052 2.31195
# Velocity P-wave (km/s) = 3.04882 5.24047 4.28706
#
# Compressibility (1/GPa) = 0.06581438
#
# Stress axis : x y z
#
# Youngs Moduli (GPa) = 77.35667 17.15462 103.93198
#
# Poissons Ratio (x) = -0.07460 0.18824
# Poissons Ratio (y) = -0.33640 1.04466
# Poissons Ratio (z) = 0.14011 0.17243
#
# Static dielectric constant tensor:
#      x y z
#    x 1.787720 0.000000 0.000000 
#    y 0.000000 1.764500 0.000000 
#    z 0.000000 0.000000 1.803740 
# 
# From -- ./inp_files/44723.got.cif
#   From: 2010.05.17/outbox.cif.g08.bks.cpg/sg71_23_cif.got.tgz:44723.got - 2010.06.03 16:22:01.
