data_PCOD9524356
_publ_section_title
;
Structure prediction by ZEFSAII (Michael W. Deem and Ramdas Pophale) SiO2 
 PCOD9524356
Probable space group: I M M M
;
_chemical_formula_sum "Si O2"
_cell_formula_units_Z 80
_cell_length_a 24.158498
_cell_length_b 7.591260
_cell_length_c 25.416361
_cell_angle_alpha 90.000000
_cell_angle_beta 90.000000
_cell_angle_gamma 90.000000
_cell_volume 4661.193864
_symmetry_space_group_name_H-M "I M M M"
_symmetry_group_IT_number 71
_symmetry_cell_setting 'orthorhombic'
loop_
_space_group_symop_operation_xyz
x,y,z
-x,-y,z
x,-y,-z
-x,y,-z
-x,-y,-z
x,y,-z
-x,y,z
x,-y,z
1/2+x,1/2+y,1/2+z
1/2-x,1/2-y,1/2+z
1/2+x,1/2-y,1/2-z
1/2-x,1/2+y,1/2-z
1/2-x,1/2-y,1/2-z
1/2+x,1/2+y,1/2-z
1/2-x,1/2+y,1/2+z
1/2+x,1/2-y,1/2+z
loop_
_atom_site_type_symbol
_atom_site_label
_atom_site_fract_x
_atom_site_fract_y
_atom_site_fract_z
Si Si1 0.252959 0.000000 0.563579
Si Si2 0.433059 0.792218 0.870106
Si Si3 0.659441 0.290892 0.437370
Si Si4 0.562960 0.709074 0.639058
Si Si5 0.936726 0.288228 0.745620
Si Si6 0.874490 0.000000 0.563174
O O1 0.288195 0.172469 0.578671
O O2 0.189600 0.000000 0.580988
O O3 0.250979 0.000000 0.500000
O O4 0.500000 0.773383 0.871371
O O5 0.413818 0.734713 0.811215
O O6 0.404963 0.670244 0.913083
O O7 0.421090 0.000000 0.877295
O O8 0.650407 0.268488 0.500000
O O9 0.668363 0.500000 0.427901
O O10 0.605816 0.228675 0.404830
O O11 0.500000 0.782641 0.636194
O O12 0.558339 0.500000 0.631506
O O13 0.586972 0.738492 0.697775
O O14 0.938722 0.500000 0.743719
O O15 0.000000 0.220650 0.747500
O O16 0.877087 0.000000 0.500000
#
# Coordination Sequence:
#
# PCOD9524356 Si02
#       6
#     8  16  16  16  16   8
#     4   9  20  37  53  71  95 130 181 220 247 294
#     4   9  19  35  54  79 109 137 162 195 247 309
#     4   9  18  33  51  71  99 137 173 211 260 302
#     4   9  17  27  45  77 105 130 168 210 254 304
#     4   8  15  28  46  71 101 133 167 197 236 295
#     4  11  23  36  55  81 102 129 170 213 253 295
#
# _framework density 17.162984999999999
#
# number of rings (size 3 to 8) (size 9 to 14) (size 15 to 20)
#    0.000    3.000    0.000    1.500    2.800    2.400 
#    0.000    5.000    0.000    3.000    0.000    0.000 
#    0.000    0.000    0.000    0.000    0.000    0.000 
#
# Total GULP energy -222669.925222 kJ/mol
# GULP energy per Si atom -5566.748131 kJ/mol
# Density = 1.712392 g / cm^3
# Si number density = 17.162985 Si / 1000 Ang^3
#
#
#
# Elastic Constant Matrix: (Units=GPa)
#
#
# Indices 1 2 3 4 5 6 
#
# 1 76.5080 44.6525 50.7541 0.0000 0.0000 0.0000
# 2 44.6525 73.3709 40.6809 0.0000 0.0000 0.0000
# 3 50.7541 40.6809 93.4788 0.0000 0.0000 0.0000
# 4 0.0000 0.0000 0.0000 16.7936 0.0000 0.0000
# 5 0.0000 0.0000 0.0000 0.0000 -4.3388 0.0000
# 6 0.0000 0.0000 0.0000 0.0000 0.0000 11.6126
#
#
#
# Elastic Compliance Matrix: (Units=1/GPa)
#
#
# Indices 1 2 3 4 5 6 
#
# 1 0.025123 -0.010184 -0.009209 0.000000 0.000000 0.000000
# 2 -0.010184 0.022092 -0.004085 0.000000 0.000000 0.000000
# 3 -0.009209 -0.004085 0.017475 0.000000 0.000000 0.000000
# 4 0.000000 0.000000 0.000000 0.059547 0.000000 0.000000
# 5 0.000000 0.000000 0.000000 0.000000 -0.230478 0.000000
# 6 0.000000 0.000000 0.000000 0.000000 0.000000 0.086113
#
#
# Mechanical properties :
#
#
# Convention : Reuss Voigt Hill
#
# Bulk Modulus (GPa) = 56.38408 57.28140 56.83274
# Shear Modulus (GPa) = 152.72766 11.96482 82.34624
#
# Velocity S-wave (km/s) = 9.44351 2.64319 6.93420
# Velocity P-wave (km/s) = 12.32193 6.53932 9.86389
#
# Compressibility (1/GPa) = 0.01773550
#
# Stress axis : x y z
#
# Youngs Moduli (GPa) = 39.80445 45.26542 57.22425
#
# Poissons Ratio (x) = 0.46097 0.52695
# Poissons Ratio (y) = 0.40535 0.23376
# Poissons Ratio (z) = 0.36654 0.18491
#
# Static dielectric constant tensor:
#      x y z
#    x 1.569050 0.000000 0.000000 
#    y 0.000000 1.607480 0.000000 
#    z 0.000000 0.000000 1.599730 
# 
# From -- ./inp_files/12403.got.cif
#   From: 2010.05.17/outbox.cif.g08.bks.cpg/sg71_7_cif.got.tgz:12403.got - 2010.06.03 16:22:01.
