data_PCOD9524101
_publ_section_title
;
Structure prediction by ZEFSAII (Michael W. Deem and Ramdas Pophale) SiO2 
 PCOD9524101
Probable space group: I M M M
;
_chemical_formula_sum "Si O2"
_cell_formula_units_Z 72
_cell_length_a 9.038601
_cell_length_b 22.820328
_cell_length_c 23.854613
_cell_angle_alpha 90.000000
_cell_angle_beta 90.000000
_cell_angle_gamma 90.000000
_cell_volume 4920.344067
_symmetry_space_group_name_H-M "I M M M"
_symmetry_group_IT_number 71
_symmetry_cell_setting 'orthorhombic'
loop_
_space_group_symop_operation_xyz
x,y,z
-x,-y,z
x,-y,-z
-x,y,-z
-x,-y,-z
x,y,-z
-x,y,z
x,-y,z
1/2+x,1/2+y,1/2+z
1/2-x,1/2-y,1/2+z
1/2+x,1/2-y,1/2-z
1/2-x,1/2+y,1/2-z
1/2-x,1/2-y,1/2-z
1/2+x,1/2+y,1/2-z
1/2-x,1/2+y,1/2+z
1/2+x,1/2-y,1/2+z
loop_
_atom_site_type_symbol
_atom_site_label
_atom_site_fract_x
_atom_site_fract_y
_atom_site_fract_z
Si Si1 0.830307 0.706252 0.172772
Si Si2 0.821996 0.769054 0.935298
Si Si3 0.823387 0.384195 0.382659
Si Si4 0.824795 0.000000 0.932848
Si Si5 0.169094 0.161567 0.224013
O O1 0.781250 0.718202 0.109004
O O2 0.829726 0.771894 0.199462
O O3 0.731205 0.666883 0.213222
O O4 0.000000 0.685520 0.173651
O O5 0.739752 0.828330 0.916883
O O6 0.000000 0.778496 0.928877
O O7 0.792122 0.755400 0.000000
O O8 0.751432 0.442464 0.407696
O O9 0.769985 0.374786 0.318630
O O10 0.000000 0.385779 0.386025
O O11 0.000000 0.000000 0.920325
O O12 0.807518 0.000000 0.000000
O O13 0.000000 0.140931 0.222467
#
# Coordination Sequence:
#
# PCOD9524101 Si02
#       5
#    16  16  16   8  16
#     4   8  14  24  39  59  80 102 131 166 200 237
#     4   9  17  29  43  59  82 112 141 167 201 246
#     4  11  21  31  44  61  80 103 136 177 213 243
#     4  11  23  37  49  59  77 107 140 173 210 249
#     4   9  16  27  42  58  77 102 132 165 204 247
#
# _framework density 14.633122999999999
#
# number of rings (size 3 to 8) (size 9 to 14) (size 15 to 20)
#    0.000    2.556    0.000    5.000    0.000    9.333 
#    0.000    0.000    0.000    0.000    0.000    0.000 
#    0.000    0.000    0.000    1.000    0.000   20.667 
#
# Total GULP energy -200586.840856 kJ/mol
# GULP energy per Si atom -5571.856690 kJ/mol
# Density = 1.459982 g / cm^3
# Si number density = 14.633123 Si / 1000 Ang^3
#
#
#
# Elastic Constant Matrix: (Units=GPa)
#
#
# Indices 1 2 3 4 5 6 
#
# 1 86.3229 27.0820 57.5239 0.0000 0.0000 0.0000
# 2 27.0820 23.6352 33.1521 0.0000 0.0000 0.0000
# 3 57.5239 33.1521 134.7605 0.0000 0.0000 0.0000
# 4 0.0000 0.0000 0.0000 18.1435 0.0000 0.0000
# 5 0.0000 0.0000 0.0000 0.0000 23.2629 0.0000
# 6 0.0000 0.0000 0.0000 0.0000 0.0000 2.9336
#
#
#
# Elastic Compliance Matrix: (Units=1/GPa)
#
#
# Indices 1 2 3 4 5 6 
#
# 1 0.019621 -0.016390 -0.004343 0.000000 0.000000 0.000000
# 2 -0.016390 0.078293 -0.012264 0.000000 0.000000 0.000000
# 3 -0.004343 -0.012264 0.012292 0.000000 0.000000 0.000000
# 4 0.000000 0.000000 0.000000 0.055116 0.000000 0.000000
# 5 0.000000 0.000000 0.000000 0.000000 0.042987 0.000000
# 6 0.000000 0.000000 0.000000 0.000000 0.000000 0.340881
#
#
# Mechanical properties :
#
#
# Convention : Reuss Voigt Hill
#
# Bulk Modulus (GPa) = 22.61933 53.35941 37.98937
# Shear Modulus (GPa) = 7.93750 17.33202 12.63476
#
# Velocity S-wave (km/s) = 2.33155 3.44530 2.94162
# Velocity P-wave (km/s) = 4.76858 7.23676 6.12822
#
# Compressibility (1/GPa) = 0.04420998
#
# Stress axis : x y z
#
# Youngs Moduli (GPa) = 50.96665 12.77253 81.35592
#
# Poissons Ratio (x) = 0.20934 0.35335
# Poissons Ratio (y) = 0.83534 0.99779
# Poissons Ratio (z) = 0.22136 0.15665
#
# Static dielectric constant tensor:
#      x y z
#    x 1.492530 0.000000 0.000000 
#    y 0.000000 1.450010 0.000000 
#    z 0.000000 0.000000 1.513270 
# 
# From -- ./inp_files/10124.got.cif
#   From: 2010.05.17/outbox.cif.g08.bks.cpg/sg71_6_cif.got.tgz:10124.got - 2010.06.03 16:22:01.
