data_PCOD9524205
_publ_section_title
;
Structure prediction by ZEFSAII (Michael W. Deem and Ramdas Pophale) SiO2 
 PCOD9524205
Probable space group: I M M M
;
_chemical_formula_sum "Si O2"
_cell_formula_units_Z 56
_cell_length_a 27.429401
_cell_length_b 7.446868
_cell_length_c 14.280951
_cell_angle_alpha 90.000000
_cell_angle_beta 90.000000
_cell_angle_gamma 90.000000
_cell_volume 2917.071730
_symmetry_space_group_name_H-M "I M M M"
_symmetry_group_IT_number 71
_symmetry_cell_setting 'orthorhombic'
loop_
_space_group_symop_operation_xyz
x,y,z
-x,-y,z
x,-y,-z
-x,y,-z
-x,-y,-z
x,y,-z
-x,y,z
x,-y,z
1/2+x,1/2+y,1/2+z
1/2-x,1/2-y,1/2+z
1/2+x,1/2-y,1/2-z
1/2-x,1/2+y,1/2-z
1/2-x,1/2-y,1/2-z
1/2+x,1/2+y,1/2-z
1/2-x,1/2+y,1/2+z
1/2+x,1/2-y,1/2+z
loop_
_atom_site_type_symbol
_atom_site_label
_atom_site_fract_x
_atom_site_fract_y
_atom_site_fract_z
Si Si1 0.124007 0.706961 0.204374
Si Si2 0.832113 0.217273 0.392204
Si Si3 0.441875 0.500000 0.389276
Si Si4 0.723120 0.782610 0.391070
O O1 0.118384 0.500000 0.175554
O O2 0.129327 0.718050 0.316304
O O3 0.082363 0.828667 0.160599
O O4 0.176377 0.777857 0.166478
O O5 0.840425 0.271686 0.500000
O O6 0.777323 0.279858 0.364027
O O7 0.832115 0.000000 0.390666
O O8 0.500000 0.500000 0.379449
O O9 0.429963 0.500000 0.500000
O O10 0.716179 0.735720 0.500000
O O11 0.724186 0.000000 0.384984
#
# Coordination Sequence:
#
# PCOD9524205 Si02
#       4
#    16  16   8  16
#     4  11  21  36  61  87 117 154 195 242 293 347
#     4   9  17  32  54  83 124 166 197 231 276 337
#     4  11  26  46  65  87 113 145 194 250 302 355
#     4   8  15  28  49  81 120 159 196 231 276 340
#
# _framework density 19.197334000000001
#
# number of rings (size 3 to 8) (size 9 to 14) (size 15 to 20)
#    0.000    2.429    1.429    3.429    0.000    2.857 
#    2.571    1.429    0.000    1.714    0.000    2.000 
#    0.000    0.000    0.000    0.000    0.000    0.000 
#
# Total GULP energy -156360.071858 kJ/mol
# GULP energy per Si atom -5584.288281 kJ/mol
# Density = 1.915364 g / cm^3
# Si number density = 19.197334 Si / 1000 Ang^3
#
#
#
# Elastic Constant Matrix: (Units=GPa)
#
#
# Indices 1 2 3 4 5 6 
#
# 1 86.0276 38.8376 72.8859 0.0000 0.0000 0.0000
# 2 38.8376 97.8136 28.6838 0.0000 0.0000 0.0000
# 3 72.8859 28.6838 96.7056 0.0000 0.0000 0.0000
# 4 0.0000 0.0000 0.0000 11.8572 0.0000 0.0000
# 5 0.0000 0.0000 0.0000 0.0000 29.0209 0.0000
# 6 0.0000 0.0000 0.0000 0.0000 0.0000 25.8371
#
#
#
# Elastic Compliance Matrix: (Units=1/GPa)
#
#
# Indices 1 2 3 4 5 6 
#
# 1 0.036004 -0.006942 -0.025077 0.000000 0.000000 0.000000
# 2 -0.006942 0.012536 0.001514 0.000000 0.000000 0.000000
# 3 -0.025077 0.001514 0.028792 0.000000 0.000000 0.000000
# 4 0.000000 0.000000 0.000000 0.084337 0.000000 0.000000
# 5 0.000000 0.000000 0.000000 0.000000 0.034458 0.000000
# 6 0.000000 0.000000 0.000000 0.000000 0.000000 0.038704
#
#
# Mechanical properties :
#
#
# Convention : Reuss Voigt Hill
#
# Bulk Modulus (GPa) = 61.26755 62.37351 61.82053
# Shear Modulus (GPa) = 16.59571 22.68567 19.64069
#
# Velocity S-wave (km/s) = 2.94339 3.44133 3.20206
# Velocity P-wave (km/s) = 6.59813 6.95353 6.77816
#
# Compressibility (1/GPa) = 0.01632186
#
# Stress axis : x y z
#
# Youngs Moduli (GPa) = 27.77436 79.77042 34.73193
#
# Poissons Ratio (x) = 0.55376 0.87097
# Poissons Ratio (y) = 0.19281 -0.05258
# Poissons Ratio (z) = 0.69650 -0.12076
#
# Static dielectric constant tensor:
#      x y z
#    x 1.629460 0.000000 0.000000 
#    y 0.000000 1.719410 0.000000 
#    z 0.000000 0.000000 1.695450 
# 
# From -- ./inp_files/11892.got.cif
#   From: 2010.05.17/outbox.cif.g08.bks.cpg/sg71_6_cif.got.tgz:11892.got - 2010.06.03 16:22:01.
