data_PCOD9524163
_publ_section_title
;
Structure prediction by ZEFSAII (Michael W. Deem and Ramdas Pophale) SiO2 
 PCOD9524163
Probable space group: I M M M
;
_chemical_formula_sum "Si O2"
_cell_formula_units_Z 80
_cell_length_a 17.405628
_cell_length_b 26.591487
_cell_length_c 8.466721
_cell_angle_alpha 90.000000
_cell_angle_beta 90.000000
_cell_angle_gamma 90.000000
_cell_volume 3918.750108
_symmetry_space_group_name_H-M "I M M M"
_symmetry_group_IT_number 71
_symmetry_cell_setting 'orthorhombic'
loop_
_space_group_symop_operation_xyz
x,y,z
-x,-y,z
x,-y,-z
-x,y,-z
-x,-y,-z
x,y,-z
-x,y,z
x,-y,z
1/2+x,1/2+y,1/2+z
1/2-x,1/2-y,1/2+z
1/2+x,1/2-y,1/2-z
1/2-x,1/2+y,1/2-z
1/2-x,1/2-y,1/2-z
1/2+x,1/2+y,1/2-z
1/2-x,1/2+y,1/2+z
1/2+x,1/2-y,1/2+z
loop_
_atom_site_type_symbol
_atom_site_label
_atom_site_fract_x
_atom_site_fract_y
_atom_site_fract_z
Si Si1 0.703365 0.945111 0.810460
Si Si2 0.622677 0.338635 0.684014
Si Si3 0.379039 0.445078 0.188736
Si Si4 0.293504 0.157506 0.684459
Si Si5 0.414376 0.232777 0.185448
O O1 0.788817 0.946156 0.735654
O O2 0.667219 0.894790 0.739341
O O3 0.667882 0.000000 0.776375
O O4 0.710073 0.940280 0.000000
O O5 0.607957 0.330866 0.500000
O O6 0.592309 0.393431 0.735400
O O7 0.714489 0.337763 0.717978
O O8 0.589992 0.292072 0.781037
O O9 0.410015 0.500000 0.239095
O O10 0.386952 0.441641 0.000000
O O11 0.273601 0.154841 0.500000
O O12 0.349311 0.203694 0.718773
O O13 0.500000 0.215073 0.227849
O O14 0.401453 0.223649 0.000000
#
# Coordination Sequence:
#
# PCOD9524163 Si02
#       5
#    16  16  16  16  16
#     4   9  16  27  46  74 107 139 172 211 256 305
#     4  11  21  34  55  81 110 140 175 217 259 309
#     4   9  16  27  46  74 107 139 172 211 256 305
#     4  11  21  34  55  81 110 140 175 217 259 309
#     4  11  24  41  58  75 101 137 176 219 268 319
#
# _framework density 20.414671999999999
#
# number of rings (size 3 to 8) (size 9 to 14) (size 15 to 20)
#    0.000    1.800    0.000    8.400    0.000    4.000 
#    0.000    0.000    0.000    1.200    0.000    8.400 
#    0.000    0.000    0.000    0.000    0.000    0.000 
#
# Total GULP energy -223334.269720 kJ/mol
# GULP energy per Si atom -5583.356743 kJ/mol
# Density = 2.036821 g / cm^3
# Si number density = 20.414672 Si / 1000 Ang^3
#
#
#
# Elastic Constant Matrix: (Units=GPa)
#
#
# Indices 1 2 3 4 5 6 
#
# 1 38.1082 18.3951 0.1302 0.0000 0.0000 0.0000
# 2 18.3951 104.4514 -11.3237 0.0000 0.0000 0.0000
# 3 0.1302 -11.3237 36.3075 0.0001 -0.0001 -0.0002
# 4 0.0000 0.0000 0.0001 39.3127 0.0000 0.0000
# 5 0.0000 0.0000 -0.0001 0.0000 2.3319 0.0000
# 6 0.0000 0.0000 -0.0002 0.0000 0.0000 -11.9080
#
#
#
# Elastic Compliance Matrix: (Units=1/GPa)
#
#
# Indices 1 2 3 4 5 6 
#
# 1 0.028785 -0.005258 -0.001743 0.000000 0.000000 0.000000
# 2 -0.005258 0.010869 0.003409 0.000000 0.000000 0.000000
# 3 -0.001743 0.003409 0.028612 0.000000 0.000001 0.000000
# 4 0.000000 0.000000 0.000000 0.025437 0.000000 0.000000
# 5 0.000000 0.000000 0.000001 0.000000 0.428835 0.000000
# 6 0.000000 0.000000 0.000000 0.000000 0.000000 -0.083977
#
#
# Mechanical properties :
#
#
# Convention : Reuss Voigt Hill
#
# Bulk Modulus (GPa) = 16.37169 21.47449 18.92309
# Shear Modulus (GPa) = 10.72715 17.39169 14.05942
#
# Velocity S-wave (km/s) = 2.29478 2.92193 2.62714
# Velocity P-wave (km/s) = 3.88051 4.68248 4.30023
#
# Compressibility (1/GPa) = 0.06108104
#
# Stress axis : x y z
#
# Youngs Moduli (GPa) = 34.73996 92.00086 34.95047
#
# Poissons Ratio (x) = 0.48378 0.06093
# Poissons Ratio (y) = 0.18268 -0.11914
# Poissons Ratio (z) = 0.06056 -0.31362
#
# Static dielectric constant tensor:
#      x y z
#    x 1.728290 0.000000 0.000000 
#    y 0.000000 1.812270 0.000000 
#    z 0.000000 0.000000 1.675600 
# 
# From -- ./inp_files/8317.got.cif
#   From: 2010.05.17/outbox.cif.g08.bks.cpg/sg71_5_cif.got.tgz:8317.got - 2010.06.03 16:22:01.
