data_PCOD9524654
_publ_section_title
;
Structure prediction by ZEFSAII (Michael W. Deem and Ramdas Pophale) SiO2 
 PCOD9524654
Probable space group: I M M M
;
_chemical_formula_sum "Si O2"
_cell_formula_units_Z 72
_cell_length_a 14.377416
_cell_length_b 7.458225
_cell_length_c 34.265160
_cell_angle_alpha 90.000000
_cell_angle_beta 90.000000
_cell_angle_gamma 90.000000
_cell_volume 3674.253225
_symmetry_space_group_name_H-M "I M M M"
_symmetry_group_IT_number 71
_symmetry_cell_setting 'orthorhombic'
loop_
_space_group_symop_operation_xyz
x,y,z
-x,-y,z
x,-y,-z
-x,y,-z
-x,-y,-z
x,y,-z
-x,y,z
x,-y,z
1/2+x,1/2+y,1/2+z
1/2-x,1/2-y,1/2+z
1/2+x,1/2-y,1/2-z
1/2-x,1/2+y,1/2-z
1/2-x,1/2-y,1/2-z
1/2+x,1/2+y,1/2-z
1/2-x,1/2+y,1/2+z
1/2+x,1/2-y,1/2+z
loop_
_atom_site_type_symbol
_atom_site_label
_atom_site_fract_x
_atom_site_fract_y
_atom_site_fract_z
Si Si1 0.604482 0.500000 0.952693
Si Si2 0.744831 0.712967 0.545699
Si Si3 0.604333 0.213710 0.228664
Si Si4 0.606132 0.718552 0.387076
Si Si5 0.207577 0.215873 0.809051
O O1 0.500000 0.500000 0.937087
O O2 0.664842 0.325940 0.942228
O O3 0.598547 0.500000 0.000000
O O4 0.725657 0.749096 0.500000
O O5 0.761027 0.500000 0.549868
O O6 0.659878 0.766092 0.573425
O O7 0.500000 0.285373 0.222836
O O8 0.689152 0.283604 0.201920
O O9 0.639467 0.242164 0.272949
O O10 0.600013 0.000000 0.222396
O O11 0.500000 0.780548 0.385874
O O12 0.603954 0.500000 0.385676
O O13 0.664258 0.780400 0.349482
O O14 0.213409 0.000000 0.811287
#
# Coordination Sequence:
#
# PCOD9524654 Si02
#       5
#     8  16  16  16  16
#     4   9  18  34  55  77 103 135 172 216 261 305
#     4   9  18  33  53  78 107 138 174 215 256 304
#     4   9  17  29  45  67  95 125 159 200 249 300
#     4   9  17  30  49  73 100 131 168 209 254 305
#     4   9  17  30  48  69  94 125 163 205 245 295
#
# _framework density 19.595818999999999
#
# number of rings (size 3 to 8) (size 9 to 14) (size 15 to 20)
#    0.000    3.000    0.000    0.667    0.000    2.222 
#    2.000    6.111    0.000    6.000    0.000    0.000 
#    0.000    0.000    0.000    0.000    0.000    0.000 
#
# Total GULP energy -200770.795125 kJ/mol
# GULP energy per Si atom -5576.966531 kJ/mol
# Density = 1.955122 g / cm^3
# Si number density = 19.595819 Si / 1000 Ang^3
#
#
#
# Elastic Constant Matrix: (Units=GPa)
#
#
# Indices 1 2 3 4 5 6 
#
# 1 217.3002 32.1136 98.4882 0.0000 0.0000 0.0000
# 2 32.1136 61.0841 23.8027 0.0000 0.0000 0.0000
# 3 98.4882 23.8027 103.6474 0.0000 0.0000 0.0000
# 4 0.0000 0.0000 0.0000 10.5589 0.0000 0.0000
# 5 0.0000 0.0000 0.0000 0.0000 21.7238 0.0000
# 6 0.0000 0.0000 0.0000 0.0000 0.0000 11.8732
#
#
#
# Elastic Compliance Matrix: (Units=1/GPa)
#
#
# Indices 1 2 3 4 5 6 
#
# 1 0.008190 -0.001398 -0.007462 0.000000 0.000000 0.000000
# 2 -0.001398 0.018219 -0.002855 0.000000 0.000000 0.000000
# 3 -0.007462 -0.002855 0.017394 0.000000 0.000000 0.000000
# 4 0.000000 0.000000 0.000000 0.094706 0.000000 0.000000
# 5 0.000000 0.000000 0.000000 0.000000 0.046032 0.000000
# 6 0.000000 0.000000 0.000000 0.000000 0.000000 0.084223
#
#
# Mechanical properties :
#
#
# Convention : Reuss Voigt Hill
#
# Bulk Modulus (GPa) = 49.08515 76.76007 62.92261
# Shear Modulus (GPa) = 16.72317 24.00634 20.36475
#
# Velocity S-wave (km/s) = 2.92448 3.50390 3.22722
# Velocity P-wave (km/s) = 6.04207 7.45832 6.78723
#
# Compressibility (1/GPa) = 0.02037276
#
# Stress axis : x y z
#
# Youngs Moduli (GPa) = 122.09314 54.88895 57.49105
#
# Poissons Ratio (x) = 0.07676 0.42898
# Poissons Ratio (y) = 0.17073 0.16415
# Poissons Ratio (z) = 0.91101 0.15672
#
# Static dielectric constant tensor:
#      x y z
#    x 1.680790 0.000000 0.000000 
#    y 0.000000 1.725570 0.000000 
#    z 0.000000 0.000000 1.659140 
# 
# From -- ./inp_files/67849.got.cif
#   From: 2010.05.17/outbox.cif.g08.bks.cpg/sg71_34_cif.got.tgz:67849.got - 2010.06.03 16:22:01.
