data_PCOD9524032
_publ_section_title
;
Structure prediction by ZEFSAII (Michael W. Deem and Ramdas Pophale) SiO2 
 PCOD9524032
Probable space group: I M M M
;
_chemical_formula_sum "Si O2"
_cell_formula_units_Z 88
_cell_length_a 7.544809
_cell_length_b 20.753671
_cell_length_c 31.882554
_cell_angle_alpha 90.000000
_cell_angle_beta 90.000000
_cell_angle_gamma 90.000000
_cell_volume 4992.249493
_symmetry_space_group_name_H-M "I M M M"
_symmetry_group_IT_number 71
_symmetry_cell_setting 'orthorhombic'
loop_
_space_group_symop_operation_xyz
x,y,z
-x,-y,z
x,-y,-z
-x,y,-z
-x,-y,-z
x,y,-z
-x,y,z
x,-y,z
1/2+x,1/2+y,1/2+z
1/2-x,1/2-y,1/2+z
1/2+x,1/2-y,1/2-z
1/2-x,1/2+y,1/2-z
1/2-x,1/2-y,1/2-z
1/2+x,1/2+y,1/2-z
1/2-x,1/2+y,1/2+z
1/2+x,1/2-y,1/2+z
loop_
_atom_site_type_symbol
_atom_site_label
_atom_site_fract_x
_atom_site_fract_y
_atom_site_fract_z
Si Si1 0.792896 0.213480 0.293839
Si Si2 0.787039 0.429959 0.229957
Si Si3 0.797804 0.500000 0.551065
Si Si4 0.715588 0.069515 0.172916
Si Si5 0.716673 0.798128 0.869615
Si Si6 0.782623 0.356934 0.452193
O O1 0.500000 0.276823 0.202460
O O2 0.750000 0.250000 0.250000
O O3 0.759913 0.137306 0.291253
O O4 0.715971 0.245859 0.336065
O O5 0.725412 0.500000 0.213183
O O6 0.728804 0.426126 0.278516
O O7 0.000000 0.431916 0.230431
O O8 0.806670 0.500000 0.500000
O O9 0.722269 0.570618 0.560920
O O10 0.000000 0.500000 0.567932
O O11 0.500000 0.069806 0.172555
O O12 0.771056 0.132999 0.149381
O O13 0.772871 0.000000 0.155842
O O14 0.500000 0.795151 0.870384
O O15 0.771556 0.803669 0.918147
O O16 0.727231 0.344553 0.500000
O O17 0.000000 0.360132 0.452346
#
# Coordination Sequence:
#
# PCOD9524032 Si02
#       6
#    16  16   8  16  16  16
#     4  11  20  30  43  61  88 117 147 179 212 251
#     4   9  17  31  48  63  82 110 143 177 216 260
#     4   7  10  16  26  42  66  98 133 169 205 235
#     4   8  13  21  34  52  75 105 139 169 198 238
#     4   9  16  23  34  53  76 108 144 174 209 251
#     4   8  13  20  29  45  72 103 136 173 211 249
#
# _framework density 17.627323000000001
#
# number of rings (size 3 to 8) (size 9 to 14) (size 15 to 20)
#    0.000    3.182    1.818    2.727    1.273    0.364 
#    0.000    0.000    0.000    0.000    0.000    0.000 
#    0.000    3.636    0.000    9.091    0.000   30.545 
#
# Total GULP energy -245009.765244 kJ/mol
# GULP energy per Si atom -5568.403756 kJ/mol
# Density = 1.758720 g / cm^3
# Si number density = 17.627323 Si / 1000 Ang^3
#
#
#
# Elastic Constant Matrix: (Units=GPa)
#
#
# Indices 1 2 3 4 5 6 
#
# 1 39.4444 0.6905 5.9128 0.0000 0.0000 0.0000
# 2 0.6905 111.8923 77.9650 0.0000 0.0000 0.0000
# 3 5.9128 77.9650 118.0413 0.0000 0.0000 0.0000
# 4 0.0000 0.0000 0.0000 30.7539 0.0000 0.0000
# 5 0.0000 0.0000 0.0000 0.0000 3.1386 0.0000
# 6 0.0000 0.0000 0.0000 0.0000 0.0000 11.6546
#
#
#
# Elastic Compliance Matrix: (Units=1/GPa)
#
#
# Indices 1 2 3 4 5 6 
#
# 1 0.025656 0.001366 -0.002187 0.000000 0.000000 0.000000
# 2 0.001366 0.016630 -0.011052 0.000000 0.000000 0.000000
# 3 -0.002187 -0.011052 0.015881 0.000000 0.000000 0.000000
# 4 0.000000 0.000000 0.000000 0.032516 0.000000 0.000000
# 5 0.000000 0.000000 0.000000 0.000000 0.318610 0.000000
# 6 0.000000 0.000000 0.000000 0.000000 0.000000 0.085803
#
#
# Mechanical properties :
#
#
# Convention : Reuss Voigt Hill
#
# Bulk Modulus (GPa) = 29.05329 48.72386 38.88858
# Shear Modulus (GPa) = 9.42832 21.43005 15.42919
#
# Velocity S-wave (km/s) = 2.31523 3.49051 2.96176
# Velocity P-wave (km/s) = 4.86465 6.62918 5.81424
#
# Compressibility (1/GPa) = 0.03441951
#
# Stress axis : x y z
#
# Youngs Moduli (GPa) = 38.97708 60.13328 62.96834
#
# Poissons Ratio (x) = -0.08212 0.13772
# Poissons Ratio (y) = -0.05323 0.69594
# Poissons Ratio (z) = 0.08525 0.66460
#
# Static dielectric constant tensor:
#      x y z
#    x 1.861990 0.000000 0.000000 
#    y 0.000000 1.601450 0.000000 
#    z 0.000000 0.000000 1.655200 
# 
# From -- ./inp_files/69396.got.cif
#   From: 2010.05.17/outbox.cif.g08.bks.cpg/sg71_35_cif.got.tgz:69396.got - 2010.06.03 16:22:01.
