data_PCOD9524500
_publ_section_title
;
Structure prediction by ZEFSAII (Michael W. Deem and Ramdas Pophale) SiO2 
 PCOD9524500
Probable space group: I M M M
;
_chemical_formula_sum "Si O2"
_cell_formula_units_Z 80
_cell_length_a 7.434456
_cell_length_b 27.063259
_cell_length_c 20.193679
_cell_angle_alpha 90.000000
_cell_angle_beta 90.000000
_cell_angle_gamma 90.000000
_cell_volume 4062.980498
_symmetry_space_group_name_H-M "I M M M"
_symmetry_group_IT_number 71
_symmetry_cell_setting 'orthorhombic'
loop_
_space_group_symop_operation_xyz
x,y,z
-x,-y,z
x,-y,-z
-x,y,-z
-x,-y,-z
x,y,-z
-x,y,z
x,-y,z
1/2+x,1/2+y,1/2+z
1/2-x,1/2-y,1/2+z
1/2+x,1/2-y,1/2-z
1/2-x,1/2+y,1/2-z
1/2-x,1/2-y,1/2-z
1/2+x,1/2+y,1/2-z
1/2-x,1/2+y,1/2+z
1/2+x,1/2-y,1/2+z
loop_
_atom_site_type_symbol
_atom_site_label
_atom_site_fract_x
_atom_site_fract_y
_atom_site_fract_z
Si Si1 0.707364 0.500000 0.333842
Si Si2 0.286211 0.393706 0.325154
Si Si3 0.792021 0.000000 0.672612
Si Si4 0.220970 0.108422 0.674199
Si Si5 0.715953 0.194580 0.925052
Si Si6 0.719217 0.694457 0.923765
O O1 0.500000 0.500000 0.151021
O O2 0.787128 0.553513 0.351429
O O3 0.708357 0.500000 0.253181
O O4 0.500000 0.401465 0.318287
O O5 0.221255 0.383556 0.250397
O O6 0.260671 0.348259 0.373943
O O7 0.717286 0.946577 0.652971
O O8 0.000000 0.000000 0.857566
O O9 0.280134 0.152074 0.626080
O O10 0.000000 0.107785 0.673474
O O11 0.500000 0.196817 0.927907
O O12 0.777328 0.249806 0.905667
O O13 0.780297 0.184267 0.000000
O O14 0.500000 0.694061 0.922410
O O15 0.771984 0.685345 0.000000
#
# Coordination Sequence:
#
# PCOD9524500 Si02
#       6
#     8  16   8  16  16  16
#     4   7  12  24  40  59  83 107 128 155 202 254
#     4   9  16  27  45  65  82 103 134 171 205 238
#     4   7  10  18  33  54  81 107 128 159 202 238
#     4   8  13  22  38  60  82 104 134 169 201 235
#     4   9  18  31  43  56  80 113 141 165 200 245
#     4   8  14  25  39  54  78 113 142 161 193 244
#
# _framework density 19.689979000000001
#
# number of rings (size 3 to 8) (size 9 to 14) (size 15 to 20)
#    0.000    3.800    0.000    3.600    0.000    1.200 
#    0.000    1.500    0.000    6.000    0.000    0.000 
#    0.000    0.000    0.000    0.000    0.000   18.200 
#
# Total GULP energy -222705.690732 kJ/mol
# GULP energy per Si atom -5567.642268 kJ/mol
# Density = 1.964516 g / cm^3
# Si number density = 19.689979 Si / 1000 Ang^3
#
#
#
# Elastic Constant Matrix: (Units=GPa)
#
#
# Indices 1 2 3 4 5 6 
#
# 1 57.7501 4.9446 2.2340 0.0000 0.0000 0.0000
# 2 4.9446 247.1740 126.9147 0.0000 0.0000 0.0000
# 3 2.2340 126.9147 93.0699 0.0000 0.0000 0.0000
# 4 0.0000 0.0000 0.0000 -38.0926 0.0000 0.0000
# 5 0.0000 0.0000 0.0000 0.0000 1.8773 0.0000
# 6 0.0000 0.0000 0.0000 0.0000 0.0000 9.2906
#
#
#
# Elastic Compliance Matrix: (Units=1/GPa)
#
#
# Indices 1 2 3 4 5 6 
#
# 1 0.017347 -0.000444 0.000190 0.000000 0.000000 0.000000
# 2 -0.000444 0.013505 -0.018406 0.000000 0.000000 0.000000
# 3 0.000190 -0.018406 0.035839 0.000000 0.000000 0.000000
# 4 0.000000 0.000000 0.000000 -0.026252 0.000000 0.000000
# 5 0.000000 0.000000 0.000000 0.000000 0.532678 0.000000
# 6 0.000000 0.000000 0.000000 0.000000 0.000000 0.107636
#
#
# Mechanical properties :
#
#
# Convention : Reuss Voigt Hill
#
# Bulk Modulus (GPa) = 34.04844 74.02007 54.03426
# Shear Modulus (GPa) = 6.86940 12.20844 9.53892
#
# Velocity S-wave (km/s) = 1.86985 2.49275 2.20342
# Velocity P-wave (km/s) = 4.68952 6.77934 5.82885
#
# Compressibility (1/GPa) = 0.02936992
#
# Stress axis : x y z
#
# Youngs Moduli (GPa) = 57.64785 74.04444 27.90230
#
# Poissons Ratio (x) = 0.03290 -0.00529
# Poissons Ratio (y) = 0.02561 0.51357
# Poissons Ratio (z) = -0.01093 1.36286
#
# Static dielectric constant tensor:
#      x y z
#    x 1.822740 0.000000 0.000000 
#    y 0.000000 1.725970 0.000000 
#    z 0.000000 0.000000 1.648130 
# 
# From -- ./inp_files/12772.got.cif
#   From: 2010.05.17/outbox.cif.g08.bks.cpg/sg71_7_cif.got.tgz:12772.got - 2010.06.03 16:22:01.
