data_PCOD9524803
_publ_section_title
;
Structure prediction by ZEFSAII (Michael W. Deem and Ramdas Pophale) SiO2 
 PCOD9524803
Probable space group: I M M M
;
_chemical_formula_sum "Si O2"
_cell_formula_units_Z 44
_cell_length_a 18.000000
_cell_length_b 9.000000
_cell_length_c 30.000000
_cell_angle_alpha 90.000000
_cell_angle_beta 90.000000
_cell_angle_gamma 90.000000
_cell_volume 4860.000000
_symmetry_space_group_name_H-M "I M M M"
_symmetry_group_IT_number 71
_symmetry_cell_setting 'orthorhombic'
loop_
_space_group_symop_operation_xyz
x,y,z
-x,-y,z
x,-y,-z
-x,y,-z
-x,-y,-z
x,y,-z
-x,y,z
x,-y,z
1/2+x,1/2+y,1/2+z
1/2-x,1/2-y,1/2+z
1/2+x,1/2-y,1/2-z
1/2-x,1/2+y,1/2-z
1/2-x,1/2-y,1/2-z
1/2+x,1/2+y,1/2-z
1/2-x,1/2+y,1/2+z
1/2+x,1/2-y,1/2+z
loop_
_atom_site_type_symbol
_atom_site_label
_atom_site_fract_x
_atom_site_fract_y
_atom_site_fract_z
Si Si1 0.191141 0.176490 0.618838
Si Si2 0.084503 0.327700 0.446606
Si Si3 0.089294 0.829877 0.788618
Si Si4 0.000000 0.319335 0.947526
Si Si5 0.587791 0.178389 0.805503
Si Si6 0.635315 0.820555 0.618761
O O1 0.144162 0.222504 0.575635
O O2 0.146003 0.256045 0.658903
O O3 0.277724 0.218782 0.611577
O O4 0.188921 0.000000 0.626492
O O5 0.087681 0.321382 0.500000
O O6 0.097410 0.500000 0.433206
O O7 0.000000 0.289563 0.432932
O O8 0.107888 0.742418 0.743291
O O9 0.114755 0.749305 0.833569
O O10 0.000000 0.834298 0.790266
O O11 0.117001 0.000000 0.786778
O O12 0.074209 0.274835 0.919061
O O13 0.000000 0.500000 0.051516
O O14 0.000000 0.271080 0.000000
O O15 0.500000 0.218178 0.814691
O O16 0.591773 0.000000 0.805542
O O17 0.630473 0.000000 0.621440
#
# Coordination Sequence:
#
# PCOD9524803 Si02
#       6
#    16  16  16   8  16  16
#     4  11  23  35  52  84 119 148 184 235 287 334
#     4   9  19  37  59  80 106 147 193 229 271 335
#     4  10  20  35  58  85 112 144 186 236 285 333
#     4   9  18  36  63  87 107 141 191 239 280 333
#     4  10  21  37  58  82 111 153 195 229 274 336
#     4  10  21  37  58  82 111 149 188 228 281 344
#
# _framework density 9.0534979999999994
#
# number of rings (size 3 to 8) (size 9 to 14) (size 15 to 20)
#    0.000    2.091    0.909    2.727    0.000    7.636 
#    0.000    2.727    0.000    1.091    0.000    0.000 
#    0.000    0.000    0.000    0.000    0.000    0.000 
#
# Total GULP energy -245466.645093 kJ/mol
# GULP energy per Si atom -5578.787388 kJ/mol
# Density = 0.903289 g / cm^3
# Si number density = 9.053498 Si / 1000 Ang^3
#
#
#
# Elastic Constant Matrix: (Units=GPa)
#
#
# Indices 1 2 3 4 5 6 
#
# 1 131.7014 47.3044 72.0183 0.0000 0.0000 0.0000
# 2 47.3044 48.6671 35.1523 0.0000 0.0000 0.0000
# 3 72.0183 35.1523 113.2848 0.0000 0.0000 0.0000
# 4 0.0000 0.0000 0.0000 32.7044 0.0000 0.0000
# 5 0.0000 0.0000 0.0000 0.0000 17.7115 0.0000
# 6 0.0000 0.0000 0.0000 0.0000 0.0000 25.2932
#
#
#
# Elastic Compliance Matrix: (Units=1/GPa)
#
#
# Indices 1 2 3 4 5 6 
#
# 1 0.014405 -0.009521 -0.006203 0.000000 0.000000 0.000000
# 2 -0.009521 0.032776 -0.004118 0.000000 0.000000 0.000000
# 3 -0.006203 -0.004118 0.014049 0.000000 0.000000 0.000000
# 4 0.000000 0.000000 0.000000 0.030577 0.000000 0.000000
# 5 0.000000 0.000000 0.000000 0.000000 0.056460 0.000000
# 6 0.000000 0.000000 0.000000 0.000000 0.000000 0.039536
#
#
# Mechanical properties :
#
#
# Convention : Reuss Voigt Hill
#
# Bulk Modulus (GPa) = 46.41239 66.95590 56.68414
# Shear Modulus (GPa) = 21.30664 24.42039 22.86352
#
# Velocity S-wave (km/s) = 3.43404 3.67641 3.55729
# Velocity P-wave (km/s) = 6.43517 7.42156 6.94590
#
# Compressibility (1/GPa) = 0.02154597
#
# Stress axis : x y z
#
# Youngs Moduli (GPa) = 69.42190 30.50987 71.18147
#
# Poissons Ratio (x) = 0.29048 0.44155
# Poissons Ratio (y) = 0.66095 0.29311
# Poissons Ratio (z) = 0.43063 0.12563
#
# Static dielectric constant tensor:
#      x y z
#    x 1.619160 0.000000 0.000000 
#    y 0.000000 1.617400 0.000000 
#    z 0.000000 0.000000 1.616890 
# 
# From -- ./inp_files/49240.got.cif
#   From: 2010.05.17/outbox.ucp.g08.bks.cvg/sg71_25_cif.got.tgz:49240.got - 2010.06.11 16:29:00.
