data_PCOD9524030
_publ_section_title
;
Structure prediction by ZEFSAII (Michael W. Deem and Ramdas Pophale) SiO2 
 PCOD9524030
Probable space group: I M M M
;
_chemical_formula_sum "Si O2"
_cell_formula_units_Z 74
_cell_length_a 29.621882
_cell_length_b 7.685585
_cell_length_c 19.846334
_cell_angle_alpha 90.000000
_cell_angle_beta 90.000000
_cell_angle_gamma 90.000000
_cell_volume 4518.246009
_symmetry_space_group_name_H-M "I M M M"
_symmetry_group_IT_number 71
_symmetry_cell_setting 'orthorhombic'
loop_
_space_group_symop_operation_xyz
x,y,z
-x,-y,z
x,-y,-z
-x,y,-z
-x,-y,-z
x,y,-z
-x,y,z
x,-y,z
1/2+x,1/2+y,1/2+z
1/2-x,1/2-y,1/2+z
1/2+x,1/2-y,1/2-z
1/2-x,1/2+y,1/2-z
1/2-x,1/2-y,1/2-z
1/2+x,1/2+y,1/2-z
1/2-x,1/2+y,1/2+z
1/2+x,1/2-y,1/2+z
loop_
_atom_site_type_symbol
_atom_site_label
_atom_site_fract_x
_atom_site_fract_y
_atom_site_fract_z
Si Si1 0.500000 0.500000 0.500000
Si Si2 0.757917 0.286153 0.000000
Si Si3 0.500000 0.190038 0.610529
Si Si4 0.229493 0.793974 0.643794
Si Si5 0.636695 0.790993 0.500000
Si Si6 0.094688 0.794926 0.144821
Si Si7 0.180642 0.788418 0.773306
O O1 0.500000 0.347488 0.558102
O O2 0.733870 0.224615 0.931748
O O3 0.758154 0.500000 0.000000
O O4 0.810813 0.234497 0.000000
O O5 0.546286 0.207455 0.651720
O O6 0.500000 0.000000 0.577789
O O7 0.193365 0.726031 0.698164
O O8 0.278219 0.768248 0.678739
O O9 0.221281 0.000000 0.637913
O O10 0.611990 0.728513 0.432292
O O11 0.635612 0.000000 0.500000
O O12 0.133936 0.728345 0.194159
O O13 0.089384 0.000000 0.156590
O O14 0.180606 0.000000 0.773235
#
# Coordination Sequence:
#
# PCOD9524030 Si02
#       7
#     2   8   8  16   8  16  16
#     4  12  22  44  52  74 104 128 158 222 240 294
#     4   9  16  26  43  65  94 120 157 201 228 275
#     4  12  25  39  55  70  93 132 169 206 256 292
#     4   9  16  29  44  65  90 121 157 195 236 285
#     4  11  20  29  43  66  87 122 164 195 231 276
#     4  11  21  35  47  66  94 124 162 210 246 285
#     4   9  18  29  46  64  89 122 155 194 245 285
#
# _framework density 16.378036000000002
#
# number of rings (size 3 to 8) (size 9 to 14) (size 15 to 20)
#    0.000    1.946    3.243    1.784    0.000    0.865 
#    0.000    0.541    0.000    0.000    0.000    0.000 
#    0.000    0.865    0.000   11.027    0.000    1.081 
#
# Total GULP energy -206180.238733 kJ/mol
# GULP energy per Si atom -5572.438885 kJ/mol
# Density = 1.634076 g / cm^3
# Si number density = 16.378036 Si / 1000 Ang^3
#
#
#
# Elastic Constant Matrix: (Units=GPa)
#
#
# Indices 1 2 3 4 5 6 
#
# 1 116.6138 6.5124 65.0247 0.0000 0.0000 0.0000
# 2 6.5124 59.9237 0.3168 0.0000 0.0000 0.0000
# 3 65.0247 0.3168 127.1608 0.0000 0.0000 0.0000
# 4 0.0000 0.0000 0.0000 -3.2638 0.0000 0.0000
# 5 0.0000 0.0000 0.0000 0.0000 -17.5098 0.0000
# 6 0.0000 0.0000 0.0000 0.0000 0.0000 13.8125
#
#
#
# Elastic Compliance Matrix: (Units=1/GPa)
#
#
# Indices 1 2 3 4 5 6 
#
# 1 0.012093 -0.001282 -0.006181 0.000000 0.000000 0.000000
# 2 -0.001282 0.016824 0.000613 0.000000 0.000000 0.000000
# 3 -0.006181 0.000613 0.011023 0.000000 0.000000 0.000000
# 4 0.000000 0.000000 0.000000 -0.306388 0.000000 0.000000
# 5 0.000000 0.000000 0.000000 0.000000 -0.057111 0.000000
# 6 0.000000 0.000000 0.000000 0.000000 0.000000 0.072398
#
#
# Mechanical properties :
#
#
# Convention : Reuss Voigt Hill
#
# Bulk Modulus (GPa) = 38.10621 49.71177 43.90899
# Shear Modulus (GPa) = -21.86127 14.06406 -3.89861
#
# Velocity S-wave (km/s) = -3.65744 2.93356 -1.54452
# Velocity P-wave (km/s) = 2.34122 6.47248 4.86694
#
# Compressibility (1/GPa) = 0.02624245
#
# Stress axis : x y z
#
# Youngs Moduli (GPa) = 82.68988 59.43913 90.71810
#
# Poissons Ratio (x) = 0.07618 0.56072
# Poissons Ratio (y) = 0.10598 -0.05565
# Poissons Ratio (z) = 0.51109 -0.03646
#
# Static dielectric constant tensor:
#      x y z
#    x 1.562260 0.000000 0.000000 
#    y 0.000000 1.590490 0.000000 
#    z 0.000000 0.000000 1.558620 
# 
# From -- ./inp_files/56060.got.cif
#   From: 2010.05.17/outbox.cif.g08.bks.cpg/sg71_29_cif.got.tgz:56060.got - 2010.06.03 16:22:01.
