data_PCOD9524956
_publ_section_title
;
Structure prediction by ZEFSAII (Michael W. Deem and Ramdas Pophale) SiO2 
 PCOD9524956
Probable space group: I B A M
;
_chemical_formula_sum "Si O2"
_cell_formula_units_Z 44
_cell_length_a 5.473119
_cell_length_b 28.585382
_cell_length_c 13.318124
_cell_angle_alpha 90.000000
_cell_angle_beta 90.000000
_cell_angle_gamma 90.000000
_cell_volume 2083.636446
_symmetry_space_group_name_H-M "I B A M"
_symmetry_group_IT_number 72
_symmetry_cell_setting 'orthorhombic'
loop_
_space_group_symop_operation_xyz
x,y,z
-x,-y,z
x,-y,1/2-z
-x,y,1/2-z
-x,-y,-z
x,y,-z
-x,y,1/2+z
x,-y,1/2+z
1/2+x,1/2+y,1/2+z
1/2-x,1/2-y,1/2+z
1/2+x,1/2-y,-z
1/2-x,1/2+y,-z
1/2-x,1/2-y,1/2-z
1/2+x,1/2+y,1/2-z
1/2-x,1/2+y,z
1/2+x,1/2-y,z
loop_
_atom_site_type_symbol
_atom_site_label
_atom_site_fract_x
_atom_site_fract_y
_atom_site_fract_z
Si Si1 0.000000 0.000000 0.250000
Si Si2 0.145711 0.629870 0.114697
Si Si3 0.176683 0.279290 0.500000
Si Si4 0.651553 0.417162 0.621821
O O1 0.157719 0.033212 0.322574
O O2 0.395924 0.607421 0.151470
O O3 0.882517 0.614336 0.153984
O O4 0.135451 0.611241 0.000000
O O5 0.168025 0.685468 0.095898
O O6 0.431600 0.251602 0.500000
O O7 0.650469 0.422170 0.500000
#
# Coordination Sequence:
#
# PCOD9524956 Si02
#       4
#     4  16   8  16
#     4  12  26  34  64  84 100 170 206 218 272 348
#     4   8  18  33  54  76 122 144 168 242 293 303
#     4  10  16  28  58  93 108 139 198 220 274 370
#     4  10  20  39  52  80 119 147 189 238 277 324
#
# _framework density 21.116927
#
# number of rings (size 3 to 8) (size 9 to 14) (size 15 to 20)
#    1.091    1.455    0.000    2.727    0.000    4.364 
#    0.000    5.455    0.000    0.000    0.000   25.455 
#    0.000    0.000    0.000    0.000    0.000    0.000 
#
# Total GULP energy -122497.485400 kJ/mol
# GULP energy per Si atom -5568.067518 kJ/mol
# Density = 2.106886 g / cm^3
# Si number density = 21.116927 Si / 1000 Ang^3
#
#
#
# Elastic Constant Matrix: (Units=GPa)
#
#
# Indices 1 2 3 4 5 6 
#
# 1 195.5947 82.5241 41.2551 0.0000 0.0000 0.0000
# 2 82.5241 136.7296 22.8409 0.0000 0.0000 0.0000
# 3 41.2551 22.8409 75.4733 0.0000 0.0001 0.0000
# 4 0.0000 0.0000 0.0000 18.4900 0.0001 0.0000
# 5 0.0000 0.0000 0.0001 0.0001 -115.0201 0.0000
# 6 0.0000 0.0000 0.0000 0.0000 0.0000 -200.9784
#
#
#
# Elastic Compliance Matrix: (Units=1/GPa)
#
#
# Indices 1 2 3 4 5 6 
#
# 1 0.007393 -0.003989 -0.002834 0.000000 0.000000 0.000000
# 2 -0.003989 0.009855 -0.000802 0.000000 0.000000 0.000000
# 3 -0.002834 -0.000802 0.015042 0.000000 0.000000 0.000000
# 4 0.000000 0.000000 0.000000 0.054083 0.000000 0.000000
# 5 0.000000 0.000000 0.000000 0.000000 -0.008694 0.000000
# 6 0.000000 0.000000 0.000000 0.000000 0.000000 -0.004976
#
#
# Mechanical properties :
#
#
# Convention : Reuss Voigt Hill
#
# Bulk Modulus (GPa) = 58.68583 77.89308 68.28945
# Shear Modulus (GPa) = 53.39929 -42.08987 5.65471
#
# Velocity S-wave (km/s) = 5.03412 -4.46935 1.63818
# Velocity P-wave (km/s) = 7.85118 3.21453 5.99892
#
# Compressibility (1/GPa) = 0.01703989
#
# Stress axis : x y z
#
# Youngs Moduli (GPa) = 135.25657 101.46919 66.48191
#
# Poissons Ratio (x) = 0.40475 0.18842
# Poissons Ratio (y) = 0.53952 0.05333
# Poissons Ratio (z) = 0.38334 0.08139
#
# Static dielectric constant tensor:
#      x y z
#    x 1.753930 0.000000 0.000000 
#    y 0.000000 1.738960 0.000000 
#    z 0.000000 0.000000 1.846950 
# 
# From -- ./inp_files/17364.got.cif
#   From: 2010.05.17/outbox.cif.g08.bks.cpg/sg72_9_cif.got.tgz:17364.got - 2010.06.03 17:03:01.
