data_PCOD9524111
_publ_section_title
;
Structure prediction by ZEFSAII (Michael W. Deem and Ramdas Pophale) SiO2 
 PCOD9524111
Probable space group: I M M M
;
_chemical_formula_sum "Si O2"
_cell_formula_units_Z 80
_cell_length_a 14.444721
_cell_length_b 7.883849
_cell_length_c 30.744897
_cell_angle_alpha 90.000000
_cell_angle_beta 90.000000
_cell_angle_gamma 90.000000
_cell_volume 3501.228846
_symmetry_space_group_name_H-M "I M M M"
_symmetry_group_IT_number 71
_symmetry_cell_setting 'orthorhombic'
loop_
_space_group_symop_operation_xyz
x,y,z
-x,-y,z
x,-y,-z
-x,y,-z
-x,-y,-z
x,y,-z
-x,y,z
x,-y,z
1/2+x,1/2+y,1/2+z
1/2-x,1/2-y,1/2+z
1/2+x,1/2-y,1/2-z
1/2-x,1/2+y,1/2-z
1/2-x,1/2-y,1/2-z
1/2+x,1/2+y,1/2-z
1/2-x,1/2+y,1/2+z
1/2+x,1/2-y,1/2+z
loop_
_atom_site_type_symbol
_atom_site_label
_atom_site_fract_x
_atom_site_fract_y
_atom_site_fract_z
Si Si1 0.697887 0.702847 0.547993
Si Si2 0.610011 0.701328 0.723075
Si Si3 0.712069 0.196964 0.636628
Si Si4 0.893956 0.208077 0.679190
Si Si5 0.597445 0.803733 0.947631
O O1 0.664602 0.762893 0.500000
O O2 0.705380 0.500000 0.544129
O O3 0.654550 0.733744 0.595282
O O4 0.801278 0.775664 0.556862
O O5 0.500000 0.726761 0.719147
O O6 0.628070 0.500000 0.721494
O O7 0.660270 0.781799 0.682315
O O8 0.634414 0.761035 0.771802
O O9 0.815446 0.270430 0.646149
O O10 0.722783 0.000000 0.628274
O O11 0.000000 0.261998 0.671120
O O12 0.894245 0.000000 0.678768
O O13 0.500000 0.724746 0.931779
O O14 0.599600 0.000000 0.932674
O O15 0.590971 0.811247 0.000000
#
# Coordination Sequence:
#
# PCOD9524111 Si02
#       5
#    16  16  16  16  16
#     4   9  18  32  48  66  93 133 178 218 253 296
#     4   9  18  35  58  78  99 133 174 212 252 306
#     4  11  21  31  50  79 108 137 168 211 263 307
#     4   8  16  32  52  76 108 143 174 203 243 301
#     4   7  10  19  37  59  81 109 151 202 247 280
#
# _framework density 22.849119999999999
#
# number of rings (size 3 to 8) (size 9 to 14) (size 15 to 20)
#    0.000    3.200    0.000    4.200    0.000    1.600 
#    0.000    1.000    0.000    4.800    0.000    9.800 
#    0.000    0.000    0.000    0.000    0.000    0.000 
#
# Total GULP energy -222699.937793 kJ/mol
# GULP energy per Si atom -5567.498445 kJ/mol
# Density = 2.279711 g / cm^3
# Si number density = 22.849120 Si / 1000 Ang^3
#
#
#
# Elastic Constant Matrix: (Units=GPa)
#
#
# Indices 1 2 3 4 5 6 
#
# 1 -32.8947 31.2315 19.6298 0.0000 0.0000 0.0000
# 2 31.2315 20.6232 26.5773 0.0000 0.0000 0.0000
# 3 19.6298 26.5773 201.7811 0.0000 0.0000 0.0000
# 4 0.0000 0.0000 0.0000 20.2649 0.0000 0.0000
# 5 0.0000 0.0000 0.0000 0.0000 4.4019 0.0000
# 6 0.0000 0.0000 0.0000 0.0000 0.0000 12.2880
#
#
#
# Elastic Compliance Matrix: (Units=1/GPa)
#
#
# Indices 1 2 3 4 5 6 
#
# 1 -0.012088 0.020223 -0.001488 0.000000 0.000000 0.000000
# 2 0.020223 0.024570 -0.005204 0.000000 0.000000 0.000000
# 3 -0.001488 -0.005204 0.005786 0.000000 0.000000 0.000000
# 4 0.000000 0.000000 0.000000 0.049346 0.000000 0.000000
# 5 0.000000 0.000000 0.000000 0.000000 0.227172 0.000000
# 6 0.000000 0.000000 0.000000 0.000000 0.000000 0.081380
#
#
# Mechanical properties :
#
#
# Convention : Reuss Voigt Hill
#
# Bulk Modulus (GPa) = 22.05990 38.26521 30.16256
# Shear Modulus (GPa) = 13.72817 14.86238 14.29528
#
# Velocity S-wave (km/s) = 2.45382 2.55317 2.50399
# Velocity P-wave (km/s) = 4.20760 5.04726 4.64644
#
# Compressibility (1/GPa) = 0.04533111
#
# Stress axis : x y z
#
# Youngs Moduli (GPa) = -82.72889 40.70003 172.83208
#
# Poissons Ratio (x) = -0.82306 0.25712
# Poissons Ratio (y) = 1.67299 0.89933
# Poissons Ratio (z) = -0.12307 0.21178
#
# Static dielectric constant tensor:
#      x y z
#    x 1.942470 0.000000 0.000000 
#    y 0.000000 1.809760 0.000000 
#    z 0.000000 0.000000 1.931300 
# 
# From -- ./inp_files/42373.got.cif
#   From: 2010.05.17/outbox.cif.g08.bks.cpg/sg71_22_cif.got.tgz:42373.got - 2010.06.03 16:22:01.
