data_PCOD9524683
_publ_section_title
;
Structure prediction by ZEFSAII (Michael W. Deem and Ramdas Pophale) SiO2 
 PCOD9524683
Probable space group: I M M M
;
_chemical_formula_sum "Si O2"
_cell_formula_units_Z 52
_cell_length_a 21.000000
_cell_length_b 27.000000
_cell_length_c 9.000000
_cell_angle_alpha 90.000000
_cell_angle_beta 90.000000
_cell_angle_gamma 90.000000
_cell_volume 5103.000000
_symmetry_space_group_name_H-M "I M M M"
_symmetry_group_IT_number 71
_symmetry_cell_setting 'orthorhombic'
loop_
_space_group_symop_operation_xyz
x,y,z
-x,-y,z
x,-y,-z
-x,y,-z
-x,-y,-z
x,y,-z
-x,y,z
x,-y,z
1/2+x,1/2+y,1/2+z
1/2-x,1/2-y,1/2+z
1/2+x,1/2-y,1/2-z
1/2-x,1/2+y,1/2-z
1/2-x,1/2-y,1/2-z
1/2+x,1/2+y,1/2-z
1/2-x,1/2+y,1/2+z
1/2+x,1/2-y,1/2+z
loop_
_atom_site_type_symbol
_atom_site_label
_atom_site_fract_x
_atom_site_fract_y
_atom_site_fract_z
Si Si1 0.822304 0.308726 0.675965
Si Si2 0.726693 0.441774 0.163454
Si Si3 0.924694 0.500000 0.827730
Si Si4 0.321603 0.295894 0.674601
Si Si5 0.569855 0.648177 0.169846
Si Si6 0.367180 0.900113 0.671074
Si Si7 0.897709 0.058187 0.168692
O O1 0.826787 0.310278 0.500000
O O2 0.747675 0.317058 0.717619
O O3 0.834335 0.254336 0.737273
O O4 0.869682 0.348699 0.744441
O O5 0.741967 0.500000 0.164660
O O6 0.792768 0.414014 0.173253
O O7 0.676980 0.433623 0.294444
O O8 0.697765 0.430506 0.000000
O O9 0.901393 0.551799 0.761567
O O10 0.000000 0.500000 0.832080
O O11 0.899835 0.500000 0.000000
O O12 0.319675 0.285615 0.500000
O O13 0.378186 0.331459 0.718525
O O14 0.500000 0.670159 0.193464
O O15 0.567378 0.590438 0.209282
O O16 0.588626 0.656977 0.000000
O O17 0.388299 0.893882 0.500000
O O18 0.910132 0.000000 0.184060
O O19 0.913287 0.072730 0.000000
#
# Coordination Sequence:
#
# PCOD9524683 Si02
#       7
#    16  16   8  16  16  16  16
#     4  10  21  36  58  88 118 145 180 230 291 346
#     4   9  16  28  48  75 107 141 178 224 276 327
#     4   9  18  34  55  79 111 151 196 243 284 333
#     4  10  21  39  62  87 114 145 185 232 284 340
#     4  11  24  40  58  80 109 148 188 226 274 330
#     4  10  18  31  53  81 110 145 190 233 281 338
#     4  10  21  35  52  78 111 145 185 230 273 319
#
# _framework density 10.190084000000001
#
# number of rings (size 3 to 8) (size 9 to 14) (size 15 to 20)
#    0.000    2.077    0.769    2.769    0.000    7.385 
#    0.000    2.692    0.000    3.692    0.000    0.000 
#    0.000    0.000    0.000    0.000    0.000    0.000 
#
# Total GULP energy -289876.235615 kJ/mol
# GULP energy per Si atom -5574.542993 kJ/mol
# Density = 1.016689 g / cm^3
# Si number density = 10.190084 Si / 1000 Ang^3
#
#
#
# Elastic Constant Matrix: (Units=GPa)
#
#
# Indices 1 2 3 4 5 6 
#
# 1 12.3840 36.1394 5.3864 0.0000 0.0000 0.0000
# 2 36.1394 85.8663 28.9885 0.0000 0.0000 0.0000
# 3 5.3864 28.9885 18.6802 0.0000 0.0000 0.0000
# 4 0.0000 0.0000 0.0000 19.3717 0.0000 0.0000
# 5 0.0000 0.0000 0.0000 0.0000 22.0666 0.0000
# 6 0.0000 0.0000 0.0000 0.0000 0.0000 1.8380
#
#
#
# Elastic Compliance Matrix: (Units=1/GPa)
#
#
# Indices 1 2 3 4 5 6 
#
# 1 -0.124264 0.084443 -0.095210 0.000000 0.000000 0.000000
# 2 0.084443 -0.032922 0.026740 0.000000 0.000000 0.000000
# 3 -0.095210 0.026740 0.039490 0.000000 0.000000 0.000000
# 4 0.000000 0.000000 0.000000 0.051622 0.000000 0.000000
# 5 0.000000 0.000000 0.000000 0.000000 0.045317 0.000000
# 6 0.000000 0.000000 0.000000 0.000000 0.000000 0.544075
#
#
# Mechanical properties :
#
#
# Convention : Reuss Voigt Hill
#
# Bulk Modulus (GPa) = -11.66195 28.66212 8.50008
# Shear Modulus (GPa) = 10.80405 11.74966 11.27685
#
# Velocity S-wave (km/s) = 2.30494 2.40370 2.35484
# Velocity P-wave (km/s) = 1.16149 4.66883 3.40198
#
# Compressibility (1/GPa) = -0.08574893
#
# Stress axis : x y z
#
# Youngs Moduli (GPa) = -8.04740 -30.37496 25.32261
#
# Poissons Ratio (x) = 2.56495 2.41096
# Poissons Ratio (y) = 0.67955 -0.67713
# Poissons Ratio (z) = -0.76619 0.81223
#
# Static dielectric constant tensor:
#      x y z
#    x 1.748970 0.000000 0.000000 
#    y 0.000000 1.772140 0.000000 
#    z 0.000000 0.000000 1.706610 
# 
# From -- ./inp_files/11114.got.cif
#   From: 2010.05.17/outbox.ucp.g08.bks.cvg/sg71_6_cif.got.tgz:11114.got - 2010.06.11 16:29:00.
