data_PCOD9524826
_publ_section_title
;
Structure prediction by ZEFSAII (Michael W. Deem and Ramdas Pophale) SiO2 
 PCOD9524826
Probable space group: I M M M
;
_chemical_formula_sum "Si O2"
_cell_formula_units_Z 42
_cell_length_a 12.000000
_cell_length_b 24.000000
_cell_length_c 15.000000
_cell_angle_alpha 90.000000
_cell_angle_beta 90.000000
_cell_angle_gamma 90.000000
_cell_volume 4320.000000
_symmetry_space_group_name_H-M "I M M M"
_symmetry_group_IT_number 71
_symmetry_cell_setting 'orthorhombic'
loop_
_space_group_symop_operation_xyz
x,y,z
-x,-y,z
x,-y,-z
-x,y,-z
-x,-y,-z
x,y,-z
-x,y,z
x,-y,z
1/2+x,1/2+y,1/2+z
1/2-x,1/2-y,1/2+z
1/2+x,1/2-y,1/2-z
1/2-x,1/2+y,1/2-z
1/2-x,1/2-y,1/2-z
1/2+x,1/2+y,1/2-z
1/2-x,1/2+y,1/2+z
1/2+x,1/2-y,1/2+z
loop_
_atom_site_type_symbol
_atom_site_label
_atom_site_fract_x
_atom_site_fract_y
_atom_site_fract_z
Si Si1 0.368593 0.903103 0.500000
Si Si2 0.500000 0.064147 0.821480
Si Si3 0.623378 0.745603 0.172724
Si Si4 0.298034 0.659695 0.697037
Si Si5 0.758922 0.713854 0.000000
Si Si6 0.715020 0.936696 0.305640
Si Si7 0.764566 0.837994 0.000000
Si Si8 0.000000 0.361314 0.500000
O O1 0.500000 0.914552 0.500000
O O2 0.342270 0.837298 0.500000
O O3 0.316419 0.926591 0.591372
O O4 0.606189 0.071284 0.757050
O O5 0.500000 0.102470 0.908612
O O6 0.500000 0.000000 0.852783
O O7 0.500000 0.757721 0.141588
O O8 0.622891 0.706666 0.260186
O O9 0.684293 0.803323 0.196250
O O10 0.687631 0.714909 0.091690
O O11 0.297355 0.609003 0.765554
O O12 0.305949 0.638648 0.594954
O O13 0.811406 0.775086 0.000000
O O14 0.753935 0.000000 0.295259
O O15 0.627320 0.835079 0.000000
#
# Coordination Sequence:
#
# PCOD9524826 Si02
#       8
#     8   8  16  16   8  16   8   4
#     4  12  23  37  55  80 119 157 188 228 280 337
#     4  10  21  33  50  81 111 148 193 222 264 337
#     4  10  21  36  60  81 111 148 186 237 288 334
#     4  10  21  38  54  84 113 144 192 230 282 340
#     4  10  21  35  53  86 110 145 194 228 272 345
#     4  11  22  36  54  79 116 155 190 228 274 337
#     4  10  22  33  51  80 112 146 182 226 274 337
#     4  12  19  32  58  78 112 154 177 224 282 324
#
# _framework density 9.7222220000000004
#
# number of rings (size 3 to 8) (size 9 to 14) (size 15 to 20)
#    0.000    1.524    4.762    0.714    6.667    0.381 
#    0.000    0.952    0.000    0.571    0.000    1.333 
#    0.000    1.524    0.000    0.000    0.000    0.000 
#
# Total GULP energy -234102.885109 kJ/mol
# GULP energy per Si atom -5573.878217 kJ/mol
# Density = 0.970009 g / cm^3
# Si number density = 9.722222 Si / 1000 Ang^3
#
#
#
# Elastic Constant Matrix: (Units=GPa)
#
#
# Indices 1 2 3 4 5 6 
#
# 1 7.4737 2.0917 7.7540 0.0000 0.0000 0.0000
# 2 2.0917 98.6051 38.1691 0.0000 0.0000 0.0000
# 3 7.7540 38.1691 150.0844 0.0001 0.0000 0.0000
# 4 0.0000 0.0000 0.0001 34.4295 0.0000 0.0000
# 5 0.0000 0.0000 0.0000 0.0000 15.8097 0.0000
# 6 0.0000 0.0000 0.0000 0.0000 0.0000 7.8765
#
#
#
# Elastic Compliance Matrix: (Units=1/GPa)
#
#
# Indices 1 2 3 4 5 6 
#
# 1 0.141385 -0.000190 -0.007256 0.000000 0.000000 0.000000
# 2 -0.000190 0.011249 -0.002851 0.000000 0.000000 0.000000
# 3 -0.007256 -0.002851 0.007763 0.000000 0.000000 0.000000
# 4 0.000000 0.000000 0.000000 0.029045 0.000000 0.000000
# 5 0.000000 0.000000 0.000000 0.000000 0.063252 0.000000
# 6 0.000000 0.000000 0.000000 0.000000 0.000000 0.126960
#
#
# Mechanical properties :
#
#
# Convention : Reuss Voigt Hill
#
# Bulk Modulus (GPa) = 7.15300 39.13253 23.14277
# Shear Modulus (GPa) = 11.18947 25.49970 18.34458
#
# Velocity S-wave (km/s) = 2.40147 3.62527 3.07487
# Velocity P-wave (km/s) = 3.37285 6.13942 4.95321
#
# Compressibility (1/GPa) = 0.13980150
#
# Stress axis : x y z
#
# Youngs Moduli (GPa) = 7.07291 88.89596 128.81850
#
# Poissons Ratio (x) = 0.01692 0.93472
# Poissons Ratio (y) = 0.00135 0.36726
# Poissons Ratio (z) = 0.05132 0.25344
#
# Static dielectric constant tensor:
#      x y z
#    x 1.680930 0.000000 0.000000 
#    y 0.000000 1.686460 0.000000 
#    z 0.000000 0.000000 1.718440 
# 
# From -- ./inp_files/32818.got.cif
#   From: 2010.05.17/outbox.ucp.g08.bks.cvg/sg71_17_cif.got.tgz:32818.got - 2010.06.11 16:29:00.
