data_PCOD9524182
_publ_section_title
;
Structure prediction by ZEFSAII (Michael W. Deem and Ramdas Pophale) SiO2 
 PCOD9524182
Probable space group: I M M M
;
_chemical_formula_sum "Si O2"
_cell_formula_units_Z 72
_cell_length_a 17.910544
_cell_length_b 22.496938
_cell_length_c 9.246520
_cell_angle_alpha 90.000000
_cell_angle_beta 90.000000
_cell_angle_gamma 90.000000
_cell_volume 3725.722476
_symmetry_space_group_name_H-M "I M M M"
_symmetry_group_IT_number 71
_symmetry_cell_setting 'orthorhombic'
loop_
_space_group_symop_operation_xyz
x,y,z
-x,-y,z
x,-y,-z
-x,y,-z
-x,-y,-z
x,y,-z
-x,y,z
x,-y,z
1/2+x,1/2+y,1/2+z
1/2-x,1/2-y,1/2+z
1/2+x,1/2-y,1/2-z
1/2-x,1/2+y,1/2-z
1/2-x,1/2-y,1/2-z
1/2+x,1/2+y,1/2-z
1/2-x,1/2+y,1/2+z
1/2+x,1/2-y,1/2+z
loop_
_atom_site_type_symbol
_atom_site_label
_atom_site_fract_x
_atom_site_fract_y
_atom_site_fract_z
Si Si1 0.500000 0.568390 0.324418
Si Si2 0.229352 0.432689 0.829365
Si Si3 0.586746 0.106002 0.170624
Si Si4 0.147177 0.143066 0.826970
Si Si5 0.088290 0.253028 0.668440
O O1 0.500000 0.500000 0.273359
O O2 0.500000 0.566926 0.500000
O O3 0.574293 0.604300 0.281935
O O4 0.256919 0.500000 0.804717
O O5 0.145839 0.427464 0.768279
O O6 0.281179 0.387095 0.743759
O O7 0.230932 0.420608 0.000000
O O8 0.500000 0.093191 0.203167
O O9 0.599359 0.176813 0.191681
O O10 0.598617 0.093253 0.000000
O O11 0.134488 0.209548 0.769720
O O12 0.152796 0.142217 0.000000
O O13 0.104872 0.240282 0.500000
O O14 0.000000 0.241673 0.691896
#
# Coordination Sequence:
#
# PCOD9524182 Si02
#       5
#     8  16  16  16  16
#     4   9  18  32  51  79 113 149 192 237 278 325
#     4  11  25  42  58  82 117 154 194 241 293 346
#     4   9  20  40  65  90 114 148 192 237 290 349
#     4  11  21  35  58  86 117 155 196 239 286 336
#     4   9  18  35  59  87 121 153 186 234 288 343
#
# _framework density 19.325112000000001
#
# number of rings (size 3 to 8) (size 9 to 14) (size 15 to 20)
#    0.000    2.111    1.111    3.333    0.000    5.333 
#    0.000    4.444    0.000    2.667    0.000    0.000 
#    0.000    0.000    0.000    0.000    0.000    0.000 
#
# Total GULP energy -201097.536944 kJ/mol
# GULP energy per Si atom -5586.042693 kJ/mol
# Density = 1.928113 g / cm^3
# Si number density = 19.325112 Si / 1000 Ang^3
#
#
#
# Elastic Constant Matrix: (Units=GPa)
#
#
# Indices 1 2 3 4 5 6 
#
# 1 63.3635 9.8809 33.7043 0.0000 0.0000 0.0000
# 2 9.8809 23.8634 29.3659 0.0000 0.0000 0.0000
# 3 33.7043 29.3659 60.5179 0.0000 0.0000 0.0000
# 4 0.0000 0.0000 0.0000 27.6391 0.0000 0.0000
# 5 0.0000 0.0000 0.0000 0.0000 26.8052 0.0000
# 6 0.0000 0.0000 0.0000 0.0000 0.0000 30.6482
#
#
#
# Elastic Compliance Matrix: (Units=1/GPa)
#
#
# Indices 1 2 3 4 5 6 
#
# 1 0.024855 0.016737 -0.021964 0.000000 0.000000 0.000000
# 2 0.016737 0.115287 -0.065263 0.000000 0.000000 0.000000
# 3 -0.021964 -0.065263 0.060425 0.000000 0.000000 0.000000
# 4 0.000000 0.000000 0.000000 0.036181 0.000000 0.000000
# 5 0.000000 0.000000 0.000000 0.000000 0.037306 0.000000
# 6 0.000000 0.000000 0.000000 0.000000 0.000000 0.032628
#
#
# Mechanical properties :
#
#
# Convention : Reuss Voigt Hill
#
# Bulk Modulus (GPa) = 16.78246 32.62744 24.70495
# Shear Modulus (GPa) = 10.69462 22.00476 16.34969
#
# Velocity S-wave (km/s) = 2.35501 3.37807 2.91182
# Velocity P-wave (km/s) = 4.01222 5.66879 4.91086
#
# Compressibility (1/GPa) = 0.05958602
#
# Stress axis : x y z
#
# Youngs Moduli (GPa) = 40.23327 8.67402 16.54944
#
# Poissons Ratio (x) = -0.14518 0.36349
# Poissons Ratio (y) = -0.67338 1.08007
# Poissons Ratio (z) = 0.88368 0.56610
#
# Static dielectric constant tensor:
#      x y z
#    x 1.670300 0.000000 0.000000 
#    y 0.000000 1.675040 0.000000 
#    z 0.000000 0.000000 1.633380 
# 
# From -- ./inp_files/7948.got.cif
#   From: 2010.05.17/outbox.cif.g08.bks.cpg/sg71_4_cif.got.tgz:7948.got - 2010.06.03 16:22:01.
