data_PCOD9524702
_publ_section_title
;
Structure prediction by ZEFSAII (Michael W. Deem and Ramdas Pophale) SiO2 
 PCOD9524702
Probable space group: I M M M
;
_chemical_formula_sum "Si O2"
_cell_formula_units_Z 52
_cell_length_a 30.000000
_cell_length_b 21.000000
_cell_length_c 9.000000
_cell_angle_alpha 90.000000
_cell_angle_beta 90.000000
_cell_angle_gamma 90.000000
_cell_volume 5670.000000
_symmetry_space_group_name_H-M "I M M M"
_symmetry_group_IT_number 71
_symmetry_cell_setting 'orthorhombic'
loop_
_space_group_symop_operation_xyz
x,y,z
-x,-y,z
x,-y,-z
-x,y,-z
-x,-y,-z
x,y,-z
-x,y,z
x,-y,z
1/2+x,1/2+y,1/2+z
1/2-x,1/2-y,1/2+z
1/2+x,1/2-y,1/2-z
1/2-x,1/2+y,1/2-z
1/2-x,1/2-y,1/2-z
1/2+x,1/2+y,1/2-z
1/2-x,1/2+y,1/2+z
1/2+x,1/2-y,1/2+z
loop_
_atom_site_type_symbol
_atom_site_label
_atom_site_fract_x
_atom_site_fract_y
_atom_site_fract_z
Si Si1 0.103019 0.883336 0.826686
Si Si2 0.135405 0.576415 0.166464
Si Si3 0.448014 0.500000 0.177087
Si Si4 0.810458 0.923235 0.328845
Si Si5 0.778318 0.422544 0.666792
Si Si6 0.051431 0.221842 0.671252
Si Si7 0.949549 0.625611 0.326901
O O1 0.153631 0.890645 0.775276
O O2 0.083297 0.815739 0.779683
O O3 0.075547 0.937627 0.740830
O O4 0.098645 0.894498 0.000000
O O5 0.138711 0.500000 0.163150
O O6 0.174031 0.600216 0.275483
O O7 0.087343 0.594579 0.225813
O O8 0.142822 0.600302 0.000000
O O9 0.500000 0.500000 0.216335
O O10 0.443589 0.500000 0.000000
O O11 0.818832 0.907548 0.500000
O O12 0.760935 0.905433 0.278845
O O13 0.814983 0.000000 0.312827
O O14 0.768886 0.400774 0.500000
O O15 0.779454 0.500000 0.663505
O O16 0.061735 0.204735 0.500000
O O17 0.054075 0.297881 0.684085
O O18 0.000000 0.203397 0.699313
O O19 0.942445 0.608472 0.500000
O O20 0.000000 0.607543 0.286754
#
# Coordination Sequence:
#
# PCOD9524702 Si02
#       7
#    16  16   8  16  16  16  16
#     4  12  23  33  50  76 105 134 172 220 266 314
#     4  10  20  33  51  79 113 144 173 206 254 312
#     4  11  23  37  51  69  99 139 177 217 270 321
#     4  10  19  32  51  73 102 138 175 213 261 315
#     4   9  17  30  50  75 104 136 172 214 257 303
#     4   9  19  37  57  74  97 134 178 218 260 314
#     4   9  19  36  57  79 103 136 178 219 257 303
#
# _framework density 9.1710759999999993
#
# number of rings (size 3 to 8) (size 9 to 14) (size 15 to 20)
#    0.000    2.077    0.769    4.385    0.000    7.385 
#    0.000    3.077    0.000    0.923    0.000    0.000 
#    0.000    0.000    0.000    0.000    0.000    0.000 
#
# Total GULP energy -290148.690435 kJ/mol
# GULP energy per Si atom -5579.782508 kJ/mol
# Density = 0.915020 g / cm^3
# Si number density = 9.171076 Si / 1000 Ang^3
#
#
#
# Elastic Constant Matrix: (Units=GPa)
#
#
# Indices 1 2 3 4 5 6 
#
# 1 59.2577 2.2687 25.7890 0.0000 0.0000 0.0000
# 2 2.2687 -8.9807 8.5943 0.0000 0.0000 0.0000
# 3 25.7890 8.5943 14.3488 0.0000 0.0000 0.0000
# 4 0.0000 0.0000 0.0000 3.5413 0.0000 0.0000
# 5 0.0000 0.0000 0.0000 0.0000 37.7662 0.0000
# 6 0.0000 0.0000 0.0000 0.0000 0.0000 6.1294
#
#
#
# Elastic Compliance Matrix: (Units=1/GPa)
#
#
# Indices 1 2 3 4 5 6 
#
# 1 0.039685 -0.037015 -0.049155 0.000000 0.000000 0.000000
# 2 -0.037015 -0.036256 0.088241 0.000000 0.000000 0.000000
# 3 -0.049155 0.088241 0.105184 0.000000 0.000000 0.000000
# 4 0.000000 0.000000 0.000000 0.282379 0.000000 0.000000
# 5 0.000000 0.000000 0.000000 0.000000 0.026479 0.000000
# 6 0.000000 0.000000 0.000000 0.000000 0.000000 0.163149
#
#
# Mechanical properties :
#
#
# Convention : Reuss Voigt Hill
#
# Bulk Modulus (GPa) = 8.86859 15.32551 12.09705
# Shear Modulus (GPa) = 8.14252 11.35232 9.74742
#
# Velocity S-wave (km/s) = 2.10924 2.49051 2.30776
# Velocity P-wave (km/s) = 3.28290 4.07966 3.70278
#
# Compressibility (1/GPa) = 0.11275745
#
# Stress axis : x y z
#
# Youngs Moduli (GPa) = 25.19868 -27.58155 9.50711
#
# Poissons Ratio (x) = -1.02092 0.46732
# Poissons Ratio (y) = 0.93272 -0.83892
# Poissons Ratio (z) = 1.23863 2.43384
#
# Static dielectric constant tensor:
#      x y z
#    x 1.629880 0.000000 0.000000 
#    y 0.000000 1.609960 0.000000 
#    z 0.000000 0.000000 1.623480 
# 
# From -- ./inp_files/16973.got.cif
#   From: 2010.05.17/outbox.ucp.g08.bks.cvg/sg71_9_cif.got.tgz:16973.got - 2010.06.11 16:29:00.
