data_PCOD9524265
_publ_section_title
;
Structure prediction by ZEFSAII (Michael W. Deem and Ramdas Pophale) SiO2 
 PCOD9524265
Probable space group: I M M M
;
_chemical_formula_sum "Si O2"
_cell_formula_units_Z 116
_cell_length_a 8.045599
_cell_length_b 23.041429
_cell_length_c 30.293579
_cell_angle_alpha 90.000000
_cell_angle_beta 90.000000
_cell_angle_gamma 90.000000
_cell_volume 5615.887235
_symmetry_space_group_name_H-M "I M M M"
_symmetry_group_IT_number 71
_symmetry_cell_setting 'orthorhombic'
loop_
_space_group_symop_operation_xyz
x,y,z
-x,-y,z
x,-y,-z
-x,y,-z
-x,-y,-z
x,y,-z
-x,y,z
x,-y,z
1/2+x,1/2+y,1/2+z
1/2-x,1/2-y,1/2+z
1/2+x,1/2-y,1/2-z
1/2-x,1/2+y,1/2-z
1/2-x,1/2-y,1/2-z
1/2+x,1/2+y,1/2-z
1/2-x,1/2+y,1/2+z
1/2+x,1/2-y,1/2+z
loop_
_atom_site_type_symbol
_atom_site_label
_atom_site_fract_x
_atom_site_fract_y
_atom_site_fract_z
Si Si1 0.698647 0.933403 0.875913
Si Si2 0.310363 0.636277 0.867714
Si Si3 0.311006 0.934731 0.709475
Si Si4 0.193656 0.257557 0.338066
Si Si5 0.300796 0.065561 0.450419
Si Si6 0.194837 0.675771 0.431768
Si Si7 0.312617 0.633493 0.710538
Si Si8 0.500000 0.697004 0.500000
O O1 0.500000 0.931870 0.867160
O O2 0.725508 0.891400 0.917650
O O3 0.784126 0.905005 0.833329
O O4 0.748853 0.000000 0.882709
O O5 0.500000 0.652373 0.876845
O O6 0.298359 0.586802 0.830969
O O7 0.231927 0.693890 0.846095
O O8 0.241289 0.611832 0.913265
O O9 0.500000 0.935149 0.692721
O O10 0.298400 0.891796 0.750619
O O11 0.267610 0.000000 0.723926
O O12 0.199584 0.289009 0.385713
O O13 0.278697 0.300524 0.303542
O O14 0.000000 0.253076 0.324482
O O15 0.240699 0.080108 0.500000
O O16 0.500000 0.062706 0.452396
O O17 0.240734 0.000000 0.439416
O O18 0.348159 0.695286 0.462106
O O19 0.000000 0.680808 0.447646
O O20 0.500000 0.627136 0.726298
#
# Coordination Sequence:
#
# PCOD9524265 Si02
#       8
#    16  16  16  16  16  16  16   4
#     4   9  18  35  58  81 111 154 196 239 300 363
#     4  11  23  39  61  89 120 154 195 247 301 346
#     4  11  24  41  60  86 122 162 197 230 286 357
#     4   9  21  42  61  80 115 158 196 240 302 361
#     4   9  19  38  61  86 119 159 200 240 291 357
#     4   9  20  39  58  82 118 155 198 252 306 371
#     4  11  22  35  59  90 117 149 195 250 292 340
#     4  12  22  36  61  88 112 156 205 250 320 364
#
# _framework density 20.655684999999998
#
# number of rings (size 3 to 8) (size 9 to 14) (size 15 to 20)
#    0.000    2.069    0.000    4.345    3.862    6.897 
#    1.241    1.379    0.000    1.655    0.000    0.000 
#    0.000    0.000    0.000    0.000    0.000    0.000 
#
# Total GULP energy -323105.678945 kJ/mol
# GULP energy per Si atom -5570.787568 kJ/mol
# Density = 2.060867 g / cm^3
# Si number density = 20.655685 Si / 1000 Ang^3
#
#
#
# Elastic Constant Matrix: (Units=GPa)
#
#
# Indices 1 2 3 4 5 6 
#
# 1 58.7873 6.0369 3.8878 0.0000 0.0000 0.0000
# 2 6.0369 91.9731 23.3890 0.0000 0.0000 0.0000
# 3 3.8878 23.3890 55.5654 0.0000 0.0000 0.0000
# 4 0.0000 0.0000 0.0000 29.9398 0.0000 0.0000
# 5 0.0000 0.0000 0.0000 0.0000 31.3713 0.0000
# 6 0.0000 0.0000 0.0000 0.0000 0.0000 18.3082
#
#
#
# Elastic Compliance Matrix: (Units=1/GPa)
#
#
# Indices 1 2 3 4 5 6 
#
# 1 0.017159 -0.000919 -0.000814 0.000000 0.000000 0.000000
# 2 -0.000919 0.012225 -0.005082 0.000000 0.000000 0.000000
# 3 -0.000814 -0.005082 0.020193 0.000000 0.000000 0.000000
# 4 0.000000 0.000000 0.000000 0.033400 0.000000 0.000000
# 5 0.000000 0.000000 0.000000 0.000000 0.031876 0.000000
# 6 0.000000 0.000000 0.000000 0.000000 0.000000 0.054620
#
#
# Mechanical properties :
#
#
# Convention : Reuss Voigt Hill
#
# Bulk Modulus (GPa) = 27.81827 30.32812 29.07320
# Shear Modulus (GPa) = 25.62980 27.45800 26.54390
#
# Velocity S-wave (km/s) = 3.52634 3.64994 3.58867
# Velocity P-wave (km/s) = 5.48424 5.69889 5.59259
#
# Compressibility (1/GPa) = 0.03594760
#
# Stress axis : x y z
#
# Youngs Moduli (GPa) = 58.27949 81.79710 49.52271
#
# Poissons Ratio (x) = 0.07520 0.04029
# Poissons Ratio (y) = 0.05358 0.25166
# Poissons Ratio (z) = 0.04742 0.41567
#
# Static dielectric constant tensor:
#      x y z
#    x 1.733560 0.000000 0.000000 
#    y 0.000000 1.778570 0.000000 
#    z 0.000000 0.000000 1.702210 
# 
# From -- ./inp_files/68502.got.cif
#   From: 2010.05.17/outbox.cif.g08.bks.cpg/sg71_35_cif.got.tgz:68502.got - 2010.06.03 16:22:01.
