data_PCOD9524657
_publ_section_title
;
Structure prediction by ZEFSAII (Michael W. Deem and Ramdas Pophale) SiO2 
 PCOD9524657
Probable space group: I M M M
;
_chemical_formula_sum "Si O2"
_cell_formula_units_Z 104
_cell_length_a 27.102681
_cell_length_b 20.905423
_cell_length_c 7.441819
_cell_angle_alpha 90.000000
_cell_angle_beta 90.000000
_cell_angle_gamma 90.000000
_cell_volume 4216.482633
_symmetry_space_group_name_H-M "I M M M"
_symmetry_group_IT_number 71
_symmetry_cell_setting 'orthorhombic'
loop_
_space_group_symop_operation_xyz
x,y,z
-x,-y,z
x,-y,-z
-x,y,-z
-x,-y,-z
x,y,-z
-x,y,z
x,-y,z
1/2+x,1/2+y,1/2+z
1/2-x,1/2-y,1/2+z
1/2+x,1/2-y,1/2-z
1/2-x,1/2+y,1/2-z
1/2-x,1/2-y,1/2-z
1/2+x,1/2+y,1/2-z
1/2-x,1/2+y,1/2+z
1/2+x,1/2-y,1/2+z
loop_
_atom_site_type_symbol
_atom_site_label
_atom_site_fract_x
_atom_site_fract_y
_atom_site_fract_z
Si Si1 0.583422 0.930385 0.218357
Si Si2 0.396317 0.571436 0.713304
Si Si3 0.163537 0.261306 0.781155
Si Si4 0.191801 0.403445 0.295621
Si Si5 0.500000 0.573076 0.211460
Si Si6 0.053840 0.285670 0.789913
Si Si7 0.794494 0.129165 0.779646
O O1 0.640638 0.928952 0.282332
O O2 0.559657 0.863455 0.277589
O O3 0.562172 0.000000 0.269736
O O4 0.583354 0.927767 0.000000
O O5 0.389876 0.567655 0.500000
O O6 0.402026 0.500000 0.787742
O O7 0.448620 0.605725 0.739094
O O8 0.346089 0.600109 0.782689
O O9 0.183620 0.327235 0.705535
O O10 0.105868 0.256782 0.721549
O O11 0.198711 0.203077 0.728341
O O12 0.163013 0.264911 0.000000
O O13 0.193833 0.427414 0.500000
O O14 0.246313 0.408704 0.214813
O O15 0.500000 0.500000 0.292702
O O16 0.500000 0.567104 0.000000
O O17 0.000000 0.268633 0.711667
O O18 0.052532 0.268898 0.000000
O O19 0.792300 0.127352 0.000000
#
# Coordination Sequence:
#
# PCOD9524657 Si02
#       7
#    16  16  16  16   8  16  16
#     4   9  18  31  47  69  95 124 156 187 227 279
#     4   9  17  30  48  70  94 120 153 191 230 273
#     4   9  17  31  48  67  92 120 156 193 230 276
#     4   9  17  30  48  68  94 124 154 188 230 275
#     4   9  17  31  49  65  87 121 153 183 224 271
#     4   9  18  32  48  66  90 121 156 194 236 276
#     4   9  17  29  47  73  96 119 154 193 230 273
#
# _framework density 24.665106999999999
#
# number of rings (size 3 to 8) (size 9 to 14) (size 15 to 20)
#    0.000    3.000    0.000    0.692    0.000    2.462 
#    1.385    6.154    0.000    0.000    0.000    2.154 
#    0.000    0.000    0.000    0.000    0.000    0.000 
#
# Total GULP energy -290101.107289 kJ/mol
# GULP energy per Si atom -5578.867448 kJ/mol
# Density = 2.460897 g / cm^3
# Si number density = 24.665107 Si / 1000 Ang^3
#
#
#
# Elastic Constant Matrix: (Units=GPa)
#
#
# Indices 1 2 3 4 5 6 
#
# 1 159.2939 2.4760 -1.4140 0.0000 0.0000 0.0000
# 2 2.4760 32.3049 -2.9193 0.0000 0.0000 0.0000
# 3 -1.4140 -2.9193 83.9737 0.0000 0.0000 0.0000
# 4 0.0000 0.0000 0.0000 28.2991 0.0000 0.0000
# 5 0.0000 0.0000 0.0000 0.0000 -10.2104 0.0000
# 6 0.0000 0.0000 0.0000 0.0000 0.0000 54.6645
#
#
#
# Elastic Compliance Matrix: (Units=1/GPa)
#
#
# Indices 1 2 3 4 5 6 
#
# 1 0.006286 -0.000474 0.000089 0.000000 0.000000 0.000000
# 2 -0.000474 0.031088 0.001073 0.000000 0.000000 0.000000
# 3 0.000089 0.001073 0.011947 0.000000 0.000000 0.000000
# 4 0.000000 0.000000 0.000000 0.035337 0.000000 0.000000
# 5 0.000000 0.000000 0.000000 0.000000 -0.097939 0.000000
# 6 0.000000 0.000000 0.000000 0.000000 0.000000 0.018293
#
#
# Mechanical properties :
#
#
# Convention : Reuss Voigt Hill
#
# Bulk Modulus (GPa) = 19.72449 30.20642 24.96545
# Shear Modulus (GPa) = 243.48922 33.04596 138.26759
#
# Velocity S-wave (km/s) = 9.94648 3.66428 7.49531
# Velocity P-wave (km/s) = 11.82895 5.49325 9.22225
#
# Compressibility (1/GPa) = 0.05069840
#
# Stress axis : x y z
#
# Youngs Moduli (GPa) = 159.08723 32.16647 83.70096
#
# Poissons Ratio (x) = 0.01524 -0.00748
# Poissons Ratio (y) = 0.07536 -0.08979
# Poissons Ratio (z) = -0.01422 -0.03451
#
# Static dielectric constant tensor:
#      x y z
#    x 2.023590 0.000000 0.000000 
#    y 0.000000 1.964910 0.000000 
#    z 0.000000 0.000000 1.938630 
# 
# From -- ./inp_files/15258.got.cif
#   From: 2010.05.17/outbox.cif.g08.bks.cpg/sg71_8_cif.got.tgz:15258.got - 2010.06.03 16:22:01.
