data_PCOD9524828
_publ_section_title
;
Structure prediction by ZEFSAII (Michael W. Deem and Ramdas Pophale) SiO2 
 PCOD9524828
Probable space group: I M M M
;
_chemical_formula_sum "Si O2"
_cell_formula_units_Z 44
_cell_length_a 9.000000
_cell_length_b 21.000000
_cell_length_c 24.000000
_cell_angle_alpha 90.000000
_cell_angle_beta 90.000000
_cell_angle_gamma 90.000000
_cell_volume 4536.000000
_symmetry_space_group_name_H-M "I M M M"
_symmetry_group_IT_number 71
_symmetry_cell_setting 'orthorhombic'
loop_
_space_group_symop_operation_xyz
x,y,z
-x,-y,z
x,-y,-z
-x,y,-z
-x,-y,-z
x,y,-z
-x,y,z
x,-y,z
1/2+x,1/2+y,1/2+z
1/2-x,1/2-y,1/2+z
1/2+x,1/2-y,1/2-z
1/2-x,1/2+y,1/2-z
1/2-x,1/2-y,1/2-z
1/2+x,1/2+y,1/2-z
1/2-x,1/2+y,1/2+z
1/2+x,1/2-y,1/2+z
loop_
_atom_site_type_symbol
_atom_site_label
_atom_site_fract_x
_atom_site_fract_y
_atom_site_fract_z
Si Si1 0.828833 0.864882 0.387505
Si Si2 0.321687 0.930959 0.218072
Si Si3 0.322092 0.806842 0.714990
Si Si4 0.323109 0.340826 0.500000
Si Si5 0.661881 0.713917 0.000000
Si Si6 0.676526 0.571931 0.401841
Si Si7 0.681527 0.500000 0.066030
O O1 0.736789 0.819184 0.346903
O O2 0.830324 0.830615 0.446808
O O3 0.771746 0.936307 0.400673
O O4 0.000000 0.869249 0.367173
O O5 0.500000 0.930614 0.215471
O O6 0.275719 0.872375 0.255195
O O7 0.258002 0.923364 0.156582
O O8 0.272664 0.000000 0.239993
O O9 0.500000 0.799877 0.715468
O O10 0.250000 0.750000 0.750000
O O11 0.500000 0.350459 0.500000
O O12 0.284428 0.267647 0.500000
O O13 0.266274 0.376601 0.445290
O O14 0.500000 0.746785 0.000000
O O15 0.500000 0.580692 0.392640
O O16 0.696447 0.500000 0.424020
O O17 0.500000 0.500000 0.064947
O O18 0.726788 0.500000 0.000000
#
# Coordination Sequence:
#
# PCOD9524828 Si02
#       7
#    16  16  16   8   8  16   8
#     4  10  21  39  63  91 120 154 198 245 296 353
#     4   9  20  39  59  80 110 148 188 232 284 340
#     4  11  25  42  62  86 119 159 200 248 299 357
#     4  10  21  34  53  81 113 147 186 234 285 339
#     4  10  22  38  57  83 118 155 190 232 285 348
#     4   9  18  34  56  81 109 142 183 233 284 332
#     4   9  16  34  65  95 123 157 199 248 299 358
#
# _framework density 9.7001760000000008
#
# number of rings (size 3 to 8) (size 9 to 14) (size 15 to 20)
#    0.000    2.273    0.909    0.818    3.818    4.000 
#    0.000    0.000    0.000    3.273    0.000    0.000 
#    0.000    0.000    0.000    0.000    0.000    0.000 
#
# Total GULP energy -245318.361457 kJ/mol
# GULP energy per Si atom -5575.417306 kJ/mol
# Density = 0.967810 g / cm^3
# Si number density = 9.700176 Si / 1000 Ang^3
#
#
#
# Elastic Constant Matrix: (Units=GPa)
#
#
# Indices 1 2 3 4 5 6 
#
# 1 6.8569 32.4125 25.3362 0.0000 0.0000 0.0000
# 2 32.4125 78.2063 50.0742 0.0000 0.0000 0.0000
# 3 25.3362 50.0742 80.9088 0.0000 0.0000 0.0000
# 4 0.0000 0.0000 0.0000 28.4017 0.0000 0.0000
# 5 0.0000 0.0000 0.0000 0.0000 20.5170 0.0000
# 6 0.0000 0.0000 0.0000 0.0000 0.0000 22.5550
#
#
#
# Elastic Compliance Matrix: (Units=1/GPa)
#
#
# Indices 1 2 3 4 5 6 
#
# 1 -0.142726 0.050579 0.013391 0.000000 0.000000 0.000000
# 2 0.050579 0.003256 -0.017853 0.000000 0.000000 0.000000
# 3 0.013391 -0.017853 0.019216 0.000000 0.000000 0.000000
# 4 0.000000 0.000000 0.000000 0.035209 0.000000 0.000000
# 5 0.000000 0.000000 0.000000 0.000000 0.048740 0.000000
# 6 0.000000 0.000000 0.000000 0.000000 0.000000 0.044336
#
#
# Mechanical properties :
#
#
# Convention : Reuss Voigt Hill
#
# Bulk Modulus (GPa) = -35.68588 42.40198 3.35805
# Shear Modulus (GPa) = -53.45097 18.17136 -17.63981
#
# Velocity S-wave (km/s) = -5.25465 3.06380 -3.01865
# Velocity P-wave (km/s) = 7.43300 5.86682 3.22723
#
# Compressibility (1/GPa) = -0.02802229
#
# Stress axis : x y z
#
# Youngs Moduli (GPa) = -7.00641 307.15456 52.04096
#
# Poissons Ratio (x) = -15.53547 -0.69689
# Poissons Ratio (y) = 0.35437 0.92911
# Poissons Ratio (z) = 0.09382 5.48376
#
# Static dielectric constant tensor:
#      x y z
#    x 1.682690 0.000000 0.000000 
#    y 0.000000 1.678130 0.000000 
#    z 0.000000 0.000000 1.795730 
# 
# From -- ./inp_files/57614.got.cif
#   From: 2010.05.17/outbox.ucp.g08.bks.cvg/sg71_29_cif.got.tgz:57614.got - 2010.06.11 16:29:00.
