data_PCOD9524522
_publ_section_title
;
Structure prediction by ZEFSAII (Michael W. Deem and Ramdas Pophale) SiO2 
 PCOD9524522
Probable space group: I M M M
;
_chemical_formula_sum "Si O2"
_cell_formula_units_Z 96
_cell_length_a 7.416730
_cell_length_b 24.579933
_cell_length_c 24.330893
_cell_angle_alpha 90.000000
_cell_angle_beta 90.000000
_cell_angle_gamma 90.000000
_cell_volume 4435.588132
_symmetry_space_group_name_H-M "I M M M"
_symmetry_group_IT_number 71
_symmetry_cell_setting 'orthorhombic'
loop_
_space_group_symop_operation_xyz
x,y,z
-x,-y,z
x,-y,-z
-x,y,-z
-x,-y,-z
x,y,-z
-x,y,z
x,-y,z
1/2+x,1/2+y,1/2+z
1/2-x,1/2-y,1/2+z
1/2+x,1/2-y,1/2-z
1/2-x,1/2+y,1/2-z
1/2-x,1/2-y,1/2-z
1/2+x,1/2+y,1/2-z
1/2-x,1/2+y,1/2+z
1/2+x,1/2-y,1/2+z
loop_
_atom_site_type_symbol
_atom_site_label
_atom_site_fract_x
_atom_site_fract_y
_atom_site_fract_z
Si Si1 0.291989 0.756718 0.839236
Si Si2 0.283725 0.058169 0.066058
Si Si3 0.778735 0.323033 0.436679
Si Si4 0.787692 0.061498 0.681384
Si Si5 0.780212 0.835259 0.742931
Si Si6 0.783286 0.563650 0.059319
O O1 0.500000 0.742234 0.848958
O O2 0.213778 0.775435 0.897028
O O3 0.283722 0.809635 0.799852
O O4 0.215716 0.707197 0.803959
O O5 0.500000 0.057709 0.074219
O O6 0.218308 0.117261 0.084516
O O7 0.213828 0.000000 0.087560
O O8 0.255027 0.058150 0.000000
O O9 0.726032 0.316553 0.500000
O O10 0.000000 0.323522 0.435548
O O11 0.717794 0.105024 0.725166
O O12 0.771114 0.084885 0.619124
O O13 0.000000 0.056846 0.691792
O O14 0.711259 0.000000 0.682995
O O15 0.000000 0.834297 0.744282
O O16 0.726458 0.500000 0.059759
O O17 0.000000 0.564725 0.058698
O O18 0.721769 0.586792 0.000000
#
# Coordination Sequence:
#
# PCOD9524522 Si02
#       6
#    16  16  16  16  16  16
#     4   9  17  30  48  67  85 110 145 178 212 259
#     4   7   9  14  26  46  74 106 131 149 182 237
#     4   8  13  22  38  60  84 107 132 167 209 249
#     4   9  17  29  45  64  86 114 149 187 224 262
#     4   9  18  32  47  63  85 114 148 183 217 254
#     4   8  14  25  41  62  89 119 147 176 217 269
#
# _framework density 21.643128000000001
#
# number of rings (size 3 to 8) (size 9 to 14) (size 15 to 20)
#    0.000    3.667    0.000    2.000    0.000    1.000 
#    0.000    3.333    0.000    4.500    0.000    0.000 
#    0.000    0.000    0.000    8.333    0.000    3.333 
#
# Total GULP energy -267210.815295 kJ/mol
# GULP energy per Si atom -5566.891985 kJ/mol
# Density = 2.159387 g / cm^3
# Si number density = 21.643128 Si / 1000 Ang^3
#
#
#
# Elastic Constant Matrix: (Units=GPa)
#
#
# Indices 1 2 3 4 5 6 
#
# 1 69.1509 -0.8361 -9.2718 0.0000 0.0000 0.0000
# 2 -0.8361 43.6081 26.0618 0.0000 0.0000 0.0000
# 3 -9.2718 26.0618 42.8850 0.0000 0.0000 0.0000
# 4 0.0000 0.0000 0.0000 24.9693 0.0000 0.0000
# 5 0.0000 0.0000 0.0000 0.0000 8.0291 0.0000
# 6 0.0000 0.0000 0.0000 0.0000 0.0000 -1.7365
#
#
#
# Elastic Compliance Matrix: (Units=1/GPa)
#
#
# Indices 1 2 3 4 5 6 
#
# 1 0.015079 -0.002606 0.004844 0.000000 0.000000 0.000000
# 2 -0.002606 0.036460 -0.022721 0.000000 0.000000 0.000000
# 3 0.004844 -0.022721 0.038173 0.000000 0.000000 0.000000
# 4 0.000000 0.000000 0.000000 0.040049 0.000000 0.000000
# 5 0.000000 0.000000 0.000000 0.000000 0.124547 0.000000
# 6 0.000000 0.000000 0.000000 0.000000 0.000000 -0.575876
#
#
# Mechanical properties :
#
#
# Convention : Reuss Voigt Hill
#
# Bulk Modulus (GPa) = 20.51414 20.83910 20.67662
# Shear Modulus (GPa) = -18.91411 15.56505 -1.67453
#
# Velocity S-wave (km/s) = -2.95940 2.68464 -0.88056
# Velocity P-wave (km/s) = 1.47596 4.38852 2.92239
#
# Compressibility (1/GPa) = 0.04874685
#
# Stress axis : x y z
#
# Youngs Moduli (GPa) = 66.31721 27.42700 26.19640
#
# Poissons Ratio (x) = 0.07146 -0.12688
# Poissons Ratio (y) = 0.17280 0.59520
# Poissons Ratio (z) = -0.32121 0.62317
#
# Static dielectric constant tensor:
#      x y z
#    x 1.818690 0.000000 0.000000 
#    y 0.000000 1.831030 0.000000 
#    z 0.000000 0.000000 1.792140 
# 
# From -- ./inp_files/61542.got.cif
#   From: 2010.05.17/outbox.cif.g08.bks.cpg/sg71_31_cif.got.tgz:61542.got - 2010.06.03 16:22:01.
