data_PCOD9524273
_publ_section_title
;
Structure prediction by ZEFSAII (Michael W. Deem and Ramdas Pophale) SiO2 
 PCOD9524273
Probable space group: I M M M
;
_chemical_formula_sum "Si O2"
_cell_formula_units_Z 96
_cell_length_a 21.029831
_cell_length_b 8.386895
_cell_length_c 28.532582
_cell_angle_alpha 90.000000
_cell_angle_beta 90.000000
_cell_angle_gamma 90.000000
_cell_volume 5032.433707
_symmetry_space_group_name_H-M "I M M M"
_symmetry_group_IT_number 71
_symmetry_cell_setting 'orthorhombic'
loop_
_space_group_symop_operation_xyz
x,y,z
-x,-y,z
x,-y,-z
-x,y,-z
-x,-y,-z
x,y,-z
-x,y,z
x,-y,z
1/2+x,1/2+y,1/2+z
1/2-x,1/2-y,1/2+z
1/2+x,1/2-y,1/2-z
1/2-x,1/2+y,1/2-z
1/2-x,1/2-y,1/2-z
1/2+x,1/2+y,1/2-z
1/2-x,1/2+y,1/2+z
1/2+x,1/2-y,1/2+z
loop_
_atom_site_type_symbol
_atom_site_label
_atom_site_fract_x
_atom_site_fract_y
_atom_site_fract_z
Si Si1 0.072894 0.307383 0.394136
Si Si2 0.804565 0.809669 0.446571
Si Si3 0.428154 0.305662 0.553865
Si Si4 0.810917 0.809257 0.116613
Si Si5 0.928178 0.694294 0.713992
Si Si6 0.688154 0.190796 0.277327
O O1 0.076419 0.500000 0.396278
O O2 0.125931 0.236454 0.427706
O O3 0.085698 0.260010 0.339929
O O4 0.000000 0.261748 0.405320
O O5 0.795545 0.752292 0.500000
O O6 0.751493 0.738689 0.412304
O O7 0.798346 0.000000 0.446122
O O8 0.415600 0.257270 0.500000
O O9 0.500000 0.255592 0.566495
O O10 0.427652 0.500000 0.554310
O O11 0.373178 0.249969 0.588496
O O12 0.809920 0.745019 0.169138
O O13 0.813590 0.000000 0.118702
O O14 0.928299 0.500000 0.714580
O O15 0.874645 0.750182 0.749864
O O16 0.000000 0.746253 0.725670
O O17 0.750000 0.250000 0.250000
O O18 0.687346 0.000000 0.275897
#
# Coordination Sequence:
#
# PCOD9524273 Si02
#       6
#    16  16  16  16  16  16
#     4   9  18  35  60  86 110 140 182 228 272 325
#     4  11  24  39  55  78 110 146 185 232 280 326
#     4   8  15  30  53  80 108 139 178 224 272 322
#     4  11  22  36  56  81 110 145 184 227 275 329
#     4   8  16  33  56  80 106 139 178 218 262 314
#     4  11  22  36  56  81 110 144 182 226 273 324
#
# _framework density 19.076256999999998
#
# number of rings (size 3 to 8) (size 9 to 14) (size 15 to 20)
#    0.000    2.333    0.000    4.500    0.000    4.667 
#    0.000    2.500    0.000    5.000    0.000    5.833 
#    0.000    0.000    0.000    0.000    0.000    0.000 
#
# Total GULP energy -267997.959673 kJ/mol
# GULP energy per Si atom -5583.290827 kJ/mol
# Density = 1.903284 g / cm^3
# Si number density = 19.076257 Si / 1000 Ang^3
#
#
#
# Elastic Constant Matrix: (Units=GPa)
#
#
# Indices 1 2 3 4 5 6 
#
# 1 87.5679 9.4184 46.0324 0.0000 0.0000 0.0000
# 2 9.4184 23.2973 8.7699 0.0000 0.0000 0.0000
# 3 46.0324 8.7699 81.3081 0.0000 0.0000 0.0000
# 4 0.0000 0.0000 0.0000 24.1575 0.0000 0.0000
# 5 0.0000 0.0000 0.0000 0.0000 43.1540 0.0000
# 6 0.0000 0.0000 0.0000 0.0000 0.0000 13.2018
#
#
#
# Elastic Compliance Matrix: (Units=1/GPa)
#
#
# Indices 1 2 3 4 5 6 
#
# 1 0.016496 -0.003287 -0.008985 0.000000 0.000000 0.000000
# 2 -0.003287 0.045395 -0.003036 0.000000 0.000000 0.000000
# 3 -0.008985 -0.003036 0.017713 0.000000 0.000000 0.000000
# 4 0.000000 0.000000 0.000000 0.041395 0.000000 0.000000
# 5 0.000000 0.000000 0.000000 0.000000 0.023173 0.000000
# 6 0.000000 0.000000 0.000000 0.000000 0.000000 0.075747
#
#
# Mechanical properties :
#
#
# Convention : Reuss Voigt Hill
#
# Bulk Modulus (GPa) = 20.41231 35.62385 28.01808
# Shear Modulus (GPa) = 18.73615 24.63283 21.68449
#
# Velocity S-wave (km/s) = 3.13736 3.59734 3.37520
# Velocity P-wave (km/s) = 4.88341 5.99745 5.46887
#
# Compressibility (1/GPa) = 0.04899004
#
# Stress axis : x y z
#
# Youngs Moduli (GPa) = 60.61945 22.02891 56.45543
#
# Poissons Ratio (x) = 0.07240 0.50724
# Poissons Ratio (y) = 0.19924 0.17137
# Poissons Ratio (z) = 0.54466 0.06687
#
# Static dielectric constant tensor:
#      x y z
#    x 1.669510 0.000000 0.000000 
#    y 0.000000 1.667870 0.000000 
#    z 0.000000 0.000000 1.661890 
# 
# From -- ./inp_files/63201.got.cif
#   From: 2010.05.17/outbox.cif.g08.bks.cpg/sg71_32_cif.got.tgz:63201.got - 2010.06.03 16:22:01.
