data_PCOD9524490
_publ_section_title
;
Structure prediction by ZEFSAII (Michael W. Deem and Ramdas Pophale) SiO2 
 PCOD9524490
Probable space group: I M M M
;
_chemical_formula_sum "Si O2"
_cell_formula_units_Z 88
_cell_length_a 27.128504
_cell_length_b 21.498566
_cell_length_c 7.285872
_cell_angle_alpha 90.000000
_cell_angle_beta 90.000000
_cell_angle_gamma 90.000000
_cell_volume 4249.294928
_symmetry_space_group_name_H-M "I M M M"
_symmetry_group_IT_number 71
_symmetry_cell_setting 'orthorhombic'
loop_
_space_group_symop_operation_xyz
x,y,z
-x,-y,z
x,-y,-z
-x,y,-z
-x,-y,-z
x,y,-z
-x,y,z
x,-y,z
1/2+x,1/2+y,1/2+z
1/2-x,1/2-y,1/2+z
1/2+x,1/2-y,1/2-z
1/2-x,1/2+y,1/2-z
1/2-x,1/2-y,1/2-z
1/2+x,1/2+y,1/2-z
1/2-x,1/2+y,1/2+z
1/2+x,1/2-y,1/2+z
loop_
_atom_site_type_symbol
_atom_site_label
_atom_site_fract_x
_atom_site_fract_y
_atom_site_fract_z
Si Si1 0.790071 0.000000 0.291727
Si Si2 0.721359 0.634599 0.222677
Si Si3 0.837530 0.365681 0.288286
Si Si4 0.056893 0.135549 0.724207
Si Si5 0.940188 0.000000 0.714410
Si Si6 0.173725 0.500000 0.724474
Si Si7 0.860344 0.768713 0.275738
O O1 0.801042 0.931825 0.213066
O O2 0.730250 0.000000 0.291171
O O3 0.809167 0.000000 0.500000
O O4 0.777938 0.640318 0.282379
O O5 0.688060 0.692426 0.279540
O O6 0.721680 0.632057 0.000000
O O7 0.853146 0.367417 0.500000
O O8 0.849001 0.434492 0.213762
O O9 0.858873 0.302072 0.209152
O O10 0.057392 0.133539 0.500000
O O11 0.074896 0.067246 0.787927
O O12 0.092655 0.190794 0.780284
O O13 0.000000 0.144227 0.778673
O O14 0.926692 0.000000 0.500000
O O15 0.000000 0.000000 0.724229
O O16 0.175796 0.500000 0.500000
O O17 0.859694 0.767189 0.500000
#
# Coordination Sequence:
#
# PCOD9524490 Si02
#       7
#     8  16  16  16   8   8  16
#     4   8  14  23  34  49  70  96 120 142 172 206
#     4   9  16  25  36  52  75  98 119 145 176 209
#     4   9  16  26  38  52  71  95 123 150 175 207
#     4   8  13  21  32  47  68  93 120 148 177 210
#     4   7  10  17  29  44  64  92 121 144 169 207
#     4   8  14  24  37  49  64  92 124 149 172 202
#     4   9  16  23  33  50  70  93 120 148 178 212
#
# _framework density 20.709318
#
# number of rings (size 3 to 8) (size 9 to 14) (size 15 to 20)
#    0.000    3.545    0.000    1.636    0.000    0.727 
#    0.000    3.636    0.000    0.000    0.000    0.636 
#    0.000    8.000    0.000    0.000    0.000   85.818 
#
# Total GULP energy -245283.105349 kJ/mol
# GULP energy per Si atom -5574.616031 kJ/mol
# Density = 2.066218 g / cm^3
# Si number density = 20.709318 Si / 1000 Ang^3
#
#
#
# Elastic Constant Matrix: (Units=GPa)
#
#
# Indices 1 2 3 4 5 6 
#
# 1 54.6473 60.5104 -5.2973 0.0000 0.0000 0.0000
# 2 60.5104 253.9674 7.9270 0.0000 0.0000 0.0000
# 3 -5.2973 7.9270 89.3068 0.0000 0.0000 0.0000
# 4 0.0000 0.0000 0.0000 -9.2892 0.0000 0.0000
# 5 0.0000 0.0000 0.0000 0.0000 -0.5519 0.0000
# 6 0.0000 0.0000 0.0000 0.0000 0.0000 56.2858
#
#
#
# Elastic Compliance Matrix: (Units=1/GPa)
#
#
# Indices 1 2 3 4 5 6 
#
# 1 0.025221 -0.006073 0.002035 0.000000 0.000000 0.000000
# 2 -0.006073 0.005411 -0.000840 0.000000 0.000000 0.000000
# 3 0.002035 -0.000840 0.011393 0.000000 0.000000 0.000000
# 4 0.000000 0.000000 0.000000 -0.107652 0.000000 0.000000
# 5 0.000000 0.000000 0.000000 0.000000 -1.811988 0.000000
# 6 0.000000 0.000000 0.000000 0.000000 0.000000 0.017766
#
#
# Mechanical properties :
#
#
# Convention : Reuss Voigt Hill
#
# Bulk Modulus (GPa) = 30.99075 58.24464 44.61770
# Shear Modulus (GPa) = -2.71837 31.60770 14.44467
#
# Velocity S-wave (km/s) = -1.14694 3.91097 2.64388
# Velocity P-wave (km/s) = 3.63911 6.96995 5.55982
#
# Compressibility (1/GPa) = 0.03226769
#
# Stress axis : x y z
#
# Youngs Moduli (GPa) = 39.65028 184.82243 87.77577
#
# Poissons Ratio (x) = 1.12235 -0.17862
# Poissons Ratio (y) = 0.24078 0.07377
# Poissons Ratio (z) = -0.08069 0.15533
#
# Static dielectric constant tensor:
#      x y z
#    x 1.683760 0.000000 0.000000 
#    y 0.000000 1.796940 0.000000 
#    z 0.000000 0.000000 1.741730 
# 
# From -- ./inp_files/11427.got.cif
#   From: 2010.05.17/outbox.cif.g08.bks.cpg/sg71_6_cif.got.tgz:11427.got - 2010.06.03 16:22:01.
