data_PCOD9524763
_publ_section_title
;
Structure prediction by ZEFSAII (Michael W. Deem and Ramdas Pophale) SiO2 
 PCOD9524763
Probable space group: I M M M
;
_chemical_formula_sum "Si O2"
_cell_formula_units_Z 44
_cell_length_a 30.000000
_cell_length_b 9.000000
_cell_length_c 18.000000
_cell_angle_alpha 90.000000
_cell_angle_beta 90.000000
_cell_angle_gamma 90.000000
_cell_volume 4860.000000
_symmetry_space_group_name_H-M "I M M M"
_symmetry_group_IT_number 71
_symmetry_cell_setting 'orthorhombic'
loop_
_space_group_symop_operation_xyz
x,y,z
-x,-y,z
x,-y,-z
-x,y,-z
-x,-y,-z
x,y,-z
-x,y,z
x,-y,z
1/2+x,1/2+y,1/2+z
1/2-x,1/2-y,1/2+z
1/2+x,1/2-y,1/2-z
1/2-x,1/2+y,1/2-z
1/2-x,1/2-y,1/2-z
1/2+x,1/2+y,1/2-z
1/2-x,1/2+y,1/2+z
1/2+x,1/2-y,1/2+z
loop_
_atom_site_type_symbol
_atom_site_label
_atom_site_fract_x
_atom_site_fract_y
_atom_site_fract_z
Si Si1 0.554311 0.672403 0.000000
Si Si2 0.794330 0.825267 0.282744
Si Si3 0.852814 0.175758 0.084722
Si Si4 0.617029 0.823143 0.723018
Si Si5 0.761949 0.667593 0.913060
Si Si6 0.051623 0.678084 0.649534
O O1 0.570448 0.749327 0.075000
O O2 0.565137 0.500000 0.000000
O O3 0.500000 0.688025 0.000000
O O4 0.750000 0.750000 0.250000
O O5 0.837766 0.739653 0.258399
O O6 0.783728 0.810318 0.369912
O O7 0.797329 0.000000 0.263671
O O8 0.885257 0.255619 0.141390
O O9 0.802063 0.221261 0.105200
O O10 0.857361 0.000000 0.089385
O O11 0.859463 0.224521 0.000000
O O12 0.577707 0.776238 0.777356
O O13 0.618686 0.000000 0.719190
O O14 0.777949 0.500000 0.893514
O O15 0.754593 0.675506 0.000000
O O16 0.054295 0.500000 0.642061
O O17 0.000000 0.719510 0.656372
#
# Coordination Sequence:
#
# PCOD9524763 Si02
#       6
#     8  16  16  16  16  16
#     4   9  17  31  55  85 111 137 173 217 265 315
#     4  11  21  33  51  74 106 141 174 215 261 309
#     4  10  20  33  52  77 103 134 174 218 262 313
#     4  11  22  35  54  79 106 138 177 219 266 317
#     4   9  18  33  51  69  94 133 178 216 253 301
#     4   9  19  37  59  80 106 141 179 219 263 314
#
# _framework density 9.0534979999999994
#
# number of rings (size 3 to 8) (size 9 to 14) (size 15 to 20)
#    0.000    2.091    1.818    1.909    0.000    4.364 
#    1.636    0.000    0.000    0.545    0.000    3.818 
#    0.000    0.000    0.000    0.000    0.000    0.000 
#
# Total GULP energy -245227.980871 kJ/mol
# GULP energy per Si atom -5573.363202 kJ/mol
# Density = 0.903289 g / cm^3
# Si number density = 9.053498 Si / 1000 Ang^3
#
#
#
# Elastic Constant Matrix: (Units=GPa)
#
#
# Indices 1 2 3 4 5 6 
#
# 1 41.9838 23.2120 53.6338 0.0000 0.0000 0.0000
# 2 23.2120 32.7992 49.2749 0.0000 0.0000 0.0000
# 3 53.6338 49.2749 133.5798 0.0000 0.0000 0.0000
# 4 0.0000 0.0000 0.0000 25.0666 0.0000 0.0000
# 5 0.0000 0.0000 0.0000 0.0000 27.2923 0.0000
# 6 0.0000 0.0000 0.0000 0.0000 0.0000 15.6864
#
#
#
# Elastic Compliance Matrix: (Units=1/GPa)
#
#
# Indices 1 2 3 4 5 6 
#
# 1 0.050902 -0.011931 -0.016036 0.000000 0.000000 0.000000
# 2 -0.011931 0.071184 -0.021468 0.000000 0.000000 0.000000
# 3 -0.016036 -0.021468 0.021844 0.000000 0.000000 0.000000
# 4 0.000000 0.000000 0.000000 0.039894 0.000000 0.000000
# 5 0.000000 0.000000 0.000000 0.000000 0.036640 0.000000
# 6 0.000000 0.000000 0.000000 0.000000 0.000000 0.063749
#
#
# Mechanical properties :
#
#
# Convention : Reuss Voigt Hill
#
# Bulk Modulus (GPa) = 22.19340 51.17826 36.68583
# Shear Modulus (GPa) = 12.55956 19.09185 15.82570
#
# Velocity S-wave (km/s) = 2.63654 3.25066 2.95957
# Velocity P-wave (km/s) = 4.64240 6.51266 5.65538
#
# Compressibility (1/GPa) = 0.04505843
#
# Stress axis : x y z
#
# Youngs Moduli (GPa) = 19.64577 14.04815 45.77937
#
# Poissons Ratio (x) = 0.16761 0.73413
# Poissons Ratio (y) = 0.23440 0.98277
# Poissons Ratio (z) = 0.31505 0.30158
#
# Static dielectric constant tensor:
#      x y z
#    x 1.604930 0.000000 0.000000 
#    y 0.000000 1.624370 0.000000 
#    z 0.000000 0.000000 1.719980 
# 
# From -- ./inp_files/8877.got.cif
#   From: 2010.05.17/outbox.ucp.g08.bks.cvg/sg71_5_cif.got.tgz:8877.got - 2010.06.11 16:29:00.
