data_PCOD9524494
_publ_section_title
;
Structure prediction by ZEFSAII (Michael W. Deem and Ramdas Pophale) SiO2 
 PCOD9524494
Probable space group: I M M M
;
_chemical_formula_sum "Si O2"
_cell_formula_units_Z 104
_cell_length_a 26.634301
_cell_length_b 25.085779
_cell_length_c 7.379475
_cell_angle_alpha 90.000000
_cell_angle_beta 90.000000
_cell_angle_gamma 90.000000
_cell_volume 4930.538578
_symmetry_space_group_name_H-M "I M M M"
_symmetry_group_IT_number 71
_symmetry_cell_setting 'orthorhombic'
loop_
_space_group_symop_operation_xyz
x,y,z
-x,-y,z
x,-y,-z
-x,y,-z
-x,-y,-z
x,y,-z
-x,y,z
x,-y,z
1/2+x,1/2+y,1/2+z
1/2-x,1/2-y,1/2+z
1/2+x,1/2-y,1/2-z
1/2-x,1/2+y,1/2-z
1/2-x,1/2-y,1/2-z
1/2+x,1/2+y,1/2-z
1/2-x,1/2+y,1/2+z
1/2+x,1/2-y,1/2+z
loop_
_atom_site_type_symbol
_atom_site_label
_atom_site_fract_x
_atom_site_fract_y
_atom_site_fract_z
Si Si1 0.648482 0.939986 0.214771
Si Si2 0.390386 0.560800 0.721756
Si Si3 0.122196 0.265422 0.791901
Si Si4 0.213535 0.341481 0.279738
Si Si5 0.500000 0.564804 0.292756
Si Si6 0.056965 0.362573 0.781503
Si Si7 0.827941 0.160813 0.778303
O O1 0.690538 0.898314 0.281430
O O2 0.594965 0.910681 0.239115
O O3 0.649639 0.000000 0.288873
O O4 0.656716 0.943955 0.000000
O O5 0.392331 0.560027 0.500000
O O6 0.380837 0.500000 0.778663
O O7 0.445872 0.578693 0.785708
O O8 0.349155 0.603459 0.775251
O O9 0.175001 0.297009 0.787732
O O10 0.082326 0.307492 0.713010
O O11 0.135330 0.207837 0.713485
O O12 0.106611 0.256556 0.000000
O O13 0.212069 0.340188 0.500000
O O14 0.270434 0.332163 0.221197
O O15 0.500000 0.500000 0.298184
O O16 0.500000 0.584669 0.500000
O O17 0.000000 0.369953 0.718090
O O18 0.055969 0.359234 0.000000
O O19 0.827845 0.162919 0.000000
#
# Coordination Sequence:
#
# PCOD9524494 Si02
#       7
#    16  16  16  16   8  16  16
#     4   9  18  31  46  66  90 115 145 180 219 262
#     4   8  13  21  33  52  80 111 140 170 206 247
#     4   9  17  30  45  62  86 113 144 179 214 253
#     4   9  17  29  45  63  86 114 143 175 213 256
#     4   7  10  18  30  44  70 108 139 159 188 237
#     4   9  18  32  47  63  87 118 148 180 220 262
#     4   9  16  25  39  61  83 109 146 180 209 250
#
# _framework density 21.093029000000001
#
# number of rings (size 3 to 8) (size 9 to 14) (size 15 to 20)
#    0.000    3.308    0.000    1.385    0.000    1.538 
#    1.385    4.615    0.000    0.000    0.000    0.000 
#    0.000    1.846    0.000    0.000    0.000   17.308 
#
# Total GULP energy -289909.184108 kJ/mol
# GULP energy per Si atom -5575.176617 kJ/mol
# Density = 2.104502 g / cm^3
# Si number density = 21.093029 Si / 1000 Ang^3
#
#
#
# Elastic Constant Matrix: (Units=GPa)
#
#
# Indices 1 2 3 4 5 6 
#
# 1 5.8886 -7.6678 -9.4635 0.0000 0.0000 0.0000
# 2 -7.6678 102.9945 -3.5626 0.0000 0.0000 0.0000
# 3 -9.4635 -3.5626 74.9093 0.0000 0.0000 0.0000
# 4 0.0000 0.0000 0.0000 -8.3930 0.0000 0.0000
# 5 0.0000 0.0000 0.0000 0.0000-1203.6577 0.0000
# 6 0.0000 0.0000 0.0000 0.0000 0.0000 8.4910
#
#
#
# Elastic Compliance Matrix: (Units=1/GPa)
#
#
# Indices 1 2 3 4 5 6 
#
# 1 0.246783 0.019483 0.032104 0.000000 0.000000 0.000000
# 2 0.019483 0.011263 0.002997 0.000000 0.000000 0.000000
# 3 0.032104 0.002997 0.017548 0.000000 0.000000 0.000000
# 4 0.000000 0.000000 0.000000 -0.119147 0.000000 0.000000
# 5 0.000000 0.000000 0.000000 0.000000 -0.000831 0.000000
# 6 0.000000 0.000000 0.000000 0.000000 0.000000 0.117772
#
#
# Mechanical properties :
#
#
# Convention : Reuss Voigt Hill
#
# Bulk Modulus (GPa) = 2.59901 15.82272 9.21086
# Shear Modulus (GPa) = 17.09549 -227.07951 -104.99201
#
# Velocity S-wave (km/s) = 2.84998 -10.38701 -7.06284
# Velocity P-wave (km/s) = 3.47343 11.67628 7.88260
#
# Compressibility (1/GPa) = 0.38476164
#
# Stress axis : x y z
#
# Youngs Moduli (GPa) = 4.05214 88.78292 56.98734
#
# Poissons Ratio (x) = -1.72977 -1.82949
# Poissons Ratio (y) = -0.07895 -0.17079
# Poissons Ratio (z) = -0.13009 -0.26609
#
# Static dielectric constant tensor:
#      x y z
#    x 1.732610 0.000000 0.000000 
#    y 0.000000 1.746960 0.000000 
#    z 0.000000 0.000000 1.873890 
# 
# From -- ./inp_files/15269.got.cif
#   From: 2010.05.17/outbox.cif.g08.bks.cpg/sg71_8_cif.got.tgz:15269.got - 2010.06.03 16:22:01.
