data_PCOD9524453
_publ_section_title
;
Structure prediction by ZEFSAII (Michael W. Deem and Ramdas Pophale) SiO2 
 PCOD9524453
Probable space group: I M M M
;
_chemical_formula_sum "Si O2"
_cell_formula_units_Z 64
_cell_length_a 13.905228
_cell_length_b 28.709016
_cell_length_c 7.860431
_cell_angle_alpha 90.000000
_cell_angle_beta 90.000000
_cell_angle_gamma 90.000000
_cell_volume 3137.926605
_symmetry_space_group_name_H-M "I M M M"
_symmetry_group_IT_number 71
_symmetry_cell_setting 'orthorhombic'
loop_
_space_group_symop_operation_xyz
x,y,z
-x,-y,z
x,-y,-z
-x,y,-z
-x,-y,-z
x,y,-z
-x,y,z
x,-y,z
1/2+x,1/2+y,1/2+z
1/2-x,1/2-y,1/2+z
1/2+x,1/2-y,1/2-z
1/2-x,1/2+y,1/2-z
1/2-x,1/2-y,1/2-z
1/2+x,1/2+y,1/2-z
1/2-x,1/2+y,1/2+z
1/2+x,1/2-y,1/2+z
loop_
_atom_site_type_symbol
_atom_site_label
_atom_site_fract_x
_atom_site_fract_y
_atom_site_fract_z
Si Si1 0.382593 0.767885 0.804988
Si Si2 0.230735 0.945932 0.308225
Si Si3 0.614423 0.405387 0.500000
Si Si4 0.111168 0.373209 0.294133
Si Si5 0.617502 0.298058 0.500000
O O1 0.500000 0.767615 0.805862
O O2 0.356568 0.820541 0.752300
O O3 0.351256 0.729792 0.668281
O O4 0.353071 0.759037 0.000000
O O5 0.192855 0.940686 0.500000
O O6 0.155267 0.930437 0.166258
O O7 0.321766 0.912309 0.284244
O O8 0.257093 0.000000 0.282751
O O9 0.500000 0.405826 0.500000
O O10 0.648872 0.351546 0.500000
O O11 0.114598 0.376906 0.500000
O O12 0.000000 0.378549 0.242112
O O13 0.500000 0.298123 0.500000
#
# Coordination Sequence:
#
# PCOD9524453 Si02
#       5
#    16  16   8  16   8
#     4   8  15  29  52  85 123 160 196 234 281 349
#     4  11  25  43  64  91 124 160 204 261 317 370
#     4  11  25  46  68  88 116 157 211 271 325 369
#     4   9  18  35  63  95 130 171 204 235 291 367
#     4   9  18  33  58  88 115 156 203 244 304 364
#
# _framework density 20.395634999999999
#
# number of rings (size 3 to 8) (size 9 to 14) (size 15 to 20)
#    0.000    2.500    1.250    1.875    1.750    3.500 
#    0.000    7.500    0.000    0.000    0.000    0.000 
#    0.000    0.000    0.000    0.000    0.000    0.000 
#
# Total GULP energy -178915.020861 kJ/mol
# GULP energy per Si atom -5591.094402 kJ/mol
# Density = 2.034921 g / cm^3
# Si number density = 20.395635 Si / 1000 Ang^3
#
#
#
# Elastic Constant Matrix: (Units=GPa)
#
#
# Indices 1 2 3 4 5 6 
#
# 1 80.1270 30.4660 34.3833 -0.0012 0.0004 0.0001
# 2 30.4660 114.9790 76.7056 -0.0050 0.0003 -0.0005
# 3 34.3833 76.7056 114.1870 0.0226 0.0023 -0.0001
# 4 -0.0012 -0.0050 0.0226 40.7576 0.0050 0.0001
# 5 0.0004 0.0003 0.0023 0.0050 7.4014 -0.0002
# 6 0.0001 -0.0005 -0.0001 0.0001 -0.0002 31.4631
#
#
#
# Elastic Compliance Matrix: (Units=1/GPa)
#
#
# Indices 1 2 3 4 5 6 
#
# 1 0.014510 -0.001685 -0.003237 0.000002 0.000000 0.000000
# 2 -0.001685 0.015956 -0.010211 0.000008 0.000003 0.000000
# 3 -0.003237 -0.010211 0.016592 -0.000011 -0.000005 0.000000
# 4 0.000002 0.000008 -0.000011 0.024535 -0.000017 0.000000
# 5 0.000000 0.000003 -0.000005 -0.000017 0.135110 0.000001
# 6 0.000000 0.000000 0.000000 0.000000 0.000001 0.031783
#
#
# Mechanical properties :
#
#
# Convention : Reuss Voigt Hill
#
# Bulk Modulus (GPa) = 59.55618 65.82254 62.68936
# Shear Modulus (GPa) = 18.22495 27.10695 22.66595
#
# Velocity S-wave (km/s) = 2.99251 3.64958 3.33725
# Velocity P-wave (km/s) = 6.41903 7.07829 6.75671
#
# Compressibility (1/GPa) = 0.01679087
#
# Stress axis : x y z
#
# Youngs Moduli (GPa) = 68.91788 62.67356 60.27172
#
# Poissons Ratio (x) = 0.10561 0.19511
# Poissons Ratio (y) = 0.11613 0.61543
# Poissons Ratio (z) = 0.22310 0.63995
#
# Static dielectric constant tensor:
#      x y z
#    x 1.758290 0.000000 -0.000010 
#    y 0.000000 1.686680 0.000000 
#    z -0.000010 0.000000 1.905280 
# 
# From -- ./inp_files/5557.got.cif
#   From: 2010.05.17/outbox.cif.g08.bks.cpg/sg71_3_cif.got.tgz:5557.got - 2010.06.03 16:22:01.
