data_PCOD9524034
_publ_section_title
;
Structure prediction by ZEFSAII (Michael W. Deem and Ramdas Pophale) SiO2 
 PCOD9524034
Probable space group: I M M M
;
_chemical_formula_sum "Si O2"
_cell_formula_units_Z 104
_cell_length_a 25.044425
_cell_length_b 8.214051
_cell_length_c 29.446821
_cell_angle_alpha 90.000000
_cell_angle_beta 90.000000
_cell_angle_gamma 90.000000
_cell_volume 6057.687653
_symmetry_space_group_name_H-M "I M M M"
_symmetry_group_IT_number 71
_symmetry_cell_setting 'orthorhombic'
loop_
_space_group_symop_operation_xyz
x,y,z
-x,-y,z
x,-y,-z
-x,y,-z
-x,-y,-z
x,y,-z
-x,y,z
x,-y,z
1/2+x,1/2+y,1/2+z
1/2-x,1/2-y,1/2+z
1/2+x,1/2-y,1/2-z
1/2-x,1/2+y,1/2-z
1/2-x,1/2-y,1/2-z
1/2+x,1/2+y,1/2-z
1/2-x,1/2+y,1/2+z
1/2+x,1/2-y,1/2+z
loop_
_atom_site_type_symbol
_atom_site_label
_atom_site_fract_x
_atom_site_fract_y
_atom_site_fract_z
Si Si1 0.354133 0.698995 0.947856
Si Si2 0.938113 0.801015 0.000000
Si Si3 0.438824 0.803783 0.677794
Si Si4 0.266863 0.196401 0.552305
Si Si5 0.875759 0.806323 0.090012
Si Si6 0.939280 0.805726 0.374754
Si Si7 0.935212 0.688101 0.276582
O O1 0.354602 0.500000 0.947319
O O2 0.293476 0.748319 0.935985
O O3 0.398132 0.758066 0.912266
O O4 0.365063 0.747647 0.000000
O O5 0.907860 0.744789 0.045453
O O6 0.000000 0.751352 0.000000
O O7 0.936960 0.000000 0.000000
O O8 0.500000 0.746254 0.670087
O O9 0.402055 0.758617 0.635823
O O10 0.418839 0.744038 0.727302
O O11 0.440956 0.000000 0.681349
O O12 0.277143 0.248303 0.500000
O O13 0.314109 0.260429 0.583440
O O14 0.268022 0.000000 0.553085
O O15 0.880779 0.000000 0.090412
O O16 0.920113 0.773848 0.323346
O O17 0.000000 0.740436 0.379541
O O18 0.942305 0.000000 0.380795
O O19 0.918477 0.500000 0.280093
O O20 0.000000 0.691537 0.274747
#
# Coordination Sequence:
#
# PCOD9524034 Si02
#       7
#    16   8  16  16  16  16  16
#     4   8  15  28  46  69  96 126 156 187 225 268
#     4   9  18  30  41  59  91 123 142 167 224 288
#     4   9  18  32  48  67  91 120 156 192 226 273
#     4   9  17  31  49  64  84 120 164 197 222 264
#     4  11  20  30  46  67  93 121 150 191 237 279
#     4   9  16  26  45  74 101 122 149 186 226 271
#     4   8  15  29  47  65  90 124 155 184 223 272
#
# _framework density 17.168267
#
# number of rings (size 3 to 8) (size 9 to 14) (size 15 to 20)
#    0.000    3.000    0.769    2.769    0.000    1.846 
#    0.000    3.846    0.000    4.154    0.000    2.154 
#    0.000    0.000    0.000    0.000    0.000    0.000 
#
# Total GULP energy -289639.458721 kJ/mol
# GULP energy per Si atom -5569.989591 kJ/mol
# Density = 1.712919 g / cm^3
# Si number density = 17.168267 Si / 1000 Ang^3
#
#
#
# Elastic Constant Matrix: (Units=GPa)
#
#
# Indices 1 2 3 4 5 6 
#
# 1 105.0799 10.0943 94.6950 0.0000 0.0000 0.0000
# 2 10.0943 5.8815 10.6249 0.0000 0.0000 0.0000
# 3 94.6950 10.6249 153.5229 0.0000 0.0000 0.0000
# 4 0.0000 0.0000 0.0000 14.4344 0.0000 0.0000
# 5 0.0000 0.0000 0.0000 0.0000 9.6765 0.0000
# 6 0.0000 0.0000 0.0000 0.0000 0.0000 9.4331
#
#
#
# Elastic Compliance Matrix: (Units=1/GPa)
#
#
# Indices 1 2 3 4 5 6 
#
# 1 0.022607 -0.015554 -0.012868 0.000000 0.000000 0.000000
# 2 -0.015554 0.205020 -0.004595 0.000000 0.000000 0.000000
# 3 -0.012868 -0.004595 0.014769 0.000000 0.000000 0.000000
# 4 0.000000 0.000000 0.000000 0.069279 0.000000 0.000000
# 5 0.000000 0.000000 0.000000 0.000000 0.103343 0.000000
# 6 0.000000 0.000000 0.000000 0.000000 0.000000 0.106010
#
#
# Mechanical properties :
#
#
# Convention : Reuss Voigt Hill
#
# Bulk Modulus (GPa) = 5.67015 55.03476 30.35246
# Shear Modulus (GPa) = 7.74176 16.64680 12.19428
#
# Velocity S-wave (km/s) = 2.12582 3.11726 2.66800
# Velocity P-wave (km/s) = 3.05538 6.71432 5.21620
#
# Compressibility (1/GPa) = 0.17636206
#
# Stress axis : x y z
#
# Youngs Moduli (GPa) = 44.23457 4.87757 67.71104
#
# Poissons Ratio (x) = 0.07587 0.87128
# Poissons Ratio (y) = 0.68803 0.31112
# Poissons Ratio (z) = 0.56920 0.02241
#
# Static dielectric constant tensor:
#      x y z
#    x 1.572900 0.000000 0.000000 
#    y 0.000000 1.606510 0.000000 
#    z 0.000000 0.000000 1.590990 
# 
# From -- ./inp_files/62298.got.cif
#   From: 2010.05.17/outbox.cif.g08.bks.cpg/sg71_32_cif.got.tgz:62298.got - 2010.06.03 16:22:01.
