data_PCOD9524550
_publ_section_title
;
Structure prediction by ZEFSAII (Michael W. Deem and Ramdas Pophale) SiO2 
 PCOD9524550
Probable space group: I M M M
;
_chemical_formula_sum "Si O2"
_cell_formula_units_Z 72
_cell_length_a 13.350438
_cell_length_b 33.048654
_cell_length_c 7.282745
_cell_angle_alpha 90.000000
_cell_angle_beta 90.000000
_cell_angle_gamma 90.000000
_cell_volume 3213.249098
_symmetry_space_group_name_H-M "I M M M"
_symmetry_group_IT_number 71
_symmetry_cell_setting 'orthorhombic'
loop_
_space_group_symop_operation_xyz
x,y,z
-x,-y,z
x,-y,-z
-x,y,-z
-x,-y,-z
x,y,-z
-x,y,z
x,-y,z
1/2+x,1/2+y,1/2+z
1/2-x,1/2-y,1/2+z
1/2+x,1/2-y,1/2-z
1/2-x,1/2+y,1/2-z
1/2-x,1/2-y,1/2-z
1/2+x,1/2+y,1/2-z
1/2-x,1/2+y,1/2+z
1/2+x,1/2-y,1/2+z
loop_
_atom_site_type_symbol
_atom_site_label
_atom_site_fract_x
_atom_site_fract_y
_atom_site_fract_z
Si Si1 0.500000 0.953848 0.223434
Si Si2 0.389370 0.726908 0.222683
Si Si3 0.693855 0.903219 0.224723
Si Si4 0.682575 0.187088 0.791574
Si Si5 0.613441 0.546767 0.723227
O O1 0.600481 0.930818 0.279165
O O2 0.500000 0.000000 0.284367
O O3 0.500000 0.953975 0.000000
O O4 0.500000 0.713231 0.274219
O O5 0.370965 0.773138 0.287169
O O6 0.299434 0.699477 0.292395
O O7 0.382053 0.727104 0.000000
O O8 0.675690 0.857419 0.289544
O O9 0.798679 0.923257 0.283513
O O10 0.696895 0.901991 0.000000
O O11 0.644194 0.183889 0.000000
O O12 0.613913 0.547126 0.500000
O O13 0.500000 0.557433 0.780565
O O14 0.633271 0.500000 0.777002
#
# Coordination Sequence:
#
# PCOD9524550 Si02
#       5
#     8  16  16  16  16
#     4   9  16  24  36  58  91 127 155 181 221 275
#     4   9  18  32  48  63  87 122 153 186 232 282
#     4   9  16  24  37  58  84 114 148 185 220 261
#     4   9  18  30  45  68  91 115 151 192 229 269
#     4   8  13  21  32  47  73 109 140 167 209 262
#
# _framework density 22.407226000000001
#
# number of rings (size 3 to 8) (size 9 to 14) (size 15 to 20)
#    0.000    3.222    0.000    1.333    1.556    4.000 
#    0.000    2.222    0.000    0.000    0.000    0.000 
#    0.000    4.444    0.000   12.222    0.000    9.333 
#
# Total GULP energy -200997.419093 kJ/mol
# GULP energy per Si atom -5583.261641 kJ/mol
# Density = 2.235623 g / cm^3
# Si number density = 22.407226 Si / 1000 Ang^3
#
#
#
# Elastic Constant Matrix: (Units=GPa)
#
#
# Indices 1 2 3 4 5 6 
#
# 1 86.4202 34.7975 -5.7590 -0.0020 0.0022 0.0016
# 2 34.7975 142.1728 0.7397 -0.0020 -0.0004 0.0011
# 3 -5.7590 0.7397 97.2669 -0.0192 -0.0111 0.0101
# 4 -0.0020 -0.0020 -0.0192 -24.6551 0.0035 0.0016
# 5 0.0022 -0.0004 -0.0111 0.0035 -12.8445 -0.0048
# 6 0.0016 0.0011 0.0101 0.0016 -0.0048 -3.5102
#
#
#
# Elastic Compliance Matrix: (Units=1/GPa)
#
#
# Indices 1 2 3 4 5 6 
#
# 1 0.012896 -0.003161 0.000788 -0.000001 0.000002 0.000007
# 2 -0.003161 0.007809 -0.000247 0.000000 -0.000001 0.000000
# 3 0.000788 -0.000247 0.010329 -0.000008 -0.000009 0.000030
# 4 -0.000001 0.000000 -0.000008 -0.040560 -0.000011 -0.000018
# 5 0.000002 -0.000001 -0.000009 -0.000011 -0.077854 0.000106
# 6 0.000007 0.000000 0.000030 -0.000018 0.000106 -0.284888
#
#
# Mechanical properties :
#
#
# Convention : Reuss Voigt Hill
#
# Bulk Modulus (GPa) = 38.76635 42.82402 40.79519
# Shear Modulus (GPa) = -13.94972 11.53684 -1.20644
#
# Velocity S-wave (km/s) = -2.49781 2.27154 -0.73456
# Velocity P-wave (km/s) = 3.00327 5.10226 4.18645
#
# Compressibility (1/GPa) = 0.02579557
#
# Stress axis : x y z
#
# Youngs Moduli (GPa) = 77.54059 128.06483 96.81014
#
# Poissons Ratio (x) = 0.40476 -0.07625
# Poissons Ratio (y) = 0.24507 0.02387
# Poissons Ratio (z) = -0.06107 0.03157
#
# Static dielectric constant tensor:
#      x y z
#    x 1.771680 0.000000 0.000010 
#    y 0.000000 1.780950 0.000000 
#    z 0.000010 0.000000 1.951280 
# 
# From -- ./inp_files/6468.got.cif
#   From: 2010.05.17/outbox.cif.g08.bks.cpg/sg71_4_cif.got.tgz:6468.got - 2010.06.03 16:22:01.
