data_PCOD9524725
_publ_section_title
;
Structure prediction by ZEFSAII (Michael W. Deem and Ramdas Pophale) SiO2 
 PCOD9524725
Probable space group: I M M M
;
_chemical_formula_sum "Si O2"
_cell_formula_units_Z 52
_cell_length_a 9.000000
_cell_length_b 24.000000
_cell_length_c 27.000000
_cell_angle_alpha 90.000000
_cell_angle_beta 90.000000
_cell_angle_gamma 90.000000
_cell_volume 5832.000000
_symmetry_space_group_name_H-M "I M M M"
_symmetry_group_IT_number 71
_symmetry_cell_setting 'orthorhombic'
loop_
_space_group_symop_operation_xyz
x,y,z
-x,-y,z
x,-y,-z
-x,y,-z
-x,-y,-z
x,y,-z
-x,y,z
x,-y,z
1/2+x,1/2+y,1/2+z
1/2-x,1/2-y,1/2+z
1/2+x,1/2-y,1/2-z
1/2-x,1/2+y,1/2-z
1/2-x,1/2-y,1/2-z
1/2+x,1/2+y,1/2-z
1/2-x,1/2+y,1/2+z
1/2+x,1/2-y,1/2+z
loop_
_atom_site_type_symbol
_atom_site_label
_atom_site_fract_x
_atom_site_fract_y
_atom_site_fract_z
Si Si1 0.167161 0.112819 0.058366
Si Si2 0.171697 0.500000 0.439392
Si Si3 0.178657 0.651612 0.057506
Si Si4 0.819814 0.566417 0.853923
Si Si5 0.327846 0.843382 0.731169
Si Si6 0.169765 0.780921 0.815950
Si Si7 0.325450 0.228456 0.083044
O O1 0.250786 0.057555 0.078005
O O2 0.250910 0.171968 0.062309
O O3 0.000000 0.117055 0.079020
O O4 0.154372 0.102332 0.000000
O O5 0.173905 0.500000 0.500000
O O6 0.000000 0.500000 0.424316
O O7 0.224751 0.603564 0.097338
O O8 0.252493 0.712353 0.067071
O O9 0.000000 0.658651 0.063245
O O10 0.207746 0.635690 0.000000
O O11 0.771804 0.500000 0.853009
O O12 0.781545 0.606400 0.806338
O O13 0.000000 0.564566 0.854755
O O14 0.500000 0.854539 0.746370
O O15 0.220021 0.828277 0.776870
O O16 0.330560 0.782598 0.704595
O O17 0.290151 0.778638 0.859079
O O18 0.000000 0.791257 0.832749
O O19 0.500000 0.229694 0.071861
#
# Coordination Sequence:
#
# PCOD9524725 Si02
#       7
#    16   8  16  16  16  16  16
#     4  10  20  34  53  76 104 141 182 223 271 325
#     4   9  17  31  51  75 103 135 175 219 259 311
#     4  10  20  35  54  79 114 152 192 238 285 335
#     4   9  17  32  56  84 113 147 188 235 285 338
#     4   9  17  32  54  81 109 135 172 219 271 330
#     4  10  19  33  55  80 107 136 171 218 273 333
#     4  12  23  34  52  79 111 145 185 230 283 339
#
# _framework density 8.9163239999999995
#
# number of rings (size 3 to 8) (size 9 to 14) (size 15 to 20)
#    0.000    2.077    1.538    3.000    0.000    4.923 
#    0.000    1.538    1.692    1.846    0.000    1.077 
#    0.000    0.000    0.000    0.000    0.000    0.000 
#
# Total GULP energy -289529.306808 kJ/mol
# GULP energy per Si atom -5567.871285 kJ/mol
# Density = 0.889603 g / cm^3
# Si number density = 8.916324 Si / 1000 Ang^3
#
#
#
# Elastic Constant Matrix: (Units=GPa)
#
#
# Indices 1 2 3 4 5 6 
#
# 1 75.4633 41.3551 9.1240 0.0000 0.0000 0.0000
# 2 41.3551 159.3327 35.0308 0.0000 0.0000 0.0000
# 3 9.1240 35.0308 51.3017 0.0000 0.0000 0.0000
# 4 0.0000 0.0000 0.0000 29.9418 0.0000 0.0000
# 5 0.0000 0.0000 0.0000 0.0000 20.1758 0.0000
# 6 0.0000 0.0000 0.0000 0.0000 0.0000 27.7922
#
#
#
# Elastic Compliance Matrix: (Units=1/GPa)
#
#
# Indices 1 2 3 4 5 6 
#
# 1 0.015449 -0.004007 -0.000011 0.000000 0.000000 0.000000
# 2 -0.004007 0.008424 -0.005040 0.000000 0.000000 0.000000
# 3 -0.000011 -0.005040 0.022936 0.000000 0.000000 0.000000
# 4 0.000000 0.000000 0.000000 0.033398 0.000000 0.000000
# 5 0.000000 0.000000 0.000000 0.000000 0.049564 0.000000
# 6 0.000000 0.000000 0.000000 0.000000 0.000000 0.035981
#
#
# Mechanical properties :
#
#
# Convention : Reuss Voigt Hill
#
# Bulk Modulus (GPa) = 34.85232 50.79084 42.82158
# Shear Modulus (GPa) = 25.84863 28.95446 27.40155
#
# Velocity S-wave (km/s) = 3.81138 4.03386 3.92419
# Velocity P-wave (km/s) = 6.24142 7.08800 6.67814
#
# Compressibility (1/GPa) = 0.02869249
#
# Stress axis : x y z
#
# Youngs Moduli (GPa) = 64.72949 118.70383 43.59984
#
# Poissons Ratio (x) = 0.47569 0.00049
# Poissons Ratio (y) = 0.25939 0.21973
# Poissons Ratio (z) = 0.00073 0.59824
#
# Static dielectric constant tensor:
#      x y z
#    x 1.613680 0.000000 0.000000 
#    y 0.000000 1.597140 0.000000 
#    z 0.000000 0.000000 1.674140 
# 
# From -- ./inp_files/15011.got.cif
#   From: 2010.05.17/outbox.ucp.g08.bks.cvg/sg71_8_cif.got.tgz:15011.got - 2010.06.11 16:29:00.
