data_PCOD9524594
_publ_section_title
;
Structure prediction by ZEFSAII (Michael W. Deem and Ramdas Pophale) SiO2 
 PCOD9524594
Probable space group: I M M M
;
_chemical_formula_sum "Si O2"
_cell_formula_units_Z 120
_cell_length_a 7.448602
_cell_length_b 28.860129
_cell_length_c 26.559189
_cell_angle_alpha 90.000000
_cell_angle_beta 90.000000
_cell_angle_gamma 90.000000
_cell_volume 5709.365505
_symmetry_space_group_name_H-M "I M M M"
_symmetry_group_IT_number 71
_symmetry_cell_setting 'orthorhombic'
loop_
_space_group_symop_operation_xyz
x,y,z
-x,-y,z
x,-y,-z
-x,y,-z
-x,-y,-z
x,y,-z
-x,y,z
x,-y,z
1/2+x,1/2+y,1/2+z
1/2-x,1/2-y,1/2+z
1/2+x,1/2-y,1/2-z
1/2-x,1/2+y,1/2-z
1/2-x,1/2-y,1/2-z
1/2+x,1/2+y,1/2-z
1/2-x,1/2+y,1/2+z
1/2+x,1/2-y,1/2+z
loop_
_atom_site_type_symbol
_atom_site_label
_atom_site_fract_x
_atom_site_fract_y
_atom_site_fract_z
Si Si1 0.717694 0.848206 0.230452
Si Si2 0.709610 0.321837 0.844697
Si Si3 0.279389 0.218658 0.140296
Si Si4 0.711103 0.050654 0.750809
Si Si5 0.280758 0.500000 0.057790
Si Si6 0.215527 0.049480 0.941074
Si Si7 0.712026 0.150081 0.943481
Si Si8 0.717855 0.577668 0.864325
O O1 0.500000 0.849592 0.230243
O O2 0.775742 0.829756 0.284866
O O3 0.775860 0.812407 0.187910
O O4 0.782758 0.901500 0.225382
O O5 0.500000 0.320397 0.858736
O O6 0.784579 0.271471 0.857615
O O7 0.783814 0.369380 0.868140
O O8 0.500000 0.219391 0.141073
O O9 0.217730 0.190637 0.091420
O O10 0.500000 0.049203 0.762869
O O11 0.727805 0.057862 0.690337
O O12 0.787916 0.000000 0.764047
O O13 0.500000 0.500000 0.057136
O O14 0.224621 0.544591 0.090425
O O15 0.220921 0.500000 0.000000
O O16 0.268967 0.098939 0.919262
O O17 0.000000 0.048765 0.941109
O O18 0.277886 0.000000 0.919292
O O19 0.274641 0.050242 0.000000
O O20 0.500000 0.157750 0.947817
O O21 0.788839 0.149226 0.000000
O O22 0.500000 0.578245 0.863751
#
# Coordination Sequence:
#
# PCOD9524594 Si02
#       8
#    16  16  16  16   8  16  16  16
#     4   9  17  29  45  64  87 114 142 176 220 263
#     4   9  17  29  46  66  87 112 145 182 221 264
#     4   9  17  30  45  63  90 118 144 181 224 262
#     4   9  16  26  42  63  85 109 139 174 210 258
#     4   9  16  26  41  63  91 117 143 179 218 257
#     4   8  14  26  44  64  85 109 139 178 221 258
#     4   9  17  29  45  64  86 115 150 183 215 256
#     4   9  16  27  44  64  84 111 145 178 214 256
#
# _framework density 21.018097000000001
#
# number of rings (size 3 to 8) (size 9 to 14) (size 15 to 20)
#    0.000    3.133    0.667    0.800    0.000    0.267 
#    0.000    4.000    0.000    7.200    0.000    0.000 
#    0.000    1.067    0.000    0.000    0.000    0.000 
#
# Total GULP energy -334516.049473 kJ/mol
# GULP energy per Si atom -5575.267491 kJ/mol
# Density = 2.097026 g / cm^3
# Si number density = 21.018097 Si / 1000 Ang^3
#
#
#
# Elastic Constant Matrix: (Units=GPa)
#
#
# Indices 1 2 3 4 5 6 
#
# 1 63.4483 4.9994 -4.4882 0.0000 0.0000 0.0000
# 2 4.9994 243.0207 66.1504 0.0000 0.0000 0.0000
# 3 -4.4882 66.1504 57.3131 0.0000 0.0000 0.0000
# 4 0.0000 0.0000 0.0000 -20.4107 0.0000 0.0000
# 5 0.0000 0.0000 0.0000 0.0000 8.2151 0.0000
# 6 0.0000 0.0000 0.0000 0.0000 0.0000 1.1619
#
#
#
# Elastic Compliance Matrix: (Units=1/GPa)
#
#
# Indices 1 2 3 4 5 6 
#
# 1 0.016006 -0.000978 0.002382 0.000000 0.000000 0.000000
# 2 -0.000978 0.006060 -0.007070 0.000000 0.000000 0.000000
# 3 0.002382 -0.007070 0.025795 0.000000 0.000000 0.000000
# 4 0.000000 0.000000 0.000000 -0.048994 0.000000 0.000000
# 5 0.000000 0.000000 0.000000 0.000000 0.121727 0.000000
# 6 0.000000 0.000000 0.000000 0.000000 0.000000 0.860631
#
#
# Mechanical properties :
#
#
# Convention : Reuss Voigt Hill
#
# Bulk Modulus (GPa) = 27.37576 55.23391 41.30483
# Shear Modulus (GPa) = 4.97644 17.60130 11.28887
#
# Velocity S-wave (km/s) = 1.54040 2.89699 2.32006
# Velocity P-wave (km/s) = 4.02702 6.12587 5.18378
#
# Compressibility (1/GPa) = 0.03652867
#
# Stress axis : x y z
#
# Youngs Moduli (GPa) = 62.47507 165.02801 38.76682
#
# Poissons Ratio (x) = 0.16133 -0.09234
# Poissons Ratio (y) = 0.06108 0.27410
# Poissons Ratio (z) = -0.14880 1.16683
#
# Static dielectric constant tensor:
#      x y z
#    x 1.900680 0.000000 0.000000 
#    y 0.000000 1.792460 0.000000 
#    z 0.000000 0.000000 1.721220 
# 
# From -- ./inp_files/63801.got.cif
#   From: 2010.05.17/outbox.cif.g08.bks.cpg/sg71_32_cif.got.tgz:63801.got - 2010.06.03 16:22:01.
