data_PCOD9524269
_publ_section_title
;
Structure prediction by ZEFSAII (Michael W. Deem and Ramdas Pophale) SiO2 
 PCOD9524269
Probable space group: I M M M
;
_chemical_formula_sum "Si O2"
_cell_formula_units_Z 104
_cell_length_a 28.376937
_cell_length_b 22.097145
_cell_length_c 8.738714
_cell_angle_alpha 90.000000
_cell_angle_beta 90.000000
_cell_angle_gamma 90.000000
_cell_volume 5479.604423
_symmetry_space_group_name_H-M "I M M M"
_symmetry_group_IT_number 71
_symmetry_cell_setting 'orthorhombic'
loop_
_space_group_symop_operation_xyz
x,y,z
-x,-y,z
x,-y,-z
-x,y,-z
-x,-y,-z
x,y,-z
-x,y,z
x,-y,z
1/2+x,1/2+y,1/2+z
1/2-x,1/2-y,1/2+z
1/2+x,1/2-y,1/2-z
1/2-x,1/2+y,1/2-z
1/2-x,1/2-y,1/2-z
1/2+x,1/2+y,1/2-z
1/2-x,1/2+y,1/2+z
1/2+x,1/2-y,1/2+z
loop_
_atom_site_type_symbol
_atom_site_label
_atom_site_fract_x
_atom_site_fract_y
_atom_site_fract_z
Si Si1 0.554230 0.072139 0.829988
Si Si2 0.797240 0.569189 0.184606
Si Si3 0.379200 0.154703 0.324096
Si Si4 0.556253 0.500000 0.175662
Si Si5 0.445854 0.743949 0.817042
Si Si6 0.096441 0.121954 0.816658
Si Si7 0.805921 0.930043 0.816655
O O1 0.500000 0.091456 0.819948
O O2 0.584056 0.099840 0.695114
O O3 0.555562 0.000000 0.825983
O O4 0.571716 0.091377 0.000000
O O5 0.810001 0.500000 0.236771
O O6 0.831618 0.623120 0.238727
O O7 0.743866 0.580766 0.236489
O O8 0.800052 0.568680 0.000000
O O9 0.406467 0.208809 0.240646
O O10 0.128319 0.327893 0.000000
O O11 0.500000 0.500000 0.171391
O O12 0.573009 0.559845 0.261866
O O13 0.573905 0.500000 0.000000
O O14 0.500000 0.756978 0.764498
O O15 0.429645 0.678384 0.758513
O O16 0.446466 0.744919 0.000000
O O17 0.151648 0.114472 0.772958
O O18 0.093844 0.126965 0.000000
O O19 0.819908 0.000000 0.782318
O O20 0.799570 0.926263 0.000000
#
# Coordination Sequence:
#
# PCOD9524269 Si02
#       7
#    16  16  16   8  16  16  16
#     4   9  18  32  50  74 105 141 183 232 287 346
#     4   9  19  35  56  85 118 150 188 237 290 341
#     4  11  22  36  55  80 111 148 193 241 289 341
#     4  11  23  37  57  89 125 157 191 231 280 343
#     4  11  25  43  60  81 113 153 198 242 286 347
#     4  11  22  39  62  89 119 150 190 239 290 341
#     4   9  18  35  58  87 119 148 183 230 285 343
#
# _framework density 18.979472999999999
#
# number of rings (size 3 to 8) (size 9 to 14) (size 15 to 20)
#    0.000    1.923    0.769    3.462    0.000    9.231 
#    0.000    3.077    0.000    0.000    0.000    0.000 
#    0.000    0.000    0.000    0.000    0.000    0.000 
#
# Total GULP energy -290081.759387 kJ/mol
# GULP energy per Si atom -5578.495373 kJ/mol
# Density = 1.893628 g / cm^3
# Si number density = 18.979473 Si / 1000 Ang^3
#
#
#
# Elastic Constant Matrix: (Units=GPa)
#
#
# Indices 1 2 3 4 5 6 
#
# 1 97.7356 57.2015 25.8291 0.0000 0.0000 0.0000
# 2 57.2015 102.3279 23.6677 0.0000 0.0000 0.0000
# 3 25.8291 23.6677 29.1466 0.0000 0.0000 0.0000
# 4 0.0000 0.0000 0.0000 29.5293 0.0000 0.0000
# 5 0.0000 0.0000 0.0000 0.0000 30.2582 0.0000
# 6 0.0000 0.0000 0.0000 0.0000 0.0000 39.4046
#
#
#
# Elastic Compliance Matrix: (Units=1/GPa)
#
#
# Indices 1 2 3 4 5 6 
#
# 1 0.016933 -0.007381 -0.009012 0.000000 0.000000 0.000000
# 2 -0.007381 0.015250 -0.005842 0.000000 0.000000 0.000000
# 3 -0.009012 -0.005842 0.047040 0.000000 0.000000 0.000000
# 4 0.000000 0.000000 0.000000 0.033865 0.000000 0.000000
# 5 0.000000 0.000000 0.000000 0.000000 0.033049 0.000000
# 6 0.000000 0.000000 0.000000 0.000000 0.000000 0.025378
#
#
# Mechanical properties :
#
#
# Convention : Reuss Voigt Hill
#
# Bulk Modulus (GPa) = 28.77559 49.17851 38.97705
# Shear Modulus (GPa) = 21.97129 28.00587 24.98858
#
# Velocity S-wave (km/s) = 3.40609 3.84550 3.63245
# Velocity P-wave (km/s) = 5.53742 6.75906 6.17851
#
# Compressibility (1/GPa) = 0.03475168
#
# Stress axis : x y z
#
# Youngs Moduli (GPa) = 59.05454 65.57402 21.25868
#
# Poissons Ratio (x) = 0.48403 0.19159
# Poissons Ratio (y) = 0.43590 0.12419
# Poissons Ratio (z) = 0.53221 0.38309
#
# Static dielectric constant tensor:
#      x y z
#    x 1.666330 0.000000 0.000000 
#    y 0.000000 1.664960 0.000000 
#    z 0.000000 0.000000 1.668620 
# 
# From -- ./inp_files/15005.got.cif
#   From: 2010.05.17/outbox.cif.g08.bks.cpg/sg71_8_cif.got.tgz:15005.got - 2010.06.03 16:22:01.
