data_PCOD9524063
_publ_section_title
;
Structure prediction by ZEFSAII (Michael W. Deem and Ramdas Pophale) SiO2 
 PCOD9524063
Probable space group: I M M M
;
_chemical_formula_sum "Si O2"
_cell_formula_units_Z 88
_cell_length_a 19.032635
_cell_length_b 17.754843
_cell_length_c 15.048354
_cell_angle_alpha 90.000000
_cell_angle_beta 90.000000
_cell_angle_gamma 90.000000
_cell_volume 5085.161548
_symmetry_space_group_name_H-M "I M M M"
_symmetry_group_IT_number 71
_symmetry_cell_setting 'orthorhombic'
loop_
_space_group_symop_operation_xyz
x,y,z
-x,-y,z
x,-y,-z
-x,y,-z
-x,-y,-z
x,y,-z
-x,y,z
x,-y,z
1/2+x,1/2+y,1/2+z
1/2-x,1/2-y,1/2+z
1/2+x,1/2-y,1/2-z
1/2-x,1/2+y,1/2-z
1/2-x,1/2-y,1/2-z
1/2+x,1/2+y,1/2-z
1/2-x,1/2+y,1/2+z
1/2+x,1/2-y,1/2+z
loop_
_atom_site_type_symbol
_atom_site_label
_atom_site_fract_x
_atom_site_fract_y
_atom_site_fract_z
Si Si1 0.081055 0.246055 0.100903
Si Si2 0.200720 0.588267 0.599872
Si Si3 0.634156 0.415708 0.361351
Si Si4 0.197010 0.317586 0.773631
Si Si5 0.679499 0.587160 0.158380
Si Si6 0.419155 0.592257 0.000000
O O1 0.090795 0.155615 0.106981
O O2 0.132430 0.284772 0.171340
O O3 0.000000 0.264834 0.117468
O O4 0.099655 0.268542 0.000000
O O5 0.178310 0.610746 0.500000
O O6 0.182393 0.500000 0.613709
O O7 0.285954 0.591566 0.603195
O O8 0.176624 0.639276 0.682489
O O9 0.608359 0.500000 0.383666
O O10 0.642978 0.410025 0.254859
O O11 0.250000 0.250000 0.750000
O O12 0.246146 0.371937 0.832701
O O13 0.692988 0.500000 0.137502
O O14 0.625433 0.617242 0.085491
O O15 0.421348 0.500000 0.000000
O O16 0.500000 0.617545 0.000000
#
# Coordination Sequence:
#
# PCOD9524063 Si02
#       6
#    16  16  16  16  16   8
#     4  11  24  38  52  76 114 155 189 226 276 326
#     4   9  17  32  58  88 111 134 172 225 280 331
#     4   9  17  32  53  77 107 142 181 222 265 325
#     4  11  20  34  55  83 107 144 186 230 272 327
#     4   9  18  33  52  78 105 140 185 225 273 329
#     4   9  18  32  50  76 109 141 174 219 277 335
#
# _framework density 17.305250999999998
#
# number of rings (size 3 to 8) (size 9 to 14) (size 15 to 20)
#    0.000    2.273    3.636    2.182    1.273    2.182 
#    0.000    2.727    0.000    2.727    0.000    6.364 
#    0.000    0.000    0.000    0.000    0.000    0.182 
#
# Total GULP energy -245267.609934 kJ/mol
# GULP energy per Si atom -5574.263862 kJ/mol
# Density = 1.726586 g / cm^3
# Si number density = 17.305251 Si / 1000 Ang^3
#
#
#
# Elastic Constant Matrix: (Units=GPa)
#
#
# Indices 1 2 3 4 5 6 
#
# 1 71.5024 39.8991 67.6106 0.0000 0.0000 0.0000
# 2 39.8991 69.6490 55.4160 0.0000 0.0000 0.0000
# 3 67.6106 55.4160 138.8947 0.0000 0.0000 0.0000
# 4 0.0000 0.0000 0.0000 16.2017 0.0000 0.0000
# 5 0.0000 0.0000 0.0000 0.0000 18.8438 0.0000
# 6 0.0000 0.0000 0.0000 0.0000 0.0000 17.7464
#
#
#
# Elastic Compliance Matrix: (Units=1/GPa)
#
#
# Indices 1 2 3 4 5 6 
#
# 1 0.028508 -0.007750 -0.010785 0.000000 0.000000 0.000000
# 2 -0.007750 0.023142 -0.005461 0.000000 0.000000 0.000000
# 3 -0.010785 -0.005461 0.014628 0.000000 0.000000 0.000000
# 4 0.000000 0.000000 0.000000 0.061722 0.000000 0.000000
# 5 0.000000 0.000000 0.000000 0.000000 0.053068 0.000000
# 6 0.000000 0.000000 0.000000 0.000000 0.000000 0.056350
#
#
# Mechanical properties :
#
#
# Convention : Reuss Voigt Hill
#
# Bulk Modulus (GPa) = 54.68341 67.32197 61.00269
# Shear Modulus (GPa) = 17.15235 18.36639 17.75937
#
# Velocity S-wave (km/s) = 3.15169 3.26132 3.20698
# Velocity P-wave (km/s) = 6.70165 7.29169 7.00289
#
# Compressibility (1/GPa) = 0.01828708
#
# Stress axis : x y z
#
# Youngs Moduli (GPa) = 35.07763 43.21105 68.36096
#
# Poissons Ratio (x) = 0.33489 0.73727
# Poissons Ratio (y) = 0.27186 0.37330
# Poissons Ratio (z) = 0.37831 0.23596
#
# Static dielectric constant tensor:
#      x y z
#    x 1.555260 0.000000 0.000000 
#    y 0.000000 1.632630 0.000000 
#    z 0.000000 0.000000 1.624790 
# 
# From -- ./inp_files/36354.got.cif
#   From: 2010.05.17/outbox.cif.g08.bks.cpg/sg71_19_cif.got.tgz:36354.got - 2010.06.03 16:22:01.
