data_PCOD9524133
_publ_section_title
;
Structure prediction by ZEFSAII (Michael W. Deem and Ramdas Pophale) SiO2 
 PCOD9524133
Probable space group: I M M M
;
_chemical_formula_sum "Si O2"
_cell_formula_units_Z 96
_cell_length_a 24.339775
_cell_length_b 7.784597
_cell_length_c 26.382338
_cell_angle_alpha 90.000000
_cell_angle_beta 90.000000
_cell_angle_gamma 90.000000
_cell_volume 4998.802448
_symmetry_space_group_name_H-M "I M M M"
_symmetry_group_IT_number 71
_symmetry_cell_setting 'orthorhombic'
loop_
_space_group_symop_operation_xyz
x,y,z
-x,-y,z
x,-y,-z
-x,y,-z
-x,-y,-z
x,y,-z
-x,y,z
x,-y,z
1/2+x,1/2+y,1/2+z
1/2-x,1/2-y,1/2+z
1/2+x,1/2-y,1/2-z
1/2-x,1/2+y,1/2-z
1/2-x,1/2-y,1/2-z
1/2+x,1/2+y,1/2-z
1/2-x,1/2+y,1/2+z
1/2+x,1/2-y,1/2+z
loop_
_atom_site_type_symbol
_atom_site_label
_atom_site_fract_x
_atom_site_fract_y
_atom_site_fract_z
Si Si1 0.190045 0.790361 0.557397
Si Si2 0.119456 0.789828 0.652483
Si Si3 0.000000 0.789136 0.686369
Si Si4 0.500000 0.699855 0.698656
Si Si5 0.816241 0.289798 0.942475
Si Si6 0.614903 0.799704 0.348849
Si Si7 0.186025 0.794862 0.752182
O O1 0.176329 0.736008 0.500000
O O2 0.148943 0.731620 0.601088
O O3 0.253100 0.739057 0.568378
O O4 0.189377 0.000000 0.557594
O O5 0.056503 0.735713 0.659722
O O6 0.154445 0.734826 0.701640
O O7 0.120209 0.000000 0.652189
O O8 0.000000 0.722894 0.744573
O O9 0.000000 0.000000 0.686147
O O10 0.500000 0.500000 0.708662
O O11 0.444658 0.737150 0.668216
O O12 0.816526 0.500000 0.941635
O O13 0.857361 0.224400 0.899427
O O14 0.829899 0.237825 0.000000
O O15 0.656582 0.775795 0.302104
O O16 0.608241 0.000000 0.358562
O O17 0.250000 0.750000 0.750000
O O18 0.180295 0.000000 0.754137
#
# Coordination Sequence:
#
# PCOD9524133 Si02
#       7
#    16  16   8   8  16  16  16
#     4   8  13  23  41  66  96 129 164 205 253 302
#     4   9  16  27  44  66  94 131 171 205 248 307
#     4   9  16  29  46  64  91 134 173 196 239 306
#     4  11  21  37  54  71 101 146 179 208 261 321
#     4   8  15  29  49  73 102 134 167 208 264 322
#     4  11  21  34  54  80 104 131 175 225 264 309
#     4  11  21  33  50  74 105 139 173 214 266 321
#
# _framework density 19.204599000000002
#
# number of rings (size 3 to 8) (size 9 to 14) (size 15 to 20)
#    0.000    2.500    1.667    3.250    0.000    2.667 
#    0.000    0.833    0.000    7.000    0.000    0.000 
#    0.000    2.000    0.000    1.500    0.000    2.167 
#
# Total GULP energy -267827.809652 kJ/mol
# GULP energy per Si atom -5579.746034 kJ/mol
# Density = 1.916089 g / cm^3
# Si number density = 19.204599 Si / 1000 Ang^3
#
#
#
# Elastic Constant Matrix: (Units=GPa)
#
#
# Indices 1 2 3 4 5 6 
#
# 1 160.8194 -7.6215 98.2374 0.0000 0.0000 0.0000
# 2 -7.6215 19.0789 -6.0281 0.0000 0.0000 0.0000
# 3 98.2374 -6.0281 155.6085 0.0000 0.0000 0.0000
# 4 0.0000 0.0000 0.0000 14.1941 0.0000 0.0000
# 5 0.0000 0.0000 0.0000 0.0000 23.5045 0.0000
# 6 0.0000 0.0000 0.0000 0.0000 0.0000 18.5462
#
#
#
# Elastic Compliance Matrix: (Units=1/GPa)
#
#
# Indices 1 2 3 4 5 6 
#
# 1 0.010201 0.002066 -0.006360 0.000000 0.000000 0.000000
# 2 0.002066 0.053482 0.000768 0.000000 0.000000 0.000000
# 3 -0.006360 0.000768 0.010471 0.000000 0.000000 0.000000
# 4 0.000000 0.000000 0.000000 0.070452 0.000000 0.000000
# 5 0.000000 0.000000 0.000000 0.000000 0.042545 0.000000
# 6 0.000000 0.000000 0.000000 0.000000 0.000000 0.053919
#
#
# Mechanical properties :
#
#
# Convention : Reuss Voigt Hill
#
# Bulk Modulus (GPa) = 14.90295 56.07581 35.48938
# Shear Modulus (GPa) = 18.48491 27.97688 23.23089
#
# Velocity S-wave (km/s) = 3.10582 3.82092 3.48178
# Velocity P-wave (km/s) = 4.54296 6.98058 5.88927
#
# Compressibility (1/GPa) = 0.06710081
#
# Stress axis : x y z
#
# Youngs Moduli (GPa) = 98.02843 18.69797 95.49903
#
# Poissons Ratio (x) = -0.03862 0.60738
# Poissons Ratio (y) = -0.20248 -0.07333
# Poissons Ratio (z) = 0.62347 -0.01436
#
# Static dielectric constant tensor:
#      x y z
#    x 1.673840 0.000000 0.000000 
#    y 0.000000 1.737330 0.000000 
#    z 0.000000 0.000000 1.675480 
# 
# From -- ./inp_files/61594.got.cif
#   From: 2010.05.17/outbox.cif.g08.bks.cpg/sg71_31_cif.got.tgz:61594.got - 2010.06.03 16:22:01.
