data_PCOD9524687
_publ_section_title
;
Structure prediction by ZEFSAII (Michael W. Deem and Ramdas Pophale) SiO2 
 PCOD9524687
Probable space group: I M M M
;
_chemical_formula_sum "Si O2"
_cell_formula_units_Z 52
_cell_length_a 15.000000
_cell_length_b 18.000000
_cell_length_c 24.000000
_cell_angle_alpha 90.000000
_cell_angle_beta 90.000000
_cell_angle_gamma 90.000000
_cell_volume 6480.000000
_symmetry_space_group_name_H-M "I M M M"
_symmetry_group_IT_number 71
_symmetry_cell_setting 'orthorhombic'
loop_
_space_group_symop_operation_xyz
x,y,z
-x,-y,z
x,-y,-z
-x,y,-z
-x,-y,-z
x,y,-z
-x,y,z
x,-y,z
1/2+x,1/2+y,1/2+z
1/2-x,1/2-y,1/2+z
1/2+x,1/2-y,1/2-z
1/2-x,1/2+y,1/2-z
1/2-x,1/2-y,1/2-z
1/2+x,1/2+y,1/2-z
1/2-x,1/2+y,1/2+z
1/2+x,1/2-y,1/2+z
loop_
_atom_site_type_symbol
_atom_site_label
_atom_site_fract_x
_atom_site_fract_y
_atom_site_fract_z
Si Si1 0.397377 0.911311 0.500000
Si Si2 0.597212 0.705720 0.663935
Si Si3 0.395901 0.705259 0.203870
Si Si4 0.744196 0.914606 0.285343
Si Si5 0.790953 0.348793 0.335254
Si Si6 0.103321 0.629035 0.121313
Si Si7 0.397792 0.910913 0.061706
O O1 0.500000 0.883685 0.500000
O O2 0.359952 0.886382 0.559417
O O3 0.397953 0.000000 0.500000
O O4 0.500000 0.669820 0.654052
O O5 0.602394 0.723471 0.729980
O O6 0.686549 0.661451 0.651003
O O7 0.600307 0.783126 0.631730
O O8 0.500000 0.696692 0.186673
O O9 0.331257 0.634108 0.199586
O O10 0.343011 0.771200 0.173586
O O11 0.707588 0.888745 0.224954
O O12 0.667381 0.903809 0.331498
O O13 0.769620 0.000000 0.281908
O O14 0.838628 0.388139 0.386358
O O15 0.000000 0.601156 0.125138
O O16 0.500000 0.885107 0.069690
O O17 0.399790 0.000000 0.060063
O O18 0.367611 0.885011 0.000000
#
# Coordination Sequence:
#
# PCOD9524687 Si02
#       7
#     8  16  16  16  16  16  16
#     4   9  18  30  44  64  95 133 160 183 231 295
#     4   9  17  31  50  71 100 131 161 200 248 294
#     4  10  19  33  51  71 102 137 165 203 251 300
#     4  11  21  32  49  77 103 128 166 206 249 298
#     4  11  18  33  53  78  98 129 167 211 251 295
#     4  10  18  32  49  69  98 129 160 199 244 290
#     4   9  19  35  53  75 104 134 163 203 258 311
#
# _framework density 8.0246910000000007
#
# number of rings (size 3 to 8) (size 9 to 14) (size 15 to 20)
#    0.000    2.077    3.077    2.769    0.000    1.846 
#    1.385    0.000    0.000    1.385    0.000    1.077 
#    0.000    1.846    0.000    0.000    0.000    0.000 
#
# Total GULP energy -289553.934867 kJ/mol
# GULP energy per Si atom -5568.344901 kJ/mol
# Density = 0.800643 g / cm^3
# Si number density = 8.024691 Si / 1000 Ang^3
#
#
#
# Elastic Constant Matrix: (Units=GPa)
#
#
# Indices 1 2 3 4 5 6 
#
# 1 110.6607 34.0195 66.8379 0.0000 0.0000 0.0000
# 2 34.0195 64.0234 47.8224 0.0000 0.0000 0.0000
# 3 66.8379 47.8224 94.7345 0.0000 0.0000 0.0000
# 4 0.0000 0.0000 0.0000 11.6141 0.0000 0.0000
# 5 0.0000 0.0000 0.0000 0.0000 7.7310 0.0000
# 6 0.0000 0.0000 0.0000 0.0000 0.0000 17.1852
#
#
#
# Elastic Compliance Matrix: (Units=1/GPa)
#
#
# Indices 1 2 3 4 5 6 
#
# 1 0.015747 -0.000110 -0.011054 0.000000 0.000000 0.000000
# 2 -0.000110 0.025075 -0.012580 0.000000 0.000000 0.000000
# 3 -0.011054 -0.012580 0.024705 0.000000 0.000000 0.000000
# 4 0.000000 0.000000 0.000000 0.086102 0.000000 0.000000
# 5 0.000000 0.000000 0.000000 0.000000 0.129349 0.000000
# 6 0.000000 0.000000 0.000000 0.000000 0.000000 0.058190
#
#
# Mechanical properties :
#
#
# Convention : Reuss Voigt Hill
#
# Bulk Modulus (GPa) = 55.43888 62.97535 59.20712
# Shear Modulus (GPa) = 12.73332 15.35531 14.04432
#
# Velocity S-wave (km/s) = 2.81976 3.09650 2.96137
# Velocity P-wave (km/s) = 6.72451 7.21859 6.97593
#
# Compressibility (1/GPa) = 0.01803788
#
# Stress axis : x y z
#
# Youngs Moduli (GPa) = 63.50280 39.88112 40.47687
#
# Poissons Ratio (x) = 0.00440 0.44745
# Poissons Ratio (y) = 0.00701 0.50920
# Poissons Ratio (z) = 0.70199 0.50170
#
# Static dielectric constant tensor:
#      x y z
#    x 1.551400 0.000000 0.000000 
#    y 0.000000 1.538010 0.000000 
#    z 0.000000 0.000000 1.532890 
# 
# From -- ./inp_files/36902.got.cif
#   From: 2010.05.17/outbox.ucp.g08.bks.cvg/sg71_19_cif.got.tgz:36902.got - 2010.06.11 16:29:00.
