data_PCOD9524915
_publ_section_title
;
Structure prediction by ZEFSAII (Michael W. Deem and Ramdas Pophale) SiO2 
 PCOD9524915
Probable space group: I M M M
;
_chemical_formula_sum "Si O2"
_cell_formula_units_Z 36
_cell_length_a 15.000000
_cell_length_b 30.000000
_cell_length_c 9.000000
_cell_angle_alpha 90.000000
_cell_angle_beta 90.000000
_cell_angle_gamma 90.000000
_cell_volume 4050.000000
_symmetry_space_group_name_H-M "I M M M"
_symmetry_group_IT_number 71
_symmetry_cell_setting 'orthorhombic'
loop_
_space_group_symop_operation_xyz
x,y,z
-x,-y,z
x,-y,-z
-x,y,-z
-x,-y,-z
x,y,-z
-x,y,z
x,-y,z
1/2+x,1/2+y,1/2+z
1/2-x,1/2-y,1/2+z
1/2+x,1/2-y,1/2-z
1/2-x,1/2+y,1/2-z
1/2-x,1/2-y,1/2-z
1/2+x,1/2+y,1/2-z
1/2-x,1/2+y,1/2+z
1/2+x,1/2-y,1/2+z
loop_
_atom_site_type_symbol
_atom_site_label
_atom_site_fract_x
_atom_site_fract_y
_atom_site_fract_z
Si Si1 0.684551 0.550578 0.320573
Si Si2 0.600688 0.305280 0.321362
Si Si3 0.500000 0.445887 0.168894
Si Si4 0.605659 0.787584 0.826018
Si Si5 0.233091 0.636268 0.680500
O O1 0.677676 0.551061 0.500000
O O2 0.701423 0.500000 0.272991
O O3 0.589564 0.565890 0.256075
O O4 0.760108 0.585227 0.272300
O O5 0.598894 0.304777 0.500000
O O6 0.500000 0.314728 0.267902
O O7 0.628443 0.256786 0.263389
O O8 0.674371 0.340495 0.275040
O O9 0.500000 0.500000 0.164016
O O10 0.500000 0.429262 0.000000
O O11 0.500000 0.793745 0.816946
O O12 0.655220 0.831355 0.768538
O O13 0.629171 0.780712 0.000000
O O14 0.228592 0.635867 0.500000
#
# Coordination Sequence:
#
# PCOD9524915 Si02
#       5
#    16  16   8  16  16
#     4   9  17  29  46  65  85 114 152 185 210 250
#     4   9  17  28  43  63  87 114 142 176 217 260
#     4   9  17  29  43  61  89 119 143 173 217 261
#     4   9  17  30  46  63  86 115 145 180 221 262
#     4   9  17  28  45  66  87 114 147 181 217 257
#
# _framework density 8.8888890000000007
#
# number of rings (size 3 to 8) (size 9 to 14) (size 15 to 20)
#    0.000    3.000    0.000    1.000    1.556    1.333 
#    0.000    2.222    0.000    0.667    0.000    4.667 
#    0.000    0.000    0.000   11.111    0.000   11.556 
#
# Total GULP energy -200441.564231 kJ/mol
# GULP energy per Si atom -5567.821229 kJ/mol
# Density = 0.886866 g / cm^3
# Si number density = 8.888889 Si / 1000 Ang^3
#
#
#
# Elastic Constant Matrix: (Units=GPa)
#
#
# Indices 1 2 3 4 5 6 
#
# 1 12.1304 30.7748 7.6183 -0.0001 0.0002 0.0000
# 2 30.7748 94.0692 9.2121 0.0001 0.0001 0.0000
# 3 7.6183 9.2121 -1.9339 -0.0021 0.0015 0.0001
# 4 -0.0001 0.0001 -0.0021 12.9583 0.0003 0.0001
# 5 0.0002 0.0001 0.0015 0.0003 7.5676 0.0000
# 6 0.0000 0.0000 0.0001 0.0001 0.0000 21.8471
#
#
#
# Elastic Compliance Matrix: (Units=1/GPa)
#
#
# Indices 1 2 3 4 5 6 
#
# 1 0.104842 -0.050968 0.170218 0.000029 -0.000036 -0.000001
# 2 -0.050968 0.032027 -0.048220 -0.000008 0.000010 0.000000
# 3 0.170218 -0.048220 -0.076243 -0.000010 0.000012 0.000000
# 4 0.000029 -0.000008 -0.000010 0.077171 -0.000003 0.000000
# 5 -0.000036 0.000010 0.000012 -0.000003 0.132142 0.000000
# 6 -0.000001 0.000000 0.000000 0.000000 0.000000 0.045773
#
#
# Mechanical properties :
#
#
# Convention : Reuss Voigt Hill
#
# Bulk Modulus (GPa) = 4.93380 22.16400 13.54890
# Shear Modulus (GPa) = 20.72849 12.25198 16.49023
#
# Velocity S-wave (km/s) = 3.41835 2.62806 3.04892
# Velocity P-wave (km/s) = 4.28502 4.65867 4.47575
#
# Compressibility (1/GPa) = 0.20268344
#
# Stress axis : x y z
#
# Youngs Moduli (GPa) = 9.53818 31.22371 -13.11594
#
# Poissons Ratio (x) = 1.59142 2.23256
# Poissons Ratio (y) = 0.48614 -0.63246
# Poissons Ratio (z) = -1.62357 1.50562
#
# Static dielectric constant tensor:
#      x y z
#    x 1.610460 0.000000 0.000000 
#    y 0.000000 1.642770 0.000000 
#    z 0.000000 0.000000 1.607920 
# 
# From -- ./inp_files/6422.got.cif
#   From: 2010.05.17/outbox.ucp.g08.bks.cvg/sg71_4_cif.got.tgz:6422.got - 2010.06.11 16:29:00.
