data_PCOD9524886
_publ_section_title
;
Structure prediction by ZEFSAII (Michael W. Deem and Ramdas Pophale) SiO2 
 PCOD9524886
Probable space group: I M M M
;
_chemical_formula_sum "Si O2"
_cell_formula_units_Z 32
_cell_length_a 18.000000
_cell_length_b 15.000000
_cell_length_c 12.000000
_cell_angle_alpha 90.000000
_cell_angle_beta 90.000000
_cell_angle_gamma 90.000000
_cell_volume 3240.000000
_symmetry_space_group_name_H-M "I M M M"
_symmetry_group_IT_number 71
_symmetry_cell_setting 'orthorhombic'
loop_
_space_group_symop_operation_xyz
x,y,z
-x,-y,z
x,-y,-z
-x,y,-z
-x,-y,-z
x,y,-z
-x,y,z
x,-y,z
1/2+x,1/2+y,1/2+z
1/2-x,1/2-y,1/2+z
1/2+x,1/2-y,1/2-z
1/2-x,1/2+y,1/2-z
1/2-x,1/2-y,1/2-z
1/2+x,1/2+y,1/2-z
1/2-x,1/2+y,1/2+z
1/2+x,1/2-y,1/2+z
loop_
_atom_site_type_symbol
_atom_site_label
_atom_site_fract_x
_atom_site_fract_y
_atom_site_fract_z
Si Si1 0.414420 0.106276 0.500000
Si Si2 0.590203 0.601710 0.000000
Si Si3 0.144098 0.604282 0.244510
Si Si4 0.198520 0.103958 0.131568
Si Si5 0.586961 0.290735 0.220092
O O1 0.500000 0.143920 0.500000
O O2 0.368942 0.124325 0.386955
O O3 0.423577 0.000000 0.500000
O O4 0.611772 0.654685 0.110676
O O5 0.618008 0.500000 0.000000
O O6 0.500000 0.598706 0.000000
O O7 0.121393 0.500000 0.263375
O O8 0.227030 0.613014 0.293736
O O9 0.098396 0.685197 0.299177
O O10 0.136986 0.170599 0.180059
O O11 0.174106 0.000000 0.142153
O O12 0.213608 0.119977 0.000000
O O13 0.500000 0.307736 0.240827
#
# Coordination Sequence:
#
# PCOD9524886 Si02
#       5
#     8   8  16  16  16
#     4   9  18  35  61  93 126 160 206 261 307 361
#     4   9  20  39  60  86 119 155 205 264 317 375
#     4  10  22  40  63  92 130 170 209 259 321 386
#     4  10  23  42  63  91 127 169 217 265 318 387
#     4  11  23  39  64  93 125 167 214 270 330 378
#
# _framework density 9.8765429999999999
#
# number of rings (size 3 to 8) (size 9 to 14) (size 15 to 20)
#    0.000    2.000    0.000    2.250    3.500    4.500 
#    0.000    3.750    0.000    2.250    0.000    0.000 
#    0.000    0.000    0.000    0.000    0.000    0.000 
#
# Total GULP energy -178526.379309 kJ/mol
# GULP energy per Si atom -5578.949353 kJ/mol
# Density = 0.985406 g / cm^3
# Si number density = 9.876543 Si / 1000 Ang^3
#
#
#
# Elastic Constant Matrix: (Units=GPa)
#
#
# Indices 1 2 3 4 5 6 
#
# 1 86.4137 39.1778 52.2491 0.0000 0.0000 0.0000
# 2 39.1778 126.8326 65.3441 0.0000 0.0000 0.0000
# 3 52.2491 65.3441 120.7004 0.0000 0.0000 0.0000
# 4 0.0000 0.0000 0.0000 24.3347 0.0000 0.0000
# 5 0.0000 0.0000 0.0000 0.0000 28.9988 0.0000
# 6 0.0000 0.0000 0.0000 0.0000 0.0000 31.7980
#
#
#
# Elastic Compliance Matrix: (Units=1/GPa)
#
#
# Indices 1 2 3 4 5 6 
#
# 1 0.016000 -0.001905 -0.005895 0.000000 0.000000 0.000000
# 2 -0.001905 0.011161 -0.005217 0.000000 0.000000 0.000000
# 3 -0.005895 -0.005217 0.013661 0.000000 0.000000 0.000000
# 4 0.000000 0.000000 0.000000 0.041094 0.000000 0.000000
# 5 0.000000 0.000000 0.000000 0.000000 0.034484 0.000000
# 6 0.000000 0.000000 0.000000 0.000000 0.000000 0.031448
#
#
# Mechanical properties :
#
#
# Convention : Reuss Voigt Hill
#
# Bulk Modulus (GPa) = 67.62514 71.94322 69.78418
# Shear Modulus (GPa) = 27.96217 28.83803 28.40010
#
# Velocity S-wave (km/s) = 3.76651 3.82504 3.79589
# Velocity P-wave (km/s) = 7.29555 7.48387 7.39031
#
# Compressibility (1/GPa) = 0.01478740
#
# Stress axis : x y z
#
# Youngs Moduli (GPa) = 62.49893 89.59758 73.19961
#
# Poissons Ratio (x) = 0.17072 0.43149
# Poissons Ratio (y) = 0.11909 0.38192
# Poissons Ratio (z) = 0.36841 0.46747
#
# Static dielectric constant tensor:
#      x y z
#    x 1.681460 0.000000 0.000000 
#    y 0.000000 1.714980 0.000000 
#    z 0.000000 0.000000 1.706850 
# 
# From -- ./inp_files/23223.got.cif
#   From: 2010.05.17/outbox.ucp.g08.bks.cvg/sg71_12_cif.got.tgz:23223.got - 2010.06.11 16:29:00.
