data_PCOD9524874
_publ_section_title
;
Structure prediction by ZEFSAII (Michael W. Deem and Ramdas Pophale) SiO2 
 PCOD9524874
Probable space group: I M M M
;
_chemical_formula_sum "Si O2"
_cell_formula_units_Z 45
_cell_length_a 24.000000
_cell_length_b 21.000000
_cell_length_c 9.000000
_cell_angle_alpha 90.000000
_cell_angle_beta 90.000000
_cell_angle_gamma 90.000000
_cell_volume 4536.000000
_symmetry_space_group_name_H-M "I M M M"
_symmetry_group_IT_number 71
_symmetry_cell_setting 'orthorhombic'
loop_
_space_group_symop_operation_xyz
x,y,z
-x,-y,z
x,-y,-z
-x,y,-z
-x,-y,-z
x,y,-z
-x,y,z
x,-y,z
1/2+x,1/2+y,1/2+z
1/2-x,1/2-y,1/2+z
1/2+x,1/2-y,1/2-z
1/2-x,1/2+y,1/2-z
1/2-x,1/2-y,1/2-z
1/2+x,1/2+y,1/2-z
1/2-x,1/2+y,1/2+z
1/2+x,1/2-y,1/2+z
loop_
_atom_site_type_symbol
_atom_site_label
_atom_site_fract_x
_atom_site_fract_y
_atom_site_fract_z
Si Si1 0.213034 0.933065 0.174058
Si Si2 0.500000 0.000000 0.000000
Si Si3 0.500000 0.868921 0.833263
Si Si4 0.436366 0.303945 0.833839
Si Si5 0.106885 0.689504 0.824979
Si Si6 0.079904 0.071828 0.830888
Si Si7 0.223980 0.687657 0.678725
O O1 0.146767 0.929354 0.174879
O O2 0.239217 0.870563 0.237739
O O3 0.230754 0.000000 0.243324
O O4 0.229598 0.934354 0.000000
O O5 0.500000 0.056544 0.127961
O O6 0.554591 0.847808 0.743706
O O7 0.500000 0.839226 0.000000
O O8 0.500000 0.281374 0.830036
O O9 0.403544 0.263991 0.711821
O O10 0.437767 0.377087 0.788268
O O11 0.413596 0.294608 0.000000
O O12 0.162096 0.673848 0.734359
O O13 0.112379 0.679399 0.000000
O O14 0.061052 0.000000 0.803621
O O15 0.063906 0.089717 0.000000
O O16 0.225951 0.692822 0.500000
O O17 0.250000 0.750000 0.750000
#
# Coordination Sequence:
#
# PCOD9524874 Si02
#       7
#    16   2   8  16  16  16  16
#     4   8  16  34  57  82 109 147 195 239 288 352
#     4   8  24  44  78  96 128 160 204 276 324 414
#     4  10  21  45  69  97 120 159 205 253 326 387
#     4  11  23  37  56  83 114 154 204 256 305 358
#     4  12  24  40  64  92 125 164 206 262 319 386
#     4   9  18  34  57  83 117 157 200 250 302 359
#     4  11  22  37  60  92 127 165 208 262 318 376
#
# _framework density 9.9206350000000008
#
# number of rings (size 3 to 8) (size 9 to 14) (size 15 to 20)
#    0.267    1.600    0.889    5.067    0.000    3.200 
#    1.600    3.556    0.000    3.733    0.000    0.000 
#    0.000    0.000    0.000    0.000    0.000    0.000 
#
# Total GULP energy -250595.115149 kJ/mol
# GULP energy per Si atom -5568.780337 kJ/mol
# Density = 0.989806 g / cm^3
# Si number density = 9.920635 Si / 1000 Ang^3
#
#
#
# Elastic Constant Matrix: (Units=GPa)
#
#
# Indices 1 2 3 4 5 6 
#
# 1 96.9079 54.8807 22.8593 0.0000 0.0000 0.0000
# 2 54.8807 133.6647 36.1576 0.0000 0.0000 0.0000
# 3 22.8593 36.1576 81.3680 0.0000 0.0000 0.0000
# 4 0.0000 0.0000 0.0000 30.5906 0.0000 0.0000
# 5 0.0000 0.0000 0.0000 0.0000 -12.4403 0.0000
# 6 0.0000 0.0000 0.0000 0.0000 0.0000 18.5008
#
#
#
# Elastic Compliance Matrix: (Units=1/GPa)
#
#
# Indices 1 2 3 4 5 6 
#
# 1 0.013610 -0.005176 -0.001523 0.000000 0.000000 0.000000
# 2 -0.005176 0.010472 -0.003199 0.000000 0.000000 0.000000
# 3 -0.001523 -0.003199 0.014140 0.000000 0.000000 0.000000
# 4 0.000000 0.000000 0.000000 0.032690 0.000000 0.000000
# 5 0.000000 0.000000 0.000000 0.000000 -0.080384 0.000000
# 6 0.000000 0.000000 0.000000 0.000000 0.000000 0.054052
#
#
# Mechanical properties :
#
#
# Convention : Reuss Voigt Hill
#
# Bulk Modulus (GPa) = 54.27744 59.97064 57.12404
# Shear Modulus (GPa) = 70.90513 20.53312 45.71913
#
# Velocity S-wave (km/s) = 5.98446 3.22043 4.80546
# Velocity P-wave (km/s) = 8.66989 6.64222 7.72289
#
# Compressibility (1/GPa) = 0.01842386
#
# Stress axis : x y z
#
# Youngs Moduli (GPa) = 73.47768 95.49309 70.72366
#
# Poissons Ratio (x) = 0.49425 0.10774
# Poissons Ratio (y) = 0.38030 0.22627
# Poissons Ratio (z) = 0.11194 0.30552
#
# Static dielectric constant tensor:
#      x y z
#    x 1.716480 0.000000 0.000000 
#    y 0.000000 1.741130 0.000000 
#    z 0.000000 0.000000 1.661270 
# 
# From -- ./inp_files/12618.got.cif
#   From: 2010.05.17/outbox.ucp.g08.bks.cvg/sg71_7_cif.got.tgz:12618.got - 2010.06.11 16:29:00.
