data_PCOD9524293
_publ_section_title
;
Structure prediction by ZEFSAII (Michael W. Deem and Ramdas Pophale) SiO2 
 PCOD9524293
Probable space group: I M M M
;
_chemical_formula_sum "Si O2"
_cell_formula_units_Z 96
_cell_length_a 8.693260
_cell_length_b 28.227278
_cell_length_c 20.797009
_cell_angle_alpha 90.000000
_cell_angle_beta 90.000000
_cell_angle_gamma 90.000000
_cell_volume 5103.317036
_symmetry_space_group_name_H-M "I M M M"
_symmetry_group_IT_number 71
_symmetry_cell_setting 'orthorhombic'
loop_
_space_group_symop_operation_xyz
x,y,z
-x,-y,z
x,-y,-z
-x,y,-z
-x,-y,-z
x,y,-z
-x,y,z
x,-y,z
1/2+x,1/2+y,1/2+z
1/2-x,1/2-y,1/2+z
1/2+x,1/2-y,1/2-z
1/2-x,1/2+y,1/2-z
1/2-x,1/2-y,1/2-z
1/2+x,1/2+y,1/2-z
1/2-x,1/2+y,1/2+z
1/2+x,1/2-y,1/2+z
loop_
_atom_site_type_symbol
_atom_site_label
_atom_site_fract_x
_atom_site_fract_y
_atom_site_fract_z
Si Si1 0.184950 0.223875 0.312355
Si Si2 0.812992 0.709044 0.427749
Si Si3 0.815243 0.944591 0.574579
Si Si4 0.683780 0.554256 0.300327
Si Si5 0.817638 0.618571 0.187602
Si Si6 0.185520 0.599455 0.574278
O O1 0.250000 0.250000 0.250000
O O2 0.238144 0.253898 0.374466
O O3 0.241865 0.170188 0.314526
O O4 0.000000 0.224612 0.310664
O O5 0.761086 0.720835 0.500000
O O6 0.770322 0.654526 0.413690
O O7 0.000000 0.709621 0.428258
O O8 0.777945 0.933983 0.500000
O O9 0.732078 0.911257 0.625091
O O10 0.000000 0.939442 0.582035
O O11 0.778748 0.000000 0.586298
O O12 0.500000 0.558306 0.295022
O O13 0.727346 0.500000 0.285407
O O14 0.760398 0.589867 0.249964
O O15 0.736278 0.567452 0.372166
O O16 0.000000 0.623664 0.190506
O O17 0.224675 0.588162 0.500000
O O18 0.000000 0.595998 0.580128
#
# Coordination Sequence:
#
# PCOD9524293 Si02
#       6
#    16  16  16  16  16  16
#     4  11  22  37  59  85 114 149 190 237 286 337
#     4   8  16  33  57  83 109 141 182 224 267 320
#     4   9  19  38  63  88 115 149 189 234 287 347
#     4  11  24  40  58  81 111 148 192 242 291 340
#     4  12  25  39  57  83 116 152 191 238 290 344
#     4   9  18  35  60  88 117 148 184 228 279 338
#
# _framework density 18.811294
#
# number of rings (size 3 to 8) (size 9 to 14) (size 15 to 20)
#    0.000    2.000    0.000    5.500    0.000    6.667 
#    0.000    5.000    0.000    3.500    0.000    0.000 
#    0.000    0.000    0.000    0.000    0.000    0.000 
#
# Total GULP energy -268172.681409 kJ/mol
# GULP energy per Si atom -5586.930863 kJ/mol
# Density = 1.876848 g / cm^3
# Si number density = 18.811294 Si / 1000 Ang^3
#
#
#
# Elastic Constant Matrix: (Units=GPa)
#
#
# Indices 1 2 3 4 5 6 
#
# 1 45.2571 15.9383 20.7431 0.0000 0.0000 0.0000
# 2 15.9383 37.9878 20.6771 0.0000 0.0000 0.0000
# 3 20.7431 20.6771 65.5961 0.0000 0.0000 0.0000
# 4 0.0000 0.0000 0.0000 40.7780 0.0000 0.0000
# 5 0.0000 0.0000 0.0000 0.0000 33.5933 0.0000
# 6 0.0000 0.0000 0.0000 0.0000 0.0000 27.7950
#
#
#
# Elastic Compliance Matrix: (Units=1/GPa)
#
#
# Indices 1 2 3 4 5 6 
#
# 1 0.027863 -0.008322 -0.006188 0.000000 0.000000 0.000000
# 2 -0.008322 0.034262 -0.008168 0.000000 0.000000 0.000000
# 3 -0.006188 -0.008168 0.019776 0.000000 0.000000 0.000000
# 4 0.000000 0.000000 0.000000 0.024523 0.000000 0.000000
# 5 0.000000 0.000000 0.000000 0.000000 0.029768 0.000000
# 6 0.000000 0.000000 0.000000 0.000000 0.000000 0.035978
#
#
# Mechanical properties :
#
#
# Convention : Reuss Voigt Hill
#
# Bulk Modulus (GPa) = 27.36367 29.28423 28.32395
# Shear Modulus (GPa) = 21.76677 26.53208 24.14943
#
# Velocity S-wave (km/s) = 3.40533 3.75965 3.58686
# Velocity P-wave (km/s) = 5.48084 5.86922 5.67835
#
# Compressibility (1/GPa) = 0.03654481
#
# Stress axis : x y z
#
# Youngs Moduli (GPa) = 35.89001 29.18681 50.56560
#
# Poissons Ratio (x) = 0.24290 0.31288
# Poissons Ratio (y) = 0.29869 0.41304
# Poissons Ratio (z) = 0.22207 0.23841
#
# Static dielectric constant tensor:
#      x y z
#    x 1.636660 0.000000 0.000000 
#    y 0.000000 1.627230 0.000000 
#    z 0.000000 0.000000 1.599850 
# 
# From -- ./inp_files/50824.got.cif
#   From: 2010.05.17/outbox.cif.g08.bks.cpg/sg71_26_cif.got.tgz:50824.got - 2010.06.03 16:22:01.
