data_PCOD9524048
_publ_section_title
;
Structure prediction by ZEFSAII (Michael W. Deem and Ramdas Pophale) SiO2 
 PCOD9524048
Probable space group: I M M M
;
_chemical_formula_sum "Si O2"
_cell_formula_units_Z 88
_cell_length_a 7.596614
_cell_length_b 29.619533
_cell_length_c 19.242889
_cell_angle_alpha 90.000000
_cell_angle_beta 90.000000
_cell_angle_gamma 90.000000
_cell_volume 4329.807029
_symmetry_space_group_name_H-M "I M M M"
_symmetry_group_IT_number 71
_symmetry_cell_setting 'orthorhombic'
loop_
_space_group_symop_operation_xyz
x,y,z
-x,-y,z
x,-y,-z
-x,y,-z
-x,-y,-z
x,y,-z
-x,y,z
x,-y,z
1/2+x,1/2+y,1/2+z
1/2-x,1/2-y,1/2+z
1/2+x,1/2-y,1/2-z
1/2-x,1/2+y,1/2-z
1/2-x,1/2-y,1/2-z
1/2+x,1/2+y,1/2-z
1/2-x,1/2+y,1/2+z
1/2+x,1/2-y,1/2+z
loop_
_atom_site_type_symbol
_atom_site_label
_atom_site_fract_x
_atom_site_fract_y
_atom_site_fract_z
Si Si1 0.197825 0.110695 0.718590
Si Si2 0.285523 0.752646 0.922340
Si Si3 0.790781 0.550795 0.650379
Si Si4 0.795795 0.444685 0.500000
Si Si5 0.784448 0.148634 0.579179
Si Si6 0.790161 0.297323 0.713477
O O1 0.270051 0.080487 0.780945
O O2 0.279709 0.116709 0.641679
O O3 0.199678 0.161478 0.748481
O O4 0.000000 0.094341 0.707666
O O5 0.500000 0.751828 0.920588
O O6 0.230091 0.700844 0.907511
O O7 0.229763 0.788477 0.865188
O O8 0.229810 0.763926 0.000000
O O9 0.721710 0.500000 0.661794
O O10 0.719729 0.568616 0.575657
O O11 0.000000 0.547283 0.639366
O O12 0.793154 0.500000 0.500000
O O13 0.000000 0.429413 0.500000
O O14 0.733131 0.137044 0.500000
O O15 0.000000 0.148449 0.581094
O O16 0.750000 0.250000 0.750000
O O17 0.000000 0.305842 0.714843
#
# Coordination Sequence:
#
# PCOD9524048 Si02
#       6
#    16  16  16   8  16  16
#     4  11  21  33  51  77 105 132 166 208 259 308
#     4   8  14  27  47  67  88 123 172 212 238 275
#     4   9  18  35  58  80 101 129 168 210 249 296
#     4   7  12  28  55  79  97 125 169 209 237 285
#     4   8  14  27  48  71  94 126 171 213 242 283
#     4  11  20  32  50  72 101 134 169 209 254 300
#
# _framework density 20.324231000000001
#
# number of rings (size 3 to 8) (size 9 to 14) (size 15 to 20)
#    0.000    2.818    1.818    3.273    0.000    0.364 
#    1.636    0.455    0.000    7.091    0.000    3.818 
#    0.000    0.000    0.000    0.000    0.000    0.000 
#
# Total GULP energy -245123.286037 kJ/mol
# GULP energy per Si atom -5570.983774 kJ/mol
# Density = 2.027797 g / cm^3
# Si number density = 20.324231 Si / 1000 Ang^3
#
#
#
# Elastic Constant Matrix: (Units=GPa)
#
#
# Indices 1 2 3 4 5 6 
#
# 1 45.2522 -5.1079 3.0834 0.0000 0.0000 0.0000
# 2 -5.1079 43.0831 45.4086 0.0000 0.0000 0.0000
# 3 3.0834 45.4086 187.5833 -0.0001 0.0000 0.0000
# 4 0.0000 0.0000 -0.0001 31.6169 0.0000 0.0000
# 5 0.0000 0.0000 0.0000 0.0000 14.5802 0.0000
# 6 0.0000 0.0000 0.0000 0.0000 0.0000 31.7526
#
#
#
# Elastic Compliance Matrix: (Units=1/GPa)
#
#
# Indices 1 2 3 4 5 6 
#
# 1 0.022659 0.004134 -0.001373 0.000000 0.000000 0.000000
# 2 0.004134 0.031916 -0.007794 0.000000 0.000000 0.000000
# 3 -0.001373 -0.007794 0.007240 0.000000 0.000000 0.000000
# 4 0.000000 0.000000 0.000000 0.031629 0.000000 0.000000
# 5 0.000000 0.000000 0.000000 0.000000 0.068586 0.000000
# 6 0.000000 0.000000 0.000000 0.000000 0.000000 0.031493
#
#
# Mechanical properties :
#
#
# Convention : Reuss Voigt Hill
#
# Bulk Modulus (GPa) = 19.32453 40.29851 29.81152
# Shear Modulus (GPa) = 22.64099 31.09224 26.86662
#
# Velocity S-wave (km/s) = 3.34127 3.91552 3.63974
# Velocity P-wave (km/s) = 4.94107 6.34922 5.68889
#
# Compressibility (1/GPa) = 0.05174771
#
# Stress axis : x y z
#
# Youngs Moduli (GPa) = 44.13351 31.33269 138.11787
#
# Poissons Ratio (x) = -0.12952 0.18965
# Poissons Ratio (y) = -0.18243 1.07646
# Poissons Ratio (z) = 0.06060 0.24420
#
# Static dielectric constant tensor:
#      x y z
#    x 1.804760 0.000000 0.000000 
#    y 0.000000 1.691760 0.000000 
#    z 0.000000 0.000000 1.807190 
# 
# From -- ./inp_files/16692.got.cif
#   From: 2010.05.17/outbox.cif.g08.bks.cpg/sg71_9_cif.got.tgz:16692.got - 2010.06.03 16:22:01.
