data_PCOD9524555
_publ_section_title
;
Structure prediction by ZEFSAII (Michael W. Deem and Ramdas Pophale) SiO2 
 PCOD9524555
Probable space group: I M M M
;
_chemical_formula_sum "Si O2"
_cell_formula_units_Z 72
_cell_length_a 7.345744
_cell_length_b 32.621904
_cell_length_c 13.683093
_cell_angle_alpha 90.000000
_cell_angle_beta 90.000000
_cell_angle_gamma 90.000000
_cell_volume 3278.909071
_symmetry_space_group_name_H-M "I M M M"
_symmetry_group_IT_number 71
_symmetry_cell_setting 'orthorhombic'
loop_
_space_group_symop_operation_xyz
x,y,z
-x,-y,z
x,-y,-z
-x,y,-z
-x,-y,-z
x,y,-z
-x,y,z
x,-y,z
1/2+x,1/2+y,1/2+z
1/2-x,1/2-y,1/2+z
1/2+x,1/2-y,1/2-z
1/2-x,1/2+y,1/2-z
1/2-x,1/2-y,1/2-z
1/2+x,1/2+y,1/2-z
1/2-x,1/2+y,1/2+z
1/2+x,1/2-y,1/2+z
loop_
_atom_site_type_symbol
_atom_site_label
_atom_site_fract_x
_atom_site_fract_y
_atom_site_fract_z
Si Si1 0.220061 0.688382 0.303364
Si Si2 0.222029 0.547037 0.500000
Si Si3 0.278555 0.047770 0.389846
Si Si4 0.786864 0.727916 0.104152
Si Si5 0.222383 0.594902 0.694565
O O1 0.288440 0.705522 0.199198
O O2 0.273300 0.723282 0.379966
O O3 0.279984 0.641995 0.317787
O O4 0.000000 0.688193 0.302853
O O5 0.279164 0.500000 0.500000
O O6 0.279532 0.569272 0.599687
O O7 0.000000 0.547762 0.500000
O O8 0.221497 0.060394 0.500000
O O9 0.500000 0.048805 0.389849
O O10 0.218963 0.075049 0.297814
O O11 0.226827 0.000000 0.375867
O O12 0.000000 0.717373 0.102322
O O13 0.707094 0.716283 0.000000
O O14 0.000000 0.594465 0.696114
#
# Coordination Sequence:
#
# PCOD9524555 Si02
#       5
#    16   8  16  16  16
#     4   9  18  30  45  67  89 112 147 187 222 259
#     4   9  16  24  34  52  83 117 139 165 213 263
#     4   8  13  21  33  50  76 111 143 168 203 255
#     4   9  18  32  47  62  86 118 147 179 224 273
#     4   9  16  24  36  56  81 109 141 176 211 252
#
# _framework density 21.958523
#
# number of rings (size 3 to 8) (size 9 to 14) (size 15 to 20)
#    0.000    3.222    0.000    1.333    1.556    4.000 
#    0.000    4.444    0.000    0.000    0.000    0.000 
#    0.000    4.444    0.000    2.444    0.000    2.222 
#
# Total GULP energy -200904.169444 kJ/mol
# GULP energy per Si atom -5580.671373 kJ/mol
# Density = 2.190854 g / cm^3
# Si number density = 21.958523 Si / 1000 Ang^3
#
#
#
# Elastic Constant Matrix: (Units=GPa)
#
#
# Indices 1 2 3 4 5 6 
#
# 1 82.8687 -9.8191 -2.4014 0.0000 0.0000 0.0000
# 2 -9.8191 104.8806 42.5227 0.0001 0.0000 0.0001
# 3 -2.4014 42.5227 131.7895 0.0001 0.0000 0.0000
# 4 0.0000 0.0001 0.0001 0.6219 0.0000 0.0001
# 5 0.0000 0.0000 0.0000 0.0000 -7.6880 0.0000
# 6 0.0000 0.0001 0.0000 0.0001 0.0000 55.1461
#
#
#
# Elastic Compliance Matrix: (Units=1/GPa)
#
#
# Indices 1 2 3 4 5 6 
#
# 1 0.012206 0.001211 -0.000168 0.000000 0.000000 0.000000
# 2 0.001211 0.011090 -0.003556 -0.000002 0.000000 0.000000
# 3 -0.000168 -0.003556 0.008732 -0.000001 0.000000 0.000000
# 4 0.000000 -0.000002 -0.000001 1.607911 -0.000003 -0.000004
# 5 0.000000 0.000000 0.000000 -0.000003 -0.130073 0.000000
# 6 0.000000 0.000000 0.000000 -0.000004 0.000000 0.018134
#
#
# Mechanical properties :
#
#
# Convention : Reuss Voigt Hill
#
# Bulk Modulus (GPa) = 37.03571 42.23813 39.63692
# Shear Modulus (GPa) = 3.24249 28.89845 16.07047
#
# Velocity S-wave (km/s) = 1.21649 3.63167 2.70822
# Velocity P-wave (km/s) = 4.34465 6.07145 5.27913
#
# Compressibility (1/GPa) = 0.02700097
#
# Stress axis : x y z
#
# Youngs Moduli (GPa) = 81.92768 90.17270 114.51866
#
# Poissons Ratio (x) = -0.10920 0.01928
# Poissons Ratio (y) = -0.09921 0.40724
# Poissons Ratio (z) = 0.01379 0.32067
#
# Static dielectric constant tensor:
#      x y z
#    x 1.909460 0.000000 0.000000 
#    y 0.000000 1.749400 0.000000 
#    z 0.000000 0.000000 1.785920 
# 
# From -- ./inp_files/6475.got.cif
#   From: 2010.05.17/outbox.cif.g08.bks.cpg/sg71_4_cif.got.tgz:6475.got - 2010.06.03 16:22:01.
