data_PCOD9524592
_publ_section_title
;
Structure prediction by ZEFSAII (Michael W. Deem and Ramdas Pophale) SiO2 
 PCOD9524592
Probable space group: I M M M
;
_chemical_formula_sum "Si O2"
_cell_formula_units_Z 96
_cell_length_a 15.094180
_cell_length_b 32.311562
_cell_length_c 9.774448
_cell_angle_alpha 90.000000
_cell_angle_beta 90.000000
_cell_angle_gamma 90.000000
_cell_volume 4767.159890
_symmetry_space_group_name_H-M "I M M M"
_symmetry_group_IT_number 71
_symmetry_cell_setting 'orthorhombic'
loop_
_space_group_symop_operation_xyz
x,y,z
-x,-y,z
x,-y,-z
-x,y,-z
-x,-y,-z
x,y,-z
-x,y,z
x,-y,z
1/2+x,1/2+y,1/2+z
1/2-x,1/2-y,1/2+z
1/2+x,1/2-y,1/2-z
1/2-x,1/2+y,1/2-z
1/2-x,1/2-y,1/2-z
1/2+x,1/2+y,1/2-z
1/2-x,1/2+y,1/2+z
1/2+x,1/2-y,1/2+z
loop_
_atom_site_type_symbol
_atom_site_label
_atom_site_fract_x
_atom_site_fract_y
_atom_site_fract_z
Si Si1 0.893920 0.831365 0.654044
Si Si2 0.147061 0.500000 0.657609
Si Si3 0.603344 0.833654 0.334408
Si Si4 0.363330 0.425222 0.155365
Si Si5 0.608808 0.256404 0.658309
Si Si6 0.635531 0.500000 0.656783
Si Si7 0.153444 0.424504 0.155808
O O1 0.856031 0.828306 0.500000
O O2 0.878190 0.878160 0.702473
O O3 0.861124 0.794839 0.750687
O O4 0.000000 0.826426 0.645205
O O5 0.117888 0.500000 0.500000
O O6 0.255739 0.500000 0.655101
O O7 0.118057 0.540662 0.742001
O O8 0.609887 0.832192 0.500000
O O9 0.500000 0.835758 0.298395
O O10 0.637973 0.788849 0.287887
O O11 0.643487 0.877426 0.292245
O O12 0.395189 0.459690 0.260076
O O13 0.258158 0.431827 0.145042
O O14 0.398914 0.429148 0.000000
O O15 0.635195 0.261413 0.500000
O O16 0.500000 0.255604 0.659039
O O17 0.607064 0.500000 0.500000
O O18 0.116520 0.427422 0.000000
#
# Coordination Sequence:
#
# PCOD9524592 Si02
#       7
#    16   8  16  16  16   8  16
#     4   9  17  29  44  62  85 113 143 173 206 247
#     4   9  17  29  44  63  88 114 140 171 208 252
#     4   8  14  26  45  67  87 108 139 177 211 244
#     4   9  17  29  45  64  85 110 141 175 209 246
#     4   8  14  26  44  63  83 110 142 173 207 248
#     4   9  17  29  46  65  84 110 142 173 208 252
#     4   9  16  28  47  66  83 108 143 177 207 245
#
# _framework density 20.137775999999999
#
# number of rings (size 3 to 8) (size 9 to 14) (size 15 to 20)
#    0.000    3.333    0.000    1.500    0.000    2.667 
#    0.000    2.500    0.000    6.500    0.000    0.000 
#    0.000    0.000    0.000    0.000    0.000    0.000 
#
# Total GULP energy -267477.149932 kJ/mol
# GULP energy per Si atom -5572.440624 kJ/mol
# Density = 2.009194 g / cm^3
# Si number density = 20.137776 Si / 1000 Ang^3
#
#
#
# Elastic Constant Matrix: (Units=GPa)
#
#
# Indices 1 2 3 4 5 6 
#
# 1 32.4116 4.6837 7.4632 0.0006 0.0000 0.0000
# 2 4.6837 227.4162 121.5191 -0.0008 0.0004 0.0002
# 3 7.4632 121.5191 95.6322 0.0007 0.0007 0.0008
# 4 0.0006 -0.0008 0.0007 17.7150 0.0005 0.0001
# 5 0.0000 0.0004 0.0007 0.0005 2.8158 -0.0001
# 6 0.0000 0.0002 0.0008 0.0001 -0.0001 21.6994
#
#
#
# Elastic Compliance Matrix: (Units=1/GPa)
#
#
# Indices 1 2 3 4 5 6 
#
# 1 0.031732 0.002086 -0.005128 -0.000001 0.000001 0.000000
# 2 0.002086 0.013835 -0.017743 0.000001 0.000003 0.000001
# 3 -0.005128 -0.017743 0.033403 -0.000002 -0.000007 -0.000001
# 4 -0.000001 0.000001 -0.000002 0.056449 -0.000009 0.000000
# 5 0.000001 0.000003 -0.000007 -0.000009 0.355135 0.000002
# 6 0.000000 0.000001 -0.000001 0.000000 0.000002 0.046084
#
#
# Mechanical properties :
#
#
# Convention : Reuss Voigt Hill
#
# Bulk Modulus (GPa) = 26.73659 69.19910 47.96785
# Shear Modulus (GPa) = 8.46489 23.23232 15.84860
#
# Velocity S-wave (km/s) = 2.05246 3.40025 2.80841
# Velocity P-wave (km/s) = 4.35000 7.06067 5.86411
#
# Compressibility (1/GPa) = 0.03740193
#
# Stress axis : x y z
#
# Youngs Moduli (GPa) = 31.51359 72.27885 29.93733
#
# Poissons Ratio (x) = -0.15080 0.15350
# Poissons Ratio (y) = -0.06575 0.53119
# Poissons Ratio (z) = 0.16159 1.28246
#
# Static dielectric constant tensor:
#      x y z
#    x 1.762620 0.000000 0.000000 
#    y 0.000000 1.717740 0.000000 
#    z 0.000000 0.000000 1.693410 
# 
# From -- ./inp_files/13228.got.cif
#   From: 2010.05.17/outbox.cif.g08.bks.cpg/sg71_7_cif.got.tgz:13228.got - 2010.06.03 16:22:01.
