data_PCOD9524208
_publ_section_title
;
Structure prediction by ZEFSAII (Michael W. Deem and Ramdas Pophale) SiO2 
 PCOD9524208
Probable space group: I M M M
;
_chemical_formula_sum "Si O2"
_cell_formula_units_Z 66
_cell_length_a 14.386358
_cell_length_b 19.761055
_cell_length_c 12.843337
_cell_angle_alpha 90.000000
_cell_angle_beta 90.000000
_cell_angle_gamma 90.000000
_cell_volume 3651.227289
_symmetry_space_group_name_H-M "I M M M"
_symmetry_group_IT_number 71
_symmetry_cell_setting 'orthorhombic'
loop_
_space_group_symop_operation_xyz
x,y,z
-x,-y,z
x,-y,-z
-x,y,-z
-x,-y,-z
x,y,-z
-x,y,z
x,-y,z
1/2+x,1/2+y,1/2+z
1/2-x,1/2-y,1/2+z
1/2+x,1/2-y,1/2-z
1/2-x,1/2+y,1/2-z
1/2-x,1/2-y,1/2-z
1/2+x,1/2+y,1/2-z
1/2-x,1/2+y,1/2+z
1/2+x,1/2-y,1/2+z
loop_
_atom_site_type_symbol
_atom_site_label
_atom_site_fract_x
_atom_site_fract_y
_atom_site_fract_z
Si Si1 0.111779 0.390183 0.500000
Si Si2 0.500000 0.000000 0.500000
Si Si3 0.675686 0.309646 0.229344
Si Si4 0.109952 0.771905 0.500000
Si Si5 0.500000 0.875909 0.336880
Si Si6 0.000000 0.780482 0.121148
Si Si7 0.318242 0.077410 0.777348
O O1 0.126926 0.309039 0.500000
O O2 0.160249 0.420477 0.399228
O O3 0.000000 0.402670 0.500000
O O4 0.500000 0.060113 0.411984
O O5 0.750000 0.250000 0.250000
O O6 0.647511 0.302149 0.108186
O O7 0.589836 0.301327 0.309643
O O8 0.727258 0.380396 0.249164
O O9 0.000000 0.781644 0.500000
O O10 0.500000 0.801245 0.383775
O O11 0.406783 0.883837 0.270227
O O12 0.000000 0.805058 0.000000
O O13 0.314639 0.000000 0.740184
#
# Coordination Sequence:
#
# PCOD9524208 Si02
#       7
#     8   2  16   8   8   8  16
#     4  11  21  36  66  97 133 169 203 267 335 391
#     4  12  24  36  60  94 148 170 194 260 364 398
#     4  12  25  42  69  97 127 175 220 268 321 385
#     4  11  22  44  68  95 130 162 222 278 319 375
#     4  12  22  41  63  94 132 172 208 266 331 398
#     4  12  26  43  66  99 134 166 221 277 325 377
#     4  12  25  41  63  98 134 171 217 261 327 395
#
# _framework density 18.076112999999999
#
# number of rings (size 3 to 8) (size 9 to 14) (size 15 to 20)
#    0.000    0.242    9.091    0.364    3.394    1.455 
#    0.000    0.606    0.000    1.455    0.000    0.000 
#    0.000    0.000    0.000    0.000    0.000    0.000 
#
# Total GULP energy -184082.015276 kJ/mol
# GULP energy per Si atom -5578.242887 kJ/mol
# Density = 1.803497 g / cm^3
# Si number density = 18.076113 Si / 1000 Ang^3
#
#
#
# Elastic Constant Matrix: (Units=GPa)
#
#
# Indices 1 2 3 4 5 6 
#
# 1 119.8603 47.5810 56.9246 0.0000 0.0000 0.0000
# 2 47.5810 87.1288 21.7867 0.0000 0.0000 0.0000
# 3 56.9246 21.7867 145.1455 0.0000 0.0000 0.0000
# 4 0.0000 0.0000 0.0000 -78.1957 0.0000 0.0000
# 5 0.0000 0.0000 0.0000 0.0000 34.4939 0.0000
# 6 0.0000 0.0000 0.0000 0.0000 0.0000 11.9581
#
#
#
# Elastic Compliance Matrix: (Units=1/GPa)
#
#
# Indices 1 2 3 4 5 6 
#
# 1 0.012600 -0.005865 -0.004061 0.000000 0.000000 0.000000
# 2 -0.005865 0.014655 0.000101 0.000000 0.000000 0.000000
# 3 -0.004061 0.000101 0.008467 0.000000 0.000000 0.000000
# 4 0.000000 0.000000 0.000000 -0.012788 0.000000 0.000000
# 5 0.000000 0.000000 0.000000 0.000000 0.028991 0.000000
# 6 0.000000 0.000000 0.000000 0.000000 0.000000 0.083625
#
#
# Mechanical properties :
#
#
# Convention : Reuss Voigt Hill
#
# Bulk Modulus (GPa) = 62.22573 67.19102 64.70837
# Shear Modulus (GPa) = 31.14108 8.70741 19.92425
#
# Velocity S-wave (km/s) = 4.15514 2.19717 3.32360
# Velocity P-wave (km/s) = 7.58414 6.60973 7.11364
#
# Compressibility (1/GPa) = 0.01607052
#
# Stress axis : x y z
#
# Youngs Moduli (GPa) = 79.36343 68.23500 118.10103
#
# Poissons Ratio (x) = 0.40023 0.47964
# Poissons Ratio (y) = 0.46550 -0.01188
# Poissons Ratio (z) = 0.32232 -0.00686
#
# Static dielectric constant tensor:
#      x y z
#    x 1.612490 0.000000 0.000000 
#    y 0.000000 1.616940 0.000000 
#    z 0.000000 0.000000 1.664320 
# 
# From -- ./inp_files/21327.got.cif
#   From: 2010.05.17/outbox.cif.g08.bks.cpg/sg71_11_cif.got.tgz:21327.got - 2010.06.03 16:22:01.
