data_PCOD9524214
_publ_section_title
;
Structure prediction by ZEFSAII (Michael W. Deem and Ramdas Pophale) SiO2 
 PCOD9524214
Probable space group: I M M M
;
_chemical_formula_sum "Si O2"
_cell_formula_units_Z 96
_cell_length_a 14.241095
_cell_length_b 14.956988
_cell_length_c 20.889091
_cell_angle_alpha 90.000000
_cell_angle_beta 90.000000
_cell_angle_gamma 90.000000
_cell_volume 4449.457579
_symmetry_space_group_name_H-M "I M M M"
_symmetry_group_IT_number 71
_symmetry_cell_setting 'orthorhombic'
loop_
_space_group_symop_operation_xyz
x,y,z
-x,-y,z
x,-y,-z
-x,y,-z
-x,-y,-z
x,y,-z
-x,y,z
x,-y,z
1/2+x,1/2+y,1/2+z
1/2-x,1/2-y,1/2+z
1/2+x,1/2-y,1/2-z
1/2-x,1/2+y,1/2-z
1/2-x,1/2-y,1/2-z
1/2+x,1/2+y,1/2-z
1/2-x,1/2+y,1/2+z
1/2+x,1/2-y,1/2+z
loop_
_atom_site_type_symbol
_atom_site_label
_atom_site_fract_x
_atom_site_fract_y
_atom_site_fract_z
Si Si1 0.702279 0.402882 0.793992
Si Si2 0.603278 0.152448 0.645852
Si Si3 0.859009 0.602664 0.000000
Si Si4 0.891883 0.136214 0.836156
Si Si5 0.365846 0.395608 0.000000
Si Si6 0.732992 0.900974 0.076018
Si Si7 0.894199 0.236188 0.618560
O O1 0.668975 0.500000 0.818592
O O2 0.809373 0.392692 0.817863
O O3 0.677644 0.398329 0.719343
O O4 0.645724 0.320362 0.822946
O O5 0.500000 0.116754 0.663095
O O6 0.612813 0.144586 0.568335
O O7 0.607242 0.256466 0.663964
O O8 0.891764 0.500000 0.000000
O O9 0.746687 0.602672 0.000000
O O10 0.840312 0.107691 0.900997
O O11 0.000000 0.106260 0.828561
O O12 0.394040 0.336173 0.939077
O O13 0.396170 0.500000 0.000000
O O14 0.673068 0.819374 0.104240
O O15 0.698056 0.000000 0.094648
O O16 0.727127 0.893137 0.000000
O O17 0.000000 0.267200 0.629373
#
# Coordination Sequence:
#
# PCOD9524214 Si02
#       7
#    16  16   8  16   8  16  16
#     4  12  25  44  69  99 141 181 222 279 339 404
#     4  11  24  41  68 102 138 185 230 275 336 407
#     4  11  21  39  65  99 144 181 221 281 341 400
#     4  11  25  46  72  99 133 177 226 280 341 407
#     4  11  21  37  62  96 136 179 226 279 337 399
#     4  11  25  46  71  99 133 174 226 288 346 402
#     4  12  25  42  67  98 135 179 227 280 336 404
#
# _framework density 21.575664
#
# number of rings (size 3 to 8) (size 9 to 14) (size 15 to 20)
#    0.000    0.667    4.167    3.000    1.167    6.000 
#    0.000    1.667    0.000    2.000    0.000    0.000 
#    0.000    0.000    0.000    0.000    0.000    0.000 
#
# Total GULP energy -268312.221555 kJ/mol
# GULP energy per Si atom -5589.837949 kJ/mol
# Density = 2.152656 g / cm^3
# Si number density = 21.575664 Si / 1000 Ang^3
#
#
#
# Elastic Constant Matrix: (Units=GPa)
#
#
# Indices 1 2 3 4 5 6 
#
# 1 136.6051 25.2131 36.1698 0.0000 0.0000 0.0000
# 2 25.2131 134.8838 42.2295 0.0000 0.0000 0.0000
# 3 36.1698 42.2295 46.5223 0.0000 0.0000 0.0000
# 4 0.0000 0.0000 0.0000 15.8363 0.0000 0.0000
# 5 0.0000 0.0000 0.0000 0.0000 2.8898 0.0000
# 6 0.0000 0.0000 0.0000 0.0000 0.0000 24.6752
#
#
#
# Elastic Compliance Matrix: (Units=1/GPa)
#
#
# Indices 1 2 3 4 5 6 
#
# 1 0.009269 0.000731 -0.007871 0.000000 0.000000 0.000000
# 2 0.000731 0.010415 -0.010023 0.000000 0.000000 0.000000
# 3 -0.007871 -0.010023 0.036712 0.000000 0.000000 0.000000
# 4 0.000000 0.000000 0.000000 0.063146 0.000000 0.000000
# 5 0.000000 0.000000 0.000000 0.000000 0.346040 0.000000
# 6 0.000000 0.000000 0.000000 0.000000 0.000000 0.040527
#
#
# Mechanical properties :
#
#
# Convention : Reuss Voigt Hill
#
# Bulk Modulus (GPa) = 45.30464 58.35956 51.83210
# Shear Modulus (GPa) = 9.12759 22.97353 16.05056
#
# Velocity S-wave (km/s) = 2.05905 3.26665 2.73045
# Velocity P-wave (km/s) = 5.16687 6.42927 5.83233
#
# Compressibility (1/GPa) = 0.02207279
#
# Stress axis : x y z
#
# Youngs Moduli (GPa) = 107.88289 96.01580 27.23901
#
# Poissons Ratio (x) = -0.07023 0.21439
# Poissons Ratio (y) = -0.07891 0.27301
# Poissons Ratio (z) = 0.84910 0.96233
#
# Static dielectric constant tensor:
#      x y z
#    x 1.774550 0.000000 0.000000 
#    y 0.000000 1.770850 0.000000 
#    z 0.000000 0.000000 1.796790 
# 
# From -- ./inp_files/53032.got.cif
#   From: 2010.05.17/outbox.cif.g08.bks.cpg/sg71_27_cif.got.tgz:53032.got - 2010.06.03 16:22:01.
