data_PCOD9524930
_publ_section_title
;
Structure prediction by ZEFSAII (Michael W. Deem and Ramdas Pophale) SiO2 
 PCOD9524930
Probable space group: I B A M
;
_chemical_formula_sum "Si O2"
_cell_formula_units_Z 80
_cell_length_a 13.878354
_cell_length_b 28.939709
_cell_length_c 8.596696
_cell_angle_alpha 90.000000
_cell_angle_beta 90.000000
_cell_angle_gamma 90.000000
_cell_volume 3452.738521
_symmetry_space_group_name_H-M "I B A M"
_symmetry_group_IT_number 72
_symmetry_cell_setting 'orthorhombic'
loop_
_space_group_symop_operation_xyz
x,y,z
-x,-y,z
x,-y,1/2-z
-x,y,1/2-z
-x,-y,-z
x,y,-z
-x,y,1/2+z
x,-y,1/2+z
1/2+x,1/2+y,1/2+z
1/2-x,1/2-y,1/2+z
1/2+x,1/2-y,-z
1/2-x,1/2+y,-z
1/2-x,1/2-y,1/2-z
1/2+x,1/2+y,1/2-z
1/2-x,1/2+y,z
1/2+x,1/2-y,z
loop_
_atom_site_type_symbol
_atom_site_label
_atom_site_fract_x
_atom_site_fract_y
_atom_site_fract_z
Si Si1 0.687386 0.951471 0.814074
Si Si2 0.599917 0.437648 0.324375
Si Si3 0.152208 0.165391 0.325051
Si Si4 0.640308 0.755170 0.315689
Si Si5 0.646784 0.148750 0.681040
O O1 0.799858 0.948556 0.761928
O O2 0.633919 0.904026 0.760203
O O3 0.648460 0.000000 0.750000
O O4 0.683736 0.951334 0.000000
O O5 0.500000 0.452803 0.250000
O O6 0.609026 0.455586 0.500000
O O7 0.594544 0.381893 0.330923
O O8 0.194237 0.171840 0.500000
O O9 0.097821 0.211563 0.276424
O O10 0.237958 0.155643 0.203332
O O11 0.635461 0.748612 0.500000
O O12 0.750000 0.750000 0.250000
O O13 0.606615 0.806664 0.271149
O O14 0.620519 0.151862 0.500000
#
# Coordination Sequence:
#
# PCOD9524930 Si02
#       5
#    16  16  16  16  16
#     4  10  20  32  45  58  74  97 128 165 202 236
#     4  10  20  32  45  58  74  97 128 165 202 236
#     4   9  16  26  39  55  74  95 118 148 185 226
#     4  10  16  22  36  56  76  96 116 143 178 221
#     4   9  16  26  39  55  74  95 118 148 185 226
#
# _framework density 23.170013000000001
#
# number of rings (size 3 to 8) (size 9 to 14) (size 15 to 20)
#    0.000    2.400    0.000    6.600    0.000    5.200 
#    0.000    2.000    0.000    0.000    0.000    0.000 
#    0.000    0.000    0.000    0.000    0.000    1.000 
#
# Total GULP energy -223070.945675 kJ/mol
# GULP energy per Si atom -5576.773642 kJ/mol
# Density = 2.311728 g / cm^3
# Si number density = 23.170013 Si / 1000 Ang^3
#
#
#
# Elastic Constant Matrix: (Units=GPa)
#
#
# Indices 1 2 3 4 5 6 
#
# 1 37.3400 -11.4301 -12.3079 0.0001 0.0006 0.0002
# 2 -11.4301 225.5040 39.7840 0.0010 -0.0001 -0.0002
# 3 -12.3079 39.7840 88.4914 0.0092 0.0001 -0.0004
# 4 0.0001 0.0010 0.0092 39.5592 -0.0003 -0.0005
# 5 0.0006 -0.0001 0.0001 -0.0003 -2.6570 -0.0007
# 6 0.0002 -0.0002 -0.0004 -0.0005 -0.0007 -21.8237
#
#
#
# Elastic Compliance Matrix: (Units=1/GPa)
#
#
# Indices 1 2 3 4 5 6 
#
# 1 0.028200 0.000801 0.003562 -0.000001 0.000006 0.000000
# 2 0.000801 0.004839 -0.002064 0.000000 0.000000 0.000000
# 3 0.003562 -0.002064 0.012724 -0.000003 0.000001 0.000000
# 4 -0.000001 0.000000 -0.000003 0.025279 -0.000003 -0.000001
# 5 0.000006 0.000000 0.000001 -0.000003 -0.376368 0.000012
# 6 0.000000 0.000000 0.000000 -0.000001 0.000012 -0.045822
#
#
# Mechanical properties :
#
#
# Convention : Reuss Voigt Hill
#
# Bulk Modulus (GPa) = 19.85652 42.60303 31.22977
# Shear Modulus (GPa) = -14.75108 25.36834 5.30863
#
# Velocity S-wave (km/s) = -2.52592 3.31248 1.51530
# Velocity P-wave (km/s) = 0.28547 5.74953 4.07054
#
# Compressibility (1/GPa) = 0.05036130
#
# Stress axis : x y z
#
# Youngs Moduli (GPa) = 35.46069 206.64191 78.59147
#
# Poissons Ratio (x) = -0.16551 -0.27996
# Poissons Ratio (y) = -0.02840 0.16223
# Poissons Ratio (z) = -0.12632 0.42656
#
# Static dielectric constant tensor:
#      x y z
#    x 1.892970 0.000000 0.000000 
#    y 0.000000 1.998870 0.000000 
#    z 0.000000 0.000000 1.806580 
# 
# From -- ./inp_files/4995.got.cif
#   From: 2010.05.17/outbox.cif.g08.bks.cpg/sg72_3_cif.got.tgz:4995.got - 2010.06.03 17:03:01.
