data_PCOD9524805
_publ_section_title
;
Structure prediction by ZEFSAII (Michael W. Deem and Ramdas Pophale) SiO2 
 PCOD9524805
Probable space group: I M M M
;
_chemical_formula_sum "Si O2"
_cell_formula_units_Z 48
_cell_length_a 27.000000
_cell_length_b 21.000000
_cell_length_c 9.000000
_cell_angle_alpha 90.000000
_cell_angle_beta 90.000000
_cell_angle_gamma 90.000000
_cell_volume 5103.000000
_symmetry_space_group_name_H-M "I M M M"
_symmetry_group_IT_number 71
_symmetry_cell_setting 'orthorhombic'
loop_
_space_group_symop_operation_xyz
x,y,z
-x,-y,z
x,-y,-z
-x,y,-z
-x,-y,-z
x,y,-z
-x,y,z
x,-y,z
1/2+x,1/2+y,1/2+z
1/2-x,1/2-y,1/2+z
1/2+x,1/2-y,1/2-z
1/2-x,1/2+y,1/2-z
1/2-x,1/2-y,1/2-z
1/2+x,1/2+y,1/2-z
1/2-x,1/2+y,1/2+z
1/2+x,1/2-y,1/2+z
loop_
_atom_site_type_symbol
_atom_site_label
_atom_site_fract_x
_atom_site_fract_y
_atom_site_fract_z
Si Si1 0.637767 0.575398 0.677981
Si Si2 0.942925 0.167216 0.674082
Si Si3 0.059416 0.570295 0.670743
Si Si4 0.815154 0.292142 0.331747
Si Si5 0.227503 0.148274 0.670810
Si Si6 0.584558 0.201960 0.326836
O O1 0.642152 0.583894 0.500000
O O2 0.630215 0.500000 0.707626
O O3 0.593136 0.619368 0.738998
O O4 0.686854 0.601531 0.759596
O O5 0.928463 0.168623 0.500000
O O6 0.939261 0.238858 0.738454
O O7 0.000000 0.146360 0.685381
O O8 0.076606 0.578845 0.500000
O O9 0.076963 0.500000 0.723118
O O10 0.071489 0.632040 0.766644
O O11 0.000000 0.567395 0.666378
O O12 0.832702 0.306098 0.500000
O O13 0.794256 0.220266 0.334651
O O14 0.774411 0.342737 0.278263
O O15 0.857648 0.291494 0.209475
O O16 0.239697 0.130713 0.500000
O O17 0.573013 0.207698 0.500000
#
# Coordination Sequence:
#
# PCOD9524805 Si02
#       6
#    16  16  16  16  16  16
#     4  11  24  41  62  88 121 160 200 247 305 364
#     4  11  24  41  61  86 117 156 205 256 303 355
#     4   9  19  37  59  81 110 152 197 238 286 348
#     4  10  20  35  59  87 118 151 188 236 288 342
#     4  10  20  36  60  88 116 150 191 236 286 343
#     4  12  23  35  57  89 123 156 193 243 298 351
#
# _framework density 9.4062319999999993
#
# number of rings (size 3 to 8) (size 9 to 14) (size 15 to 20)
#    0.000    1.500    1.667    4.500    0.000    7.000 
#    0.000    3.333    0.000    5.000    0.000    0.000 
#    0.000    0.000    0.000    0.000    0.000    0.000 
#
# Total GULP energy -267900.020580 kJ/mol
# GULP energy per Si atom -5581.250429 kJ/mol
# Density = 0.938482 g / cm^3
# Si number density = 9.406232 Si / 1000 Ang^3
#
#
#
# Elastic Constant Matrix: (Units=GPa)
#
#
# Indices 1 2 3 4 5 6 
#
# 1 34.1623 7.8199 1.7556 0.0000 0.0000 0.0000
# 2 7.8199 91.6338 43.2141 0.0000 0.0000 0.0000
# 3 1.7556 43.2141 100.2449 0.0000 0.0000 0.0000
# 4 0.0000 0.0000 0.0000 30.7921 0.0000 0.0000
# 5 0.0000 0.0000 0.0000 0.0000 39.6010 0.0000
# 6 0.0000 0.0000 0.0000 0.0000 0.0000 1609.1652
#
#
#
# Elastic Compliance Matrix: (Units=1/GPa)
#
#
# Indices 1 2 3 4 5 6 
#
# 1 0.029897 -0.002892 0.000723 0.000000 0.000000 0.000000
# 2 -0.002892 0.013978 -0.005975 0.000000 0.000000 0.000000
# 3 0.000723 -0.005975 0.012539 0.000000 0.000000 0.000000
# 4 0.000000 0.000000 0.000000 0.032476 0.000000 0.000000
# 5 0.000000 0.000000 0.000000 0.000000 0.025252 0.000000
# 6 0.000000 0.000000 0.000000 0.000000 0.000000 0.000621
#
#
# Mechanical properties :
#
#
# Convention : Reuss Voigt Hill
#
# Bulk Modulus (GPa) = 24.92210 36.84670 30.88440
# Shear Modulus (GPa) = 34.61997 347.46177 191.04087
#
# Velocity S-wave (km/s) = 4.29449 13.60509 10.08814
# Velocity P-wave (km/s) = 6.15358 16.32259 12.33478
#
# Compressibility (1/GPa) = 0.04012503
#
# Stress axis : x y z
#
# Youngs Moduli (GPa) = 33.44823 71.54319 79.75380
#
# Poissons Ratio (x) = 0.20694 -0.05769
# Poissons Ratio (y) = 0.09675 0.47652
# Poissons Ratio (z) = -0.02419 0.42746
#
# Static dielectric constant tensor:
#      x y z
#    x 1.678390 0.000000 0.000000 
#    y 0.000000 1.639670 0.000000 
#    z 0.000000 0.000000 1.637510 
# 
# From -- ./inp_files/14845.got.cif
#   From: 2010.05.17/outbox.ucp.g08.bks.cvg/sg71_8_cif.got.tgz:14845.got - 2010.06.11 16:29:00.
