data_PCOD9524307
_publ_section_title
;
Structure prediction by ZEFSAII (Michael W. Deem and Ramdas Pophale) SiO2 
 PCOD9524307
Probable space group: I M M M
;
_chemical_formula_sum "Si O2"
_cell_formula_units_Z 100
_cell_length_a 9.826037
_cell_length_b 19.836952
_cell_length_c 28.706248
_cell_angle_alpha 90.000000
_cell_angle_beta 90.000000
_cell_angle_gamma 90.000000
_cell_volume 5595.382370
_symmetry_space_group_name_H-M "I M M M"
_symmetry_group_IT_number 71
_symmetry_cell_setting 'orthorhombic'
loop_
_space_group_symop_operation_xyz
x,y,z
-x,-y,z
x,-y,-z
-x,y,-z
-x,-y,-z
x,y,-z
-x,y,z
x,-y,z
1/2+x,1/2+y,1/2+z
1/2-x,1/2-y,1/2+z
1/2+x,1/2-y,1/2-z
1/2-x,1/2+y,1/2-z
1/2-x,1/2-y,1/2-z
1/2+x,1/2+y,1/2-z
1/2-x,1/2+y,1/2+z
1/2+x,1/2-y,1/2+z
loop_
_atom_site_type_symbol
_atom_site_label
_atom_site_fract_x
_atom_site_fract_y
_atom_site_fract_z
Si Si1 0.742747 0.864889 0.388935
Si Si2 0.160384 0.579775 0.788855
Si Si3 0.500000 0.581504 0.055291
Si Si4 0.337997 0.314531 0.733273
Si Si5 0.657019 0.139496 0.948714
Si Si6 0.839777 0.213514 0.124918
Si Si7 0.818513 0.500000 0.500000
Si Si8 0.000000 0.422840 0.944864
O O1 0.710486 0.904138 0.341170
O O2 0.875106 0.888935 0.415717
O O3 0.733181 0.786103 0.377090
O O4 0.626804 0.883717 0.425190
O O5 0.167683 0.500000 0.780121
O O6 0.259740 0.621864 0.755336
O O7 0.000000 0.600636 0.784932
O O8 0.500000 0.500000 0.057300
O O9 0.500000 0.599567 0.000000
O O10 0.500000 0.310897 0.746313
O O11 0.250000 0.250000 0.750000
O O12 0.331770 0.314594 0.677276
O O13 0.500000 0.151233 0.934669
O O14 0.763367 0.166201 0.911710
O O15 0.674500 0.060273 0.960391
O O16 0.677369 0.172971 0.000000
O O17 0.000000 0.221816 0.113625
O O18 0.000000 0.500000 0.927169
O O19 0.000000 0.425026 0.000000
#
# Coordination Sequence:
#
# PCOD9524307 Si02
#       8
#    16  16   8  16  16  16   4   8
#     4  12  23  41  63  90 127 167 209 262 315 374
#     4  11  23  42  68  96 124 162 219 270 319 384
#     4  11  26  44  60  89 130 168 214 269 319 375
#     4  11  24  43  67  92 129 169 208 266 323 387
#     4   9  19  38  67  93 123 161 210 254 304 369
#     4  11  24  42  61  93 130 166 207 256 317 377
#     4   8  17  44  69  98 125 168 211 262 305 368
#     4  11  22  38  62  89 118 166 212 253 313 371
#
# _framework density 17.871880000000001
#
# number of rings (size 3 to 8) (size 9 to 14) (size 15 to 20)
#    0.480    0.800    3.200    2.880    2.240    4.480 
#    1.440    0.800    0.000    0.000    0.000    0.000 
#    0.000    0.000    0.000    0.000    0.000    0.000 
#
# Total GULP energy -278341.190205 kJ/mol
# GULP energy per Si atom -5566.823804 kJ/mol
# Density = 1.783120 g / cm^3
# Si number density = 17.871880 Si / 1000 Ang^3
#
#
#
# Elastic Constant Matrix: (Units=GPa)
#
#
# Indices 1 2 3 4 5 6 
#
# 1 166.0886 57.0458 77.1363 0.0000 0.0000 0.0000
# 2 57.0458 87.4078 49.3095 0.0000 0.0000 0.0000
# 3 77.1363 49.3095 101.5174 0.0000 0.0000 0.0000
# 4 0.0000 0.0000 0.0000 40.0718 0.0000 0.0000
# 5 0.0000 0.0000 0.0000 0.0000 23.7746 0.0000
# 6 0.0000 0.0000 0.0000 0.0000 0.0000 4.2890
#
#
#
# Elastic Compliance Matrix: (Units=1/GPa)
#
#
# Indices 1 2 3 4 5 6 
#
# 1 0.009858 -0.003042 -0.006013 0.000000 0.000000 0.000000
# 2 -0.003042 0.016697 -0.005799 0.000000 0.000000 0.000000
# 3 -0.006013 -0.005799 0.017236 0.000000 0.000000 0.000000
# 4 0.000000 0.000000 0.000000 0.024955 0.000000 0.000000
# 5 0.000000 0.000000 0.000000 0.000000 0.042062 0.000000
# 6 0.000000 0.000000 0.000000 0.000000 0.000000 0.233153
#
#
# Mechanical properties :
#
#
# Convention : Reuss Voigt Hill
#
# Bulk Modulus (GPa) = 71.00332 80.22190 75.61261
# Shear Modulus (GPa) = 13.21477 25.06190 19.13833
#
# Velocity S-wave (km/s) = 2.72217 3.74880 3.27595
# Velocity P-wave (km/s) = 7.04951 7.98265 7.53055
#
# Compressibility (1/GPa) = 0.01408385
#
# Stress axis : x y z
#
# Youngs Moduli (GPa) = 101.43711 59.89038 58.01690
#
# Poissons Ratio (x) = 0.18217 0.34887
# Poissons Ratio (y) = 0.30854 0.33644
# Poissons Ratio (z) = 0.60997 0.34731
#
# Static dielectric constant tensor:
#      x y z
#    x 1.591890 0.000000 0.000000 
#    y 0.000000 1.624270 0.000000 
#    z 0.000000 0.000000 1.599240 
# 
# From -- ./inp_files/63390.got.cif
#   From: 2010.05.17/outbox.cif.g08.bks.cpg/sg71_32_cif.got.tgz:63390.got - 2010.06.03 16:22:01.
