data_PCOD9524987
_publ_section_title
;
Structure prediction by ZEFSAII (Michael W. Deem and Ramdas Pophale) SiO2 
 PCOD9524987
Probable space group: I B A M
;
_chemical_formula_sum "Si O2"
_cell_formula_units_Z 44
_cell_length_a 6.996458
_cell_length_b 19.982913
_cell_length_c 11.662475
_cell_angle_alpha 90.000000
_cell_angle_beta 90.000000
_cell_angle_gamma 90.000000
_cell_volume 1630.526099
_symmetry_space_group_name_H-M "I B A M"
_symmetry_group_IT_number 72
_symmetry_cell_setting 'orthorhombic'
loop_
_space_group_symop_operation_xyz
x,y,z
-x,-y,z
x,-y,1/2-z
-x,y,1/2-z
-x,-y,-z
x,y,-z
-x,y,1/2+z
x,-y,1/2+z
1/2+x,1/2+y,1/2+z
1/2-x,1/2-y,1/2+z
1/2+x,1/2-y,-z
1/2-x,1/2+y,-z
1/2-x,1/2-y,1/2-z
1/2+x,1/2+y,1/2-z
1/2-x,1/2+y,z
1/2+x,1/2-y,z
loop_
_atom_site_type_symbol
_atom_site_label
_atom_site_fract_x
_atom_site_fract_y
_atom_site_fract_z
Si Si1 0.508710 0.363710 0.500000
Si Si2 0.500000 0.000000 0.500000
Si Si3 0.107455 0.276831 0.000000
Si Si4 0.225691 0.067633 0.817903
Si Si5 0.500000 0.823145 0.750000
O O1 0.714326 0.328412 0.500000
O O2 0.357626 0.302834 0.500000
O O3 0.457788 0.409263 0.391004
O O4 0.396620 0.953314 0.596953
O O5 0.009372 0.286078 0.873447
O O6 0.311429 0.130716 0.751783
O O7 0.195623 0.000000 0.750000
#
# Coordination Sequence:
#
# PCOD9524987 Si02
#       5
#     8   4   8  16   8
#     4  11  28  51  79 117 174 206 289 338 422 497
#     4  10  16  38  72 110 154 206 264 310 404 488
#     4  12  29  53  82 124 156 227 271 353 420 500
#     4  11  22  42  80 117 160 221 265 335 412 496
#     4  12  25  48  88 112 165 208 282 340 418 508
#
# _framework density 26.985157999999998
#
# number of rings (size 3 to 8) (size 9 to 14) (size 15 to 20)
#    0.000    0.727    3.636    4.364    0.000    7.273 
#    0.000    7.273    0.000    6.545    0.000    0.000 
#    0.000    0.000    0.000    0.000    0.000    0.000 
#
# Total GULP energy -122693.292091 kJ/mol
# GULP energy per Si atom -5576.967822 kJ/mol
# Density = 2.692374 g / cm^3
# Si number density = 26.985158 Si / 1000 Ang^3
#
#
#
# Elastic Constant Matrix: (Units=GPa)
#
#
# Indices 1 2 3 4 5 6 
#
# 1 60.0067 4.2277 30.1152 0.0001 0.0000 0.0000
# 2 4.2277 135.3613 86.7558 0.0000 0.0000 0.0000
# 3 30.1152 86.7558 196.8139 -0.0003 0.0001 0.0000
# 4 0.0001 0.0000 -0.0003 -39.2254 0.0001 0.0000
# 5 0.0000 0.0000 0.0001 0.0001 -39.8217 0.0000
# 6 0.0000 0.0000 0.0000 0.0000 0.0000 52.3214
#
#
#
# Elastic Compliance Matrix: (Units=1/GPa)
#
#
# Indices 1 2 3 4 5 6 
#
# 1 0.018330 0.001708 -0.003557 0.000000 0.000000 0.000000
# 2 0.001708 0.010456 -0.004870 0.000000 0.000000 0.000000
# 3 -0.003557 -0.004870 0.007772 0.000000 0.000000 0.000000
# 4 0.000000 0.000000 0.000000 -0.025494 0.000000 0.000000
# 5 0.000000 0.000000 0.000000 0.000000 -0.025112 0.000000
# 6 0.000000 0.000000 0.000000 0.000000 0.000000 0.019113
#
#
# Mechanical properties :
#
#
# Convention : Reuss Voigt Hill
#
# Bulk Modulus (GPa) = 43.25725 70.48659 56.87192
# Shear Modulus (GPa) = 190.76342 12.72707 101.74524
#
# Velocity S-wave (km/s) = 8.41697 2.17407 6.14703
# Velocity P-wave (km/s) = 10.51311 5.69906 8.45591
#
# Compressibility (1/GPa) = 0.02311751
#
# Stress axis : x y z
#
# Youngs Moduli (GPa) = 54.55585 95.64173 128.66630
#
# Poissons Ratio (x) = -0.16331 0.45772
# Poissons Ratio (y) = -0.09315 0.62662
# Poissons Ratio (z) = 0.19408 0.46579
#
# Static dielectric constant tensor:
#      x y z
#    x 2.221120 0.000000 0.000000 
#    y 0.000000 1.987870 0.000000 
#    z 0.000000 0.000000 2.077920 
# 
# From -- ./inp_files/10172.got.cif
#   From: 2010.05.17/outbox.cif.g08.bks.cpg/sg72_6_cif.got.tgz:10172.got - 2010.06.03 17:03:01.
