data_PCOD9524162
_publ_section_title
;
Structure prediction by ZEFSAII (Michael W. Deem and Ramdas Pophale) SiO2 
 PCOD9524162
Probable space group: I M M M
;
_chemical_formula_sum "Si O2"
_cell_formula_units_Z 68
_cell_length_a 17.071382
_cell_length_b 7.506322
_cell_length_c 25.195155
_cell_angle_alpha 90.000000
_cell_angle_beta 90.000000
_cell_angle_gamma 90.000000
_cell_volume 3228.590061
_symmetry_space_group_name_H-M "I M M M"
_symmetry_group_IT_number 71
_symmetry_cell_setting 'orthorhombic'
loop_
_space_group_symop_operation_xyz
x,y,z
-x,-y,z
x,-y,-z
-x,y,-z
-x,-y,-z
x,y,-z
-x,y,z
x,-y,z
1/2+x,1/2+y,1/2+z
1/2-x,1/2-y,1/2+z
1/2+x,1/2-y,1/2-z
1/2-x,1/2+y,1/2-z
1/2-x,1/2-y,1/2-z
1/2+x,1/2+y,1/2-z
1/2-x,1/2+y,1/2+z
1/2+x,1/2-y,1/2+z
loop_
_atom_site_type_symbol
_atom_site_label
_atom_site_fract_x
_atom_site_fract_y
_atom_site_fract_z
Si Si1 0.289866 0.795707 0.848821
Si Si2 0.086135 0.283577 0.265556
Si Si3 0.386348 0.204056 0.642761
Si Si4 0.088506 0.215511 0.438745
Si Si5 0.000000 0.000000 0.102473
O O1 0.341317 0.717578 0.800427
O O2 0.207419 0.707961 0.861396
O O3 0.347581 0.788616 0.898890
O O4 0.271298 0.000000 0.835333
O O5 0.087014 0.500000 0.269498
O O6 0.094439 0.240342 0.203659
O O7 0.000000 0.223013 0.284293
O O8 0.431657 0.343104 0.606385
O O9 0.411752 0.000000 0.635359
O O10 0.102223 0.266098 0.500000
O O11 0.000000 0.271408 0.424281
O O12 0.090998 0.000000 0.436147
#
# Coordination Sequence:
#
# PCOD9524162 Si02
#       5
#    16  16  16  16   4
#     4  11  21  34  54  85 116 146 194 243 283 339
#     4   9  18  33  52  76 113 156 192 231 281 333
#     4  11  22  39  57  80 116 154 193 240 287 334
#     4   9  19  37  57  80 114 155 195 234 285 345
#     4  12  22  40  60  82 107 152 203 236 284 352
#
# _framework density 21.061824000000001
#
# number of rings (size 3 to 8) (size 9 to 14) (size 15 to 20)
#    0.000    1.882    2.353    3.176    0.000    1.882 
#    4.235    1.176    0.000    0.000    0.000    1.647 
#    0.000    3.765    0.000    0.000    0.000    0.000 
#
# Total GULP energy -189472.760077 kJ/mol
# GULP energy per Si atom -5572.728238 kJ/mol
# Density = 2.101389 g / cm^3
# Si number density = 21.061824 Si / 1000 Ang^3
#
#
#
# Elastic Constant Matrix: (Units=GPa)
#
#
# Indices 1 2 3 4 5 6 
#
# 1 134.7261 14.2942 5.8600 0.0000 0.0000 0.0000
# 2 14.2942 93.9429 -3.9333 0.0000 0.0000 0.0000
# 3 5.8600 -3.9333 18.3320 0.0000 0.0000 0.0000
# 4 0.0000 0.0000 0.0000 39.7904 0.0000 0.0000
# 5 0.0000 0.0000 0.0000 0.0000 54.0587 0.0000
# 6 0.0000 0.0000 0.0000 0.0000 0.0000 74.5647
#
#
#
# Elastic Compliance Matrix: (Units=1/GPa)
#
#
# Indices 1 2 3 4 5 6 
#
# 1 0.007677 -0.001282 -0.002729 0.000000 0.000000 0.000000
# 2 -0.001282 0.010955 0.002761 0.000000 0.000000 0.000000
# 3 -0.002729 0.002761 0.056014 0.000000 0.000000 0.000000
# 4 0.000000 0.000000 0.000000 0.025132 0.000000 0.000000
# 5 0.000000 0.000000 0.000000 0.000000 0.018498 0.000000
# 6 0.000000 0.000000 0.000000 0.000000 0.000000 0.013411
#
#
# Mechanical properties :
#
#
# Convention : Reuss Voigt Hill
#
# Bulk Modulus (GPa) = 13.86108 31.04921 22.45514
# Shear Modulus (GPa) = 31.59787 49.06810 40.33298
#
# Velocity S-wave (km/s) = 3.87750 4.83195 4.38080
# Velocity P-wave (km/s) = 5.16160 6.77527 6.02272
#
# Compressibility (1/GPa) = 0.07214445
#
# Stress axis : x y z
#
# Youngs Moduli (GPa) = 130.25507 91.27855 17.85266
#
# Poissons Ratio (x) = 0.11706 0.04872
# Poissons Ratio (y) = 0.16704 -0.04928
# Poissons Ratio (z) = 0.35550 -0.25198
#
# Static dielectric constant tensor:
#      x y z
#    x 1.756780 0.000000 0.000000 
#    y 0.000000 1.799050 0.000000 
#    z 0.000000 0.000000 1.737880 
# 
# From -- ./inp_files/62999.got.cif
#   From: 2010.05.17/outbox.cif.g08.bks.cpg/sg71_32_cif.got.tgz:62999.got - 2010.06.03 16:22:01.
