data_PCOD9524207
_publ_section_title
;
Structure prediction by ZEFSAII (Michael W. Deem and Ramdas Pophale) SiO2 
 PCOD9524207
Probable space group: I M M M
;
_chemical_formula_sum "Si O2"
_cell_formula_units_Z 92
_cell_length_a 19.054870
_cell_length_b 15.686017
_cell_length_c 16.741863
_cell_angle_alpha 90.000000
_cell_angle_beta 90.000000
_cell_angle_gamma 90.000000
_cell_volume 5004.059388
_symmetry_space_group_name_H-M "I M M M"
_symmetry_group_IT_number 71
_symmetry_cell_setting 'orthorhombic'
loop_
_space_group_symop_operation_xyz
x,y,z
-x,-y,z
x,-y,-z
-x,y,-z
-x,-y,-z
x,y,-z
-x,y,z
x,-y,z
1/2+x,1/2+y,1/2+z
1/2-x,1/2-y,1/2+z
1/2+x,1/2-y,1/2-z
1/2-x,1/2+y,1/2-z
1/2-x,1/2-y,1/2-z
1/2+x,1/2+y,1/2-z
1/2-x,1/2+y,1/2+z
1/2+x,1/2-y,1/2+z
loop_
_atom_site_type_symbol
_atom_site_label
_atom_site_fract_x
_atom_site_fract_y
_atom_site_fract_z
Si Si1 0.199161 0.401946 0.307345
Si Si2 0.636195 0.378385 0.346560
Si Si3 0.081376 0.093571 0.324402
Si Si4 0.115745 0.000000 0.000000
Si Si5 0.080195 0.398595 0.000000
Si Si6 0.827930 0.238987 0.407424
Si Si7 0.670691 0.814949 0.363086
O O1 0.175588 0.500000 0.315816
O O2 0.282985 0.400190 0.323342
O O3 0.167563 0.332977 0.368755
O O4 0.183130 0.364481 0.219770
O O5 0.589626 0.404572 0.271259
O O6 0.617954 0.426049 0.428587
O O7 0.633873 0.276396 0.352011
O O8 0.125398 0.170602 0.360695
O O9 0.000000 0.101748 0.345979
O O10 0.107193 0.000000 0.352063
O O11 0.123602 0.367944 0.923439
O O12 0.077407 0.500000 0.000000
O O13 0.000000 0.365657 0.000000
O O14 0.846727 0.241385 0.500000
O O15 0.747452 0.207814 0.397782
#
# Coordination Sequence:
#
# PCOD9524207 Si02
#       7
#    16  16  16   4   8  16  16
#     4  11  21  36  65  95 128 162 210 263 320 374
#     4  11  21  37  59  93 130 165 204 255 313 381
#     4  11  23  42  63  87 124 167 210 263 319 374
#     4  12  22  32  63  96 136 166 199 254 320 376
#     4  11  25  42  61  91 128 161 208 268 317 374
#     4  11  23  40  64  93 125 161 214 266 317 378
#     4  11  21  40  63  91 123 166 214 254 310 383
#
# _framework density 18.385072999999998
#
# number of rings (size 3 to 8) (size 9 to 14) (size 15 to 20)
#    0.000    0.957    6.087    2.087    3.652    2.435 
#    0.000    1.739    0.000    0.522    0.000    1.217 
#    0.000    0.000    0.000    0.000    0.000    0.000 
#
# Total GULP energy -256356.612409 kJ/mol
# GULP energy per Si atom -5572.969835 kJ/mol
# Density = 1.834323 g / cm^3
# Si number density = 18.385073 Si / 1000 Ang^3
#
#
#
# Elastic Constant Matrix: (Units=GPa)
#
#
# Indices 1 2 3 4 5 6 
#
# 1 29.4370 35.2821 18.2865 0.0000 0.0000 0.0000
# 2 35.2821 165.5879 56.2009 0.0000 0.0000 0.0000
# 3 18.2865 56.2009 141.2329 0.0000 0.0000 0.0000
# 4 0.0000 0.0000 0.0000 37.2324 0.0000 0.0000
# 5 0.0000 0.0000 0.0000 0.0000 -1.8565 0.0000
# 6 0.0000 0.0000 0.0000 0.0000 0.0000 2.2374
#
#
#
# Elastic Compliance Matrix: (Units=1/GPa)
#
#
# Indices 1 2 3 4 5 6 
#
# 1 0.046311 -0.009055 -0.002393 0.000000 0.000000 0.000000
# 2 -0.009055 0.008753 -0.002311 0.000000 0.000000 0.000000
# 3 -0.002393 -0.002311 0.008310 0.000000 0.000000 0.000000
# 4 0.000000 0.000000 0.000000 0.026858 0.000000 0.000000
# 5 0.000000 0.000000 0.000000 0.000000 -0.538645 0.000000
# 6 0.000000 0.000000 0.000000 0.000000 0.000000 0.446955
#
#
# Mechanical properties :
#
#
# Convention : Reuss Voigt Hill
#
# Bulk Modulus (GPa) = 27.88949 61.75520 44.82235
# Shear Modulus (GPa) = 131.54025 22.62188 77.08107
#
# Velocity S-wave (km/s) = 8.46774 3.51158 6.48205
# Velocity P-wave (km/s) = 10.52645 7.07844 8.96968
#
# Compressibility (1/GPa) = 0.03585580
#
# Stress axis : x y z
#
# Youngs Moduli (GPa) = 21.59331 114.25013 120.34076
#
# Poissons Ratio (x) = 1.03458 0.28795
# Poissons Ratio (y) = 0.19554 0.27805
# Poissons Ratio (z) = 0.05167 0.26398
#
# Static dielectric constant tensor:
#      x y z
#    x 1.618540 0.000000 0.000000 
#    y 0.000000 1.644190 0.000000 
#    z 0.000000 0.000000 1.617730 
# 
# From -- ./inp_files/37860.got.cif
#   From: 2010.05.17/outbox.cif.g08.bks.cpg/sg71_19_cif.got.tgz:37860.got - 2010.06.03 16:22:01.
