data_PCOD9524174
_publ_section_title
;
Structure prediction by ZEFSAII (Michael W. Deem and Ramdas Pophale) SiO2 
 PCOD9524174
Probable space group: I M M M
;
_chemical_formula_sum "Si O2"
_cell_formula_units_Z 96
_cell_length_a 15.521658
_cell_length_b 22.431071
_cell_length_c 14.846146
_cell_angle_alpha 90.000000
_cell_angle_beta 90.000000
_cell_angle_gamma 90.000000
_cell_volume 5168.944240
_symmetry_space_group_name_H-M "I M M M"
_symmetry_group_IT_number 71
_symmetry_cell_setting 'orthorhombic'
loop_
_space_group_symop_operation_xyz
x,y,z
-x,-y,z
x,-y,-z
-x,y,-z
-x,-y,-z
x,y,-z
-x,y,z
x,-y,z
1/2+x,1/2+y,1/2+z
1/2-x,1/2-y,1/2+z
1/2+x,1/2-y,1/2-z
1/2-x,1/2+y,1/2-z
1/2-x,1/2-y,1/2-z
1/2+x,1/2+y,1/2-z
1/2-x,1/2+y,1/2+z
1/2+x,1/2-y,1/2+z
loop_
_atom_site_type_symbol
_atom_site_label
_atom_site_fract_x
_atom_site_fract_y
_atom_site_fract_z
Si Si1 0.897947 0.154121 0.656319
Si Si2 0.244145 0.747276 0.641674
Si Si3 0.103565 0.935399 0.500000
Si Si4 0.000000 0.432003 0.608304
Si Si5 0.316262 0.886731 0.105934
Si Si6 0.662246 0.566122 0.304934
Si Si7 0.098380 0.902499 0.000000
Si Si8 0.894497 0.758556 0.000000
O O1 0.834991 0.207182 0.626441
O O2 0.875761 0.101508 0.587663
O O3 0.877509 0.122225 0.751619
O O4 0.000000 0.169257 0.651497
O O5 0.250000 0.750000 0.750000
O O6 0.215434 0.681141 0.612823
O O7 0.333693 0.760310 0.586590
O O8 0.000000 0.940394 0.500000
O O9 0.143691 0.000000 0.500000
O O10 0.915023 0.395617 0.630638
O O11 0.000000 0.500000 0.643537
O O12 0.000000 0.437083 0.500000
O O13 0.263471 0.923900 0.180200
O O14 0.304759 0.905566 0.000000
O O15 0.640413 0.500000 0.269051
O O16 0.633858 0.571536 0.408136
O O17 0.107082 0.830722 0.000000
O O18 0.000000 0.917944 0.000000
O O19 0.000000 0.742767 0.000000
#
# Coordination Sequence:
#
# PCOD9524174 Si02
#       8
#    16  16   8   8  16  16   8   8
#     4  11  24  39  59  88 120 157 195 250 311 362
#     4  12  22  40  61  90 126 161 213 262 308 380
#     4   9  19  38  58  79 110 149 192 236 287 350
#     4   9  20  36  58  84 116 159 205 247 304 370
#     4  11  21  39  57  86 119 159 201 254 307 366
#     4  12  22  36  58  85 122 161 200 242 296 367
#     4  11  21  35  54  84 120 158 194 226 285 363
#     4  11  23  44  66  87 125 169 208 260 318 374
#
# _framework density 18.572458000000001
#
# number of rings (size 3 to 8) (size 9 to 14) (size 15 to 20)
#    0.000    1.000    5.000    2.250    1.167    5.000 
#    0.000    0.000    0.000    0.000    0.000    0.000 
#    0.000    2.000    0.000    0.000    0.000    0.000 
#
# Total GULP energy -267369.353925 kJ/mol
# GULP energy per Si atom -5570.194873 kJ/mol
# Density = 1.853019 g / cm^3
# Si number density = 18.572458 Si / 1000 Ang^3
#
#
#
# Elastic Constant Matrix: (Units=GPa)
#
#
# Indices 1 2 3 4 5 6 
#
# 1 140.7783 26.9553 25.8734 0.0000 0.0000 0.0000
# 2 26.9553 61.0005 2.3691 0.0002 0.0000 0.0000
# 3 25.8734 2.3691 72.2839 0.0004 0.0000 0.0000
# 4 0.0000 0.0002 0.0004 35.2231 0.0000 0.0000
# 5 0.0000 0.0000 0.0000 0.0000 19.4147 0.0000
# 6 0.0000 0.0000 0.0000 0.0000 0.0000 19.7973
#
#
#
# Elastic Compliance Matrix: (Units=1/GPa)
#
#
# Indices 1 2 3 4 5 6 
#
# 1 0.008311 -0.003561 -0.002858 0.000000 0.000000 0.000000
# 2 -0.003561 0.017940 0.000687 0.000000 0.000000 0.000000
# 3 -0.002858 0.000687 0.014835 0.000000 0.000000 0.000000
# 4 0.000000 0.000000 0.000000 0.028390 0.000000 0.000000
# 5 0.000000 0.000000 0.000000 0.000000 0.051507 0.000000
# 6 0.000000 0.000000 0.000000 0.000000 0.000000 0.050512
#
#
# Mechanical properties :
#
#
# Convention : Reuss Voigt Hill
#
# Bulk Modulus (GPa) = 33.76026 42.71759 38.23892
# Shear Modulus (GPa) = 25.92906 29.47802 27.70354
#
# Velocity S-wave (km/s) = 3.74050 3.98828 3.86637
# Velocity P-wave (km/s) = 6.07225 6.65274 6.36911
#
# Compressibility (1/GPa) = 0.02962062
#
# Stress axis : x y z
#
# Youngs Moduli (GPa) = 120.32930 55.74029 67.40905
#
# Poissons Ratio (x) = 0.19851 0.19265
# Poissons Ratio (y) = 0.42853 -0.04629
# Poissons Ratio (z) = 0.34390 -0.03828
#
# Static dielectric constant tensor:
#      x y z
#    x 1.701980 0.000000 0.000000 
#    y 0.000000 1.665570 0.000000 
#    z 0.000000 0.000000 1.830470 
# 
# From -- ./inp_files/34816.got.cif
#   From: 2010.05.17/outbox.cif.g08.bks.cpg/sg71_18_cif.got.tgz:34816.got - 2010.06.03 16:22:01.
