data_PCOD9524323
_publ_section_title
;
Structure prediction by ZEFSAII (Michael W. Deem and Ramdas Pophale) SiO2 
 PCOD9524323
Probable space group: I M M M
;
_chemical_formula_sum "Si O2"
_cell_formula_units_Z 72
_cell_length_a 8.632064
_cell_length_b 15.660256
_cell_length_c 27.104696
_cell_angle_alpha 90.000000
_cell_angle_beta 90.000000
_cell_angle_gamma 90.000000
_cell_volume 3664.021805
_symmetry_space_group_name_H-M "I M M M"
_symmetry_group_IT_number 71
_symmetry_cell_setting 'orthorhombic'
loop_
_space_group_symop_operation_xyz
x,y,z
-x,-y,z
x,-y,-z
-x,y,-z
-x,-y,-z
x,y,-z
-x,y,z
x,-y,z
1/2+x,1/2+y,1/2+z
1/2-x,1/2-y,1/2+z
1/2+x,1/2-y,1/2-z
1/2-x,1/2+y,1/2-z
1/2-x,1/2-y,1/2-z
1/2+x,1/2+y,1/2-z
1/2-x,1/2+y,1/2+z
1/2+x,1/2-y,1/2+z
loop_
_atom_site_type_symbol
_atom_site_label
_atom_site_fract_x
_atom_site_fract_y
_atom_site_fract_z
Si Si1 0.313529 0.162998 0.272929
Si Si2 0.688147 0.000000 0.790929
Si Si3 0.814105 0.500000 0.942044
Si Si4 0.686768 0.000000 0.905398
Si Si5 0.315127 0.338218 0.116866
Si Si6 0.685524 0.679197 0.442948
O O1 0.500000 0.164804 0.273697
O O2 0.250000 0.250000 0.250000
O O3 0.262355 0.084033 0.238652
O O4 0.252045 0.152780 0.328240
O O5 0.500000 0.000000 0.791124
O O6 0.736220 0.000000 0.847861
O O7 0.746844 0.416140 0.916049
O O8 0.000000 0.500000 0.936831
O O9 0.776354 0.500000 0.000000
O O10 0.750992 0.914540 0.930429
O O11 0.500000 0.000000 0.907861
O O12 0.500000 0.339765 0.118748
O O13 0.259137 0.249632 0.092728
O O14 0.721709 0.700160 0.500000
O O15 0.500000 0.680165 0.437164
#
# Coordination Sequence:
#
# PCOD9524323 Si02
#       6
#    16   8   8   8  16  16
#     4  11  22  40  64  90 123 163 207 254 306 363
#     4   9  21  39  60  86 118 157 198 243 296 358
#     4  11  24  43  66  92 124 163 206 255 315 378
#     4  11  22  39  64  94 126 159 202 255 309 364
#     4  12  25  41  63  93 126 161 207 259 311 369
#     4  11  24  42  63  89 123 164 209 255 307 369
#
# _framework density 19.650538000000001
#
# number of rings (size 3 to 8) (size 9 to 14) (size 15 to 20)
#    0.000    1.000    0.000    7.000    0.000    9.333 
#    0.000    5.000    0.000    0.000    0.000    0.000 
#    0.000    0.000    0.000    0.000    0.000    0.000 
#
# Total GULP energy -201524.989696 kJ/mol
# GULP energy per Si atom -5597.916380 kJ/mol
# Density = 1.960581 g / cm^3
# Si number density = 19.650538 Si / 1000 Ang^3
#
#
#
# Elastic Constant Matrix: (Units=GPa)
#
#
# Indices 1 2 3 4 5 6 
#
# 1 78.0569 10.0667 30.0570 0.0000 0.0000 0.0000
# 2 10.0667 76.5004 -10.5543 0.0000 0.0000 0.0000
# 3 30.0570 -10.5543 81.7392 0.0000 0.0000 0.0000
# 4 0.0000 0.0000 0.0000 42.6318 0.0000 0.0000
# 5 0.0000 0.0000 0.0000 0.0000 32.7264 0.0000
# 6 0.0000 0.0000 0.0000 0.0000 0.0000 -2.0346
#
#
#
# Elastic Compliance Matrix: (Units=1/GPa)
#
#
# Indices 1 2 3 4 5 6 
#
# 1 0.015524 -0.002882 -0.006081 0.000000 0.000000 0.000000
# 2 -0.002882 0.013844 0.002847 0.000000 0.000000 0.000000
# 3 -0.006081 0.002847 0.014838 0.000000 0.000000 0.000000
# 4 0.000000 0.000000 0.000000 0.023457 0.000000 0.000000
# 5 0.000000 0.000000 0.000000 0.000000 0.030556 0.000000
# 6 0.000000 0.000000 0.000000 0.000000 0.000000 -0.491491
#
#
# Mechanical properties :
#
#
# Convention : Reuss Voigt Hill
#
# Bulk Modulus (GPa) = 31.27406 32.82613 32.05010
# Shear Modulus (GPa) = -13.49952 28.44652 7.47350
#
# Velocity S-wave (km/s) = -2.62387 3.80889 1.95230
# Velocity P-wave (km/s) = 2.60193 6.00706 4.62897
#
# Compressibility (1/GPa) = 0.03197538
#
# Stress axis : x y z
#
# Youngs Moduli (GPa) = 64.41527 72.23425 67.39617
#
# Poissons Ratio (x) = 0.20816 0.40981
# Poissons Ratio (y) = 0.18563 -0.19189
# Poissons Ratio (z) = 0.39169 -0.20567
#
# Static dielectric constant tensor:
#      x y z
#    x 1.661520 0.000000 0.000000 
#    y 0.000000 1.648810 0.000000 
#    z 0.000000 0.000000 1.656020 
# 
# From -- ./inp_files/31482.got.cif
#   From: 2010.05.17/outbox.cif.g08.bks.cpg/sg71_16_cif.got.tgz:31482.got - 2010.06.03 16:22:01.
