data_PCOD9524281
_publ_section_title
;
Structure prediction by ZEFSAII (Michael W. Deem and Ramdas Pophale) SiO2 
 PCOD9524281
Probable space group: I M M M
;
_chemical_formula_sum "Si O2"
_cell_formula_units_Z 88
_cell_length_a 8.547657
_cell_length_b 27.997853
_cell_length_c 18.410182
_cell_angle_alpha 90.000000
_cell_angle_beta 90.000000
_cell_angle_gamma 90.000000
_cell_volume 4405.851929
_symmetry_space_group_name_H-M "I M M M"
_symmetry_group_IT_number 71
_symmetry_cell_setting 'orthorhombic'
loop_
_space_group_symop_operation_xyz
x,y,z
-x,-y,z
x,-y,-z
-x,y,-z
-x,-y,-z
x,y,-z
-x,y,z
x,-y,z
1/2+x,1/2+y,1/2+z
1/2-x,1/2-y,1/2+z
1/2+x,1/2-y,1/2-z
1/2-x,1/2+y,1/2-z
1/2-x,1/2-y,1/2-z
1/2+x,1/2+y,1/2-z
1/2-x,1/2+y,1/2+z
1/2+x,1/2-y,1/2+z
loop_
_atom_site_type_symbol
_atom_site_label
_atom_site_fract_x
_atom_site_fract_y
_atom_site_fract_z
Si Si1 0.679815 0.054230 0.730557
Si Si2 0.310071 0.692642 0.918212
Si Si3 0.315398 0.616842 0.643746
Si Si4 0.691003 0.556620 0.500000
Si Si5 0.188862 0.086819 0.414818
Si Si6 0.187809 0.277902 0.679269
O O1 0.500000 0.070565 0.733776
O O2 0.781555 0.086346 0.783959
O O3 0.736182 0.054967 0.647148
O O4 0.688268 0.000000 0.757311
O O5 0.500000 0.693127 0.917290
O O6 0.266758 0.640638 0.888846
O O7 0.257425 0.740792 0.881870
O O8 0.255531 0.692159 0.000000
O O9 0.500000 0.623322 0.634316
O O10 0.259494 0.586582 0.572489
O O11 0.243872 0.669107 0.659437
O O12 0.739948 0.500000 0.500000
O O13 0.500000 0.555648 0.500000
O O14 0.233946 0.079719 0.500000
O O15 0.000000 0.082457 0.413172
O O16 0.250000 0.250000 0.750000
O O17 0.000000 0.279050 0.683480
#
# Coordination Sequence:
#
# PCOD9524281 Si02
#       6
#    16  16  16   8  16  16
#     4  11  24  40  58  83 116 153 198 252 307 363
#     4   8  16  32  54  79 108 145 185 225 271 328
#     4  11  23  40  63  89 120 158 204 256 312 377
#     4   9  20  40  65  91 119 157 209 269 328 383
#     4   9  18  35  60  88 117 153 200 246 290 349
#     4  11  22  36  58  87 121 158 198 244 295 355
#
# _framework density 19.973437000000001
#
# number of rings (size 3 to 8) (size 9 to 14) (size 15 to 20)
#    0.000    2.091    0.000    4.364    1.273    4.364 
#    0.000    4.091    0.000    5.455    0.000    0.000 
#    0.000    0.000    0.000    0.000    0.000    0.000 
#
# Total GULP energy -245197.623618 kJ/mol
# GULP energy per Si atom -5572.673264 kJ/mol
# Density = 1.992798 g / cm^3
# Si number density = 19.973437 Si / 1000 Ang^3
#
#
#
# Elastic Constant Matrix: (Units=GPa)
#
#
# Indices 1 2 3 4 5 6 
#
# 1 30.6873 28.4383 14.5452 0.0000 0.0000 0.0000
# 2 28.4383 131.1616 56.0058 0.0000 0.0000 0.0000
# 3 14.5452 56.0058 82.9692 -0.0002 0.0001 0.0000
# 4 0.0000 0.0000 -0.0002 38.4398 0.0001 0.0000
# 5 0.0000 0.0000 0.0001 0.0001 14.2239 0.0000
# 6 0.0000 0.0000 0.0000 0.0000 0.0000 25.2811
#
#
#
# Elastic Compliance Matrix: (Units=1/GPa)
#
#
# Indices 1 2 3 4 5 6 
#
# 1 0.040944 -0.008166 -0.001665 0.000000 0.000000 0.000000
# 2 -0.008166 0.012340 -0.006898 0.000000 0.000000 0.000000
# 3 -0.001665 -0.006898 0.017001 0.000000 0.000000 0.000000
# 4 0.000000 0.000000 0.000000 0.026015 0.000000 0.000000
# 5 0.000000 0.000000 0.000000 0.000000 0.070304 0.000000
# 6 0.000000 0.000000 0.000000 0.000000 0.000000 0.039555
#
#
# Mechanical properties :
#
#
# Convention : Reuss Voigt Hill
#
# Bulk Modulus (GPa) = 27.15522 49.19962 38.17742
# Shear Modulus (GPa) = 19.84956 25.31089 22.58022
#
# Velocity S-wave (km/s) = 3.15588 3.56368 3.36596
# Velocity P-wave (km/s) = 5.18696 6.45128 5.85336
#
# Compressibility (1/GPa) = 0.03682533
#
# Stress axis : x y z
#
# Youngs Moduli (GPa) = 24.42367 81.03474 58.81943
#
# Poissons Ratio (x) = 0.66175 0.09796
# Poissons Ratio (y) = 0.19945 0.40576
# Poissons Ratio (z) = 0.04068 0.55901
#
# Static dielectric constant tensor:
#      x y z
#    x 1.702350 0.000000 0.000000 
#    y 0.000000 1.859270 0.000020 
#    z 0.000000 0.000020 -2.398830 
# 
# From -- ./inp_files/42449.got.cif
#   From: 2010.05.17/outbox.cif.g08.bks.cpg/sg71_22_cif.got.tgz:42449.got - 2010.06.03 16:22:01.
