data_PCOD9524840
_publ_section_title
;
Structure prediction by ZEFSAII (Michael W. Deem and Ramdas Pophale) SiO2 
 PCOD9524840
Probable space group: I M M M
;
_chemical_formula_sum "Si O2"
_cell_formula_units_Z 44
_cell_length_a 18.000000
_cell_length_b 30.000000
_cell_length_c 9.000000
_cell_angle_alpha 90.000000
_cell_angle_beta 90.000000
_cell_angle_gamma 90.000000
_cell_volume 4860.000000
_symmetry_space_group_name_H-M "I M M M"
_symmetry_group_IT_number 71
_symmetry_cell_setting 'orthorhombic'
loop_
_space_group_symop_operation_xyz
x,y,z
-x,-y,z
x,-y,-z
-x,y,-z
-x,-y,-z
x,y,-z
-x,y,z
x,-y,z
1/2+x,1/2+y,1/2+z
1/2-x,1/2-y,1/2+z
1/2+x,1/2-y,1/2-z
1/2-x,1/2+y,1/2-z
1/2-x,1/2-y,1/2-z
1/2+x,1/2+y,1/2-z
1/2-x,1/2+y,1/2+z
1/2+x,1/2-y,1/2+z
loop_
_atom_site_type_symbol
_atom_site_label
_atom_site_fract_x
_atom_site_fract_y
_atom_site_fract_z
Si Si1 0.148446 0.383654 0.820115
Si Si2 0.413037 0.613299 0.320600
Si Si3 0.788718 0.052120 0.321325
Si Si4 0.411081 0.286187 0.671365
Si Si5 0.000000 0.555307 0.820361
Si Si6 0.685471 0.783824 0.821072
O O1 0.216688 0.417438 0.786643
O O2 0.168762 0.334445 0.745801
O O3 0.073069 0.413244 0.779863
O O4 0.144622 0.376304 0.000000
O O5 0.410178 0.610908 0.500000
O O6 0.500000 0.608148 0.277107
O O7 0.359775 0.576377 0.250728
O O8 0.386631 0.663825 0.281262
O O9 0.796818 0.052546 0.500000
O O10 0.780916 0.000000 0.275856
O O11 0.385849 0.278411 0.500000
O O12 0.500000 0.288111 0.667718
O O13 0.384947 0.246700 0.777042
O O14 0.000000 0.500000 0.774980
O O15 0.000000 0.552802 0.000000
O O16 0.750000 0.750000 0.750000
O O17 0.696305 0.787444 0.000000
#
# Coordination Sequence:
#
# PCOD9524840 Si02
#       6
#    16  16  16  16   8  16
#     4  10  21  38  61  88 118 155 199 247 300 356
#     4   9  19  36  57  82 111 146 189 235 282 341
#     4  10  21  36  55  81 113 147 188 240 291 341
#     4   9  19  37  60  83 112 149 188 229 278 338
#     4   9  18  36  65  95 121 157 207 257 304 363
#     4  12  25  39  57  84 119 155 195 243 294 353
#
# _framework density 9.0534979999999994
#
# number of rings (size 3 to 8) (size 9 to 14) (size 15 to 20)
#    0.000    2.091    0.000    4.364    1.273    8.000 
#    0.000    3.636    0.000    2.182    0.000    0.000 
#    0.000    0.000    0.000    0.000    0.000    0.000 
#
# Total GULP energy -244958.130938 kJ/mol
# GULP energy per Si atom -5567.230249 kJ/mol
# Density = 0.903289 g / cm^3
# Si number density = 9.053498 Si / 1000 Ang^3
#
#
#
# Elastic Constant Matrix: (Units=GPa)
#
#
# Indices 1 2 3 4 5 6 
#
# 1 106.5035 76.0998 29.0361 -0.0001 -0.0001 0.0000
# 2 76.0998 212.5939 55.1180 -0.0001 0.0000 0.0000
# 3 29.0361 55.1180 60.3092 -0.0029 0.0019 -0.0007
# 4 -0.0001 -0.0001 -0.0029 39.1480 0.0003 -0.0002
# 5 -0.0001 0.0000 0.0019 0.0003 25.4414 0.0001
# 6 0.0000 0.0000 -0.0007 -0.0002 0.0001 40.2936
#
#
#
# Elastic Compliance Matrix: (Units=1/GPa)
#
#
# Indices 1 2 3 4 5 6 
#
# 1 0.012923 -0.003948 -0.002613 0.000000 0.000000 0.000000
# 2 -0.003948 0.007371 -0.004835 0.000000 0.000000 0.000000
# 3 -0.002613 -0.004835 0.022259 0.000002 -0.000002 0.000000
# 4 0.000000 0.000000 0.000002 0.025544 0.000000 0.000000
# 5 0.000000 0.000000 -0.000002 0.000000 0.039306 0.000000
# 6 0.000000 0.000000 0.000000 0.000000 0.000000 0.024818
#
#
# Mechanical properties :
#
#
# Convention : Reuss Voigt Hill
#
# Bulk Modulus (GPa) = 50.61175 77.76825 64.19000
# Shear Modulus (GPa) = 30.94045 35.58678 33.26362
#
# Velocity S-wave (km/s) = 4.13820 4.43805 4.29074
# Velocity P-wave (km/s) = 7.13057 8.32492 7.75078
#
# Compressibility (1/GPa) = 0.01975826
#
# Stress axis : x y z
#
# Youngs Moduli (GPa) = 77.38097 135.67046 44.92642
#
# Poissons Ratio (x) = 0.53568 0.11741
# Poissons Ratio (y) = 0.30553 0.21724
# Poissons Ratio (z) = 0.20222 0.65602
#
# Static dielectric constant tensor:
#      x y z
#    x 1.682240 0.000000 0.000000 
#    y 0.000000 1.634770 0.000000 
#    z 0.000000 0.000000 1.622090 
# 
# From -- ./inp_files/8871.got.cif
#   From: 2010.05.17/outbox.ucp.g08.bks.cvg/sg71_5_cif.got.tgz:8871.got - 2010.06.11 16:29:00.
