data_PCOD9524137
_publ_section_title
;
Structure prediction by ZEFSAII (Michael W. Deem and Ramdas Pophale) SiO2 
 PCOD9524137
Probable space group: I M M M
;
_chemical_formula_sum "Si O2"
_cell_formula_units_Z 96
_cell_length_a 12.294855
_cell_length_b 21.997499
_cell_length_c 18.463863
_cell_angle_alpha 90.000000
_cell_angle_beta 90.000000
_cell_angle_gamma 90.000000
_cell_volume 4993.663650
_symmetry_space_group_name_H-M "I M M M"
_symmetry_group_IT_number 71
_symmetry_cell_setting 'orthorhombic'
loop_
_space_group_symop_operation_xyz
x,y,z
-x,-y,z
x,-y,-z
-x,y,-z
-x,-y,-z
x,y,-z
-x,y,z
x,-y,z
1/2+x,1/2+y,1/2+z
1/2-x,1/2-y,1/2+z
1/2+x,1/2-y,1/2-z
1/2-x,1/2+y,1/2-z
1/2-x,1/2-y,1/2-z
1/2+x,1/2+y,1/2-z
1/2-x,1/2+y,1/2+z
1/2+x,1/2-y,1/2+z
loop_
_atom_site_type_symbol
_atom_site_label
_atom_site_fract_x
_atom_site_fract_y
_atom_site_fract_z
Si Si1 0.263395 0.569819 0.086804
Si Si2 0.629233 0.151387 0.680648
Si Si3 0.129372 0.100176 0.081053
Si Si4 0.131304 0.755975 0.919767
Si Si5 0.500000 0.073246 0.918805
Si Si6 0.194189 0.430435 0.311696
Si Si7 0.000000 0.074090 0.584797
O O1 0.253223 0.500000 0.110272
O O2 0.162173 0.607431 0.114740
O O3 0.382048 0.593345 0.114650
O O4 0.267929 0.570625 0.000000
O O5 0.500000 0.152426 0.694559
O O6 0.667550 0.216516 0.649229
O O7 0.686859 0.118977 0.748320
O O8 0.152730 0.172445 0.086388
O O9 0.192595 0.069418 0.146019
O O10 0.000000 0.091572 0.085635
O O11 0.164097 0.079853 0.000000
O O12 0.000000 0.749202 0.921440
O O13 0.171833 0.735709 0.000000
O O14 0.394435 0.088544 0.872008
O O15 0.500000 0.000000 0.924521
O O16 0.500000 0.098637 0.000000
O O17 0.168923 0.500000 0.287109
O O18 0.000000 0.091362 0.500000
O O19 0.000000 0.000000 0.587000
#
# Coordination Sequence:
#
# PCOD9524137 Si02
#       7
#    16  16  16  16   8  16   8
#     4   9  17  29  47  70  97 137 186 228 267 314
#     4  11  21  33  50  75 113 149 178 220 266 314
#     4   9  19  38  62  84 105 131 173 233 286 329
#     4   8  16  33  57  82 106 140 184 223 268 324
#     4   9  18  34  54  73  98 140 187 219 255 320
#     4  11  22  35  52  79 113 147 180 220 274 332
#     4   7  12  26  44  61  85 123 177 227 260 302
#
# _framework density 19.224360999999998
#
# number of rings (size 3 to 8) (size 9 to 14) (size 15 to 20)
#    0.000    2.667    0.833    3.500    0.000    4.000 
#    1.500    1.667    0.000    1.000    0.000    2.333 
#    0.000    0.000    0.000    0.000    0.000    0.000 
#
# Total GULP energy -267270.995851 kJ/mol
# GULP energy per Si atom -5568.145747 kJ/mol
# Density = 1.918061 g / cm^3
# Si number density = 19.224361 Si / 1000 Ang^3
#
#
#
# Elastic Constant Matrix: (Units=GPa)
#
#
# Indices 1 2 3 4 5 6 
#
# 1 28.9618 4.4210 18.2095 0.0000 0.0000 0.0000
# 2 4.4210 40.9748 29.2413 0.0000 0.0000 0.0000
# 3 18.2095 29.2413 78.5070 0.0000 0.0000 0.0000
# 4 0.0000 0.0000 0.0000 28.6289 0.0000 0.0000
# 5 0.0000 0.0000 0.0000 0.0000 23.8925 0.0000
# 6 0.0000 0.0000 0.0000 0.0000 0.0000 14.4834
#
#
#
# Elastic Compliance Matrix: (Units=1/GPa)
#
#
# Indices 1 2 3 4 5 6 
#
# 1 0.040729 0.003197 -0.010638 0.000000 0.000000 0.000000
# 2 0.003197 0.033492 -0.013216 0.000000 0.000000 0.000000
# 3 -0.010638 -0.013216 0.020128 0.000000 0.000000 0.000000
# 4 0.000000 0.000000 0.000000 0.034930 0.000000 0.000000
# 5 0.000000 0.000000 0.000000 0.000000 0.041854 0.000000
# 6 0.000000 0.000000 0.000000 0.000000 0.000000 0.069044
#
#
# Mechanical properties :
#
#
# Convention : Reuss Voigt Hill
#
# Bulk Modulus (GPa) = 18.85563 28.02081 23.43822
# Shear Modulus (GPa) = 16.71299 19.83907 18.27603
#
# Velocity S-wave (km/s) = 2.95170 3.21592 3.08664
# Velocity P-wave (km/s) = 4.63100 5.32887 4.99215
#
# Compressibility (1/GPa) = 0.05303457
#
# Stress axis : x y z
#
# Youngs Moduli (GPa) = 24.55275 29.85800 49.68275
#
# Poissons Ratio (x) = -0.09546 0.52851
# Poissons Ratio (y) = -0.07850 0.65662
# Poissons Ratio (z) = 0.26119 0.39461
#
# Static dielectric constant tensor:
#      x y z
#    x 1.697600 0.000000 0.000000 
#    y 0.000000 1.689460 0.000000 
#    z 0.000000 0.000000 1.698030 
# 
# From -- ./inp_files/43567.got.cif
#   From: 2010.05.17/outbox.cif.g08.bks.cpg/sg71_22_cif.got.tgz:43567.got - 2010.06.03 16:22:01.
