data_PCOD9524685
_publ_section_title
;
Structure prediction by ZEFSAII (Michael W. Deem and Ramdas Pophale) SiO2 
 PCOD9524685
Probable space group: I M M M
;
_chemical_formula_sum "Si O2"
_cell_formula_units_Z 48
_cell_length_a 12.000000
_cell_length_b 18.000000
_cell_length_c 24.000000
_cell_angle_alpha 90.000000
_cell_angle_beta 90.000000
_cell_angle_gamma 90.000000
_cell_volume 5184.000000
_symmetry_space_group_name_H-M "I M M M"
_symmetry_group_IT_number 71
_symmetry_cell_setting 'orthorhombic'
loop_
_space_group_symop_operation_xyz
x,y,z
-x,-y,z
x,-y,-z
-x,y,-z
-x,-y,-z
x,y,-z
-x,y,z
x,-y,z
1/2+x,1/2+y,1/2+z
1/2-x,1/2-y,1/2+z
1/2+x,1/2-y,1/2-z
1/2-x,1/2+y,1/2-z
1/2-x,1/2-y,1/2-z
1/2+x,1/2+y,1/2-z
1/2-x,1/2+y,1/2+z
1/2+x,1/2-y,1/2+z
loop_
_atom_site_type_symbol
_atom_site_label
_atom_site_fract_x
_atom_site_fract_y
_atom_site_fract_z
Si Si1 0.135163 0.196999 0.751109
Si Si2 0.500000 0.912541 0.850862
Si Si3 0.500000 0.218477 0.065746
Si Si4 0.725799 0.308090 0.933771
Si Si5 0.870431 0.085452 0.353266
Si Si6 0.254865 0.412194 0.336945
Si Si7 0.131463 0.831894 0.933304
O O1 0.250000 0.250000 0.750000
O O2 0.138329 0.145082 0.696366
O O3 0.164542 0.140241 0.800888
O O4 0.000000 0.223161 0.755207
O O5 0.500000 0.859308 0.903645
O O6 0.622702 0.897565 0.823830
O O7 0.500000 0.000000 0.863979
O O8 0.388499 0.263684 0.080304
O O9 0.500000 0.208067 0.000000
O O10 0.713174 0.384234 0.900305
O O11 0.825484 0.251564 0.918925
O O12 0.728665 0.320752 0.000000
O O13 0.000000 0.086351 0.372846
O O14 0.846605 0.000000 0.336516
O O15 0.274164 0.500000 0.328383
O O16 0.289336 0.388338 0.399639
O O17 0.000000 0.841440 0.920766
O O18 0.146268 0.840539 0.000000
#
# Coordination Sequence:
#
# PCOD9524685 Si02
#       7
#    16   8   8  16  16  16  16
#     4  11  25  41  65  90 113 152 198 245 296 350
#     4  10  22  35  56  85 119 160 191 237 297 351
#     4  10  18  31  55  82 112 149 191 235 281 341
#     4  10  19  33  56  84 114 148 186 234 286 340
#     4  10  21  37  57  85 119 149 185 235 292 352
#     4  11  23  39  59  84 118 154 193 238 293 354
#     4  10  21  36  56  82 113 154 200 243 286 339
#
# _framework density 9.2592590000000001
#
# number of rings (size 3 to 8) (size 9 to 14) (size 15 to 20)
#    0.000    1.667    2.500    2.000    1.167    2.833 
#    0.000    3.333    0.000    1.500    0.000    2.333 
#    0.000    0.000    0.000    0.000    0.000    0.000 
#
# Total GULP energy -267384.064356 kJ/mol
# GULP energy per Si atom -5570.501341 kJ/mol
# Density = 0.923818 g / cm^3
# Si number density = 9.259259 Si / 1000 Ang^3
#
#
#
# Elastic Constant Matrix: (Units=GPa)
#
#
# Indices 1 2 3 4 5 6 
#
# 1 107.1184 27.4693 17.1541 0.0000 0.0000 0.0000
# 2 27.4693 75.1936 24.2198 0.0000 0.0000 0.0000
# 3 17.1541 24.2198 43.4951 0.0000 0.0000 0.0000
# 4 0.0000 0.0000 0.0000 18.1777 0.0000 0.0000
# 5 0.0000 0.0000 0.0000 0.0000 24.8902 0.0000
# 6 0.0000 0.0000 0.0000 0.0000 0.0000 33.7310
#
#
#
# Elastic Compliance Matrix: (Units=1/GPa)
#
#
# Indices 1 2 3 4 5 6 
#
# 1 0.010510 -0.003052 -0.002446 0.000000 0.000000 0.000000
# 2 -0.003052 0.017092 -0.008314 0.000000 0.000000 0.000000
# 3 -0.002446 -0.008314 0.028585 0.000000 0.000000 0.000000
# 4 0.000000 0.000000 0.000000 0.055012 0.000000 0.000000
# 5 0.000000 0.000000 0.000000 0.000000 0.040177 0.000000
# 6 0.000000 0.000000 0.000000 0.000000 0.000000 0.029646
#
#
# Mechanical properties :
#
#
# Convention : Reuss Voigt Hill
#
# Bulk Modulus (GPa) = 35.00872 40.38816 37.69844
# Shear Modulus (GPa) = 22.91842 25.82404 24.37123
#
# Velocity S-wave (km/s) = 3.52176 3.73835 3.63167
# Velocity P-wave (km/s) = 5.95675 6.36322 6.16334
#
# Compressibility (1/GPa) = 0.02856431
#
# Stress axis : x y z
#
# Youngs Moduli (GPa) = 95.15057 58.50812 34.98330
#
# Poissons Ratio (x) = 0.17854 0.08556
# Poissons Ratio (y) = 0.29036 0.29084
# Poissons Ratio (z) = 0.23271 0.48642
#
# Static dielectric constant tensor:
#      x y z
#    x 1.661580 0.000000 0.000000 
#    y 0.000000 1.645800 0.000000 
#    z 0.000000 0.000000 1.689220 
# 
# From -- ./inp_files/43597.got.cif
#   From: 2010.05.17/outbox.ucp.g08.bks.cvg/sg71_22_cif.got.tgz:43597.got - 2010.06.11 16:29:00.
