data_PCOD9524258
_publ_section_title
;
Structure prediction by ZEFSAII (Michael W. Deem and Ramdas Pophale) SiO2 
 PCOD9524258
Probable space group: I M M M
;
_chemical_formula_sum "Si O2"
_cell_formula_units_Z 72
_cell_length_a 8.881128
_cell_length_b 33.034419
_cell_length_c 13.921850
_cell_angle_alpha 90.000000
_cell_angle_beta 90.000000
_cell_angle_gamma 90.000000
_cell_volume 4084.432776
_symmetry_space_group_name_H-M "I M M M"
_symmetry_group_IT_number 71
_symmetry_cell_setting 'orthorhombic'
loop_
_space_group_symop_operation_xyz
x,y,z
-x,-y,z
x,-y,-z
-x,y,-z
-x,-y,-z
x,y,-z
-x,y,z
x,-y,z
1/2+x,1/2+y,1/2+z
1/2-x,1/2-y,1/2+z
1/2+x,1/2-y,1/2-z
1/2-x,1/2+y,1/2-z
1/2-x,1/2-y,1/2-z
1/2+x,1/2+y,1/2-z
1/2-x,1/2+y,1/2+z
1/2+x,1/2-y,1/2+z
loop_
_atom_site_type_symbol
_atom_site_label
_atom_site_fract_x
_atom_site_fract_y
_atom_site_fract_z
Si Si1 0.168363 0.356046 0.109606
Si Si2 0.681018 0.000000 0.614380
Si Si3 0.317612 0.129809 0.111990
Si Si4 0.176183 0.922884 0.279582
Si Si5 0.328664 0.791832 0.224613
O O1 0.293081 0.387085 0.144409
O O2 0.170626 0.317552 0.177551
O O3 0.000000 0.375056 0.121238
O O4 0.186799 0.344825 0.000000
O O5 0.743729 0.038561 0.672730
O O6 0.500000 0.000000 0.616284
O O7 0.725680 0.000000 0.500000
O O8 0.500000 0.128788 0.123468
O O9 0.248249 0.095599 0.181746
O O10 0.267276 0.174688 0.148645
O O11 0.281793 0.123987 0.000000
O O12 0.000000 0.930687 0.265703
O O13 0.500000 0.782829 0.194763
O O14 0.250000 0.750000 0.250000
#
# Coordination Sequence:
#
# PCOD9524258 Si02
#       5
#    16   8  16  16  16
#     4   9  18  34  53  71  98 139 179 211 252 314
#     4  11  23  39  60  83 110 147 183 212 252 315
#     4   9  19  38  60  77 101 144 190 225 263 319
#     4  11  22  35  54  83 114 137 167 219 272 315
#     4   9  18  31  48  74 105 136 174 220 267 314
#
# _framework density 17.627907
#
# number of rings (size 3 to 8) (size 9 to 14) (size 15 to 20)
#    0.000    2.333    0.000    4.333    0.000    8.889 
#    0.000    0.556    0.000    3.333    0.000    0.000 
#    0.000    0.000    0.000    0.000    0.000    0.000 
#
# Total GULP energy -200532.356748 kJ/mol
# GULP energy per Si atom -5570.343243 kJ/mol
# Density = 1.758779 g / cm^3
# Si number density = 17.627907 Si / 1000 Ang^3
#
#
#
# Elastic Constant Matrix: (Units=GPa)
#
#
# Indices 1 2 3 4 5 6 
#
# 1 66.9861 47.1032 35.8850 0.0001 0.0000 0.0000
# 2 47.1032 114.7135 44.7194 0.0001 0.0000 0.0000
# 3 35.8850 44.7194 130.2778 0.0007 0.0001 0.0000
# 4 0.0001 0.0001 0.0007 6.6684 0.0000 0.0000
# 5 0.0000 0.0000 0.0001 0.0000 15.6693 0.0000
# 6 0.0000 0.0000 0.0000 0.0000 0.0000 33.4499
#
#
#
# Elastic Compliance Matrix: (Units=1/GPa)
#
#
# Indices 1 2 3 4 5 6 
#
# 1 0.022260 -0.007793 -0.003457 0.000000 0.000000 0.000000
# 2 -0.007793 0.012792 -0.002245 0.000000 0.000000 0.000000
# 3 -0.003457 -0.002245 0.009398 -0.000001 0.000000 0.000000
# 4 0.000000 0.000000 -0.000001 0.149962 0.000000 0.000000
# 5 0.000000 0.000000 0.000000 0.000000 0.063819 0.000000
# 6 0.000000 0.000000 0.000000 0.000000 0.000000 0.029895
#
#
# Mechanical properties :
#
#
# Convention : Reuss Voigt Hill
#
# Bulk Modulus (GPa) = 57.26443 63.04362 60.15403
# Shear Modulus (GPa) = 15.57943 23.44217 19.51080
#
# Velocity S-wave (km/s) = 2.97609 3.65064 3.33049
# Velocity P-wave (km/s) = 6.66071 7.32194 6.99914
#
# Compressibility (1/GPa) = 0.01746285
#
# Stress axis : x y z
#
# Youngs Moduli (GPa) = 44.92390 78.17256 106.40031
#
# Poissons Ratio (x) = 0.60918 0.36777
# Poissons Ratio (y) = 0.35008 0.23882
# Poissons Ratio (z) = 0.15528 0.17546
#
# Static dielectric constant tensor:
#      x y z
#    x 1.640200 0.000000 0.000000 
#    y 0.000000 1.606020 0.000000 
#    z 0.000000 0.000000 1.598580 
# 
# From -- ./inp_files/31641.got.cif
#   From: 2010.05.17/outbox.cif.g08.bks.cpg/sg71_16_cif.got.tgz:31641.got - 2010.06.03 16:22:01.
