data_PCOD9524505
_publ_section_title
;
Structure prediction by ZEFSAII (Michael W. Deem and Ramdas Pophale) SiO2 
 PCOD9524505
Probable space group: I M M M
;
_chemical_formula_sum "Si O2"
_cell_formula_units_Z 80
_cell_length_a 17.738168
_cell_length_b 29.133568
_cell_length_c 7.680514
_cell_angle_alpha 90.000000
_cell_angle_beta 90.000000
_cell_angle_gamma 90.000000
_cell_volume 3969.106252
_symmetry_space_group_name_H-M "I M M M"
_symmetry_group_IT_number 71
_symmetry_cell_setting 'orthorhombic'
loop_
_space_group_symop_operation_xyz
x,y,z
-x,-y,z
x,-y,-z
-x,y,-z
-x,-y,-z
x,y,-z
-x,y,z
x,-y,z
1/2+x,1/2+y,1/2+z
1/2-x,1/2-y,1/2+z
1/2+x,1/2-y,1/2-z
1/2-x,1/2+y,1/2-z
1/2-x,1/2-y,1/2-z
1/2+x,1/2+y,1/2-z
1/2-x,1/2+y,1/2+z
1/2+x,1/2-y,1/2+z
loop_
_atom_site_type_symbol
_atom_site_label
_atom_site_fract_x
_atom_site_fract_y
_atom_site_fract_z
Si Si1 0.155200 0.287218 0.789997
Si Si2 0.822466 0.188761 0.705157
Si Si3 0.591700 0.500000 0.204126
Si Si4 0.087770 0.100384 0.286158
Si Si5 0.589505 0.117545 0.304695
Si Si6 0.592595 0.947353 0.000000
O O1 0.133321 0.236720 0.726554
O O2 0.239098 0.300300 0.723311
O O3 0.104406 0.330593 0.743406
O O4 0.156498 0.284197 0.000000
O O5 0.812487 0.180652 0.500000
O O6 0.863496 0.143698 0.775212
O O7 0.500000 0.500000 0.211738
O O8 0.614828 0.450100 0.274869
O O9 0.612654 0.500000 0.000000
O O10 0.089070 0.099730 0.500000
O O11 0.000000 0.106229 0.237150
O O12 0.621633 0.112436 0.500000
O O13 0.500000 0.111102 0.315541
O O14 0.618939 0.080388 0.169340
O O15 0.500000 0.946618 0.000000
O O16 0.615941 0.000000 0.000000
#
# Coordination Sequence:
#
# PCOD9524505 Si02
#       6
#    16  16   8  16  16   8
#     4   9  18  31  44  62  90 124 158 190 236 292
#     4   9  17  28  44  65  89 120 156 195 236 280
#     4   7  10  18  34  56  85 115 136 166 219 270
#     4   8  13  22  38  63  90 114 144 183 227 272
#     4   9  18  32  50  72  99 130 162 202 245 285
#     4   9  18  32  52  78 100 124 163 200 242 298
#
# _framework density 20.155671000000002
#
# number of rings (size 3 to 8) (size 9 to 14) (size 15 to 20)
#    0.000    3.400    0.000    1.200    1.400    1.200 
#    0.000    2.000    2.200    0.000    0.000    0.700 
#    0.000    2.400    0.000    0.000    0.000    0.000 
#
# Total GULP energy -222747.680609 kJ/mol
# GULP energy per Si atom -5568.692015 kJ/mol
# Density = 2.010980 g / cm^3
# Si number density = 20.155671 Si / 1000 Ang^3
#
#
#
# Elastic Constant Matrix: (Units=GPa)
#
#
# Indices 1 2 3 4 5 6 
#
# 1 10.0883 34.2592 7.6274 0.0000 -0.0001 0.0001
# 2 34.2592 207.9290 34.5104 -0.0002 0.0000 0.0002
# 3 7.6274 34.5104 47.0483 -0.0012 0.0013 0.0000
# 4 0.0000 -0.0002 -0.0012 8.4345 0.0000 0.0002
# 5 -0.0001 0.0000 0.0013 0.0000 3.4238 0.0005
# 6 0.0001 0.0002 0.0000 0.0002 0.0005 -2.5728
#
#
#
# Elastic Compliance Matrix: (Units=1/GPa)
#
#
# Indices 1 2 3 4 5 6 
#
# 1 0.229758 -0.036064 -0.010794 -0.000003 0.000008 0.000004
# 2 -0.036064 0.011137 -0.002322 0.000000 0.000000 0.000000
# 3 -0.010794 -0.002322 0.024708 0.000004 -0.000009 0.000000
# 4 -0.000003 0.000000 0.000004 0.118560 -0.000001 0.000010
# 5 0.000008 0.000000 -0.000009 -0.000001 0.292077 0.000055
# 6 0.000004 0.000000 0.000000 0.000010 0.000055 -0.388675
#
#
# Mechanical properties :
#
#
# Convention : Reuss Voigt Hill
#
# Bulk Modulus (GPa) = 5.97938 46.42884 26.20411
# Shear Modulus (GPa) = 11.32055 14.43499 12.87777
#
# Velocity S-wave (km/s) = 2.37250 2.67905 2.53042
# Velocity P-wave (km/s) = 3.23698 5.71444 4.64397
#
# Compressibility (1/GPa) = 0.16724141
#
# Stress axis : x y z
#
# Youngs Moduli (GPa) = 4.35240 89.79162 40.47244
#
# Poissons Ratio (x) = 3.23828 0.43687
# Poissons Ratio (y) = 0.15697 0.09399
# Poissons Ratio (z) = 0.04698 0.20853
#
# Static dielectric constant tensor:
#      x y z
#    x 1.714610 0.000000 0.000000 
#    y 0.000000 1.729080 0.000000 
#    z 0.000000 0.000000 1.775540 
# 
# From -- ./inp_files/10232.got.cif
#   From: 2010.05.17/outbox.cif.g08.bks.cpg/sg71_6_cif.got.tgz:10232.got - 2010.06.03 16:22:01.
