data_PCOD9524363
_publ_section_title
;
Structure prediction by ZEFSAII (Michael W. Deem and Ramdas Pophale) SiO2 
 PCOD9524363
Probable space group: I M M M
;
_chemical_formula_sum "Si O2"
_cell_formula_units_Z 68
_cell_length_a 30.031210
_cell_length_b 11.993300
_cell_length_c 12.228002
_cell_angle_alpha 90.000000
_cell_angle_beta 90.000000
_cell_angle_gamma 90.000000
_cell_volume 4404.199966
_symmetry_space_group_name_H-M "I M M M"
_symmetry_group_IT_number 71
_symmetry_cell_setting 'orthorhombic'
loop_
_space_group_symop_operation_xyz
x,y,z
-x,-y,z
x,-y,-z
-x,y,-z
-x,-y,-z
x,y,-z
-x,y,z
x,-y,z
1/2+x,1/2+y,1/2+z
1/2-x,1/2-y,1/2+z
1/2+x,1/2-y,1/2-z
1/2-x,1/2+y,1/2-z
1/2-x,1/2-y,1/2-z
1/2+x,1/2+y,1/2-z
1/2-x,1/2+y,1/2+z
1/2+x,1/2-y,1/2+z
loop_
_atom_site_type_symbol
_atom_site_label
_atom_site_fract_x
_atom_site_fract_y
_atom_site_fract_z
Si Si1 0.161738 0.500000 0.500000
Si Si2 0.800032 0.300548 0.872519
Si Si3 0.652660 0.000000 0.751319
Si Si4 0.949965 0.500000 0.680939
Si Si5 0.859969 0.241268 0.500000
Si Si6 0.951706 0.306850 0.500000
Si Si7 0.800482 0.131534 0.685313
O O1 0.177354 0.500000 0.371527
O O2 0.140707 0.623546 0.500000
O O3 0.830938 0.391982 0.814168
O O4 0.803716 0.186432 0.804687
O O5 0.749195 0.342850 0.858530
O O6 0.810105 0.288925 0.000000
O O7 0.598768 0.000000 0.762483
O O8 0.949278 0.390759 0.603484
O O9 0.000000 0.500000 0.734994
O O10 0.912191 0.218864 0.500000
O O11 0.834663 0.193346 0.604702
O O12 0.000000 0.252971 0.500000
O O13 0.807946 0.000000 0.685090
#
# Coordination Sequence:
#
# PCOD9524363 Si02
#       7
#     4  16   8   8   8   8  16
#     4  12  20  32  53  88 108 144 184 212 269 328
#     4  11  23  37  52  74 102 139 183 225 266 314
#     4  12  19  34  54  78 114 138 178 220 265 324
#     4   9  15  26  47  78 111 140 171 210 266 332
#     4  12  19  34  54  78 114 138 178 220 265 324
#     4   9  15  26  47  78 111 140 171 210 266 332
#     4  11  23  37  52  74 102 139 183 225 266 314
#
# _framework density 15.439807999999999
#
# number of rings (size 3 to 8) (size 9 to 14) (size 15 to 20)
#    0.000    1.176    7.059    1.412    0.000    0.471 
#    0.000    0.000    0.000    2.824    0.000    0.000 
#    0.000    0.000    0.000    9.882    0.000    0.000 
#
# Total GULP energy -189331.178742 kJ/mol
# GULP energy per Si atom -5568.564081 kJ/mol
# Density = 1.540467 g / cm^3
# Si number density = 15.439808 Si / 1000 Ang^3
#
#
#
# Elastic Constant Matrix: (Units=GPa)
#
#
# Indices 1 2 3 4 5 6 
#
# 1 140.0543 32.6419 36.0770 0.0000 0.0000 0.0000
# 2 32.6419 83.6463 30.6168 0.0000 0.0000 0.0000
# 3 36.0770 30.6168 118.0369 0.0000 0.0000 0.0000
# 4 0.0000 0.0000 0.0000 19.3702 0.0000 0.0000
# 5 0.0000 0.0000 0.0000 0.0000 16.5436 0.0000
# 6 0.0000 0.0000 0.0000 0.0000 0.0000 20.0091
#
#
#
# Elastic Compliance Matrix: (Units=1/GPa)
#
#
# Indices 1 2 3 4 5 6 
#
# 1 0.008206 -0.002524 -0.001853 0.000000 0.000000 0.000000
# 2 -0.002524 0.013985 -0.002856 0.000000 0.000000 0.000000
# 3 -0.001853 -0.002856 0.009779 0.000000 0.000000 0.000000
# 4 0.000000 0.000000 0.000000 0.051626 0.000000 0.000000
# 5 0.000000 0.000000 0.000000 0.000000 0.060446 0.000000
# 6 0.000000 0.000000 0.000000 0.000000 0.000000 0.049977
#
#
# Mechanical properties :
#
#
# Convention : Reuss Voigt Hill
#
# Bulk Modulus (GPa) = 57.13096 60.04541 58.58818
# Shear Modulus (GPa) = 23.32950 27.34471 25.33711
#
# Velocity S-wave (km/s) = 3.89137 4.21295 4.05535
# Velocity P-wave (km/s) = 7.56790 7.91453 7.74315
#
# Compressibility (1/GPa) = 0.01750364
#
# Stress axis : x y z
#
# Youngs Moduli (GPa) = 121.86627 71.50299 102.25739
#
# Poissons Ratio (x) = 0.18046 0.18952
# Poissons Ratio (y) = 0.30756 0.29207
# Poissons Ratio (z) = 0.22586 0.20423
#
# Static dielectric constant tensor:
#      x y z
#    x 1.548400 0.000000 0.000000 
#    y 0.000000 1.497120 0.000000 
#    z 0.000000 0.000000 1.519160 
# 
# From -- ./inp_files/29656.got.cif
#   From: 2010.05.17/outbox.cif.g08.bks.cpg/sg71_15_cif.got.tgz:29656.got - 2010.06.03 16:22:01.
