data_PCOD9524745
_publ_section_title
;
Structure prediction by ZEFSAII (Michael W. Deem and Ramdas Pophale) SiO2 
 PCOD9524745
Probable space group: I M M M
;
_chemical_formula_sum "Si O2"
_cell_formula_units_Z 44
_cell_length_a 15.000000
_cell_length_b 27.000000
_cell_length_c 12.000000
_cell_angle_alpha 90.000000
_cell_angle_beta 90.000000
_cell_angle_gamma 90.000000
_cell_volume 4860.000000
_symmetry_space_group_name_H-M "I M M M"
_symmetry_group_IT_number 71
_symmetry_cell_setting 'orthorhombic'
loop_
_space_group_symop_operation_xyz
x,y,z
-x,-y,z
x,-y,-z
-x,y,-z
-x,-y,-z
x,y,-z
-x,y,z
x,-y,z
1/2+x,1/2+y,1/2+z
1/2-x,1/2-y,1/2+z
1/2+x,1/2-y,1/2-z
1/2-x,1/2+y,1/2-z
1/2-x,1/2-y,1/2-z
1/2+x,1/2+y,1/2-z
1/2-x,1/2+y,1/2+z
1/2+x,1/2-y,1/2+z
loop_
_atom_site_type_symbol
_atom_site_label
_atom_site_fract_x
_atom_site_fract_y
_atom_site_fract_z
Si Si1 0.652141 0.441710 0.000000
Si Si2 0.397348 0.559431 0.750310
Si Si3 0.774129 0.139909 0.133777
Si Si4 0.897960 0.778334 0.750057
Si Si5 0.205940 0.372854 0.000000
Si Si6 0.896121 0.813987 0.500000
Si Si7 0.606103 0.161171 0.277520
O O1 0.612371 0.425031 0.119210
O O2 0.635964 0.500000 0.000000
O O3 0.757138 0.428812 0.000000
O O4 0.500000 0.568780 0.716299
O O5 0.381321 0.500000 0.741928
O O6 0.327511 0.591863 0.680330
O O7 0.827936 0.186384 0.187744
O O8 0.673083 0.142063 0.181025
O O9 0.776066 0.141824 0.000000
O O10 0.889627 0.784265 0.616212
O O11 0.886302 0.720935 0.780221
O O12 0.000000 0.793171 0.779338
O O13 0.304292 0.346183 0.000000
O O14 0.148879 0.359421 0.108209
O O15 0.000000 0.834302 0.500000
O O16 0.500000 0.149508 0.265380
#
# Coordination Sequence:
#
# PCOD9524745 Si02
#       7
#     8  16  16  16   8   8  16
#     4  10  19  36  64  94 120 149 189 237 293 352
#     4  10  21  39  64  94 125 155 189 235 295 362
#     4  12  25  39  60  85 118 162 202 242 295 351
#     4  10  22  38  58  87 121 156 198 245 294 355
#     4  12  21  38  64  87 120 157 188 247 302 356
#     4  10  20  35  61  89 117 155 196 240 298 356
#     4  11  25  41  59  85 117 158 205 250 295 346
#
# _framework density 9.0534979999999994
#
# number of rings (size 3 to 8) (size 9 to 14) (size 15 to 20)
#    0.000    1.273    3.636    1.636    2.545    5.455 
#    0.000    0.909    0.000    2.727    0.000    1.273 
#    0.000    0.000    0.000    0.000    0.000    0.000 
#
# Total GULP energy -245647.195468 kJ/mol
# GULP energy per Si atom -5582.890806 kJ/mol
# Density = 0.903289 g / cm^3
# Si number density = 9.053498 Si / 1000 Ang^3
#
#
#
# Elastic Constant Matrix: (Units=GPa)
#
#
# Indices 1 2 3 4 5 6 
#
# 1 148.8822 32.9539 48.7581 0.0000 0.0000 0.0000
# 2 32.9539 41.0691 18.7081 0.0000 0.0000 0.0000
# 3 48.7581 18.7081 133.9914 -0.0001 -0.0001 0.0000
# 4 0.0000 0.0000 -0.0001 20.8814 0.0000 0.0000
# 5 0.0000 0.0000 -0.0001 0.0000 25.6652 0.0000
# 6 0.0000 0.0000 0.0000 0.0000 0.0000 33.5478
#
#
#
# Elastic Compliance Matrix: (Units=1/GPa)
#
#
# Indices 1 2 3 4 5 6 
#
# 1 0.008821 -0.005997 -0.002373 0.000000 0.000000 0.000000
# 2 -0.005997 0.030081 -0.002018 0.000000 0.000000 0.000000
# 3 -0.002373 -0.002018 0.008608 0.000000 0.000000 0.000000
# 4 0.000000 0.000000 0.000000 0.047890 0.000000 0.000000
# 5 0.000000 0.000000 0.000000 0.000000 0.038963 0.000000
# 6 0.000000 0.000000 0.000000 0.000000 0.000000 0.029808
#
#
# Mechanical properties :
#
#
# Convention : Reuss Voigt Hill
#
# Bulk Modulus (GPa) = 37.40411 58.30923 47.85667
# Shear Modulus (GPa) = 25.79213 30.92039 28.35626
#
# Velocity S-wave (km/s) = 3.77826 4.13685 3.96161
# Velocity P-wave (km/s) = 6.30363 7.42230 6.88572
#
# Compressibility (1/GPa) = 0.02673503
#
# Stress axis : x y z
#
# Youngs Moduli (GPa) = 113.36332 33.24408 116.16813
#
# Poissons Ratio (x) = 0.19938 0.27562
# Poissons Ratio (y) = 0.67988 0.23437
# Poissons Ratio (z) = 0.26896 0.06707
#
# Static dielectric constant tensor:
#      x y z
#    x 1.624330 0.000000 0.000000 
#    y 0.000000 1.689340 0.000000 
#    z 0.000000 0.000000 1.608700 
# 
# From -- ./inp_files/22356.got.cif
#   From: 2010.05.17/outbox.ucp.g08.bks.cvg/sg71_12_cif.got.tgz:22356.got - 2010.06.11 16:29:00.
