data_PCOD9524433
_publ_section_title
;
Structure prediction by ZEFSAII (Michael W. Deem and Ramdas Pophale) SiO2 
 PCOD9524433
Probable space group: I M M M
;
_chemical_formula_sum "Si O2"
_cell_formula_units_Z 104
_cell_length_a 9.198571
_cell_length_b 28.740577
_cell_length_c 19.898218
_cell_angle_alpha 90.000000
_cell_angle_beta 90.000000
_cell_angle_gamma 90.000000
_cell_volume 5260.536427
_symmetry_space_group_name_H-M "I M M M"
_symmetry_group_IT_number 71
_symmetry_cell_setting 'orthorhombic'
loop_
_space_group_symop_operation_xyz
x,y,z
-x,-y,z
x,-y,-z
-x,y,-z
-x,-y,-z
x,y,-z
-x,y,z
x,-y,z
1/2+x,1/2+y,1/2+z
1/2-x,1/2-y,1/2+z
1/2+x,1/2-y,1/2-z
1/2-x,1/2+y,1/2-z
1/2-x,1/2-y,1/2-z
1/2+x,1/2+y,1/2-z
1/2-x,1/2+y,1/2+z
1/2+x,1/2-y,1/2+z
loop_
_atom_site_type_symbol
_atom_site_label
_atom_site_fract_x
_atom_site_fract_y
_atom_site_fract_z
Si Si1 0.666156 0.115493 0.795488
Si Si2 0.325151 0.444705 0.814396
Si Si3 0.671655 0.397241 0.579838
Si Si4 0.173360 0.376456 0.080005
Si Si5 0.669315 0.218338 0.802685
Si Si6 0.325646 0.768002 0.578952
Si Si7 0.325131 0.500000 0.574820
O O1 0.500000 0.099197 0.796784
O O2 0.762478 0.080105 0.752587
O O3 0.722694 0.128188 0.870377
O O4 0.674307 0.167513 0.767537
O O5 0.500000 0.441602 0.814487
O O6 0.287064 0.500000 0.817260
O O7 0.258131 0.414093 0.875161
O O8 0.695005 0.392856 0.500000
O O9 0.500000 0.388354 0.591503
O O10 0.708295 0.450246 0.603162
O O11 0.214037 0.322266 0.093358
O O12 0.000000 0.380852 0.093541
O O13 0.195362 0.384330 0.000000
O O14 0.500000 0.229352 0.811133
O O15 0.750000 0.250000 0.750000
O O16 0.747176 0.231470 0.872912
O O17 0.294957 0.759288 0.500000
O O18 0.500000 0.764142 0.587830
O O19 0.500000 0.500000 0.568919
O O20 0.261944 0.500000 0.500000
#
# Coordination Sequence:
#
# PCOD9524433 Si02
#       7
#    16  16  16  16  16  16   8
#     4  11  25  41  57  82 117 154 192 241 297 348
#     4  11  25  42  60  85 117 154 199 249 295 344
#     4   9  18  34  57  83 111 146 188 233 280 331
#     4   9  19  38  64  93 124 156 190 232 286 349
#     4  11  24  40  59  84 115 152 194 240 290 346
#     4   9  19  37  62  92 124 156 192 236 286 345
#     4   7  12  26  49  75 101 131 170 217 264 309
#
# _framework density 19.769848
#
# number of rings (size 3 to 8) (size 9 to 14) (size 15 to 20)
#    0.000    2.231    0.000    4.154    1.077    9.846 
#    0.000    6.154    0.000    1.385    0.000    0.000 
#    0.000    0.000    0.000    0.000    0.000    0.000 
#
# Total GULP energy -289651.470405 kJ/mol
# GULP energy per Si atom -5570.220585 kJ/mol
# Density = 1.972485 g / cm^3
# Si number density = 19.769848 Si / 1000 Ang^3
#
#
#
# Elastic Constant Matrix: (Units=GPa)
#
#
# Indices 1 2 3 4 5 6 
#
# 1 48.9999 45.2741 35.3738 -0.0019 -0.0002 0.0000
# 2 45.2741 94.8324 40.8148 -0.0005 -0.0002 0.0000
# 3 35.3738 40.8148 89.5237 -0.0159 -0.0034 0.0000
# 4 -0.0019 -0.0005 -0.0159 1613.9220 0.0943 0.0008
# 5 -0.0002 -0.0002 -0.0034 0.0943 -23.1040 0.0001
# 6 0.0000 0.0000 0.0000 0.0008 0.0001 24.7732
#
#
#
# Elastic Compliance Matrix: (Units=1/GPa)
#
#
# Indices 1 2 3 4 5 6 
#
# 1 0.041881 -0.016014 -0.009247 0.000000 0.000001 0.000000
# 2 -0.016014 0.019243 -0.002445 0.000000 0.000000 0.000000
# 3 -0.009247 -0.002445 0.015939 0.000000 -0.000002 0.000000
# 4 0.000000 0.000000 0.000000 0.000620 0.000003 0.000000
# 5 0.000001 0.000000 -0.000002 0.000003 -0.043283 0.000000
# 6 0.000000 0.000000 0.000000 0.000000 0.000000 0.040366
#
#
# Mechanical properties :
#
#
# Convention : Reuss Voigt Hill
#
# Bulk Modulus (GPa) = 46.19229 52.92016 49.55622
# Shear Modulus (GPa) = 36.39121 330.57778 183.48450
#
# Velocity S-wave (km/s) = 4.29504 12.94512 9.64426
# Velocity P-wave (km/s) = 6.92909 15.81964 12.21215
#
# Compressibility (1/GPa) = 0.02164864
#
# Stress axis : x y z
#
# Youngs Moduli (GPa) = 23.87730 51.96758 62.73946
#
# Poissons Ratio (x) = 0.83223 0.58017
# Poissons Ratio (y) = 0.38238 0.15341
# Poissons Ratio (z) = 0.22080 0.12707
#
# Static dielectric constant tensor:
#      x y z
#    x 1.661660 0.000000 0.000000 
#    y 0.000000 1.872680 0.000000 
#    z 0.000000 0.000000 2.170490 
# 
# From -- ./inp_files/50933.got.cif
#   From: 2010.05.17/outbox.cif.g08.bks.cpg/sg71_26_cif.got.tgz:50933.got - 2010.06.03 16:22:01.
