data_PCOD9524351
_publ_section_title
;
Structure prediction by ZEFSAII (Michael W. Deem and Ramdas Pophale) SiO2 
 PCOD9524351
Probable space group: I M M M
;
_chemical_formula_sum "Si O2"
_cell_formula_units_Z 64
_cell_length_a 7.730786
_cell_length_b 25.899810
_cell_length_c 15.121977
_cell_angle_alpha 90.000000
_cell_angle_beta 90.000000
_cell_angle_gamma 90.000000
_cell_volume 3027.811281
_symmetry_space_group_name_H-M "I M M M"
_symmetry_group_IT_number 71
_symmetry_cell_setting 'orthorhombic'
loop_
_space_group_symop_operation_xyz
x,y,z
-x,-y,z
x,-y,-z
-x,y,-z
-x,-y,-z
x,y,-z
-x,y,z
x,-y,z
1/2+x,1/2+y,1/2+z
1/2-x,1/2-y,1/2+z
1/2+x,1/2-y,1/2-z
1/2-x,1/2+y,1/2-z
1/2-x,1/2-y,1/2-z
1/2+x,1/2+y,1/2-z
1/2-x,1/2+y,1/2+z
1/2+x,1/2-y,1/2+z
loop_
_atom_site_type_symbol
_atom_site_label
_atom_site_fract_x
_atom_site_fract_y
_atom_site_fract_z
Si Si1 0.700262 0.500000 0.892082
Si Si2 0.200532 0.500000 0.391791
Si Si3 0.291847 0.111492 0.899517
Si Si4 0.704291 0.309874 0.751684
Si Si5 0.287287 0.387780 0.897973
O O1 0.500000 0.500000 0.863301
O O2 0.775023 0.555499 0.866345
O O3 0.700481 0.500000 0.000000
O O4 0.201102 0.500000 0.500000
O O5 0.277042 0.444409 0.366085
O O6 0.000000 0.500000 0.362735
O O7 0.500000 0.106448 0.903522
O O8 0.252008 0.158676 0.836038
O O9 0.230005 0.119877 0.000000
O O10 0.500000 0.312358 0.760351
O O11 0.750000 0.250000 0.750000
O O12 0.775849 0.342519 0.834500
O O13 0.500000 0.389490 0.897334
O O14 0.236878 0.380150 0.000000
#
# Coordination Sequence:
#
# PCOD9524351 Si02
#       5
#     8   8  16  16  16
#     4   7  10  21  44  72  98 121 150 193 247 308
#     4   7  12  27  53  81 104 131 170 209 253 320
#     4   9  18  35  58  80 105 139 175 213 262 321
#     4  11  23  36  51  74 104 138 180 225 263 306
#     4   8  15  29  49  72  98 128 160 198 250 309
#
# _framework density 21.13738
#
# number of rings (size 3 to 8) (size 9 to 14) (size 15 to 20)
#    0.000    3.250    0.000    3.750    0.000    2.500 
#    0.000    4.375    0.000    4.500    0.000    0.000 
#    0.000   15.000    0.000    0.000    0.000    0.000 
#
# Total GULP energy -178406.735935 kJ/mol
# GULP energy per Si atom -5575.210498 kJ/mol
# Density = 2.108927 g / cm^3
# Si number density = 21.137380 Si / 1000 Ang^3
#
#
#
# Elastic Constant Matrix: (Units=GPa)
#
#
# Indices 1 2 3 4 5 6 
#
# 1 35.0032 12.7066 4.1572 0.0000 0.0000 0.0000
# 2 12.7066 256.6188 110.9348 0.0001 0.0000 0.0000
# 3 4.1572 110.9348 108.5725 0.0002 0.0000 0.0001
# 4 0.0000 0.0001 0.0002 36.9340 0.0000 0.0000
# 5 0.0000 0.0000 0.0000 0.0000 8.4484 0.0000
# 6 0.0000 0.0000 0.0001 0.0000 0.0000 12.0712
#
#
#
# Elastic Compliance Matrix: (Units=1/GPa)
#
#
# Indices 1 2 3 4 5 6 
#
# 1 0.029117 -0.001719 0.000642 0.000000 0.000000 0.000000
# 2 -0.001719 0.007081 -0.007170 0.000000 0.000000 0.000000
# 3 0.000642 -0.007170 0.016511 0.000000 0.000000 0.000000
# 4 0.000000 0.000000 0.000000 0.027075 0.000000 0.000000
# 5 0.000000 0.000000 0.000000 0.000000 0.118366 0.000000
# 6 0.000000 0.000000 0.000000 0.000000 0.000000 0.082842
#
#
# Mechanical properties :
#
#
# Convention : Reuss Voigt Hill
#
# Bulk Modulus (GPa) = 27.61256 72.86572 50.23914
# Shear Modulus (GPa) = 16.15207 29.65046 22.90127
#
# Velocity S-wave (km/s) = 2.76732 3.74939 3.29515
# Velocity P-wave (km/s) = 4.82727 7.30008 6.18845
#
# Compressibility (1/GPa) = 0.03621540
#
# Stress axis : x y z
#
# Youngs Moduli (GPa) = 34.34456 141.21684 60.56417
#
# Poissons Ratio (x) = 0.24277 -0.03886
# Poissons Ratio (y) = 0.05904 0.43422
# Poissons Ratio (z) = -0.02204 1.01246
#
# Static dielectric constant tensor:
#      x y z
#    x 1.820740 0.000000 0.000000 
#    y 0.000000 1.436050 0.000000 
#    z 0.000000 0.000000 1.764360 
# 
# From -- ./inp_files/5862.got.cif
#   From: 2010.05.17/outbox.cif.g08.bks.cpg/sg71_3_cif.got.tgz:5862.got - 2010.06.03 16:22:01.
