data_PCOD9524204
_publ_section_title
;
Structure prediction by ZEFSAII (Michael W. Deem and Ramdas Pophale) SiO2 
 PCOD9524204
Probable space group: I M M M
;
_chemical_formula_sum "Si O2"
_cell_formula_units_Z 56
_cell_length_a 9.791593
_cell_length_b 14.321897
_cell_length_c 19.935297
_cell_angle_alpha 90.000000
_cell_angle_beta 90.000000
_cell_angle_gamma 90.000000
_cell_volume 2795.610156
_symmetry_space_group_name_H-M "I M M M"
_symmetry_group_IT_number 71
_symmetry_cell_setting 'orthorhombic'
loop_
_space_group_symop_operation_xyz
x,y,z
-x,-y,z
x,-y,-z
-x,y,-z
-x,-y,-z
x,y,-z
-x,y,z
x,-y,z
1/2+x,1/2+y,1/2+z
1/2-x,1/2-y,1/2+z
1/2+x,1/2-y,1/2-z
1/2-x,1/2+y,1/2-z
1/2-x,1/2-y,1/2-z
1/2+x,1/2+y,1/2-z
1/2-x,1/2+y,1/2+z
1/2+x,1/2-y,1/2+z
loop_
_atom_site_type_symbol
_atom_site_label
_atom_site_fract_x
_atom_site_fract_y
_atom_site_fract_z
Si Si1 0.000000 0.390445 0.418486
Si Si2 0.669637 0.500000 0.225511
Si Si3 0.339798 0.182770 0.701617
Si Si4 0.279866 0.302731 0.423480
Si Si5 0.149560 0.000000 0.876143
O O1 0.127963 0.328289 0.399409
O O2 0.000000 0.500000 0.396282
O O3 0.000000 0.396573 0.500000
O O4 0.500000 0.500000 0.215623
O O5 0.745877 0.590679 0.196087
O O6 0.723046 0.500000 0.304181
O O7 0.500000 0.167806 0.722996
O O8 0.250000 0.250000 0.750000
O O9 0.345541 0.234834 0.629936
O O10 0.284026 0.269296 0.500000
O O11 0.336925 0.407780 0.419432
O O12 0.000000 0.000000 0.848362
#
# Coordination Sequence:
#
# PCOD9524204 Si02
#       5
#     8   8  16  16   8
#     4   9  18  34  56  91 133 171 206 256 327 396
#     4  11  25  46  68  96 132 172 223 274 326 393
#     4  12  26  44  68  97 133 178 224 270 326 390
#     4  11  23  39  64  97 134 170 215 270 333 398
#     4  11  21  36  60  94 132 167 205 261 329 393
#
# _framework density 20.031406
#
# number of rings (size 3 to 8) (size 9 to 14) (size 15 to 20)
#    0.000    1.000    4.286    2.571    4.000    2.857 
#    2.571    0.714    0.000    2.571    0.000    0.000 
#    0.000    0.000    0.000    0.000    0.000    0.000 
#
# Total GULP energy -155872.620414 kJ/mol
# GULP energy per Si atom -5566.879301 kJ/mol
# Density = 1.998581 g / cm^3
# Si number density = 20.031406 Si / 1000 Ang^3
#
#
#
# Elastic Constant Matrix: (Units=GPa)
#
#
# Indices 1 2 3 4 5 6 
#
# 1 158.7778 53.4798 26.3499 0.0000 0.0000 0.0000
# 2 53.4798 125.9708 32.4301 0.0000 0.0000 0.0000
# 3 26.3499 32.4301 89.7944 0.0000 0.0000 0.0000
# 4 0.0000 0.0000 0.0000 67.0658 0.0000 0.0000
# 5 0.0000 0.0000 0.0000 0.0000 25.6603 0.0000
# 6 0.0000 0.0000 0.0000 0.0000 0.0000 11.5794
#
#
#
# Elastic Compliance Matrix: (Units=1/GPa)
#
#
# Indices 1 2 3 4 5 6 
#
# 1 0.007455 -0.002869 -0.001152 0.000000 0.000000 0.000000
# 2 -0.002869 0.009856 -0.002718 0.000000 0.000000 0.000000
# 3 -0.001152 -0.002718 0.012456 0.000000 0.000000 0.000000
# 4 0.000000 0.000000 0.000000 0.014911 0.000000 0.000000
# 5 0.000000 0.000000 0.000000 0.000000 0.038971 0.000000
# 6 0.000000 0.000000 0.000000 0.000000 0.000000 0.086360
#
#
# Mechanical properties :
#
#
# Convention : Reuss Voigt Hill
#
# Bulk Modulus (GPa) = 61.38310 66.56252 63.97281
# Shear Modulus (GPa) = 26.46680 38.34665 32.40672
#
# Velocity S-wave (km/s) = 3.63886 4.38005 4.02655
# Velocity P-wave (km/s) = 6.95450 7.67339 7.32277
#
# Compressibility (1/GPa) = 0.01629113
#
# Stress axis : x y z
#
# Youngs Moduli (GPa) = 134.12968 101.46242 80.28219
#
# Poissons Ratio (x) = 0.29106 0.09246
# Poissons Ratio (y) = 0.38477 0.21819
# Poissons Ratio (z) = 0.15448 0.27575
#
# Static dielectric constant tensor:
#      x y z
#    x 1.654810 0.000000 0.000000 
#    y 0.000000 1.694690 0.000000 
#    z 0.000000 0.000000 1.732030 
# 
# From -- ./inp_files/51421.got.cif
#   From: 2010.05.17/outbox.cif.g08.bks.cpg/sg71_26_cif.got.tgz:51421.got - 2010.06.03 16:22:01.
