data_PCOD9524026
_publ_section_title
;
Structure prediction by ZEFSAII (Michael W. Deem and Ramdas Pophale) SiO2 
 PCOD9524026
Probable space group: I M M M
;
_chemical_formula_sum "Si O2"
_cell_formula_units_Z 120
_cell_length_a 23.726876
_cell_length_b 16.798106
_cell_length_c 19.031720
_cell_angle_alpha 90.000000
_cell_angle_beta 90.000000
_cell_angle_gamma 90.000000
_cell_volume 7585.407516
_symmetry_space_group_name_H-M "I M M M"
_symmetry_group_IT_number 71
_symmetry_cell_setting 'orthorhombic'
loop_
_space_group_symop_operation_xyz
x,y,z
-x,-y,z
x,-y,-z
-x,y,-z
-x,-y,-z
x,y,-z
-x,y,z
x,-y,z
1/2+x,1/2+y,1/2+z
1/2-x,1/2-y,1/2+z
1/2+x,1/2-y,1/2-z
1/2-x,1/2+y,1/2-z
1/2-x,1/2-y,1/2-z
1/2+x,1/2+y,1/2-z
1/2-x,1/2+y,1/2+z
1/2+x,1/2-y,1/2+z
loop_
_atom_site_type_symbol
_atom_site_label
_atom_site_fract_x
_atom_site_fract_y
_atom_site_fract_z
Si Si1 0.383640 0.155277 0.849422
Si Si2 0.274197 0.905700 0.921891
Si Si3 0.158928 0.408929 0.211154
Si Si4 0.772701 0.403738 0.082453
Si Si5 0.562425 0.594962 0.078752
Si Si6 0.163112 0.832361 0.343694
Si Si7 0.217865 0.907141 0.214748
Si Si8 0.000000 0.403912 0.584498
O O1 0.337128 0.103842 0.891634
O O2 0.380818 0.135485 0.766255
O O3 0.358490 0.243630 0.856324
O O4 0.444253 0.136270 0.882128
O O5 0.230422 0.875112 0.863288
O O6 0.263405 0.000000 0.925407
O O7 0.269529 0.871250 0.000000
O O8 0.139419 0.500000 0.206867
O O9 0.174775 0.380772 0.132766
O O10 0.220476 0.408186 0.248742
O O11 0.763594 0.500000 0.092728
O O12 0.717282 0.357857 0.109970
O O13 0.781584 0.390238 0.000000
O O14 0.500000 0.625605 0.097175
O O15 0.559059 0.500000 0.074427
O O16 0.610651 0.615180 0.132479
O O17 0.576682 0.624853 0.000000
O O18 0.179806 0.852110 0.263645
O O19 0.198662 0.000000 0.214105
O O20 0.000000 0.500000 0.598071
O O21 0.000000 0.393154 0.500000
#
# Coordination Sequence:
#
# PCOD9524026 Si02
#       8
#    16  16  16  16  16  16  16   8
#     4  11  22  32  46  67  90 121 156 193 238 270
#     4   9  17  31  49  67  90 120 155 192 229 273
#     4   8  15  30  48  64  87 118 152 187 223 270
#     4   9  17  29  47  71  96 123 152 180 217 270
#     4   9  18  31  45  59  80 118 160 190 219 259
#     4  11  20  28  42  65  96 125 150 185 224 267
#     4   8  15  28  46  66  89 121 154 183 220 270
#     4  11  24  40  54  66  84 116 162 205 232 262
#
# _framework density 15.819849
#
# number of rings (size 3 to 8) (size 9 to 14) (size 15 to 20)
#    0.000    2.600    0.000    5.200    0.933    9.067 
#    0.000    0.000    0.000    0.000    0.000    0.467 
#    0.000    3.200    0.000    4.933    0.000    0.000 
#
# Total GULP energy -334037.645168 kJ/mol
# GULP energy per Si atom -5567.294086 kJ/mol
# Density = 1.578384 g / cm^3
# Si number density = 15.819849 Si / 1000 Ang^3
#
#
#
# Elastic Constant Matrix: (Units=GPa)
#
#
# Indices 1 2 3 4 5 6 
#
# 1 68.6929 19.1280 53.8203 0.0000 0.0000 0.0000
# 2 19.1280 35.1552 24.0694 0.0000 0.0000 0.0000
# 3 53.8203 24.0694 137.4563 0.0000 0.0000 0.0000
# 4 0.0000 0.0000 0.0000 -61.2033 0.0000 0.0000
# 5 0.0000 0.0000 0.0000 0.0000 14.4343 0.0000
# 6 0.0000 0.0000 0.0000 0.0000 0.0000 34.4656
#
#
#
# Elastic Compliance Matrix: (Units=1/GPa)
#
#
# Indices 1 2 3 4 5 6 
#
# 1 0.022433 -0.007036 -0.007552 0.000000 0.000000 0.000000
# 2 -0.007036 0.034527 -0.003291 0.000000 0.000000 0.000000
# 3 -0.007552 -0.003291 0.010808 0.000000 0.000000 0.000000
# 4 0.000000 0.000000 0.000000 -0.016339 0.000000 0.000000
# 5 0.000000 0.000000 0.000000 0.000000 0.069279 0.000000
# 6 0.000000 0.000000 0.000000 0.000000 0.000000 0.029014
#
#
# Mechanical properties :
#
#
# Convention : Reuss Voigt Hill
#
# Bulk Modulus (GPa) = 31.23889 48.37110 39.80500
# Shear Modulus (GPa) = 25.49067 7.15843 16.32455
#
# Velocity S-wave (km/s) = 4.01847 2.12950 3.21581
# Velocity P-wave (km/s) = 6.42809 6.05714 6.24537
#
# Compressibility (1/GPa) = 0.03201138
#
# Stress axis : x y z
#
# Youngs Moduli (GPa) = 44.57648 28.96310 92.52279
#
# Poissons Ratio (x) = 0.20378 0.69870
# Poissons Ratio (y) = 0.31363 0.30450
# Poissons Ratio (z) = 0.33663 0.09532
#
# Static dielectric constant tensor:
#      x y z
#    x 1.503660 0.000000 0.000000 
#    y 0.000000 2.281880 0.000000 
#    z 0.000000 0.000000 1.582900 
# 
# From -- ./inp_files/55121.got.cif
#   From: 2010.05.17/outbox.cif.g08.bks.cpg/sg71_28_cif.got.tgz:55121.got - 2010.06.03 16:22:01.
