data_PCOD9524112
_publ_section_title
;
Structure prediction by ZEFSAII (Michael W. Deem and Ramdas Pophale) SiO2 
 PCOD9524112
Probable space group: I M M M
;
_chemical_formula_sum "Si O2"
_cell_formula_units_Z 64
_cell_length_a 15.064279
_cell_length_b 7.767948
_cell_length_c 31.878246
_cell_angle_alpha 90.000000
_cell_angle_beta 90.000000
_cell_angle_gamma 90.000000
_cell_volume 3730.345675
_symmetry_space_group_name_H-M "I M M M"
_symmetry_group_IT_number 71
_symmetry_cell_setting 'orthorhombic'
loop_
_space_group_symop_operation_xyz
x,y,z
-x,-y,z
x,-y,-z
-x,y,-z
-x,-y,-z
x,y,-z
-x,y,z
x,-y,z
1/2+x,1/2+y,1/2+z
1/2-x,1/2-y,1/2+z
1/2+x,1/2-y,1/2-z
1/2-x,1/2+y,1/2-z
1/2-x,1/2-y,1/2-z
1/2+x,1/2+y,1/2-z
1/2-x,1/2+y,1/2+z
1/2+x,1/2-y,1/2+z
loop_
_atom_site_type_symbol
_atom_site_label
_atom_site_fract_x
_atom_site_fract_y
_atom_site_fract_z
Si Si1 0.602889 0.289869 0.452600
Si Si2 0.500000 0.295120 0.228321
Si Si3 0.197923 0.703415 0.293197
Si Si4 0.818425 0.210399 0.131987
Si Si5 0.500000 0.709571 0.322956
O O1 0.624105 0.234115 0.500000
O O2 0.500000 0.240531 0.443455
O O3 0.603083 0.500000 0.452449
O O4 0.670126 0.232421 0.416191
O O5 0.500000 0.500000 0.230970
O O6 0.406117 0.245335 0.208479
O O7 0.500000 0.224597 0.275706
O O8 0.207099 0.500000 0.295526
O O9 0.250000 0.750000 0.250000
O O10 0.243820 0.774204 0.335603
O O11 0.911256 0.259640 0.153501
O O12 0.813300 0.000000 0.130810
O O13 0.500000 0.500000 0.321943
#
# Coordination Sequence:
#
# PCOD9524112 Si02
#       5
#    16   8  16  16   8
#     4   8  12  18  32  57  88 119 149 180 217 269
#     4  11  21  35  49  64  90 124 158 201 239 269
#     4  11  21  32  47  68  93 125 160 193 229 276
#     4   9  15  24  39  60  89 123 154 182 223 273
#     4   9  14  23  40  61  86 119 149 174 219 272
#
# _framework density 17.156586000000001
#
# number of rings (size 3 to 8) (size 9 to 14) (size 15 to 20)
#    0.000    2.500    3.750    1.875    0.000    0.000 
#    0.000    0.000    0.000    0.000    0.000    0.875 
#    0.000   11.000    0.000   13.750    0.000   13.250 
#
# Total GULP energy -178247.692016 kJ/mol
# GULP energy per Si atom -5570.240375 kJ/mol
# Density = 1.711754 g / cm^3
# Si number density = 17.156586 Si / 1000 Ang^3
#
#
#
# Elastic Constant Matrix: (Units=GPa)
#
#
# Indices 1 2 3 4 5 6 
#
# 1 114.6840 3.3822 83.3322 0.0000 0.0000 0.0000
# 2 3.3822 26.9458 8.0056 0.0000 0.0000 0.0000
# 3 83.3322 8.0056 171.0238 0.0000 0.0000 0.0000
# 4 0.0000 0.0000 0.0000 9.0253 0.0000 0.0000
# 5 0.0000 0.0000 0.0000 0.0000 75.0763 0.0000
# 6 0.0000 0.0000 0.0000 0.0000 0.0000 15.6288
#
#
#
# Elastic Compliance Matrix: (Units=1/GPa)
#
#
# Indices 1 2 3 4 5 6 
#
# 1 0.013501 0.000263 -0.006591 0.000000 0.000000 0.000000
# 2 0.000263 0.037640 -0.001890 0.000000 0.000000 0.000000
# 3 -0.006591 -0.001890 0.009147 0.000000 0.000000 0.000000
# 4 0.000000 0.000000 0.000000 0.110800 0.000000 0.000000
# 5 0.000000 0.000000 0.000000 0.000000 0.013320 0.000000
# 6 0.000000 0.000000 0.000000 0.000000 0.000000 0.063984
#
#
# Mechanical properties :
#
#
# Convention : Reuss Voigt Hill
#
# Bulk Modulus (GPa) = 22.80357 55.78819 39.29588
# Shear Modulus (GPa) = 17.89266 34.47499 26.18383
#
# Velocity S-wave (km/s) = 3.23290 4.48753 3.91086
# Velocity P-wave (km/s) = 5.22071 7.70962 6.58385
#
# Compressibility (1/GPa) = 0.04385279
#
# Stress axis : x y z
#
# Youngs Moduli (GPa) = 74.06985 26.56745 109.32607
#
# Poissons Ratio (x) = -0.00700 0.72053
# Poissons Ratio (y) = -0.01952 0.20666
# Poissons Ratio (z) = 0.48817 0.05022
#
# Static dielectric constant tensor:
#      x y z
#    x 1.554350 0.000000 0.000000 
#    y 0.000000 1.667130 0.000000 
#    z 0.000000 0.000000 1.632620 
# 
# From -- ./inp_files/31603.got.cif
#   From: 2010.05.17/outbox.cif.g08.bks.cpg/sg71_16_cif.got.tgz:31603.got - 2010.06.03 16:22:01.
