data_PCOD9524369
_publ_section_title
;
Structure prediction by ZEFSAII (Michael W. Deem and Ramdas Pophale) SiO2 
 PCOD9524369
Probable space group: I M M M
;
_chemical_formula_sum "Si O2"
_cell_formula_units_Z 96
_cell_length_a 8.817616
_cell_length_b 25.540857
_cell_length_c 23.953909
_cell_angle_alpha 90.000000
_cell_angle_beta 90.000000
_cell_angle_gamma 90.000000
_cell_volume 5394.647134
_symmetry_space_group_name_H-M "I M M M"
_symmetry_group_IT_number 71
_symmetry_cell_setting 'orthorhombic'
loop_
_space_group_symop_operation_xyz
x,y,z
-x,-y,z
x,-y,-z
-x,y,-z
-x,-y,-z
x,y,-z
-x,y,z
x,-y,z
1/2+x,1/2+y,1/2+z
1/2-x,1/2-y,1/2+z
1/2+x,1/2-y,1/2-z
1/2-x,1/2+y,1/2-z
1/2-x,1/2-y,1/2-z
1/2+x,1/2+y,1/2-z
1/2-x,1/2+y,1/2+z
1/2+x,1/2-y,1/2+z
loop_
_atom_site_type_symbol
_atom_site_label
_atom_site_fract_x
_atom_site_fract_y
_atom_site_fract_z
Si Si1 0.319705 0.347686 0.615432
Si Si2 0.817710 0.561110 0.815664
Si Si3 0.318962 0.938272 0.186535
Si Si4 0.180176 0.695174 0.000000
Si Si5 0.818666 0.688115 0.500000
Si Si6 0.180516 0.745580 0.688638
Si Si7 0.679372 0.652392 0.887812
O O1 0.500000 0.344083 0.610196
O O2 0.270366 0.401598 0.644467
O O3 0.243242 0.339680 0.555375
O O4 0.258370 0.301316 0.654975
O O5 0.780394 0.500000 0.825232
O O6 0.778613 0.573846 0.751111
O O7 0.736470 0.600131 0.857640
O O8 0.000000 0.566451 0.820765
O O9 0.500000 0.929299 0.180518
O O10 0.291470 0.000000 0.177706
O O11 0.233155 0.664818 0.944757
O O12 0.258766 0.752166 0.000000
O O13 0.000000 0.702214 0.000000
O O14 0.000000 0.688784 0.500000
O O15 0.250000 0.750000 0.750000
O O16 0.205511 0.799067 0.654340
O O17 0.000000 0.736174 0.691918
O O18 0.500000 0.649702 0.899192
#
# Coordination Sequence:
#
# PCOD9524369 Si02
#       7
#    16  16  16   8   8  16  16
#     4  12  24  38  59  88 120 155 197 243 296 355
#     4   9  19  37  61  88 119 156 198 243 292 348
#     4   9  19  38  63  89 120 159 199 242 296 352
#     4  12  24  40  63  86 113 154 198 242 294 354
#     4  12  24  42  63  84 115 156 200 246 294 352
#     4  11  23  37  56  84 120 155 192 242 297 353
#     4  11  23  38  58  85 118 155 195 241 293 349
#
# _framework density 17.795418000000002
#
# number of rings (size 3 to 8) (size 9 to 14) (size 15 to 20)
#    0.000    1.333    1.667    6.000    0.000    6.000 
#    0.000    2.500    0.000    5.000    0.000    0.000 
#    0.000    0.000    0.000    0.000    0.000    0.000 
#
# Total GULP energy -268395.168278 kJ/mol
# GULP energy per Si atom -5591.566006 kJ/mol
# Density = 1.775491 g / cm^3
# Si number density = 17.795418 Si / 1000 Ang^3
#
#
#
# Elastic Constant Matrix: (Units=GPa)
#
#
# Indices 1 2 3 4 5 6 
#
# 1 129.3075 66.7040 93.4364 0.0000 0.0000 0.0000
# 2 66.7040 82.4429 67.7530 0.0000 0.0000 0.0000
# 3 93.4364 67.7530 151.7904 0.0000 0.0000 0.0000
# 4 0.0000 0.0000 0.0000 -1.8882 0.0000 0.0000
# 5 0.0000 0.0000 0.0000 0.0000 32.5642 0.0000
# 6 0.0000 0.0000 0.0000 0.0000 0.0000 34.5524
#
#
#
# Elastic Compliance Matrix: (Units=1/GPa)
#
#
# Indices 1 2 3 4 5 6 
#
# 1 0.016717 -0.008005 -0.006717 0.000000 0.000000 0.000000
# 2 -0.008005 0.022990 -0.005334 0.000000 0.000000 0.000000
# 3 -0.006717 -0.005334 0.013104 0.000000 0.000000 0.000000
# 4 0.000000 0.000000 0.000000 -0.529611 0.000000 0.000000
# 5 0.000000 0.000000 0.000000 0.000000 0.030709 0.000000
# 6 0.000000 0.000000 0.000000 0.000000 0.000000 0.028942
#
#
# Mechanical properties :
#
#
# Convention : Reuss Voigt Hill
#
# Bulk Modulus (GPa) = 78.75309 91.03638 84.89474
# Shear Modulus (GPa) = -13.41186 22.08886 4.33850
#
# Velocity S-wave (km/s) = -2.74828 3.52698 1.56310
# Velocity P-wave (km/s) = 5.85492 8.23738 7.14613
#
# Compressibility (1/GPa) = 0.01269791
#
# Stress axis : x y z
#
# Youngs Moduli (GPa) = 59.82078 43.49652 76.31438
#
# Poissons Ratio (x) = 0.34820 0.51260
# Poissons Ratio (y) = 0.47888 0.40708
# Poissons Ratio (z) = 0.40181 0.23202
#
# Static dielectric constant tensor:
#      x y z
#    x 1.594550 0.000000 0.000000 
#    y 0.000000 1.586650 0.000000 
#    z 0.000000 0.000000 1.580780 
# 
# From -- ./inp_files/57792.got.cif
#   From: 2010.05.17/outbox.cif.g08.bks.cpg/sg71_29_cif.got.tgz:57792.got - 2010.06.03 16:22:01.
