data_PCOD9524186
_publ_section_title
;
Structure prediction by ZEFSAII (Michael W. Deem and Ramdas Pophale) SiO2 
 PCOD9524186
Probable space group: I M M M
;
_chemical_formula_sum "Si O2"
_cell_formula_units_Z 56
_cell_length_a 34.962388
_cell_length_b 8.354890
_cell_length_c 10.587049
_cell_angle_alpha 90.000000
_cell_angle_beta 90.000000
_cell_angle_gamma 90.000000
_cell_volume 3092.550126
_symmetry_space_group_name_H-M "I M M M"
_symmetry_group_IT_number 71
_symmetry_cell_setting 'orthorhombic'
loop_
_space_group_symop_operation_xyz
x,y,z
-x,-y,z
x,-y,-z
-x,y,-z
-x,-y,-z
x,y,-z
-x,y,z
x,-y,z
1/2+x,1/2+y,1/2+z
1/2-x,1/2-y,1/2+z
1/2+x,1/2-y,1/2-z
1/2-x,1/2+y,1/2-z
1/2-x,1/2-y,1/2-z
1/2+x,1/2+y,1/2-z
1/2-x,1/2+y,1/2+z
1/2+x,1/2-y,1/2+z
loop_
_atom_site_type_symbol
_atom_site_label
_atom_site_fract_x
_atom_site_fract_y
_atom_site_fract_z
Si Si1 0.583373 0.193911 0.646652
Si Si2 0.500000 0.185805 0.653642
Si Si3 0.796984 0.308527 0.500000
Si Si4 0.337746 0.308502 0.747085
Si Si5 0.208999 0.804589 0.000000
O O1 0.589342 0.244007 0.500000
O O2 0.541384 0.254309 0.689809
O O3 0.618898 0.250995 0.728191
O O4 0.582151 0.000000 0.647079
O O5 0.500000 0.185066 0.500000
O O6 0.500000 0.000000 0.694665
O O7 0.796180 0.500000 0.500000
O O8 0.818595 0.251296 0.624981
O O9 0.752949 0.250742 0.500000
O O10 0.337290 0.500000 0.746481
O O11 0.313294 0.251391 0.625547
O O12 0.208860 0.000000 0.000000
#
# Coordination Sequence:
#
# PCOD9524186 Si02
#       5
#    16   8   8  16   8
#     4   9  16  29  51  79 107 139 177 215 255 305
#     4   7  12  24  45  74 107 136 169 214 256 296
#     4  11  23  39  55  76 103 140 185 224 259 311
#     4  11  21  36  55  79 110 142 172 216 271 319
#     4   9  20  37  57  78 105 136 176 222 266 313
#
# _framework density 18.108034
#
# number of rings (size 3 to 8) (size 9 to 14) (size 15 to 20)
#    0.000    2.429    1.429    3.857    0.000    0.000 
#    0.000    5.000    0.000    3.429    0.000    6.000 
#    0.000    0.000    0.000    0.000    0.000    0.000 
#
# Total GULP energy -156146.382769 kJ/mol
# GULP energy per Si atom -5576.656527 kJ/mol
# Density = 1.806682 g / cm^3
# Si number density = 18.108034 Si / 1000 Ang^3
#
#
#
# Elastic Constant Matrix: (Units=GPa)
#
#
# Indices 1 2 3 4 5 6 
#
# 1 216.4501 25.0166 86.5945 0.0000 0.0000 0.0000
# 2 25.0166 22.9934 16.8195 0.0000 0.0000 0.0000
# 3 86.5945 16.8195 117.6857 0.0000 0.0000 0.0000
# 4 0.0000 0.0000 0.0000 6.1069 0.0000 0.0000
# 5 0.0000 0.0000 0.0000 0.0000 -9.7303 0.0000
# 6 0.0000 0.0000 0.0000 0.0000 0.0000 18.3100
#
#
#
# Elastic Compliance Matrix: (Units=1/GPa)
#
#
# Indices 1 2 3 4 5 6 
#
# 1 0.006898 -0.004235 -0.004470 0.000000 0.000000 0.000000
# 2 -0.004235 0.051168 -0.004197 0.000000 0.000000 0.000000
# 3 -0.004470 -0.004197 0.012386 0.000000 0.000000 0.000000
# 4 0.000000 0.000000 0.000000 0.163750 0.000000 0.000000
# 5 0.000000 0.000000 0.000000 0.000000 -0.102772 0.000000
# 6 0.000000 0.000000 0.000000 0.000000 0.000000 0.054615
#
#
# Mechanical properties :
#
#
# Convention : Reuss Voigt Hill
#
# Bulk Modulus (GPa) = 22.39721 68.22114 45.30918
# Shear Modulus (GPa) = 22.05241 18.18390 20.11815
#
# Velocity S-wave (km/s) = 3.49352 3.17233 3.33679
# Velocity P-wave (km/s) = 5.35429 7.15364 6.31835
#
# Compressibility (1/GPa) = 0.04464842
#
# Stress axis : x y z
#
# Youngs Moduli (GPa) = 144.97251 19.54337 80.73424
#
# Poissons Ratio (x) = 0.08276 0.36091
# Poissons Ratio (y) = 0.61393 0.33883
# Poissons Ratio (z) = 0.64807 0.08202
#
# Static dielectric constant tensor:
#      x y z
#    x 1.649190 0.000000 0.000000 
#    y 0.000000 1.625360 0.000000 
#    z 0.000000 0.000000 1.582820 
# 
# From -- ./inp_files/29411.got.cif
#   From: 2010.05.17/outbox.cif.g08.bks.cpg/sg71_15_cif.got.tgz:29411.got - 2010.06.03 16:22:01.
