data_PCOD9524105
_publ_section_title
;
Structure prediction by ZEFSAII (Michael W. Deem and Ramdas Pophale) SiO2 
 PCOD9524105
Probable space group: I M M M
;
_chemical_formula_sum "Si O2"
_cell_formula_units_Z 96
_cell_length_a 19.615619
_cell_length_b 32.074139
_cell_length_c 9.002202
_cell_angle_alpha 90.000000
_cell_angle_beta 90.000000
_cell_angle_gamma 90.000000
_cell_volume 5663.772211
_symmetry_space_group_name_H-M "I M M M"
_symmetry_group_IT_number 71
_symmetry_cell_setting 'orthorhombic'
loop_
_space_group_symop_operation_xyz
x,y,z
-x,-y,z
x,-y,-z
-x,y,-z
-x,-y,-z
x,y,-z
-x,y,z
x,-y,z
1/2+x,1/2+y,1/2+z
1/2-x,1/2-y,1/2+z
1/2+x,1/2-y,1/2-z
1/2-x,1/2+y,1/2-z
1/2-x,1/2-y,1/2-z
1/2+x,1/2+y,1/2-z
1/2-x,1/2+y,1/2+z
1/2+x,1/2-y,1/2+z
loop_
_atom_site_type_symbol
_atom_site_label
_atom_site_fract_x
_atom_site_fract_y
_atom_site_fract_z
Si Si1 0.832270 0.789661 0.671276
Si Si2 0.669983 0.879917 0.177166
Si Si3 0.077626 0.952917 0.319233
Si Si4 0.180681 0.881212 0.319384
Si Si5 0.418844 0.047817 0.677274
Si Si6 0.666299 0.793997 0.329309
O O1 0.852041 0.783393 0.500000
O O2 0.851548 0.836219 0.720373
O O3 0.749274 0.791424 0.675826
O O4 0.856991 0.750458 0.765626
O O5 0.745472 0.885563 0.245964
O O6 0.622712 0.917105 0.236585
O O7 0.645733 0.834498 0.235580
O O8 0.672958 0.879801 0.000000
O O9 0.077630 0.952661 0.500000
O O10 0.131529 0.918502 0.272631
O O11 0.000000 0.943901 0.272390
O O12 0.095210 0.000000 0.272457
O O13 0.188843 0.881239 0.500000
O O14 0.407012 0.052421 0.500000
O O15 0.500000 0.052223 0.702384
O O16 0.399916 0.000000 0.717605
O O17 0.646275 0.799614 0.500000
#
# Coordination Sequence:
#
# PCOD9524105 Si02
#       6
#    16  16  16  16  16  16
#     4   8  14  24  39  62  92 124 157 195 240 285
#     4  11  21  31  47  73 103 129 156 195 239 280
#     4   8  14  26  46  71  95 121 158 201 240 279
#     4   9  17  29  46  70  99 129 162 200 243 289
#     4   9  19  37  58  75  93 123 161 196 234 285
#     4   9  16  27  44  65  91 124 160 195 235 284
#
# _framework density 16.949833999999999
#
# number of rings (size 3 to 8) (size 9 to 14) (size 15 to 20)
#    0.000    3.000    0.000    4.000    0.000    5.333 
#    0.000    2.500    0.000    1.500    0.000    3.500 
#    0.000    0.000    0.000    0.000    0.000    0.000 
#
# Total GULP energy -267348.725508 kJ/mol
# GULP energy per Si atom -5569.765115 kJ/mol
# Density = 1.691126 g / cm^3
# Si number density = 16.949834 Si / 1000 Ang^3
#
#
#
# Elastic Constant Matrix: (Units=GPa)
#
#
# Indices 1 2 3 4 5 6 
#
# 1 38.6013 67.2006 33.2432 0.0001 0.0000 0.0001
# 2 67.2006 176.1455 73.1029 -0.0004 0.0001 0.0001
# 3 33.2432 73.1029 69.6417 -0.0074 0.0009 -0.0001
# 4 0.0001 -0.0004 -0.0074 27.2121 0.0004 -0.0001
# 5 0.0000 0.0001 0.0009 0.0004 3.3792 0.0011
# 6 0.0001 0.0001 -0.0001 -0.0001 0.0011 -10.8679
#
#
#
# Elastic Compliance Matrix: (Units=1/GPa)
#
#
# Indices 1 2 3 4 5 6 
#
# 1 0.081736 -0.026562 -0.011134 -0.000004 0.000003 0.000001
# 2 -0.026562 0.018691 -0.006941 -0.000001 0.000002 0.000000
# 3 -0.011134 -0.006941 0.026960 0.000007 -0.000007 0.000000
# 4 -0.000004 -0.000001 0.000007 0.036748 -0.000004 0.000000
# 5 0.000003 0.000002 -0.000007 -0.000004 0.295931 0.000030
# 6 0.000001 0.000000 0.000000 0.000000 0.000030 -0.092014
#
#
# Mechanical properties :
#
#
# Convention : Reuss Voigt Hill
#
# Bulk Modulus (GPa) = 26.23778 70.16464 48.20121
# Shear Modulus (GPa) = 10.63759 11.33413 10.98586
#
# Velocity S-wave (km/s) = 2.50790 2.58870 2.54862
# Velocity P-wave (km/s) = 4.88870 7.10074 6.09589
#
# Compressibility (1/GPa) = 0.03811298
#
# Stress axis : x y z
#
# Youngs Moduli (GPa) = 12.23450 53.50086 37.09174
#
# Poissons Ratio (x) = 1.42108 0.41299
# Poissons Ratio (y) = 0.32497 0.25746
# Poissons Ratio (z) = 0.13622 0.37135
#
# Static dielectric constant tensor:
#      x y z
#    x 1.549960 0.000000 0.000000 
#    y 0.000000 1.593560 0.000000 
#    z 0.000000 0.000000 1.571420 
# 
# From -- ./inp_files/13155.got.cif
#   From: 2010.05.17/outbox.cif.g08.bks.cpg/sg71_7_cif.got.tgz:13155.got - 2010.06.03 16:22:01.
