data_PCOD9524534
_publ_section_title
;
Structure prediction by ZEFSAII (Michael W. Deem and Ramdas Pophale) SiO2 
 PCOD9524534
Probable space group: I M M M
;
_chemical_formula_sum "Si O2"
_cell_formula_units_Z 104
_cell_length_a 29.603539
_cell_length_b 25.171395
_cell_length_c 7.338065
_cell_angle_alpha 90.000000
_cell_angle_beta 90.000000
_cell_angle_gamma 90.000000
_cell_volume 5468.049933
_symmetry_space_group_name_H-M "I M M M"
_symmetry_group_IT_number 71
_symmetry_cell_setting 'orthorhombic'
loop_
_space_group_symop_operation_xyz
x,y,z
-x,-y,z
x,-y,-z
-x,y,-z
-x,-y,-z
x,y,-z
-x,y,z
x,-y,z
1/2+x,1/2+y,1/2+z
1/2-x,1/2-y,1/2+z
1/2+x,1/2-y,1/2-z
1/2-x,1/2+y,1/2-z
1/2-x,1/2-y,1/2-z
1/2+x,1/2+y,1/2-z
1/2-x,1/2+y,1/2+z
1/2+x,1/2-y,1/2+z
loop_
_atom_site_type_symbol
_atom_site_label
_atom_site_fract_x
_atom_site_fract_y
_atom_site_fract_z
Si Si1 0.276017 0.561387 0.218601
Si Si2 0.552019 0.355145 0.722446
Si Si3 0.000000 0.561218 0.222064
Si Si4 0.124412 0.939526 0.214422
Si Si5 0.089394 0.374656 0.222577
Si Si6 0.947762 0.735611 0.778561
Si Si7 0.677299 0.937968 0.277886
O O1 0.277193 0.500000 0.281424
O O2 0.324846 0.583710 0.269135
O O3 0.227118 0.582242 0.279342
O O4 0.274980 0.561199 0.000000
O O5 0.552734 0.355203 0.500000
O O6 0.500000 0.365181 0.775536
O O7 0.586750 0.399654 0.787908
O O8 0.564596 0.295158 0.779608
O O9 0.954691 0.591791 0.278365
O O10 0.000000 0.500000 0.280023
O O11 0.000000 0.561447 0.000000
O O12 0.123515 0.000000 0.289823
O O13 0.115382 0.944282 0.000000
O O14 0.082431 0.313813 0.280942
O O15 0.135311 0.402808 0.283425
O O16 0.089797 0.375072 0.000000
O O17 0.000000 0.725870 0.726052
O O18 0.947163 0.735646 0.000000
O O19 0.676694 0.937802 0.500000
O O20 0.672357 0.000000 0.224700
#
# Coordination Sequence:
#
# PCOD9524534 Si02
#       7
#    16  16   8  16  16  16  16
#     4   8  14  25  39  53  72 100 128 150 177 217
#     4   8  14  23  35  51  71  93 115 143 180 222
#     4   9  14  16  20  36  64  94 120 150 188 219
#     4   9  16  25  39  59  77  93 118 152 188 222
#     4   9  13  17  26  41  63  92 124 155 181 212
#     4   8  12  19  29  42  63  92 123 148 175 216
#     4   8  13  20  30  45  65  92 127 158 180 210
#
# _framework density 19.019579
#
# number of rings (size 3 to 8) (size 9 to 14) (size 15 to 20)
#    0.000    3.615    0.769    2.308    0.000    2.154 
#    0.000    1.538    0.000    1.385    0.000    2.154 
#    0.000    0.000    0.000    1.154    0.000   15.385 
#
# Total GULP energy -289692.205918 kJ/mol
# GULP energy per Si atom -5571.003960 kJ/mol
# Density = 1.897629 g / cm^3
# Si number density = 19.019579 Si / 1000 Ang^3
#
#
#
# Elastic Constant Matrix: (Units=GPa)
#
#
# Indices 1 2 3 4 5 6 
#
# 1 181.1885 112.8689 3.5413 0.0000 0.0000 0.0000
# 2 112.8689 126.9506 6.0372 0.0000 0.0000 0.0000
# 3 3.5413 6.0372 70.9024 0.0000 0.0000 0.0000
# 4 0.0000 0.0000 0.0000 -11.0190 0.0000 0.0000
# 5 0.0000 0.0000 0.0000 0.0000 3.8337 0.0000
# 6 0.0000 0.0000 0.0000 0.0000 0.0000 11.4285
#
#
#
# Elastic Compliance Matrix: (Units=1/GPa)
#
#
# Indices 1 2 3 4 5 6 
#
# 1 0.012377 -0.011020 0.000320 0.000000 0.000000 0.000000
# 2 -0.011020 0.017720 -0.000958 0.000000 0.000000 0.000000
# 3 0.000320 -0.000958 0.014170 0.000000 0.000000 0.000000
# 4 0.000000 0.000000 0.000000 -0.090752 0.000000 0.000000
# 5 0.000000 0.000000 0.000000 0.000000 0.260844 0.000000
# 6 0.000000 0.000000 0.000000 0.000000 0.000000 0.087500
#
#
# Mechanical properties :
#
#
# Convention : Reuss Voigt Hill
#
# Bulk Modulus (GPa) = 47.73066 69.32626 58.52846
# Shear Modulus (GPa) = 15.05302 17.95491 16.50396
#
# Velocity S-wave (km/s) = 2.81632 3.07583 2.94893
# Velocity P-wave (km/s) = 5.97709 7.01023 6.51417
#
# Compressibility (1/GPa) = 0.02095089
#
# Stress axis : x y z
#
# Youngs Moduli (GPa) = 80.79200 56.43315 70.57404
#
# Poissons Ratio (x) = 0.62188 -0.02259
# Poissons Ratio (y) = 0.89031 0.06764
# Poissons Ratio (z) = -0.02586 0.05409
#
# Static dielectric constant tensor:
#      x y z
#    x 1.660430 0.000000 0.000000 
#    y 0.000000 1.642230 0.000000 
#    z 0.000000 0.000000 1.789090 
# 
# From -- ./inp_files/15555.got.cif
#   From: 2010.05.17/outbox.cif.g08.bks.cpg/sg71_8_cif.got.tgz:15555.got - 2010.06.03 16:22:01.
