data_PCOD9524932
_publ_section_title
;
Structure prediction by ZEFSAII (Michael W. Deem and Ramdas Pophale) SiO2 
 PCOD9524932
Probable space group: I B A M
;
_chemical_formula_sum "Si O2"
_cell_formula_units_Z 80
_cell_length_a 14.268699
_cell_length_b 29.111459
_cell_length_c 8.247625
_cell_angle_alpha 90.000000
_cell_angle_beta 90.000000
_cell_angle_gamma 90.000000
_cell_volume 3425.920295
_symmetry_space_group_name_H-M "I B A M"
_symmetry_group_IT_number 72
_symmetry_cell_setting 'orthorhombic'
loop_
_space_group_symop_operation_xyz
x,y,z
-x,-y,z
x,-y,1/2-z
-x,y,1/2-z
-x,-y,-z
x,y,-z
-x,y,1/2+z
x,-y,1/2+z
1/2+x,1/2+y,1/2+z
1/2-x,1/2-y,1/2+z
1/2+x,1/2-y,-z
1/2-x,1/2+y,-z
1/2-x,1/2-y,1/2-z
1/2+x,1/2+y,1/2-z
1/2-x,1/2+y,z
1/2+x,1/2-y,z
loop_
_atom_site_type_symbol
_atom_site_label
_atom_site_fract_x
_atom_site_fract_y
_atom_site_fract_z
Si Si1 0.836749 0.149124 0.194952
Si Si2 0.189738 0.048729 0.694853
Si Si3 0.599261 0.063596 0.182964
Si Si4 0.358563 0.255446 0.306251
Si Si5 0.627409 0.841466 0.184737
O O1 0.863300 0.096443 0.237483
O O2 0.892618 0.194889 0.243686
O O3 0.739454 0.155921 0.290526
O O4 0.821013 0.150947 0.000000
O O5 0.194391 0.048489 0.500000
O O6 0.298628 0.051831 0.758797
O O7 0.149644 0.000000 0.750000
O O8 0.500000 0.047614 0.250000
O O9 0.594279 0.118940 0.194765
O O10 0.604268 0.047508 0.000000
O O11 0.364062 0.253226 0.500000
O O12 0.250000 0.250000 0.250000
O O13 0.402204 0.209924 0.228042
O O14 0.603585 0.853100 0.000000
#
# Coordination Sequence:
#
# PCOD9524932 Si02
#       5
#    16  16  16  16  16
#     4   9  16  27  39  55  76  97 121 153 189 230
#     4   9  19  31  43  56  74  98 129 167 204 238
#     4  10  20  33  44  57  74  97 129 167 204 239
#     4  10  16  23  37  57  77  97 118 146 182 227
#     4  10  17  26  40  57  75  97 120 150 189 231
#
# _framework density 23.351389999999999
#
# number of rings (size 3 to 8) (size 9 to 14) (size 15 to 20)
#    0.000    2.400    0.000    8.400    0.000    5.200 
#    0.000    2.000    0.000    0.000    0.000    0.000 
#    0.000    0.000    0.000    0.000    0.000    1.000 
#
# Total GULP energy -222981.067122 kJ/mol
# GULP energy per Si atom -5574.526678 kJ/mol
# Density = 2.329824 g / cm^3
# Si number density = 23.351390 Si / 1000 Ang^3
#
#
#
# Elastic Constant Matrix: (Units=GPa)
#
#
# Indices 1 2 3 4 5 6 
#
# 1 37.1984 -3.8725 -8.4350 0.0003 0.0000 0.0001
# 2 -3.8725 204.2916 2.6453 0.0015 0.0009 0.0005
# 3 -8.4350 2.6453 75.4942 -0.0182 -0.0008 0.0009
# 4 0.0003 0.0015 -0.0182 -103.8872 -0.0011 -0.0011
# 5 0.0000 0.0009 -0.0008 -0.0011 2.7066 -0.0003
# 6 0.0001 0.0005 0.0009 -0.0011 -0.0003 -27.2259
#
#
#
# Elastic Compliance Matrix: (Units=1/GPa)
#
#
# Indices 1 2 3 4 5 6 
#
# 1 0.027629 0.000484 0.003070 0.000000 0.000001 0.000000
# 2 0.000484 0.004906 -0.000118 0.000000 -0.000002 0.000000
# 3 0.003070 -0.000118 0.013593 -0.000002 0.000004 0.000000
# 4 0.000000 0.000000 -0.000002 -0.009626 -0.000004 0.000000
# 5 0.000001 -0.000002 0.000004 -0.000004 0.369470 -0.000005
# 6 0.000000 0.000000 0.000000 0.000000 -0.000005 -0.036730
#
#
# Mechanical properties :
#
#
# Convention : Reuss Voigt Hill
#
# Bulk Modulus (GPa) = 18.86765 33.07331 25.97048
# Shear Modulus (GPa) = 13.15662 -3.90488 4.62587
#
# Velocity S-wave (km/s) = 2.37622 -1.29455 1.40900
# Velocity P-wave (km/s) = 3.95297 3.45826 3.71386
#
# Compressibility (1/GPa) = 0.05300077
#
# Stress axis : x y z
#
# Youngs Moduli (GPa) = 36.19332 203.84604 73.56617
#
# Poissons Ratio (x) = -0.09866 -0.22585
# Poissons Ratio (y) = -0.01752 0.00867
# Poissons Ratio (z) = -0.11112 0.02402
#
# Static dielectric constant tensor:
#      x y z
#    x 1.608190 0.000000 -0.000010 
#    y 0.000000 1.961340 0.000000 
#    z -0.000010 0.000000 1.813120 
# 
# From -- ./inp_files/4993.got.cif
#   From: 2010.05.17/outbox.cif.g08.bks.cpg/sg72_3_cif.got.tgz:4993.got - 2010.06.03 17:03:01.
