data_PCOD9524696
_publ_section_title
;
Structure prediction by ZEFSAII (Michael W. Deem and Ramdas Pophale) SiO2 
 PCOD9524696
Probable space group: I M M M
;
_chemical_formula_sum "Si O2"
_cell_formula_units_Z 56
_cell_length_a 21.000000
_cell_length_b 18.000000
_cell_length_c 18.000000
_cell_angle_alpha 90.000000
_cell_angle_beta 90.000000
_cell_angle_gamma 90.000000
_cell_volume 6804.000000
_symmetry_space_group_name_H-M "I M M M"
_symmetry_group_IT_number 71
_symmetry_cell_setting 'orthorhombic'
loop_
_space_group_symop_operation_xyz
x,y,z
-x,-y,z
x,-y,-z
-x,y,-z
-x,-y,-z
x,y,-z
-x,y,z
x,-y,z
1/2+x,1/2+y,1/2+z
1/2-x,1/2-y,1/2+z
1/2+x,1/2-y,1/2-z
1/2-x,1/2+y,1/2-z
1/2-x,1/2-y,1/2-z
1/2+x,1/2+y,1/2-z
1/2-x,1/2+y,1/2+z
1/2+x,1/2-y,1/2+z
loop_
_atom_site_type_symbol
_atom_site_label
_atom_site_fract_x
_atom_site_fract_y
_atom_site_fract_z
Si Si1 0.925403 0.215547 0.589114
Si Si2 0.870481 0.689961 0.913197
Si Si3 0.250000 0.416465 0.916465
Si Si4 0.925403 0.410886 0.784453
Si Si5 0.818575 0.186497 0.813503
Si Si6 0.370481 0.413197 0.810039
Si Si7 0.169346 0.686759 0.686759
O O1 0.915239 0.203405 0.500000
O O2 0.914403 0.141739 0.640214
O O3 0.873772 0.274939 0.621934
O O4 0.000000 0.238599 0.598269
O O5 0.803278 0.645661 0.909066
O O6 0.914403 0.640214 0.858260
O O7 0.855536 0.772220 0.880872
O O8 0.890379 0.690870 0.000000
O O9 0.222066 0.500000 0.910635
O O10 0.303278 0.409066 0.854339
O O11 0.277935 0.410634 0.000000
O O12 0.915238 0.500000 0.796594
O O13 0.873772 0.378066 0.725061
O O14 0.000000 0.401731 0.761401
O O15 0.855536 0.119128 0.772221
O O16 0.821824 0.250175 0.749826
O O17 0.743887 0.168112 0.831888
O O18 0.390378 0.500000 0.809130
#
# Coordination Sequence:
#
# PCOD9524696 Si02
#       7
#    16  16  16  16  16  16  16
#     4  10  20  32  48  72 101 134 169 200 233 279
#     4  10  19  31  47  68  96 126 158 201 249 293
#     4   9  16  25  40  64  92 121 152 189 238 290
#     4  10  20  32  48  72 101 134 169 200 233 279
#     4   9  18  30  48  71  91 120 164 207 248 296
#     4  10  19  31  47  68  96 126 158 201 249 293
#     4   9  17  32  50  69  97 129 162 203 245 283
#
# _framework density 8.2304530000000007
#
# number of rings (size 3 to 8) (size 9 to 14) (size 15 to 20)
#    0.000    2.429    0.000    4.714    0.000    5.714 
#    0.000    1.429    0.000    0.857    0.000    4.000 
#    0.000    0.000    0.000   10.429    0.000    1.857 
#
# Total GULP energy -311866.003510 kJ/mol
# GULP energy per Si atom -5569.035777 kJ/mol
# Density = 0.821172 g / cm^3
# Si number density = 8.230453 Si / 1000 Ang^3
#
#
#
# Elastic Constant Matrix: (Units=GPa)
#
#
# Indices 1 2 3 4 5 6 
#
# 1 77.4966 26.7013 26.7012 0.0000 0.0000 0.0000
# 2 26.7013 77.4304 43.3605 0.0000 0.0000 0.0000
# 3 26.7012 43.3605 77.4301 0.0000 0.0000 0.0000
# 4 0.0000 0.0000 0.0000 27.6023 0.0000 0.0000
# 5 0.0000 0.0000 0.0000 0.0000 25.4621 0.0000
# 6 0.0000 0.0000 0.0000 0.0000 0.0000 25.4621
#
#
#
# Elastic Compliance Matrix: (Units=1/GPa)
#
#
# Indices 1 2 3 4 5 6 
#
# 1 0.015223 -0.003365 -0.003365 0.000000 0.000000 0.000000
# 2 -0.003365 0.019559 -0.009793 0.000000 0.000000 0.000000
# 3 -0.003365 -0.009793 0.019559 0.000000 0.000000 0.000000
# 4 0.000000 0.000000 0.000000 0.036229 0.000000 0.000000
# 5 0.000000 0.000000 0.000000 0.000000 0.039274 0.000000
# 6 0.000000 0.000000 0.000000 0.000000 0.000000 0.039274
#
#
# Mechanical properties :
#
#
# Convention : Reuss Voigt Hill
#
# Bulk Modulus (GPa) = 46.95829 47.32037 47.13933
# Shear Modulus (GPa) = 23.89358 24.74491 24.31925
#
# Velocity S-wave (km/s) = 3.81404 3.88139 3.84786
# Velocity P-wave (km/s) = 6.92711 6.99260 6.95993
#
# Compressibility (1/GPa) = 0.02129549
#
# Stress axis : x y z
#
# Youngs Moduli (GPa) = 65.69176 51.12746 51.12724
#
# Poissons Ratio (x) = 0.17205 0.17204
# Poissons Ratio (y) = 0.22105 0.50066
# Poissons Ratio (z) = 0.22105 0.50067
#
# Static dielectric constant tensor:
#      x y z
#    x 1.566160 0.000000 0.000000 
#    y 0.000000 1.576630 0.000000 
#    z 0.000000 0.000000 1.576630 
# 
# From -- ./inp_files/47502.got.cif
#   From: 2010.05.17/outbox.ucp.g08.bks.cvg/sg71_24_cif.got.tgz:47502.got - 2010.06.11 16:29:00.
