data_PCOD9524578
_publ_section_title
;
Structure prediction by ZEFSAII (Michael W. Deem and Ramdas Pophale) SiO2 
 PCOD9524578
Probable space group: I M M M
;
_chemical_formula_sum "Si O2"
_cell_formula_units_Z 88
_cell_length_a 30.531003
_cell_length_b 18.182403
_cell_length_c 7.363827
_cell_angle_alpha 90.000000
_cell_angle_beta 90.000000
_cell_angle_gamma 90.000000
_cell_volume 4087.859195
_symmetry_space_group_name_H-M "I M M M"
_symmetry_group_IT_number 71
_symmetry_cell_setting 'orthorhombic'
loop_
_space_group_symop_operation_xyz
x,y,z
-x,-y,z
x,-y,-z
-x,y,-z
-x,-y,-z
x,y,-z
-x,y,z
x,-y,z
1/2+x,1/2+y,1/2+z
1/2-x,1/2-y,1/2+z
1/2+x,1/2-y,1/2-z
1/2-x,1/2+y,1/2-z
1/2-x,1/2-y,1/2-z
1/2+x,1/2+y,1/2-z
1/2-x,1/2+y,1/2+z
1/2+x,1/2-y,1/2+z
loop_
_atom_site_type_symbol
_atom_site_label
_atom_site_fract_x
_atom_site_fract_y
_atom_site_fract_z
Si Si1 0.614283 0.585094 0.221354
Si Si2 0.805920 0.584450 0.714946
Si Si3 0.103401 0.644832 0.721651
Si Si4 0.210049 0.915192 0.717352
Si Si5 0.949785 0.500000 0.721101
Si Si6 0.050352 0.211701 0.722000
O O1 0.609713 0.500000 0.277273
O O2 0.662700 0.613743 0.277942
O O3 0.575574 0.638202 0.280355
O O4 0.613837 0.584990 0.000000
O O5 0.812590 0.577697 0.500000
O O6 0.806985 0.500000 0.788204
O O7 0.846639 0.632177 0.782930
O O8 0.757381 0.617489 0.738392
O O9 0.103410 0.647292 0.500000
O O10 0.075934 0.572994 0.776351
O O11 0.078770 0.718169 0.780910
O O12 0.208228 0.916950 0.500000
O O13 0.211964 0.000000 0.783005
O O14 0.950050 0.500000 0.500000
O O15 0.000000 0.500000 0.781000
O O16 0.049862 0.212084 0.500000
O O17 0.000000 0.215602 0.780587
#
# Coordination Sequence:
#
# PCOD9524578 Si02
#       6
#    16  16  16  16   8  16
#     4   8  14  25  39  54  74 102 134 167 204 246
#     4   9  15  24  39  59  84 112 139 168 204 242
#     4   9  15  23  33  51  79 107 133 163 202 242
#     4   8  14  25  41  59  80 108 140 170 203 244
#     4   9  14  20  32  48  71 105 137 161 192 241
#     4   9  16  24  35  53  78 106 133 164 205 249
#
# _framework density 21.527162000000001
#
# number of rings (size 3 to 8) (size 9 to 14) (size 15 to 20)
#    0.000    3.364    0.909    1.636    0.000    2.545 
#    0.000    2.727    0.000    0.000    0.000    0.000 
#    0.000    5.818    0.000    7.091    0.000    7.273 
#
# Total GULP energy -245329.632692 kJ/mol
# GULP energy per Si atom -5575.673470 kJ/mol
# Density = 2.147816 g / cm^3
# Si number density = 21.527162 Si / 1000 Ang^3
#
#
#
# Elastic Constant Matrix: (Units=GPa)
#
#
# Indices 1 2 3 4 5 6 
#
# 1 191.6833 92.4221 4.6783 0.0000 0.0000 0.0000
# 2 92.4221 109.0880 2.3115 0.0000 0.0000 0.0000
# 3 4.6783 2.3115 75.5206 0.0000 0.0000 0.0000
# 4 0.0000 0.0000 0.0000 -21.2907 0.0000 0.0000
# 5 0.0000 0.0000 0.0000 0.0000 -5.7756 0.0000
# 6 0.0000 0.0000 0.0000 0.0000 0.0000 44.0224
#
#
#
# Elastic Compliance Matrix: (Units=1/GPa)
#
#
# Indices 1 2 3 4 5 6 
#
# 1 0.008827 -0.007472 -0.000318 0.000000 0.000000 0.000000
# 2 -0.007472 0.015498 -0.000011 0.000000 0.000000 0.000000
# 3 -0.000318 -0.000011 0.013261 0.000000 0.000000 0.000000
# 4 0.000000 0.000000 0.000000 -0.046969 0.000000 0.000000
# 5 0.000000 0.000000 0.000000 0.000000 -0.173143 0.000000
# 6 0.000000 0.000000 0.000000 0.000000 0.000000 0.022716
#
#
# Mechanical properties :
#
#
# Convention : Reuss Voigt Hill
#
# Bulk Modulus (GPa) = 45.48922 63.90174 54.69548
# Shear Modulus (GPa) = -36.52876 21.84988 -7.33944
#
# Velocity S-wave (km/s) = -4.12378 3.18935 -1.84846
# Velocity P-wave (km/s) = 1.22355 6.58113 4.57243
#
# Compressibility (1/GPa) = 0.02198323
#
# Stress axis : x y z
#
# Youngs Moduli (GPa) = 113.28285 64.52566 75.40636
#
# Poissons Ratio (x) = 0.48214 0.02399
# Poissons Ratio (y) = 0.84646 0.00086
# Poissons Ratio (z) = 0.03604 0.00074
#
# Static dielectric constant tensor:
#      x y z
#    x 1.788700 0.000000 0.000000 
#    y 0.000000 1.740010 0.000000 
#    z 0.000000 0.000000 1.887630 
# 
# From -- ./inp_files/16642.got.cif
#   From: 2010.05.17/outbox.cif.g08.bks.cpg/sg71_9_cif.got.tgz:16642.got - 2010.06.03 16:22:01.
