data_PCOD9524107
_publ_section_title
;
Structure prediction by ZEFSAII (Michael W. Deem and Ramdas Pophale) SiO2 
 PCOD9524107
Probable space group: I M M M
;
_chemical_formula_sum "Si O2"
_cell_formula_units_Z 96
_cell_length_a 13.707842
_cell_length_b 17.606079
_cell_length_c 24.150949
_cell_angle_alpha 90.000000
_cell_angle_beta 90.000000
_cell_angle_gamma 90.000000
_cell_volume 5828.622615
_symmetry_space_group_name_H-M "I M M M"
_symmetry_group_IT_number 71
_symmetry_cell_setting 'orthorhombic'
loop_
_space_group_symop_operation_xyz
x,y,z
-x,-y,z
x,-y,-z
-x,y,-z
-x,-y,-z
x,y,-z
-x,y,z
x,-y,z
1/2+x,1/2+y,1/2+z
1/2-x,1/2-y,1/2+z
1/2+x,1/2-y,1/2-z
1/2-x,1/2+y,1/2-z
1/2-x,1/2-y,1/2-z
1/2+x,1/2+y,1/2-z
1/2-x,1/2+y,1/2+z
1/2+x,1/2-y,1/2+z
loop_
_atom_site_type_symbol
_atom_site_label
_atom_site_fract_x
_atom_site_fract_y
_atom_site_fract_z
Si Si1 0.113643 0.677090 0.335971
Si Si2 0.801361 0.087722 0.164933
Si Si3 0.883386 0.823601 0.268675
Si Si4 0.882901 0.911204 0.619366
Si Si5 0.303010 0.270785 0.936606
Si Si6 0.113066 0.823135 0.064673
O O1 0.186358 0.606465 0.336967
O O2 0.142457 0.738217 0.288133
O O3 0.133035 0.722784 0.393090
O O4 0.000000 0.658694 0.330356
O O5 0.841928 0.143285 0.212341
O O6 0.850849 0.112680 0.107188
O O7 0.820986 0.000000 0.177209
O O8 0.857350 0.879350 0.319645
O O9 0.000000 0.824364 0.264238
O O10 0.825375 0.858031 0.576891
O O11 0.000000 0.900264 0.611945
O O12 0.862059 0.000000 0.614442
O O13 0.190662 0.245339 0.927497
O O14 0.327828 0.253365 0.000000
O O15 0.000000 0.803507 0.075712
O O16 0.120096 0.846343 0.000000
#
# Coordination Sequence:
#
# PCOD9524107 Si02
#       6
#    16  16  16  16  16  16
#     4   9  19  34  49  67  94 126 156 188 225 266
#     4  11  21  31  49  74  95 119 152 190 233 279
#     4   9  17  31  50  69  91 121 156 189 223 269
#     4   9  17  28  44  70 102 128 149 185 236 277
#     4   9  17  30  49  70  91 121 160 192 223 272
#     4   9  19  35  51  67  90 120 154 194 237 277
#
# _framework density 16.470443
#
# number of rings (size 3 to 8) (size 9 to 14) (size 15 to 20)
#    0.000    2.667    0.000    3.000    0.000    4.333 
#    0.000    1.667    0.000    0.500    0.000    7.000 
#    0.000    0.000    0.000    0.000    0.000    0.000 
#
# Total GULP energy -267404.012678 kJ/mol
# GULP energy per Si atom -5570.916931 kJ/mol
# Density = 1.643296 g / cm^3
# Si number density = 16.470443 Si / 1000 Ang^3
#
#
#
# Elastic Constant Matrix: (Units=GPa)
#
#
# Indices 1 2 3 4 5 6 
#
# 1 44.2712 8.5015 21.5366 0.0000 0.0000 0.0000
# 2 8.5015 29.1255 9.7132 0.0000 0.0000 0.0000
# 3 21.5366 9.7132 61.5703 0.0000 0.0000 0.0000
# 4 0.0000 0.0000 0.0000 12.9173 0.0000 0.0000
# 5 0.0000 0.0000 0.0000 0.0000 22.5372 0.0000
# 6 0.0000 0.0000 0.0000 0.0000 0.0000 14.5828
#
#
#
# Elastic Compliance Matrix: (Units=1/GPa)
#
#
# Indices 1 2 3 4 5 6 
#
# 1 0.027938 -0.005168 -0.008957 0.000000 0.000000 0.000000
# 2 -0.005168 0.037197 -0.004060 0.000000 0.000000 0.000000
# 3 -0.008957 -0.004060 0.020015 0.000000 0.000000 0.000000
# 4 0.000000 0.000000 0.000000 0.077416 0.000000 0.000000
# 5 0.000000 0.000000 0.000000 0.000000 0.044371 0.000000
# 6 0.000000 0.000000 0.000000 0.000000 0.000000 0.068574
#
#
# Mechanical properties :
#
#
# Convention : Reuss Voigt Hill
#
# Bulk Modulus (GPa) = 20.50051 23.82996 22.16524
# Shear Modulus (GPa) = 15.23737 16.35516 15.79627
#
# Velocity S-wave (km/s) = 3.04490 3.15461 3.10024
# Velocity P-wave (km/s) = 4.98355 5.26958 5.12856
#
# Compressibility (1/GPa) = 0.04877926
#
# Stress axis : x y z
#
# Youngs Moduli (GPa) = 35.79381 26.88414 49.96188
#
# Poissons Ratio (x) = 0.13893 0.44751
# Poissons Ratio (y) = 0.18497 0.20287
# Poissons Ratio (z) = 0.32061 0.10916
#
# Static dielectric constant tensor:
#      x y z
#    x 1.559580 0.000000 0.000000 
#    y 0.000000 1.535040 0.000000 
#    z 0.000000 0.000000 1.567330 
# 
# From -- ./inp_files/24194.got.cif
#   From: 2010.05.17/outbox.cif.g08.bks.cpg/sg71_13_cif.got.tgz:24194.got - 2010.06.03 16:22:01.
