data_PCOD9524150
_publ_section_title
;
Structure prediction by ZEFSAII (Michael W. Deem and Ramdas Pophale) SiO2 
 PCOD9524150
Probable space group: I M M M
;
_chemical_formula_sum "Si O2"
_cell_formula_units_Z 104
_cell_length_a 22.188509
_cell_length_b 28.117896
_cell_length_c 8.796151
_cell_angle_alpha 90.000000
_cell_angle_beta 90.000000
_cell_angle_gamma 90.000000
_cell_volume 5487.867490
_symmetry_space_group_name_H-M "I M M M"
_symmetry_group_IT_number 71
_symmetry_cell_setting 'orthorhombic'
loop_
_space_group_symop_operation_xyz
x,y,z
-x,-y,z
x,-y,-z
-x,y,-z
-x,-y,-z
x,y,-z
-x,y,z
x,-y,z
1/2+x,1/2+y,1/2+z
1/2-x,1/2-y,1/2+z
1/2+x,1/2-y,1/2-z
1/2-x,1/2+y,1/2-z
1/2-x,1/2-y,1/2-z
1/2+x,1/2+y,1/2-z
1/2-x,1/2+y,1/2+z
1/2+x,1/2-y,1/2+z
loop_
_atom_site_type_symbol
_atom_site_label
_atom_site_fract_x
_atom_site_fract_y
_atom_site_fract_z
Si Si1 0.570097 0.309360 0.818266
Si Si2 0.741168 0.800139 0.672309
Si Si3 0.107441 0.608822 0.319121
Si Si4 0.098565 0.293593 0.171796
Si Si5 0.271021 0.945044 0.814688
Si Si6 0.172725 0.125832 0.180055
Si Si7 0.000000 0.444002 0.828971
O O1 0.500000 0.318755 0.780848
O O2 0.587232 0.257714 0.747616
O O3 0.613994 0.351103 0.758066
O O4 0.575982 0.306007 0.000000
O O5 0.765978 0.802939 0.500000
O O6 0.750000 0.750000 0.750000
O O7 0.669846 0.803929 0.663127
O O8 0.774595 0.836824 0.780210
O O9 0.111553 0.611097 0.500000
O O10 0.080644 0.659552 0.263708
O O11 0.173059 0.588760 0.264150
O O12 0.058912 0.571584 0.260945
O O13 0.074401 0.292668 0.000000
O O14 0.205799 0.923033 0.769333
O O15 0.278660 0.000000 0.766462
O O16 0.271793 0.944447 0.000000
O O17 0.161695 0.123747 0.000000
O O18 0.000000 0.500000 0.841712
O O19 0.000000 0.422997 0.000000
#
# Coordination Sequence:
#
# PCOD9524150 Si02
#       7
#    16  16  16  16  16  16   8
#     4  11  25  42  60  83 116 158 202 245 294 356
#     4  11  21  33  54  83 117 151 186 227 278 338
#     4  11  22  38  61  86 118 157 202 247 295 355
#     4  11  23  37  56  84 119 154 192 235 287 345
#     4   9  19  36  60  90 119 147 187 243 300 354
#     4  11  21  36  60  88 118 152 193 242 298 354
#     4  11  25  43  59  79 113 157 207 259 304 347
#
# _framework density 18.950896
#
# number of rings (size 3 to 8) (size 9 to 14) (size 15 to 20)
#    0.000    1.308    3.077    3.000    1.077    3.692 
#    0.000    0.000    0.000    5.077    0.000    3.231 
#    0.000    0.000    0.000    0.000    0.000    0.000 
#
# Total GULP energy -289930.578100 kJ/mol
# GULP energy per Si atom -5575.588040 kJ/mol
# Density = 1.890776 g / cm^3
# Si number density = 18.950896 Si / 1000 Ang^3
#
#
#
# Elastic Constant Matrix: (Units=GPa)
#
#
# Indices 1 2 3 4 5 6 
#
# 1 123.1229 39.0394 24.6709 0.0000 0.0000 0.0000
# 2 39.0394 88.9881 22.4789 0.0000 0.0000 0.0000
# 3 24.6709 22.4789 55.5206 0.0000 0.0000 0.0000
# 4 0.0000 0.0000 0.0000 14.9172 0.0000 0.0000
# 5 0.0000 0.0000 0.0000 0.0000 25.8224 0.0000
# 6 0.0000 0.0000 0.0000 0.0000 0.0000 40.6200
#
#
#
# Elastic Compliance Matrix: (Units=1/GPa)
#
#
# Indices 1 2 3 4 5 6 
#
# 1 0.009843 -0.003579 -0.002925 0.000000 0.000000 0.000000
# 2 -0.003579 0.013819 -0.004005 0.000000 0.000000 0.000000
# 3 -0.002925 -0.004005 0.020932 0.000000 0.000000 0.000000
# 4 0.000000 0.000000 0.000000 0.067037 0.000000 0.000000
# 5 0.000000 0.000000 0.000000 0.000000 0.038726 0.000000
# 6 0.000000 0.000000 0.000000 0.000000 0.000000 0.024618
#
#
# Mechanical properties :
#
#
# Convention : Reuss Voigt Hill
#
# Bulk Modulus (GPa) = 42.41341 48.89001 45.65171
# Shear Modulus (GPa) = 24.52765 28.36810 26.44787
#
# Velocity S-wave (km/s) = 3.60150 3.87321 3.73983
# Velocity P-wave (km/s) = 6.30268 6.77175 6.54142
#
# Compressibility (1/GPa) = 0.02357745
#
# Stress axis : x y z
#
# Youngs Moduli (GPa) = 101.59599 72.36250 47.77326
#
# Poissons Ratio (x) = 0.25901 0.13972
# Poissons Ratio (y) = 0.36365 0.19131
# Poissons Ratio (z) = 0.29712 0.28978
#
# Static dielectric constant tensor:
#      x y z
#    x 1.703280 0.000000 0.000000 
#    y 0.000000 1.670900 0.000000 
#    z 0.000000 0.000000 1.672780 
# 
# From -- ./inp_files/11131.got.cif
#   From: 2010.05.17/outbox.cif.g08.bks.cpg/sg71_6_cif.got.tgz:11131.got - 2010.06.03 16:22:01.
