data_PCOD9524501
_publ_section_title
;
Structure prediction by ZEFSAII (Michael W. Deem and Ramdas Pophale) SiO2 
 PCOD9524501
Probable space group: I M M M
;
_chemical_formula_sum "Si O2"
_cell_formula_units_Z 80
_cell_length_a 19.990666
_cell_length_b 27.088097
_cell_length_c 7.596648
_cell_angle_alpha 90.000000
_cell_angle_beta 90.000000
_cell_angle_gamma 90.000000
_cell_volume 4113.654019
_symmetry_space_group_name_H-M "I M M M"
_symmetry_group_IT_number 71
_symmetry_cell_setting 'orthorhombic'
loop_
_space_group_symop_operation_xyz
x,y,z
-x,-y,z
x,-y,-z
-x,y,-z
-x,-y,-z
x,y,-z
-x,y,z
x,-y,z
1/2+x,1/2+y,1/2+z
1/2-x,1/2-y,1/2+z
1/2+x,1/2-y,1/2-z
1/2-x,1/2+y,1/2-z
1/2-x,1/2-y,1/2-z
1/2+x,1/2+y,1/2-z
1/2-x,1/2+y,1/2+z
1/2+x,1/2-y,1/2+z
loop_
_atom_site_type_symbol
_atom_site_label
_atom_site_fract_x
_atom_site_fract_y
_atom_site_fract_z
Si Si1 0.076149 0.500000 0.790770
Si Si2 0.423573 0.892099 0.209716
Si Si3 0.081353 0.000000 0.704638
Si Si4 0.327104 0.806085 0.212209
Si Si5 0.922471 0.107595 0.716141
Si Si6 0.327847 0.695078 0.210675
O O1 0.105445 0.552889 0.738570
O O2 0.000000 0.500000 0.716558
O O3 0.072643 0.500000 0.000000
O O4 0.500000 0.890580 0.280431
O O5 0.376664 0.848475 0.279274
O O6 0.428146 0.885486 0.000000
O O7 0.101003 0.053302 0.778811
O O8 0.102330 0.000000 0.500000
O O9 0.000000 0.000000 0.706864
O O10 0.342041 0.750531 0.277951
O O11 0.249730 0.816446 0.254098
O O12 0.332716 0.805021 0.000000
O O13 0.921166 0.106291 0.500000
O O14 0.876252 0.152241 0.777478
O O15 0.000000 0.114745 0.765801
O O16 0.336720 0.696738 0.000000
#
# Coordination Sequence:
#
# PCOD9524501 Si02
#       6
#     8  16   8  16  16  16
#     4   9  17  29  46  69  94 116 140 177 226 273
#     4   9  17  30  48  67  87 115 151 187 223 267
#     4   7  10  18  33  56  86 112 130 159 210 256
#     4   9  18  31  45  62  87 118 148 181 223 266
#     4   8  13  22  39  63  88 112 140 176 214 251
#     4   9  17  29  45  64  87 117 150 183 221 263
#
# _framework density 19.447430000000001
#
# number of rings (size 3 to 8) (size 9 to 14) (size 15 to 20)
#    0.000    3.400    0.000    1.500    0.000    2.800 
#    0.000    5.000    0.000    1.800    0.000    5.600 
#    0.000    2.400    0.000    0.000    0.000    0.000 
#
# Total GULP energy -222769.973235 kJ/mol
# GULP energy per Si atom -5569.249331 kJ/mol
# Density = 1.940317 g / cm^3
# Si number density = 19.447430 Si / 1000 Ang^3
#
#
#
# Elastic Constant Matrix: (Units=GPa)
#
#
# Indices 1 2 3 4 5 6 
#
# 1 79.4101 117.2777 0.8419 0.0000 0.0000 0.0000
# 2 117.2777 228.3499 6.1204 0.0000 0.0000 0.0000
# 3 0.8419 6.1204 41.6311 0.0000 0.0000 0.0000
# 4 0.0000 0.0000 0.0000 0.8400 0.0000 0.0000
# 5 0.0000 0.0000 0.0000 0.0000 14.7305 0.0000
# 6 0.0000 0.0000 0.0000 0.0000 0.0000 -315.6794
#
#
#
# Elastic Compliance Matrix: (Units=1/GPa)
#
#
# Indices 1 2 3 4 5 6 
#
# 1 0.052493 -0.027038 0.002913 0.000000 0.000000 0.000000
# 2 -0.027038 0.018323 -0.002147 0.000000 0.000000 0.000000
# 3 0.002913 -0.002147 0.024277 0.000000 0.000000 0.000000
# 4 0.000000 0.000000 0.000000 1.190513 0.000000 0.000000
# 5 0.000000 0.000000 0.000000 0.000000 0.067886 0.000000
# 6 0.000000 0.000000 0.000000 0.000000 0.000000 -0.003168
#
#
# Mechanical properties :
#
#
# Convention : Reuss Voigt Hill
#
# Bulk Modulus (GPa) = 23.50143 66.43013 44.96578
# Shear Modulus (GPa) = 3.52845 -45.01171 -20.74163
#
# Velocity S-wave (km/s) = 1.34844 -4.81618 -3.26935
# Velocity P-wave (km/s) = 3.81251 1.81812 2.98670
#
# Compressibility (1/GPa) = 0.04255061
#
# Stress axis : x y z
#
# Youngs Moduli (GPa) = 19.05005 54.57570 41.19088
#
# Poissons Ratio (x) = 1.47562 -0.12001
# Poissons Ratio (y) = 0.51508 0.08844
# Poissons Ratio (z) = -0.05550 0.11718
#
# Static dielectric constant tensor:
#      x y z
#    x 1.641200 0.000000 0.000000 
#    y 0.000000 1.721740 0.000000 
#    z 0.000000 0.000000 1.733250 
# 
# From -- ./inp_files/10725.got.cif
#   From: 2010.05.17/outbox.cif.g08.bks.cpg/sg71_6_cif.got.tgz:10725.got - 2010.06.03 16:22:01.
