data_PCOD9524132
_publ_section_title
;
Structure prediction by ZEFSAII (Michael W. Deem and Ramdas Pophale) SiO2 
 PCOD9524132
Probable space group: I M M M
;
_chemical_formula_sum "Si O2"
_cell_formula_units_Z 104
_cell_length_a 23.009806
_cell_length_b 30.735869
_cell_length_c 9.058971
_cell_angle_alpha 90.000000
_cell_angle_beta 90.000000
_cell_angle_gamma 90.000000
_cell_volume 6406.743293
_symmetry_space_group_name_H-M "I M M M"
_symmetry_group_IT_number 71
_symmetry_cell_setting 'orthorhombic'
loop_
_space_group_symop_operation_xyz
x,y,z
-x,-y,z
x,-y,-z
-x,y,-z
-x,-y,-z
x,y,-z
-x,y,z
x,-y,z
1/2+x,1/2+y,1/2+z
1/2-x,1/2-y,1/2+z
1/2+x,1/2-y,1/2-z
1/2-x,1/2+y,1/2-z
1/2-x,1/2-y,1/2-z
1/2+x,1/2+y,1/2-z
1/2-x,1/2+y,1/2+z
1/2+x,1/2-y,1/2+z
loop_
_atom_site_type_symbol
_atom_site_label
_atom_site_fract_x
_atom_site_fract_y
_atom_site_fract_z
Si Si1 0.067883 0.873370 0.177956
Si Si2 0.568639 0.195119 0.676163
Si Si3 0.000000 0.551801 0.676188
Si Si4 0.151485 0.049147 0.179601
Si Si5 0.390801 0.900079 0.322950
Si Si6 0.070642 0.783818 0.670182
Si Si7 0.714316 0.051303 0.823929
O O1 0.107237 0.913678 0.228726
O O2 0.088256 0.827553 0.245128
O O3 0.000000 0.880052 0.217494
O O4 0.070865 0.870658 0.000000
O O5 0.572652 0.201491 0.500000
O O6 0.500000 0.188651 0.710935
O O7 0.601353 0.150786 0.715961
O O8 0.589795 0.238712 0.755937
O O9 0.056678 0.573448 0.748165
O O10 0.000000 0.500000 0.701982
O O11 0.000000 0.559106 0.500000
O O12 0.218443 0.058774 0.218594
O O13 0.136968 0.000000 0.229276
O O14 0.149627 0.048419 0.000000
O O15 0.395394 0.903861 0.500000
O O16 0.330829 0.919716 0.264594
O O17 0.088082 0.785768 0.500000
O O18 0.000000 0.783126 0.676925
O O19 0.701986 0.000000 0.799730
O O20 0.708470 0.059158 0.000000
#
# Coordination Sequence:
#
# PCOD9524132 Si02
#       7
#    16  16   8  16  16  16  16
#     4   9  16  27  47  75 102 128 157 192 239 286
#     4   9  17  31  47  65  92 122 153 192 242 291
#     4  11  23  35  47  67  97 131 163 197 242 295
#     4   8  15  29  49  72  98 128 163 200 234 277
#     4  11  21  33  49  71  96 123 158 205 252 289
#     4   9  17  28  44  68  96 126 157 190 231 283
#     4   9  18  33  50  67  91 127 167 201 236 283
#
# _framework density 16.232897000000001
#
# number of rings (size 3 to 8) (size 9 to 14) (size 15 to 20)
#    0.000    2.692    0.769    2.538    0.000    6.154 
#    0.000    2.308    0.000    2.308    0.000    2.154 
#    0.000    0.000    0.000    0.000    0.000    0.000 
#
# Total GULP energy -289833.164515 kJ/mol
# GULP energy per Si atom -5573.714702 kJ/mol
# Density = 1.619595 g / cm^3
# Si number density = 16.232897 Si / 1000 Ang^3
#
#
#
# Elastic Constant Matrix: (Units=GPa)
#
#
# Indices 1 2 3 4 5 6 
#
# 1 70.7426 86.1764 36.3596 0.0000 0.0000 0.0000
# 2 86.1764 171.1928 63.8828 0.0000 0.0000 0.0000
# 3 36.3596 63.8828 39.0037 0.0000 0.0000 0.0000
# 4 0.0000 0.0000 0.0000 18.4163 0.0000 0.0000
# 5 0.0000 0.0000 0.0000 0.0000 11.7255 0.0000
# 6 0.0000 0.0000 0.0000 0.0000 0.0000 7.8531
#
#
#
# Elastic Compliance Matrix: (Units=1/GPa)
#
#
# Indices 1 2 3 4 5 6 
#
# 1 0.038170 -0.015268 -0.010576 0.000000 0.000000 0.000000
# 2 -0.015268 0.021131 -0.020377 0.000000 0.000000 0.000000
# 3 -0.010576 -0.020377 0.068872 0.000000 0.000000 0.000000
# 4 0.000000 0.000000 0.000000 0.054300 0.000000 0.000000
# 5 0.000000 0.000000 0.000000 0.000000 0.085284 0.000000
# 6 0.000000 0.000000 0.000000 0.000000 0.000000 0.127338
#
#
# Mechanical properties :
#
#
# Convention : Reuss Voigt Hill
#
# Bulk Modulus (GPa) = 27.98604 72.64184 50.31394
# Shear Modulus (GPa) = 10.01108 13.90033 11.95570
#
# Velocity S-wave (km/s) = 2.48607 2.92945 2.71682
# Velocity P-wave (km/s) = 5.05158 7.50261 6.39561
#
# Compressibility (1/GPa) = 0.03573211
#
# Stress axis : x y z
#
# Youngs Moduli (GPa) = 26.19824 47.32395 14.51976
#
# Poissons Ratio (x) = 0.72255 0.15356
# Poissons Ratio (y) = 0.40000 0.29586
# Poissons Ratio (z) = 0.27707 0.96430
#
# Static dielectric constant tensor:
#      x y z
#    x 1.526870 0.000000 0.000000 
#    y 0.000000 1.539510 0.000000 
#    z 0.000000 0.000000 1.541360 
# 
# From -- ./inp_files/15548.got.cif
#   From: 2010.05.17/outbox.cif.g08.bks.cpg/sg71_8_cif.got.tgz:15548.got - 2010.06.03 16:22:01.
