data_PCOD9524908
_publ_section_title
;
Structure prediction by ZEFSAII (Michael W. Deem and Ramdas Pophale) SiO2 
 PCOD9524908
Probable space group: I M M M
;
_chemical_formula_sum "Si O2"
_cell_formula_units_Z 40
_cell_length_a 18.000000
_cell_length_b 27.000000
_cell_length_c 9.000000
_cell_angle_alpha 90.000000
_cell_angle_beta 90.000000
_cell_angle_gamma 90.000000
_cell_volume 4374.000000
_symmetry_space_group_name_H-M "I M M M"
_symmetry_group_IT_number 71
_symmetry_cell_setting 'orthorhombic'
loop_
_space_group_symop_operation_xyz
x,y,z
-x,-y,z
x,-y,-z
-x,y,-z
-x,-y,-z
x,y,-z
-x,y,z
x,-y,z
1/2+x,1/2+y,1/2+z
1/2-x,1/2-y,1/2+z
1/2+x,1/2-y,1/2-z
1/2-x,1/2+y,1/2-z
1/2-x,1/2-y,1/2-z
1/2+x,1/2+y,1/2-z
1/2-x,1/2+y,1/2+z
1/2+x,1/2-y,1/2+z
loop_
_atom_site_type_symbol
_atom_site_label
_atom_site_fract_x
_atom_site_fract_y
_atom_site_fract_z
Si Si1 0.653228 0.110031 0.319004
Si Si2 0.587882 0.500000 0.678830
Si Si3 0.500000 0.942509 0.680676
Si Si4 0.087890 0.823239 0.821500
Si Si5 0.679239 0.589817 0.178868
Si Si6 0.084849 0.709867 0.819675
O O1 0.653313 0.108604 0.500000
O O2 0.577967 0.081907 0.270152
O O3 0.733657 0.089238 0.274306
O O4 0.640873 0.167078 0.271582
O O5 0.500000 0.500000 0.718031
O O6 0.592575 0.500000 0.500000
O O7 0.630652 0.452923 0.745441
O O8 0.500000 0.938367 0.500000
O O9 0.500000 0.000000 0.720222
O O10 0.141068 0.859470 0.732290
O O11 0.101720 0.766122 0.777308
O O12 0.000000 0.833748 0.794849
O O13 0.099318 0.828350 0.000000
O O14 0.676174 0.585172 0.000000
O O15 0.000000 0.697835 0.773199
O O16 0.083962 0.709380 0.000000
#
# Coordination Sequence:
#
# PCOD9524908 Si02
#       6
#    16   8   8  16  16  16
#     4   9  17  29  47  77 114 143 176 221 268 316
#     4  11  25  45  65  78  97 138 188 223 255 313
#     4   9  16  26  46  72 106 148 180 215 266 315
#     4   9  18  33  54  77 104 143 191 227 257 310
#     4  11  23  35  53  85 117 137 165 220 283 327
#     4   8  13  26  49  74 103 145 189 225 256 300
#
# _framework density 9.1449470000000002
#
# number of rings (size 3 to 8) (size 9 to 14) (size 15 to 20)
#    0.000    2.600    1.000    2.700    1.400    4.400 
#    0.000    0.000    0.000    1.200    0.000    3.500 
#    0.000    0.000    0.000    0.000    0.000    0.000 
#
# Total GULP energy -222982.644574 kJ/mol
# GULP energy per Si atom -5574.566114 kJ/mol
# Density = 0.912413 g / cm^3
# Si number density = 9.144947 Si / 1000 Ang^3
#
#
#
# Elastic Constant Matrix: (Units=GPa)
#
#
# Indices 1 2 3 4 5 6 
#
# 1 172.2668 95.2669 36.2220 0.0000 0.0000 0.0000
# 2 95.2669 115.0396 23.3456 0.0000 0.0000 0.0000
# 3 36.2220 23.3456 26.3484 0.0001 0.0001 0.0000
# 4 0.0000 0.0000 0.0001 9.3142 0.0000 0.0000
# 5 0.0000 0.0000 0.0001 0.0000 16.8968 0.0000
# 6 0.0000 0.0000 0.0000 0.0000 0.0000 28.5641
#
#
#
# Elastic Compliance Matrix: (Units=1/GPa)
#
#
# Indices 1 2 3 4 5 6 
#
# 1 0.012473 -0.008351 -0.009748 0.000000 0.000000 0.000000
# 2 -0.008351 0.016189 -0.002864 0.000000 0.000000 0.000000
# 3 -0.009748 -0.002864 0.053891 0.000000 0.000000 0.000000
# 4 0.000000 0.000000 0.000000 0.107363 0.000000 0.000000
# 5 0.000000 0.000000 0.000000 0.000000 0.059183 0.000000
# 6 0.000000 0.000000 0.000000 0.000000 0.000000 0.035009
#
#
# Mechanical properties :
#
#
# Convention : Reuss Voigt Hill
#
# Bulk Modulus (GPa) = 24.61354 69.25819 46.93586
# Shear Modulus (GPa) = 14.72427 21.54305 18.13366
#
# Velocity S-wave (km/s) = 2.84042 3.43573 3.15216
# Velocity P-wave (km/s) = 4.92382 7.32722 6.24228
#
# Compressibility (1/GPa) = 0.04062805
#
# Stress axis : x y z
#
# Youngs Moduli (GPa) = 80.17527 61.76892 18.55594
#
# Poissons Ratio (x) = 0.51582 0.18087
# Poissons Ratio (y) = 0.66953 0.05315
# Poissons Ratio (z) = 0.78151 0.17692
#
# Static dielectric constant tensor:
#      x y z
#    x 1.620730 0.000000 0.000000 
#    y 0.000000 1.665280 0.000000 
#    z 0.000000 0.000000 1.608840 
# 
# From -- ./inp_files/8390.got.cif
#   From: 2010.05.17/outbox.ucp.g08.bks.cvg/sg71_5_cif.got.tgz:8390.got - 2010.06.11 16:29:00.
