data_PCOD9524253
_publ_section_title
;
Structure prediction by ZEFSAII (Michael W. Deem and Ramdas Pophale) SiO2 
 PCOD9524253
Probable space group: I M M M
;
_chemical_formula_sum "Si O2"
_cell_formula_units_Z 120
_cell_length_a 8.309385
_cell_length_b 27.909142
_cell_length_c 28.623420
_cell_angle_alpha 90.000000
_cell_angle_beta 90.000000
_cell_angle_gamma 90.000000
_cell_volume 6637.994529
_symmetry_space_group_name_H-M "I M M M"
_symmetry_group_IT_number 71
_symmetry_cell_setting 'orthorhombic'
loop_
_space_group_symop_operation_xyz
x,y,z
-x,-y,z
x,-y,-z
-x,y,-z
-x,-y,-z
x,y,-z
-x,y,z
x,-y,z
1/2+x,1/2+y,1/2+z
1/2-x,1/2-y,1/2+z
1/2+x,1/2-y,1/2-z
1/2-x,1/2+y,1/2-z
1/2-x,1/2-y,1/2-z
1/2+x,1/2+y,1/2-z
1/2-x,1/2+y,1/2+z
1/2+x,1/2-y,1/2+z
loop_
_atom_site_type_symbol
_atom_site_label
_atom_site_fract_x
_atom_site_fract_y
_atom_site_fract_z
Si Si1 0.308664 0.801934 0.734501
Si Si2 0.696548 0.553694 0.812067
Si Si3 0.191632 0.500000 0.552923
Si Si4 0.691637 0.590126 0.387865
Si Si5 0.305919 0.649741 0.140218
Si Si6 0.194576 0.103720 0.216670
Si Si7 0.805737 0.320114 0.554038
Si Si8 0.303473 0.710421 0.946877
O O1 0.500000 0.802575 0.732330
O O2 0.250000 0.750000 0.750000
O O3 0.239980 0.817075 0.684061
O O4 0.250476 0.842968 0.770205
O O5 0.500000 0.553510 0.812774
O O6 0.751241 0.500000 0.822904
O O7 0.750317 0.596090 0.846769
O O8 0.745099 0.569767 0.759708
O O9 0.257722 0.500000 0.500000
O O10 0.242967 0.547140 0.580825
O O11 0.000000 0.500000 0.549963
O O12 0.500000 0.585498 0.386369
O O13 0.752456 0.588475 0.334434
O O14 0.735859 0.640576 0.411476
O O15 0.500000 0.648066 0.137966
O O16 0.246757 0.673357 0.092270
O O17 0.000000 0.103590 0.216324
O O18 0.760524 0.330397 0.500000
O O19 0.756665 0.265306 0.564510
O O20 0.000000 0.322274 0.556510
O O21 0.500000 0.709879 0.946847
O O22 0.252344 0.699687 0.000000
#
# Coordination Sequence:
#
# PCOD9524253 Si02
#       8
#    16  16   8  16  16  16  16  16
#     4  11  22  35  52  74 106 140 173 210 257 311
#     4   8  14  27  50  73  98 133 169 207 251 305
#     4  11  25  43  59  75 101 141 185 225 270 327
#     4  11  23  36  55  80 103 128 170 225 277 322
#     4   9  17  31  51  77 104 134 178 218 257 309
#     4   9  20  36  52  75 104 134 173 212 259 316
#     4   9  18  33  51  71  97 132 173 211 257 320
#     4   8  15  29  51  77 104 137 174 211 252 307
#
# _framework density 18.077748
#
# number of rings (size 3 to 8) (size 9 to 14) (size 15 to 20)
#    0.000    2.600    0.000    3.800    2.800    3.467 
#    0.000    0.000    0.000    5.200    0.000    2.800 
#    0.000    0.000    0.000    4.800    0.000    5.333 
#
# Total GULP energy -334701.428773 kJ/mol
# GULP energy per Si atom -5578.357146 kJ/mol
# Density = 1.803660 g / cm^3
# Si number density = 18.077748 Si / 1000 Ang^3
#
#
#
# Elastic Constant Matrix: (Units=GPa)
#
#
# Indices 1 2 3 4 5 6 
#
# 1 10.6529 9.9854 15.1516 0.0000 0.0000 0.0000
# 2 9.9854 153.0401 96.8978 0.0000 0.0000 0.0000
# 3 15.1516 96.8978 142.7691 0.0000 0.0000 0.0000
# 4 0.0000 0.0000 0.0000 17.0681 0.0000 0.0000
# 5 0.0000 0.0000 0.0000 0.0000 14.9336 0.0000
# 6 0.0000 0.0000 0.0000 0.0000 0.0000 1.4398
#
#
#
# Elastic Compliance Matrix: (Units=1/GPa)
#
#
# Indices 1 2 3 4 5 6 
#
# 1 0.110572 0.000378 -0.011991 0.000000 0.000000 0.000000
# 2 0.000378 0.011459 -0.007818 0.000000 0.000000 0.000000
# 3 -0.011991 -0.007818 0.013583 0.000000 0.000000 0.000000
# 4 0.000000 0.000000 0.000000 0.058589 0.000000 0.000000
# 5 0.000000 0.000000 0.000000 0.000000 0.066963 0.000000
# 6 0.000000 0.000000 0.000000 0.000000 0.000000 0.694523
#
#
# Mechanical properties :
#
#
# Convention : Reuss Voigt Hill
#
# Bulk Modulus (GPa) = 10.33567 61.17017 35.75292
# Shear Modulus (GPa) = 4.86949 18.98346 11.92648
#
# Velocity S-wave (km/s) = 1.64301 3.24404 2.57131
# Velocity P-wave (km/s) = 3.05435 6.92405 5.35124
#
# Compressibility (1/GPa) = 0.09675228
#
# Stress axis : x y z
#
# Youngs Moduli (GPa) = 9.04388 87.26551 73.62346
#
# Poissons Ratio (x) = -0.03294 0.88281
# Poissons Ratio (y) = -0.00341 0.57555
# Poissons Ratio (z) = 0.10844 0.68220
#
# Static dielectric constant tensor:
#      x y z
#    x 1.628260 0.000000 0.000000 
#    y 0.000000 1.606600 0.000000 
#    z 0.000000 0.000000 1.630500 
# 
# From -- ./inp_files/63839.got.cif
#   From: 2010.05.17/outbox.cif.g08.bks.cpg/sg71_32_cif.got.tgz:63839.got - 2010.06.03 16:22:01.
