data_PCOD9524085
_publ_section_title
;
Structure prediction by ZEFSAII (Michael W. Deem and Ramdas Pophale) SiO2 
 PCOD9524085
Probable space group: I M M M
;
_chemical_formula_sum "Si O2"
_cell_formula_units_Z 88
_cell_length_a 15.457999
_cell_length_b 15.017813
_cell_length_c 19.391541
_cell_angle_alpha 90.000000
_cell_angle_beta 90.000000
_cell_angle_gamma 90.000000
_cell_volume 4501.655846
_symmetry_space_group_name_H-M "I M M M"
_symmetry_group_IT_number 71
_symmetry_cell_setting 'orthorhombic'
loop_
_space_group_symop_operation_xyz
x,y,z
-x,-y,z
x,-y,-z
-x,y,-z
-x,-y,-z
x,y,-z
-x,y,z
x,-y,z
1/2+x,1/2+y,1/2+z
1/2-x,1/2-y,1/2+z
1/2+x,1/2-y,1/2-z
1/2-x,1/2+y,1/2-z
1/2-x,1/2-y,1/2-z
1/2+x,1/2+y,1/2-z
1/2-x,1/2+y,1/2+z
1/2+x,1/2-y,1/2+z
loop_
_atom_site_type_symbol
_atom_site_label
_atom_site_fract_x
_atom_site_fract_y
_atom_site_fract_z
Si Si1 0.602824 0.500000 0.920767
Si Si2 0.346308 0.343956 0.183292
Si Si3 0.601005 0.852004 0.861926
Si Si4 0.405970 0.292634 0.667382
Si Si5 0.775175 0.098151 0.920278
Si Si6 0.352233 0.101700 0.291566
O O1 0.500000 0.500000 0.926659
O O2 0.628283 0.416191 0.873637
O O3 0.637955 0.500000 0.000000
O O4 0.366905 0.249181 0.149020
O O5 0.396289 0.335459 0.256168
O O6 0.247904 0.367247 0.204454
O O7 0.500000 0.856395 0.881145
O O8 0.672000 0.893052 0.912213
O O9 0.615232 0.896801 0.787195
O O10 0.500000 0.317461 0.638977
O O11 0.326941 0.329491 0.623158
O O12 0.399960 0.185283 0.673184
O O13 0.800209 0.000000 0.894058
O O14 0.798307 0.105787 0.000000
O O15 0.361417 0.000000 0.318112
#
# Coordination Sequence:
#
# PCOD9524085 Si02
#       6
#     8  16  16  16  16  16
#     4  11  24  38  56  92 134 166 207 260 312 376
#     4  11  20  39  62  92 124 166 211 255 312 376
#     4  11  22  39  63  92 128 167 209 257 315 377
#     4  11  23  41  66  93 123 163 213 266 318 374
#     4  11  25  43  62  90 128 168 212 265 319 373
#     4  11  20  37  65  95 126 160 205 264 318 372
#
# _framework density 19.548362999999998
#
# number of rings (size 3 to 8) (size 9 to 14) (size 15 to 20)
#    0.000    1.000    4.545    4.909    1.273    4.364 
#    0.000    1.818    0.000    0.000    0.000    1.273 
#    0.000    0.000    0.000    0.000    0.000    0.000 
#
# Total GULP energy -245471.901267 kJ/mol
# GULP energy per Si atom -5578.906847 kJ/mol
# Density = 1.950387 g / cm^3
# Si number density = 19.548363 Si / 1000 Ang^3
#
#
#
# Elastic Constant Matrix: (Units=GPa)
#
#
# Indices 1 2 3 4 5 6 
#
# 1 122.9876 29.4537 23.0880 0.0000 0.0000 0.0000
# 2 29.4537 131.8742 43.6206 0.0000 0.0000 0.0000
# 3 23.0880 43.6206 43.8312 0.0000 0.0000 0.0000
# 4 0.0000 0.0000 0.0000 24.6523 0.0000 0.0000
# 5 0.0000 0.0000 0.0000 0.0000 7.6005 0.0000
# 6 0.0000 0.0000 0.0000 0.0000 0.0000 34.1638
#
#
#
# Elastic Compliance Matrix: (Units=1/GPa)
#
#
# Indices 1 2 3 4 5 6 
#
# 1 0.009062 -0.000663 -0.004113 0.000000 0.000000 0.000000
# 2 -0.000663 0.011353 -0.010949 0.000000 0.000000 0.000000
# 3 -0.004113 -0.010949 0.035877 0.000000 0.000000 0.000000
# 4 0.000000 0.000000 0.000000 0.040564 0.000000 0.000000
# 5 0.000000 0.000000 0.000000 0.000000 0.131570 0.000000
# 6 0.000000 0.000000 0.000000 0.000000 0.000000 0.029271
#
#
# Mechanical properties :
#
#
# Convention : Reuss Voigt Hill
#
# Bulk Modulus (GPa) = 40.25504 54.55751 47.40627
# Shear Modulus (GPa) = 16.81082 26.78538 21.79810
#
# Velocity S-wave (km/s) = 2.93569 3.70565 3.34291
# Velocity P-wave (km/s) = 5.66818 6.80285 6.26127
#
# Compressibility (1/GPa) = 0.02484161
#
# Stress axis : x y z
#
# Youngs Moduli (GPa) = 110.35190 88.08473 27.87269
#
# Poissons Ratio (x) = 0.05844 0.11464
# Poissons Ratio (y) = 0.07321 0.30517
# Poissons Ratio (z) = 0.45389 0.96441
#
# Static dielectric constant tensor:
#      x y z
#    x 1.697540 0.000000 0.000000 
#    y 0.000000 1.731230 0.000000 
#    z 0.000000 0.000000 1.653760 
# 
# From -- ./inp_files/37755.got.cif
#   From: 2010.05.17/outbox.cif.g08.bks.cpg/sg71_19_cif.got.tgz:37755.got - 2010.06.03 16:22:01.
