data_PCOD9524430
_publ_section_title
;
Structure prediction by ZEFSAII (Michael W. Deem and Ramdas Pophale) SiO2 
 PCOD9524430
Probable space group: I M M M
;
_chemical_formula_sum "Si O2"
_cell_formula_units_Z 64
_cell_length_a 9.365034
_cell_length_b 20.982182
_cell_length_c 17.875696
_cell_angle_alpha 90.000000
_cell_angle_beta 90.000000
_cell_angle_gamma 90.000000
_cell_volume 3512.553668
_symmetry_space_group_name_H-M "I M M M"
_symmetry_group_IT_number 71
_symmetry_cell_setting 'orthorhombic'
loop_
_space_group_symop_operation_xyz
x,y,z
-x,-y,z
x,-y,-z
-x,y,-z
-x,-y,-z
x,y,-z
-x,y,z
x,-y,z
1/2+x,1/2+y,1/2+z
1/2-x,1/2-y,1/2+z
1/2+x,1/2-y,1/2-z
1/2-x,1/2+y,1/2-z
1/2-x,1/2-y,1/2-z
1/2+x,1/2+y,1/2-z
1/2-x,1/2+y,1/2+z
1/2+x,1/2-y,1/2+z
loop_
_atom_site_type_symbol
_atom_site_label
_atom_site_fract_x
_atom_site_fract_y
_atom_site_fract_z
Si Si1 0.342402 0.000000 0.409195
Si Si2 0.673914 0.075848 0.831553
Si Si3 0.664123 0.621867 0.084493
Si Si4 0.668071 0.684648 0.236259
Si Si5 0.162175 0.423016 0.500000
O O1 0.259593 0.063267 0.389481
O O2 0.500000 0.000000 0.377114
O O3 0.349077 0.000000 0.500000
O O4 0.500000 0.082650 0.826954
O O5 0.754036 0.125152 0.777249
O O6 0.704135 0.000000 0.817784
O O7 0.720979 0.092432 0.917538
O O8 0.500000 0.599650 0.082352
O O9 0.674740 0.674770 0.146880
O O10 0.703980 0.641016 0.000000
O O11 0.500000 0.686691 0.257467
O O12 0.750000 0.750000 0.250000
O O13 0.154981 0.500000 0.500000
O O14 0.000000 0.397948 0.500000
#
# Coordination Sequence:
#
# PCOD9524430 Si02
#       5
#     8  16  16  16   8
#     4   9  17  29  51  85 115 138 171 222 277 321
#     4   9  18  35  61  89 115 147 186 229 277 332
#     4   9  19  37  58  78 105 146 190 226 266 326
#     4  11  24  40  57  80 114 150 189 236 283 333
#     4   7  12  28  55  85 113 143 184 225 266 329
#
# _framework density 18.220362999999999
#
# number of rings (size 3 to 8) (size 9 to 14) (size 15 to 20)
#    0.000    2.750    0.000    2.625    1.750    4.000 
#    2.250    0.625    0.000    2.250    0.000    0.000 
#    0.000    0.000    0.000    0.000    0.000    0.000 
#
# Total GULP energy -178161.783989 kJ/mol
# GULP energy per Si atom -5567.555750 kJ/mol
# Density = 1.817889 g / cm^3
# Si number density = 18.220363 Si / 1000 Ang^3
#
#
#
# Elastic Constant Matrix: (Units=GPa)
#
#
# Indices 1 2 3 4 5 6 
#
# 1 88.0187 70.6644 52.3252 0.0000 0.0000 0.0000
# 2 70.6644 99.9261 55.1670 0.0000 0.0000 0.0000
# 3 52.3252 55.1670 105.2687 0.0000 0.0000 0.0000
# 4 0.0000 0.0000 0.0000 9.1737 0.0000 0.0000
# 5 0.0000 0.0000 0.0000 0.0000 24.1520 0.0000
# 6 0.0000 0.0000 0.0000 0.0000 0.0000 27.5640
#
#
#
# Elastic Compliance Matrix: (Units=1/GPa)
#
#
# Indices 1 2 3 4 5 6 
#
# 1 0.028028 -0.017067 -0.004988 0.000000 0.000000 0.000000
# 2 -0.017067 0.024474 -0.004342 0.000000 0.000000 0.000000
# 3 -0.004988 -0.004342 0.014254 0.000000 0.000000 0.000000
# 4 0.000000 0.000000 0.000000 0.109007 0.000000 0.000000
# 5 0.000000 0.000000 0.000000 0.000000 0.041404 0.000000
# 6 0.000000 0.000000 0.000000 0.000000 0.000000 0.036279
#
#
# Mechanical properties :
#
#
# Convention : Reuss Voigt Hill
#
# Bulk Modulus (GPa) = 71.62122 72.16965 71.89543
# Shear Modulus (GPa) = 16.08252 19.84839 17.96545
#
# Velocity S-wave (km/s) = 2.97420 3.30411 3.14349
# Velocity P-wave (km/s) = 7.15459 7.36556 7.26084
#
# Compressibility (1/GPa) = 0.01396234
#
# Stress axis : x y z
#
# Youngs Moduli (GPa) = 35.67813 40.85961 70.15387
#
# Poissons Ratio (x) = 0.69736 0.34991
# Poissons Ratio (y) = 0.60892 0.30464
# Poissons Ratio (z) = 0.17795 0.17743
#
# Static dielectric constant tensor:
#      x y z
#    x 1.628100 0.000000 0.000000 
#    y 0.000000 1.580070 0.000000 
#    z 0.000000 0.000000 1.680180 
# 
# From -- ./inp_files/9536.got.cif
#   From: 2010.05.17/outbox.cif.g08.bks.cpg/sg71_5_cif.got.tgz:9536.got - 2010.06.03 16:22:01.
