data_PCOD9524539
_publ_section_title
;
Structure prediction by ZEFSAII (Michael W. Deem and Ramdas Pophale) SiO2 
 PCOD9524539
Probable space group: I M M M
;
_chemical_formula_sum "Si O2"
_cell_formula_units_Z 88
_cell_length_a 7.272388
_cell_length_b 18.574580
_cell_length_c 31.985505
_cell_angle_alpha 90.000000
_cell_angle_beta 90.000000
_cell_angle_gamma 90.000000
_cell_volume 4320.651679
_symmetry_space_group_name_H-M "I M M M"
_symmetry_group_IT_number 71
_symmetry_cell_setting 'orthorhombic'
loop_
_space_group_symop_operation_xyz
x,y,z
-x,-y,z
x,-y,-z
-x,y,-z
-x,-y,-z
x,y,-z
-x,y,z
x,-y,z
1/2+x,1/2+y,1/2+z
1/2-x,1/2-y,1/2+z
1/2+x,1/2-y,1/2-z
1/2-x,1/2+y,1/2-z
1/2-x,1/2-y,1/2-z
1/2+x,1/2+y,1/2-z
1/2-x,1/2+y,1/2+z
1/2+x,1/2-y,1/2+z
loop_
_atom_site_type_symbol
_atom_site_label
_atom_site_fract_x
_atom_site_fract_y
_atom_site_fract_z
Si Si1 0.776326 0.078530 0.171235
Si Si2 0.218641 0.233154 0.798171
Si Si3 0.723662 0.916187 0.452455
Si Si4 0.275284 0.582599 0.500000
Si Si5 0.777180 0.146293 0.086244
Si Si6 0.223269 0.303532 0.881896
O O1 0.712577 0.151945 0.193200
O O2 0.725124 0.091686 0.122960
O O3 0.000000 0.077905 0.173746
O O4 0.713977 0.000000 0.186093
O O5 0.250000 0.250000 0.750000
O O6 0.283377 0.291053 0.833333
O O7 0.000000 0.230025 0.804845
O O8 0.779183 0.893566 0.500000
O O9 0.500000 0.913846 0.452492
O O10 0.785307 0.866653 0.413461
O O11 0.776216 0.000000 0.447065
O O12 0.220449 0.500000 0.500000
O O13 0.500000 0.583930 0.500000
O O14 0.212525 0.621661 0.541550
O O15 0.724424 0.227185 0.097676
O O16 0.000000 0.146353 0.085856
O O17 0.000000 0.309420 0.881258
#
# Coordination Sequence:
#
# PCOD9524539 Si02
#       6
#    16  16  16   8  16  16
#     4   8  13  23  38  53  71  99 134 164 191 232
#     4   9  17  29  44  61  81 106 136 171 210 248
#     4   8  13  20  31  48  72 105 139 165 193 239
#     4   9  14  16  20  36  63  91 116 142 175 214
#     4   8  13  18  26  42  64  93 124 152 182 220
#     4   8  14  23  34  49  70  98 130 160 194 237
#
# _framework density 20.367298000000002
#
# number of rings (size 3 to 8) (size 9 to 14) (size 15 to 20)
#    0.000    3.727    0.000    3.273    1.273    2.182 
#    0.000    0.909    0.000    1.636    0.000    0.000 
#    0.000    0.727    0.000    2.000    0.000   24.364 
#
# Total GULP energy -245067.186342 kJ/mol
# GULP energy per Si atom -5569.708780 kJ/mol
# Density = 2.032094 g / cm^3
# Si number density = 20.367298 Si / 1000 Ang^3
#
#
#
# Elastic Constant Matrix: (Units=GPa)
#
#
# Indices 1 2 3 4 5 6 
#
# 1 86.5059 2.7635 0.7895 0.0000 0.0000 0.0000
# 2 2.7635 119.6498 95.5693 0.0000 0.0000 0.0000
# 3 0.7895 95.5693 194.0868 0.0000 0.0000 0.0000
# 4 0.0000 0.0000 0.0000 21.2421 0.0000 0.0000
# 5 0.0000 0.0000 0.0000 0.0000 -2.4696 0.0000
# 6 0.0000 0.0000 0.0000 0.0000 0.0000 -20.8459
#
#
#
# Elastic Compliance Matrix: (Units=1/GPa)
#
#
# Indices 1 2 3 4 5 6 
#
# 1 0.011571 -0.000379 0.000139 0.000000 0.000000 0.000000
# 2 -0.000379 0.013788 -0.006788 0.000000 0.000000 0.000000
# 3 0.000139 -0.006788 0.008494 0.000000 0.000000 0.000000
# 4 0.000000 0.000000 0.000000 0.047076 0.000000 0.000000
# 5 0.000000 0.000000 0.000000 0.000000 -0.404925 0.000000
# 6 0.000000 0.000000 0.000000 0.000000 0.000000 -0.047971
#
#
# Mechanical properties :
#
#
# Convention : Reuss Voigt Hill
#
# Bulk Modulus (GPa) = 50.50768 66.49856 58.50312
# Shear Modulus (GPa) = -14.23233 19.66001 2.71384
#
# Velocity S-wave (km/s) = -2.64632 3.11026 1.15557
# Velocity P-wave (km/s) = 3.93890 6.75417 5.52873
#
# Compressibility (1/GPa) = 0.01979897
#
# Stress axis : x y z
#
# Youngs Moduli (GPa) = 86.42505 72.52587 117.72839
#
# Poissons Ratio (x) = 0.02745 -0.01640
# Poissons Ratio (y) = 0.03271 0.79912
# Poissons Ratio (z) = -0.01204 0.49229
#
# Static dielectric constant tensor:
#      x y z
#    x 1.875900 0.000000 0.000000 
#    y 0.000000 1.694810 0.000000 
#    z 0.000000 0.000000 1.728330 
# 
# From -- ./inp_files/68176.got.cif
#   From: 2010.05.17/outbox.cif.g08.bks.cpg/sg71_35_cif.got.tgz:68176.got - 2010.06.03 16:22:01.
