data_PCOD9524867
_publ_section_title
;
Structure prediction by ZEFSAII (Michael W. Deem and Ramdas Pophale) SiO2 
 PCOD9524867
Probable space group: I M M M
;
_chemical_formula_sum "Si O2"
_cell_formula_units_Z 36
_cell_length_a 27.000000
_cell_length_b 9.000000
_cell_length_c 15.000000
_cell_angle_alpha 90.000000
_cell_angle_beta 90.000000
_cell_angle_gamma 90.000000
_cell_volume 3645.000000
_symmetry_space_group_name_H-M "I M M M"
_symmetry_group_IT_number 71
_symmetry_cell_setting 'orthorhombic'
loop_
_space_group_symop_operation_xyz
x,y,z
-x,-y,z
x,-y,-z
-x,y,-z
-x,-y,-z
x,y,-z
-x,y,z
x,-y,z
1/2+x,1/2+y,1/2+z
1/2-x,1/2-y,1/2+z
1/2+x,1/2-y,1/2-z
1/2-x,1/2+y,1/2-z
1/2-x,1/2-y,1/2-z
1/2+x,1/2+y,1/2-z
1/2-x,1/2+y,1/2+z
1/2+x,1/2-y,1/2+z
loop_
_atom_site_type_symbol
_atom_site_label
_atom_site_fract_x
_atom_site_fract_y
_atom_site_fract_z
Si Si1 0.618327 0.676706 0.841475
Si Si2 0.557578 0.177750 0.000000
Si Si3 0.556114 0.823146 0.306295
Si Si4 0.596557 0.174408 0.500000
Si Si5 0.234507 0.821815 0.342671
Si Si6 0.702824 0.322662 0.500000
O O1 0.611977 0.500000 0.846980
O O2 0.585135 0.757109 0.914700
O O3 0.597883 0.736167 0.747714
O O4 0.676202 0.708981 0.857085
O O5 0.500000 0.220263 0.000000
O O6 0.560642 0.000000 0.000000
O O7 0.500000 0.778325 0.281178
O O8 0.565079 0.800302 0.411014
O O9 0.560680 0.000000 0.288152
O O10 0.645908 0.271872 0.500000
O O11 0.611559 0.000000 0.500000
O O12 0.250000 0.750000 0.250000
O O13 0.268829 0.747032 0.416187
O O14 0.241163 0.000000 0.342596
O O15 0.706392 0.500000 0.500000
#
# Coordination Sequence:
#
# PCOD9524867 Si02
#       6
#    16   8  16   8  16   8
#     4  11  24  40  60  88 120 154 194 242 295 351
#     4  11  24  41  62  88 117 153 198 243 289 348
#     4  10  21  38  61  89 120 156 199 243 289 347
#     4  10  21  39  63  88 119 159 200 245 295 344
#     4  11  24  42  63  89 121 157 200 247 297 355
#     4  12  25  40  61  90 122 157 200 247 298 356
#
# _framework density 9.8765429999999999
#
# number of rings (size 3 to 8) (size 9 to 14) (size 15 to 20)
#    0.000    1.222    0.000    5.667    0.000   16.000 
#    0.000    0.000    0.000    2.000    0.000    0.000 
#    0.000    0.000    0.000    0.000    0.000    0.000 
#
# Total GULP energy -201372.069461 kJ/mol
# GULP energy per Si atom -5593.668596 kJ/mol
# Density = 0.985406 g / cm^3
# Si number density = 9.876543 Si / 1000 Ang^3
#
#
#
# Elastic Constant Matrix: (Units=GPa)
#
#
# Indices 1 2 3 4 5 6 
#
# 1 97.2893 49.7031 -1.8587 0.0000 0.0000 0.0000
# 2 49.7031 59.6871 14.8032 0.0000 0.0000 0.0000
# 3 -1.8587 14.8032 68.6443 0.0000 0.0000 0.0000
# 4 0.0000 0.0000 0.0000 56.7955 0.0000 0.0000
# 5 0.0000 0.0000 0.0000 0.0000 32.6147 0.0000
# 6 0.0000 0.0000 0.0000 0.0000 0.0000 33.5906
#
#
#
# Elastic Compliance Matrix: (Units=1/GPa)
#
#
# Indices 1 2 3 4 5 6 
#
# 1 0.018938 -0.016796 0.004135 0.000000 0.000000 0.000000
# 2 -0.016796 0.032597 -0.007484 0.000000 0.000000 0.000000
# 3 0.004135 -0.007484 0.016294 0.000000 0.000000 0.000000
# 4 0.000000 0.000000 0.000000 0.017607 0.000000 0.000000
# 5 0.000000 0.000000 0.000000 0.000000 0.030661 0.000000
# 6 0.000000 0.000000 0.000000 0.000000 0.000000 0.029770
#
#
# Mechanical properties :
#
#
# Convention : Reuss Voigt Hill
#
# Bulk Modulus (GPa) = 36.31340 38.99065 37.65202
# Shear Modulus (GPa) = 25.59674 35.46503 30.53089
#
# Velocity S-wave (km/s) = 3.60368 4.24183 3.93571
# Velocity P-wave (km/s) = 5.97820 6.61610 6.30522
#
# Compressibility (1/GPa) = 0.02753805
#
# Stress axis : x y z
#
# Youngs Moduli (GPa) = 52.80295 30.67792 61.37303
#
# Poissons Ratio (x) = 0.51527 -0.25377
# Poissons Ratio (y) = 0.88688 0.45933
# Poissons Ratio (z) = -0.21833 0.22960
#
# Static dielectric constant tensor:
#      x y z
#    x 1.650150 0.000000 0.000000 
#    y 0.000000 1.652740 0.000000 
#    z 0.000000 0.000000 1.690520 
# 
# From -- ./inp_files/6209.got.cif
#   From: 2010.05.17/outbox.ucp.g08.bks.cvg/sg71_4_cif.got.tgz:6209.got - 2010.06.11 16:29:00.
