data_PCOD9524503
_publ_section_title
;
Structure prediction by ZEFSAII (Michael W. Deem and Ramdas Pophale) SiO2 
 PCOD9524503
Probable space group: I M M M
;
_chemical_formula_sum "Si O2"
_cell_formula_units_Z 80
_cell_length_a 7.295802
_cell_length_b 13.742113
_cell_length_c 31.224693
_cell_angle_alpha 90.000000
_cell_angle_beta 90.000000
_cell_angle_gamma 90.000000
_cell_volume 3130.579462
_symmetry_space_group_name_H-M "I M M M"
_symmetry_group_IT_number 71
_symmetry_cell_setting 'orthorhombic'
loop_
_space_group_symop_operation_xyz
x,y,z
-x,-y,z
x,-y,-z
-x,y,-z
-x,-y,-z
x,y,-z
-x,y,z
x,-y,z
1/2+x,1/2+y,1/2+z
1/2-x,1/2-y,1/2+z
1/2+x,1/2-y,1/2-z
1/2-x,1/2+y,1/2-z
1/2-x,1/2-y,1/2-z
1/2+x,1/2+y,1/2-z
1/2-x,1/2+y,1/2+z
1/2+x,1/2-y,1/2+z
loop_
_atom_site_type_symbol
_atom_site_label
_atom_site_fract_x
_atom_site_fract_y
_atom_site_fract_z
Si Si1 0.775550 0.699564 0.953685
Si Si2 0.780332 0.615410 0.864115
Si Si3 0.286066 0.608536 0.584937
Si Si4 0.721234 0.883006 0.727784
Si Si5 0.719907 0.114443 0.819821
O O1 0.711397 0.649213 0.910133
O O2 0.715811 0.811407 0.947601
O O3 0.000000 0.695762 0.953201
O O4 0.718552 0.660769 0.000000
O O5 0.751730 0.500000 0.862273
O O6 0.709698 0.654979 0.818186
O O7 0.000000 0.632188 0.863987
O O8 0.500000 0.599005 0.575447
O O9 0.205470 0.500000 0.584123
O O10 0.275647 0.651245 0.633419
O O11 0.500000 0.874559 0.727450
O O12 0.787630 0.844994 0.774076
O O13 0.758276 0.000000 0.728652
O O14 0.500000 0.116690 0.818886
O O15 0.775884 0.000000 0.820829
#
# Coordination Sequence:
#
# PCOD9524503 Si02
#       5
#    16  16  16  16  16
#     4   9  17  27  38  54  77 106 140 174 206 243
#     4   8  13  22  37  57  81 106 131 164 207 249
#     4   9  17  28  41  58  83 114 142 167 199 239
#     4   7  10  18  34  56  79 102 128 159 198 242
#     4   8  13  23  41  62  82 106 137 170 200 234
#
# _framework density 25.554376000000001
#
# number of rings (size 3 to 8) (size 9 to 14) (size 15 to 20)
#    0.000    3.800    0.000    2.400    0.000    0.800 
#    0.000    5.000    0.000    0.600    0.000    2.800 
#    0.000    0.800    0.000    1.800    0.000    2.000 
#
# Total GULP energy -223238.968735 kJ/mol
# GULP energy per Si atom -5580.974218 kJ/mol
# Density = 2.549621 g / cm^3
# Si number density = 25.554376 Si / 1000 Ang^3
#
#
#
# Elastic Constant Matrix: (Units=GPa)
#
#
# Indices 1 2 3 4 5 6 
#
# 1 106.0634 4.6605 -2.5796 0.0000 0.0000 0.0000
# 2 4.6605 25.4776 37.1840 0.0000 0.0000 0.0000
# 3 -2.5796 37.1840 194.0947 0.0000 0.0000 0.0000
# 4 0.0000 0.0000 0.0000 34.7460 0.0000 0.0000
# 5 0.0000 0.0000 0.0000 0.0000 4.0073 0.0000
# 6 0.0000 0.0000 0.0000 0.0000 0.0000 -6.9559
#
#
#
# Elastic Compliance Matrix: (Units=1/GPa)
#
#
# Indices 1 2 3 4 5 6 
#
# 1 0.009562 -0.002685 0.000642 0.000000 0.000000 0.000000
# 2 -0.002685 0.055238 -0.010618 0.000000 0.000000 0.000000
# 3 0.000642 -0.010618 0.007195 0.000000 0.000000 0.000000
# 4 0.000000 0.000000 0.000000 0.028780 0.000000 0.000000
# 5 0.000000 0.000000 0.000000 0.000000 0.249545 0.000000
# 6 0.000000 0.000000 0.000000 0.000000 0.000000 -0.143764
#
#
# Mechanical properties :
#
#
# Convention : Reuss Voigt Hill
#
# Bulk Modulus (GPa) = 21.42658 44.90729 33.16694
# Shear Modulus (GPa) = 20.20717 25.45088 22.82902
#
# Velocity S-wave (km/s) = 2.81508 3.15929 2.99214
# Velocity P-wave (km/s) = 4.35536 5.56053 4.99443
#
# Compressibility (1/GPa) = 0.04667100
#
# Stress axis : x y z
#
# Youngs Moduli (GPa) = 104.58141 18.10345 138.98897
#
# Poissons Ratio (x) = 0.04862 -0.08917
# Poissons Ratio (y) = 0.28085 1.47579
# Poissons Ratio (z) = -0.06709 0.19222
#
# Static dielectric constant tensor:
#      x y z
#    x 2.006750 0.000000 0.000000 
#    y 0.000000 2.043140 0.000000 
#    z 0.000000 0.000000 2.009170 
# 
# From -- ./inp_files/8321.got.cif
#   From: 2010.05.17/outbox.cif.g08.bks.cpg/sg71_5_cif.got.tgz:8321.got - 2010.06.03 16:22:01.
