data_PCOD9524049
_publ_section_title
;
Structure prediction by ZEFSAII (Michael W. Deem and Ramdas Pophale) SiO2 
 PCOD9524049
Probable space group: I M M M
;
_chemical_formula_sum "Si O2"
_cell_formula_units_Z 72
_cell_length_a 13.725589
_cell_length_b 13.974303
_cell_length_c 22.014355
_cell_angle_alpha 90.000000
_cell_angle_beta 90.000000
_cell_angle_gamma 90.000000
_cell_volume 4222.475238
_symmetry_space_group_name_H-M "I M M M"
_symmetry_group_IT_number 71
_symmetry_cell_setting 'orthorhombic'
loop_
_space_group_symop_operation_xyz
x,y,z
-x,-y,z
x,-y,-z
-x,y,-z
-x,-y,-z
x,y,-z
-x,y,z
x,-y,z
1/2+x,1/2+y,1/2+z
1/2-x,1/2-y,1/2+z
1/2+x,1/2-y,1/2-z
1/2-x,1/2+y,1/2-z
1/2-x,1/2-y,1/2-z
1/2+x,1/2+y,1/2-z
1/2-x,1/2+y,1/2+z
1/2+x,1/2-y,1/2+z
loop_
_atom_site_type_symbol
_atom_site_label
_atom_site_fract_x
_atom_site_fract_y
_atom_site_fract_z
Si Si1 0.387709 0.114699 0.819349
Si Si2 0.302653 0.887322 0.687441
Si Si3 0.697012 0.701374 0.623662
Si Si4 0.616601 0.614197 0.500000
Si Si5 0.106226 0.885491 0.756847
O O1 0.500000 0.135288 0.834145
O O2 0.367424 0.133898 0.747572
O O3 0.307349 0.169471 0.859220
O O4 0.371005 0.000000 0.826698
O O5 0.319842 0.814585 0.632839
O O6 0.193471 0.864546 0.711034
O O7 0.311768 0.000000 0.673560
O O8 0.663493 0.660814 0.559716
O O9 0.633066 0.654927 0.677591
O O10 0.634019 0.500000 0.500000
O O11 0.500000 0.629166 0.500000
O O12 0.000000 0.852002 0.736615
O O13 0.104829 0.000000 0.762360
#
# Coordination Sequence:
#
# PCOD9524049 Si02
#       5
#    16  16  16   8  16
#     4   9  17  30  50  77 106 131 157 197 250 302
#     4   9  19  32  47  73 104 131 162 202 245 289
#     4  11  20  32  51  71  98 135 170 201 240 290
#     4  11  24  40  56  74  96 123 160 206 248 286
#     4   9  16  28  50  79 105 127 157 201 250 296
#
# _framework density 17.051608999999999
#
# number of rings (size 3 to 8) (size 9 to 14) (size 15 to 20)
#    0.000    2.333    0.000    6.667    0.000    6.222 
#    0.000    1.111    0.000    2.667    0.000    0.000 
#    0.000    5.333    0.000    0.000    0.000    0.000 
#
# Total GULP energy -200837.335203 kJ/mol
# GULP energy per Si atom -5578.814867 kJ/mol
# Density = 1.701280 g / cm^3
# Si number density = 17.051609 Si / 1000 Ang^3
#
#
#
# Elastic Constant Matrix: (Units=GPa)
#
#
# Indices 1 2 3 4 5 6 
#
# 1 81.6563 31.5781 27.2644 0.0000 0.0000 0.0000
# 2 31.5781 98.3728 73.0666 0.0000 0.0000 0.0000
# 3 27.2644 73.0666 89.3917 0.0000 0.0000 0.0000
# 4 0.0000 0.0000 0.0000 26.2152 0.0000 0.0000
# 5 0.0000 0.0000 0.0000 0.0000 3.1428 0.0000
# 6 0.0000 0.0000 0.0000 0.0000 0.0000 5.6562
#
#
#
# Elastic Compliance Matrix: (Units=1/GPa)
#
#
# Indices 1 2 3 4 5 6 
#
# 1 0.014063 -0.003381 -0.001526 0.000000 0.000000 0.000000
# 2 -0.003381 0.026686 -0.020781 0.000000 0.000000 0.000000
# 3 -0.001526 -0.020781 0.028638 0.000000 0.000000 0.000000
# 4 0.000000 0.000000 0.000000 0.038146 0.000000 0.000000
# 5 0.000000 0.000000 0.000000 0.000000 0.318192 0.000000
# 6 0.000000 0.000000 0.000000 0.000000 0.000000 0.176798
#
#
# Mechanical properties :
#
#
# Convention : Reuss Voigt Hill
#
# Bulk Modulus (GPa) = 55.52035 59.24877 57.38456
# Shear Modulus (GPa) = 7.57686 16.17027 11.87356
#
# Velocity S-wave (km/s) = 2.11024 3.08281 2.64167
# Velocity P-wave (km/s) = 6.21034 6.89157 6.55981
#
# Compressibility (1/GPa) = 0.01801141
#
# Stress axis : x y z
#
# Youngs Moduli (GPa) = 71.10631 37.47248 34.91835
#
# Poissons Ratio (x) = 0.12671 0.05327
# Poissons Ratio (y) = 0.24043 0.72565
# Poissons Ratio (z) = 0.10847 0.77873
#
# Static dielectric constant tensor:
#      x y z
#    x 1.612080 0.000000 0.000000 
#    y 0.000000 1.625070 0.000000 
#    z 0.000000 0.000000 1.522760 
# 
# From -- ./inp_files/34042.got.cif
#   From: 2010.05.17/outbox.cif.g08.bks.cpg/sg71_18_cif.got.tgz:34042.got - 2010.06.03 16:22:01.
