data_PCOD9524478
_publ_section_title
;
Structure prediction by ZEFSAII (Michael W. Deem and Ramdas Pophale) SiO2 
 PCOD9524478
Probable space group: I M M M
;
_chemical_formula_sum "Si O2"
_cell_formula_units_Z 64
_cell_length_a 14.682089
_cell_length_b 8.556382
_cell_length_c 24.831957
_cell_angle_alpha 90.000000
_cell_angle_beta 90.000000
_cell_angle_gamma 90.000000
_cell_volume 3119.528555
_symmetry_space_group_name_H-M "I M M M"
_symmetry_group_IT_number 71
_symmetry_cell_setting 'orthorhombic'
loop_
_space_group_symop_operation_xyz
x,y,z
-x,-y,z
x,-y,-z
-x,y,-z
-x,-y,-z
x,y,-z
-x,y,z
x,-y,z
1/2+x,1/2+y,1/2+z
1/2-x,1/2-y,1/2+z
1/2+x,1/2-y,1/2-z
1/2-x,1/2+y,1/2-z
1/2-x,1/2-y,1/2-z
1/2+x,1/2+y,1/2-z
1/2-x,1/2+y,1/2+z
1/2+x,1/2-y,1/2+z
loop_
_atom_site_type_symbol
_atom_site_label
_atom_site_fract_x
_atom_site_fract_y
_atom_site_fract_z
Si Si1 0.194098 0.684506 0.393559
Si Si2 0.500000 0.820770 0.248328
Si Si3 0.000000 0.182516 0.632603
Si Si4 0.362992 0.184228 0.440765
Si Si5 0.639473 0.681719 0.671537
O O1 0.200787 0.500000 0.405483
O O2 0.254556 0.782286 0.435548
O O3 0.252208 0.709144 0.337827
O O4 0.091620 0.738622 0.389264
O O5 0.500000 0.711099 0.196651
O O6 0.412258 0.784961 0.285255
O O7 0.500000 0.000000 0.230129
O O8 0.000000 0.000000 0.620327
O O9 0.393958 0.233571 0.500000
O O10 0.397326 0.276445 0.388458
O O11 0.381206 0.000000 0.434529
O O12 0.623893 0.500000 0.683468
#
# Coordination Sequence:
#
# PCOD9524478 Si02
#       5
#    16   8   8  16  16
#     4   9  20  37  58  82 114 147 185 230 275 329
#     4  12  24  38  59  82 113 148 186 231 277 331
#     4  12  24  38  59  82 113 148 186 231 277 331
#     4   9  17  33  58  85 114 147 183 225 277 331
#     4   9  20  37  58  82 114 147 185 230 275 329
#
# _framework density 20.515922
#
# number of rings (size 3 to 8) (size 9 to 14) (size 15 to 20)
#    1.500    0.750    0.000    3.750    0.000    3.000 
#    0.000    1.250    0.000    7.500    0.000    0.000 
#    0.000    0.000    0.000    0.000    0.000    0.000 
#
# Total GULP energy -178284.392554 kJ/mol
# GULP energy per Si atom -5571.387267 kJ/mol
# Density = 2.046923 g / cm^3
# Si number density = 20.515922 Si / 1000 Ang^3
#
#
#
# Elastic Constant Matrix: (Units=GPa)
#
#
# Indices 1 2 3 4 5 6 
#
# 1 119.6930 14.1204 -3.1085 0.0000 0.0000 0.0000
# 2 14.1204 56.4154 -18.6267 0.0000 0.0000 0.0000
# 3 -3.1085 -18.6267 32.0633 0.0000 0.0000 0.0000
# 4 0.0000 0.0000 0.0000 24.1471 0.0000 0.0000
# 5 0.0000 0.0000 0.0000 0.0000 10.7536 0.0000
# 6 0.0000 0.0000 0.0000 0.0000 0.0000 23.5181
#
#
#
# Elastic Compliance Matrix: (Units=1/GPa)
#
#
# Indices 1 2 3 4 5 6 
#
# 1 0.008616 -0.002327 -0.000517 0.000000 0.000000 0.000000
# 2 -0.002327 0.022561 0.012881 0.000000 0.000000 0.000000
# 3 -0.000517 0.012881 0.038621 0.000000 0.000000 0.000000
# 4 0.000000 0.000000 0.000000 0.041413 0.000000 0.000000
# 5 0.000000 0.000000 0.000000 0.000000 0.092992 0.000000
# 6 0.000000 0.000000 0.000000 0.000000 0.000000 0.042520
#
#
# Mechanical properties :
#
#
# Convention : Reuss Voigt Hill
#
# Bulk Modulus (GPa) = 11.12687 21.43800 16.28244
# Shear Modulus (GPa) = 19.48508 26.06953 22.77731
#
# Velocity S-wave (km/s) = 3.08515 3.56855 3.33562
# Velocity P-wave (km/s) = 4.25749 5.23942 4.77377
#
# Compressibility (1/GPa) = 0.08987254
#
# Stress axis : x y z
#
# Youngs Moduli (GPa) = 116.06560 44.32433 25.89253
#
# Poissons Ratio (x) = 0.10314 0.01337
# Poissons Ratio (y) = 0.27009 -0.33352
# Poissons Ratio (z) = 0.05995 -0.57094
#
# Static dielectric constant tensor:
#      x y z
#    x 1.786580 0.000000 0.000000 
#    y 0.000000 1.668080 0.000000 
#    z 0.000000 0.000000 1.733210 
# 
# From -- ./inp_files/69675.got.cif
#   From: 2010.05.17/outbox.cif.g08.bks.cpg/sg71_35_cif.got.tgz:69675.got - 2010.06.03 16:22:01.
