data_PCOD9524390
_publ_section_title
;
Structure prediction by ZEFSAII (Michael W. Deem and Ramdas Pophale) SiO2 
 PCOD9524390
Probable space group: I M M M
;
_chemical_formula_sum "Si O2"
_cell_formula_units_Z 64
_cell_length_a 30.297037
_cell_length_b 8.601365
_cell_length_c 12.879644
_cell_angle_alpha 90.000000
_cell_angle_beta 90.000000
_cell_angle_gamma 90.000000
_cell_volume 3356.382081
_symmetry_space_group_name_H-M "I M M M"
_symmetry_group_IT_number 71
_symmetry_cell_setting 'orthorhombic'
loop_
_space_group_symop_operation_xyz
x,y,z
-x,-y,z
x,-y,-z
-x,y,-z
-x,-y,-z
x,y,-z
-x,y,z
x,-y,z
1/2+x,1/2+y,1/2+z
1/2-x,1/2-y,1/2+z
1/2+x,1/2-y,1/2-z
1/2-x,1/2+y,1/2-z
1/2-x,1/2-y,1/2-z
1/2+x,1/2+y,1/2-z
1/2-x,1/2+y,1/2+z
1/2+x,1/2-y,1/2+z
loop_
_atom_site_type_symbol
_atom_site_label
_atom_site_fract_x
_atom_site_fract_y
_atom_site_fract_z
Si Si1 0.500000 0.187203 0.623197
Si Si2 0.946955 0.682676 0.500000
Si Si3 0.748609 0.681097 0.115613
Si Si4 0.323957 0.313817 0.276288
Si Si5 0.577381 0.687777 0.772490
O O1 0.500000 0.234888 0.500000
O O2 0.458161 0.247440 0.690167
O O3 0.500000 0.000000 0.625037
O O4 0.935384 0.500000 0.500000
O O5 0.930862 0.757508 0.391335
O O6 0.000000 0.696434 0.500000
O O7 0.755694 0.500000 0.142522
O O8 0.709860 0.746076 0.187969
O O9 0.795638 0.764708 0.124573
O O10 0.731572 0.689097 0.000000
O O11 0.325750 0.500000 0.269046
O O12 0.373691 0.259161 0.262538
O O13 0.574902 0.500000 0.770921
#
# Coordination Sequence:
#
# PCOD9524390 Si02
#       5
#     8   8  16  16  16
#     4  11  25  44  63  84 117 157 195 243 294 347
#     4  11  23  39  61  89 124 156 188 240 294 351
#     4   9  18  34  56  79 110 151 189 229 278 335
#     4   9  20  36  55  82 114 146 185 235 282 332
#     4  11  23  39  63  90 117 154 197 243 294 348
#
# _framework density 19.068151
#
# number of rings (size 3 to 8) (size 9 to 14) (size 15 to 20)
#    0.000    2.000    1.250    1.500    1.750    5.000 
#    0.000    5.000    0.000    0.000    0.000    0.000 
#    0.000    0.000    0.000    0.000    0.000    0.000 
#
# Total GULP energy -178286.677220 kJ/mol
# GULP energy per Si atom -5571.458663 kJ/mol
# Density = 1.902475 g / cm^3
# Si number density = 19.068151 Si / 1000 Ang^3
#
#
#
# Elastic Constant Matrix: (Units=GPa)
#
#
# Indices 1 2 3 4 5 6 
#
# 1 158.6486 29.9538 58.7424 0.0000 0.0000 0.0000
# 2 29.9538 38.0047 30.2101 0.0000 0.0000 0.0000
# 3 58.7424 30.2101 122.4927 0.0000 0.0000 0.0000
# 4 0.0000 0.0000 0.0000 26.8207 0.0000 0.0000
# 5 0.0000 0.0000 0.0000 0.0000 15.2442 0.0000
# 6 0.0000 0.0000 0.0000 0.0000 0.0000 24.6780
#
#
#
# Elastic Compliance Matrix: (Units=1/GPa)
#
#
# Indices 1 2 3 4 5 6 
#
# 1 0.008153 -0.004127 -0.002892 0.000000 0.000000 0.000000
# 2 -0.004127 0.034818 -0.006608 0.000000 0.000000 0.000000
# 3 -0.002892 -0.006608 0.011180 0.000000 0.000000 0.000000
# 4 0.000000 0.000000 0.000000 0.037285 0.000000 0.000000
# 5 0.000000 0.000000 0.000000 0.000000 0.065599 0.000000
# 6 0.000000 0.000000 0.000000 0.000000 0.000000 0.040522
#
#
# Mechanical properties :
#
#
# Convention : Reuss Voigt Hill
#
# Bulk Modulus (GPa) = 37.17829 61.88429 49.53129
# Shear Modulus (GPa) = 21.38787 26.69787 24.04287
#
# Velocity S-wave (km/s) = 3.35274 3.74589 3.55476
# Velocity P-wave (km/s) = 5.87603 7.15777 6.54834
#
# Compressibility (1/GPa) = 0.02689742
#
# Stress axis : x y z
#
# Youngs Moduli (GPa) = 122.64926 28.72075 89.44241
#
# Poissons Ratio (x) = 0.11854 0.25868
# Poissons Ratio (y) = 0.50619 0.59102
# Poissons Ratio (z) = 0.35472 0.18978
#
# Static dielectric constant tensor:
#      x y z
#    x 1.663420 0.000000 0.000000 
#    y 0.000000 1.676560 0.000000 
#    z 0.000000 0.000000 1.706880 
# 
# From -- ./inp_files/29453.got.cif
#   From: 2010.05.17/outbox.cif.g08.bks.cpg/sg71_15_cif.got.tgz:29453.got - 2010.06.03 16:22:01.
