data_PCOD9524832
_publ_section_title
;
Structure prediction by ZEFSAII (Michael W. Deem and Ramdas Pophale) SiO2 
 PCOD9524832
Probable space group: I M M M
;
_chemical_formula_sum "Si O2"
_cell_formula_units_Z 44
_cell_length_a 9.000000
_cell_length_b 24.000000
_cell_length_c 21.000000
_cell_angle_alpha 90.000000
_cell_angle_beta 90.000000
_cell_angle_gamma 90.000000
_cell_volume 4536.000000
_symmetry_space_group_name_H-M "I M M M"
_symmetry_group_IT_number 71
_symmetry_cell_setting 'orthorhombic'
loop_
_space_group_symop_operation_xyz
x,y,z
-x,-y,z
x,-y,-z
-x,y,-z
-x,-y,-z
x,y,-z
-x,y,z
x,-y,z
1/2+x,1/2+y,1/2+z
1/2-x,1/2-y,1/2+z
1/2+x,1/2-y,1/2-z
1/2-x,1/2+y,1/2-z
1/2-x,1/2-y,1/2-z
1/2+x,1/2+y,1/2-z
1/2-x,1/2+y,1/2+z
1/2+x,1/2-y,1/2+z
loop_
_atom_site_type_symbol
_atom_site_label
_atom_site_fract_x
_atom_site_fract_y
_atom_site_fract_z
Si Si1 0.163764 0.329656 0.073911
Si Si2 0.667503 0.062304 0.268042
Si Si3 0.672876 0.500000 0.576336
Si Si4 0.826239 0.939863 0.397361
Si Si5 0.174256 0.391641 0.634928
Si Si6 0.179777 0.786637 0.926420
O O1 0.253511 0.385697 0.074806
O O2 0.232272 0.273143 0.100878
O O3 0.000000 0.339033 0.101539
O O4 0.146371 0.314879 0.000000
O O5 0.500000 0.068306 0.294874
O O6 0.787902 0.064843 0.322840
O O7 0.689544 0.103761 0.210836
O O8 0.673111 0.000000 0.239851
O O9 0.500000 0.500000 0.595477
O O10 0.680536 0.500000 0.500000
O O11 0.751003 0.554909 0.602865
O O12 0.000000 0.939714 0.409279
O O13 0.764944 0.000000 0.418887
O O14 0.254407 0.337040 0.611581
O O15 0.000000 0.391361 0.619527
O O16 0.000000 0.786110 0.923868
O O17 0.224799 0.794734 0.000000
#
# Coordination Sequence:
#
# PCOD9524832 Si02
#       6
#    16  16   8  16  16  16
#     4   9  19  37  59  80 105 141 180 214 255 316
#     4   9  18  35  54  73 103 141 178 217 263 314
#     4  11  23  35  49  73 107 145 182 223 270 317
#     4  10  21  35  54  83 112 136 169 216 268 317
#     4  11  21  34  53  79 106 137 181 227 271 314
#     4   9  19  36  55  76 105 141 180 219 263 318
#
# _framework density 9.7001760000000008
#
# number of rings (size 3 to 8) (size 9 to 14) (size 15 to 20)
#    0.000    2.273    0.909    3.000    0.000    7.273 
#    0.000    4.545    0.000    0.000    0.000    0.000 
#    0.000    0.000    0.000    0.000    0.000    0.000 
#
# Total GULP energy -244976.253278 kJ/mol
# GULP energy per Si atom -5567.642120 kJ/mol
# Density = 0.967810 g / cm^3
# Si number density = 9.700176 Si / 1000 Ang^3
#
#
#
# Elastic Constant Matrix: (Units=GPa)
#
#
# Indices 1 2 3 4 5 6 
#
# 1 27.6771 50.1535 12.6828 0.0000 0.0000 0.0000
# 2 50.1535 176.1916 39.1809 0.0000 0.0000 0.0000
# 3 12.6828 39.1809 24.9599 0.0000 0.0000 0.0000
# 4 0.0000 0.0000 0.0000 38.5497 0.0000 0.0000
# 5 0.0000 0.0000 0.0000 0.0000 23.5933 0.0000
# 6 0.0000 0.0000 0.0000 0.0000 0.0000 41.3209
#
#
#
# Elastic Compliance Matrix: (Units=1/GPa)
#
#
# Indices 1 2 3 4 5 6 
#
# 1 0.075433 -0.019893 -0.007103 0.000000 0.000000 0.000000
# 2 -0.019893 0.013965 -0.011814 0.000000 0.000000 0.000000
# 3 -0.007103 -0.011814 0.062219 0.000000 0.000000 0.000000
# 4 0.000000 0.000000 0.000000 0.025941 0.000000 0.000000
# 5 0.000000 0.000000 0.000000 0.000000 0.042385 0.000000
# 6 0.000000 0.000000 0.000000 0.000000 0.000000 0.024201
#
#
# Mechanical properties :
#
#
# Convention : Reuss Voigt Hill
#
# Bulk Modulus (GPa) = 13.51389 48.09587 30.80488
# Shear Modulus (GPa) = 14.43297 29.14689 21.78993
#
# Velocity S-wave (km/s) = 2.73051 3.88027 3.35501
# Velocity P-wave (km/s) = 4.11362 6.70227 5.56068
#
# Compressibility (1/GPa) = 0.07399791
#
# Stress axis : x y z
#
# Youngs Moduli (GPa) = 13.25673 71.60560 16.07235
#
# Poissons Ratio (x) = 1.42444 0.11416
# Poissons Ratio (y) = 0.26371 0.18988
# Poissons Ratio (z) = 0.09416 0.84596
#
# Static dielectric constant tensor:
#      x y z
#    x 1.670590 0.000000 0.000000 
#    y 0.000000 1.746610 0.000000 
#    z 0.000000 0.000000 1.704930 
# 
# From -- ./inp_files/10417.got.cif
#   From: 2010.05.17/outbox.ucp.g08.bks.cvg/sg71_6_cif.got.tgz:10417.got - 2010.06.11 16:29:00.
