data_PCOD9524087
_publ_section_title
;
Structure prediction by ZEFSAII (Michael W. Deem and Ramdas Pophale) SiO2 
 PCOD9524087
Probable space group: I M M M
;
_chemical_formula_sum "Si O2"
_cell_formula_units_Z 72
_cell_length_a 24.489984
_cell_length_b 10.168996
_cell_length_c 16.377769
_cell_angle_alpha 90.000000
_cell_angle_beta 90.000000
_cell_angle_gamma 90.000000
_cell_volume 4078.695833
_symmetry_space_group_name_H-M "I M M M"
_symmetry_group_IT_number 71
_symmetry_cell_setting 'orthorhombic'
loop_
_space_group_symop_operation_xyz
x,y,z
-x,-y,z
x,-y,-z
-x,y,-z
-x,-y,-z
x,y,-z
-x,y,z
x,-y,z
1/2+x,1/2+y,1/2+z
1/2-x,1/2-y,1/2+z
1/2+x,1/2-y,1/2-z
1/2-x,1/2+y,1/2-z
1/2-x,1/2-y,1/2-z
1/2+x,1/2+y,1/2-z
1/2-x,1/2+y,1/2+z
1/2+x,1/2-y,1/2+z
loop_
_atom_site_type_symbol
_atom_site_label
_atom_site_fract_x
_atom_site_fract_y
_atom_site_fract_z
Si Si1 0.435065 0.000000 0.094333
Si Si2 0.062856 0.160155 0.000000
Si Si3 0.875605 0.253521 0.333830
Si Si4 0.862703 0.843517 0.150910
Si Si5 0.936550 0.000000 0.597684
Si Si6 0.258509 0.842935 0.171027
O O1 0.413092 0.874017 0.141147
O O2 0.500000 0.000000 0.092860
O O3 0.415678 0.000000 0.000000
O O4 0.096034 0.200347 0.919340
O O5 0.000000 0.203396 0.000000
O O6 0.063042 0.000000 0.000000
O O7 0.871483 0.230711 0.236371
O O8 0.903225 0.125505 0.371590
O O9 0.814719 0.288684 0.366076
O O10 0.799157 0.830055 0.124433
O O11 0.871214 0.000000 0.166373
O O12 0.938139 0.000000 0.500000
O O13 0.000000 0.000000 0.626832
O O14 0.250000 0.750000 0.250000
O O15 0.265102 0.000000 0.189911
#
# Coordination Sequence:
#
# PCOD9524087 Si02
#       6
#     8   8  16  16   8  16
#     4  11  24  40  55  81 119 151 188 242 297 353
#     4   9  18  32  52  83 119 147 184 241 285 329
#     4  11  20  38  60  85 112 152 202 239 292 365
#     4   9  18  35  56  84 115 149 189 238 288 342
#     4  11  24  40  57  81 117 155 198 252 301 351
#     4   9  18  33  57  84 116 148 186 240 294 345
#
# _framework density 17.652702000000001
#
# number of rings (size 3 to 8) (size 9 to 14) (size 15 to 20)
#    0.000    2.111    2.222    1.333    1.556    3.556 
#    4.000    0.000    0.000    0.667    0.000    1.556 
#    0.000    0.000    0.000    0.000    0.000    0.000 
#
# Total GULP energy -200584.753919 kJ/mol
# GULP energy per Si atom -5571.798720 kJ/mol
# Density = 1.761252 g / cm^3
# Si number density = 17.652702 Si / 1000 Ang^3
#
#
#
# Elastic Constant Matrix: (Units=GPa)
#
#
# Indices 1 2 3 4 5 6 
#
# 1 164.6059 64.3920 64.1453 0.0000 0.0000 0.0000
# 2 64.3920 120.0738 32.1560 0.0000 0.0000 0.0000
# 3 64.1453 32.1560 84.4170 0.0000 0.0000 0.0000
# 4 0.0000 0.0000 0.0000 10.5411 0.0000 0.0000
# 5 0.0000 0.0000 0.0000 0.0000 13.7697 0.0000
# 6 0.0000 0.0000 0.0000 0.0000 0.0000 25.6290
#
#
#
# Elastic Compliance Matrix: (Units=1/GPa)
#
#
# Indices 1 2 3 4 5 6 
#
# 1 0.009895 -0.003667 -0.006122 0.000000 0.000000 0.000000
# 2 -0.003667 0.010633 -0.001264 0.000000 0.000000 0.000000
# 3 -0.006122 -0.001264 0.016980 0.000000 0.000000 0.000000
# 4 0.000000 0.000000 0.000000 0.094866 0.000000 0.000000
# 5 0.000000 0.000000 0.000000 0.000000 0.072623 0.000000
# 6 0.000000 0.000000 0.000000 0.000000 0.000000 0.039018
#
#
# Mechanical properties :
#
#
# Convention : Reuss Voigt Hill
#
# Bulk Modulus (GPa) = 64.92841 76.72037 70.82439
# Shear Modulus (GPa) = 18.43271 23.88152 21.15712
#
# Velocity S-wave (km/s) = 3.23489 3.68211 3.46572
# Velocity P-wave (km/s) = 7.12836 7.85064 7.49820
#
# Compressibility (1/GPa) = 0.01540158
#
# Stress axis : x y z
#
# Youngs Moduli (GPa) = 101.05667 94.04475 58.89442
#
# Poissons Ratio (x) = 0.34487 0.36057
# Poissons Ratio (y) = 0.37058 0.07444
# Poissons Ratio (z) = 0.61870 0.11887
#
# Static dielectric constant tensor:
#      x y z
#    x 1.638230 0.000000 0.000000 
#    y 0.000000 1.571020 0.000000 
#    z 0.000000 0.000000 1.592940 
# 
# From -- ./inp_files/39982.got.cif
#   From: 2010.05.17/outbox.cif.g08.bks.cpg/sg71_20_cif.got.tgz:39982.got - 2010.06.03 16:22:01.
