data_PCOD9524693
_publ_section_title
;
Structure prediction by ZEFSAII (Michael W. Deem and Ramdas Pophale) SiO2 
 PCOD9524693
Probable space group: I M M M
;
_chemical_formula_sum "Si O2"
_cell_formula_units_Z 52
_cell_length_a 9.000000
_cell_length_b 27.000000
_cell_length_c 21.000000
_cell_angle_alpha 90.000000
_cell_angle_beta 90.000000
_cell_angle_gamma 90.000000
_cell_volume 5103.000000
_symmetry_space_group_name_H-M "I M M M"
_symmetry_group_IT_number 71
_symmetry_cell_setting 'orthorhombic'
loop_
_space_group_symop_operation_xyz
x,y,z
-x,-y,z
x,-y,-z
-x,y,-z
-x,-y,-z
x,y,-z
-x,y,z
x,-y,z
1/2+x,1/2+y,1/2+z
1/2-x,1/2-y,1/2+z
1/2+x,1/2-y,1/2-z
1/2-x,1/2+y,1/2-z
1/2-x,1/2-y,1/2-z
1/2+x,1/2+y,1/2-z
1/2-x,1/2+y,1/2+z
1/2+x,1/2-y,1/2+z
loop_
_atom_site_type_symbol
_atom_site_label
_atom_site_fract_x
_atom_site_fract_y
_atom_site_fract_z
Si Si1 0.667991 0.054185 0.613152
Si Si2 0.673852 0.097200 0.140334
Si Si3 0.333726 0.558403 0.242108
Si Si4 0.171973 0.793397 0.679703
Si Si5 0.173910 0.500000 0.424921
Si Si6 0.168530 0.659068 0.930539
Si Si7 0.174504 0.189522 0.178688
O O1 0.500000 0.054366 0.641253
O O2 0.784184 0.062234 0.669558
O O3 0.672962 0.099911 0.566770
O O4 0.691557 0.000000 0.584600
O O5 0.500000 0.102130 0.128330
O O6 0.711631 0.081483 0.212191
O O7 0.749573 0.150009 0.133164
O O8 0.738502 0.051434 0.100197
O O9 0.500000 0.579046 0.252983
O O10 0.338156 0.500000 0.256838
O O11 0.209857 0.826506 0.620162
O O12 0.211811 0.819169 0.746412
O O13 0.267435 0.744501 0.669304
O O14 0.000000 0.779751 0.684044
O O15 0.175703 0.500000 0.500000
O O16 0.000000 0.500000 0.403036
O O17 0.000000 0.672532 0.909423
O O18 0.193738 0.680900 0.000000
O O19 0.000000 0.186973 0.170657
#
# Coordination Sequence:
#
# PCOD9524693 Si02
#       7
#    16  16  16  16   8  16  16
#     4   9  18  32  51  76 107 143 186 230 270 319
#     4  11  20  33  56  83 110 144 186 227 274 334
#     4  10  19  30  47  74 109 143 176 220 272 321
#     4  10  21  38  59  84 112 145 186 230 282 339
#     4   9  20  38  57  79 111 151 192 233 274 325
#     4  10  21  36  54  77 108 148 188 228 276 325
#     4  10  21  37  60  88 116 142 176 229 290 343
#
# _framework density 10.190084000000001
#
# number of rings (size 3 to 8) (size 9 to 14) (size 15 to 20)
#    0.000    2.077    0.769    2.769    0.000    6.154 
#    0.000    2.308    0.000    6.462    0.000    3.231 
#    0.000    0.000    0.000    0.000    0.000    0.000 
#
# Total GULP energy -289665.067976 kJ/mol
# GULP energy per Si atom -5570.482076 kJ/mol
# Density = 1.016689 g / cm^3
# Si number density = 10.190084 Si / 1000 Ang^3
#
#
#
# Elastic Constant Matrix: (Units=GPa)
#
#
# Indices 1 2 3 4 5 6 
#
# 1 23.8654 30.3731 4.6657 0.0000 0.0000 0.0000
# 2 30.3731 76.8612 30.4632 0.0000 0.0000 0.0000
# 3 4.6657 30.4632 14.5674 -0.0001 0.0000 0.0001
# 4 0.0000 0.0000 -0.0001 0.4088 0.0000 0.0000
# 5 0.0000 0.0000 0.0000 0.0000 39.2635 0.0001
# 6 0.0000 0.0000 0.0001 0.0000 0.0001 -17.2695
#
#
#
# Elastic Compliance Matrix: (Units=1/GPa)
#
#
# Indices 1 2 3 4 5 6 
#
# 1 -0.100676 0.157752 -0.297643 -0.000039 0.000000 -0.000001
# 2 0.157752 -0.171179 0.307442 0.000039 0.000000 0.000001
# 3 -0.297643 0.307442 -0.478941 -0.000060 0.000000 -0.000002
# 4 -0.000039 0.000039 -0.000060 2.446168 0.000000 0.000007
# 5 0.000000 0.000000 0.000000 0.000000 0.025469 0.000000
# 6 -0.000001 0.000001 -0.000002 0.000007 0.000000 -0.057906
#
#
# Mechanical properties :
#
#
# Convention : Reuss Voigt Hill
#
# Bulk Modulus (GPa) = -2.40561 27.36644 12.48041
# Shear Modulus (GPa) = 4.20427 7.80003 6.00215
#
# Velocity S-wave (km/s) = 1.43785 1.95846 1.71799
# Velocity P-wave (km/s) = 1.25443 4.30943 3.17371
#
# Compressibility (1/GPa) = -0.41569474
#
# Stress axis : x y z
#
# Youngs Moduli (GPa) = -9.93281 -5.84183 -2.08794
#
# Poissons Ratio (x) = 0.92156 -0.62146
# Poissons Ratio (y) = 1.56692 0.64192
# Poissons Ratio (z) = -2.95643 1.79602
#
# Static dielectric constant tensor:
#      x y z
#    x 1.720530 0.000000 0.000000 
#    y 0.000000 1.791130 0.000000 
#    z 0.000000 0.000000 1.702600 
# 
# From -- ./inp_files/50935.got.cif
#   From: 2010.05.17/outbox.ucp.g08.bks.cvg/sg71_26_cif.got.tgz:50935.got - 2010.06.11 16:29:00.
