data_PCOD9524084
_publ_section_title
;
Structure prediction by ZEFSAII (Michael W. Deem and Ramdas Pophale) SiO2 
 PCOD9524084
Probable space group: I M M M
;
_chemical_formula_sum "Si O2"
_cell_formula_units_Z 92
_cell_length_a 19.351515
_cell_length_b 14.890130
_cell_length_c 17.114684
_cell_angle_alpha 90.000000
_cell_angle_beta 90.000000
_cell_angle_gamma 90.000000
_cell_volume 4931.537560
_symmetry_space_group_name_H-M "I M M M"
_symmetry_group_IT_number 71
_symmetry_cell_setting 'orthorhombic'
loop_
_space_group_symop_operation_xyz
x,y,z
-x,-y,z
x,-y,-z
-x,y,-z
-x,-y,-z
x,y,-z
-x,y,z
x,-y,z
1/2+x,1/2+y,1/2+z
1/2-x,1/2-y,1/2+z
1/2+x,1/2-y,1/2-z
1/2-x,1/2+y,1/2-z
1/2-x,1/2-y,1/2-z
1/2+x,1/2+y,1/2-z
1/2-x,1/2+y,1/2+z
1/2+x,1/2-y,1/2+z
loop_
_atom_site_type_symbol
_atom_site_label
_atom_site_fract_x
_atom_site_fract_y
_atom_site_fract_z
Si Si1 0.211622 0.396455 0.322386
Si Si2 0.625914 0.369402 0.352732
Si Si3 0.078423 0.101180 0.317236
Si Si4 0.102353 0.000000 0.000000
Si Si5 0.079564 0.500000 0.093411
Si Si6 0.816872 0.222694 0.410456
Si Si7 0.667999 0.831391 0.349624
O O1 0.188508 0.500000 0.327730
O O2 0.294581 0.395025 0.331884
O O3 0.184722 0.327912 0.387936
O O4 0.189923 0.353155 0.239682
O O5 0.582555 0.394381 0.276493
O O6 0.604536 0.421945 0.430468
O O7 0.627017 0.261727 0.359312
O O8 0.130953 0.171255 0.353991
O O9 0.000000 0.118640 0.342274
O O10 0.098180 0.000000 0.341198
O O11 0.121832 0.586835 0.121214
O O12 0.000000 0.500000 0.122111
O O13 0.077921 0.500000 0.000000
O O14 0.836038 0.209702 0.500000
O O15 0.740095 0.183507 0.395142
#
# Coordination Sequence:
#
# PCOD9524084 Si02
#       7
#    16  16  16   4   8  16  16
#     4  11  20  37  65  94 128 162 211 260 312 378
#     4  11  22  39  60  96 129 165 206 255 320 381
#     4  11  23  42  63  85 124 169 208 260 321 381
#     4  12  24  34  69  94 132 164 201 268 320 390
#     4  11  26  43  60  92 128 163 206 261 321 378
#     4  11  24  39  63  97 125 162 215 265 322 376
#     4  11  22  40  66  92 124 168 214 259 306 381
#
# _framework density 18.655439000000001
#
# number of rings (size 3 to 8) (size 9 to 14) (size 15 to 20)
#    0.000    0.957    6.087    1.565    7.304    1.739 
#    0.000    1.739    0.000    0.000    0.000    1.217 
#    0.000    0.000    0.000    0.000    0.000    0.000 
#
# Total GULP energy -256411.726552 kJ/mol
# GULP energy per Si atom -5574.167969 kJ/mol
# Density = 1.861298 g / cm^3
# Si number density = 18.655439 Si / 1000 Ang^3
#
#
#
# Elastic Constant Matrix: (Units=GPa)
#
#
# Indices 1 2 3 4 5 6 
#
# 1 34.3470 43.7839 14.5463 0.0000 0.0000 0.0000
# 2 43.7839 172.8943 29.9660 0.0000 0.0000 0.0000
# 3 14.5463 29.9660 106.1213 0.0000 0.0000 0.0000
# 4 0.0000 0.0000 0.0000 31.4535 0.0000 0.0000
# 5 0.0000 0.0000 0.0000 0.0000 1.8448 0.0000
# 6 0.0000 0.0000 0.0000 0.0000 0.0000 -78.2854
#
#
#
# Elastic Compliance Matrix: (Units=1/GPa)
#
#
# Indices 1 2 3 4 5 6 
#
# 1 0.043899 -0.010593 -0.003026 0.000000 0.000000 0.000000
# 2 -0.010593 0.008637 -0.000987 0.000000 0.000000 0.000000
# 3 -0.003026 -0.000987 0.010117 0.000000 0.000000 0.000000
# 4 0.000000 0.000000 0.000000 0.031793 0.000000 0.000000
# 5 0.000000 0.000000 0.000000 0.000000 0.542051 0.000000
# 6 0.000000 0.000000 0.000000 0.000000 0.000000 -0.012774
#
#
# Mechanical properties :
#
#
# Convention : Reuss Voigt Hill
#
# Bulk Modulus (GPa) = 29.90291 54.43944 42.17117
# Shear Modulus (GPa) = 7.52919 6.00703 6.76811
#
# Velocity S-wave (km/s) = 2.01114 1.79638 1.90679
# Velocity P-wave (km/s) = 4.63214 5.79202 5.24425
#
# Compressibility (1/GPa) = 0.03344156
#
# Stress axis : x y z
#
# Youngs Moduli (GPa) = 22.77943 115.77520 98.84630
#
# Poissons Ratio (x) = 1.22636 0.29914
# Poissons Ratio (y) = 0.24129 0.09757
# Poissons Ratio (z) = 0.06894 0.11427
#
# Static dielectric constant tensor:
#      x y z
#    x 1.627340 0.000000 0.000000 
#    y 0.000000 1.655010 0.000000 
#    z 0.000000 0.000000 1.630740 
# 
# From -- ./inp_files/37861.got.cif
#   From: 2010.05.17/outbox.cif.g08.bks.cpg/sg71_19_cif.got.tgz:37861.got - 2010.06.03 16:22:01.
