data_PCOD9524582
_publ_section_title
;
Structure prediction by ZEFSAII (Michael W. Deem and Ramdas Pophale) SiO2 
 PCOD9524582
Probable space group: I M M M
;
_chemical_formula_sum "Si O2"
_cell_formula_units_Z 88
_cell_length_a 26.516940
_cell_length_b 18.192815
_cell_length_c 7.419308
_cell_angle_alpha 90.000000
_cell_angle_beta 90.000000
_cell_angle_gamma 90.000000
_cell_volume 3579.206123
_symmetry_space_group_name_H-M "I M M M"
_symmetry_group_IT_number 71
_symmetry_cell_setting 'orthorhombic'
loop_
_space_group_symop_operation_xyz
x,y,z
-x,-y,z
x,-y,-z
-x,y,-z
-x,-y,-z
x,y,-z
-x,y,z
x,-y,z
1/2+x,1/2+y,1/2+z
1/2-x,1/2-y,1/2+z
1/2+x,1/2-y,1/2-z
1/2-x,1/2+y,1/2-z
1/2-x,1/2-y,1/2-z
1/2+x,1/2+y,1/2-z
1/2-x,1/2+y,1/2+z
1/2+x,1/2-y,1/2+z
loop_
_atom_site_type_symbol
_atom_site_label
_atom_site_fract_x
_atom_site_fract_y
_atom_site_fract_z
Si Si1 0.775021 0.919634 0.720483
Si Si2 0.938077 0.915549 0.500000
Si Si3 0.559561 0.696299 0.299200
Si Si4 0.808262 0.768508 0.286773
Si Si5 0.838055 0.611206 0.204440
Si Si6 0.944085 0.365857 0.778931
O O1 0.773215 0.914455 0.500000
O O2 0.809433 0.851955 0.780346
O O3 0.716299 0.911304 0.783029
O O4 0.793315 0.000000 0.770369
O O5 0.920565 0.866590 0.668675
O O6 0.000000 0.917083 0.500000
O O7 0.920802 0.000000 0.500000
O O8 0.581185 0.694453 0.500000
O O9 0.500000 0.680948 0.314278
O O10 0.560602 0.779723 0.226038
O O11 0.818830 0.765807 0.500000
O O12 0.750000 0.750000 0.250000
O O13 0.836676 0.700310 0.200818
O O14 0.893114 0.593568 0.282915
O O15 0.837626 0.583548 0.000000
O O16 0.000000 0.392053 0.724550
O O17 0.943534 0.366837 0.000000
#
# Coordination Sequence:
#
# PCOD9524582 Si02
#       6
#    16   8  16  16  16  16
#     4   8  14  25  43  67  93 121 149 177 221 282
#     4   9  16  24  36  56  78 100 135 183 231 283
#     4   8  14  25  39  55  78 108 143 185 232 278
#     4   9  16  27  44  66  92 120 150 187 228 274
#     4   9  16  27  46  69  92 119 153 195 230 267
#     4   8  14  26  44  64  86 116 152 189 235 280
#
# _framework density 24.586455999999998
#
# number of rings (size 3 to 8) (size 9 to 14) (size 15 to 20)
#    0.000    3.545    0.000    2.727    0.000    0.364 
#    1.636    1.818    0.000   15.273    0.000    6.364 
#    0.000    0.000    0.000    6.545    0.000    7.273 
#
# Total GULP energy -245369.701744 kJ/mol
# GULP energy per Si atom -5576.584131 kJ/mol
# Density = 2.453050 g / cm^3
# Si number density = 24.586456 Si / 1000 Ang^3
#
#
#
# Elastic Constant Matrix: (Units=GPa)
#
#
# Indices 1 2 3 4 5 6 
#
# 1 109.8213 9.6741 -1.6466 0.0000 0.0000 0.0000
# 2 9.6741 118.0334 12.7483 0.0000 0.0000 0.0000
# 3 -1.6466 12.7483 89.8237 0.0000 0.0000 0.0000
# 4 0.0000 0.0000 0.0000 -0.4881 0.0000 0.0000
# 5 0.0000 0.0000 0.0000 0.0000 -0.8258 0.0000
# 6 0.0000 0.0000 0.0000 0.0000 0.0000 1.4727
#
#
#
# Elastic Compliance Matrix: (Units=1/GPa)
#
#
# Indices 1 2 3 4 5 6 
#
# 1 0.009179 -0.000782 0.000279 0.000000 0.000000 0.000000
# 2 -0.000782 0.008671 -0.001245 0.000000 0.000000 0.000000
# 3 0.000279 -0.001245 0.011315 0.000000 0.000000 0.000000
# 4 0.000000 0.000000 0.000000 -2.048947 0.000000 0.000000
# 5 0.000000 0.000000 0.000000 0.000000 -1.210930 0.000000
# 6 0.000000 0.000000 0.000000 0.000000 0.000000 0.679046
#
#
# Mechanical properties :
#
#
# Convention : Reuss Voigt Hill
#
# Bulk Modulus (GPa) = 38.95885 39.91443 39.43664
# Shear Modulus (GPa) = -1.96880 19.82527 8.92823
#
# Velocity S-wave (km/s) = -0.89583 2.84271 1.90768
# Velocity P-wave (km/s) = 3.84838 5.20041 4.57462
#
# Compressibility (1/GPa) = 0.02566811
#
# Stress axis : x y z
#
# Youngs Moduli (GPa) = 108.94655 115.32998 88.38040
#
# Poissons Ratio (x) = 0.09024 -0.02469
# Poissons Ratio (y) = 0.08525 0.11003
# Poissons Ratio (z) = -0.03043 0.14358
#
# Static dielectric constant tensor:
#      x y z
#    x 1.937770 0.000000 0.000000 
#    y 0.000000 1.923280 0.000000 
#    z 0.000000 0.000000 1.406320 
# 
# From -- ./inp_files/16863.got.cif
#   From: 2010.05.17/outbox.cif.g08.bks.cpg/sg71_9_cif.got.tgz:16863.got - 2010.06.03 16:22:01.
