data_PCOD9524669
_publ_section_title
;
Structure prediction by ZEFSAII (Michael W. Deem and Ramdas Pophale) SiO2 
 PCOD9524669
Probable space group: I M M M
;
_chemical_formula_sum "Si O2"
_cell_formula_units_Z 52
_cell_length_a 30.000000
_cell_length_b 24.000000
_cell_length_c 9.000000
_cell_angle_alpha 90.000000
_cell_angle_beta 90.000000
_cell_angle_gamma 90.000000
_cell_volume 6480.000000
_symmetry_space_group_name_H-M "I M M M"
_symmetry_group_IT_number 71
_symmetry_cell_setting 'orthorhombic'
loop_
_space_group_symop_operation_xyz
x,y,z
-x,-y,z
x,-y,-z
-x,y,-z
-x,-y,-z
x,y,-z
-x,y,z
x,-y,z
1/2+x,1/2+y,1/2+z
1/2-x,1/2-y,1/2+z
1/2+x,1/2-y,1/2-z
1/2-x,1/2+y,1/2-z
1/2-x,1/2-y,1/2-z
1/2+x,1/2+y,1/2-z
1/2-x,1/2+y,1/2+z
1/2+x,1/2-y,1/2+z
loop_
_atom_site_type_symbol
_atom_site_label
_atom_site_fract_x
_atom_site_fract_y
_atom_site_fract_z
Si Si1 0.447650 0.216395 0.179000
Si Si2 0.385372 0.564651 0.679917
Si Si3 0.286249 0.567595 0.329802
Si Si4 0.102413 0.387304 0.820119
Si Si5 0.552700 0.342952 0.822167
Si Si6 0.051111 0.500000 0.180751
Si Si7 0.695644 0.064847 0.678335
O O1 0.500000 0.208917 0.217642
O O2 0.418928 0.167873 0.252255
O O3 0.434511 0.279641 0.222726
O O4 0.444397 0.213103 0.000000
O O5 0.385593 0.565313 0.500000
O O6 0.393595 0.500000 0.724867
O O7 0.335326 0.582119 0.728356
O O8 0.420168 0.608527 0.742857
O O9 0.282118 0.586503 0.500000
O O10 0.286182 0.500000 0.331105
O O11 0.242976 0.584982 0.239234
O O12 0.075565 0.443132 0.773808
O O13 0.153533 0.398421 0.775150
O O14 0.100397 0.384068 0.000000
O O15 0.500000 0.348815 0.792364
O O16 0.558880 0.347183 0.000000
O O17 0.000000 0.500000 0.230009
O O18 0.051827 0.500000 0.000000
O O19 0.696844 0.064499 0.500000
O O20 0.688685 0.000000 0.725181
#
# Coordination Sequence:
#
# PCOD9524669 Si02
#       7
#    16  16  16  16  16   8  16
#     4   9  19  35  50  65  90 124 161 200 238 276
#     4   9  18  32  50  75 104 127 150 187 233 277
#     4   8  15  28  45  66  94 126 155 184 225 279
#     4  10  18  29  46  69  94 122 159 200 239 283
#     4   9  19  35  52  70  95 127 160 193 230 276
#     4   9  16  26  41  63  93 125 153 189 240 287
#     4   9  16  27  43  66  96 124 154 195 238 278
#
# _framework density 8.0246910000000007
#
# number of rings (size 3 to 8) (size 9 to 14) (size 15 to 20)
#    0.000    3.000    0.769    2.308    0.000    3.692 
#    0.000    5.000    0.000    2.308    0.000    0.000 
#    0.000    0.000    0.000    0.000    0.000    0.000 
#
# Total GULP energy -289576.759513 kJ/mol
# GULP energy per Si atom -5568.783837 kJ/mol
# Density = 0.800643 g / cm^3
# Si number density = 8.024691 Si / 1000 Ang^3
#
#
#
# Elastic Constant Matrix: (Units=GPa)
#
#
# Indices 1 2 3 4 5 6 
#
# 1 109.7913 84.4649 34.5342 0.0000 0.0000 0.0000
# 2 84.4649 119.5199 33.4025 0.0000 0.0000 0.0000
# 3 34.5342 33.4025 13.3976 0.0000 0.0000 0.0000
# 4 0.0000 0.0000 0.0000 26.8416 0.0000 0.0000
# 5 0.0000 0.0000 0.0000 0.0000 28.2268 0.0000
# 6 0.0000 0.0000 0.0000 0.0000 0.0000 15.8673
#
#
#
# Elastic Compliance Matrix: (Units=1/GPa)
#
#
# Indices 1 2 3 4 5 6 
#
# 1 0.048306 0.002179 -0.129947 0.000000 0.000000 0.000000
# 2 0.002179 0.027691 -0.074653 0.000000 0.000000 0.000000
# 3 -0.129947 -0.074653 0.595719 0.000000 0.000000 0.000000
# 4 0.000000 0.000000 0.000000 0.037256 0.000000 0.000000
# 5 0.000000 0.000000 0.000000 0.000000 0.035427 0.000000
# 6 0.000000 0.000000 0.000000 0.000000 0.000000 0.063023
#
#
# Mechanical properties :
#
#
# Convention : Reuss Voigt Hill
#
# Bulk Modulus (GPa) = 3.74711 60.83467 32.29089
# Shear Modulus (GPa) = 3.84254 20.20762 12.02508
#
# Velocity S-wave (km/s) = 1.54900 3.55222 2.74022
# Velocity P-wave (km/s) = 2.35351 7.40346 5.49319
#
# Compressibility (1/GPa) = 0.26687230
#
# Stress axis : x y z
#
# Youngs Moduli (GPa) = 20.70127 36.11321 1.67864
#
# Poissons Ratio (x) = -0.07868 0.21814
# Poissons Ratio (y) = -0.04510 0.12532
# Poissons Ratio (z) = 2.69007 2.69596
#
# Static dielectric constant tensor:
#      x y z
#    x 1.548810 0.000000 0.000000 
#    y 0.000000 1.514770 0.000000 
#    z 0.000000 0.000000 1.542580 
# 
# From -- ./inp_files/17258.got.cif
#   From: 2010.05.17/outbox.ucp.g08.bks.cvg/sg71_9_cif.got.tgz:17258.got - 2010.06.11 16:29:00.
