data_PCOD9524953
_publ_section_title
;
Structure prediction by ZEFSAII (Michael W. Deem and Ramdas Pophale) SiO2 
 PCOD9524953
Probable space group: I B A M
;
_chemical_formula_sum "Si O2"
_cell_formula_units_Z 112
_cell_length_a 17.400607
_cell_length_b 15.429629
_cell_length_c 19.591423
_cell_angle_alpha 90.000000
_cell_angle_beta 90.000000
_cell_angle_gamma 90.000000
_cell_volume 5260.001448
_symmetry_space_group_name_H-M "I B A M"
_symmetry_group_IT_number 72
_symmetry_cell_setting 'orthorhombic'
loop_
_space_group_symop_operation_xyz
x,y,z
-x,-y,z
x,-y,1/2-z
-x,y,1/2-z
-x,-y,-z
x,y,-z
-x,y,1/2+z
x,-y,1/2+z
1/2+x,1/2+y,1/2+z
1/2-x,1/2-y,1/2+z
1/2+x,1/2-y,-z
1/2-x,1/2+y,-z
1/2-x,1/2-y,1/2-z
1/2+x,1/2+y,1/2-z
1/2-x,1/2+y,z
1/2+x,1/2-y,z
loop_
_atom_site_type_symbol
_atom_site_label
_atom_site_fract_x
_atom_site_fract_y
_atom_site_fract_z
Si Si1 0.126019 0.066838 0.306524
Si Si2 0.455960 0.875336 0.180121
Si Si3 0.083577 0.666615 0.077461
Si Si4 0.789104 0.624022 0.808185
Si Si5 0.532832 0.369526 0.579000
Si Si6 0.765049 0.309572 0.157426
Si Si7 0.405702 0.325969 0.684026
O O1 0.217713 0.059595 0.309055
O O2 0.094491 0.070803 0.382375
O O3 0.099469 0.153291 0.264976
O O4 0.095826 0.000000 0.250000
O O5 0.500000 0.896535 0.250000
O O6 0.519506 0.882879 0.121672
O O7 0.371067 0.916539 0.171889
O O8 0.429723 0.774174 0.180502
O O9 0.062305 0.769620 0.079760
O O10 0.169704 0.660503 0.106259
O O11 0.080091 0.637493 0.000000
O O12 0.796821 0.665267 0.732388
O O13 0.755026 0.706939 0.849770
O O14 0.516981 0.391436 0.500000
O O15 0.462562 0.373452 0.632332
O O16 0.679376 0.347632 0.156481
#
# Coordination Sequence:
#
# PCOD9524953 Si02
#       7
#    16  16  16  16  16  16  16
#     4  11  21  35  53  72  95 132 183 219 246 290
#     4  10  16  28  51  74  98 130 162 200 254 315
#     4  10  18  28  46  78 112 135 158 196 256 321
#     4   9  17  29  49  73  97 126 171 212 250 293
#     4  10  20  34  49  71 106 137 162 205 261 305
#     4   9  15  28  48  74 101 133 162 203 252 303
#     4   9  19  30  50  75 103 131 169 206 249 299
#
# _framework density 21.292770000000001
#
# number of rings (size 3 to 8) (size 9 to 14) (size 15 to 20)
#    0.000    2.286    2.857    3.000    0.000    1.714 
#    0.000    4.286    0.000    1.286    0.000    0.000 
#    0.000    4.571    0.000    0.000    0.000    0.000 
#
# Total GULP energy -312242.680213 kJ/mol
# GULP energy per Si atom -5575.762147 kJ/mol
# Density = 2.124431 g / cm^3
# Si number density = 21.292770 Si / 1000 Ang^3
#
#
#
# Elastic Constant Matrix: (Units=GPa)
#
#
# Indices 1 2 3 4 5 6 
#
# 1 164.0438 -0.0512 78.4079 0.0000 0.0000 0.0000
# 2 -0.0512 16.1803 -5.6226 0.0000 0.0000 0.0000
# 3 78.4079 -5.6226 138.9850 0.0000 0.0000 0.0000
# 4 0.0000 0.0000 0.0000 8.8914 0.0000 0.0000
# 5 0.0000 0.0000 0.0000 0.0000 24.9843 0.0000
# 6 0.0000 0.0000 0.0000 0.0000 0.0000 -3.0035
#
#
#
# Elastic Compliance Matrix: (Units=1/GPa)
#
#
# Indices 1 2 3 4 5 6 
#
# 1 0.008389 -0.001641 -0.004799 0.000000 0.000000 0.000000
# 2 -0.001641 0.063006 0.003475 0.000000 0.000000 0.000000
# 3 -0.004799 0.003475 0.010043 0.000000 0.000000 0.000000
# 4 0.000000 0.000000 0.000000 0.112468 0.000000 0.000000
# 5 0.000000 0.000000 0.000000 0.000000 0.040025 0.000000
# 6 0.000000 0.000000 0.000000 0.000000 0.000000 -0.332945
#
#
# Mechanical properties :
#
#
# Convention : Reuss Voigt Hill
#
# Bulk Modulus (GPa) = 13.24383 51.63083 32.43733
# Shear Modulus (GPa) = -73.62299 22.60611 -25.50844
#
# Velocity S-wave (km/s) = -5.88656 3.26188 -3.46495
# Velocity P-wave (km/s) = 6.32208 6.20380 0.86069
#
# Compressibility (1/GPa) = 0.07550685
#
# Stress axis : x y z
#
# Youngs Moduli (GPa) = 119.19973 15.87157 99.57158
#
# Poissons Ratio (x) = 0.02605 0.47786
# Poissons Ratio (y) = 0.19562 -0.34598
# Poissons Ratio (z) = 0.57206 -0.05515
#
# Static dielectric constant tensor:
#      x y z
#    x 1.824810 0.000000 0.000000 
#    y 0.000000 1.921380 0.000000 
#    z 0.000000 0.000000 1.719080 
# 
# From -- ./inp_files/31891.got.cif
#   From: 2010.05.17/outbox.cif.g08.bks.cpg/sg72_16_cif.got.tgz:31891.got - 2010.06.03 17:03:01.
