data_PCOD9524473
_publ_section_title
;
Structure prediction by ZEFSAII (Michael W. Deem and Ramdas Pophale) SiO2 
 PCOD9524473
Probable space group: I M M M
;
_chemical_formula_sum "Si O2"
_cell_formula_units_Z 88
_cell_length_a 8.825958
_cell_length_b 20.130993
_cell_length_c 30.975295
_cell_angle_alpha 90.000000
_cell_angle_beta 90.000000
_cell_angle_gamma 90.000000
_cell_volume 5503.544792
_symmetry_space_group_name_H-M "I M M M"
_symmetry_group_IT_number 71
_symmetry_cell_setting 'orthorhombic'
loop_
_space_group_symop_operation_xyz
x,y,z
-x,-y,z
x,-y,-z
-x,y,-z
-x,-y,-z
x,y,-z
-x,y,z
x,-y,z
1/2+x,1/2+y,1/2+z
1/2-x,1/2-y,1/2+z
1/2+x,1/2-y,1/2-z
1/2-x,1/2+y,1/2-z
1/2-x,1/2-y,1/2-z
1/2+x,1/2+y,1/2-z
1/2-x,1/2+y,1/2+z
1/2+x,1/2-y,1/2+z
loop_
_atom_site_type_symbol
_atom_site_label
_atom_site_fract_x
_atom_site_fract_y
_atom_site_fract_z
Si Si1 0.816438 0.852403 0.550010
Si Si2 0.175112 0.924581 0.330402
Si Si3 0.177913 0.296914 0.868249
Si Si4 0.673725 0.500000 0.052362
Si Si5 0.322936 0.425473 0.273763
Si Si6 0.320366 0.786954 0.208062
O O1 0.775038 0.840424 0.500000
O O2 0.749529 0.800989 0.584094
O O3 0.761848 0.927355 0.562784
O O4 0.000000 0.852884 0.552179
O O5 0.285663 0.869226 0.348101
O O6 0.182647 0.923886 0.278449
O O7 0.000000 0.908314 0.342286
O O8 0.206911 0.000000 0.344838
O O9 0.256117 0.246142 0.835310
O O10 0.000000 0.284702 0.870078
O O11 0.500000 0.500000 0.068040
O O12 0.667434 0.500000 0.000000
O O13 0.500000 0.416357 0.285633
O O14 0.275728 0.500000 0.287175
O O15 0.225954 0.364104 0.290298
O O16 0.500000 0.778404 0.209948
O O17 0.250000 0.750000 0.250000
#
# Coordination Sequence:
#
# PCOD9524473 Si02
#       6
#    16  16  16   8  16  16
#     4   9  18  34  53  71  93 126 169 212 255 304
#     4   9  18  32  49  68  94 131 172 211 251 299
#     4  12  24  34  48  72 101 134 169 210 259 304
#     4   7  12  26  49  71  89 119 163 207 253 301
#     4   9  18  34  55  76 100 132 167 205 252 302
#     4  12  23  36  53  74 102 134 172 212 252 298
#
# _framework density 15.989694999999999
#
# number of rings (size 3 to 8) (size 9 to 14) (size 15 to 20)
#    0.000    2.091    1.818    5.455    1.273    1.091 
#    0.000    1.818    0.000    1.636    0.000    0.000 
#    0.000    0.727    0.000    7.636    0.000    3.273 
#
# Total GULP energy -245531.449808 kJ/mol
# GULP energy per Si atom -5580.260223 kJ/mol
# Density = 1.595330 g / cm^3
# Si number density = 15.989695 Si / 1000 Ang^3
#
#
#
# Elastic Constant Matrix: (Units=GPa)
#
#
# Indices 1 2 3 4 5 6 
#
# 1 83.9176 45.2002 45.9285 0.0000 0.0000 0.0000
# 2 45.2002 84.0917 52.7895 0.0000 0.0000 0.0000
# 3 45.9285 52.7895 98.8581 0.0000 0.0000 0.0000
# 4 0.0000 0.0000 0.0000 31.7689 0.0000 0.0000
# 5 0.0000 0.0000 0.0000 0.0000 20.8584 0.0000
# 6 0.0000 0.0000 0.0000 0.0000 0.0000 24.1435
#
#
#
# Elastic Compliance Matrix: (Units=1/GPa)
#
#
# Indices 1 2 3 4 5 6 
#
# 1 0.018204 -0.006732 -0.004862 0.000000 0.000000 0.000000
# 2 -0.006732 0.020378 -0.007754 0.000000 0.000000 0.000000
# 3 -0.004862 -0.007754 0.016515 0.000000 0.000000 0.000000
# 4 0.000000 0.000000 0.000000 0.031477 0.000000 0.000000
# 5 0.000000 0.000000 0.000000 0.000000 0.047942 0.000000
# 6 0.000000 0.000000 0.000000 0.000000 0.000000 0.041419
#
#
# Mechanical properties :
#
#
# Convention : Reuss Voigt Hill
#
# Bulk Modulus (GPa) = 60.97664 61.63377 61.30520
# Shear Modulus (GPa) = 22.71700 23.55079 23.13389
#
# Velocity S-wave (km/s) = 3.77334 3.84197 3.80781
# Velocity P-wave (km/s) = 7.56319 7.63613 7.59975
#
# Compressibility (1/GPa) = 0.01639972
#
# Stress axis : x y z
#
# Youngs Moduli (GPa) = 54.93346 49.07210 60.55085
#
# Poissons Ratio (x) = 0.33037 0.29441
# Poissons Ratio (y) = 0.36984 0.46951
# Poissons Ratio (z) = 0.26710 0.38050
#
# Static dielectric constant tensor:
#      x y z
#    x 1.536770 0.000000 0.000000 
#    y 0.000000 1.542550 0.000000 
#    z 0.000000 0.000000 1.559760 
# 
# From -- ./inp_files/68163.got.cif
#   From: 2010.05.17/outbox.cif.g08.bks.cpg/sg71_35_cif.got.tgz:68163.got - 2010.06.03 16:22:01.
