data_PCOD9524498
_publ_section_title
;
Structure prediction by ZEFSAII (Michael W. Deem and Ramdas Pophale) SiO2 
 PCOD9524498
Probable space group: I M M M
;
_chemical_formula_sum "Si O2"
_cell_formula_units_Z 88
_cell_length_a 36.309268
_cell_length_b 7.339013
_cell_length_c 14.141331
_cell_angle_alpha 90.000000
_cell_angle_beta 90.000000
_cell_angle_gamma 90.000000
_cell_volume 3768.299722
_symmetry_space_group_name_H-M "I M M M"
_symmetry_group_IT_number 71
_symmetry_cell_setting 'orthorhombic'
loop_
_space_group_symop_operation_xyz
x,y,z
-x,-y,z
x,-y,-z
-x,y,-z
-x,-y,-z
x,y,-z
-x,y,z
x,-y,z
1/2+x,1/2+y,1/2+z
1/2-x,1/2-y,1/2+z
1/2+x,1/2-y,1/2-z
1/2-x,1/2+y,1/2-z
1/2-x,1/2-y,1/2-z
1/2+x,1/2+y,1/2-z
1/2-x,1/2+y,1/2+z
1/2+x,1/2-y,1/2+z
loop_
_atom_site_type_symbol
_atom_site_label
_atom_site_fract_x
_atom_site_fract_y
_atom_site_fract_z
Si Si1 0.192780 0.787592 0.615992
Si Si2 0.851353 0.217217 0.892677
Si Si3 0.574591 0.277772 0.289915
Si Si4 0.271262 0.217722 0.609374
Si Si5 0.000000 0.777358 0.109151
Si Si6 0.888326 0.777270 0.392890
O O1 0.194190 0.782142 0.500000
O O2 0.232269 0.710445 0.648711
O O3 0.152441 0.713099 0.639190
O O4 0.191933 0.000000 0.644037
O O5 0.888159 0.283527 0.842476
O O6 0.811203 0.247047 0.846366
O O7 0.855156 0.000000 0.897504
O O8 0.850100 0.289606 0.000000
O O9 0.574193 0.500000 0.293382
O O10 0.537165 0.217119 0.338744
O O11 0.580764 0.224289 0.181470
O O12 0.273937 0.284974 0.500000
O O13 0.267434 0.000000 0.605341
O O14 0.000000 0.000000 0.110114
O O15 0.000000 0.721723 0.000000
O O16 0.894819 0.719159 0.500000
O O17 0.886545 0.000000 0.393445
#
# Coordination Sequence:
#
# PCOD9524498 Si02
#       6
#    16  16  16  16   8  16
#     4   7  10  18  33  51  70  95 128 162 194 232
#     4   9  16  25  37  55  81 110 137 168 206 244
#     4   9  16  25  37  54  75  99 130 167 204 242
#     4   8  13  22  37  56  77 104 139 174 205 239
#     4   9  16  26  39  53  72 102 137 166 194 240
#     4   8  13  22  36  53  74 100 129 163 203 243
#
# _framework density 23.352708
#
# number of rings (size 3 to 8) (size 9 to 14) (size 15 to 20)
#    0.000    3.727    0.000    2.727    0.000    2.182 
#    0.000    1.364    0.000    2.727    0.000    0.636 
#    0.000    4.364    0.000    0.000    0.000    1.818 
#
# Total GULP energy -245529.937739 kJ/mol
# GULP energy per Si atom -5580.225858 kJ/mol
# Density = 2.329956 g / cm^3
# Si number density = 23.352708 Si / 1000 Ang^3
#
#
#
# Elastic Constant Matrix: (Units=GPa)
#
#
# Indices 1 2 3 4 5 6 
#
# 1 230.7994 6.5268 115.7125 0.0000 0.0000 0.0000
# 2 6.5268 91.7908 1.4727 0.0000 0.0000 0.0000
# 3 115.7125 1.4727 123.5834 0.0000 0.0000 0.0000
# 4 0.0000 0.0000 0.0000 -9.6518 0.0000 0.0000
# 5 0.0000 0.0000 0.0000 0.0000 44.1605 0.0000
# 6 0.0000 0.0000 0.0000 0.0000 0.0000 9.4672
#
#
#
# Elastic Compliance Matrix: (Units=1/GPa)
#
#
# Indices 1 2 3 4 5 6 
#
# 1 0.008185 -0.000459 -0.007659 0.000000 0.000000 0.000000
# 2 -0.000459 0.010922 0.000300 0.000000 0.000000 0.000000
# 3 -0.007659 0.000300 0.015259 0.000000 0.000000 0.000000
# 4 0.000000 0.000000 0.000000 -0.103607 0.000000 0.000000
# 5 0.000000 0.000000 0.000000 0.000000 0.022645 0.000000
# 6 0.000000 0.000000 0.000000 0.000000 0.000000 0.105628
#
#
# Mechanical properties :
#
#
# Convention : Reuss Voigt Hill
#
# Bulk Modulus (GPa) = 53.38875 77.06638 65.22756
# Shear Modulus (GPa) = 61.79563 30.29262 46.04413
#
# Velocity S-wave (km/s) = 5.14969 3.60554 4.44518
# Velocity P-wave (km/s) = 7.63352 7.09971 7.37145
#
# Compressibility (1/GPa) = 0.01873054
#
# Stress axis : x y z
#
# Youngs Moduli (GPa) = 122.16783 91.55682 65.53505
#
# Poissons Ratio (x) = 0.04204 0.50191
# Poissons Ratio (y) = 0.05609 -0.01964
# Poissons Ratio (z) = 0.93564 -0.02744
#
# Static dielectric constant tensor:
#      x y z
#    x 1.860900 0.000000 0.000000 
#    y 0.000000 2.081630 0.000000 
#    z 0.000000 0.000000 1.911470 
# 
# From -- ./inp_files/40814.got.cif
#   From: 2010.05.17/outbox.cif.g08.bks.cpg/sg71_21_cif.got.tgz:40814.got - 2010.06.03 16:22:01.
