data_PCOD9524841
_publ_section_title
;
Structure prediction by ZEFSAII (Michael W. Deem and Ramdas Pophale) SiO2 
 PCOD9524841
Probable space group: I M M M
;
_chemical_formula_sum "Si O2"
_cell_formula_units_Z 44
_cell_length_a 15.000000
_cell_length_b 18.000000
_cell_length_c 18.000000
_cell_angle_alpha 90.000000
_cell_angle_beta 90.000000
_cell_angle_gamma 90.000000
_cell_volume 4860.000000
_symmetry_space_group_name_H-M "I M M M"
_symmetry_group_IT_number 71
_symmetry_cell_setting 'orthorhombic'
loop_
_space_group_symop_operation_xyz
x,y,z
-x,-y,z
x,-y,-z
-x,y,-z
-x,-y,-z
x,y,-z
-x,y,z
x,-y,z
1/2+x,1/2+y,1/2+z
1/2-x,1/2-y,1/2+z
1/2+x,1/2-y,1/2-z
1/2-x,1/2+y,1/2-z
1/2-x,1/2-y,1/2-z
1/2+x,1/2+y,1/2-z
1/2-x,1/2+y,1/2+z
1/2+x,1/2-y,1/2+z
loop_
_atom_site_type_symbol
_atom_site_label
_atom_site_fract_x
_atom_site_fract_y
_atom_site_fract_z
Si Si1 0.103391 0.500000 0.410205
Si Si2 0.291588 0.584599 0.089253
Si Si3 0.402054 0.138521 0.410483
Si Si4 0.394139 0.717542 0.834485
Si Si5 0.602528 0.303010 0.657742
Si Si6 0.284431 0.852117 0.909662
O O1 0.097978 0.500000 0.500000
O O2 0.160158 0.573360 0.390542
O O3 0.000000 0.500000 0.382917
O O4 0.317252 0.500000 0.104758
O O5 0.188211 0.597160 0.112813
O O6 0.355121 0.642794 0.129392
O O7 0.295640 0.596480 0.000000
O O8 0.402771 0.137068 0.500000
O O9 0.500000 0.109993 0.385412
O O10 0.394233 0.223138 0.383016
O O11 0.500000 0.726642 0.849006
O O12 0.382070 0.711781 0.745402
O O13 0.337830 0.784119 0.871569
O O14 0.500000 0.331644 0.648848
O O15 0.683509 0.350371 0.622722
O O16 0.281965 0.843770 0.000000
#
# Coordination Sequence:
#
# PCOD9524841 Si02
#       6
#     8  16  16  16  16  16
#     4   9  20  38  59  87 117 143 179 232 286 334
#     4  10  21  36  55  82 113 146 189 237 278 324
#     4   9  17  32  56  84 113 146 183 225 278 337
#     4  11  23  38  57  82 112 151 193 231 281 341
#     4  10  21  37  58  85 115 147 188 237 283 336
#     4  11  21  37  62  87 113 148 188 233 286 341
#
# _framework density 9.0534979999999994
#
# number of rings (size 3 to 8) (size 9 to 14) (size 15 to 20)
#    0.000    1.909    1.818    2.182    0.000    4.000 
#    1.636    3.182    0.000    1.636    0.000    0.000 
#    0.000    0.000    0.000    0.000    0.000    0.000 
#
# Total GULP energy -245521.637611 kJ/mol
# GULP energy per Si atom -5580.037218 kJ/mol
# Density = 0.903289 g / cm^3
# Si number density = 9.053498 Si / 1000 Ang^3
#
#
#
# Elastic Constant Matrix: (Units=GPa)
#
#
# Indices 1 2 3 4 5 6 
#
# 1 158.1896 58.5243 50.8701 0.0000 0.0000 0.0000
# 2 58.5243 76.2411 16.9121 0.0000 0.0000 0.0000
# 3 50.8701 16.9121 40.8029 0.0000 0.0000 0.0000
# 4 0.0000 0.0000 0.0000 -0.4231 0.0000 0.0000
# 5 0.0000 0.0000 0.0000 0.0000 34.8085 0.0000
# 6 0.0000 0.0000 0.0000 0.0000 0.0000 21.6484
#
#
#
# Elastic Compliance Matrix: (Units=1/GPa)
#
#
# Indices 1 2 3 4 5 6 
#
# 1 0.013419 -0.007257 -0.013722 0.000000 0.000000 0.000000
# 2 -0.007257 0.018369 0.001434 0.000000 0.000000 0.000000
# 3 -0.013722 0.001434 0.041021 0.000000 0.000000 0.000000
# 4 0.000000 0.000000 0.000000 -2.363403 0.000000 0.000000
# 5 0.000000 0.000000 0.000000 0.000000 0.028729 0.000000
# 6 0.000000 0.000000 0.000000 0.000000 0.000000 0.046193
#
#
# Mechanical properties :
#
#
# Convention : Reuss Voigt Hill
#
# Bulk Modulus (GPa) = 29.65691 58.64962 44.15326
# Shear Modulus (GPa) = -2.30910 21.13523 9.41306
#
# Velocity S-wave (km/s) = -1.13050 3.42020 2.28251
# Velocity P-wave (km/s) = 3.83539 6.93238 5.60215
#
# Compressibility (1/GPa) = 0.03371896
#
# Stress axis : x y z
#
# Youngs Moduli (GPa) = 74.52163 54.44034 24.37756
#
# Poissons Ratio (x) = 0.39506 0.33451
# Poissons Ratio (y) = 0.54079 -0.03495
# Poissons Ratio (z) = 1.02258 -0.07805
#
# Static dielectric constant tensor:
#      x y z
#    x 1.643850 0.000000 0.000000 
#    y 0.000000 1.604360 0.000000 
#    z 0.000000 0.000000 1.617910 
# 
# From -- ./inp_files/44706.got.cif
#   From: 2010.05.17/outbox.ucp.g08.bks.cvg/sg71_23_cif.got.tgz:44706.got - 2010.06.11 16:29:00.
