data_PCOD9524042
_publ_section_title
;
Structure prediction by ZEFSAII (Michael W. Deem and Ramdas Pophale) SiO2 
 PCOD9524042
Probable space group: I M M M
;
_chemical_formula_sum "Si O2"
_cell_formula_units_Z 88
_cell_length_a 23.239722
_cell_length_b 8.985169
_cell_length_c 25.086792
_cell_angle_alpha 90.000000
_cell_angle_beta 90.000000
_cell_angle_gamma 90.000000
_cell_volume 5238.444025
_symmetry_space_group_name_H-M "I M M M"
_symmetry_group_IT_number 71
_symmetry_cell_setting 'orthorhombic'
loop_
_space_group_symop_operation_xyz
x,y,z
-x,-y,z
x,-y,-z
-x,y,-z
-x,-y,-z
x,y,-z
-x,y,z
x,-y,z
1/2+x,1/2+y,1/2+z
1/2-x,1/2-y,1/2+z
1/2+x,1/2-y,1/2-z
1/2-x,1/2+y,1/2-z
1/2-x,1/2-y,1/2-z
1/2+x,1/2+y,1/2-z
1/2-x,1/2+y,1/2+z
1/2+x,1/2-y,1/2+z
loop_
_atom_site_type_symbol
_atom_site_label
_atom_site_fract_x
_atom_site_fract_y
_atom_site_fract_z
Si Si1 0.112900 0.821638 0.627822
Si Si2 0.567989 0.178194 0.232426
Si Si3 0.152327 0.820786 0.938725
Si Si4 0.933309 0.320625 0.145739
Si Si5 0.000000 0.181019 0.561308
Si Si6 0.785538 0.321216 0.561964
O O1 0.103576 0.760476 0.687167
O O2 0.057313 0.772671 0.592814
O O3 0.169753 0.758263 0.600304
O O4 0.114245 0.000000 0.628243
O O5 0.500000 0.210466 0.224508
O O6 0.582199 0.220942 0.293297
O O7 0.575212 0.000000 0.227445
O O8 0.108956 0.749355 0.897118
O O9 0.218952 0.780970 0.927479
O O10 0.148414 0.000000 0.936093
O O11 0.139603 0.776826 0.000000
O O12 0.930839 0.500000 0.142758
O O13 0.000000 0.277033 0.136619
O O14 0.000000 0.232226 0.500000
O O15 0.000000 0.000000 0.560552
O O16 0.797943 0.283822 0.500000
O O17 0.790576 0.500000 0.567249
#
# Coordination Sequence:
#
# PCOD9524042 Si02
#       6
#    16  16  16  16   8  16
#     4  11  20  31  50  76 104 135 173 215 261 306
#     4   9  18  34  53  72 101 139 174 210 255 305
#     4   9  19  36  56  78 105 136 169 209 256 305
#     4   9  19  35  55  80 107 135 168 209 256 305
#     4   9  18  30  43  67 105 135 158 205 262 301
#     4   9  19  36  54  72 100 138 176 212 254 306
#
# _framework density 16.798881999999999
#
# number of rings (size 3 to 8) (size 9 to 14) (size 15 to 20)
#    0.000    2.636    0.909    3.273    0.000    3.636 
#    0.000    6.364    0.000    2.182    0.000    0.000 
#    0.000    0.000    0.000    0.000    0.000    0.000 
#
# Total GULP energy -245400.417548 kJ/mol
# GULP energy per Si atom -5577.282217 kJ/mol
# Density = 1.676065 g / cm^3
# Si number density = 16.798882 Si / 1000 Ang^3
#
#
#
# Elastic Constant Matrix: (Units=GPa)
#
#
# Indices 1 2 3 4 5 6 
#
# 1 120.8359 48.8467 120.5200 0.0000 0.0000 0.0000
# 2 48.8467 30.0558 56.7304 0.0000 0.0000 0.0000
# 3 120.5200 56.7304 168.7623 0.0000 0.0000 0.0000
# 4 0.0000 0.0000 0.0000 31.4382 0.0000 0.0000
# 5 0.0000 0.0000 0.0000 0.0000 27.7751 0.0000
# 6 0.0000 0.0000 0.0000 0.0000 0.0000 30.0897
#
#
#
# Elastic Compliance Matrix: (Units=1/GPa)
#
#
# Indices 1 2 3 4 5 6 
#
# 1 0.035154 -0.026666 -0.016141 0.000000 0.000000 0.000000
# 2 -0.026666 0.111256 -0.018356 0.000000 0.000000 0.000000
# 3 -0.016141 -0.018356 0.023623 0.000000 0.000000 0.000000
# 4 0.000000 0.000000 0.000000 0.031808 0.000000 0.000000
# 5 0.000000 0.000000 0.000000 0.000000 0.036004 0.000000
# 6 0.000000 0.000000 0.000000 0.000000 0.000000 0.033234
#
#
# Mechanical properties :
#
#
# Convention : Reuss Voigt Hill
#
# Bulk Modulus (GPa) = 20.96133 85.76090 53.36111
# Shear Modulus (GPa) = 12.21577 24.09772 18.15675
#
# Velocity S-wave (km/s) = 2.69955 3.79157 3.29117
# Velocity P-wave (km/s) = 4.71398 8.38632 6.80265
#
# Compressibility (1/GPa) = 0.04770690
#
# Stress axis : x y z
#
# Youngs Moduli (GPa) = 28.44649 8.98825 42.33206
#
# Poissons Ratio (x) = 0.23968 0.68327
# Poissons Ratio (y) = 0.75856 0.77705
# Poissons Ratio (z) = 0.45915 0.16499
#
# Static dielectric constant tensor:
#      x y z
#    x 1.546270 0.000000 0.000000 
#    y 0.000000 1.558290 0.000000 
#    z 0.000000 0.000000 1.554140 
# 
# From -- ./inp_files/10485.got.cif
#   From: 2010.05.17/outbox.cif.g08.bks.cpg/sg71_6_cif.got.tgz:10485.got - 2010.06.03 16:22:01.
