data_PCOD9524053
_publ_section_title
;
Structure prediction by ZEFSAII (Michael W. Deem and Ramdas Pophale) SiO2 
 PCOD9524053
Probable space group: I M M M
;
_chemical_formula_sum "Si O2"
_cell_formula_units_Z 96
_cell_length_a 23.368701
_cell_length_b 26.578146
_cell_length_c 8.681740
_cell_angle_alpha 90.000000
_cell_angle_beta 90.000000
_cell_angle_gamma 90.000000
_cell_volume 5392.200472
_symmetry_space_group_name_H-M "I M M M"
_symmetry_group_IT_number 71
_symmetry_cell_setting 'orthorhombic'
loop_
_space_group_symop_operation_xyz
x,y,z
-x,-y,z
x,-y,-z
-x,y,-z
-x,-y,-z
x,y,-z
-x,y,z
x,-y,z
1/2+x,1/2+y,1/2+z
1/2-x,1/2-y,1/2+z
1/2+x,1/2-y,1/2-z
1/2-x,1/2+y,1/2-z
1/2-x,1/2-y,1/2-z
1/2+x,1/2+y,1/2-z
1/2-x,1/2+y,1/2+z
1/2+x,1/2-y,1/2+z
loop_
_atom_site_type_symbol
_atom_site_label
_atom_site_fract_x
_atom_site_fract_y
_atom_site_fract_z
Si Si1 0.762917 0.696750 0.176210
Si Si2 0.308138 0.557671 0.314778
Si Si3 0.175515 0.557260 0.687816
Si Si4 0.374477 0.157157 0.819443
Si Si5 0.066214 0.755902 0.184047
Si Si6 0.363058 0.348901 0.174447
O O1 0.750000 0.750000 0.250000
O O2 0.808860 0.672457 0.288697
O O3 0.702624 0.669324 0.170624
O O4 0.785404 0.700147 0.000000
O O5 0.306838 0.560882 0.500000
O O6 0.321353 0.500000 0.271319
O O7 0.241783 0.567112 0.262281
O O8 0.354933 0.597245 0.255426
O O9 0.176188 0.559172 0.500000
O O10 0.161551 0.500000 0.732962
O O11 0.129405 0.599293 0.738573
O O12 0.410216 0.201781 0.741006
O O13 0.388551 0.157520 0.000000
O O14 0.101620 0.803715 0.247428
O O15 0.000000 0.760726 0.230638
O O16 0.070101 0.756780 0.000000
O O17 0.384024 0.354933 0.000000
#
# Coordination Sequence:
#
# PCOD9524053 Si02
#       6
#    16  16  16  16  16  16
#     4  11  21  31  47  76 111 144 175 210 264 324
#     4   9  17  31  52  78 112 151 183 211 251 312
#     4   8  15  28  48  77 111 144 176 209 250 304
#     4  11  20  32  55  81 108 141 176 220 268 316
#     4  11  25  42  58  75 100 138 182 228 276 327
#     4  11  22  34  53  80 111 143 176 220 268 317
#
# _framework density 17.803491999999999
#
# number of rings (size 3 to 8) (size 9 to 14) (size 15 to 20)
#    0.000    1.833    3.333    3.000    0.000    3.000 
#    0.000    0.000    0.000    3.000    0.000    7.000 
#    0.000    0.000    0.000    0.000    0.000    0.000 
#
# Total GULP energy -267323.467284 kJ/mol
# GULP energy per Si atom -5569.238902 kJ/mol
# Density = 1.776297 g / cm^3
# Si number density = 17.803492 Si / 1000 Ang^3
#
#
#
# Elastic Constant Matrix: (Units=GPa)
#
#
# Indices 1 2 3 4 5 6 
#
# 1 59.3494 35.2839 17.1812 0.0000 0.0000 0.0000
# 2 35.2839 146.4863 33.2303 0.0000 0.0000 0.0000
# 3 17.1812 33.2303 32.5294 0.0000 0.0000 0.0000
# 4 0.0000 0.0000 0.0000 20.6963 0.0000 0.0000
# 5 0.0000 0.0000 0.0000 0.0000 18.9886 0.0000
# 6 0.0000 0.0000 0.0000 0.0000 0.0000 7.9627
#
#
#
# Elastic Compliance Matrix: (Units=1/GPa)
#
#
# Indices 1 2 3 4 5 6 
#
# 1 0.021061 -0.003319 -0.007734 0.000000 0.000000 0.000000
# 2 -0.003319 0.009409 -0.007859 0.000000 0.000000 0.000000
# 3 -0.007734 -0.007859 0.042854 0.000000 0.000000 0.000000
# 4 0.000000 0.000000 0.000000 0.048318 0.000000 0.000000
# 5 0.000000 0.000000 0.000000 0.000000 0.052663 0.000000
# 6 0.000000 0.000000 0.000000 0.000000 0.000000 0.125585
#
#
# Mechanical properties :
#
#
# Convention : Reuss Voigt Hill
#
# Bulk Modulus (GPa) = 28.16752 45.52843 36.84797
# Shear Modulus (GPa) = 14.30428 19.70753 17.00591
#
# Velocity S-wave (km/s) = 2.83760 3.33069 3.09398
# Velocity P-wave (km/s) = 5.15671 6.35764 5.78841
#
# Compressibility (1/GPa) = 0.03550188
#
# Stress axis : x y z
#
# Youngs Moduli (GPa) = 47.48076 106.28564 23.33499
#
# Poissons Ratio (x) = 0.35271 0.18047
# Poissons Ratio (y) = 0.15757 0.18338
# Poissons Ratio (z) = 0.36721 0.83525
#
# Static dielectric constant tensor:
#      x y z
#    x 1.593800 0.000000 0.000000 
#    y 0.000000 1.679650 0.000000 
#    z 0.000000 0.000000 1.630410 
# 
# From -- ./inp_files/10918.got.cif
#   From: 2010.05.17/outbox.cif.g08.bks.cpg/sg71_6_cif.got.tgz:10918.got - 2010.06.03 16:22:01.
