data_PCOD9524938
_publ_section_title
;
Structure prediction by ZEFSAII (Michael W. Deem and Ramdas Pophale) SiO2 
 PCOD9524938
Probable space group: I B A M
;
_chemical_formula_sum "Si O2"
_cell_formula_units_Z 84
_cell_length_a 25.721537
_cell_length_b 11.725217
_cell_length_c 15.565900
_cell_angle_alpha 90.000000
_cell_angle_beta 90.000000
_cell_angle_gamma 90.000000
_cell_volume 4694.529166
_symmetry_space_group_name_H-M "I B A M"
_symmetry_group_IT_number 72
_symmetry_cell_setting 'orthorhombic'
loop_
_space_group_symop_operation_xyz
x,y,z
-x,-y,z
x,-y,1/2-z
-x,y,1/2-z
-x,-y,-z
x,y,-z
-x,y,1/2+z
x,-y,1/2+z
1/2+x,1/2+y,1/2+z
1/2-x,1/2-y,1/2+z
1/2+x,1/2-y,-z
1/2-x,1/2+y,-z
1/2-x,1/2-y,1/2-z
1/2+x,1/2+y,1/2-z
1/2-x,1/2+y,z
1/2+x,1/2-y,z
loop_
_atom_site_type_symbol
_atom_site_label
_atom_site_fract_x
_atom_site_fract_y
_atom_site_fract_z
Si Si1 0.162113 0.758432 0.093615
Si Si2 0.305517 0.689421 0.768117
Si Si3 0.000000 0.500000 0.750000
Si Si4 0.749869 0.442090 0.095163
Si Si5 0.927427 0.425058 0.902173
Si Si6 0.160362 0.421044 0.835889
O O1 0.170685 0.836906 0.175543
O O2 0.207442 0.661351 0.095154
O O3 0.109314 0.685910 0.102522
O O4 0.163698 0.813564 0.000000
O O5 0.250000 0.750000 0.750000
O O6 0.291718 0.589587 0.833115
O O7 0.340211 0.789424 0.810541
O O8 0.035172 0.569698 0.818970
O O9 0.785286 0.551077 0.117099
O O10 0.728042 0.448959 0.000000
O O11 0.888031 0.532449 0.890101
O O12 0.949303 0.428027 0.000000
O O13 0.161268 0.500000 0.750000
#
# Coordination Sequence:
#
# PCOD9524938 Si02
#       6
#    16  16   4  16  16  16
#     4   8  14  26  39  53  73  98 127 164 204 239
#     4  10  16  25  42  58  77 104 138 175 210 241
#     4  12  18  28  40  58  76 100 138 178 216 250
#     4   9  18  27  38  58  80 101 139 179 204 239
#     4  10  19  29  41  57  78 105 138 175 213 249
#     4  11  16  29  44  56  81 113 139 174 213 245
#
# _framework density 17.893169
#
# number of rings (size 3 to 8) (size 9 to 14) (size 15 to 20)
#    0.000    2.286    6.667    2.000    0.000    1.524 
#    0.000    0.000    0.000    1.143    0.000    0.000 
#    0.000    0.000    0.000    0.000    0.000  243.810 
#
# Total GULP energy -234055.967125 kJ/mol
# GULP energy per Si atom -5572.761122 kJ/mol
# Density = 1.785244 g / cm^3
# Si number density = 17.893169 Si / 1000 Ang^3
#
#
#
# Elastic Constant Matrix: (Units=GPa)
#
#
# Indices 1 2 3 4 5 6 
#
# 1 49.9467 18.4293 46.8214 0.0000 0.0000 0.0000
# 2 18.4293 45.6597 32.1673 0.0000 0.0000 0.0000
# 3 46.8214 32.1673 194.7145 0.0000 0.0000 0.0000
# 4 0.0000 0.0000 0.0000 10.7868 0.0000 0.0000
# 5 0.0000 0.0000 0.0000 0.0000 24.8470 0.0000
# 6 0.0000 0.0000 0.0000 0.0000 0.0000 12.6419
#
#
#
# Elastic Compliance Matrix: (Units=1/GPa)
#
#
# Indices 1 2 3 4 5 6 
#
# 1 0.027891 -0.007393 -0.005485 0.000000 0.000000 0.000000
# 2 -0.007393 0.026746 -0.002641 0.000000 0.000000 0.000000
# 3 -0.005485 -0.002641 0.006891 0.000000 0.000000 0.000000
# 4 0.000000 0.000000 0.000000 0.092705 0.000000 0.000000
# 5 0.000000 0.000000 0.000000 0.000000 0.040246 0.000000
# 6 0.000000 0.000000 0.000000 0.000000 0.000000 0.079102
#
#
# Mechanical properties :
#
#
# Convention : Reuss Voigt Hill
#
# Bulk Modulus (GPa) = 32.79812 53.90632 43.35222
# Shear Modulus (GPa) = 15.88393 22.51535 19.19964
#
# Velocity S-wave (km/s) = 2.98268 3.55113 3.27924
# Velocity P-wave (km/s) = 5.49833 6.85611 6.21441
#
# Compressibility (1/GPa) = 0.03048955
#
# Stress axis : x y z
#
# Youngs Moduli (GPa) = 35.85325 37.38940 145.11642
#
# Poissons Ratio (x) = 0.27642 0.79603
# Poissons Ratio (y) = 0.26507 0.38321
# Poissons Ratio (z) = 0.19667 0.09873
#
# Static dielectric constant tensor:
#      x y z
#    x 1.631610 0.000000 0.000000 
#    y 0.000000 1.670410 0.000000 
#    z 0.000000 0.000000 1.697840 
# 
# From -- ./inp_files/25890.got.cif
#   From: 2010.05.17/outbox.cif.g08.bks.cpg/sg72_13_cif.got.tgz:25890.got - 2010.06.03 17:03:01.
