data_PCOD9524238
_publ_section_title
;
Structure prediction by ZEFSAII (Michael W. Deem and Ramdas Pophale) SiO2 
 PCOD9524238
Probable space group: I M M M
;
_chemical_formula_sum "Si O2"
_cell_formula_units_Z 88
_cell_length_a 11.277701
_cell_length_b 26.982678
_cell_length_c 17.513692
_cell_angle_alpha 90.000000
_cell_angle_beta 90.000000
_cell_angle_gamma 90.000000
_cell_volume 5329.461567
_symmetry_space_group_name_H-M "I M M M"
_symmetry_group_IT_number 71
_symmetry_cell_setting 'orthorhombic'
loop_
_space_group_symop_operation_xyz
x,y,z
-x,-y,z
x,-y,-z
-x,y,-z
-x,-y,-z
x,y,-z
-x,y,z
x,-y,z
1/2+x,1/2+y,1/2+z
1/2-x,1/2-y,1/2+z
1/2+x,1/2-y,1/2-z
1/2-x,1/2+y,1/2-z
1/2-x,1/2-y,1/2-z
1/2+x,1/2+y,1/2-z
1/2-x,1/2+y,1/2+z
1/2+x,1/2-y,1/2+z
loop_
_atom_site_type_symbol
_atom_site_label
_atom_site_fract_x
_atom_site_fract_y
_atom_site_fract_z
Si Si1 0.642248 0.750666 0.500000
Si Si2 0.000000 0.862770 0.592147
Si Si3 0.637322 0.361055 0.500000
Si Si4 0.719556 0.591851 0.343872
Si Si5 0.358312 0.000000 0.090643
Si Si6 0.637756 0.813835 0.214937
Si Si7 0.292343 0.713420 0.861821
Si Si8 0.000000 0.060550 0.266580
O O1 0.500000 0.752699 0.500000
O O2 0.690971 0.694037 0.500000
O O3 0.696896 0.776867 0.573018
O O4 0.113083 0.827927 0.612604
O O5 0.000000 0.909429 0.652079
O O6 0.000000 0.874178 0.500000
O O7 0.500000 0.350711 0.500000
O O8 0.663922 0.390869 0.576162
O O9 0.802766 0.546375 0.365846
O O10 0.801933 0.637329 0.318729
O O11 0.616392 0.577398 0.283043
O O12 0.500000 0.000000 0.094503
O O13 0.325894 0.000000 0.000000
O O14 0.500000 0.821517 0.233832
O O15 0.647012 0.765972 0.159558
O O16 0.718703 0.802234 0.287816
O O17 0.000000 0.000000 0.274650
#
# Coordination Sequence:
#
# PCOD9524238 Si02
#       8
#     8   8   8  16   8  16  16   8
#     4  11  22  37  56  86 127 166 200 247 299 372
#     4  12  24  43  69  93 124 155 203 267 323 380
#     4  11  22  33  55  90 127 165 205 252 295 352
#     4  12  22  39  61  86 119 162 214 250 310 366
#     4  11  24  39  57  85 123 165 210 260 303 365
#     4  11  23  37  57  87 126 164 202 251 297 365
#     4  11  22  37  60  90 122 161 204 243 307 372
#     4  12  26  44  68  90 115 159 213 275 319 375
#
# _framework density 16.511987999999999
#
# number of rings (size 3 to 8) (size 9 to 14) (size 15 to 20)
#    0.000    0.636    8.182    1.091    0.000    0.182 
#    0.000    2.273    0.000    0.000    0.000    0.000 
#    0.000    2.909    0.000    0.000    0.000    0.000 
#
# Total GULP energy -245403.215362 kJ/mol
# GULP energy per Si atom -5577.345804 kJ/mol
# Density = 1.647441 g / cm^3
# Si number density = 16.511988 Si / 1000 Ang^3
#
#
#
# Elastic Constant Matrix: (Units=GPa)
#
#
# Indices 1 2 3 4 5 6 
#
# 1 109.8229 52.0838 46.7474 0.0000 0.0000 0.0000
# 2 52.0838 133.5308 66.0385 0.0000 0.0000 0.0000
# 3 46.7474 66.0385 112.0445 0.0000 0.0000 0.0000
# 4 0.0000 0.0000 0.0000 35.9318 0.0000 0.0000
# 5 0.0000 0.0000 0.0000 0.0000 27.9168 0.0000
# 6 0.0000 0.0000 0.0000 0.0000 0.0000 22.2970
#
#
#
# Elastic Compliance Matrix: (Units=1/GPa)
#
#
# Indices 1 2 3 4 5 6 
#
# 1 0.011911 -0.003088 -0.003149 0.000000 0.000000 0.000000
# 2 -0.003088 0.011371 -0.005413 0.000000 0.000000 0.000000
# 3 -0.003149 -0.005413 0.013429 0.000000 0.000000 0.000000
# 4 0.000000 0.000000 0.000000 0.027831 0.000000 0.000000
# 5 0.000000 0.000000 0.000000 0.000000 0.035821 0.000000
# 6 0.000000 0.000000 0.000000 0.000000 0.000000 0.044849
#
#
# Mechanical properties :
#
#
# Convention : Reuss Voigt Hill
#
# Bulk Modulus (GPa) = 74.57517 76.12641 75.35079
# Shear Modulus (GPa) = 28.90463 29.93101 29.41782
#
# Velocity S-wave (km/s) = 4.18846 4.26218 4.22548
# Velocity P-wave (km/s) = 8.28573 8.39198 8.33903
#
# Compressibility (1/GPa) = 0.01340929
#
# Stress axis : x y z
#
# Youngs Moduli (GPa) = 83.95817 87.94520 74.46298
#
# Poissons Ratio (x) = 0.27161 0.23449
# Poissons Ratio (y) = 0.25929 0.40309
# Poissons Ratio (z) = 0.26440 0.47608
#
# Static dielectric constant tensor:
#      x y z
#    x 1.529830 0.000000 0.000000 
#    y 0.000000 1.596560 0.000000 
#    z 0.000000 0.000000 1.546050 
# 
# From -- ./inp_files/33046.got.cif
#   From: 2010.05.17/outbox.cif.g08.bks.cpg/sg71_17_cif.got.tgz:33046.got - 2010.06.03 16:22:01.
