data_PCOD9524159
_publ_section_title
;
Structure prediction by ZEFSAII (Michael W. Deem and Ramdas Pophale) SiO2 
 PCOD9524159
Probable space group: I M M M
;
_chemical_formula_sum "Si O2"
_cell_formula_units_Z 104
_cell_length_a 22.915306
_cell_length_b 8.893069
_cell_length_c 28.823712
_cell_angle_alpha 90.000000
_cell_angle_beta 90.000000
_cell_angle_gamma 90.000000
_cell_volume 5873.909252
_symmetry_space_group_name_H-M "I M M M"
_symmetry_group_IT_number 71
_symmetry_cell_setting 'orthorhombic'
loop_
_space_group_symop_operation_xyz
x,y,z
-x,-y,z
x,-y,-z
-x,y,-z
-x,-y,-z
x,y,-z
-x,y,z
x,-y,z
1/2+x,1/2+y,1/2+z
1/2-x,1/2-y,1/2+z
1/2+x,1/2-y,1/2-z
1/2-x,1/2+y,1/2-z
1/2-x,1/2-y,1/2-z
1/2+x,1/2+y,1/2-z
1/2-x,1/2+y,1/2+z
1/2+x,1/2-y,1/2+z
loop_
_atom_site_type_symbol
_atom_site_label
_atom_site_fract_x
_atom_site_fract_y
_atom_site_fract_z
Si Si1 0.000000 0.818718 0.555391
Si Si2 0.433209 0.169983 0.555641
Si Si3 0.676700 0.819432 0.801851
Si Si4 0.115479 0.680426 0.397679
Si Si5 0.775222 0.176506 0.445744
Si Si6 0.687009 0.320783 0.293607
Si Si7 0.167584 0.825065 0.104882
O O1 0.942931 0.755460 0.581963
O O2 0.000000 0.776941 0.500000
O O3 0.000000 0.000000 0.557352
O O4 0.431592 0.174440 0.500000
O O5 0.500000 0.193125 0.570136
O O6 0.389469 0.290216 0.575734
O O7 0.415161 0.000000 0.569551
O O8 0.637689 0.770715 0.845887
O O9 0.660172 0.758064 0.751268
O O10 0.745430 0.774168 0.804095
O O11 0.675406 0.000000 0.802061
O O12 0.108302 0.500000 0.397176
O O13 0.168776 0.728104 0.430793
O O14 0.761851 0.198998 0.500000
O O15 0.720339 0.228557 0.415656
O O16 0.787427 0.000000 0.438404
O O17 0.687734 0.500000 0.285144
O O18 0.655092 0.288335 0.341608
O O19 0.185021 0.000000 0.102759
#
# Coordination Sequence:
#
# PCOD9524159 Si02
#       7
#     8  16  16  16  16  16  16
#     4  11  25  43  61  85 117 153 197 241 284 347
#     4   9  19  36  55  75 104 143 185 225 266 320
#     4   9  18  34  55  81 110 140 177 221 269 327
#     4  11  22  39  61  85 113 146 188 237 288 337
#     4  11  23  36  52  79 114 149 185 225 273 332
#     4   9  18  33  52  80 114 143 176 218 270 327
#     4  11  21  34  53  81 113 143 179 227 277 326
#
# _framework density 17.705414999999999
#
# number of rings (size 3 to 8) (size 9 to 14) (size 15 to 20)
#    0.000    1.923    1.538    3.000    0.000    8.615 
#    0.000    0.769    1.692    0.000    0.000    0.000 
#    0.000    0.000    0.000    0.000    0.000    0.000 
#
# Total GULP energy -290034.036600 kJ/mol
# GULP energy per Si atom -5577.577627 kJ/mol
# Density = 1.766512 g / cm^3
# Si number density = 17.705415 Si / 1000 Ang^3
#
#
#
# Elastic Constant Matrix: (Units=GPa)
#
#
# Indices 1 2 3 4 5 6 
#
# 1 44.7358 20.1969 34.9916 0.0000 0.0000 0.0000
# 2 20.1969 35.0380 37.1745 0.0000 0.0000 0.0000
# 3 34.9916 37.1745 106.7985 0.0000 0.0000 0.0000
# 4 0.0000 0.0000 0.0000 32.4205 0.0000 0.0000
# 5 0.0000 0.0000 0.0000 0.0000 18.5855 0.0000
# 6 0.0000 0.0000 0.0000 0.0000 0.0000 26.4154
#
#
#
# Elastic Compliance Matrix: (Units=1/GPa)
#
#
# Indices 1 2 3 4 5 6 
#
# 1 0.032935 -0.011949 -0.006632 0.000000 0.000000 0.000000
# 2 -0.011949 0.049587 -0.013345 0.000000 0.000000 0.000000
# 3 -0.006632 -0.013345 0.016182 0.000000 0.000000 0.000000
# 4 0.000000 0.000000 0.000000 0.030845 0.000000 0.000000
# 5 0.000000 0.000000 0.000000 0.000000 0.053806 0.000000
# 6 0.000000 0.000000 0.000000 0.000000 0.000000 0.037857
#
#
# Mechanical properties :
#
#
# Convention : Reuss Voigt Hill
#
# Bulk Modulus (GPa) = 28.69265 41.25537 34.97401
# Shear Modulus (GPa) = 16.85317 21.76488 19.30902
#
# Velocity S-wave (km/s) = 3.08858 3.50991 3.30596
# Velocity P-wave (km/s) = 5.38144 6.30694 5.86248
#
# Compressibility (1/GPa) = 0.03485213
#
# Stress axis : x y z
#
# Youngs Moduli (GPa) = 30.36262 20.16653 61.79860
#
# Poissons Ratio (x) = 0.24096 0.40984
# Poissons Ratio (y) = 0.36279 0.82473
# Poissons Ratio (z) = 0.20136 0.26913
#
# Static dielectric constant tensor:
#      x y z
#    x 1.586490 0.000000 0.000000 
#    y 0.000000 1.613340 0.000000 
#    z 0.000000 0.000000 1.623550 
# 
# From -- ./inp_files/66794.got.cif
#   From: 2010.05.17/outbox.cif.g08.bks.cpg/sg71_34_cif.got.tgz:66794.got - 2010.06.03 16:22:01.
