data_PCOD9524415
_publ_section_title
;
Structure prediction by ZEFSAII (Michael W. Deem and Ramdas Pophale) SiO2 
 PCOD9524415
Probable space group: I M M M
;
_chemical_formula_sum "Si O2"
_cell_formula_units_Z 88
_cell_length_a 14.614053
_cell_length_b 19.810734
_cell_length_c 17.497341
_cell_angle_alpha 90.000000
_cell_angle_beta 90.000000
_cell_angle_gamma 90.000000
_cell_volume 5065.744721
_symmetry_space_group_name_H-M "I M M M"
_symmetry_group_IT_number 71
_symmetry_cell_setting 'orthorhombic'
loop_
_space_group_symop_operation_xyz
x,y,z
-x,-y,z
x,-y,-z
-x,y,-z
-x,-y,-z
x,y,-z
-x,y,z
x,-y,z
1/2+x,1/2+y,1/2+z
1/2-x,1/2-y,1/2+z
1/2+x,1/2-y,1/2-z
1/2-x,1/2+y,1/2-z
1/2-x,1/2-y,1/2-z
1/2+x,1/2+y,1/2-z
1/2-x,1/2+y,1/2+z
1/2+x,1/2-y,1/2+z
loop_
_atom_site_type_symbol
_atom_site_label
_atom_site_fract_x
_atom_site_fract_y
_atom_site_fract_z
Si Si1 0.000000 0.920580 0.587041
Si Si2 0.188331 0.832516 0.137534
Si Si3 0.500000 0.923832 0.410409
Si Si4 0.853275 0.152820 0.684684
Si Si5 0.890096 0.079514 0.000000
Si Si6 0.101517 0.307397 0.330667
Si Si7 0.853586 0.322998 0.846351
O O1 0.086185 0.898802 0.638048
O O2 0.000000 0.891466 0.500000
O O3 0.000000 0.000000 0.579596
O O4 0.154109 0.852617 0.223026
O O5 0.149276 0.882202 0.074103
O O6 0.300326 0.832226 0.135843
O O7 0.152057 0.755214 0.126007
O O8 0.500000 0.932327 0.500000
O O9 0.414295 0.876813 0.389676
O O10 0.500000 0.000000 0.375474
O O11 0.893316 0.226490 0.664938
O O12 0.749983 0.152265 0.655987
O O13 0.000000 0.084980 0.000000
O O14 0.866211 0.000000 0.000000
O O15 0.109480 0.322124 0.240418
O O16 0.000000 0.330056 0.358422
#
# Coordination Sequence:
#
# PCOD9524415 Si02
#       7
#     8  16   8  16   8  16  16
#     4  11  24  37  52  79 115 154 193 237 291 350
#     4   9  21  36  61  91 112 150 194 238 290 341
#     4  11  24  35  48  80 120 154 189 234 286 338
#     4   9  19  37  58  85 113 146 193 241 285 336
#     4  11  26  42  57  87 127 151 185 242 291 347
#     4   9  15  34  63  88 112 137 187 253 284 322
#     4   9  19  35  59  84 112 147 196 239 279 337
#
# _framework density 17.371582
#
# number of rings (size 3 to 8) (size 9 to 14) (size 15 to 20)
#    0.000    2.455    1.818    2.182    3.818    2.182 
#    4.909    5.000    0.000    0.545    0.000    0.000 
#    0.000    0.000    0.000    0.000    0.000    0.000 
#
# Total GULP energy -244987.190224 kJ/mol
# GULP energy per Si atom -5567.890687 kJ/mol
# Density = 1.733204 g / cm^3
# Si number density = 17.371582 Si / 1000 Ang^3
#
#
#
# Elastic Constant Matrix: (Units=GPa)
#
#
# Indices 1 2 3 4 5 6 
#
# 1 135.4683 70.1768 56.8387 0.0000 0.0000 0.0000
# 2 70.1768 114.0604 74.0431 0.0000 0.0000 0.0000
# 3 56.8387 74.0431 79.6320 0.0001 0.0000 0.0000
# 4 0.0000 0.0000 0.0001 -30.8605 0.0001 0.0000
# 5 0.0000 0.0000 0.0000 0.0001 21.6482 0.0000
# 6 0.0000 0.0000 0.0000 0.0000 0.0000 14.2138
#
#
#
# Elastic Compliance Matrix: (Units=1/GPa)
#
#
# Indices 1 2 3 4 5 6 
#
# 1 0.011330 -0.004342 -0.004050 0.000000 0.000000 0.000000
# 2 -0.004342 0.023781 -0.019013 0.000000 0.000000 0.000000
# 3 -0.004050 -0.019013 0.033127 0.000000 0.000000 0.000000
# 4 0.000000 0.000000 0.000000 -0.032404 0.000000 0.000000
# 5 0.000000 0.000000 0.000000 0.000000 0.046193 0.000000
# 6 0.000000 0.000000 0.000000 0.000000 0.000000 0.070354
#
#
# Mechanical properties :
#
#
# Convention : Reuss Voigt Hill
#
# Bulk Modulus (GPa) = 74.46716 81.25311 77.86014
# Shear Modulus (GPa) = 23.62194 9.54043 16.58118
#
# Velocity S-wave (km/s) = 3.69155 2.34604 3.09285
# Velocity P-wave (km/s) = 7.81859 7.36299 7.59421
#
# Compressibility (1/GPa) = 0.01342874
#
# Stress axis : x y z
#
# Youngs Moduli (GPa) = 88.25843 42.05022 30.18705
#
# Poissons Ratio (x) = 0.18259 0.12225
# Poissons Ratio (y) = 0.38323 0.57394
# Poissons Ratio (z) = 0.35743 0.79949
#
# Static dielectric constant tensor:
#      x y z
#    x 1.662990 0.000000 0.000000 
#    y 0.000000 1.587790 0.000000 
#    z 0.000000 0.000000 1.600300 
# 
# From -- ./inp_files/44753.got.cif
#   From: 2010.05.17/outbox.cif.g08.bks.cpg/sg71_23_cif.got.tgz:44753.got - 2010.06.03 16:22:01.
