data_PCOD9524496
_publ_section_title
;
Structure prediction by ZEFSAII (Michael W. Deem and Ramdas Pophale) SiO2 
 PCOD9524496
Probable space group: I M M M
;
_chemical_formula_sum "Si O2"
_cell_formula_units_Z 104
_cell_length_a 7.343778
_cell_length_b 18.116205
_cell_length_c 36.309101
_cell_angle_alpha 90.000000
_cell_angle_beta 90.000000
_cell_angle_gamma 90.000000
_cell_volume 4830.613184
_symmetry_space_group_name_H-M "I M M M"
_symmetry_group_IT_number 71
_symmetry_cell_setting 'orthorhombic'
loop_
_space_group_symop_operation_xyz
x,y,z
-x,-y,z
x,-y,-z
-x,y,-z
-x,-y,-z
x,y,-z
-x,y,z
x,-y,z
1/2+x,1/2+y,1/2+z
1/2-x,1/2-y,1/2+z
1/2+x,1/2-y,1/2-z
1/2-x,1/2+y,1/2-z
1/2-x,1/2-y,1/2-z
1/2+x,1/2+y,1/2-z
1/2-x,1/2+y,1/2+z
1/2+x,1/2-y,1/2+z
loop_
_atom_site_type_symbol
_atom_site_label
_atom_site_fract_x
_atom_site_fract_y
_atom_site_fract_z
Si Si1 0.721709 0.000000 0.542234
Si Si2 0.722692 0.584806 0.404272
Si Si3 0.722214 0.855539 0.412422
Si Si4 0.218139 0.915186 0.255071
Si Si5 0.722349 0.287237 0.457741
Si Si6 0.213537 0.090034 0.176350
Si Si7 0.283586 0.084890 0.335795
O O1 0.777065 0.072884 0.564133
O O2 0.500000 0.000000 0.541885
O O3 0.781886 0.000000 0.500000
O O4 0.500000 0.584848 0.403190
O O5 0.778330 0.500000 0.409488
O O6 0.778691 0.638580 0.436807
O O7 0.786208 0.611476 0.363716
O O8 0.500000 0.853410 0.412243
O O9 0.781642 0.782150 0.433234
O O10 0.783267 0.868035 0.370414
O O11 0.286864 0.883808 0.216017
O O12 0.254795 0.881970 0.295115
O O13 0.000000 0.918503 0.251673
O O14 0.286146 0.000000 0.257632
O O15 0.781902 0.282533 0.500000
O O16 0.500000 0.286452 0.458300
O O17 0.000000 0.109905 0.175654
O O18 0.224325 0.000000 0.177275
O O19 0.500000 0.078906 0.340453
O O20 0.211662 0.000000 0.337044
#
# Coordination Sequence:
#
# PCOD9524496 Si02
#       7
#     8  16  16  16  16  16  16
#     4   9  14  20  32  46  61  87 123 161 195 225
#     4   8  13  21  33  48  67  93 124 155 188 229
#     4   9  15  23  32  45  68  97 127 159 194 232
#     4   8  13  21  35  55  76  97 128 168 198 224
#     4   9  16  23  31  46  69  96 124 155 193 235
#     4   7  10  18  32  49  67  88 118 155 188 219
#     4   9  15  23  35  52  76 105 134 162 196 235
#
# _framework density 21.529357999999998
#
# number of rings (size 3 to 8) (size 9 to 14) (size 15 to 20)
#    0.000    3.615    0.769    2.308    0.000    2.154 
#    0.000    1.538    0.000    0.923    0.000    0.000 
#    0.000    3.077    0.000    0.308    0.000    1.385 
#
# Total GULP energy -289763.580180 kJ/mol
# GULP energy per Si atom -5572.376542 kJ/mol
# Density = 2.148036 g / cm^3
# Si number density = 21.529358 Si / 1000 Ang^3
#
#
#
# Elastic Constant Matrix: (Units=GPa)
#
#
# Indices 1 2 3 4 5 6 
#
# 1 80.5033 1.5156 6.1311 0.0000 0.0000 0.0000
# 2 1.5156 82.6835 78.8419 0.0000 0.0000 0.0000
# 3 6.1311 78.8419 185.0542 0.0000 0.0000 0.0000
# 4 0.0000 0.0000 0.0000 28.0073 0.0000 0.0000
# 5 0.0000 0.0000 0.0000 0.0000 4.7986 0.0000
# 6 0.0000 0.0000 0.0000 0.0000 0.0000 -27.7085
#
#
#
# Elastic Compliance Matrix: (Units=1/GPa)
#
#
# Indices 1 2 3 4 5 6 
#
# 1 0.012457 0.000278 -0.000531 0.000000 0.000000 0.000000
# 2 0.000278 0.020376 -0.008690 0.000000 0.000000 0.000000
# 3 -0.000531 -0.008690 0.009124 0.000000 0.000000 0.000000
# 4 0.000000 0.000000 0.000000 0.035705 0.000000 0.000000
# 5 0.000000 0.000000 0.000000 0.000000 0.208395 0.000000
# 6 0.000000 0.000000 0.000000 0.000000 0.000000 -0.036090
#
#
# Mechanical properties :
#
#
# Convention : Reuss Voigt Hill
#
# Bulk Modulus (GPa) = 41.54528 57.91313 49.72921
# Shear Modulus (GPa) = 18.12406 18.46964 18.29685
#
# Velocity S-wave (km/s) = 2.90458 2.93214 2.91839
# Velocity P-wave (km/s) = 5.53061 6.19849 5.87405
#
# Compressibility (1/GPa) = 0.02407012
#
# Stress axis : x y z
#
# Youngs Moduli (GPa) = 80.27563 49.07815 109.60258
#
# Poissons Ratio (x) = -0.01366 0.05823
# Poissons Ratio (y) = -0.02234 0.95247
# Poissons Ratio (z) = 0.04265 0.42650
#
# Static dielectric constant tensor:
#      x y z
#    x 1.953260 0.000000 0.000000 
#    y 0.000000 1.735860 0.000000 
#    z 0.000000 0.000000 1.813020 
# 
# From -- ./inp_files/69515.got.cif
#   From: 2010.05.17/outbox.cif.g08.bks.cpg/sg71_35_cif.got.tgz:69515.got - 2010.06.03 16:22:01.
