data_PCOD9524023
_publ_section_title
;
Structure prediction by ZEFSAII (Michael W. Deem and Ramdas Pophale) SiO2 
 PCOD9524023
Probable space group: I M M M
;
_chemical_formula_sum "Si O2"
_cell_formula_units_Z 96
_cell_length_a 32.907072
_cell_length_b 14.138952
_cell_length_c 13.917088
_cell_angle_alpha 90.000000
_cell_angle_beta 90.000000
_cell_angle_gamma 90.000000
_cell_volume 6475.224569
_symmetry_space_group_name_H-M "I M M M"
_symmetry_group_IT_number 71
_symmetry_cell_setting 'orthorhombic'
loop_
_space_group_symop_operation_xyz
x,y,z
-x,-y,z
x,-y,-z
-x,y,-z
-x,-y,-z
x,y,-z
-x,y,z
x,-y,z
1/2+x,1/2+y,1/2+z
1/2-x,1/2-y,1/2+z
1/2+x,1/2-y,1/2-z
1/2-x,1/2+y,1/2-z
1/2-x,1/2-y,1/2-z
1/2+x,1/2+y,1/2-z
1/2-x,1/2+y,1/2+z
1/2+x,1/2-y,1/2+z
loop_
_atom_site_type_symbol
_atom_site_label
_atom_site_fract_x
_atom_site_fract_y
_atom_site_fract_z
Si Si1 0.668398 0.612501 0.302150
Si Si2 0.796019 0.385377 0.196938
Si Si3 0.125460 0.279968 0.115616
Si Si4 0.710238 0.614844 0.106998
Si Si5 0.045500 0.390604 0.116677
Si Si6 0.255918 0.114582 0.107196
O O1 0.661579 0.500000 0.307762
O O2 0.632666 0.674950 0.344794
O O3 0.679700 0.639510 0.192770
O O4 0.709562 0.634900 0.362078
O O5 0.798705 0.500000 0.193476
O O6 0.836805 0.340589 0.156425
O O7 0.756120 0.356282 0.135714
O O8 0.785412 0.355511 0.306341
O O9 0.082842 0.325597 0.147227
O O10 0.127281 0.280774 0.000000
O O11 0.711332 0.500000 0.107551
O O12 0.699336 0.645709 0.000000
O O13 0.052209 0.500000 0.145213
O O14 0.000000 0.362129 0.147884
O O15 0.045383 0.389522 0.000000
O O16 0.258421 0.000000 0.105765
O O17 0.264701 0.149173 0.000000
#
# Coordination Sequence:
#
# PCOD9524023 Si02
#       6
#    16  16  16  16  16  16
#     4   9  18  30  41  56  80 111 147 177 198 231
#     4   9  17  27  39  59  84 106 136 178 214 244
#     4  11  20  27  41  63  83 106 137 171 204 240
#     4   8  14  26  42  57  79 112 142 171 210 246
#     4   8  15  29  47  65  85 107 128 154 197 252
#     4   8  14  26  41  54  77 116 150 173 202 239
#
# _framework density 14.82574
#
# number of rings (size 3 to 8) (size 9 to 14) (size 15 to 20)
#    0.000    3.167    0.000    4.000    0.000    5.333 
#    0.000    2.500    0.000    0.500    0.000    2.333 
#    0.000    2.667    0.000   16.000    0.000    0.667 
#
# Total GULP energy -267539.922925 kJ/mol
# GULP energy per Si atom -5573.748394 kJ/mol
# Density = 1.479200 g / cm^3
# Si number density = 14.825740 Si / 1000 Ang^3
#
#
#
# Elastic Constant Matrix: (Units=GPa)
#
#
# Indices 1 2 3 4 5 6 
#
# 1 100.6681 47.6720 37.0415 0.0000 0.0000 0.0000
# 2 47.6720 72.3463 21.1268 0.0000 0.0000 0.0000
# 3 37.0415 21.1268 92.2429 0.0000 0.0000 0.0000
# 4 0.0000 0.0000 0.0000 13.3690 0.0000 0.0000
# 5 0.0000 0.0000 0.0000 0.0000 13.6806 0.0000
# 6 0.0000 0.0000 0.0000 0.0000 0.0000 24.2357
#
#
#
# Elastic Compliance Matrix: (Units=1/GPa)
#
#
# Indices 1 2 3 4 5 6 
#
# 1 0.015862 -0.009208 -0.004261 0.000000 0.000000 0.000000
# 2 -0.009208 0.020158 -0.000919 0.000000 0.000000 0.000000
# 3 -0.004261 -0.000919 0.012762 0.000000 0.000000 0.000000
# 4 0.000000 0.000000 0.000000 0.074800 0.000000 0.000000
# 5 0.000000 0.000000 0.000000 0.000000 0.073096 0.000000
# 6 0.000000 0.000000 0.000000 0.000000 0.000000 0.041262
#
#
# Mechanical properties :
#
#
# Convention : Reuss Voigt Hill
#
# Bulk Modulus (GPa) = 49.98290 52.99308 51.48799
# Shear Modulus (GPa) = 18.28925 20.88485 19.58705
#
# Velocity S-wave (km/s) = 3.51610 3.75732 3.63871
# Velocity P-wave (km/s) = 7.09018 7.39222 7.24277
#
# Compressibility (1/GPa) = 0.02000684
#
# Stress axis : x y z
#
# Youngs Moduli (GPa) = 63.04472 49.60739 78.35489
#
# Poissons Ratio (x) = 0.45677 0.33384
# Poissons Ratio (y) = 0.58050 0.07204
# Poissons Ratio (z) = 0.26861 0.04561
#
# Static dielectric constant tensor:
#      x y z
#    x 1.454530 0.000000 0.000000 
#    y 0.000000 1.552410 0.000000 
#    z 0.000000 0.000000 1.507770 
# 
# From -- ./inp_files/35275.got.cif
#   From: 2010.05.17/outbox.cif.g08.bks.cpg/sg71_18_cif.got.tgz:35275.got - 2010.06.03 16:22:01.
