data_PCOD9524980
_publ_section_title
;
Structure prediction by ZEFSAII (Michael W. Deem and Ramdas Pophale) SiO2 
 PCOD9524980
Probable space group: I B A M
;
_chemical_formula_sum "Si O2"
_cell_formula_units_Z 96
_cell_length_a 7.921487
_cell_length_b 24.748567
_cell_length_c 23.953516
_cell_angle_alpha 90.000000
_cell_angle_beta 90.000000
_cell_angle_gamma 90.000000
_cell_volume 4695.977865
_symmetry_space_group_name_H-M "I B A M"
_symmetry_group_IT_number 72
_symmetry_cell_setting 'orthorhombic'
loop_
_space_group_symop_operation_xyz
x,y,z
-x,-y,z
x,-y,1/2-z
-x,y,1/2-z
-x,-y,-z
x,y,-z
-x,y,1/2+z
x,-y,1/2+z
1/2+x,1/2+y,1/2+z
1/2-x,1/2-y,1/2+z
1/2+x,1/2-y,-z
1/2-x,1/2+y,-z
1/2-x,1/2-y,1/2-z
1/2+x,1/2+y,1/2-z
1/2-x,1/2+y,z
1/2+x,1/2-y,z
loop_
_atom_site_type_symbol
_atom_site_label
_atom_site_fract_x
_atom_site_fract_y
_atom_site_fract_z
Si Si1 0.417487 0.227811 0.436785
Si Si2 0.528014 0.381563 0.813481
Si Si3 0.637239 0.613035 0.500000
Si Si4 0.500000 0.500000 0.356456
Si Si5 0.677854 0.633750 0.918382
Si Si6 0.183452 0.522276 0.435573
Si Si7 0.227489 0.666405 0.898525
O O1 0.486229 0.230535 0.500000
O O2 0.252194 0.190187 0.437645
O O3 0.360376 0.286991 0.418216
O O4 0.550958 0.197984 0.397180
O O5 0.500000 0.365290 0.750000
O O6 0.519473 0.446242 0.820284
O O7 0.377734 0.362040 0.854288
O O8 0.699325 0.359348 0.842241
O O9 0.485726 0.612661 0.548059
O O10 0.774414 0.624046 0.550376
O O11 0.335396 0.503223 0.396156
O O12 0.813700 0.586966 0.929479
O O13 0.222883 0.505740 0.500000
O O14 0.000000 0.500000 0.421074
#
# Coordination Sequence:
#
# PCOD9524980 Si02
#       7
#    16  16   8   8  16  16  16
#     4  12  21  37  59  95 126 161 194 242 306 377
#     4  10  23  44  64  85 116 161 212 258 302 353
#     4  10  16  34  51  85 116 156 189 241 293 356
#     4  10  22  40  68  86 118 163 215 256 308 364
#     4  10  21  36  60  85 126 159 200 247 303 361
#     4  10  20  36  56  93 133 162 192 247 315 379
#     4  11  23  34  60  89 122 155 205 245 301 364
#
# _framework density 20.443027000000001
#
# number of rings (size 3 to 8) (size 9 to 14) (size 15 to 20)
#    0.000    1.500    3.333    2.500    2.333    0.000 
#    1.500    4.167    0.000    1.000    0.000    0.000 
#    0.000    0.000    0.000    0.000    0.000    0.000 
#
# Total GULP energy -267277.018703 kJ/mol
# GULP energy per Si atom -5568.271223 kJ/mol
# Density = 2.039650 g / cm^3
# Si number density = 20.443027 Si / 1000 Ang^3
#
#
#
# Elastic Constant Matrix: (Units=GPa)
#
#
# Indices 1 2 3 4 5 6 
#
# 1 65.1246 -12.1995 7.0927 0.0000 0.0000 0.0000
# 2 -12.1995 41.1124 -4.5375 0.0000 0.0000 0.0000
# 3 7.0927 -4.5375 134.8817 0.0000 0.0000 0.0000
# 4 0.0000 0.0000 0.0000 7.4061 0.0000 0.0000
# 5 0.0000 0.0000 0.0000 0.0000 8.0534 0.0000
# 6 0.0000 0.0000 0.0000 0.0000 0.0000 28.9237
#
#
#
# Elastic Compliance Matrix: (Units=1/GPa)
#
#
# Indices 1 2 3 4 5 6 
#
# 1 0.016324 0.004767 -0.000698 0.000000 0.000000 0.000000
# 2 0.004767 0.025806 0.000617 0.000000 0.000000 0.000000
# 3 -0.000698 0.000617 0.007471 0.000000 0.000000 0.000000
# 4 0.000000 0.000000 0.000000 0.135024 0.000000 0.000000
# 5 0.000000 0.000000 0.000000 0.000000 0.124171 0.000000
# 6 0.000000 0.000000 0.000000 0.000000 0.000000 0.034574
#
#
# Mechanical properties :
#
#
# Convention : Reuss Voigt Hill
#
# Bulk Modulus (GPa) = 16.95648 24.64778 20.80213
# Shear Modulus (GPa) = 14.13801 25.59416 19.86609
#
# Velocity S-wave (km/s) = 2.63265 3.54216 3.12072
# Velocity P-wave (km/s) = 4.18970 5.36770 4.81486
#
# Compressibility (1/GPa) = 0.05897449
#
# Stress axis : x y z
#
# Youngs Moduli (GPa) = 61.25884 38.75031 133.84400
#
# Poissons Ratio (x) = -0.18472 0.09343
# Poissons Ratio (y) = -0.29202 -0.08265
# Poissons Ratio (z) = 0.04276 -0.02393
#
# Static dielectric constant tensor:
#      x y z
#    x 1.821170 0.000000 0.000000 
#    y 0.000000 1.894000 0.000000 
#    z 0.000000 0.000000 1.724660 
# 
# From -- ./inp_files/42485.got.cif
#   From: 2010.05.17/outbox.cif.g08.bks.cpg/sg72_22_cif.got.tgz:42485.got - 2010.06.03 17:03:01.
