data_PCOD9524399
_publ_section_title
;
Structure prediction by ZEFSAII (Michael W. Deem and Ramdas Pophale) SiO2 
 PCOD9524399
Probable space group: I M M M
;
_chemical_formula_sum "Si O2"
_cell_formula_units_Z 72
_cell_length_a 33.718570
_cell_length_b 13.868114
_cell_length_c 7.677665
_cell_angle_alpha 90.000000
_cell_angle_beta 90.000000
_cell_angle_gamma 90.000000
_cell_volume 3590.175754
_symmetry_space_group_name_H-M "I M M M"
_symmetry_group_IT_number 71
_symmetry_cell_setting 'orthorhombic'
loop_
_space_group_symop_operation_xyz
x,y,z
-x,-y,z
x,-y,-z
-x,y,-z
-x,-y,-z
x,y,-z
-x,y,z
x,-y,z
1/2+x,1/2+y,1/2+z
1/2-x,1/2-y,1/2+z
1/2+x,1/2-y,1/2-z
1/2-x,1/2+y,1/2-z
1/2-x,1/2-y,1/2-z
1/2+x,1/2+y,1/2-z
1/2-x,1/2+y,1/2+z
1/2+x,1/2-y,1/2+z
loop_
_atom_site_type_symbol
_atom_site_label
_atom_site_fract_x
_atom_site_fract_y
_atom_site_fract_z
Si Si1 0.288207 0.617410 0.198756
Si Si2 0.877661 0.889160 0.711167
Si Si3 0.083715 0.300507 0.798711
Si Si4 0.638359 0.884845 0.000000
Si Si5 0.229378 0.617678 0.500000
Si Si6 0.000000 0.389049 0.211363
O O1 0.288594 0.500000 0.196220
O O2 0.332796 0.643101 0.258443
O O3 0.254223 0.647593 0.330944
O O4 0.281433 0.648631 0.000000
O O5 0.879048 0.886862 0.500000
O O6 0.909064 0.813837 0.784036
O O7 0.883471 0.000000 0.765953
O O8 0.115691 0.346817 0.669798
O O9 0.040250 0.334632 0.738568
O O10 0.089081 0.330432 0.000000
O O11 0.683882 0.851751 0.000000
O O12 0.637294 0.000000 0.000000
O O13 0.228914 0.500000 0.500000
O O14 0.000000 0.500000 0.272593
O O15 0.000000 0.391209 0.000000
#
# Coordination Sequence:
#
# PCOD9524399 Si02
#       6
#    16  16  16   8   8   8
#     4   8  15  29  52  79 109 154 203 240 282 346
#     4   9  18  36  62  90 124 162 201 245 296 357
#     4  11  23  40  64  91 123 153 201 254 304 364
#     4  11  24  41  59  86 122 158 202 260 314 357
#     4   9  18  32  53  81 114 153 201 249 296 351
#     4   9  20  41  66  91 117 156 204 249 299 361
#
# _framework density 20.054729999999999
#
# number of rings (size 3 to 8) (size 9 to 14) (size 15 to 20)
#    0.000    2.556    1.111    2.000    1.556    3.111 
#    0.000    5.000    0.000    3.333    0.000    0.000 
#    0.000    0.000    0.000    0.000    0.000    0.000 
#
# Total GULP energy -201122.124317 kJ/mol
# GULP energy per Si atom -5586.725675 kJ/mol
# Density = 2.000908 g / cm^3
# Si number density = 20.054730 Si / 1000 Ang^3
#
#
#
# Elastic Constant Matrix: (Units=GPa)
#
#
# Indices 1 2 3 4 5 6 
#
# 1 181.4423 81.5977 62.4567 0.0000 0.0000 0.0000
# 2 81.5977 106.3123 37.1871 0.0000 0.0000 0.0000
# 3 62.4567 37.1871 85.3762 0.0000 0.0000 0.0000
# 4 0.0000 0.0000 0.0000 24.1956 0.0000 0.0000
# 5 0.0000 0.0000 0.0000 0.0000 37.3229 0.0000
# 6 0.0000 0.0000 0.0000 0.0000 0.0000 25.7365
#
#
#
# Elastic Compliance Matrix: (Units=1/GPa)
#
#
# Indices 1 2 3 4 5 6 
#
# 1 0.009716 -0.005865 -0.004553 0.000000 0.000000 0.000000
# 2 -0.005865 0.014637 -0.002085 0.000000 0.000000 0.000000
# 3 -0.004553 -0.002085 0.015952 0.000000 0.000000 0.000000
# 4 0.000000 0.000000 0.000000 0.041330 0.000000 0.000000
# 5 0.000000 0.000000 0.000000 0.000000 0.026793 0.000000
# 6 0.000000 0.000000 0.000000 0.000000 0.000000 0.038855
#
#
# Mechanical properties :
#
#
# Convention : Reuss Voigt Hill
#
# Bulk Modulus (GPa) = 65.36425 81.73487 73.54956
# Shear Modulus (GPa) = 28.18653 30.24362 29.21508
#
# Velocity S-wave (km/s) = 3.75304 3.88758 3.82090
# Velocity P-wave (km/s) = 7.17246 7.80996 7.49798
#
# Compressibility (1/GPa) = 0.01529888
#
# Stress axis : x y z
#
# Youngs Moduli (GPa) = 102.92022 68.32020 62.68781
#
# Poissons Ratio (x) = 0.40068 0.28544
# Poissons Ratio (y) = 0.60360 0.13071
# Poissons Ratio (z) = 0.46864 0.14245
#
# Static dielectric constant tensor:
#      x y z
#    x 1.675030 0.000000 0.000000 
#    y 0.000000 1.754400 0.000000 
#    z 0.000000 0.000000 1.715650 
# 
# From -- ./inp_files/16429.got.cif
#   From: 2010.05.17/outbox.cif.g08.bks.cpg/sg71_9_cif.got.tgz:16429.got - 2010.06.03 16:22:01.
