data_PCOD9524121
_publ_section_title
;
Structure prediction by ZEFSAII (Michael W. Deem and Ramdas Pophale) SiO2 
 PCOD9524121
Probable space group: I M M M
;
_chemical_formula_sum "Si O2"
_cell_formula_units_Z 72
_cell_length_a 24.461858
_cell_length_b 8.034941
_cell_length_c 18.482271
_cell_angle_alpha 90.000000
_cell_angle_beta 90.000000
_cell_angle_gamma 90.000000
_cell_volume 3632.682709
_symmetry_space_group_name_H-M "I M M M"
_symmetry_group_IT_number 71
_symmetry_cell_setting 'orthorhombic'
loop_
_space_group_symop_operation_xyz
x,y,z
-x,-y,z
x,-y,-z
-x,y,-z
-x,-y,-z
x,y,-z
-x,y,z
x,-y,z
1/2+x,1/2+y,1/2+z
1/2-x,1/2-y,1/2+z
1/2+x,1/2-y,1/2-z
1/2-x,1/2+y,1/2-z
1/2-x,1/2-y,1/2-z
1/2+x,1/2+y,1/2-z
1/2-x,1/2+y,1/2+z
1/2+x,1/2-y,1/2+z
loop_
_atom_site_type_symbol
_atom_site_label
_atom_site_fract_x
_atom_site_fract_y
_atom_site_fract_z
Si Si1 0.873858 0.197586 0.143969
Si Si2 0.237911 0.299702 0.917256
Si Si3 0.436956 0.295856 0.786231
Si Si4 0.438024 0.198522 0.500000
Si Si5 0.361498 0.296802 0.082615
O O1 0.810777 0.247044 0.134729
O O2 0.904085 0.262832 0.215445
O O3 0.875970 0.000000 0.148049
O O4 0.905879 0.250093 0.071839
O O5 0.238267 0.500000 0.919072
O O6 0.299385 0.244962 0.898275
O O7 0.226345 0.242302 0.000000
O O8 0.500000 0.243239 0.784428
O O9 0.436809 0.500000 0.785937
O O10 0.405164 0.241759 0.858334
O O11 0.500000 0.266069 0.500000
O O12 0.440584 0.000000 0.500000
O O13 0.361750 0.500000 0.082610
O O14 0.372876 0.244558 0.000000
#
# Coordination Sequence:
#
# PCOD9524121 Si02
#       5
#    16  16  16   8  16
#     4  11  21  32  50  76 106 140 173 211 260 306
#     4   9  17  31  51  74 103 136 172 214 256 301
#     4   9  18  31  46  70 105 137 170 216 263 307
#     4  11  23  37  53  73  99 137 182 219 252 301
#     4   8  15  29  50  74  99 134 174 212 258 309
#
# _framework density 19.820063000000001
#
# number of rings (size 3 to 8) (size 9 to 14) (size 15 to 20)
#    0.000    2.556    1.111    3.000    0.000    3.111 
#    0.000    2.222    0.000    1.333    0.000    0.000 
#    0.000    0.000    0.000   15.778    0.000   16.444 
#
# Total GULP energy -200899.048766 kJ/mol
# GULP energy per Si atom -5580.529132 kJ/mol
# Density = 1.977495 g / cm^3
# Si number density = 19.820063 Si / 1000 Ang^3
#
#
#
# Elastic Constant Matrix: (Units=GPa)
#
#
# Indices 1 2 3 4 5 6 
#
# 1 163.6059 10.7066 120.9736 0.0000 0.0000 0.0000
# 2 10.7066 14.5355 7.5165 0.0000 0.0000 0.0000
# 3 120.9736 7.5165 162.1739 0.0000 0.0000 0.0000
# 4 0.0000 0.0000 0.0000 2.4748 0.0000 0.0000
# 5 0.0000 0.0000 0.0000 0.0000 33.3163 0.0000
# 6 0.0000 0.0000 0.0000 0.0000 0.0000 14.1457
#
#
#
# Elastic Compliance Matrix: (Units=1/GPa)
#
#
# Indices 1 2 3 4 5 6 
#
# 1 0.013980 -0.005025 -0.010195 0.000000 0.000000 0.000000
# 2 -0.005025 0.072293 0.000398 0.000000 0.000000 0.000000
# 3 -0.010195 0.000398 0.013753 0.000000 0.000000 0.000000
# 4 0.000000 0.000000 0.000000 0.404076 0.000000 0.000000
# 5 0.000000 0.000000 0.000000 0.000000 0.030015 0.000000
# 6 0.000000 0.000000 0.000000 0.000000 0.000000 0.070693
#
#
# Mechanical properties :
#
#
# Convention : Reuss Voigt Hill
#
# Bulk Modulus (GPa) = 14.20856 68.74542 41.47699
# Shear Modulus (GPa) = 7.59977 23.39525 15.49751
#
# Velocity S-wave (km/s) = 1.96028 3.43940 2.79930
# Velocity P-wave (km/s) = 3.50827 7.10863 5.60538
#
# Compressibility (1/GPa) = 0.07038013
#
# Stress axis : x y z
#
# Youngs Moduli (GPa) = 71.53263 13.83268 72.71198
#
# Poissons Ratio (x) = 0.06951 0.74131
# Poissons Ratio (y) = 0.35946 -0.02892
# Poissons Ratio (z) = 0.72929 -0.00550
#
# Static dielectric constant tensor:
#      x y z
#    x 1.698750 0.000000 0.000000 
#    y 0.000000 1.714780 0.000000 
#    z 0.000000 0.000000 1.675360 
# 
# From -- ./inp_files/12159.got.cif
#   From: 2010.05.17/outbox.cif.g08.bks.cpg/sg71_7_cif.got.tgz:12159.got - 2010.06.03 16:22:01.
