data_PCOD9524349
_publ_section_title
;
Structure prediction by ZEFSAII (Michael W. Deem and Ramdas Pophale) SiO2 
 PCOD9524349
Probable space group: I M M M
;
_chemical_formula_sum "Si O2"
_cell_formula_units_Z 72
_cell_length_a 28.477812
_cell_length_b 16.858823
_cell_length_c 7.689216
_cell_angle_alpha 90.000000
_cell_angle_beta 90.000000
_cell_angle_gamma 90.000000
_cell_volume 3691.610994
_symmetry_space_group_name_H-M "I M M M"
_symmetry_group_IT_number 71
_symmetry_cell_setting 'orthorhombic'
loop_
_space_group_symop_operation_xyz
x,y,z
-x,-y,z
x,-y,-z
-x,y,-z
-x,-y,-z
x,y,-z
-x,y,z
x,-y,z
1/2+x,1/2+y,1/2+z
1/2-x,1/2-y,1/2+z
1/2+x,1/2-y,1/2-z
1/2-x,1/2+y,1/2-z
1/2-x,1/2-y,1/2-z
1/2+x,1/2+y,1/2-z
1/2-x,1/2+y,1/2+z
1/2+x,1/2-y,1/2+z
loop_
_atom_site_type_symbol
_atom_site_label
_atom_site_fract_x
_atom_site_fract_y
_atom_site_fract_z
Si Si1 0.052592 0.820751 0.287716
Si Si2 0.804547 0.755661 0.708747
Si Si3 0.053658 0.500000 0.205198
Si Si4 0.857159 0.912373 0.287574
Si Si5 0.393639 0.837171 0.208865
O O1 0.051809 0.819825 0.500000
O O2 0.090146 0.887202 0.237350
O O3 0.072886 0.735231 0.232335
O O4 0.000000 0.833596 0.225952
O O5 0.808342 0.755833 0.500000
O O6 0.750000 0.750000 0.750000
O O7 0.824375 0.840345 0.771641
O O8 0.840950 0.687028 0.770567
O O9 0.083539 0.421359 0.248370
O O10 0.000000 0.500000 0.280692
O O11 0.048301 0.500000 0.000000
O O12 0.855573 0.913011 0.500000
O O13 0.844492 0.000000 0.226870
O O14 0.392395 0.833999 0.000000
#
# Coordination Sequence:
#
# PCOD9524349 Si02
#       5
#    16  16   8  16  16
#     4   8  13  22  40  66  92 121 157 190 224 274
#     4   9  18  33  52  72  96 128 165 204 246 294
#     4  11  23  35  49  75 107 133 165 215 268 313
#     4   8  14  25  41  64  94 122 149 185 230 281
#     4   9  18  33  51  70  96 133 172 205 243 299
#
# _framework density 19.503679000000002
#
# number of rings (size 3 to 8) (size 9 to 14) (size 15 to 20)
#    0.000    3.222    0.000    3.667    0.000    3.111 
#    2.000    2.222    0.000    0.000    0.000    0.000 
#    0.000    0.000    0.000   23.556    0.000   17.778 
#
# Total GULP energy -200548.677264 kJ/mol
# GULP energy per Si atom -5570.796591 kJ/mol
# Density = 1.945929 g / cm^3
# Si number density = 19.503679 Si / 1000 Ang^3
#
#
#
# Elastic Constant Matrix: (Units=GPa)
#
#
# Indices 1 2 3 4 5 6 
#
# 1 193.3031 88.5317 9.5671 0.0000 0.0000 0.0000
# 2 88.5317 147.9791 8.2653 0.0000 0.0000 0.0000
# 3 9.5671 8.2653 32.5709 0.0000 0.0000 0.0000
# 4 0.0000 0.0000 0.0000 -8.8142 0.0000 0.0000
# 5 0.0000 0.0000 0.0000 0.0000 17.4478 0.0000
# 6 0.0000 0.0000 0.0000 0.0000 0.0000 8.5124
#
#
#
# Elastic Compliance Matrix: (Units=1/GPa)
#
#
# Indices 1 2 3 4 5 6 
#
# 1 0.007160 -0.004226 -0.001031 0.000000 0.000000 0.000000
# 2 -0.004226 0.009349 -0.001131 0.000000 0.000000 0.000000
# 3 -0.001031 -0.001131 0.031292 0.000000 0.000000 0.000000
# 4 0.000000 0.000000 0.000000 -0.113453 0.000000 0.000000
# 5 0.000000 0.000000 0.000000 0.000000 0.057314 0.000000
# 6 0.000000 0.000000 0.000000 0.000000 0.000000 0.117476
#
#
# Mechanical properties :
#
#
# Convention : Reuss Voigt Hill
#
# Bulk Modulus (GPa) = 28.55072 65.17568 46.86320
# Shear Modulus (GPa) = 37.42859 21.26180 29.34520
#
# Velocity S-wave (km/s) = 4.38545 3.30531 3.88312
# Velocity P-wave (km/s) = 6.34928 6.93228 6.64717
#
# Compressibility (1/GPa) = 0.03502539
#
# Stress axis : x y z
#
# Youngs Moduli (GPa) = 139.67176 106.96221 31.95703
#
# Poissons Ratio (x) = 0.45201 0.03294
# Poissons Ratio (y) = 0.59023 0.03615
# Poissons Ratio (z) = 0.14395 0.12100
#
# Static dielectric constant tensor:
#      x y z
#    x 1.699810 0.000000 0.000000 
#    y 0.000000 1.683050 0.000000 
#    z 0.000000 0.000000 1.742810 
# 
# From -- ./inp_files/6495.got.cif
#   From: 2010.05.17/outbox.cif.g08.bks.cpg/sg71_4_cif.got.tgz:6495.got - 2010.06.03 16:22:01.
