data_PCOD9524331
_publ_section_title
;
Structure prediction by ZEFSAII (Michael W. Deem and Ramdas Pophale) SiO2 
 PCOD9524331
Probable space group: I M M M
;
_chemical_formula_sum "Si O2"
_cell_formula_units_Z 72
_cell_length_a 17.148009
_cell_length_b 24.868463
_cell_length_c 8.599914
_cell_angle_alpha 90.000000
_cell_angle_beta 90.000000
_cell_angle_gamma 90.000000
_cell_volume 3667.387121
_symmetry_space_group_name_H-M "I M M M"
_symmetry_group_IT_number 71
_symmetry_cell_setting 'orthorhombic'
loop_
_space_group_symop_operation_xyz
x,y,z
-x,-y,z
x,-y,-z
-x,y,-z
-x,-y,-z
x,y,-z
-x,y,z
x,-y,z
1/2+x,1/2+y,1/2+z
1/2-x,1/2-y,1/2+z
1/2+x,1/2-y,1/2-z
1/2-x,1/2+y,1/2-z
1/2-x,1/2-y,1/2-z
1/2+x,1/2+y,1/2-z
1/2-x,1/2+y,1/2+z
1/2+x,1/2-y,1/2+z
loop_
_atom_site_type_symbol
_atom_site_label
_atom_site_fract_x
_atom_site_fract_y
_atom_site_fract_z
Si Si1 0.412575 0.764264 0.314934
Si Si2 0.796012 0.350446 0.319007
Si Si3 0.874225 0.851391 0.315259
Si Si4 0.500000 0.438661 0.810957
Si Si5 0.090654 0.436363 0.183548
O O1 0.404867 0.770694 0.500000
O O2 0.500000 0.782736 0.269982
O O3 0.345418 0.798501 0.233229
O O4 0.404199 0.702083 0.269519
O O5 0.776565 0.346254 0.500000
O O6 0.716601 0.356738 0.223565
O O7 0.851881 0.400707 0.283717
O O8 0.885309 0.844243 0.500000
O O9 0.924546 0.903337 0.266173
O O10 0.500000 0.500000 0.753241
O O11 0.500000 0.441274 0.000000
O O12 0.103703 0.500000 0.203478
O O13 0.000000 0.425385 0.219968
O O14 0.102008 0.423722 0.000000
#
# Coordination Sequence:
#
# PCOD9524331 Si02
#       5
#    16  16  16   8  16
#     4  11  23  40  63  89 122 160 201 249 308 370
#     4  12  25  38  57  89 126 161 203 249 303 365
#     4  11  22  40  64  89 120 156 201 254 307 363
#     4   9  20  40  67  95 119 153 202 253 306 365
#     4   9  19  38  62  86 116 156 201 248 300 358
#
# _framework density 19.632505999999999
#
# number of rings (size 3 to 8) (size 9 to 14) (size 15 to 20)
#    0.000    1.444    1.111    5.333    0.000    5.778 
#    0.000    3.333    0.000    4.667    0.000    0.000 
#    0.000    0.000    0.000    0.000    0.000    0.000 
#
# Total GULP energy -201295.853370 kJ/mol
# GULP energy per Si atom -5591.551482 kJ/mol
# Density = 1.958782 g / cm^3
# Si number density = 19.632506 Si / 1000 Ang^3
#
#
#
# Elastic Constant Matrix: (Units=GPa)
#
#
# Indices 1 2 3 4 5 6 
#
# 1 92.1774 44.3283 -0.1926 0.0000 0.0000 0.0000
# 2 44.3283 100.1088 3.4727 0.0000 0.0000 0.0000
# 3 -0.1926 3.4727 15.7581 0.0000 0.0000 0.0000
# 4 0.0000 0.0000 0.0000 30.6180 0.0000 0.0000
# 5 0.0000 0.0000 0.0000 0.0000 41.1681 0.0000
# 6 0.0000 0.0000 0.0000 0.0000 0.0000 -47.3997
#
#
#
# Elastic Compliance Matrix: (Units=1/GPa)
#
#
# Indices 1 2 3 4 5 6 
#
# 1 0.013820 -0.006173 0.001529 0.000000 0.000000 0.000000
# 2 -0.006173 0.012823 -0.002901 0.000000 0.000000 0.000000
# 3 0.001529 -0.002901 0.064118 0.000000 0.000000 0.000000
# 4 0.000000 0.000000 0.000000 0.032661 0.000000 0.000000
# 5 0.000000 0.000000 0.000000 0.000000 0.024291 0.000000
# 6 0.000000 0.000000 0.000000 0.000000 0.000000 -0.021097
#
#
# Mechanical properties :
#
#
# Convention : Reuss Voigt Hill
#
# Bulk Modulus (GPa) = 13.21506 33.69567 23.45536
# Shear Modulus (GPa) = 29.95298 15.57300 22.76299
#
# Velocity S-wave (km/s) = 3.91024 2.81948 3.40877
# Velocity P-wave (km/s) = 5.20888 5.27255 5.24081
#
# Compressibility (1/GPa) = 0.07567126
#
# Stress axis : x y z
#
# Youngs Moduli (GPa) = 72.35732 77.98459 15.59636
#
# Poissons Ratio (x) = 0.48137 -0.02385
# Poissons Ratio (y) = 0.44664 0.04525
# Poissons Ratio (z) = -0.11065 0.22626
#
# Static dielectric constant tensor:
#      x y z
#    x 1.676400 0.000000 0.000000 
#    y 0.000000 1.678890 0.000000 
#    z 0.000000 0.000000 1.668810 
# 
# From -- ./inp_files/6103.got.cif
#   From: 2010.05.17/outbox.cif.g08.bks.cpg/sg71_4_cif.got.tgz:6103.got - 2010.06.03 16:22:01.
