data_PCOD9524822
_publ_section_title
;
Structure prediction by ZEFSAII (Michael W. Deem and Ramdas Pophale) SiO2 
 PCOD9524822
Probable space group: I M M M
;
_chemical_formula_sum "Si O2"
_cell_formula_units_Z 52
_cell_length_a 30.000000
_cell_length_b 9.000000
_cell_length_c 21.000000
_cell_angle_alpha 90.000000
_cell_angle_beta 90.000000
_cell_angle_gamma 90.000000
_cell_volume 5670.000000
_symmetry_space_group_name_H-M "I M M M"
_symmetry_group_IT_number 71
_symmetry_cell_setting 'orthorhombic'
loop_
_space_group_symop_operation_xyz
x,y,z
-x,-y,z
x,-y,-z
-x,y,-z
-x,-y,-z
x,y,-z
-x,y,z
x,-y,z
1/2+x,1/2+y,1/2+z
1/2-x,1/2-y,1/2+z
1/2+x,1/2-y,1/2-z
1/2-x,1/2+y,1/2-z
1/2-x,1/2-y,1/2-z
1/2+x,1/2+y,1/2-z
1/2-x,1/2+y,1/2+z
1/2+x,1/2-y,1/2+z
loop_
_atom_site_type_symbol
_atom_site_label
_atom_site_fract_x
_atom_site_fract_y
_atom_site_fract_z
Si Si1 0.127357 0.320873 0.094205
Si Si2 0.631703 0.174179 0.744469
Si Si3 0.282051 0.320592 0.803177
Si Si4 0.053993 0.333433 0.428685
Si Si5 0.552994 0.669766 0.806009
Si Si6 0.554580 0.319998 0.500000
Si Si7 0.229700 0.680259 0.930720
O O1 0.122797 0.500000 0.084217
O O2 0.130978 0.291137 0.169478
O O3 0.177308 0.275077 0.071879
O O4 0.085087 0.243136 0.059178
O O5 0.668583 0.263223 0.785144
O O6 0.582518 0.216568 0.767147
O O7 0.641375 0.000000 0.751649
O O8 0.281184 0.500000 0.800043
O O9 0.250000 0.250000 0.750000
O O10 0.260521 0.273738 0.871237
O O11 0.070423 0.307261 0.500000
O O12 0.068108 0.500000 0.408081
O O13 0.065173 0.206721 0.378975
O O14 0.000000 0.337121 0.431291
O O15 0.500000 0.691819 0.798035
O O16 0.563527 0.500000 0.789600
O O17 0.556152 0.500000 0.500000
O O18 0.500000 0.281067 0.500000
O O19 0.228744 0.500000 0.928029
O O20 0.247616 0.725650 0.000000
#
# Coordination Sequence:
#
# PCOD9524822 Si02
#       7
#    16  16  16  16  16   8  16
#     4  10  20  38  63  86 110 151 205 247 290 356
#     4  11  23  39  59  86 118 155 202 250 299 358
#     4  11  21  36  60  90 121 153 194 247 309 372
#     4   8  14  27  49  75 101 133 176 225 276 330
#     4  10  21  36  54  79 112 151 194 241 296 354
#     4  11  25  41  57  87 129 163 197 251 316 369
#     4   9  17  34  61  89 117 150 193 245 295 353
#
# _framework density 9.1710759999999993
#
# number of rings (size 3 to 8) (size 9 to 14) (size 15 to 20)
#    0.000    2.077    2.308    2.077    0.000    3.692 
#    0.000    5.385    0.000    2.769    0.000    0.000 
#    0.000    0.000    0.000    0.000    0.000    0.000 
#
# Total GULP energy -289639.608266 kJ/mol
# GULP energy per Si atom -5569.992467 kJ/mol
# Density = 0.915020 g / cm^3
# Si number density = 9.171076 Si / 1000 Ang^3
#
#
#
# Elastic Constant Matrix: (Units=GPa)
#
#
# Indices 1 2 3 4 5 6 
#
# 1 80.6099 31.6361 49.2759 0.0000 0.0000 0.0000
# 2 31.6361 42.7732 36.7076 0.0000 0.0000 0.0000
# 3 49.2759 36.7076 132.3863 0.0000 0.0000 0.0000
# 4 0.0000 0.0000 0.0000 23.1352 0.0000 0.0000
# 5 0.0000 0.0000 0.0000 0.0000 31.1277 0.0000
# 6 0.0000 0.0000 0.0000 0.0000 0.0000 33.4069
#
#
#
# Elastic Compliance Matrix: (Units=1/GPa)
#
#
# Indices 1 2 3 4 5 6 
#
# 1 0.019099 -0.010531 -0.004189 0.000000 0.000000 0.000000
# 2 -0.010531 0.036487 -0.006197 0.000000 0.000000 0.000000
# 3 -0.004189 -0.006197 0.010831 0.000000 0.000000 0.000000
# 4 0.000000 0.000000 0.000000 0.043224 0.000000 0.000000
# 5 0.000000 0.000000 0.000000 0.000000 0.032126 0.000000
# 6 0.000000 0.000000 0.000000 0.000000 0.000000 0.029934
#
#
# Mechanical properties :
#
#
# Convention : Reuss Voigt Hill
#
# Bulk Modulus (GPa) = 40.67941 54.55649 47.61795
# Shear Modulus (GPa) = 22.55003 26.74394 24.64699
#
# Velocity S-wave (km/s) = 3.51010 3.82260 3.66968
# Velocity P-wave (km/s) = 6.21723 7.02078 6.63119
#
# Compressibility (1/GPa) = 0.02458246
#
# Stress axis : x y z
#
# Youngs Moduli (GPa) = 52.35834 27.40736 92.32699
#
# Poissons Ratio (x) = 0.28864 0.38675
# Poissons Ratio (y) = 0.55140 0.57215
# Poissons Ratio (z) = 0.21932 0.16984
#
# Static dielectric constant tensor:
#      x y z
#    x 1.629610 0.000000 0.000000 
#    y 0.000000 1.630510 0.000000 
#    z 0.000000 0.000000 1.697240 
# 
# From -- ./inp_files/56725.got.cif
#   From: 2010.05.17/outbox.ucp.g08.bks.cvg/sg71_29_cif.got.tgz:56725.got - 2010.06.11 16:29:00.
