data_PCOD9524140
_publ_section_title
;
Structure prediction by ZEFSAII (Michael W. Deem and Ramdas Pophale) SiO2 
 PCOD9524140
Probable space group: I M M M
;
_chemical_formula_sum "Si O2"
_cell_formula_units_Z 88
_cell_length_a 13.397438
_cell_length_b 20.419865
_cell_length_c 18.459758
_cell_angle_alpha 90.000000
_cell_angle_beta 90.000000
_cell_angle_gamma 90.000000
_cell_volume 5050.107533
_symmetry_space_group_name_H-M "I M M M"
_symmetry_group_IT_number 71
_symmetry_cell_setting 'orthorhombic'
loop_
_space_group_symop_operation_xyz
x,y,z
-x,-y,z
x,-y,-z
-x,y,-z
-x,-y,-z
x,y,-z
-x,y,z
x,-y,z
1/2+x,1/2+y,1/2+z
1/2-x,1/2-y,1/2+z
1/2+x,1/2-y,1/2-z
1/2-x,1/2+y,1/2-z
1/2-x,1/2-y,1/2-z
1/2+x,1/2+y,1/2-z
1/2-x,1/2+y,1/2+z
1/2+x,1/2-y,1/2+z
loop_
_atom_site_type_symbol
_atom_site_label
_atom_site_fract_x
_atom_site_fract_y
_atom_site_fract_z
Si Si1 0.807149 0.424716 0.329472
Si Si2 0.183055 0.745155 0.085018
Si Si3 0.108887 0.307204 0.413188
Si Si4 0.385830 0.393538 0.415902
Si Si5 0.881446 0.623414 0.179284
Si Si6 0.120698 0.500000 0.918572
O O1 0.840284 0.500000 0.323068
O O2 0.870579 0.379985 0.384212
O O3 0.695300 0.422563 0.361492
O O4 0.820807 0.388574 0.252783
O O5 0.297171 0.762125 0.107011
O O6 0.126201 0.814639 0.089030
O O7 0.139147 0.690938 0.137912
O O8 0.179695 0.724357 0.000000
O O9 0.109780 0.309121 0.500000
O O10 0.000000 0.284436 0.387867
O O11 0.362108 0.410866 0.500000
O O12 0.500000 0.412172 0.401462
O O13 0.852062 0.564808 0.125147
O O14 0.000000 0.618071 0.195573
O O15 0.000000 0.500000 0.922486
O O16 0.160307 0.500000 0.000000
#
# Coordination Sequence:
#
# PCOD9524140 Si02
#       6
#    16  16  16  16  16   8
#     4  11  22  35  50  73 109 144 176 212 259 313
#     4   9  18  34  56  80 104 134 175 222 270 319
#     4   9  19  35  54  77 104 135 174 217 260 313
#     4   9  19  36  57  81 107 136 175 222 265 308
#     4  11  21  33  51  77 108 141 174 214 267 317
#     4   9  18  32  50  74 102 135 176 214 252 305
#
# _framework density 17.425373
#
# number of rings (size 3 to 8) (size 9 to 14) (size 15 to 20)
#    0.000    2.273    0.909    3.273    0.000    7.636 
#    0.000    4.545    0.000    0.000    0.000    0.000 
#    0.000    4.364    0.000    0.000    0.000    0.000 
#
# Total GULP energy -245382.166502 kJ/mol
# GULP energy per Si atom -5576.867420 kJ/mol
# Density = 1.738571 g / cm^3
# Si number density = 17.425373 Si / 1000 Ang^3
#
#
#
# Elastic Constant Matrix: (Units=GPa)
#
#
# Indices 1 2 3 4 5 6 
#
# 1 84.6771 2.9012 40.3633 0.0000 0.0000 0.0000
# 2 2.9012 61.8498 25.8541 0.0000 0.0000 0.0000
# 3 40.3633 25.8541 62.6005 0.0000 0.0000 0.0000
# 4 0.0000 0.0000 0.0000 23.6779 0.0000 0.0000
# 5 0.0000 0.0000 0.0000 0.0000 24.1968 0.0000
# 6 0.0000 0.0000 0.0000 0.0000 0.0000 9.4800
#
#
#
# Elastic Compliance Matrix: (Units=1/GPa)
#
#
# Indices 1 2 3 4 5 6 
#
# 1 0.018199 0.004897 -0.013757 0.000000 0.000000 0.000000
# 2 0.004897 0.020860 -0.011772 0.000000 0.000000 0.000000
# 3 -0.013757 -0.011772 0.029706 0.000000 0.000000 0.000000
# 4 0.000000 0.000000 0.000000 0.042234 0.000000 0.000000
# 5 0.000000 0.000000 0.000000 0.000000 0.041328 0.000000
# 6 0.000000 0.000000 0.000000 0.000000 0.000000 0.105485
#
#
# Mechanical properties :
#
#
# Convention : Reuss Voigt Hill
#
# Bulk Modulus (GPa) = 36.36302 38.59606 37.47954
# Shear Modulus (GPa) = 16.22095 20.80485 18.51290
#
# Velocity S-wave (km/s) = 3.05434 3.45909 3.26300
# Velocity P-wave (km/s) = 5.77511 6.17666 5.97926
#
# Compressibility (1/GPa) = 0.02750047
#
# Stress axis : x y z
#
# Youngs Moduli (GPa) = 54.94708 47.93975 33.66271
#
# Poissons Ratio (x) = -0.23476 0.46309
# Poissons Ratio (y) = -0.26907 0.39629
# Poissons Ratio (z) = 0.75590 0.56437
#
# Static dielectric constant tensor:
#      x y z
#    x 1.614760 0.000000 0.000000 
#    y 0.000000 1.579760 0.000000 
#    z 0.000000 0.000000 1.597070 
# 
# From -- ./inp_files/44724.got.cif
#   From: 2010.05.17/outbox.cif.g08.bks.cpg/sg71_23_cif.got.tgz:44724.got - 2010.06.03 16:22:01.
