data_PCOD9524257
_publ_section_title
;
Structure prediction by ZEFSAII (Michael W. Deem and Ramdas Pophale) SiO2 
 PCOD9524257
Probable space group: I M M M
;
_chemical_formula_sum "Si O2"
_cell_formula_units_Z 104
_cell_length_a 23.580310
_cell_length_b 8.690462
_cell_length_c 27.252587
_cell_angle_alpha 90.000000
_cell_angle_beta 90.000000
_cell_angle_gamma 90.000000
_cell_volume 5584.703361
_symmetry_space_group_name_H-M "I M M M"
_symmetry_group_IT_number 71
_symmetry_cell_setting 'orthorhombic'
loop_
_space_group_symop_operation_xyz
x,y,z
-x,-y,z
x,-y,-z
-x,y,-z
-x,-y,-z
x,y,-z
-x,y,z
x,-y,z
1/2+x,1/2+y,1/2+z
1/2-x,1/2-y,1/2+z
1/2+x,1/2-y,1/2-z
1/2-x,1/2+y,1/2-z
1/2-x,1/2-y,1/2-z
1/2+x,1/2+y,1/2-z
1/2-x,1/2+y,1/2+z
1/2+x,1/2-y,1/2+z
loop_
_atom_site_type_symbol
_atom_site_label
_atom_site_fract_x
_atom_site_fract_y
_atom_site_fract_z
Si Si1 0.935587 0.814081 0.290360
Si Si2 0.741989 0.816008 0.056811
Si Si3 0.064641 0.685238 0.181587
Si Si4 0.636799 0.184529 0.411183
Si Si5 0.067483 0.179558 0.000000
Si Si6 0.567598 0.828924 0.056348
Si Si7 0.145568 0.176476 0.625404
O O1 0.926952 0.759919 0.234721
O O2 0.883977 0.759906 0.325076
O O3 0.000000 0.763061 0.305388
O O4 0.935527 0.000000 0.292689
O O5 0.802876 0.755485 0.074611
O O6 0.695917 0.760560 0.096599
O O7 0.742046 0.000000 0.055805
O O8 0.731411 0.763151 0.000000
O O9 0.067436 0.500000 0.186589
O O10 0.110638 0.733076 0.141210
O O11 0.000000 0.723305 0.165296
O O12 0.593032 0.238609 0.452548
O O13 0.641449 0.000000 0.411439
O O14 0.000000 0.188073 0.000000
O O15 0.084877 0.000000 0.000000
O O16 0.500000 0.824232 0.057303
O O17 0.593718 0.693839 0.087503
O O18 0.585238 0.000000 0.074672
O O19 0.586273 0.818956 0.000000
O O20 0.162246 0.000000 0.633471
#
# Coordination Sequence:
#
# PCOD9524257 Si02
#       7
#    16  16  16  16   8  16  16
#     4   9  19  36  57  83 115 149 186 234 289 342
#     4  11  24  41  59  80 112 152 196 241 287 344
#     4   9  19  36  59  88 118 147 182 227 282 343
#     4  11  22  38  61  87 117 151 190 236 286 337
#     4  11  23  37  57  89 125 157 190 227 274 339
#     4   9  18  32  49  72 104 140 179 227 286 347
#     4  11  22  35  54  80 109 144 192 240 286 341
#
# _framework density 18.622295000000001
#
# number of rings (size 3 to 8) (size 9 to 14) (size 15 to 20)
#    0.000    1.923    0.769    3.462    0.000    7.692 
#    0.000    4.615    0.000    0.000    0.000    0.000 
#    0.000    0.000    0.000    0.000    0.000    0.000 
#
# Total GULP energy -290075.064044 kJ/mol
# GULP energy per Si atom -5578.366616 kJ/mol
# Density = 1.857991 g / cm^3
# Si number density = 18.622295 Si / 1000 Ang^3
#
#
#
# Elastic Constant Matrix: (Units=GPa)
#
#
# Indices 1 2 3 4 5 6 
#
# 1 103.3616 28.8134 70.7901 0.0000 0.0000 0.0000
# 2 28.8134 29.4487 25.8380 0.0000 0.0000 0.0000
# 3 70.7901 25.8380 112.0441 0.0000 0.0000 0.0000
# 4 0.0000 0.0000 0.0000 27.8001 0.0000 0.0000
# 5 0.0000 0.0000 0.0000 0.0000 116.5267 0.0000
# 6 0.0000 0.0000 0.0000 0.0000 0.0000 28.9049
#
#
#
# Elastic Compliance Matrix: (Units=1/GPa)
#
#
# Indices 1 2 3 4 5 6 
#
# 1 0.019232 -0.010225 -0.009793 0.000000 0.000000 0.000000
# 2 -0.010225 0.048007 -0.004610 0.000000 0.000000 0.000000
# 3 -0.009793 -0.004610 0.016176 0.000000 0.000000 0.000000
# 4 0.000000 0.000000 0.000000 0.035971 0.000000 0.000000
# 5 0.000000 0.000000 0.000000 0.000000 0.008582 0.000000
# 6 0.000000 0.000000 0.000000 0.000000 0.000000 0.034596
#
#
# Mechanical properties :
#
#
# Convention : Reuss Voigt Hill
#
# Bulk Modulus (GPa) = 29.27602 55.08195 42.17899
# Shear Modulus (GPa) = 22.40078 42.60721 32.50399
#
# Velocity S-wave (km/s) = 3.47205 4.78846 4.18237
# Velocity P-wave (km/s) = 5.64168 7.75984 6.78394
#
# Compressibility (1/GPa) = 0.03415765
#
# Stress axis : x y z
#
# Youngs Moduli (GPa) = 51.99624 20.83035 61.82159
#
# Poissons Ratio (x) = 0.21299 0.60542
# Poissons Ratio (y) = 0.53166 0.28503
# Poissons Ratio (z) = 0.50920 0.09604
#
# Static dielectric constant tensor:
#      x y z
#    x 1.651210 0.000000 0.000000 
#    y 0.000000 1.655390 0.000000 
#    z 0.000000 0.000000 1.700170 
# 
# From -- ./inp_files/66802.got.cif
#   From: 2010.05.17/outbox.cif.g08.bks.cpg/sg71_34_cif.got.tgz:66802.got - 2010.06.03 16:22:01.
