data_PCOD9524928
_publ_section_title
;
Structure prediction by ZEFSAII (Michael W. Deem and Ramdas Pophale) SiO2 
 PCOD9524928
Probable space group: I B A M
;
_chemical_formula_sum "Si O2"
_cell_formula_units_Z 108
_cell_length_a 14.583632
_cell_length_b 21.306022
_cell_length_c 23.257867
_cell_angle_alpha 90.000000
_cell_angle_beta 90.000000
_cell_angle_gamma 90.000000
_cell_volume 7226.665461
_symmetry_space_group_name_H-M "I B A M"
_symmetry_group_IT_number 72
_symmetry_cell_setting 'orthorhombic'
loop_
_space_group_symop_operation_xyz
x,y,z
-x,-y,z
x,-y,1/2-z
-x,y,1/2-z
-x,-y,-z
x,y,-z
-x,y,1/2+z
x,-y,1/2+z
1/2+x,1/2+y,1/2+z
1/2-x,1/2-y,1/2+z
1/2+x,1/2-y,-z
1/2-x,1/2+y,-z
1/2-x,1/2-y,1/2-z
1/2+x,1/2+y,1/2-z
1/2-x,1/2+y,z
1/2+x,1/2-y,z
loop_
_atom_site_type_symbol
_atom_site_label
_atom_site_fract_x
_atom_site_fract_y
_atom_site_fract_z
Si Si1 0.585151 0.688783 0.432673
Si Si2 0.000000 0.000000 0.250000
Si Si3 0.378742 0.599578 0.679958
Si Si4 0.961572 0.069513 0.935382
Si Si5 0.000000 0.667285 0.750000
Si Si6 0.438717 0.264073 0.152297
Si Si7 0.200360 0.651765 0.730332
Si Si8 0.262129 0.276398 0.341861
O O1 0.599694 0.703441 0.500000
O O2 0.545848 0.618030 0.428640
O O3 0.504429 0.728382 0.402100
O O4 0.672149 0.699496 0.391822
O O5 0.063841 0.046317 0.287430
O O6 0.386941 0.584698 0.612531
O O7 0.426425 0.668623 0.684688
O O8 0.275143 0.606251 0.702095
O O9 0.925693 0.077075 0.000000
O O10 0.000000 0.000000 0.928039
O O11 0.976526 0.713058 0.696697
O O12 0.905037 0.630964 0.762469
O O13 0.336595 0.244433 0.134612
O O14 0.242143 0.672887 0.791867
O O15 0.197987 0.715416 0.691534
#
# Coordination Sequence:
#
# PCOD9524928 Si02
#       8
#    16   4  16  16   8  16  16  16
#     4  10  19  29  45  66  95 127 157 196 233 276
#     4  12  22  28  46  74 100 124 142 206 248 260
#     4  10  20  29  44  73  94 121 153 196 237 280
#     4   9  18  33  47  63  92 131 163 188 233 285
#     4  10  15  30  50  64  88 128 149 188 228 284
#     4   9  18  29  47  66  94 124 156 187 230 289
#     4   9  18  28  46  68  92 117 158 192 232 286
#     4   9  17  29  44  67  90 125 153 189 231 283
#
# _framework density 14.944652
#
# number of rings (size 3 to 8) (size 9 to 14) (size 15 to 20)
#    0.000    2.519    2.222    1.333    4.148    0.593 
#    0.000    2.222    0.000    0.444    0.000    0.000 
#    0.000    0.000    0.000   15.704    0.000    0.000 
#
# Total GULP energy -300675.624664 kJ/mol
# GULP energy per Si atom -5568.067123 kJ/mol
# Density = 1.491064 g / cm^3
# Si number density = 14.944652 Si / 1000 Ang^3
#
#
#
# Elastic Constant Matrix: (Units=GPa)
#
#
# Indices 1 2 3 4 5 6 
#
# 1 133.1816 32.9767 72.2868 0.0000 0.0000 0.0000
# 2 32.9767 41.6410 35.7071 0.0000 0.0000 0.0000
# 3 72.2868 35.7071 107.4599 0.0000 0.0000 0.0000
# 4 0.0000 0.0000 0.0000 17.0953 0.0000 0.0000
# 5 0.0000 0.0000 0.0000 0.0000 29.0217 0.0000
# 6 0.0000 0.0000 0.0000 0.0000 0.0000 11.1019
#
#
#
# Elastic Compliance Matrix: (Units=1/GPa)
#
#
# Indices 1 2 3 4 5 6 
#
# 1 0.012216 -0.003675 -0.006996 0.000000 0.000000 0.000000
# 2 -0.003675 0.034689 -0.009055 0.000000 0.000000 0.000000
# 3 -0.006996 -0.009055 0.017021 0.000000 0.000000 0.000000
# 4 0.000000 0.000000 0.000000 0.058496 0.000000 0.000000
# 5 0.000000 0.000000 0.000000 0.000000 0.034457 0.000000
# 6 0.000000 0.000000 0.000000 0.000000 0.000000 0.090075
#
#
# Mechanical properties :
#
#
# Convention : Reuss Voigt Hill
#
# Bulk Modulus (GPa) = 40.85900 62.69153 51.77527
# Shear Modulus (GPa) = 16.97428 20.86458 18.91943
#
# Velocity S-wave (km/s) = 3.37383 3.74053 3.56190
# Velocity P-wave (km/s) = 6.52507 7.79074 7.18583
#
# Compressibility (1/GPa) = 0.02447441
#
# Stress axis : x y z
#
# Youngs Moduli (GPa) = 81.86088 28.82731 58.75119
#
# Poissons Ratio (x) = 0.10593 0.41105
# Poissons Ratio (y) = 0.30081 0.53198
# Poissons Ratio (z) = 0.57273 0.26102
#
# Static dielectric constant tensor:
#      x y z
#    x 1.505300 0.000000 0.000000 
#    y 0.000000 1.492310 0.000000 
#    z 0.000000 0.000000 1.501600 
# 
# From -- ./inp_files/38479.got.cif
#   From: 2010.05.17/outbox.cif.g08.bks.cpg/sg72_20_cif.got.tgz:38479.got - 2010.06.03 17:03:01.
