data_PCOD9524423
_publ_section_title
;
Structure prediction by ZEFSAII (Michael W. Deem and Ramdas Pophale) SiO2 
 PCOD9524423
Probable space group: I M M M
;
_chemical_formula_sum "Si O2"
_cell_formula_units_Z 64
_cell_length_a 14.300373
_cell_length_b 26.767292
_cell_length_c 8.400044
_cell_angle_alpha 90.000000
_cell_angle_beta 90.000000
_cell_angle_gamma 90.000000
_cell_volume 3215.387825
_symmetry_space_group_name_H-M "I M M M"
_symmetry_group_IT_number 71
_symmetry_cell_setting 'orthorhombic'
loop_
_space_group_symop_operation_xyz
x,y,z
-x,-y,z
x,-y,-z
-x,y,-z
-x,-y,-z
x,y,-z
-x,y,z
x,-y,z
1/2+x,1/2+y,1/2+z
1/2-x,1/2-y,1/2+z
1/2+x,1/2-y,1/2-z
1/2-x,1/2+y,1/2-z
1/2-x,1/2-y,1/2-z
1/2+x,1/2+y,1/2-z
1/2-x,1/2+y,1/2+z
1/2+x,1/2-y,1/2+z
loop_
_atom_site_type_symbol
_atom_site_label
_atom_site_fract_x
_atom_site_fract_y
_atom_site_fract_z
Si Si1 0.886218 0.057088 0.000000
Si Si2 0.612200 0.612521 0.822176
Si Si3 0.757347 0.305295 0.182828
Si Si4 0.113868 0.500000 0.686364
Si Si5 0.392206 0.109023 0.191792
O O1 0.856051 0.082660 0.834978
O O2 0.000000 0.058386 0.000000
O O3 0.856716 0.000000 0.000000
O O4 0.500000 0.614077 0.818267
O O5 0.657395 0.667014 0.808236
O O6 0.638946 0.592962 0.000000
O O7 0.750000 0.250000 0.250000
O O8 0.828884 0.344196 0.262357
O O9 0.785495 0.301480 0.000000
O O10 0.140948 0.500000 0.500000
O O11 0.141337 0.445668 0.754413
O O12 0.000000 0.500000 0.689958
O O13 0.500000 0.116394 0.243346
O O14 0.392633 0.105316 0.000000
#
# Coordination Sequence:
#
# PCOD9524423 Si02
#       5
#     8  16  16   8  16
#     4   9  18  34  60  90 115 149 195 236 285 348
#     4   9  20  39  59  82 117 155 193 239 291 346
#     4  11  24  39  57  82 111 148 195 244 292 342
#     4   7  12  28  55  83 110 145 186 222 266 330
#     4   9  18  35  59  86 117 152 188 229 280 339
#
# _framework density 19.904285000000002
#
# number of rings (size 3 to 8) (size 9 to 14) (size 15 to 20)
#    0.000    2.750    0.000    2.250    3.500    2.000 
#    2.250    5.625    0.000    2.250    0.000    0.000 
#    0.000    0.000    0.000    0.000    0.000    0.000 
#
# Total GULP energy -178360.030396 kJ/mol
# GULP energy per Si atom -5573.750950 kJ/mol
# Density = 1.985898 g / cm^3
# Si number density = 19.904285 Si / 1000 Ang^3
#
#
#
# Elastic Constant Matrix: (Units=GPa)
#
#
# Indices 1 2 3 4 5 6 
#
# 1 55.1413 42.7314 25.7198 -0.0001 -0.0002 -0.0001
# 2 42.7314 182.4931 74.7195 -0.0008 0.0004 0.0000
# 3 25.7198 74.7195 113.9176 -0.0062 0.0001 -0.0001
# 4 -0.0001 -0.0008 -0.0062 25.4817 0.0011 -0.0001
# 5 -0.0002 0.0004 0.0001 0.0011 17.3261 0.0002
# 6 -0.0001 0.0000 -0.0001 -0.0001 0.0002 26.1904
#
#
#
# Elastic Compliance Matrix: (Units=1/GPa)
#
#
# Indices 1 2 3 4 5 6 
#
# 1 0.022561 -0.004371 -0.002227 -0.000001 0.000000 0.000000
# 2 -0.004371 0.008338 -0.004482 -0.000001 0.000000 0.000000
# 3 -0.002227 -0.004482 0.012221 0.000003 0.000000 0.000000
# 4 -0.000001 -0.000001 0.000003 0.039244 -0.000003 0.000000
# 5 0.000000 0.000000 0.000000 -0.000003 0.057716 0.000000
# 6 0.000000 0.000000 0.000000 0.000000 0.000000 0.038182
#
#
# Mechanical properties :
#
#
# Convention : Reuss Voigt Hill
#
# Bulk Modulus (GPa) = 47.70924 70.87704 59.29314
# Shear Modulus (GPa) = 24.10685 27.69173 25.89929
#
# Velocity S-wave (km/s) = 3.48392 3.73399 3.61112
# Velocity P-wave (km/s) = 6.34074 7.36725 6.87319
#
# Compressibility (1/GPa) = 0.02096030
#
# Stress axis : x y z
#
# Youngs Moduli (GPa) = 44.32388 119.92709 81.82618
#
# Poissons Ratio (x) = 0.52421 0.18221
# Poissons Ratio (y) = 0.19374 0.36677
# Poissons Ratio (z) = 0.09870 0.53755
#
# Static dielectric constant tensor:
#      x y z
#    x 1.756660 0.000000 0.000000 
#    y 0.000000 1.699770 -0.000020 
#    z 0.000000 -0.000020 1.488130 
# 
# From -- ./inp_files/5861.got.cif
#   From: 2010.05.17/outbox.cif.g08.bks.cpg/sg71_3_cif.got.tgz:5861.got - 2010.06.03 16:22:01.
