data_PCOD9524213
_publ_section_title
;
Structure prediction by ZEFSAII (Michael W. Deem and Ramdas Pophale) SiO2 
 PCOD9524213
Probable space group: I M M M
;
_chemical_formula_sum "Si O2"
_cell_formula_units_Z 104
_cell_length_a 8.782715
_cell_length_b 26.980298
_cell_length_c 21.995372
_cell_angle_alpha 90.000000
_cell_angle_beta 90.000000
_cell_angle_gamma 90.000000
_cell_volume 5212.029243
_symmetry_space_group_name_H-M "I M M M"
_symmetry_group_IT_number 71
_symmetry_cell_setting 'orthorhombic'
loop_
_space_group_symop_operation_xyz
x,y,z
-x,-y,z
x,-y,-z
-x,y,-z
-x,-y,-z
x,y,-z
-x,y,z
x,-y,z
1/2+x,1/2+y,1/2+z
1/2-x,1/2-y,1/2+z
1/2+x,1/2-y,1/2-z
1/2-x,1/2+y,1/2-z
1/2-x,1/2-y,1/2-z
1/2+x,1/2+y,1/2-z
1/2-x,1/2+y,1/2+z
1/2+x,1/2-y,1/2+z
loop_
_atom_site_type_symbol
_atom_site_label
_atom_site_fract_x
_atom_site_fract_y
_atom_site_fract_z
Si Si1 0.677165 0.941078 0.000000
Si Si2 0.183187 0.717718 0.805666
Si Si3 0.318199 0.055723 0.785255
Si Si4 0.320866 0.942457 0.572017
Si Si5 0.184995 0.770725 0.930644
Si Si6 0.318089 0.381941 0.390823
Si Si7 0.179246 0.110713 0.321164
O O1 0.762160 0.919515 0.057977
O O2 0.500000 0.925374 0.000000
O O3 0.680847 0.000000 0.000000
O O4 0.250000 0.750000 0.750000
O O5 0.232309 0.737702 0.872730
O O6 0.239307 0.661419 0.801777
O O7 0.000000 0.720321 0.802700
O O8 0.500000 0.058455 0.781538
O O9 0.256972 0.098270 0.829558
O O10 0.244643 0.066751 0.720466
O O11 0.277811 0.000000 0.806686
O O12 0.304501 0.934914 0.500000
O O13 0.500000 0.935827 0.587222
O O14 0.222747 0.904563 0.610695
O O15 0.281369 0.000000 0.584775
O O16 0.227030 0.827043 0.912655
O O17 0.000000 0.768522 0.932576
O O18 0.237504 0.759130 0.000000
O O19 0.500000 0.382491 0.384385
O O20 0.000000 0.115812 0.312892
#
# Coordination Sequence:
#
# PCOD9524213 Si02
#       7
#     8  16  16  16  16  16  16
#     4  11  23  37  53  79 119 163 205 245 290 351
#     4  11  23  41  66  91 121 161 206 261 319 378
#     4  11  24  41  61  87 122 162 205 254 307 369
#     4   9  19  38  64  92 123 161 204 249 304 373
#     4   9  19  38  63  90 117 152 201 254 306 362
#     4  11  21  37  62  89 119 154 199 254 308 361
#     4  12  25  40  60  89 125 161 203 255 307 370
#
# _framework density 19.953841000000001
#
# number of rings (size 3 to 8) (size 9 to 14) (size 15 to 20)
#    0.000    1.462    0.769    5.308    0.000    8.000 
#    0.000    4.615    0.000    0.000    0.000    0.000 
#    0.000    0.000    0.000    0.000    0.000    0.000 
#
# Total GULP energy -290557.662381 kJ/mol
# GULP energy per Si atom -5587.647353 kJ/mol
# Density = 1.990843 g / cm^3
# Si number density = 19.953841 Si / 1000 Ang^3
#
#
#
# Elastic Constant Matrix: (Units=GPa)
#
#
# Indices 1 2 3 4 5 6 
#
# 1 67.6398 28.2543 29.8955 0.0000 0.0000 0.0000
# 2 28.2543 55.6455 30.5419 0.0000 0.0000 0.0000
# 3 29.8955 30.5419 98.4337 0.0000 0.0000 0.0000
# 4 0.0000 0.0000 0.0000 40.4207 0.0000 0.0000
# 5 0.0000 0.0000 0.0000 0.0000 34.7255 0.0000
# 6 0.0000 0.0000 0.0000 0.0000 0.0000 24.2907
#
#
#
# Elastic Compliance Matrix: (Units=1/GPa)
#
#
# Indices 1 2 3 4 5 6 
#
# 1 0.019701 -0.008098 -0.003471 0.000000 0.000000 0.000000
# 2 -0.008098 0.024989 -0.005294 0.000000 0.000000 0.000000
# 3 -0.003471 -0.005294 0.012856 0.000000 0.000000 0.000000
# 4 0.000000 0.000000 0.000000 0.024740 0.000000 0.000000
# 5 0.000000 0.000000 0.000000 0.000000 0.028797 0.000000
# 6 0.000000 0.000000 0.000000 0.000000 0.000000 0.041168
#
#
# Mechanical properties :
#
#
# Convention : Reuss Voigt Hill
#
# Bulk Modulus (GPa) = 41.98234 44.34470 43.16352
# Shear Modulus (GPa) = 25.78436 28.75586 27.27011
#
# Velocity S-wave (km/s) = 3.59862 3.80033 3.70085
# Velocity P-wave (km/s) = 6.19291 6.44426 6.31984
#
# Compressibility (1/GPa) = 0.02381954
#
# Stress axis : x y z
#
# Youngs Moduli (GPa) = 50.75891 40.01838 77.78604
#
# Poissons Ratio (x) = 0.32408 0.26997
# Poissons Ratio (y) = 0.41106 0.41179
# Poissons Ratio (z) = 0.17617 0.21185
#
# Static dielectric constant tensor:
#      x y z
#    x 1.670350 0.000000 0.000000 
#    y 0.000000 1.699080 0.000000 
#    z 0.000000 0.000000 1.741710 
# 
# From -- ./inp_files/50948.got.cif
#   From: 2010.05.17/outbox.cif.g08.bks.cpg/sg71_26_cif.got.tgz:50948.got - 2010.06.03 16:22:01.
