data_PCOD9524974
_publ_section_title
;
Structure prediction by ZEFSAII (Michael W. Deem and Ramdas Pophale) SiO2 
 PCOD9524974
Probable space group: I B A M
;
_chemical_formula_sum "Si O2"
_cell_formula_units_Z 88
_cell_length_a 21.760379
_cell_length_b 14.114946
_cell_length_c 11.321312
_cell_angle_alpha 90.000000
_cell_angle_beta 90.000000
_cell_angle_gamma 90.000000
_cell_volume 3477.302200
_symmetry_space_group_name_H-M "I B A M"
_symmetry_group_IT_number 72
_symmetry_cell_setting 'orthorhombic'
loop_
_space_group_symop_operation_xyz
x,y,z
-x,-y,z
x,-y,1/2-z
-x,y,1/2-z
-x,-y,-z
x,y,-z
-x,y,1/2+z
x,-y,1/2+z
1/2+x,1/2+y,1/2+z
1/2-x,1/2-y,1/2+z
1/2+x,1/2-y,-z
1/2-x,1/2+y,-z
1/2-x,1/2-y,1/2-z
1/2+x,1/2+y,1/2-z
1/2-x,1/2+y,z
1/2+x,1/2-y,z
loop_
_atom_site_type_symbol
_atom_site_label
_atom_site_fract_x
_atom_site_fract_y
_atom_site_fract_z
Si Si1 0.119758 0.102815 0.756716
Si Si2 0.284543 0.186303 0.000000
Si Si3 0.959594 0.757274 0.632231
Si Si4 0.929031 0.462525 0.871476
Si Si5 0.652941 0.605515 0.500000
Si Si6 0.262282 0.137646 0.248562
Si Si7 0.736724 0.406600 0.500000
O O1 0.095584 0.170494 0.657144
O O2 0.193512 0.096674 0.759675
O O3 0.091044 0.000000 0.750000
O O4 0.110258 0.131195 0.890428
O O5 0.210644 0.175320 0.000000
O O6 0.299746 0.132019 0.124280
O O7 0.294955 0.300102 0.000000
O O8 0.984632 0.771965 0.500000
O O9 0.935375 0.650325 0.635151
O O10 0.000000 0.770233 0.750000
O O11 0.900095 0.500000 0.750000
O O12 0.000000 0.500000 0.871872
O O13 0.903465 0.490430 0.000000
O O14 0.686894 0.497250 0.500000
O O15 0.250000 0.250000 0.250000
O O16 0.277618 0.097466 0.379053
#
# Coordination Sequence:
#
# PCOD9524974 Si02
#       7
#    16   8  16  16   8  16   8
#     4  11  23  38  59  89 124 168 221 267 323 392
#     4   8  18  30  48  88 115 141 201 257 307 369
#     4  11  25  41  63  96 127 170 217 272 331 388
#     4   9  16  33  62  92 115 146 199 251 309 377
#     4  10  20  36  58  86 117 171 217 258 331 376
#     4   9  18  34  57  84 114 153 199 256 308 370
#     4  10  16  30  58  83 108 153 205 252 308 378
#
# _framework density 25.306975000000001
#
# number of rings (size 3 to 8) (size 9 to 14) (size 15 to 20)
#    0.000    2.182    3.636    0.000    3.818    0.364 
#    0.000    0.909    0.000    1.091    4.727    0.000 
#    0.000    0.000    0.000    0.000    0.000    0.000 
#
# Total GULP energy -245103.089341 kJ/mol
# GULP energy per Si atom -5570.524758 kJ/mol
# Density = 2.524938 g / cm^3
# Si number density = 25.306975 Si / 1000 Ang^3
#
#
#
# Elastic Constant Matrix: (Units=GPa)
#
#
# Indices 1 2 3 4 5 6 
#
# 1 55.5453 26.0716 57.6052 0.0000 0.0000 0.0000
# 2 26.0716 148.3567 35.2942 0.0000 0.0000 0.0000
# 3 57.6052 35.2942 272.5222 0.0000 0.0000 0.0000
# 4 0.0000 0.0000 0.0000 -0.7968 0.0000 0.0000
# 5 0.0000 0.0000 0.0000 0.0000 43.1097 0.0000
# 6 0.0000 0.0000 0.0000 0.0000 0.0000 -18.9921
#
#
#
# Elastic Compliance Matrix: (Units=1/GPa)
#
#
# Indices 1 2 3 4 5 6 
#
# 1 0.024414 -0.003160 -0.004751 0.000000 0.000000 0.000000
# 2 -0.003160 0.007364 -0.000286 0.000000 0.000000 0.000000
# 3 -0.004751 -0.000286 0.004711 0.000000 0.000000 0.000000
# 4 0.000000 0.000000 0.000000 -1.255080 0.000000 0.000000
# 5 0.000000 0.000000 0.000000 0.000000 0.023197 0.000000
# 6 0.000000 0.000000 0.000000 0.000000 0.000000 -0.052653
#
#
# Mechanical properties :
#
#
# Convention : Reuss Voigt Hill
#
# Bulk Modulus (GPa) = 49.76504 79.37402 64.56953
# Shear Modulus (GPa) = -4.08178 28.49439 12.20630
#
# Velocity S-wave (km/s) = -1.27138 3.35916 2.19858
# Velocity P-wave (km/s) = 4.18951 6.81746 5.65817
#
# Compressibility (1/GPa) = 0.02009443
#
# Stress axis : x y z
#
# Youngs Moduli (GPa) = 40.95987 135.79906 212.28006
#
# Poissons Ratio (x) = 0.42914 1.00862
# Poissons Ratio (y) = 0.12944 0.06065
# Poissons Ratio (z) = 0.19461 0.03880
#
# Static dielectric constant tensor:
#      x y z
#    x 2.005580 0.000000 0.000000 
#    y 0.000000 2.021650 0.000000 
#    z 0.000000 0.000000 1.957460 
# 
# From -- ./inp_files/16796.got.cif
#   From: 2010.05.17/outbox.cif.g08.bks.cpg/sg72_9_cif.got.tgz:16796.got - 2010.06.03 17:03:01.
