data_PCOD9524881
_publ_section_title
;
Structure prediction by ZEFSAII (Michael W. Deem and Ramdas Pophale) SiO2 
 PCOD9524881
Probable space group: I M M M
;
_chemical_formula_sum "Si O2"
_cell_formula_units_Z 32
_cell_length_a 18.000000
_cell_length_b 15.000000
_cell_length_c 12.000000
_cell_angle_alpha 90.000000
_cell_angle_beta 90.000000
_cell_angle_gamma 90.000000
_cell_volume 3240.000000
_symmetry_space_group_name_H-M "I M M M"
_symmetry_group_IT_number 71
_symmetry_cell_setting 'orthorhombic'
loop_
_space_group_symop_operation_xyz
x,y,z
-x,-y,z
x,-y,-z
-x,y,-z
-x,-y,-z
x,y,-z
-x,y,z
x,-y,z
1/2+x,1/2+y,1/2+z
1/2-x,1/2-y,1/2+z
1/2+x,1/2-y,1/2-z
1/2-x,1/2+y,1/2-z
1/2-x,1/2-y,1/2-z
1/2+x,1/2+y,1/2-z
1/2-x,1/2+y,1/2+z
1/2+x,1/2-y,1/2+z
loop_
_atom_site_type_symbol
_atom_site_label
_atom_site_fract_x
_atom_site_fract_y
_atom_site_fract_z
Si Si1 0.343863 0.850172 0.749420
Si Si2 0.913160 0.356245 0.500000
Si Si3 0.415226 0.500000 0.367784
Si Si4 0.585531 0.893201 0.500000
Si Si5 0.828802 0.862729 0.273544
Si Si6 0.087385 0.860278 0.500000
O O1 0.377735 0.880414 0.874142
O O2 0.381235 0.868234 0.625404
O O3 0.258797 0.883292 0.736460
O O4 0.339788 0.743076 0.759989
O O5 0.911743 0.248203 0.500000
O O6 0.000000 0.384838 0.500000
O O7 0.500000 0.500000 0.326849
O O8 0.415333 0.500000 0.500000
O O9 0.372621 0.585470 0.321498
O O10 0.500000 0.861111 0.500000
O O11 0.587447 0.000000 0.500000
O O12 0.867154 0.889035 0.390552
O O13 0.000000 0.887093 0.500000
#
# Coordination Sequence:
#
# PCOD9524881 Si02
#       6
#    16   8   8   8  16   8
#     4  10  22  40  67  91 124 166 213 266 318 374
#     4   9  18  35  61  92 116 152 205 260 315 372
#     4  11  26  41  57  91 136 172 211 257 311 385
#     4  11  25  42  62  94 128 165 210 260 322 384
#     4  10  22  39  63  91 123 164 215 257 317 374
#     4   9  17  34  59  87 120 154 202 257 305 367
#
# _framework density 9.8765429999999999
#
# number of rings (size 3 to 8) (size 9 to 14) (size 15 to 20)
#    0.000    2.000    0.000    2.250    5.250    5.500 
#    0.000    1.875    0.000    2.250    0.000    0.000 
#    0.000    0.000    0.000    0.000    0.000    0.000 
#
# Total GULP energy -178204.833913 kJ/mol
# GULP energy per Si atom -5568.901060 kJ/mol
# Density = 0.985406 g / cm^3
# Si number density = 9.876543 Si / 1000 Ang^3
#
#
#
# Elastic Constant Matrix: (Units=GPa)
#
#
# Indices 1 2 3 4 5 6 
#
# 1 202.6358 25.3960 106.0905 0.0000 0.0000 0.0000
# 2 25.3960 49.7891 16.5719 0.0000 0.0000 0.0000
# 3 106.0905 16.5719 196.8937 0.0000 0.0000 0.0000
# 4 0.0000 0.0000 0.0000 18.7484 0.0000 0.0000
# 5 0.0000 0.0000 0.0000 0.0000 47.9203 0.0000
# 6 0.0000 0.0000 0.0000 0.0000 0.0000 8.4068
#
#
#
# Elastic Compliance Matrix: (Units=1/GPa)
#
#
# Indices 1 2 3 4 5 6 
#
# 1 0.007150 -0.002433 -0.003648 0.000000 0.000000 0.000000
# 2 -0.002433 0.021491 -0.000498 0.000000 0.000000 0.000000
# 3 -0.003648 -0.000498 0.007086 0.000000 0.000000 0.000000
# 4 0.000000 0.000000 0.000000 0.053338 0.000000 0.000000
# 5 0.000000 0.000000 0.000000 0.000000 0.020868 0.000000
# 6 0.000000 0.000000 0.000000 0.000000 0.000000 0.118951
#
#
# Mechanical properties :
#
#
# Convention : Reuss Voigt Hill
#
# Bulk Modulus (GPa) = 44.30583 82.82615 63.56599
# Shear Modulus (GPa) = 20.03496 35.09911 27.56704
#
# Velocity S-wave (km/s) = 3.18822 4.21989 3.73980
# Velocity P-wave (km/s) = 6.00262 8.10957 7.13430
#
# Compressibility (1/GPa) = 0.02257039
#
# Stress axis : x y z
#
# Youngs Moduli (GPa) = 139.86894 46.53037 141.11943
#
# Poissons Ratio (x) = 0.11320 0.51474
# Poissons Ratio (y) = 0.34026 0.07029
# Poissons Ratio (z) = 0.51018 0.02317
#
# Static dielectric constant tensor:
#      x y z
#    x 1.703710 0.000000 0.000000 
#    y 0.000000 1.701550 0.000000 
#    z 0.000000 0.000000 1.710460 
# 
# From -- ./inp_files/23253.got.cif
#   From: 2010.05.17/outbox.ucp.g08.bks.cvg/sg71_12_cif.got.tgz:23253.got - 2010.06.11 16:29:00.
