data_PCOD9524259
_publ_section_title
;
Structure prediction by ZEFSAII (Michael W. Deem and Ramdas Pophale) SiO2 
 PCOD9524259
Probable space group: I M M M
;
_chemical_formula_sum "Si O2"
_cell_formula_units_Z 88
_cell_length_a 30.210479
_cell_length_b 8.941446
_cell_length_c 18.560593
_cell_angle_alpha 90.000000
_cell_angle_beta 90.000000
_cell_angle_gamma 90.000000
_cell_volume 5013.686989
_symmetry_space_group_name_H-M "I M M M"
_symmetry_group_IT_number 71
_symmetry_cell_setting 'orthorhombic'
loop_
_space_group_symop_operation_xyz
x,y,z
-x,-y,z
x,-y,-z
-x,y,-z
-x,-y,-z
x,y,-z
-x,y,z
x,-y,z
1/2+x,1/2+y,1/2+z
1/2-x,1/2-y,1/2+z
1/2+x,1/2-y,1/2-z
1/2-x,1/2+y,1/2-z
1/2-x,1/2-y,1/2-z
1/2+x,1/2+y,1/2-z
1/2-x,1/2+y,1/2+z
1/2+x,1/2-y,1/2+z
loop_
_atom_site_type_symbol
_atom_site_label
_atom_site_fract_x
_atom_site_fract_y
_atom_site_fract_z
Si Si1 0.051519 0.179708 0.350453
Si Si2 0.946208 0.325762 0.500000
Si Si3 0.645665 0.820272 0.582768
Si Si4 0.619578 0.679390 0.726400
Si Si5 0.708101 0.823271 0.210123
Si Si6 0.750184 0.672825 0.915002
O O1 0.068663 0.250049 0.425333
O O2 0.079796 0.221691 0.280308
O O3 0.000000 0.222660 0.341410
O O4 0.053446 0.000000 0.357833
O O5 0.934860 0.500000 0.500000
O O6 0.000000 0.311585 0.500000
O O7 0.635608 0.776175 0.500000
O O8 0.617638 0.742732 0.645274
O O9 0.697946 0.787682 0.596329
O O10 0.641204 0.000000 0.587386
O O11 0.622507 0.500000 0.723817
O O12 0.663812 0.747716 0.761138
O O13 0.750000 0.750000 0.250000
O O14 0.717847 0.780683 0.127695
O O15 0.706591 0.000000 0.221909
O O16 0.744058 0.500000 0.890941
O O17 0.742600 0.677871 0.000000
#
# Coordination Sequence:
#
# PCOD9524259 Si02
#       6
#    16   8  16  16  16  16
#     4   9  19  37  59  81 108 142 178 217 265 321
#     4   9  17  31  55  85 111 137 175 221 265 311
#     4   9  18  33  54  78 105 139 176 218 266 314
#     4  11  22  35  55  82 107 138 179 221 268 317
#     4  12  23  35  52  75 107 142 177 217 262 312
#     4   9  18  34  54  74 100 137 178 219 261 307
#
# _framework density 17.551953000000001
#
# number of rings (size 3 to 8) (size 9 to 14) (size 15 to 20)
#    0.000    2.091    1.818    3.545    0.000    3.273 
#    1.636    1.818    0.000    0.545    0.000    3.818 
#    0.000    0.000    0.000    0.000    0.000    0.000 
#
# Total GULP energy -245493.848787 kJ/mol
# GULP energy per Si atom -5579.405654 kJ/mol
# Density = 1.751200 g / cm^3
# Si number density = 17.551953 Si / 1000 Ang^3
#
#
#
# Elastic Constant Matrix: (Units=GPa)
#
#
# Indices 1 2 3 4 5 6 
#
# 1 60.1070 29.8578 56.9995 0.0000 0.0000 0.0000
# 2 29.8578 48.7842 54.4280 0.0000 0.0000 0.0000
# 3 56.9995 54.4280 155.1222 0.0000 0.0000 0.0000
# 4 0.0000 0.0000 0.0000 35.5155 0.0000 0.0000
# 5 0.0000 0.0000 0.0000 0.0000 30.4033 0.0000
# 6 0.0000 0.0000 0.0000 0.0000 0.0000 18.6760
#
#
#
# Elastic Compliance Matrix: (Units=1/GPa)
#
#
# Indices 1 2 3 4 5 6 
#
# 1 0.027864 -0.009253 -0.006992 0.000000 0.000000 0.000000
# 2 -0.009253 0.036757 -0.009497 0.000000 0.000000 0.000000
# 3 -0.006992 -0.009497 0.012348 0.000000 0.000000 0.000000
# 4 0.000000 0.000000 0.000000 0.028157 0.000000 0.000000
# 5 0.000000 0.000000 0.000000 0.000000 0.032891 0.000000
# 6 0.000000 0.000000 0.000000 0.000000 0.000000 0.053545
#
#
# Mechanical properties :
#
#
# Convention : Reuss Voigt Hill
#
# Bulk Modulus (GPa) = 39.23844 60.73154 49.98499
# Shear Modulus (GPa) = 19.87748 25.10084 22.48916
#
# Velocity S-wave (km/s) = 3.36891 3.78575 3.58340
# Velocity P-wave (km/s) = 6.12673 7.33385 6.75730
#
# Compressibility (1/GPa) = 0.02548522
#
# Stress axis : x y z
#
# Youngs Moduli (GPa) = 35.88889 27.20535 80.98472
#
# Poissons Ratio (x) = 0.25173 0.56624
# Poissons Ratio (y) = 0.33208 0.76913
# Poissons Ratio (z) = 0.25093 0.25837
#
# Static dielectric constant tensor:
#      x y z
#    x 1.580030 0.000000 0.000000 
#    y 0.000000 1.592330 0.000000 
#    z 0.000000 0.000000 1.648680 
# 
# From -- ./inp_files/49262.got.cif
#   From: 2010.05.17/outbox.cif.g08.bks.cpg/sg71_25_cif.got.tgz:49262.got - 2010.06.03 16:22:01.
