data_PCOD9524108
_publ_section_title
;
Structure prediction by ZEFSAII (Michael W. Deem and Ramdas Pophale) SiO2 
 PCOD9524108
Probable space group: I M M M
;
_chemical_formula_sum "Si O2"
_cell_formula_units_Z 96
_cell_length_a 25.293432
_cell_length_b 22.881905
_cell_length_c 7.507848
_cell_angle_alpha 90.000000
_cell_angle_beta 90.000000
_cell_angle_gamma 90.000000
_cell_volume 4345.256435
_symmetry_space_group_name_H-M "I M M M"
_symmetry_group_IT_number 71
_symmetry_cell_setting 'orthorhombic'
loop_
_space_group_symop_operation_xyz
x,y,z
-x,-y,z
x,-y,-z
-x,y,-z
-x,-y,-z
x,y,-z
-x,y,z
x,-y,z
1/2+x,1/2+y,1/2+z
1/2-x,1/2-y,1/2+z
1/2+x,1/2-y,1/2-z
1/2-x,1/2+y,1/2-z
1/2-x,1/2-y,1/2-z
1/2+x,1/2+y,1/2-z
1/2-x,1/2+y,1/2+z
1/2+x,1/2-y,1/2+z
loop_
_atom_site_type_symbol
_atom_site_label
_atom_site_fract_x
_atom_site_fract_y
_atom_site_fract_z
Si Si1 0.665835 0.756579 0.715985
Si Si2 0.890003 0.435121 0.782738
Si Si3 0.057708 0.683039 0.216921
Si Si4 0.668357 0.376905 0.800232
Si Si5 0.058134 0.933525 0.211969
Si Si6 0.280951 0.876162 0.281815
O O1 0.668056 0.752136 0.500000
O O2 0.607052 0.777411 0.768889
O O3 0.674562 0.693050 0.794133
O O4 0.704609 0.809366 0.770993
O O5 0.903122 0.500000 0.721545
O O6 0.928863 0.383170 0.727367
O O7 0.830745 0.415809 0.730165
O O8 0.890738 0.435476 0.000000
O O9 0.000000 0.701783 0.278142
O O10 0.057555 0.683489 0.000000
O O11 0.610353 0.395027 0.737726
O O12 0.723848 0.396907 0.714278
O O13 0.669891 0.399644 0.000000
O O14 0.000000 0.912639 0.277915
O O15 0.066370 0.000000 0.279770
O O16 0.053575 0.937511 0.000000
O O17 0.279913 0.875811 0.500000
#
# Coordination Sequence:
#
# PCOD9524108 Si02
#       6
#    16  16  16  16  16  16
#     4   9  17  31  48  65  94 136 172 199 231 279
#     4   8  13  22  37  58  88 124 155 186 229 278
#     4   8  14  24  39  61  87 117 156 197 232 267
#     4  11  21  31  49  77 101 122 155 200 246 288
#     4   9  20  40  60  74  93 124 159 193 234 292
#     4   8  16  29  43  64  96 132 166 197 235 284
#
# _framework density 22.093057999999999
#
# number of rings (size 3 to 8) (size 9 to 14) (size 15 to 20)
#    0.000    3.167    0.000    3.500    0.000    2.333 
#    0.000    6.667    0.000    0.000    0.000    0.000 
#    0.000    6.000    0.000    6.000    0.000    6.667 
#
# Total GULP energy -267596.675863 kJ/mol
# GULP energy per Si atom -5574.930747 kJ/mol
# Density = 2.204277 g / cm^3
# Si number density = 22.093058 Si / 1000 Ang^3
#
#
#
# Elastic Constant Matrix: (Units=GPa)
#
#
# Indices 1 2 3 4 5 6 
#
# 1 149.9375 -7.6961 5.7412 0.0000 0.0000 0.0000
# 2 -7.6961 5.8497 -8.1109 0.0000 0.0000 0.0000
# 3 5.7412 -8.1109 53.9155 0.0000 0.0000 0.0000
# 4 0.0000 0.0000 0.0000 -43.8109 0.0000 0.0000
# 5 0.0000 0.0000 0.0000 0.0000 -12.5599 0.0000
# 6 0.0000 0.0000 0.0000 0.0000 0.0000 7.0583
#
#
#
# Elastic Compliance Matrix: (Units=1/GPa)
#
#
# Indices 1 2 3 4 5 6 
#
# 1 0.007182 0.010599 0.000830 0.000000 0.000000 0.000000
# 2 0.010599 0.231650 0.033720 0.000000 0.000000 0.000000
# 3 0.000830 0.033720 0.023532 0.000000 0.000000 0.000000
# 4 0.000000 0.000000 0.000000 -0.022825 0.000000 0.000000
# 5 0.000000 0.000000 0.000000 0.000000 -0.079618 0.000000
# 6 0.000000 0.000000 0.000000 0.000000 0.000000 0.141677
#
#
# Mechanical properties :
#
#
# Convention : Reuss Voigt Hill
#
# Bulk Modulus (GPa) = 2.83558 21.06344 11.94951
# Shear Modulus (GPa) = 15.20438 4.78874 9.99656
#
# Velocity S-wave (km/s) = 2.62620 1.47385 2.12945
# Velocity P-wave (km/s) = 3.23761 3.52859 3.38623
#
# Compressibility (1/GPa) = 0.35266118
#
# Stress axis : x y z
#
# Youngs Moduli (GPa) = 139.24242 4.31687 42.49546
#
# Poissons Ratio (x) = -0.04576 -0.03526
# Poissons Ratio (y) = -1.47586 -1.43295
# Poissons Ratio (z) = -0.11554 -0.14556
#
# Static dielectric constant tensor:
#      x y z
#    x 1.841790 0.000000 0.000000 
#    y 0.000000 1.772170 0.000000 
#    z 0.000000 0.000000 1.848760 
# 
# From -- ./inp_files/12862.got.cif
#   From: 2010.05.17/outbox.cif.g08.bks.cpg/sg71_7_cif.got.tgz:12862.got - 2010.06.03 16:22:01.
