data_PCOD9524176
_publ_section_title
;
Structure prediction by ZEFSAII (Michael W. Deem and Ramdas Pophale) SiO2 
 PCOD9524176
Probable space group: I M M M
;
_chemical_formula_sum "Si O2"
_cell_formula_units_Z 64
_cell_length_a 9.092723
_cell_length_b 11.440963
_cell_length_c 35.444604
_cell_angle_alpha 90.000000
_cell_angle_beta 90.000000
_cell_angle_gamma 90.000000
_cell_volume 3687.284695
_symmetry_space_group_name_H-M "I M M M"
_symmetry_group_IT_number 71
_symmetry_cell_setting 'orthorhombic'
loop_
_space_group_symop_operation_xyz
x,y,z
-x,-y,z
x,-y,-z
-x,y,-z
-x,-y,-z
x,y,-z
-x,y,z
x,-y,z
1/2+x,1/2+y,1/2+z
1/2-x,1/2-y,1/2+z
1/2+x,1/2-y,1/2-z
1/2-x,1/2+y,1/2-z
1/2-x,1/2-y,1/2-z
1/2+x,1/2+y,1/2-z
1/2-x,1/2+y,1/2+z
1/2+x,1/2-y,1/2+z
loop_
_atom_site_type_symbol
_atom_site_label
_atom_site_fract_x
_atom_site_fract_y
_atom_site_fract_z
Si Si1 0.832455 0.139004 0.000000
Si Si2 0.178386 0.000000 0.456704
Si Si3 0.329527 0.637411 0.641199
Si Si4 0.322644 0.363648 0.730087
Si Si5 0.175701 0.250035 0.428223
O O1 0.749166 0.179886 0.962508
O O2 0.000000 0.184378 0.000000
O O3 0.837516 0.000000 0.000000
O O4 0.221625 0.116510 0.435268
O O5 0.231466 0.000000 0.500000
O O6 0.000000 0.000000 0.458572
O O7 0.500000 0.672786 0.636407
O O8 0.319611 0.500000 0.631957
O O9 0.291735 0.649096 0.685305
O O10 0.229497 0.705958 0.612097
O O11 0.500000 0.358244 0.735133
O O12 0.279310 0.500000 0.740672
O O13 0.250000 0.250000 0.750000
O O14 0.000000 0.259670 0.431175
#
# Coordination Sequence:
#
# PCOD9524176 Si02
#       5
#     8   8  16  16  16
#     4  11  23  36  51  74 106 139 170 215 272 319
#     4   9  18  36  54  70 102 142 172 214 272 312
#     4   9  19  37  57  78 110 145 174 215 272 324
#     4   9  19  37  60  85 115 151 188 227 277 337
#     4  11  21  35  56  78 102 136 181 223 262 316
#
# _framework density 17.356946000000001
#
# number of rings (size 3 to 8) (size 9 to 14) (size 15 to 20)
#    0.000    2.250    1.250    3.375    0.000    6.000 
#    2.250    5.625    0.000    0.000    0.000    0.000 
#    0.000    0.000    0.000    0.000    0.000    0.000 
#
# Total GULP energy -178366.954673 kJ/mol
# GULP energy per Si atom -5573.967334 kJ/mol
# Density = 1.731744 g / cm^3
# Si number density = 17.356946 Si / 1000 Ang^3
#
#
#
# Elastic Constant Matrix: (Units=GPa)
#
#
# Indices 1 2 3 4 5 6 
#
# 1 64.2840 57.1237 50.3513 0.0000 0.0000 0.0000
# 2 57.1237 127.0266 70.2677 0.0000 0.0000 0.0000
# 3 50.3513 70.2677 83.4482 0.0000 0.0000 0.0000
# 4 0.0000 0.0000 0.0000 34.8090 0.0000 0.0000
# 5 0.0000 0.0000 0.0000 0.0000 27.5669 0.0000
# 6 0.0000 0.0000 0.0000 0.0000 0.0000 57.0933
#
#
#
# Elastic Compliance Matrix: (Units=1/GPa)
#
#
# Indices 1 2 3 4 5 6 
#
# 1 0.032565 -0.007067 -0.013699 0.000000 0.000000 0.000000
# 2 -0.007067 0.016270 -0.009436 0.000000 0.000000 0.000000
# 3 -0.013699 -0.009436 0.028195 0.000000 0.000000 0.000000
# 4 0.000000 0.000000 0.000000 0.028728 0.000000 0.000000
# 5 0.000000 0.000000 0.000000 0.000000 0.036275 0.000000
# 6 0.000000 0.000000 0.000000 0.000000 0.000000 0.017515
#
#
# Mechanical properties :
#
#
# Convention : Reuss Voigt Hill
#
# Bulk Modulus (GPa) = 60.14432 70.02714 65.08573
# Shear Modulus (GPa) = 22.17336 30.36159 26.26748
#
# Velocity S-wave (km/s) = 3.57808 4.18694 3.89443
# Velocity P-wave (km/s) = 7.19700 7.98792 7.60275
#
# Compressibility (1/GPa) = 0.01662668
#
# Stress axis : x y z
#
# Youngs Moduli (GPa) = 30.70739 61.46182 35.46722
#
# Poissons Ratio (x) = 0.43434 0.48586
# Poissons Ratio (y) = 0.21700 0.33468
# Poissons Ratio (z) = 0.42066 0.57998
#
# Static dielectric constant tensor:
#      x y z
#    x 1.591610 0.000000 0.000000 
#    y 0.000000 1.586950 0.000000 
#    z 0.000000 0.000000 1.564070 
# 
# From -- ./inp_files/3805.got.cif
#   From: 2010.05.17/outbox.cif.g08.bks.cpg/sg71_2_cif.got.tgz:3805.got - 2010.06.03 16:22:01.
