data_PCOD9524755
_publ_section_title
;
Structure prediction by ZEFSAII (Michael W. Deem and Ramdas Pophale) SiO2 
 PCOD9524755
Probable space group: I M M M
;
_chemical_formula_sum "Si O2"
_cell_formula_units_Z 52
_cell_length_a 21.000000
_cell_length_b 9.000000
_cell_length_c 30.000000
_cell_angle_alpha 90.000000
_cell_angle_beta 90.000000
_cell_angle_gamma 90.000000
_cell_volume 5670.000000
_symmetry_space_group_name_H-M "I M M M"
_symmetry_group_IT_number 71
_symmetry_cell_setting 'orthorhombic'
loop_
_space_group_symop_operation_xyz
x,y,z
-x,-y,z
x,-y,-z
-x,y,-z
-x,-y,-z
x,y,-z
-x,y,z
x,-y,z
1/2+x,1/2+y,1/2+z
1/2-x,1/2-y,1/2+z
1/2+x,1/2-y,1/2-z
1/2-x,1/2+y,1/2-z
1/2-x,1/2-y,1/2-z
1/2+x,1/2+y,1/2-z
1/2-x,1/2+y,1/2+z
1/2+x,1/2-y,1/2+z
loop_
_atom_site_type_symbol
_atom_site_label
_atom_site_fract_x
_atom_site_fract_y
_atom_site_fract_z
Si Si1 0.161690 0.321893 0.583902
Si Si2 0.428634 0.821865 0.570590
Si Si3 0.926442 0.177293 0.656517
Si Si4 0.213294 0.326689 0.948894
Si Si5 0.924473 0.833154 0.835622
Si Si6 0.076758 0.331782 0.250300
Si Si7 0.073910 0.319610 0.500000
O O1 0.163664 0.500000 0.585092
O O2 0.125060 0.256386 0.625960
O O3 0.233392 0.261075 0.578406
O O4 0.115831 0.275513 0.542675
O O5 0.500000 0.768074 0.555696
O O6 0.360423 0.772223 0.551112
O O7 0.421298 0.771295 0.621527
O O8 0.430596 0.000000 0.565270
O O9 0.914100 0.231732 0.706534
O O10 0.000000 0.220450 0.644945
O O11 0.922104 0.000000 0.653011
O O12 0.212318 0.500000 0.934700
O O13 0.235000 0.320369 0.000000
O O14 0.896357 0.750352 0.793033
O O15 0.000000 0.849943 0.827122
O O16 0.899088 0.000000 0.843316
O O17 0.100816 0.500000 0.255566
O O18 0.000000 0.343595 0.244815
O O19 0.070953 0.500000 0.500000
O O20 0.000000 0.266959 0.500000
#
# Coordination Sequence:
#
# PCOD9524755 Si02
#       7
#    16  16  16  16  16  16   8
#     4  11  21  35  54  75 103 140 180 221 264 318
#     4   9  18  33  54  80 107 137 175 217 262 315
#     4  10  20  33  50  76 109 142 178 222 268 311
#     4  10  21  37  56  77 105 139 175 219 269 321
#     4   9  16  27  46  74 107 139 171 213 263 311
#     4   9  16  27  46  73 105 141 178 215 257 309
#     4   9  18  32  51  75 100 129 170 220 265 303
#
# _framework density 9.1710759999999993
#
# number of rings (size 3 to 8) (size 9 to 14) (size 15 to 20)
#    0.000    2.385    0.769    2.308    0.000    6.154 
#    0.000    1.538    0.000    2.769    0.000    3.231 
#    0.000    0.000    0.000    0.000    0.000    0.000 
#
# Total GULP energy -289497.490487 kJ/mol
# GULP energy per Si atom -5567.259432 kJ/mol
# Density = 0.915020 g / cm^3
# Si number density = 9.171076 Si / 1000 Ang^3
#
#
#
# Elastic Constant Matrix: (Units=GPa)
#
#
# Indices 1 2 3 4 5 6 
#
# 1 107.2604 27.3699 32.5565 0.0000 0.0000 0.0000
# 2 27.3699 25.1644 12.9743 0.0000 0.0000 0.0000
# 3 32.5565 12.9743 64.4046 0.0000 0.0000 0.0000
# 4 0.0000 0.0000 0.0000 10.7170 0.0000 0.0000
# 5 0.0000 0.0000 0.0000 0.0000 -2.0692 0.0000
# 6 0.0000 0.0000 0.0000 0.0000 0.0000 20.7612
#
#
#
# Elastic Compliance Matrix: (Units=1/GPa)
#
#
# Indices 1 2 3 4 5 6 
#
# 1 0.013967 -0.012890 -0.004464 0.000000 0.000000 0.000000
# 2 -0.012890 0.056240 -0.004814 0.000000 0.000000 0.000000
# 3 -0.004464 -0.004814 0.018753 0.000000 0.000000 0.000000
# 4 0.000000 0.000000 0.000000 0.093309 0.000000 0.000000
# 5 0.000000 0.000000 0.000000 0.000000 -0.483270 0.000000
# 6 0.000000 0.000000 0.000000 0.000000 0.000000 0.048167
#
#
# Mechanical properties :
#
#
# Convention : Reuss Voigt Hill
#
# Bulk Modulus (GPa) = 22.40868 38.07008 30.23938
# Shear Modulus (GPa) = -25.82322 14.14372 -5.83975
#
# Velocity S-wave (km/s) = -3.75622 2.77989 -1.78625
# Velocity P-wave (km/s) = 2.56294 5.57712 3.50254
#
# Compressibility (1/GPa) = 0.04462556
#
# Stress axis : x y z
#
# Youngs Moduli (GPa) = 71.59700 17.78094 53.32491
#
# Poissons Ratio (x) = 0.22919 0.23803
# Poissons Ratio (y) = 0.92287 0.25669
# Poissons Ratio (z) = 0.31959 0.08559
#
# Static dielectric constant tensor:
#      x y z
#    x 1.633130 0.000000 0.000000 
#    y 0.000000 1.633690 0.000000 
#    z 0.000000 0.000000 1.668670 
# 
# From -- ./inp_files/56717.got.cif
#   From: 2010.05.17/outbox.ucp.g08.bks.cvg/sg71_29_cif.got.tgz:56717.got - 2010.06.11 16:29:00.
