data_PCOD9524471
_publ_section_title
;
Structure prediction by ZEFSAII (Michael W. Deem and Ramdas Pophale) SiO2 
 PCOD9524471
Probable space group: I M M M
;
_chemical_formula_sum "Si O2"
_cell_formula_units_Z 80
_cell_length_a 19.647939
_cell_length_b 28.620538
_cell_length_c 8.844415
_cell_angle_alpha 90.000000
_cell_angle_beta 90.000000
_cell_angle_gamma 90.000000
_cell_volume 4973.520437
_symmetry_space_group_name_H-M "I M M M"
_symmetry_group_IT_number 71
_symmetry_cell_setting 'orthorhombic'
loop_
_space_group_symop_operation_xyz
x,y,z
-x,-y,z
x,-y,-z
-x,y,-z
-x,-y,-z
x,y,-z
-x,y,z
x,-y,z
1/2+x,1/2+y,1/2+z
1/2-x,1/2-y,1/2+z
1/2+x,1/2-y,1/2-z
1/2-x,1/2+y,1/2-z
1/2-x,1/2-y,1/2-z
1/2+x,1/2+y,1/2-z
1/2-x,1/2+y,1/2+z
1/2+x,1/2-y,1/2+z
loop_
_atom_site_type_symbol
_atom_site_label
_atom_site_fract_x
_atom_site_fract_y
_atom_site_fract_z
Si Si1 0.421790 0.054749 0.318222
Si Si2 0.576535 0.809682 0.664604
Si Si3 0.174367 0.631560 0.326523
Si Si4 0.923988 0.197887 0.826097
Si Si5 0.279293 0.700672 0.179431
O O1 0.419884 0.060350 0.500000
O O2 0.500000 0.065729 0.269369
O O3 0.363753 0.086971 0.245364
O O4 0.410438 0.000000 0.284614
O O5 0.606887 0.823677 0.500000
O O6 0.500000 0.827724 0.667190
O O7 0.616988 0.828652 0.805423
O O8 0.573842 0.754206 0.666602
O O9 0.192104 0.623368 0.500000
O O10 0.235888 0.656364 0.238269
O O11 0.856902 0.189794 0.728230
O O12 0.000000 0.182539 0.774603
O O13 0.914475 0.181447 0.000000
O O14 0.250000 0.750000 0.250000
O O15 0.273891 0.705719 0.000000
#
# Coordination Sequence:
#
# PCOD9524471 Si02
#       5
#    16  16  16  16  16
#     4   9  19  37  58  77 101 136 175 216 265 316
#     4   9  17  29  45  64  90 126 165 205 248 295
#     4  12  23  32  47  72 100 132 169 212 259 305
#     4   9  18  33  51  69  93 127 164 204 251 300
#     4  12  23  35  50  70  99 133 172 216 258 304
#
# _framework density 16.085184999999999
#
# number of rings (size 3 to 8) (size 9 to 14) (size 15 to 20)
#    0.000    1.800    2.000    6.000    0.000    4.000 
#    0.000    3.000    0.000    0.000    0.000    0.000 
#    0.000    0.800    0.000    8.400    0.000    3.600 
#
# Total GULP energy -222778.465280 kJ/mol
# GULP energy per Si atom -5569.461632 kJ/mol
# Density = 1.604857 g / cm^3
# Si number density = 16.085185 Si / 1000 Ang^3
#
#
#
# Elastic Constant Matrix: (Units=GPa)
#
#
# Indices 1 2 3 4 5 6 
#
# 1 130.3178 45.1020 60.6325 0.0000 0.0000 0.0000
# 2 45.1020 70.6187 35.5623 0.0000 0.0000 0.0000
# 3 60.6325 35.5623 97.5952 0.0000 0.0000 0.0000
# 4 0.0000 0.0000 0.0000 16.0695 0.0000 0.0000
# 5 0.0000 0.0000 0.0000 0.0000 25.4785 0.0000
# 6 0.0000 0.0000 0.0000 0.0000 0.0000 26.9652
#
#
#
# Elastic Compliance Matrix: (Units=1/GPa)
#
#
# Indices 1 2 3 4 5 6 
#
# 1 0.011981 -0.004781 -0.005701 0.000000 0.000000 0.000000
# 2 -0.004781 0.019251 -0.004045 0.000000 0.000000 0.000000
# 3 -0.005701 -0.004045 0.015262 0.000000 0.000000 0.000000
# 4 0.000000 0.000000 0.000000 0.062230 0.000000 0.000000
# 5 0.000000 0.000000 0.000000 0.000000 0.039249 0.000000
# 6 0.000000 0.000000 0.000000 0.000000 0.000000 0.037085
#
#
# Mechanical properties :
#
#
# Convention : Reuss Voigt Hill
#
# Bulk Modulus (GPa) = 57.33759 64.56946 60.95353
# Shear Modulus (GPa) = 22.73522 24.18497 23.46010
#
# Velocity S-wave (km/s) = 3.76363 3.88178 3.82316
# Velocity P-wave (km/s) = 7.38987 7.76661 7.58058
#
# Compressibility (1/GPa) = 0.01744056
#
# Stress axis : x y z
#
# Youngs Moduli (GPa) = 83.46785 51.94638 65.52169
#
# Poissons Ratio (x) = 0.24834 0.37355
# Poissons Ratio (y) = 0.39903 0.26501
# Poissons Ratio (z) = 0.47586 0.21010
#
# Static dielectric constant tensor:
#      x y z
#    x 1.602390 0.000000 0.000000 
#    y 0.000000 1.539930 0.000000 
#    z 0.000000 0.000000 1.583300 
# 
# From -- ./inp_files/11244.got.cif
#   From: 2010.05.17/outbox.cif.g08.bks.cpg/sg71_6_cif.got.tgz:11244.got - 2010.06.03 16:22:01.
