data_PCOD9524691
_publ_section_title
;
Structure prediction by ZEFSAII (Michael W. Deem and Ramdas Pophale) SiO2 
 PCOD9524691
Probable space group: I M M M
;
_chemical_formula_sum "Si O2"
_cell_formula_units_Z 40
_cell_length_a 9.000000
_cell_length_b 18.000000
_cell_length_c 27.000000
_cell_angle_alpha 90.000000
_cell_angle_beta 90.000000
_cell_angle_gamma 90.000000
_cell_volume 4374.000000
_symmetry_space_group_name_H-M "I M M M"
_symmetry_group_IT_number 71
_symmetry_cell_setting 'orthorhombic'
loop_
_space_group_symop_operation_xyz
x,y,z
-x,-y,z
x,-y,-z
-x,y,-z
-x,-y,-z
x,y,-z
-x,y,z
x,-y,z
1/2+x,1/2+y,1/2+z
1/2-x,1/2-y,1/2+z
1/2+x,1/2-y,1/2-z
1/2-x,1/2+y,1/2-z
1/2-x,1/2-y,1/2-z
1/2+x,1/2+y,1/2-z
1/2-x,1/2+y,1/2+z
1/2+x,1/2-y,1/2+z
loop_
_atom_site_type_symbol
_atom_site_label
_atom_site_fract_x
_atom_site_fract_y
_atom_site_fract_z
Si Si1 0.681384 0.584773 0.000000
Si Si2 0.681274 0.914177 0.197959
Si Si3 0.326472 0.089576 0.693961
Si Si4 0.181556 0.585269 0.500000
Si Si5 0.681505 0.167475 0.900514
Si Si6 0.820960 0.837596 0.600204
O O1 0.731938 0.623498 0.949907
O O2 0.727630 0.500000 0.000000
O O3 0.500000 0.587317 0.000000
O O4 0.500000 0.913022 0.198710
O O5 0.728530 0.885221 0.251790
O O6 0.732528 0.870137 0.150165
O O7 0.725312 0.000000 0.193095
O O8 0.500000 0.109413 0.688846
O O9 0.236939 0.122453 0.648817
O O10 0.317586 0.000000 0.693791
O O11 0.227513 0.500000 0.500000
O O12 0.230622 0.625711 0.450001
O O13 0.000000 0.586811 0.500000
O O14 0.500000 0.164738 0.900494
O O15 0.726605 0.252529 0.901091
O O16 0.000000 0.839828 0.600415
#
# Coordination Sequence:
#
# PCOD9524691 Si02
#       6
#     8  16  16   8  16  16
#     4   9  17  29  44  61  84 116 148 175 214 269
#     4   8  14  26  43  61  85 119 152 180 218 268
#     4   9  18  32  48  65  87 118 155 189 219 260
#     4   9  15  23  39  64  94 125 154 186 222 261
#     4   9  16  25  39  63  93 120 148 184 225 268
#     4  10  19  30  46  68  93 119 147 184 229 272
#
# _framework density 9.1449470000000002
#
# number of rings (size 3 to 8) (size 9 to 14) (size 15 to 20)
#    0.000    3.000    0.000    3.000    0.000    6.800 
#    0.000    0.500    0.000    1.800    0.000    0.000 
#    0.000    3.200    0.000    0.000    0.000    0.400 
#
# Total GULP energy -222840.232947 kJ/mol
# GULP energy per Si atom -5571.005824 kJ/mol
# Density = 0.912413 g / cm^3
# Si number density = 9.144947 Si / 1000 Ang^3
#
#
#
# Elastic Constant Matrix: (Units=GPa)
#
#
# Indices 1 2 3 4 5 6 
#
# 1 -4.5031 15.6868 17.8889 0.0000 0.0000 0.0000
# 2 15.6868 90.0730 104.6501 0.0000 0.0000 0.0000
# 3 17.8889 104.6501 222.6642 0.0000 0.0000 0.0000
# 4 0.0000 0.0000 0.0000 60.0115 0.0000 0.0000
# 5 0.0000 0.0000 0.0000 0.0000 32.6041 0.0000
# 6 0.0000 0.0000 0.0000 0.0000 0.0000 5.7072
#
#
#
# Elastic Compliance Matrix: (Units=1/GPa)
#
#
# Indices 1 2 3 4 5 6 
#
# 1 -0.138194 0.024602 -0.000460 0.000000 0.000000 0.000000
# 2 0.024602 0.020077 -0.011413 0.000000 0.000000 0.000000
# 3 -0.000460 -0.011413 0.009892 0.000000 0.000000 0.000000
# 4 0.000000 0.000000 0.000000 0.016663 0.000000 0.000000
# 5 0.000000 0.000000 0.000000 0.000000 0.030671 0.000000
# 6 0.000000 0.000000 0.000000 0.000000 0.000000 0.175216
#
#
# Mechanical properties :
#
#
# Convention : Reuss Voigt Hill
#
# Bulk Modulus (GPa) = -12.08215 64.96509 26.44147
# Shear Modulus (GPa) = 81.59646 30.99844 56.29745
#
# Velocity S-wave (km/s) = 6.68653 4.12131 5.55405
# Velocity P-wave (km/s) = 7.27961 7.63176 7.45776
#
# Compressibility (1/GPa) = -0.08276673
#
# Stress axis : x y z
#
# Youngs Moduli (GPa) = -7.23618 49.80827 101.09347
#
# Poissons Ratio (x) = -1.22539 0.04652
# Poissons Ratio (y) = 0.17803 1.15373
# Poissons Ratio (z) = -0.00333 0.56844
#
# Static dielectric constant tensor:
#      x y z
#    x 1.616610 0.000000 0.000000 
#    y 0.000000 1.613910 0.000000 
#    z 0.000000 0.000000 1.640150 
# 
# From -- ./inp_files/43491.got.cif
#   From: 2010.05.17/outbox.ucp.g08.bks.cvg/sg71_22_cif.got.tgz:43491.got - 2010.06.11 16:29:00.
