data_PCOD9524949
_publ_section_title
;
Structure prediction by ZEFSAII (Michael W. Deem and Ramdas Pophale) SiO2 
 PCOD9524949
Probable space group: I B A M
;
_chemical_formula_sum "Si O2"
_cell_formula_units_Z 48
_cell_length_a 19.345482
_cell_length_b 23.294345
_cell_length_c 5.454526
_cell_angle_alpha 90.000000
_cell_angle_beta 90.000000
_cell_angle_gamma 90.000000
_cell_volume 2458.029407
_symmetry_space_group_name_H-M "I B A M"
_symmetry_group_IT_number 72
_symmetry_cell_setting 'orthorhombic'
loop_
_space_group_symop_operation_xyz
x,y,z
-x,-y,z
x,-y,1/2-z
-x,y,1/2-z
-x,-y,-z
x,y,-z
-x,y,1/2+z
x,-y,1/2+z
1/2+x,1/2+y,1/2+z
1/2-x,1/2-y,1/2+z
1/2+x,1/2-y,-z
1/2-x,1/2+y,-z
1/2-x,1/2-y,1/2-z
1/2+x,1/2+y,1/2-z
1/2-x,1/2+y,z
1/2+x,1/2-y,z
loop_
_atom_site_type_symbol
_atom_site_label
_atom_site_fract_x
_atom_site_fract_y
_atom_site_fract_z
Si Si1 0.226033 0.194986 0.000000
Si Si2 0.875494 0.693468 0.000000
Si Si3 0.861506 0.964714 0.500000
Si Si4 0.455889 0.351593 0.000000
Si Si5 0.241998 0.872309 0.000000
Si Si6 0.889509 0.272239 0.000000
O O1 0.174133 0.248793 0.000000
O O2 0.216918 0.157725 0.753675
O O3 0.305606 0.217394 0.000000
O O4 0.915388 0.698747 0.748194
O O5 0.823783 0.639800 0.000000
O O6 0.910705 0.909129 0.500000
O O7 0.785058 0.936834 0.500000
O O8 0.872814 0.000000 0.250000
O O9 0.500000 0.351060 0.250000
O O10 0.411230 0.293606 0.000000
#
# Coordination Sequence:
#
# PCOD9524949 Si02
#       6
#     8   8   8   8   8   8
#     4  10  16  27  50  74  96 111 133 180 244 322
#     4  10  16  27  50  74  96 111 133 180 244 322
#     4  12  25  39  53  67  91 130 180 227 256 277
#     4  12  25  39  53  67  91 130 180 227 256 277
#     4  10  19  31  48  72  93 115 148 193 247 301
#     4  10  19  31  48  72  93 115 148 193 247 301
#
# _framework density 19.527837999999999
#
# number of rings (size 3 to 8) (size 9 to 14) (size 15 to 20)
#    0.000    1.333    0.000   11.000    0.000    2.000 
#    0.000    0.000    0.000    0.000    0.000    0.000 
#    0.000    0.000    0.000    0.000    0.000  933.333 
#
# Total GULP energy -134104.759179 kJ/mol
# GULP energy per Si atom -5587.698299 kJ/mol
# Density = 1.948339 g / cm^3
# Si number density = 19.527838 Si / 1000 Ang^3
#
#
#
# Elastic Constant Matrix: (Units=GPa)
#
#
# Indices 1 2 3 4 5 6 
#
# 1 59.0616 32.0378 35.7007 0.0000 0.0000 0.0000
# 2 32.0378 41.1904 39.0887 0.0000 0.0000 0.0000
# 3 35.7007 39.0887 222.1310 0.0000 0.0000 0.0000
# 4 0.0000 0.0000 0.0000 23.6810 0.0000 0.0000
# 5 0.0000 0.0000 0.0000 0.0000 12.6993 0.0000
# 6 0.0000 0.0000 0.0000 0.0000 0.0000 24.9589
#
#
#
# Elastic Compliance Matrix: (Units=1/GPa)
#
#
# Indices 1 2 3 4 5 6 
#
# 1 0.029420 -0.022083 -0.000842 0.000000 0.000000 0.000000
# 2 -0.022083 0.045721 -0.004496 0.000000 0.000000 0.000000
# 3 -0.000842 -0.004496 0.005428 0.000000 0.000000 0.000000
# 4 0.000000 0.000000 0.000000 0.042228 0.000000 0.000000
# 5 0.000000 0.000000 0.000000 0.000000 0.078744 0.000000
# 6 0.000000 0.000000 0.000000 0.000000 0.000000 0.040066
#
#
# Mechanical properties :
#
#
# Convention : Reuss Voigt Hill
#
# Bulk Modulus (GPa) = 38.87255 59.55969 49.21612
# Shear Modulus (GPa) = 16.39207 26.63823 21.51515
#
# Velocity S-wave (km/s) = 2.90042 3.69740 3.32289
# Velocity P-wave (km/s) = 5.58265 6.98526 6.32297
#
# Compressibility (1/GPa) = 0.02572510
#
# Stress axis : x y z
#
# Youngs Moduli (GPa) = 33.99097 21.87191 184.21480
#
# Poissons Ratio (x) = 0.48300 0.15516
# Poissons Ratio (y) = 0.75063 0.82829
# Poissons Ratio (z) = 0.02863 0.09834
#
# Static dielectric constant tensor:
#      x y z
#    x 1.732460 0.000000 0.000000 
#    y 0.000000 1.638900 0.000000 
#    z 0.000000 0.000000 1.777070 
# 
# From -- ./inp_files/484.got.cif
#   From: 2010.05.17/outbox.cif.g08.bks.cpg/sg72_1_cif.got.tgz:484.got - 2010.06.03 17:03:01.
