data_PCOD9524195
_publ_section_title
;
Structure prediction by ZEFSAII (Michael W. Deem and Ramdas Pophale) SiO2 
 PCOD9524195
Probable space group: I M M M
;
_chemical_formula_sum "Si O2"
_cell_formula_units_Z 92
_cell_length_a 20.618180
_cell_length_b 14.783809
_cell_length_c 16.538184
_cell_angle_alpha 90.000000
_cell_angle_beta 90.000000
_cell_angle_gamma 90.000000
_cell_volume 5041.090443
_symmetry_space_group_name_H-M "I M M M"
_symmetry_group_IT_number 71
_symmetry_cell_setting 'orthorhombic'
loop_
_space_group_symop_operation_xyz
x,y,z
-x,-y,z
x,-y,-z
-x,y,-z
-x,-y,-z
x,y,-z
-x,y,z
x,-y,z
1/2+x,1/2+y,1/2+z
1/2-x,1/2-y,1/2+z
1/2+x,1/2-y,1/2-z
1/2-x,1/2+y,1/2-z
1/2-x,1/2-y,1/2-z
1/2+x,1/2+y,1/2-z
1/2-x,1/2+y,1/2+z
1/2+x,1/2-y,1/2+z
loop_
_atom_site_type_symbol
_atom_site_label
_atom_site_fract_x
_atom_site_fract_y
_atom_site_fract_z
Si Si1 0.728471 0.650045 0.642900
Si Si2 0.828194 0.100285 0.313703
Si Si3 0.077968 0.395561 0.500000
Si Si4 0.572185 0.101918 0.693599
Si Si5 0.263216 0.500000 0.500000
Si Si6 0.302922 0.148113 0.594387
Si Si7 0.374368 0.793179 0.840274
O O1 0.686670 0.615809 0.718712
O O2 0.734958 0.578592 0.571334
O O3 0.700138 0.744106 0.609783
O O4 0.800564 0.673902 0.675171
O O5 0.758785 0.107710 0.358648
O O6 0.870647 0.184744 0.344677
O O7 0.855256 0.000000 0.326645
O O8 0.103564 0.500000 0.500000
O O9 0.102244 0.342064 0.578476
O O10 0.000000 0.399162 0.500000
O O11 0.500000 0.112910 0.658937
O O12 0.629652 0.113114 0.630074
O O13 0.583427 0.172075 0.765789
O O14 0.576469 0.000000 0.728418
O O15 0.297037 0.128664 0.500000
#
# Coordination Sequence:
#
# PCOD9524195 Si02
#       7
#    16  16   8  16   4  16  16
#     4  11  21  36  58  94 120 152 190 241 309 356
#     4  11  22  38  61  89 121 156 194 243 301 361
#     4  11  25  41  61  90 125 165 203 246 295 353
#     4  11  23  38  59  84 112 157 202 243 295 353
#     4  12  22  30  64  98 118 146 188 242 298 368
#     4  11  22  39  56  84 122 155 193 242 296 357
#     4  11  22  38  59  87 123 157 198 245 300 354
#
# _framework density 18.250019999999999
#
# number of rings (size 3 to 8) (size 9 to 14) (size 15 to 20)
#    0.000    0.957    5.217    3.130    7.304    3.130 
#    0.000    0.870    0.000    2.609    0.000    0.609 
#    0.000    0.000    0.000    0.000    0.000    0.000 
#
# Total GULP energy -256534.376032 kJ/mol
# GULP energy per Si atom -5576.834262 kJ/mol
# Density = 1.820848 g / cm^3
# Si number density = 18.250020 Si / 1000 Ang^3
#
#
#
# Elastic Constant Matrix: (Units=GPa)
#
#
# Indices 1 2 3 4 5 6 
#
# 1 46.9099 19.4515 -2.4005 0.0000 0.0000 0.0000
# 2 19.4515 159.1315 21.3751 0.0000 0.0000 0.0000
# 3 -2.4005 21.3751 86.3908 0.0000 0.0000 0.0000
# 4 0.0000 0.0000 0.0000 33.3126 0.0000 0.0000
# 5 0.0000 0.0000 0.0000 0.0000 7.2489 0.0000
# 6 0.0000 0.0000 0.0000 0.0000 0.0000 19.1343
#
#
#
# Elastic Compliance Matrix: (Units=1/GPa)
#
#
# Indices 1 2 3 4 5 6 
#
# 1 0.022608 -0.002946 0.001357 0.000000 0.000000 0.000000
# 2 -0.002946 0.006884 -0.001785 0.000000 0.000000 0.000000
# 3 0.001357 -0.001785 0.012055 0.000000 0.000000 0.000000
# 4 0.000000 0.000000 0.000000 0.030019 0.000000 0.000000
# 5 0.000000 0.000000 0.000000 0.000000 0.137952 0.000000
# 6 0.000000 0.000000 0.000000 0.000000 0.000000 0.052262
#
#
# Mechanical properties :
#
#
# Convention : Reuss Voigt Hill
#
# Bulk Modulus (GPa) = 28.73616 41.03160 34.88388
# Shear Modulus (GPa) = 17.84901 28.87289 23.36095
#
# Velocity S-wave (km/s) = 3.13074 3.98184 3.58166
# Velocity P-wave (km/s) = 5.37110 6.60848 6.02165
#
# Compressibility (1/GPa) = 0.03479936
#
# Stress axis : x y z
#
# Youngs Moduli (GPa) = 44.23128 145.26478 82.95522
#
# Poissons Ratio (x) = 0.42793 -0.11258
# Poissons Ratio (y) = 0.13030 0.14808
# Poissons Ratio (z) = -0.06003 0.25931
#
# Static dielectric constant tensor:
#      x y z
#    x 1.618160 0.000000 0.000000 
#    y 0.000000 1.651300 0.000000 
#    z 0.000000 0.000000 1.608590 
# 
# From -- ./inp_files/37868.got.cif
#   From: 2010.05.17/outbox.cif.g08.bks.cpg/sg71_19_cif.got.tgz:37868.got - 2010.06.03 16:22:01.
