data_PCOD9524698
_publ_section_title
;
Structure prediction by ZEFSAII (Michael W. Deem and Ramdas Pophale) SiO2 
 PCOD9524698
Probable space group: I M M M
;
_chemical_formula_sum "Si O2"
_cell_formula_units_Z 48
_cell_length_a 30.000000
_cell_length_b 15.000000
_cell_length_c 12.000000
_cell_angle_alpha 90.000000
_cell_angle_beta 90.000000
_cell_angle_gamma 90.000000
_cell_volume 5400.000000
_symmetry_space_group_name_H-M "I M M M"
_symmetry_group_IT_number 71
_symmetry_cell_setting 'orthorhombic'
loop_
_space_group_symop_operation_xyz
x,y,z
-x,-y,z
x,-y,-z
-x,y,-z
-x,-y,-z
x,y,-z
-x,y,z
x,-y,z
1/2+x,1/2+y,1/2+z
1/2-x,1/2-y,1/2+z
1/2+x,1/2-y,1/2-z
1/2-x,1/2+y,1/2-z
1/2-x,1/2-y,1/2-z
1/2+x,1/2+y,1/2-z
1/2-x,1/2+y,1/2+z
1/2+x,1/2-y,1/2+z
loop_
_atom_site_type_symbol
_atom_site_label
_atom_site_fract_x
_atom_site_fract_y
_atom_site_fract_z
Si Si1 0.130054 0.606125 0.000000
Si Si2 0.145459 0.732624 0.366956
Si Si3 0.295508 0.602180 0.134730
Si Si4 0.450044 0.713606 0.132241
Si Si5 0.554219 0.748102 0.500000
Si Si6 0.304488 0.106090 0.707350
Si Si7 0.052666 0.903383 0.828656
O O1 0.085334 0.665197 0.000000
O O2 0.161783 0.625599 0.105648
O O3 0.119980 0.500000 0.000000
O O4 0.148684 0.727154 0.500000
O O5 0.166330 0.828135 0.331934
O O6 0.092933 0.727126 0.338284
O O7 0.175579 0.658308 0.310925
O O8 0.304577 0.500000 0.169517
O O9 0.246656 0.629988 0.178895
O O10 0.292755 0.602392 0.000000
O O11 0.500000 0.747801 0.161776
O O12 0.443879 0.621949 0.199359
O O13 0.448964 0.699602 0.000000
O O14 0.500000 0.765169 0.500000
O O15 0.566893 0.683631 0.603430
O O16 0.304939 0.000000 0.724391
O O17 0.000000 0.909539 0.855188
O O18 0.072701 0.000000 0.855148
#
# Coordination Sequence:
#
# PCOD9524698 Si02
#       7
#     8  16  16  16   8  16  16
#     4  10  20  34  53  72  90 125 172 211 251 298
#     4  10  20  32  51  79 104 132 169 205 250 304
#     4   9  17  32  53  77 104 132 164 205 250 297
#     4   9  18  32  48  69 101 138 174 211 247 284
#     4  10  19  31  48  71  99 126 159 210 261 301
#     4  10  19  34  54  74  99 130 167 210 254 301
#     4   9  17  29  46  68  96 132 168 198 238 295
#
# _framework density 8.8888890000000007
#
# number of rings (size 3 to 8) (size 9 to 14) (size 15 to 20)
#    0.000    2.500    0.833    1.750    0.000    2.500 
#    0.000    3.333    0.000    1.500    0.000    2.333 
#    0.000    0.000    0.000    0.000    0.000    0.333 
#
# Total GULP energy -267262.772358 kJ/mol
# GULP energy per Si atom -5567.974424 kJ/mol
# Density = 0.886866 g / cm^3
# Si number density = 8.888889 Si / 1000 Ang^3
#
#
#
# Elastic Constant Matrix: (Units=GPa)
#
#
# Indices 1 2 3 4 5 6 
#
# 1 99.5819 28.6145 12.5510 0.0000 0.0000 0.0000
# 2 28.6145 25.3810 5.0065 0.0000 0.0000 0.0000
# 3 12.5510 5.0065 15.3690 0.0000 0.0000 0.0000
# 4 0.0000 0.0000 0.0000 3.7240 0.0000 0.0000
# 5 0.0000 0.0000 0.0000 0.0000 15.4383 0.0000
# 6 0.0000 0.0000 0.0000 0.0000 0.0000 21.2569
#
#
#
# Elastic Compliance Matrix: (Units=1/GPa)
#
#
# Indices 1 2 3 4 5 6 
#
# 1 0.015624 -0.016134 -0.007503 0.000000 0.000000 0.000000
# 2 -0.016134 0.058766 -0.005967 0.000000 0.000000 0.000000
# 3 -0.007503 -0.005967 0.073137 0.000000 0.000000 0.000000
# 4 0.000000 0.000000 0.000000 0.268529 0.000000 0.000000
# 5 0.000000 0.000000 0.000000 0.000000 0.064774 0.000000
# 6 0.000000 0.000000 0.000000 0.000000 0.000000 0.047044
#
#
# Mechanical properties :
#
#
# Convention : Reuss Voigt Hill
#
# Bulk Modulus (GPa) = 11.32277 25.85289 18.58783
# Shear Modulus (GPa) = 8.11000 14.36116 11.23558
#
# Velocity S-wave (km/s) = 2.13817 2.84529 2.51669
# Velocity P-wave (km/s) = 3.53250 5.03667 4.35010
#
# Compressibility (1/GPa) = 0.08831764
#
# Stress axis : x y z
#
# Youngs Moduli (GPa) = 64.00513 17.01662 13.67291
#
# Poissons Ratio (x) = 0.27455 0.10259
# Poissons Ratio (y) = 1.03266 0.08159
# Poissons Ratio (z) = 0.48025 0.10154
#
# Static dielectric constant tensor:
#      x y z
#    x 1.614130 0.000000 0.000000 
#    y 0.000000 1.596930 0.000000 
#    z 0.000000 0.000000 1.654900 
# 
# From -- ./inp_files/29995.got.cif
#   From: 2010.05.17/outbox.ucp.g08.bks.cvg/sg71_15_cif.got.tgz:29995.got - 2010.06.11 16:29:00.
