data_PCOD9524894
_publ_section_title
;
Structure prediction by ZEFSAII (Michael W. Deem and Ramdas Pophale) SiO2 
 PCOD9524894
Probable space group: I M M M
;
_chemical_formula_sum "Si O2"
_cell_formula_units_Z 36
_cell_length_a 9.000000
_cell_length_b 24.000000
_cell_length_c 18.000000
_cell_angle_alpha 90.000000
_cell_angle_beta 90.000000
_cell_angle_gamma 90.000000
_cell_volume 3888.000000
_symmetry_space_group_name_H-M "I M M M"
_symmetry_group_IT_number 71
_symmetry_cell_setting 'orthorhombic'
loop_
_space_group_symop_operation_xyz
x,y,z
-x,-y,z
x,-y,-z
-x,y,-z
-x,-y,-z
x,y,-z
-x,y,z
x,-y,z
1/2+x,1/2+y,1/2+z
1/2-x,1/2-y,1/2+z
1/2+x,1/2-y,1/2-z
1/2-x,1/2+y,1/2-z
1/2-x,1/2-y,1/2-z
1/2+x,1/2+y,1/2-z
1/2-x,1/2+y,1/2+z
1/2+x,1/2-y,1/2+z
loop_
_atom_site_type_symbol
_atom_site_label
_atom_site_fract_x
_atom_site_fract_y
_atom_site_fract_z
Si Si1 0.679008 0.888356 0.328832
Si Si2 0.330627 0.844011 0.087790
Si Si3 0.678765 0.730856 0.827710
Si Si4 0.822966 0.934382 0.820569
Si Si5 0.180411 0.500000 0.916143
O O1 0.500000 0.882993 0.329996
O O2 0.751423 0.828915 0.349332
O O3 0.736915 0.906455 0.248071
O O4 0.724624 0.941901 0.378108
O O5 0.500000 0.855291 0.114938
O O6 0.288067 0.783149 0.118772
O O7 0.225867 0.894529 0.112493
O O8 0.333173 0.840862 0.000000
O O9 0.500000 0.725044 0.821692
O O10 0.750000 0.750000 0.750000
O O11 0.000000 0.931377 0.808657
O O12 0.783613 0.000000 0.828808
O O13 0.000000 0.500000 0.914666
O O14 0.233012 0.500000 0.000000
#
# Coordination Sequence:
#
# PCOD9524894 Si02
#       5
#    16  16  16  16   8
#     4  11  21  36  61  89 118 157 201 244 293 350
#     4  10  23  42  62  86 119 158 198 243 296 354
#     4  11  22  37  60  89 120 154 198 245 293 350
#     4  11  23  38  60  89 120 154 197 247 297 351
#     4   9  20  38  59  87 122 157 198 247 295 348
#
# _framework density 9.2592590000000001
#
# number of rings (size 3 to 8) (size 9 to 14) (size 15 to 20)
#    0.000    1.444    3.333    2.000    0.000    4.000 
#    0.000    2.222    0.000    4.667    0.000    0.000 
#    0.000    0.000    0.000    0.000    0.000    0.000 
#
# Total GULP energy -200885.484939 kJ/mol
# GULP energy per Si atom -5580.152359 kJ/mol
# Density = 0.923818 g / cm^3
# Si number density = 9.259259 Si / 1000 Ang^3
#
#
#
# Elastic Constant Matrix: (Units=GPa)
#
#
# Indices 1 2 3 4 5 6 
#
# 1 63.5976 44.3605 12.2773 0.0000 0.0000 0.0000
# 2 44.3605 136.8946 19.4065 0.0000 0.0000 0.0000
# 3 12.2773 19.4065 65.1234 0.0000 0.0000 0.0000
# 4 0.0000 0.0000 0.0000 34.2112 0.0000 0.0000
# 5 0.0000 0.0000 0.0000 0.0000 9.4156 0.0000
# 6 0.0000 0.0000 0.0000 0.0000 0.0000 41.3681
#
#
#
# Elastic Compliance Matrix: (Units=1/GPa)
#
#
# Indices 1 2 3 4 5 6 
#
# 1 0.020556 -0.006381 -0.001974 0.000000 0.000000 0.000000
# 2 -0.006381 0.009608 -0.001660 0.000000 0.000000 0.000000
# 3 -0.001974 -0.001660 0.016222 0.000000 0.000000 0.000000
# 4 0.000000 0.000000 0.000000 0.029230 0.000000 0.000000
# 5 0.000000 0.000000 0.000000 0.000000 0.106207 0.000000
# 6 0.000000 0.000000 0.000000 0.000000 0.000000 0.024173
#
#
# Mechanical properties :
#
#
# Convention : Reuss Voigt Hill
#
# Bulk Modulus (GPa) = 37.94197 46.41156 42.17677
# Shear Modulus (GPa) = 21.29364 29.63708 25.46536
#
# Velocity S-wave (km/s) = 3.39463 4.00484 3.71230
# Velocity P-wave (km/s) = 5.99148 6.81921 6.41870
#
# Compressibility (1/GPa) = 0.02635604
#
# Stress axis : x y z
#
# Youngs Moduli (GPa) = 48.64770 104.07889 61.64364
#
# Poissons Ratio (x) = 0.66416 0.12166
# Poissons Ratio (y) = 0.31044 0.10234
# Poissons Ratio (z) = 0.09601 0.17279
#
# Static dielectric constant tensor:
#      x y z
#    x 1.642180 0.000000 0.000000 
#    y 0.000000 2.448700 0.000000 
#    z 0.000000 0.000000 1.658210 
# 
# From -- ./inp_files/7877.got.cif
#   From: 2010.05.17/outbox.ucp.g08.bks.cvg/sg71_4_cif.got.tgz:7877.got - 2010.06.11 16:29:00.
