data_PCOD9524852
_publ_section_title
;
Structure prediction by ZEFSAII (Michael W. Deem and Ramdas Pophale) SiO2 
 PCOD9524852
Probable space group: I M M M
;
_chemical_formula_sum "Si O2"
_cell_formula_units_Z 52
_cell_length_a 30.000000
_cell_length_b 21.000000
_cell_length_c 9.000000
_cell_angle_alpha 90.000000
_cell_angle_beta 90.000000
_cell_angle_gamma 90.000000
_cell_volume 5670.000000
_symmetry_space_group_name_H-M "I M M M"
_symmetry_group_IT_number 71
_symmetry_cell_setting 'orthorhombic'
loop_
_space_group_symop_operation_xyz
x,y,z
-x,-y,z
x,-y,-z
-x,y,-z
-x,-y,-z
x,y,-z
-x,y,z
x,-y,z
1/2+x,1/2+y,1/2+z
1/2-x,1/2-y,1/2+z
1/2+x,1/2-y,1/2-z
1/2-x,1/2+y,1/2-z
1/2-x,1/2-y,1/2-z
1/2+x,1/2+y,1/2-z
1/2-x,1/2+y,1/2+z
1/2+x,1/2-y,1/2+z
loop_
_atom_site_type_symbol
_atom_site_label
_atom_site_fract_x
_atom_site_fract_y
_atom_site_fract_z
Si Si1 0.157732 0.071285 0.675385
Si Si2 0.289722 0.794204 0.180184
Si Si3 0.605067 0.197299 0.180017
Si Si4 0.946890 0.575011 0.179538
Si Si5 0.746423 0.069663 0.821578
Si Si6 0.423273 0.337981 0.821518
Si Si7 0.000000 0.075515 0.178794
O O1 0.168508 0.074791 0.500000
O O2 0.202929 0.075910 0.767003
O O3 0.124097 0.128075 0.708855
O O4 0.138168 0.000000 0.701993
O O5 0.250000 0.750000 0.250000
O O6 0.342593 0.787405 0.218708
O O7 0.279103 0.867135 0.225421
O O8 0.286550 0.787144 0.000000
O O9 0.583134 0.132536 0.249547
O O10 0.578523 0.262956 0.219504
O O11 0.603691 0.190287 0.000000
O O12 0.935978 0.500000 0.220762
O O13 0.000000 0.584372 0.215354
O O14 0.942634 0.578863 0.000000
O O15 0.729686 0.000000 0.769228
O O16 0.745448 0.069033 0.000000
O O17 0.458493 0.383549 0.740662
O O18 0.430916 0.341159 0.000000
O O19 0.000000 0.000000 0.224813
O O20 0.000000 0.076170 0.000000
#
# Coordination Sequence:
#
# PCOD9524852 Si02
#       7
#    16  16  16  16  16  16   8
#     4   9  17  31  53  78 104 140 185 226 266 316
#     4  10  21  37  56  80 113 151 189 232 281 336
#     4  10  22  37  57  87 117 148 191 239 286 340
#     4   9  20  40  63  86 115 151 191 238 296 361
#     4   9  18  32  51  76 106 141 179 221 270 319
#     4  10  21  37  56  79 109 144 181 224 273 329
#     4  11  25  41  57  81 110 141 180 225 271 320
#
# _framework density 9.1710759999999993
#
# number of rings (size 3 to 8) (size 9 to 14) (size 15 to 20)
#    0.000    2.385    0.000    2.077    1.077    6.154 
#    0.000    3.846    0.000    1.846    0.000    0.000 
#    0.000    0.000    0.000    0.000    0.000    0.000 
#
# Total GULP energy -289709.278274 kJ/mol
# GULP energy per Si atom -5571.332274 kJ/mol
# Density = 0.915020 g / cm^3
# Si number density = 9.171076 Si / 1000 Ang^3
#
#
#
# Elastic Constant Matrix: (Units=GPa)
#
#
# Indices 1 2 3 4 5 6 
#
# 1 85.8200 67.4943 24.3164 0.0000 0.0000 0.0000
# 2 67.4943 181.9046 39.8297 0.0000 0.0000 0.0000
# 3 24.3164 39.8297 23.9813 0.0000 0.0000 0.0000
# 4 0.0000 0.0000 0.0000 35.1697 0.0000 0.0000
# 5 0.0000 0.0000 0.0000 0.0000 27.6864 0.0000
# 6 0.0000 0.0000 0.0000 0.0000 0.0000 41.1048
#
#
#
# Elastic Compliance Matrix: (Units=1/GPa)
#
#
# Indices 1 2 3 4 5 6 
#
# 1 0.018243 -0.004272 -0.011402 0.000000 0.000000 0.000000
# 2 -0.004272 0.009640 -0.011678 0.000000 0.000000 0.000000
# 3 -0.011402 -0.011678 0.072656 0.000000 0.000000 0.000000
# 4 0.000000 0.000000 0.000000 0.028434 0.000000 0.000000
# 5 0.000000 0.000000 0.000000 0.000000 0.036119 0.000000
# 6 0.000000 0.000000 0.000000 0.000000 0.000000 0.024328
#
#
# Mechanical properties :
#
#
# Convention : Reuss Voigt Hill
#
# Bulk Modulus (GPa) = 21.81792 61.66518 41.74155
# Shear Modulus (GPa) = 19.27505 31.46322 25.36913
#
# Velocity S-wave (km/s) = 3.24522 4.14617 3.72305
# Velocity P-wave (km/s) = 5.09536 7.52418 6.42558
#
# Compressibility (1/GPa) = 0.04583389
#
# Stress axis : x y z
#
# Youngs Moduli (GPa) = 54.81547 103.73843 13.76341
#
# Poissons Ratio (x) = 0.44320 0.15693
# Poissons Ratio (y) = 0.23419 0.16073
# Poissons Ratio (z) = 0.62502 1.21147
#
# Static dielectric constant tensor:
#      x y z
#    x 1.650560 0.000000 0.000000 
#    y 0.000000 1.661830 0.000000 
#    z 0.000000 0.000000 1.621980 
# 
# From -- ./inp_files/17030.got.cif
#   From: 2010.05.17/outbox.ucp.g08.bks.cvg/sg71_9_cif.got.tgz:17030.got - 2010.06.11 16:29:00.
