data_PCOD9524015
_publ_section_title
;
Structure prediction by ZEFSAII (Michael W. Deem and Ramdas Pophale) SiO2 
 PCOD9524015
Probable space group: I M M M
;
_chemical_formula_sum "Si O2"
_cell_formula_units_Z 120
_cell_length_a 22.067434
_cell_length_b 22.798236
_cell_length_c 14.371452
_cell_angle_alpha 90.000000
_cell_angle_beta 90.000000
_cell_angle_gamma 90.000000
_cell_volume 7230.256925
_symmetry_space_group_name_H-M "I M M M"
_symmetry_group_IT_number 71
_symmetry_cell_setting 'orthorhombic'
loop_
_space_group_symop_operation_xyz
x,y,z
-x,-y,z
x,-y,-z
-x,y,-z
-x,-y,-z
x,y,-z
-x,y,z
x,-y,z
1/2+x,1/2+y,1/2+z
1/2-x,1/2-y,1/2+z
1/2+x,1/2-y,1/2-z
1/2-x,1/2+y,1/2-z
1/2-x,1/2-y,1/2-z
1/2+x,1/2+y,1/2-z
1/2-x,1/2+y,1/2+z
1/2+x,1/2-y,1/2+z
loop_
_atom_site_type_symbol
_atom_site_label
_atom_site_fract_x
_atom_site_fract_y
_atom_site_fract_z
Si Si1 0.760174 0.864491 0.605519
Si Si2 0.381541 0.878413 0.207311
Si Si3 0.264881 0.067728 0.888980
Si Si4 0.500000 0.929604 0.111963
Si Si5 0.337360 0.356959 0.711225
Si Si6 0.927533 0.068539 0.105139
Si Si7 0.355391 0.068357 0.604122
Si Si8 0.814142 0.728046 0.791259
O O1 0.782235 0.861066 0.500000
O O2 0.812373 0.861292 0.682964
O O3 0.716932 0.921020 0.618169
O O4 0.710390 0.813408 0.626285
O O5 0.327801 0.915870 0.160146
O O6 0.441533 0.894668 0.150822
O O7 0.389838 0.899953 0.313094
O O8 0.353771 0.812689 0.221535
O O9 0.215616 0.112827 0.849625
O O10 0.248612 0.000000 0.868369
O O11 0.270537 0.073556 0.000000
O O12 0.500000 0.000000 0.138587
O O13 0.500000 0.928317 0.000000
O O14 0.396118 0.393558 0.684134
O O15 0.346517 0.288819 0.685622
O O16 0.000000 0.072932 0.108680
O O17 0.911342 0.000000 0.115279
O O18 0.907925 0.086441 0.000000
O O19 0.369489 0.089884 0.500000
O O20 0.368398 0.000000 0.608722
O O21 0.750000 0.750000 0.750000
#
# Coordination Sequence:
#
# PCOD9524015 Si02
#       8
#    16  16  16   8  16  16  16  16
#     4   9  18  30  47  73 107 139 171 215 265 321
#     4  11  20  37  55  74 116 152 187 239 285 328
#     4  11  21  31  51  84 113 140 181 235 292 346
#     4  11  24  40  59  85 117 161 207 240 288 350
#     4  11  19  33  53  80 108 139 181 227 278 338
#     4   9  19  36  56  80 109 139 173 218 281 350
#     4   9  16  28  49  74  99 133 176 219 271 326
#     4   9  18  36  52  79 107 141 183 224 279 337
#
# _framework density 16.596920999999998
#
# number of rings (size 3 to 8) (size 9 to 14) (size 15 to 20)
#    0.000    2.067    4.000    2.800    0.000    3.733 
#    1.200    1.000    0.000    1.600    0.000    0.933 
#    0.000    0.000    0.000    0.000    0.000    0.000 
#
# Total GULP energy -334041.453576 kJ/mol
# GULP energy per Si atom -5567.357560 kJ/mol
# Density = 1.655915 g / cm^3
# Si number density = 16.596921 Si / 1000 Ang^3
#
#
#
# Elastic Constant Matrix: (Units=GPa)
#
#
# Indices 1 2 3 4 5 6 
#
# 1 61.4600 34.3869 30.3187 0.0000 0.0000 0.0000
# 2 34.3869 90.7697 41.7981 0.0000 0.0000 0.0000
# 3 30.3187 41.7981 98.9904 0.0000 0.0000 0.0000
# 4 0.0000 0.0000 0.0000 13.9391 0.0000 0.0000
# 5 0.0000 0.0000 0.0000 0.0000 25.8281 0.0000
# 6 0.0000 0.0000 0.0000 0.0000 0.0000 24.0195
#
#
#
# Elastic Compliance Matrix: (Units=1/GPa)
#
#
# Indices 1 2 3 4 5 6 
#
# 1 0.021833 -0.006445 -0.003966 0.000000 0.000000 0.000000
# 2 -0.006445 0.015579 -0.004604 0.000000 0.000000 0.000000
# 3 -0.003966 -0.004604 0.013261 0.000000 0.000000 0.000000
# 4 0.000000 0.000000 0.000000 0.071741 0.000000 0.000000
# 5 0.000000 0.000000 0.000000 0.000000 0.038717 0.000000
# 6 0.000000 0.000000 0.000000 0.000000 0.000000 0.041633
#
#
# Mechanical properties :
#
#
# Convention : Reuss Voigt Hill
#
# Bulk Modulus (GPa) = 48.44281 51.58083 50.01182
# Shear Modulus (GPa) = 20.86172 22.40510 21.63341
#
# Velocity S-wave (km/s) = 3.54921 3.67816 3.61426
# Velocity P-wave (km/s) = 6.78580 7.01317 6.90042
#
# Compressibility (1/GPa) = 0.02064290
#
# Stress axis : x y z
#
# Youngs Moduli (GPa) = 45.80220 64.19072 75.41157
#
# Poissons Ratio (x) = 0.41371 0.29905
# Poissons Ratio (y) = 0.29520 0.34719
# Poissons Ratio (z) = 0.18163 0.29553
#
# Static dielectric constant tensor:
#      x y z
#    x 1.570230 0.000000 0.000000 
#    y 0.000000 1.610550 0.000000 
#    z 0.000000 0.000000 1.569650 
# 
# From -- ./inp_files/38560.got.cif
#   From: 2010.05.17/outbox.cif.g08.bks.cpg/sg71_20_cif.got.tgz:38560.got - 2010.06.03 16:22:01.
