data_PCOD9524322
_publ_section_title
;
Structure prediction by ZEFSAII (Michael W. Deem and Ramdas Pophale) SiO2 
 PCOD9524322
Probable space group: I M M M
;
_chemical_formula_sum "Si O2"
_cell_formula_units_Z 64
_cell_length_a 36.264068
_cell_length_b 8.486533
_cell_length_c 10.515289
_cell_angle_alpha 90.000000
_cell_angle_beta 90.000000
_cell_angle_gamma 90.000000
_cell_volume 3236.145488
_symmetry_space_group_name_H-M "I M M M"
_symmetry_group_IT_number 71
_symmetry_cell_setting 'orthorhombic'
loop_
_space_group_symop_operation_xyz
x,y,z
-x,-y,z
x,-y,-z
-x,y,-z
-x,-y,-z
x,y,-z
-x,y,z
x,-y,z
1/2+x,1/2+y,1/2+z
1/2-x,1/2-y,1/2+z
1/2+x,1/2-y,1/2-z
1/2-x,1/2+y,1/2-z
1/2-x,1/2-y,1/2-z
1/2+x,1/2+y,1/2-z
1/2-x,1/2+y,1/2+z
1/2+x,1/2-y,1/2+z
loop_
_atom_site_type_symbol
_atom_site_label
_atom_site_fract_x
_atom_site_fract_y
_atom_site_fract_z
Si Si1 0.795042 0.813652 0.500000
Si Si2 0.542373 0.308131 0.000000
Si Si3 0.713191 0.314581 0.500000
Si Si4 0.585957 0.310564 0.253444
Si Si5 0.043306 0.689131 0.000000
Si Si6 0.330895 0.186967 0.258664
O O1 0.751547 0.778918 0.500000
O O2 0.812794 0.739489 0.626055
O O3 0.802003 0.000000 0.500000
O O4 0.564246 0.259997 0.126288
O O5 0.541479 0.500000 0.000000
O O6 0.500000 0.253273 0.000000
O O7 0.721432 0.500000 0.500000
O O8 0.689908 0.270221 0.624694
O O9 0.589562 0.500000 0.251661
O O10 0.562860 0.258523 0.375809
O O11 0.626407 0.236198 0.258195
O O12 0.047125 0.500000 0.000000
O O13 0.000000 0.728618 0.000000
O O14 0.327451 0.000000 0.274266
#
# Coordination Sequence:
#
# PCOD9524322 Si02
#       6
#     8   8   8  16   8  16
#     4  12  25  44  67  95 128 165 209 256 309 370
#     4   9  19  36  60  90 121 153 196 251 306 361
#     4  12  25  44  67  94 126 164 209 258 313 372
#     4  11  22  39  64  92 122 160 206 257 312 371
#     4  11  24  41  60  87 125 166 208 257 312 371
#     4  12  25  43  65  93 128 167 209 257 313 372
#
# _framework density 19.776616000000001
#
# number of rings (size 3 to 8) (size 9 to 14) (size 15 to 20)
#    0.000    0.750    0.000    8.625    0.000    3.000 
#    0.000    1.875    0.000    4.500    0.000    0.000 
#    0.000    0.000    0.000    0.000    0.000    0.000 
#
# Total GULP energy -179200.913890 kJ/mol
# GULP energy per Si atom -5600.028559 kJ/mol
# Density = 1.973160 g / cm^3
# Si number density = 19.776616 Si / 1000 Ang^3
#
#
#
# Elastic Constant Matrix: (Units=GPa)
#
#
# Indices 1 2 3 4 5 6 
#
# 1 105.0977 -22.0577 38.5022 0.0000 0.0000 0.0000
# 2 -22.0577 47.6677 -10.6431 0.0000 0.0000 0.0000
# 3 38.5022 -10.6431 157.2480 0.0000 0.0000 0.0000
# 4 0.0000 0.0000 0.0000 32.1141 0.0000 0.0000
# 5 0.0000 0.0000 0.0000 0.0000 44.7614 0.0000
# 6 0.0000 0.0000 0.0000 0.0000 0.0000 62.2476
#
#
#
# Elastic Compliance Matrix: (Units=1/GPa)
#
#
# Indices 1 2 3 4 5 6 
#
# 1 0.011414 0.004729 -0.002475 0.000000 0.000000 0.000000
# 2 0.004729 0.023260 0.000416 0.000000 0.000000 0.000000
# 3 -0.002475 0.000416 0.006993 0.000000 0.000000 0.000000
# 4 0.000000 0.000000 0.000000 0.031139 0.000000 0.000000
# 5 0.000000 0.000000 0.000000 0.000000 0.022341 0.000000
# 6 0.000000 0.000000 0.000000 0.000000 0.000000 0.016065
#
#
# Mechanical properties :
#
#
# Convention : Reuss Voigt Hill
#
# Bulk Modulus (GPa) = 21.27239 35.73516 28.50377
# Shear Modulus (GPa) = 41.13872 48.10540 44.62206
#
# Velocity S-wave (km/s) = 4.56584 4.93733 4.75521
# Velocity P-wave (km/s) = 6.21092 7.11418 6.67784
#
# Compressibility (1/GPa) = 0.04700929
#
# Stress axis : x y z
#
# Youngs Moduli (GPa) = 87.61099 42.99244 142.99028
#
# Poissons Ratio (x) = -0.20332 0.35385
# Poissons Ratio (y) = -0.41433 -0.05954
# Poissons Ratio (z) = 0.21681 -0.01790
#
# Static dielectric constant tensor:
#      x y z
#    x 1.653580 0.000000 0.000000 
#    y 0.000000 1.669650 0.000000 
#    z 0.000000 0.000000 1.654040 
# 
# From -- ./inp_files/29506.got.cif
#   From: 2010.05.17/outbox.cif.g08.bks.cpg/sg71_15_cif.got.tgz:29506.got - 2010.06.03 16:22:01.
