data_PCOD9524919
_publ_section_title
;
Structure prediction by ZEFSAII (Michael W. Deem and Ramdas Pophale) SiO2 
 PCOD9524919
Probable space group: I B A M
;
_chemical_formula_sum "Si O2"
_cell_formula_units_Z 72
_cell_length_a 8.555421
_cell_length_b 14.835693
_cell_length_c 22.492268
_cell_angle_alpha 90.000000
_cell_angle_beta 90.000000
_cell_angle_gamma 90.000000
_cell_volume 2854.844599
_symmetry_space_group_name_H-M "I B A M"
_symmetry_group_IT_number 72
_symmetry_cell_setting 'orthorhombic'
loop_
_space_group_symop_operation_xyz
x,y,z
-x,-y,z
x,-y,1/2-z
-x,y,1/2-z
-x,-y,-z
x,y,-z
-x,y,1/2+z
x,-y,1/2+z
1/2+x,1/2+y,1/2+z
1/2-x,1/2-y,1/2+z
1/2+x,1/2-y,-z
1/2-x,1/2+y,-z
1/2-x,1/2-y,1/2-z
1/2+x,1/2+y,1/2-z
1/2-x,1/2+y,z
1/2+x,1/2-y,z
loop_
_atom_site_type_symbol
_atom_site_label
_atom_site_fract_x
_atom_site_fract_y
_atom_site_fract_z
Si Si1 0.728630 0.539731 0.403897
Si Si2 0.000000 0.500000 0.750000
Si Si3 0.000000 0.500000 0.500000
Si Si4 0.265315 0.262788 0.000000
Si Si5 0.512911 0.375444 0.000000
Si Si6 0.375450 0.206338 0.132310
Si Si7 0.202822 0.630643 0.333218
O O1 0.876124 0.532317 0.448182
O O2 0.587603 0.577434 0.443225
O O3 0.776772 0.615688 0.355942
O O4 0.711841 0.443585 0.373614
O O5 0.113738 0.568679 0.714530
O O6 0.325510 0.366283 0.000000
O O7 0.329295 0.231236 0.935725
O O8 0.090358 0.225075 0.000000
O O9 0.325513 0.288021 0.175388
O O10 0.557131 0.181860 0.135377
#
# Coordination Sequence:
#
# PCOD9524919 Si02
#       7
#    16   4   4   8   8  16  16
#     4  10  19  37  60  97 136 185 227 275 339 430
#     4  12  26  52  80  92 130 196 254 306 380 410
#     4  10  14  30  62  84 140 186 232 240 326 424
#     4  10  20  37  60 112 147 189 224 274 348 447
#     4   9  20  33  64  93 148 193 235 265 348 425
#     4  11  22  40  69 106 142 182 233 283 356 432
#     4  12  25  45  72  99 133 180 243 300 352 425
#
# _framework density 25.220285000000001
#
# number of rings (size 3 to 8) (size 9 to 14) (size 15 to 20)
#    0.000    1.333    4.444    3.333    0.000    2.667 
#    0.000    5.556    0.000    1.333    0.000    0.000 
#    0.000    0.000    0.000    0.000    0.000    0.000 
#
# Total GULP energy -200694.401555 kJ/mol
# GULP energy per Si atom -5574.844488 kJ/mol
# Density = 2.516288 g / cm^3
# Si number density = 25.220285 Si / 1000 Ang^3
#
#
#
# Elastic Constant Matrix: (Units=GPa)
#
#
# Indices 1 2 3 4 5 6 
#
# 1 86.3455 74.0616 27.0822 0.0000 0.0000 0.0000
# 2 74.0616 177.5141 27.7362 0.0000 0.0000 0.0000
# 3 27.0822 27.7362 68.7939 0.0000 0.0000 0.0000
# 4 0.0000 0.0000 0.0000 26.9009 0.0000 0.0000
# 5 0.0000 0.0000 0.0000 0.0000 30.2461 0.0000
# 6 0.0000 0.0000 0.0000 0.0000 0.0000 56.5079
#
#
#
# Elastic Compliance Matrix: (Units=1/GPa)
#
#
# Indices 1 2 3 4 5 6 
#
# 1 0.019337 -0.007341 -0.004653 0.000000 0.000000 0.000000
# 2 -0.007341 0.008799 -0.000658 0.000000 0.000000 0.000000
# 3 -0.004653 -0.000658 0.016633 0.000000 0.000000 0.000000
# 4 0.000000 0.000000 0.000000 0.037173 0.000000 0.000000
# 5 0.000000 0.000000 0.000000 0.000000 0.033062 0.000000
# 6 0.000000 0.000000 0.000000 0.000000 0.000000 0.017697
#
#
# Mechanical properties :
#
#
# Convention : Reuss Voigt Hill
#
# Bulk Modulus (GPa) = 51.37038 65.60151 58.48595
# Shear Modulus (GPa) = 30.39653 36.31590 33.35621
#
# Velocity S-wave (km/s) = 3.47543 3.79878 3.64069
# Velocity P-wave (km/s) = 6.04298 6.73119 6.39635
#
# Compressibility (1/GPa) = 0.01946647
#
# Stress axis : x y z
#
# Youngs Moduli (GPa) = 51.71386 113.65205 60.12141
#
# Poissons Ratio (x) = 0.83429 0.27974
# Poissons Ratio (y) = 0.37962 0.03954
# Poissons Ratio (z) = 0.24062 0.07474
#
# Static dielectric constant tensor:
#      x y z
#    x 1.965850 0.000000 0.000000 
#    y 0.000000 2.136140 0.000000 
#    z 0.000000 0.000000 1.997900 
# 
# From -- ./inp_files/47078.got.cif
#   From: 2010.05.17/outbox.cif.g08.bks.cpg/sg72_24_cif.got.tgz:47078.got - 2010.06.03 17:03:01.
