data_PCOD9524078
_publ_section_title
;
Structure prediction by ZEFSAII (Michael W. Deem and Ramdas Pophale) SiO2 
 PCOD9524078
Probable space group: I M M M
;
_chemical_formula_sum "Si O2"
_cell_formula_units_Z 64
_cell_length_a 10.245601
_cell_length_b 18.942369
_cell_length_c 19.983440
_cell_angle_alpha 90.000000
_cell_angle_beta 90.000000
_cell_angle_gamma 90.000000
_cell_volume 3878.305198
_symmetry_space_group_name_H-M "I M M M"
_symmetry_group_IT_number 71
_symmetry_cell_setting 'orthorhombic'
loop_
_space_group_symop_operation_xyz
x,y,z
-x,-y,z
x,-y,-z
-x,y,-z
-x,-y,-z
x,y,-z
-x,y,z
x,-y,z
1/2+x,1/2+y,1/2+z
1/2-x,1/2-y,1/2+z
1/2+x,1/2-y,1/2-z
1/2-x,1/2+y,1/2-z
1/2-x,1/2-y,1/2-z
1/2+x,1/2+y,1/2-z
1/2-x,1/2+y,1/2+z
1/2+x,1/2-y,1/2+z
loop_
_atom_site_type_symbol
_atom_site_label
_atom_site_fract_x
_atom_site_fract_y
_atom_site_fract_z
Si Si1 0.500000 0.500000 0.150006
Si Si2 0.744504 0.211535 0.356839
Si Si3 0.000000 0.365824 0.920456
Si Si4 0.658073 0.651486 0.715640
Si Si5 0.769237 0.000000 0.758013
Si Si6 0.500000 0.652863 0.921374
Si Si7 0.500000 0.000000 0.677317
O O1 0.373320 0.500000 0.197142
O O2 0.500000 0.426348 0.109826
O O3 0.626848 0.177683 0.398093
O O4 0.707673 0.291493 0.337854
O O5 0.772264 0.172726 0.285691
O O6 0.875076 0.196657 0.397467
O O7 0.000000 0.433992 0.872879
O O8 0.000000 0.380870 0.000000
O O9 0.500000 0.656140 0.723058
O O10 0.700791 0.571491 0.701857
O O11 0.627036 0.000000 0.724601
O O12 0.500000 0.644243 0.000000
#
# Coordination Sequence:
#
# PCOD9524078 Si02
#       7
#     4  16   8  16   8   8   4
#     4  12  19  38  52  84 116 160 197 212 258 350
#     4  11  22  36  56  83 107 151 193 236 280 330
#     4  12  23  38  53  76 118 160 192 223 269 330
#     4  11  20  36  60  80 112 145 188 241 291 338
#     4  12  20  34  59  82 117 148 183 232 293 339
#     4  12  23  38  57  82 118 158 196 227 267 330
#     4  12  23  34  48  88 116 152 189 222 266 346
#
# _framework density 16.502053
#
# number of rings (size 3 to 8) (size 9 to 14) (size 15 to 20)
#    0.000    0.500    8.750    1.125    0.000    1.000 
#    0.000    3.750    0.000    0.000    0.000    5.250 
#    0.000    0.000    0.000    0.000    0.000    0.000 
#
# Total GULP energy -178663.741089 kJ/mol
# GULP energy per Si atom -5583.241909 kJ/mol
# Density = 1.646449 g / cm^3
# Si number density = 16.502053 Si / 1000 Ang^3
#
#
#
# Elastic Constant Matrix: (Units=GPa)
#
#
# Indices 1 2 3 4 5 6 
#
# 1 151.6173 47.6699 27.7849 0.0000 0.0000 0.0000
# 2 47.6699 143.0725 25.3322 0.0000 0.0000 0.0000
# 3 27.7849 25.3322 32.9253 0.0000 0.0000 0.0000
# 4 0.0000 0.0000 0.0000 12.6089 0.0000 0.0000
# 5 0.0000 0.0000 0.0000 0.0000 77.7812 0.0000
# 6 0.0000 0.0000 0.0000 0.0000 0.0000 114.8510
#
#
#
# Elastic Compliance Matrix: (Units=1/GPa)
#
#
# Indices 1 2 3 4 5 6 
#
# 1 0.008158 -0.001736 -0.005549 0.000000 0.000000 0.000000
# 2 -0.001736 0.008461 -0.005045 0.000000 0.000000 0.000000
# 3 -0.005549 -0.005045 0.038936 0.000000 0.000000 0.000000
# 4 0.000000 0.000000 0.000000 0.079309 0.000000 0.000000
# 5 0.000000 0.000000 0.000000 0.000000 0.012857 0.000000
# 6 0.000000 0.000000 0.000000 0.000000 0.000000 0.008707
#
#
# Mechanical properties :
#
#
# Convention : Reuss Voigt Hill
#
# Bulk Modulus (GPa) = 32.36703 58.79877 45.58290
# Shear Modulus (GPa) = 26.12518 56.17010 41.14764
#
# Velocity S-wave (km/s) = 3.98319 5.84056 4.99890
# Velocity P-wave (km/s) = 6.38835 9.01063 7.81033
#
# Compressibility (1/GPa) = 0.03089563
#
# Stress axis : x y z
#
# Youngs Moduli (GPa) = 122.57649 118.18871 25.68310
#
# Poissons Ratio (x) = 0.20514 0.14252
# Poissons Ratio (y) = 0.21275 0.12957
# Poissons Ratio (z) = 0.68019 0.59627
#
# Static dielectric constant tensor:
#      x y z
#    x 1.551430 0.000000 0.000000 
#    y 0.000000 1.577680 0.000000 
#    z 0.000000 0.000000 1.517740 
# 
# From -- ./inp_files/50184.got.cif
#   From: 2010.05.17/outbox.cif.g08.bks.cpg/sg71_26_cif.got.tgz:50184.got - 2010.06.03 16:22:01.
