data_PCOD9524849
_publ_section_title
;
Structure prediction by ZEFSAII (Michael W. Deem and Ramdas Pophale) SiO2 
 PCOD9524849
Probable space group: I M M M
;
_chemical_formula_sum "Si O2"
_cell_formula_units_Z 52
_cell_length_a 12.000000
_cell_length_b 18.000000
_cell_length_c 27.000000
_cell_angle_alpha 90.000000
_cell_angle_beta 90.000000
_cell_angle_gamma 90.000000
_cell_volume 5832.000000
_symmetry_space_group_name_H-M "I M M M"
_symmetry_group_IT_number 71
_symmetry_cell_setting 'orthorhombic'
loop_
_space_group_symop_operation_xyz
x,y,z
-x,-y,z
x,-y,-z
-x,y,-z
-x,-y,-z
x,y,-z
-x,y,z
x,-y,z
1/2+x,1/2+y,1/2+z
1/2-x,1/2-y,1/2+z
1/2+x,1/2-y,1/2-z
1/2-x,1/2+y,1/2-z
1/2-x,1/2-y,1/2-z
1/2+x,1/2+y,1/2-z
1/2-x,1/2+y,1/2+z
1/2+x,1/2-y,1/2+z
loop_
_atom_site_type_symbol
_atom_site_label
_atom_site_fract_x
_atom_site_fract_y
_atom_site_fract_z
Si Si1 0.876747 0.500000 0.559350
Si Si2 0.500000 0.410958 0.923994
Si Si3 0.130390 0.336017 0.156378
Si Si4 0.372411 0.340654 0.337370
Si Si5 0.736096 0.351612 0.441788
Si Si6 0.271341 0.589891 0.243071
Si Si7 0.000000 0.087869 0.305782
Si Si8 0.273744 0.321867 0.056326
O O1 0.886297 0.500000 0.500000
O O2 0.814617 0.577661 0.569730
O O3 0.000000 0.500000 0.581793
O O4 0.500000 0.500000 0.936132
O O5 0.500000 0.403857 0.864499
O O6 0.611106 0.368106 0.941554
O O7 0.137062 0.248209 0.168906
O O8 0.179685 0.379775 0.204024
O O9 0.198600 0.345833 0.104161
O O10 0.000000 0.354654 0.148645
O O11 0.500000 0.364304 0.325937
O O12 0.350414 0.354103 0.396028
O O13 0.285554 0.379667 0.299410
O O14 0.698132 0.359444 0.500000
O O15 0.789114 0.268221 0.438974
O O16 0.264848 0.500000 0.244391
O O17 0.386966 0.617048 0.217760
O O18 0.000000 0.000000 0.295148
O O19 0.226286 0.333179 0.000000
#
# Coordination Sequence:
#
# PCOD9524849 Si02
#       8
#     8   8  16  16  16  16   8  16
#     4   9  18  34  55  75 107 155 198 234 278 333
#     4  11  21  36  59  89 120 149 190 245 295 336
#     4  10  22  40  59  83 116 154 191 231 285 344
#     4  10  21  37  60  86 114 149 190 236 285 344
#     4   9  20  37  56  84 118 154 193 235 284 344
#     4  11  21  37  60  84 112 146 192 238 287 341
#     4   9  18  33  56  83 106 146 187 229 284 341
#     4  10  21  36  58  87 119 153 193 238 287 344
#
# _framework density 8.9163239999999995
#
# number of rings (size 3 to 8) (size 9 to 14) (size 15 to 20)
#    0.000    2.077    2.308    0.692    2.154    1.538 
#    0.000    3.846    0.000    1.385    0.000    2.154 
#    0.000    0.000    0.000    0.000    0.000    0.000 
#
# Total GULP energy -289507.426927 kJ/mol
# GULP energy per Si atom -5567.450518 kJ/mol
# Density = 0.889603 g / cm^3
# Si number density = 8.916324 Si / 1000 Ang^3
#
#
#
# Elastic Constant Matrix: (Units=GPa)
#
#
# Indices 1 2 3 4 5 6 
#
# 1 96.6868 42.7096 50.5973 0.0000 0.0000 0.0000
# 2 42.7096 78.7883 44.0263 0.0000 0.0000 0.0000
# 3 50.5973 44.0263 130.0229 0.0000 0.0000 0.0000
# 4 0.0000 0.0000 0.0000 30.0424 0.0000 0.0000
# 5 0.0000 0.0000 0.0000 0.0000 24.4495 0.0000
# 6 0.0000 0.0000 0.0000 0.0000 0.0000 19.0328
#
#
#
# Elastic Compliance Matrix: (Units=1/GPa)
#
#
# Indices 1 2 3 4 5 6 
#
# 1 0.014980 -0.005998 -0.003798 0.000000 0.000000 0.000000
# 2 -0.005998 0.018056 -0.003780 0.000000 0.000000 0.000000
# 3 -0.003798 -0.003780 0.010449 0.000000 0.000000 0.000000
# 4 0.000000 0.000000 0.000000 0.033286 0.000000 0.000000
# 5 0.000000 0.000000 0.000000 0.000000 0.040901 0.000000
# 6 0.000000 0.000000 0.000000 0.000000 0.000000 0.052541
#
#
# Mechanical properties :
#
#
# Convention : Reuss Voigt Hill
#
# Bulk Modulus (GPa) = 61.22744 64.46271 62.84507
# Shear Modulus (GPa) = 24.65388 25.91594 25.28491
#
# Velocity S-wave (km/s) = 3.72225 3.81633 3.76959
# Velocity P-wave (km/s) = 7.27204 7.45965 7.36644
#
# Compressibility (1/GPa) = 0.01633255
#
# Stress axis : x y z
#
# Youngs Moduli (GPa) = 66.75654 55.38458 95.70384
#
# Poissons Ratio (x) = 0.33218 0.36352
# Poissons Ratio (y) = 0.40039 0.36173
# Poissons Ratio (z) = 0.25357 0.20934
#
# Static dielectric constant tensor:
#      x y z
#    x 1.626980 0.000000 0.000000 
#    y 0.000000 1.600870 0.000000 
#    z 0.000000 0.000000 1.626810 
# 
# From -- ./inp_files/64675.got.cif
#   From: 2010.05.17/outbox.ucp.g08.bks.cvg/sg71_33_cif.got.tgz:64675.got - 2010.06.11 16:29:00.
