data_PCOD9524933
_publ_section_title
;
Structure prediction by ZEFSAII (Michael W. Deem and Ramdas Pophale) SiO2 
 PCOD9524933
Probable space group: I B A M
;
_chemical_formula_sum "Si O2"
_cell_formula_units_Z 84
_cell_length_a 6.799396
_cell_length_b 25.453097
_cell_length_c 22.014890
_cell_angle_alpha 90.000000
_cell_angle_beta 90.000000
_cell_angle_gamma 90.000000
_cell_volume 3810.022039
_symmetry_space_group_name_H-M "I B A M"
_symmetry_group_IT_number 72
_symmetry_cell_setting 'orthorhombic'
loop_
_space_group_symop_operation_xyz
x,y,z
-x,-y,z
x,-y,1/2-z
-x,y,1/2-z
-x,-y,-z
x,y,-z
-x,y,1/2+z
x,-y,1/2+z
1/2+x,1/2+y,1/2+z
1/2-x,1/2-y,1/2+z
1/2+x,1/2-y,-z
1/2-x,1/2+y,-z
1/2-x,1/2-y,1/2-z
1/2+x,1/2+y,1/2-z
1/2-x,1/2+y,z
1/2+x,1/2-y,z
loop_
_atom_site_type_symbol
_atom_site_label
_atom_site_fract_x
_atom_site_fract_y
_atom_site_fract_z
Si Si1 0.761702 0.509859 0.431033
Si Si2 0.000000 0.500000 0.750000
Si Si3 0.120076 0.377565 0.572147
Si Si4 0.656221 0.204418 0.668921
Si Si5 0.707568 0.318500 0.297400
Si Si6 0.228589 0.575457 0.654529
O O1 0.711753 0.497368 0.500000
O O2 0.740447 0.571710 0.420097
O O3 0.668003 0.468416 0.385910
O O4 0.000000 0.500000 0.425752
O O5 0.121272 0.540303 0.706672
O O6 0.088582 0.369868 0.500000
O O7 0.200456 0.326697 0.607408
O O8 0.922206 0.395935 0.607338
O O9 0.639506 0.267305 0.665306
O O10 0.803966 0.191636 0.724830
O O11 0.443263 0.184026 0.689982
O O12 0.649143 0.376978 0.316544
#
# Coordination Sequence:
#
# PCOD9524933 Si02
#       6
#    16   4  16  16  16  16
#     4   8  13  22  35  54  83 112 134 170 224 270
#     4  12  16  20  38  64  96 118 144 186 234 294
#     4   9  15  26  41  59  89 120 148 177 221 275
#     4   9  17  31  43  65  85 122 149 188 219 269
#     4   9  18  29  47  62  94 113 154 182 229 263
#     4  10  16  23  37  64  89 116 141 186 231 268
#
# _framework density 22.047117
#
# number of rings (size 3 to 8) (size 9 to 14) (size 15 to 20)
#    0.000    2.857    2.857    4.000    0.000    0.000 
#    0.000    4.762    0.000    0.000    0.000    1.333 
#    0.000    3.048    0.000    0.000    0.000    0.000 
#
# Total GULP energy -234080.721394 kJ/mol
# GULP energy per Si atom -5573.350509 kJ/mol
# Density = 2.199694 g / cm^3
# Si number density = 22.047117 Si / 1000 Ang^3
#
#
#
# Elastic Constant Matrix: (Units=GPa)
#
#
# Indices 1 2 3 4 5 6 
#
# 1 40.9285 16.9146 18.1574 0.0000 0.0000 0.0000
# 2 16.9146 215.6527 121.2887 -0.0001 0.0000 0.0000
# 3 18.1574 121.2887 149.5475 -0.0003 0.0000 0.0000
# 4 0.0000 -0.0001 -0.0003 -248.8378 0.0000 0.0000
# 5 0.0000 0.0000 0.0000 0.0000 -5.2491 0.0000
# 6 0.0000 0.0000 0.0000 0.0000 0.0000 33.5751
#
#
#
# Elastic Compliance Matrix: (Units=1/GPa)
#
#
# Indices 1 2 3 4 5 6 
#
# 1 0.025851 -0.000482 -0.002748 0.000000 0.000000 0.000000
# 2 -0.000482 0.008535 -0.006864 0.000000 0.000000 0.000000
# 3 -0.002748 -0.006864 0.012587 0.000000 0.000000 0.000000
# 4 0.000000 0.000000 0.000000 -0.004019 0.000000 0.000000
# 5 0.000000 0.000000 0.000000 0.000000 -0.190509 0.000000
# 6 0.000000 0.000000 0.000000 0.000000 0.000000 0.029784
#
#
# Mechanical properties :
#
#
# Convention : Reuss Voigt Hill
#
# Bulk Modulus (GPa) = 37.33269 79.87223 58.60246
# Shear Modulus (GPa) = -56.39938 -27.45115 -41.92527
#
# Velocity S-wave (km/s) = -5.06328 -3.53244 -4.36549
# Velocity P-wave (km/s) = 4.14880 4.43498 1.10827
#
# Compressibility (1/GPa) = 0.02678617
#
# Stress axis : x y z
#
# Youngs Moduli (GPa) = 38.68311 117.15933 79.44480
#
# Poissons Ratio (x) = 0.05651 0.21828
# Poissons Ratio (y) = 0.01866 0.54531
# Poissons Ratio (z) = 0.10628 0.80418
#
# Static dielectric constant tensor:
#      x y z
#    x 1.966480 0.000000 0.000000 
#    y 0.000000 1.824810 0.000000 
#    z 0.000000 0.000000 1.804070 
# 
# From -- ./inp_files/37047.got.cif
#   From: 2010.05.17/outbox.cif.g08.bks.cpg/sg72_19_cif.got.tgz:37047.got - 2010.06.03 17:03:01.
