data_PCOD9524043
_publ_section_title
;
Structure prediction by ZEFSAII (Michael W. Deem and Ramdas Pophale) SiO2 
 PCOD9524043
Probable space group: I M M M
;
_chemical_formula_sum "Si O2"
_cell_formula_units_Z 56
_cell_length_a 8.886383
_cell_length_b 23.653715
_cell_length_c 13.866622
_cell_angle_alpha 90.000000
_cell_angle_beta 90.000000
_cell_angle_gamma 90.000000
_cell_volume 2914.708074
_symmetry_space_group_name_H-M "I M M M"
_symmetry_group_IT_number 71
_symmetry_cell_setting 'orthorhombic'
loop_
_space_group_symop_operation_xyz
x,y,z
-x,-y,z
x,-y,-z
-x,y,-z
-x,-y,-z
x,y,-z
-x,y,z
x,-y,z
1/2+x,1/2+y,1/2+z
1/2-x,1/2-y,1/2+z
1/2+x,1/2-y,1/2-z
1/2-x,1/2+y,1/2-z
1/2-x,1/2-y,1/2-z
1/2+x,1/2+y,1/2-z
1/2-x,1/2+y,1/2+z
1/2+x,1/2-y,1/2+z
loop_
_atom_site_type_symbol
_atom_site_label
_atom_site_fract_x
_atom_site_fract_y
_atom_site_fract_z
Si Si1 0.316998 0.865854 0.894381
Si Si2 0.825395 0.067492 0.500000
Si Si3 0.179157 0.375516 0.185891
Si Si4 0.674613 0.266498 0.887450
O O1 0.500000 0.868687 0.895981
O O2 0.268179 0.893304 0.793447
O O3 0.279819 0.799102 0.886426
O O4 0.264250 0.886367 0.000000
O O5 0.751195 0.091273 0.402759
O O6 0.000000 0.084249 0.500000
O O7 0.813666 0.000000 0.500000
O O8 0.223662 0.309839 0.170679
O O9 0.000000 0.381330 0.181175
O O10 0.500000 0.270533 0.856138
O O11 0.680743 0.283913 0.000000
#
# Coordination Sequence:
#
# PCOD9524043 Si02
#       4
#    16   8  16  16
#     4   8  16  30  48  75 111 147 175 200 242 303
#     4  11  25  43  59  73  95 133 177 221 276 331
#     4  11  20  31  53  80 105 132 170 222 264 300
#     4   9  16  28  47  71 107 150 179 200 239 302
#
# _framework density 19.212900999999999
#
# number of rings (size 3 to 8) (size 9 to 14) (size 15 to 20)
#    0.000    2.429    1.429    3.857    0.000    1.143 
#    0.000    1.429    0.000    6.000    0.000    6.000 
#    0.000    0.000    0.000    0.000    0.000    0.000 
#
# Total GULP energy -156087.604049 kJ/mol
# GULP energy per Si atom -5574.557287 kJ/mol
# Density = 1.916917 g / cm^3
# Si number density = 19.212901 Si / 1000 Ang^3
#
#
#
# Elastic Constant Matrix: (Units=GPa)
#
#
# Indices 1 2 3 4 5 6 
#
# 1 51.1148 14.4059 52.3001 0.0000 0.0000 0.0000
# 2 14.4059 16.0473 34.7486 0.0000 0.0000 0.0000
# 3 52.3001 34.7486 215.8596 0.0000 0.0000 0.0000
# 4 0.0000 0.0000 0.0000 9.7981 0.0000 0.0000
# 5 0.0000 0.0000 0.0000 0.0000 13.1380 0.0000
# 6 0.0000 0.0000 0.0000 0.0000 0.0000 11.5633
#
#
#
# Elastic Compliance Matrix: (Units=1/GPa)
#
#
# Indices 1 2 3 4 5 6 
#
# 1 0.028560 -0.016356 -0.004287 0.000000 0.000000 0.000000
# 2 -0.016356 0.105028 -0.012944 0.000000 0.000000 0.000000
# 3 -0.004287 -0.012944 0.007755 0.000000 0.000000 0.000000
# 4 0.000000 0.000000 0.000000 0.102061 0.000000 0.000000
# 5 0.000000 0.000000 0.000000 0.000000 0.076115 0.000000
# 6 0.000000 0.000000 0.000000 0.000000 0.000000 0.086480
#
#
# Mechanical properties :
#
#
# Convention : Reuss Voigt Hill
#
# Bulk Modulus (GPa) = 13.48276 53.99231 33.73753
# Shear Modulus (GPa) = 10.04225 19.00436 14.52330
#
# Velocity S-wave (km/s) = 2.28871 3.14848 2.75237
# Velocity P-wave (km/s) = 3.74393 6.43276 5.26295
#
# Compressibility (1/GPa) = 0.07416880
#
# Stress axis : x y z
#
# Youngs Moduli (GPa) = 35.01454 9.52123 128.94905
#
# Poissons Ratio (x) = 0.15573 0.55276
# Poissons Ratio (y) = 0.57270 1.66916
# Poissons Ratio (z) = 0.15010 0.12325
#
# Static dielectric constant tensor:
#      x y z
#    x 1.638520 0.000000 0.000000 
#    y 0.000000 1.653190 0.000000 
#    z 0.000000 0.000000 1.753440 
# 
# From -- ./inp_files/5777.got.cif
#   From: 2010.05.17/outbox.cif.g08.bks.cpg/sg71_3_cif.got.tgz:5777.got - 2010.06.03 16:22:01.
