data_PCOD9524516
_publ_section_title
;
Structure prediction by ZEFSAII (Michael W. Deem and Ramdas Pophale) SiO2 
 PCOD9524516
Probable space group: I M M M
;
_chemical_formula_sum "Si O2"
_cell_formula_units_Z 80
_cell_length_a 30.711199
_cell_length_b 15.129783
_cell_length_c 7.302868
_cell_angle_alpha 90.000000
_cell_angle_beta 90.000000
_cell_angle_gamma 90.000000
_cell_volume 3393.305196
_symmetry_space_group_name_H-M "I M M M"
_symmetry_group_IT_number 71
_symmetry_cell_setting 'orthorhombic'
loop_
_space_group_symop_operation_xyz
x,y,z
-x,-y,z
x,-y,-z
-x,y,-z
-x,-y,-z
x,y,-z
-x,y,z
x,-y,z
1/2+x,1/2+y,1/2+z
1/2-x,1/2-y,1/2+z
1/2+x,1/2-y,1/2-z
1/2-x,1/2+y,1/2-z
1/2-x,1/2-y,1/2-z
1/2+x,1/2+y,1/2-z
1/2-x,1/2+y,1/2+z
1/2+x,1/2-y,1/2+z
loop_
_atom_site_type_symbol
_atom_site_label
_atom_site_fract_x
_atom_site_fract_y
_atom_site_fract_z
Si Si1 0.358088 0.716569 0.776076
Si Si2 0.951383 0.207703 0.723344
Si Si3 0.723167 0.398984 0.220315
Si Si4 0.322745 0.099901 0.214441
Si Si5 0.052135 0.406712 0.289429
O O1 0.404015 0.669993 0.725313
O O2 0.315896 0.662470 0.714909
O O3 0.351506 0.818710 0.714886
O O4 0.357583 0.718798 0.000000
O O5 0.953334 0.207300 0.500000
O O6 0.944272 0.308944 0.786927
O O7 0.000000 0.177487 0.782689
O O8 0.717440 0.500000 0.282903
O O9 0.772138 0.371962 0.270526
O O10 0.721574 0.398919 0.000000
O O11 0.326751 0.000000 0.291552
O O12 0.332329 0.092638 0.000000
O O13 0.067902 0.403040 0.500000
O O14 0.068913 0.500000 0.210577
O O15 0.000000 0.415089 0.296612
#
# Coordination Sequence:
#
# PCOD9524516 Si02
#       5
#    16  16  16  16  16
#     4   9  16  25  38  56  79 108 138 166 199 239
#     4   8  13  20  30  46  70 101 133 161 192 232
#     4   9  17  29  44  60  80 108 139 168 199 239
#     4   9  17  28  42  62  87 109 129 161 205 246
#     4   7   9  13  21  34  54  82 116 149 177 211
#
# _framework density 23.575834
#
# number of rings (size 3 to 8) (size 9 to 14) (size 15 to 20)
#    0.000    3.600    0.000    2.400    0.000    0.800 
#    0.000    4.000    0.000    0.600    0.000    4.200 
#    0.000    3.200    0.000   10.000    0.000   10.400 
#
# Total GULP energy -222753.157687 kJ/mol
# GULP energy per Si atom -5568.828942 kJ/mol
# Density = 2.352217 g / cm^3
# Si number density = 23.575834 Si / 1000 Ang^3
#
#
#
# Elastic Constant Matrix: (Units=GPa)
#
#
# Indices 1 2 3 4 5 6 
#
# 1 237.1476 42.3394 -0.9320 0.0000 0.0000 0.0000
# 2 42.3394 23.7521 -0.3035 0.0000 0.0000 0.0000
# 3 -0.9320 -0.3035 93.6897 0.0000 0.0000 0.0000
# 4 0.0000 0.0000 0.0000 14.6650 0.0000 0.0000
# 5 0.0000 0.0000 0.0000 0.0000 -1.5210 0.0000
# 6 0.0000 0.0000 0.0000 0.0000 0.0000 2.2158
#
#
#
# Elastic Compliance Matrix: (Units=1/GPa)
#
#
# Indices 1 2 3 4 5 6 
#
# 1 0.006185 -0.011025 0.000026 0.000000 0.000000 0.000000
# 2 -0.011025 0.061756 0.000090 0.000000 0.000000 0.000000
# 3 0.000026 0.000090 0.010674 0.000000 0.000000 0.000000
# 4 0.000000 0.000000 0.000000 0.068190 0.000000 0.000000
# 5 0.000000 0.000000 0.000000 0.000000 -0.657462 0.000000
# 6 0.000000 0.000000 0.000000 0.000000 0.000000 0.451312
#
#
# Mechanical properties :
#
#
# Convention : Reuss Voigt Hill
#
# Bulk Modulus (GPa) = 17.60653 48.53299 33.06976
# Shear Modulus (GPa) = -268.89246 23.97098 -122.46074
#
# Velocity S-wave (km/s) = -10.69121 3.19213 -7.21499
# Velocity P-wave (km/s) = 12.03820 5.84952 7.43981
#
# Compressibility (1/GPa) = 0.05679710
#
# Stress axis : x y z
#
# Youngs Moduli (GPa) = 161.67370 16.19277 93.68486
#
# Poissons Ratio (x) = 0.17853 -0.00242
# Poissons Ratio (y) = 1.78250 -0.00847
# Poissons Ratio (z) = -0.00417 -0.00146
#
# Static dielectric constant tensor:
#      x y z
#    x 1.928610 0.000000 0.000000 
#    y 0.000000 1.915220 0.000000 
#    z 0.000000 0.000000 1.875500 
# 
# From -- ./inp_files/14519.got.cif
#   From: 2010.05.17/outbox.cif.g08.bks.cpg/sg71_8_cif.got.tgz:14519.got - 2010.06.03 16:22:01.
