data_PCOD9524093
_publ_section_title
;
Structure prediction by ZEFSAII (Michael W. Deem and Ramdas Pophale) SiO2 
 PCOD9524093
Probable space group: I M M M
;
_chemical_formula_sum "Si O2"
_cell_formula_units_Z 88
_cell_length_a 9.121784
_cell_length_b 33.242893
_cell_length_c 19.744520
_cell_angle_alpha 90.000000
_cell_angle_beta 90.000000
_cell_angle_gamma 90.000000
_cell_volume 5987.219442
_symmetry_space_group_name_H-M "I M M M"
_symmetry_group_IT_number 71
_symmetry_cell_setting 'orthorhombic'
loop_
_space_group_symop_operation_xyz
x,y,z
-x,-y,z
x,-y,-z
-x,y,-z
-x,-y,-z
x,y,-z
-x,y,z
x,-y,z
1/2+x,1/2+y,1/2+z
1/2-x,1/2-y,1/2+z
1/2+x,1/2-y,1/2-z
1/2-x,1/2+y,1/2-z
1/2-x,1/2-y,1/2-z
1/2+x,1/2+y,1/2-z
1/2-x,1/2+y,1/2+z
1/2+x,1/2-y,1/2+z
loop_
_atom_site_type_symbol
_atom_site_label
_atom_site_fract_x
_atom_site_fract_y
_atom_site_fract_z
Si Si1 0.822724 0.547197 0.650442
Si Si2 0.167593 0.744802 0.354290
Si Si3 0.331959 0.811115 0.718761
Si Si4 0.333517 0.048727 0.000000
Si Si5 0.174594 0.878386 0.796998
Si Si6 0.675532 0.165353 0.076868
O O1 0.792464 0.500000 0.661826
O O2 0.769981 0.558240 0.573629
O O3 0.745552 0.577399 0.701670
O O4 0.000000 0.552133 0.651482
O O5 0.269107 0.782870 0.340316
O O6 0.171476 0.717131 0.286222
O O7 0.206496 0.712900 0.412471
O O8 0.000000 0.758154 0.363494
O O9 0.500000 0.822544 0.707177
O O10 0.235454 0.849738 0.737568
O O11 0.500000 0.064944 0.000000
O O12 0.343744 0.000000 0.000000
O O13 0.234307 0.858018 0.866438
O O14 0.000000 0.879652 0.796403
O O15 0.500000 0.159993 0.089631
O O16 0.706308 0.152799 0.000000
#
# Coordination Sequence:
#
# PCOD9524093 Si02
#       6
#    16  16  16   8  16  16
#     4   9  17  30  45  57  70  94 128 160 194 239
#     4   8  14  25  41  59  76  94 120 156 192 222
#     4   9  16  27  42  57  73  96 126 154 187 231
#     4   7  12  24  41  55  63  81 117 153 183 223
#     4  11  21  29  39  57  80 100 124 163 203 232
#     4   9  18  31  44  57  76 104 133 157 187 233
#
# _framework density 14.697975
#
# number of rings (size 3 to 8) (size 9 to 14) (size 15 to 20)
#    0.000    3.000    0.000    4.364    1.273    5.091 
#    0.000    0.000    0.000    1.636    0.000    0.000 
#    0.000    0.000    0.000    0.000    0.000    0.909 
#
# Total GULP energy -244980.311783 kJ/mol
# GULP energy per Si atom -5567.734359 kJ/mol
# Density = 1.466452 g / cm^3
# Si number density = 14.697975 Si / 1000 Ang^3
#
#
#
# Elastic Constant Matrix: (Units=GPa)
#
#
# Indices 1 2 3 4 5 6 
#
# 1 67.3616 48.3159 10.5020 0.0000 0.0000 0.0000
# 2 48.3159 86.6670 14.9529 0.0000 0.0000 0.0000
# 3 10.5020 14.9529 8.7118 0.0000 0.0000 0.0000
# 4 0.0000 0.0000 0.0000 23.9996 0.0000 0.0000
# 5 0.0000 0.0000 0.0000 0.0000 10.7823 0.0000
# 6 0.0000 0.0000 0.0000 0.0000 0.0000 22.7543
#
#
#
# Elastic Compliance Matrix: (Units=1/GPa)
#
#
# Indices 1 2 3 4 5 6 
#
# 1 0.025214 -0.012520 -0.008906 0.000000 0.000000 0.000000
# 2 -0.012520 0.022610 -0.023714 0.000000 0.000000 0.000000
# 3 -0.008906 -0.023714 0.166225 0.000000 0.000000 0.000000
# 4 0.000000 0.000000 0.000000 0.041667 0.000000 0.000000
# 5 0.000000 0.000000 0.000000 0.000000 0.092744 0.000000
# 6 0.000000 0.000000 0.000000 0.000000 0.000000 0.043948
#
#
# Mechanical properties :
#
#
# Convention : Reuss Voigt Hill
#
# Bulk Modulus (GPa) = 8.07960 34.47576 21.27768
# Shear Modulus (GPa) = 9.54300 17.43856 13.49078
#
# Velocity S-wave (km/s) = 2.55085 3.44824 3.03292
# Velocity P-wave (km/s) = 3.76627 6.27382 5.17425
#
# Compressibility (1/GPa) = 0.12376852
#
# Stress axis : x y z
#
# Youngs Moduli (GPa) = 39.66103 44.22902 6.01593
#
# Poissons Ratio (x) = 0.55374 0.05358
# Poissons Ratio (y) = 0.49655 0.14266
# Poissons Ratio (z) = 0.35321 1.04887
#
# Static dielectric constant tensor:
#      x y z
#    x 1.489530 0.000000 0.000000 
#    y 0.000000 1.522780 0.000000 
#    z 0.000000 0.000000 1.479610 
# 
# From -- ./inp_files/58155.got.cif
#   From: 2010.05.17/outbox.cif.g08.bks.cpg/sg71_30_cif.got.tgz:58155.got - 2010.06.03 16:22:01.
