data_PCOD9524492
_publ_section_title
;
Structure prediction by ZEFSAII (Michael W. Deem and Ramdas Pophale) SiO2 
 PCOD9524492
Probable space group: I M M M
;
_chemical_formula_sum "Si O2"
_cell_formula_units_Z 80
_cell_length_a 27.730712
_cell_length_b 18.846012
_cell_length_c 7.395701
_cell_angle_alpha 90.000000
_cell_angle_beta 90.000000
_cell_angle_gamma 90.000000
_cell_volume 3865.091936
_symmetry_space_group_name_H-M "I M M M"
_symmetry_group_IT_number 71
_symmetry_cell_setting 'orthorhombic'
loop_
_space_group_symop_operation_xyz
x,y,z
-x,-y,z
x,-y,-z
-x,y,-z
-x,-y,-z
x,y,-z
-x,y,z
x,-y,z
1/2+x,1/2+y,1/2+z
1/2-x,1/2-y,1/2+z
1/2+x,1/2-y,1/2-z
1/2-x,1/2+y,1/2-z
1/2-x,1/2-y,1/2-z
1/2+x,1/2+y,1/2-z
1/2-x,1/2+y,1/2+z
1/2+x,1/2-y,1/2+z
loop_
_atom_site_type_symbol
_atom_site_label
_atom_site_fract_x
_atom_site_fract_y
_atom_site_fract_z
Si Si1 0.092387 0.419134 0.785191
Si Si2 0.197934 0.418278 0.717072
Si Si3 0.000000 0.331905 0.221653
Si Si4 0.000000 0.169059 0.779089
Si Si5 0.593612 0.417569 0.721087
Si Si6 0.698835 0.586216 0.286166
O O1 0.091528 0.500000 0.711914
O O2 0.145681 0.386585 0.757942
O O3 0.048025 0.372773 0.717304
O O4 0.085845 0.424592 0.000000
O O5 0.201555 0.420852 0.500000
O O6 0.195157 0.500000 0.783579
O O7 0.249147 0.387920 0.784532
O O8 0.000000 0.250442 0.278004
O O9 0.000000 0.331989 0.000000
O O10 0.951688 0.128596 0.720600
O O11 0.000000 0.167595 0.000000
O O12 0.594552 0.416691 0.500000
O O13 0.587531 0.500000 0.773050
O O14 0.646459 0.391691 0.784815
O O15 0.698123 0.602352 0.500000
O O16 0.699808 0.500000 0.269657
#
# Coordination Sequence:
#
# PCOD9524492 Si02
#       6
#    16  16   8   8  16  16
#     4   9  16  26  40  55  72  98 130 160 189 223
#     4   8  13  22  37  57  78  97 120 153 189 222
#     4   9  17  27  36  47  67  97 130 159 190 228
#     4   9  15  21  31  48  71  99 128 157 186 218
#     4   8  12  18  30  50  75 100 124 149 180 221
#     4   7  10  17  30  49  73  98 120 144 179 222
#
# _framework density 20.698084000000001
#
# number of rings (size 3 to 8) (size 9 to 14) (size 15 to 20)
#    0.000    3.800    0.000    3.000    0.000    2.400 
#    0.000    0.500    0.000    3.600    0.000    0.000 
#    0.000    1.600    0.000    0.800    0.000   27.400 
#
# Total GULP energy -222688.038520 kJ/mol
# GULP energy per Si atom -5567.200963 kJ/mol
# Density = 2.065097 g / cm^3
# Si number density = 20.698084 Si / 1000 Ang^3
#
#
#
# Elastic Constant Matrix: (Units=GPa)
#
#
# Indices 1 2 3 4 5 6 
#
# 1 290.9048 89.9330 7.2456 0.0000 0.0000 0.0000
# 2 89.9330 62.1041 3.3648 0.0000 0.0000 0.0000
# 3 7.2456 3.3648 68.9514 0.0000 0.0000 0.0000
# 4 0.0000 0.0000 0.0000 -6.5590 0.0000 0.0000
# 5 0.0000 0.0000 0.0000 0.0000 25.5351 0.0000
# 6 0.0000 0.0000 0.0000 0.0000 0.0000 -5.2285
#
#
#
# Elastic Compliance Matrix: (Units=1/GPa)
#
#
# Indices 1 2 3 4 5 6 
#
# 1 0.006227 -0.009006 -0.000215 0.000000 0.000000 0.000000
# 2 -0.009006 0.029169 -0.000477 0.000000 0.000000 0.000000
# 3 -0.000215 -0.000477 0.014549 0.000000 0.000000 0.000000
# 4 0.000000 0.000000 0.000000 -0.152462 0.000000 0.000000
# 5 0.000000 0.000000 0.000000 0.000000 0.039162 0.000000
# 6 0.000000 0.000000 0.000000 0.000000 0.000000 -0.191261
#
#
# Mechanical properties :
#
#
# Convention : Reuss Voigt Hill
#
# Bulk Modulus (GPa) = 32.73374 69.22745 50.98060
# Shear Modulus (GPa) = -22.21842 24.17732 0.97945
#
# Velocity S-wave (km/s) = -3.27991 3.42145 0.68865
# Velocity P-wave (km/s) = 1.22696 7.00909 5.03154
#
# Compressibility (1/GPa) = 0.03054952
#
# Stress axis : x y z
#
# Youngs Moduli (GPa) = 160.59079 34.28295 68.73400
#
# Poissons Ratio (x) = 0.30874 0.01477
# Poissons Ratio (y) = 1.44623 0.03279
# Poissons Ratio (z) = 0.03451 0.01636
#
# Static dielectric constant tensor:
#      x y z
#    x 1.801300 0.000000 0.000000 
#    y 0.000000 1.673320 0.000000 
#    z 0.000000 0.000000 1.816110 
# 
# From -- ./inp_files/27377.got.cif
#   From: 2010.05.17/outbox.cif.g08.bks.cpg/sg71_14_cif.got.tgz:27377.got - 2010.06.03 16:22:01.
