data_PCOD9524686
_publ_section_title
;
Structure prediction by ZEFSAII (Michael W. Deem and Ramdas Pophale) SiO2 
 PCOD9524686
Probable space group: I M M M
;
_chemical_formula_sum "Si O2"
_cell_formula_units_Z 56
_cell_length_a 15.000000
_cell_length_b 15.000000
_cell_length_c 24.000000
_cell_angle_alpha 90.000000
_cell_angle_beta 90.000000
_cell_angle_gamma 90.000000
_cell_volume 5400.000000
_symmetry_space_group_name_H-M "I M M M"
_symmetry_group_IT_number 71
_symmetry_cell_setting 'orthorhombic'
loop_
_space_group_symop_operation_xyz
x,y,z
-x,-y,z
x,-y,-z
-x,y,-z
-x,-y,-z
x,y,-z
-x,y,z
x,-y,z
1/2+x,1/2+y,1/2+z
1/2-x,1/2-y,1/2+z
1/2+x,1/2-y,1/2-z
1/2-x,1/2+y,1/2-z
1/2-x,1/2-y,1/2-z
1/2+x,1/2+y,1/2-z
1/2-x,1/2+y,1/2+z
1/2+x,1/2-y,1/2+z
loop_
_atom_site_type_symbol
_atom_site_label
_atom_site_fract_x
_atom_site_fract_y
_atom_site_fract_z
Si Si1 0.260290 0.899129 0.844790
Si Si2 0.848921 0.602338 0.935794
Si Si3 0.400081 0.740657 0.353500
Si Si4 0.101738 0.905173 0.315417
Si Si5 0.862635 0.141190 0.561683
Si Si6 0.898725 0.353809 0.435840
Si Si7 0.105227 0.286264 0.273556
O O1 0.176513 0.834220 0.855466
O O2 0.323124 0.897570 0.899150
O O3 0.327195 0.857463 0.798889
O O4 0.232937 0.000000 0.831747
O O5 0.866054 0.500000 0.917172
O O6 0.887998 0.680609 0.898188
O O7 0.742326 0.619329 0.935984
O O8 0.879219 0.609607 0.000000
O O9 0.500000 0.702196 0.358788
O O10 0.393084 0.784936 0.292690
O O11 0.099063 0.900515 0.382377
O O12 0.139194 0.811561 0.294079
O O13 0.000000 0.905837 0.294216
O O14 0.144564 0.000000 0.299460
O O15 0.894244 0.112773 0.500000
O O16 0.882106 0.246843 0.566285
O O17 0.892465 0.380806 0.500000
O O18 0.000000 0.371746 0.416720
O O19 0.000000 0.296714 0.290994
#
# Coordination Sequence:
#
# PCOD9524686 Si02
#       7
#    16  16  16  16  16  16  16
#     4  12  25  41  64  93 126 168 218 269 320 373
#     4  10  21  39  66  98 128 159 200 255 323 392
#     4  11  25  45  68  92 125 168 213 266 323 382
#     4  10  19  31  52  84 124 167 206 247 299 368
#     4  10  18  31  55  86 124 166 203 245 301 372
#     4  10  20  36  61  91 125 166 210 258 313 375
#     4  10  22  42  65  92 126 163 209 260 318 385
#
# _framework density 10.370369999999999
#
# number of rings (size 3 to 8) (size 9 to 14) (size 15 to 20)
#    0.000    1.571    2.857    1.714    0.000    5.143 
#    0.000    5.000    0.000    0.000    0.000    2.000 
#    0.000    0.000    0.000    0.000    0.000    0.000 
#
# Total GULP energy -312851.014865 kJ/mol
# GULP energy per Si atom -5586.625265 kJ/mol
# Density = 1.034677 g / cm^3
# Si number density = 10.370370 Si / 1000 Ang^3
#
#
#
# Elastic Constant Matrix: (Units=GPa)
#
#
# Indices 1 2 3 4 5 6 
#
# 1 120.7061 48.9096 36.4017 0.0000 0.0000 0.0000
# 2 48.9096 134.9815 42.4738 0.0000 0.0000 0.0000
# 3 36.4017 42.4738 92.1576 0.0000 0.0000 0.0000
# 4 0.0000 0.0000 0.0000 -25.0416 0.0000 0.0000
# 5 0.0000 0.0000 0.0000 0.0000 28.6750 0.0000
# 6 0.0000 0.0000 0.0000 0.0000 0.0000 -10.8407
#
#
#
# Elastic Compliance Matrix: (Units=1/GPa)
#
#
# Indices 1 2 3 4 5 6 
#
# 1 0.010269 -0.002859 -0.002738 0.000000 0.000000 0.000000
# 2 -0.002859 0.009461 -0.003231 0.000000 0.000000 0.000000
# 3 -0.002738 -0.003231 0.013422 0.000000 0.000000 0.000000
# 4 0.000000 0.000000 0.000000 -0.039934 0.000000 0.000000
# 5 0.000000 0.000000 0.000000 0.000000 0.034874 0.000000
# 6 0.000000 0.000000 0.000000 0.000000 0.000000 -0.092245
#
#
# Mechanical properties :
#
#
# Convention : Reuss Voigt Hill
#
# Bulk Modulus (GPa) = 64.53930 67.04617 65.79274
# Shear Modulus (GPa) = -120.97411 13.22924 -53.87243
#
# Velocity S-wave (km/s) = -7.64548 2.52829 -5.10202
# Velocity P-wave (km/s) = 6.83763 6.39679 1.70795
#
# Compressibility (1/GPa) = 0.01549443
#
# Stress axis : x y z
#
# Youngs Moduli (GPa) = 97.38088 105.69548 74.50568
#
# Poissons Ratio (x) = 0.30220 0.20403
# Poissons Ratio (y) = 0.27843 0.24074
# Poissons Ratio (z) = 0.26667 0.34151
#
# Static dielectric constant tensor:
#      x y z
#    x 1.742040 0.000000 0.000000 
#    y 0.000000 1.763280 0.000000 
#    z 0.000000 0.000000 1.758740 
# 
# From -- ./inp_files/59921.got.cif
#   From: 2010.05.17/outbox.ucp.g08.bks.cvg/sg71_30_cif.got.tgz:59921.got - 2010.06.11 16:29:00.
