data_PCOD9524129
_publ_section_title
;
Structure prediction by ZEFSAII (Michael W. Deem and Ramdas Pophale) SiO2 
 PCOD9524129
Probable space group: I M M M
;
_chemical_formula_sum "Si O2"
_cell_formula_units_Z 88
_cell_length_a 7.669852
_cell_length_b 19.795307
_cell_length_c 29.063933
_cell_angle_alpha 90.000000
_cell_angle_beta 90.000000
_cell_angle_gamma 90.000000
_cell_volume 4412.691935
_symmetry_space_group_name_H-M "I M M M"
_symmetry_group_IT_number 71
_symmetry_cell_setting 'orthorhombic'
loop_
_space_group_symop_operation_xyz
x,y,z
-x,-y,z
x,-y,-z
-x,y,-z
-x,-y,-z
x,y,-z
-x,y,z
x,-y,z
1/2+x,1/2+y,1/2+z
1/2-x,1/2-y,1/2+z
1/2+x,1/2-y,1/2-z
1/2-x,1/2+y,1/2-z
1/2-x,1/2-y,1/2-z
1/2+x,1/2+y,1/2-z
1/2-x,1/2+y,1/2+z
1/2+x,1/2-y,1/2+z
loop_
_atom_site_type_symbol
_atom_site_label
_atom_site_fract_x
_atom_site_fract_y
_atom_site_fract_z
Si Si1 0.204474 0.836336 0.410336
Si Si2 0.799084 0.417792 0.276788
Si Si3 0.286173 0.922334 0.122545
Si Si4 0.709131 0.076943 0.500000
Si Si5 0.213773 0.306560 0.446852
Si Si6 0.707734 0.923543 0.322425
O O1 0.233546 0.883750 0.454507
O O2 0.276573 0.762546 0.422936
O O3 0.267870 0.873614 0.364699
O O4 0.000000 0.827358 0.403781
O O5 0.801769 0.500000 0.276542
O O6 0.723647 0.399548 0.326584
O O7 0.720369 0.399297 0.227207
O O8 0.000000 0.393743 0.277449
O O9 0.500000 0.922460 0.124065
O O10 0.232337 0.871116 0.082895
O O11 0.233194 0.000000 0.114606
O O12 0.500000 0.075320 0.500000
O O13 0.773939 0.000000 0.500000
O O14 0.269087 0.308802 0.500000
O O15 0.000000 0.305482 0.447226
O O16 0.500000 0.929606 0.315723
O O17 0.773246 0.000000 0.332645
#
# Coordination Sequence:
#
# PCOD9524129 Si02
#       6
#    16  16  16   8  16  16
#     4  11  21  33  47  67  99 133 159 187 234 292
#     4   7  11  22  41  65  91 118 151 195 242 278
#     4   8  13  23  43  69  93 121 159 197 234 281
#     4  11  23  37  53  71  90 117 162 212 243 267
#     4   9  17  29  42  60  94 133 159 187 238 290
#     4   9  17  30  48  69  94 123 159 204 242 272
#
# _framework density 19.942474000000001
#
# number of rings (size 3 to 8) (size 9 to 14) (size 15 to 20)
#    0.000    3.000    0.909    3.545    0.000    3.636 
#    0.000    2.727    0.000    0.000    0.000    1.273 
#    0.000    6.545    0.000    0.000    0.000    0.000 
#
# Total GULP energy -245206.892643 kJ/mol
# GULP energy per Si atom -5572.883924 kJ/mol
# Density = 1.989708 g / cm^3
# Si number density = 19.942474 Si / 1000 Ang^3
#
#
#
# Elastic Constant Matrix: (Units=GPa)
#
#
# Indices 1 2 3 4 5 6 
#
# 1 32.8708 0.8277 5.6087 0.0000 0.0000 0.0000
# 2 0.8277 129.4679 109.4211 0.0000 0.0000 0.0000
# 3 5.6087 109.4211 196.9879 0.0000 0.0000 0.0000
# 4 0.0000 0.0000 0.0000 -110.7404 0.0000 0.0000
# 5 0.0000 0.0000 0.0000 0.0000 -8.9120 0.0000
# 6 0.0000 0.0000 0.0000 0.0000 0.0000 -9.1827
#
#
#
# Elastic Compliance Matrix: (Units=1/GPa)
#
#
# Indices 1 2 3 4 5 6 
#
# 1 0.030642 0.001021 -0.001439 0.000000 0.000000 0.000000
# 2 0.001021 0.014593 -0.008135 0.000000 0.000000 0.000000
# 3 -0.001439 -0.008135 0.009636 0.000000 0.000000 0.000000
# 4 0.000000 0.000000 0.000000 -0.009030 0.000000 0.000000
# 5 0.000000 0.000000 0.000000 0.000000 -0.112208 0.000000
# 6 0.000000 0.000000 0.000000 0.000000 0.000000 -0.108901
#
#
# Mechanical properties :
#
#
# Convention : Reuss Voigt Hill
#
# Bulk Modulus (GPa) = 26.48054 65.67129 46.07592
# Shear Modulus (GPa) = -34.34694 -9.53574 -21.94134
#
# Velocity S-wave (km/s) = -4.15456 -2.18906 -3.32057
# Velocity P-wave (km/s) = 3.11554 5.15873 2.90740
#
# Compressibility (1/GPa) = 0.03776358
#
# Stress axis : x y z
#
# Youngs Moduli (GPa) = 32.63487 68.52769 103.77634
#
# Poissons Ratio (x) = -0.06994 0.14937
# Poissons Ratio (y) = -0.03331 0.84420
# Poissons Ratio (z) = 0.04697 0.55746
#
# Static dielectric constant tensor:
#      x y z
#    x 1.775500 0.000000 0.000000 
#    y 0.000000 1.681590 0.000000 
#    z 0.000000 0.000000 1.707200 
# 
# From -- ./inp_files/68000.got.cif
#   From: 2010.05.17/outbox.cif.g08.bks.cpg/sg71_34_cif.got.tgz:68000.got - 2010.06.03 16:22:01.
