data_PCOD9524491
_publ_section_title
;
Structure prediction by ZEFSAII (Michael W. Deem and Ramdas Pophale) SiO2 
 PCOD9524491
Probable space group: I M M M
;
_chemical_formula_sum "Si O2"
_cell_formula_units_Z 104
_cell_length_a 7.342034
_cell_length_b 25.022069
_cell_length_c 29.768079
_cell_angle_alpha 90.000000
_cell_angle_beta 90.000000
_cell_angle_gamma 90.000000
_cell_volume 5468.779565
_symmetry_space_group_name_H-M "I M M M"
_symmetry_group_IT_number 71
_symmetry_cell_setting 'orthorhombic'
loop_
_space_group_symop_operation_xyz
x,y,z
-x,-y,z
x,-y,-z
-x,y,-z
-x,-y,-z
x,y,-z
-x,y,z
x,-y,z
1/2+x,1/2+y,1/2+z
1/2-x,1/2-y,1/2+z
1/2+x,1/2-y,1/2-z
1/2-x,1/2+y,1/2-z
1/2-x,1/2-y,1/2-z
1/2+x,1/2+y,1/2-z
1/2-x,1/2+y,1/2+z
1/2+x,1/2-y,1/2+z
loop_
_atom_site_type_symbol
_atom_site_label
_atom_site_fract_x
_atom_site_fract_y
_atom_site_fract_z
Si Si1 0.777685 0.126595 0.088682
Si Si2 0.288377 0.435100 0.226036
Si Si3 0.285170 0.641136 0.050867
Si Si4 0.723226 0.438069 0.872320
Si Si5 0.777172 0.062004 0.175776
Si Si6 0.218793 0.237357 0.051485
Si Si7 0.221956 0.061572 0.000000
O O1 0.718276 0.098582 0.134532
O O2 0.718716 0.187706 0.081321
O O3 0.721890 0.092558 0.044972
O O4 0.000000 0.125988 0.089176
O O5 0.500000 0.418634 0.226068
O O6 0.284036 0.500000 0.226110
O O7 0.213526 0.419650 0.177300
O O8 0.213373 0.419543 0.274765
O O9 0.500000 0.630219 0.047624
O O10 0.213415 0.599984 0.087671
O O11 0.265679 0.702688 0.065758
O O12 0.210154 0.636620 0.000000
O O13 0.500000 0.437235 0.871176
O O14 0.774844 0.500000 0.879229
O O15 0.000000 0.062237 0.176791
O O16 0.724580 0.000000 0.168730
O O17 0.000000 0.234516 0.050111
O O18 0.283706 0.230377 0.000000
O O19 0.000000 0.061732 0.000000
O O20 0.280076 0.000000 0.000000
#
# Coordination Sequence:
#
# PCOD9524491 Si02
#       7
#    16  16  16  16  16  16   8
#     4   9  14  20  30  46  69  99 130 156 184 221
#     4   7  10  17  29  46  69  96 121 142 174 226
#     4   9  17  27  40  59  78  95 122 158 188 219
#     4   8  13  22  37  56  76  95 114 143 187 231
#     4   8  12  17  27  46  72  98 122 151 187 224
#     4   9  16  27  40  52  72 104 136 157 178 216
#     4   9  14  18  26  44  71  97 120 153 196 230
#
# _framework density 19.017040999999999
#
# number of rings (size 3 to 8) (size 9 to 14) (size 15 to 20)
#    0.000    3.615    0.769    2.308    0.000    2.154 
#    0.000    1.538    0.000    1.385    0.000    2.154 
#    0.000    3.077    0.000    4.154    0.000    3.077 
#
# Total GULP energy -289714.318397 kJ/mol
# GULP energy per Si atom -5571.429200 kJ/mol
# Density = 1.897376 g / cm^3
# Si number density = 19.017041 Si / 1000 Ang^3
#
#
#
# Elastic Constant Matrix: (Units=GPa)
#
#
# Indices 1 2 3 4 5 6 
#
# 1 71.0470 1.0422 9.4047 0.0000 0.0000 0.0000
# 2 1.0422 120.6817 117.4051 0.0000 0.0000 0.0000
# 3 9.4047 117.4051 192.4040 0.0000 0.0000 0.0000
# 4 0.0000 0.0000 0.0000 10.1663 0.0000 0.0000
# 5 0.0000 0.0000 0.0000 0.0000 -11.9776 0.0000
# 6 0.0000 0.0000 0.0000 0.0000 0.0000 8.4531
#
#
#
# Elastic Compliance Matrix: (Units=1/GPa)
#
#
# Indices 1 2 3 4 5 6 
#
# 1 0.014258 0.001365 -0.001530 0.000000 0.000000 0.000000
# 2 0.001365 0.020522 -0.012589 0.000000 0.000000 0.000000
# 3 -0.001530 -0.012589 0.012954 0.000000 0.000000 0.000000
# 4 0.000000 0.000000 0.000000 0.098364 0.000000 0.000000
# 5 0.000000 0.000000 0.000000 0.000000 -0.083489 0.000000
# 6 0.000000 0.000000 0.000000 0.000000 0.000000 0.118300
#
#
# Mechanical properties :
#
#
# Convention : Reuss Voigt Hill
#
# Bulk Modulus (GPa) = 44.99244 71.09298 58.04271
# Shear Modulus (GPa) = 23.38363 18.41374 20.89869
#
# Velocity S-wave (km/s) = 3.51039 3.11509 3.31863
# Velocity P-wave (km/s) = 6.33568 7.09953 6.72845
#
# Compressibility (1/GPa) = 0.02222595
#
# Stress axis : x y z
#
# Youngs Moduli (GPa) = 70.13755 48.72843 77.19532
#
# Poissons Ratio (x) = -0.06654 0.11812
# Poissons Ratio (y) = -0.09577 0.97183
# Poissons Ratio (z) = 0.10732 0.61345
#
# Static dielectric constant tensor:
#      x y z
#    x 1.776690 0.000000 0.000000 
#    y 0.000000 1.619720 0.000000 
#    z 0.000000 0.000000 1.677560 
# 
# From -- ./inp_files/66971.got.cif
#   From: 2010.05.17/outbox.cif.g08.bks.cpg/sg71_34_cif.got.tgz:66971.got - 2010.06.03 16:22:01.
