data_PCOD9524446
_publ_section_title
;
Structure prediction by ZEFSAII (Michael W. Deem and Ramdas Pophale) SiO2 
 PCOD9524446
Probable space group: I M M M
;
_chemical_formula_sum "Si O2"
_cell_formula_units_Z 82
_cell_length_a 20.103287
_cell_length_b 17.616409
_cell_length_c 11.393929
_cell_angle_alpha 90.000000
_cell_angle_beta 90.000000
_cell_angle_gamma 90.000000
_cell_volume 4035.134046
_symmetry_space_group_name_H-M "I M M M"
_symmetry_group_IT_number 71
_symmetry_cell_setting 'orthorhombic'
loop_
_space_group_symop_operation_xyz
x,y,z
-x,-y,z
x,-y,-z
-x,y,-z
-x,-y,-z
x,y,-z
-x,y,z
x,-y,z
1/2+x,1/2+y,1/2+z
1/2-x,1/2-y,1/2+z
1/2+x,1/2-y,1/2-z
1/2-x,1/2+y,1/2-z
1/2-x,1/2-y,1/2-z
1/2+x,1/2+y,1/2-z
1/2-x,1/2+y,1/2+z
1/2+x,1/2-y,1/2+z
loop_
_atom_site_type_symbol
_atom_site_label
_atom_site_fract_x
_atom_site_fract_y
_atom_site_fract_z
Si Si1 0.280043 0.089304 0.770558
Si Si2 0.633314 0.350272 0.760411
Si Si3 0.581949 0.718491 0.000000
Si Si4 0.379252 0.808062 0.361039
Si Si5 0.922523 0.000000 0.362507
Si Si6 0.500000 0.913089 0.643655
Si Si7 0.627880 0.109406 0.000000
Si Si8 0.500000 0.000000 0.000000
O O1 0.205665 0.121621 0.781676
O O2 0.313499 0.148695 0.680883
O O3 0.278921 0.000000 0.732847
O O4 0.324851 0.093951 0.887652
O O5 0.613009 0.278330 0.681040
O O6 0.594417 0.428225 0.781304
O O7 0.620269 0.315627 0.888893
O O8 0.500000 0.705726 0.000000
O O9 0.600955 0.805720 0.000000
O O10 0.382539 0.808017 0.500000
O O11 0.437201 0.864412 0.316607
O O12 0.893209 0.000000 0.500000
O O13 0.000000 0.000000 0.381879
O O14 0.500000 0.916951 0.500000
O O15 0.500000 0.000000 0.688086
O O16 0.559948 0.063148 0.000000
#
# Coordination Sequence:
#
# PCOD9524446 Si02
#       8
#    16  16   8  16   8   8   8   2
#     4  12  26  45  68 104 145 193 241 298 363 441
#     4  12  26  44  72 102 144 186 236 304 372 431
#     4  12  26  45  76 112 138 186 249 314 376 434
#     4  11  26  43  69 101 139 188 238 294 357 454
#     4  11  24  45  73 106 135 175 242 312 367 426
#     4   9  20  43  67  96 134 180 230 286 354 423
#     4  12  26  46  75 112 150 193 247 301 376 448
#     4  12  24  48  76 120 154 190 234 320 360 442
#
# _framework density 20.321505999999999
#
# number of rings (size 3 to 8) (size 9 to 14) (size 15 to 20)
#    0.000    0.585    5.366    1.756    5.463    1.951 
#    1.756    0.488    0.000    0.585    0.000    0.000 
#    0.000    0.000    0.000    0.000    0.000    0.000 
#
# Total GULP energy -228317.450526 kJ/mol
# GULP energy per Si atom -5568.718306 kJ/mol
# Density = 2.027525 g / cm^3
# Si number density = 20.321506 Si / 1000 Ang^3
#
#
#
# Elastic Constant Matrix: (Units=GPa)
#
#
# Indices 1 2 3 4 5 6 
#
# 1 128.5956 50.9997 35.6449 0.0000 0.0000 0.0000
# 2 50.9997 218.9940 40.0425 0.0000 0.0000 0.0000
# 3 35.6449 40.0425 77.8824 0.0000 0.0000 0.0000
# 4 0.0000 0.0000 0.0000 14.1825 0.0000 0.0000
# 5 0.0000 0.0000 0.0000 0.0000 14.9037 0.0000
# 6 0.0000 0.0000 0.0000 0.0000 0.0000 39.4523
#
#
#
# Elastic Compliance Matrix: (Units=1/GPa)
#
#
# Indices 1 2 3 4 5 6 
#
# 1 0.009354 -0.001540 -0.003489 0.000000 0.000000 0.000000
# 2 -0.001540 0.005294 -0.002017 0.000000 0.000000 0.000000
# 3 -0.003489 -0.002017 0.015474 0.000000 0.000000 0.000000
# 4 0.000000 0.000000 0.000000 0.070510 0.000000 0.000000
# 5 0.000000 0.000000 0.000000 0.000000 0.067098 0.000000
# 6 0.000000 0.000000 0.000000 0.000000 0.000000 0.025347
#
#
# Mechanical properties :
#
#
# Convention : Reuss Voigt Hill
#
# Bulk Modulus (GPa) = 62.38691 75.42736 68.90714
# Shear Modulus (GPa) = 23.52806 33.62668 28.57737
#
# Velocity S-wave (km/s) = 3.40632 4.07225 3.75408
# Velocity P-wave (km/s) = 6.79980 7.70121 7.26450
#
# Compressibility (1/GPa) = 0.01602900
#
# Stress axis : x y z
#
# Youngs Moduli (GPa) = 106.90123 188.89887 64.62571
#
# Poissons Ratio (x) = 0.29099 0.22550
# Poissons Ratio (y) = 0.16468 0.13033
# Poissons Ratio (z) = 0.37301 0.38096
#
# Static dielectric constant tensor:
#      x y z
#    x 1.731480 0.000000 0.000000 
#    y 0.000000 1.696540 0.000000 
#    z 0.000000 0.000000 1.751590 
# 
# From -- ./inp_files/25637.got.cif
#   From: 2010.05.17/outbox.cif.g08.bks.cpg/sg71_13_cif.got.tgz:25637.got - 2010.06.03 16:22:01.
