data_PCOD9524033
_publ_section_title
;
Structure prediction by ZEFSAII (Michael W. Deem and Ramdas Pophale) SiO2 
 PCOD9524033
Probable space group: I M M M
;
_chemical_formula_sum "Si O2"
_cell_formula_units_Z 88
_cell_length_a 7.509751
_cell_length_b 18.939141
_cell_length_c 31.198725
_cell_angle_alpha 90.000000
_cell_angle_beta 90.000000
_cell_angle_gamma 90.000000
_cell_volume 4437.339531
_symmetry_space_group_name_H-M "I M M M"
_symmetry_group_IT_number 71
_symmetry_cell_setting 'orthorhombic'
loop_
_space_group_symop_operation_xyz
x,y,z
-x,-y,z
x,-y,-z
-x,y,-z
-x,-y,-z
x,y,-z
-x,y,z
x,-y,z
1/2+x,1/2+y,1/2+z
1/2-x,1/2-y,1/2+z
1/2+x,1/2-y,1/2-z
1/2-x,1/2+y,1/2-z
1/2-x,1/2-y,1/2-z
1/2+x,1/2+y,1/2-z
1/2-x,1/2+y,1/2+z
1/2+x,1/2-y,1/2+z
loop_
_atom_site_type_symbol
_atom_site_label
_atom_site_fract_x
_atom_site_fract_y
_atom_site_fract_z
Si Si1 0.208748 0.500000 0.947883
Si Si2 0.297860 0.785742 0.294806
Si Si3 0.283131 0.580428 0.649613
Si Si4 0.281515 0.726923 0.383741
Si Si5 0.781926 0.344919 0.950362
Si Si6 0.714553 0.420043 0.747776
O O1 0.279863 0.577095 0.934602
O O2 0.000000 0.500000 0.936072
O O3 0.218237 0.500000 0.000000
O O4 0.500000 0.765246 0.301085
O O5 0.250000 0.750000 0.250000
O O6 0.213699 0.760572 0.338906
O O7 0.280177 0.867723 0.284072
O O8 0.500000 0.579000 0.649769
O O9 0.224886 0.500000 0.639965
O O10 0.228017 0.644477 0.618820
O O11 0.229301 0.598044 0.698895
O O12 0.500000 0.727062 0.385866
O O13 0.223757 0.779029 0.421589
O O14 0.000000 0.347012 0.949548
O O15 0.729860 0.336528 0.000000
O O16 0.500000 0.416475 0.747840
O O17 0.769771 0.500000 0.755602
#
# Coordination Sequence:
#
# PCOD9524033 Si02
#       6
#     8  16  16  16  16  16
#     4   7  10  18  32  48  68 100 137 163 195 255
#     4  11  20  30  44  64  92 121 151 187 226 265
#     4   8  13  23  40  57  74 104 145 176 201 251
#     4   9  16  25  38  58  81 108 142 179 221 266
#     4   8  13  22  36  53  75 105 139 174 214 264
#     4   9  17  31  48  62  83 120 157 184 219 269
#
# _framework density 19.831703999999998
#
# number of rings (size 3 to 8) (size 9 to 14) (size 15 to 20)
#    0.000    3.182    1.818    2.727    0.000    0.364 
#    1.636    0.000    0.000    0.545    0.000    3.818 
#    0.000    2.909    0.000    2.000    0.000    7.273 
#
# Total GULP energy -245020.885763 kJ/mol
# GULP energy per Si atom -5568.656495 kJ/mol
# Density = 1.978657 g / cm^3
# Si number density = 19.831704 Si / 1000 Ang^3
#
#
#
# Elastic Constant Matrix: (Units=GPa)
#
#
# Indices 1 2 3 4 5 6 
#
# 1 43.5482 -5.5409 2.7637 0.0000 0.0000 0.0000
# 2 -5.5409 166.3154 82.6790 0.0000 0.0000 0.0000
# 3 2.7637 82.6790 78.9452 0.0000 0.0000 0.0000
# 4 0.0000 0.0000 0.0000 34.8721 0.0000 0.0000
# 5 0.0000 0.0000 0.0000 0.0000 3.8753 0.0000
# 6 0.0000 0.0000 0.0000 0.0000 0.0000 6.2817
#
#
#
# Elastic Compliance Matrix: (Units=1/GPa)
#
#
# Indices 1 2 3 4 5 6 
#
# 1 0.023497 0.002486 -0.003426 0.000000 0.000000 0.000000
# 2 0.002486 0.012806 -0.013499 0.000000 0.000000 0.000000
# 3 -0.003426 -0.013499 0.026924 0.000000 0.000000 0.000000
# 4 0.000000 0.000000 0.000000 0.028676 0.000000 0.000000
# 5 0.000000 0.000000 0.000000 0.000000 0.258046 0.000000
# 6 0.000000 0.000000 0.000000 0.000000 0.000000 0.159192
#
#
# Mechanical properties :
#
#
# Convention : Reuss Voigt Hill
#
# Bulk Modulus (GPa) = 29.11277 49.84585 39.47931
# Shear Modulus (GPa) = 9.09970 22.93294 16.01632
#
# Velocity S-wave (km/s) = 2.14439 3.40424 2.84493
# Velocity P-wave (km/s) = 4.56542 6.37502 5.54454
#
# Compressibility (1/GPa) = 0.03434919
#
# Stress axis : x y z
#
# Youngs Moduli (GPa) = 42.55894 78.08840 37.14145
#
# Poissons Ratio (x) = -0.19413 0.12725
# Poissons Ratio (y) = -0.10580 0.50136
# Poissons Ratio (z) = 0.14582 1.05409
#
# Static dielectric constant tensor:
#      x y z
#    x 1.691440 0.000000 0.000000 
#    y 0.000000 1.752590 0.000000 
#    z 0.000000 0.000000 1.617410 
# 
# From -- ./inp_files/68164.got.cif
#   From: 2010.05.17/outbox.cif.g08.bks.cpg/sg71_35_cif.got.tgz:68164.got - 2010.06.03 16:22:01.
