data_PCOD9524300
_publ_section_title
;
Structure prediction by ZEFSAII (Michael W. Deem and Ramdas Pophale) SiO2 
 PCOD9524300
Probable space group: I M M M
;
_chemical_formula_sum "Si O2"
_cell_formula_units_Z 100
_cell_length_a 29.391007
_cell_length_b 20.113784
_cell_length_c 7.845530
_cell_angle_alpha 90.000000
_cell_angle_beta 90.000000
_cell_angle_gamma 90.000000
_cell_volume 4637.997771
_symmetry_space_group_name_H-M "I M M M"
_symmetry_group_IT_number 71
_symmetry_cell_setting 'orthorhombic'
loop_
_space_group_symop_operation_xyz
x,y,z
-x,-y,z
x,-y,-z
-x,y,-z
-x,-y,-z
x,y,-z
-x,y,z
x,-y,z
1/2+x,1/2+y,1/2+z
1/2-x,1/2-y,1/2+z
1/2+x,1/2-y,1/2-z
1/2-x,1/2+y,1/2-z
1/2-x,1/2-y,1/2-z
1/2+x,1/2+y,1/2-z
1/2-x,1/2+y,1/2+z
1/2+x,1/2-y,1/2+z
loop_
_atom_site_type_symbol
_atom_site_label
_atom_site_fract_x
_atom_site_fract_y
_atom_site_fract_z
Si Si1 0.229555 0.679651 0.695888
Si Si2 0.871092 0.320430 0.200188
Si Si3 0.551554 0.077537 0.707995
Si Si4 0.000000 0.259734 0.000000
Si Si5 0.304861 0.575023 0.794569
Si Si6 0.090577 0.073609 0.707062
Si Si7 0.065631 0.218234 0.698794
O O1 0.218094 0.683925 0.500000
O O2 0.250000 0.750000 0.750000
O O3 0.181662 0.662121 0.781186
O O4 0.268889 0.626359 0.725475
O O5 0.907100 0.375872 0.266836
O O6 0.884233 0.250774 0.289346
O O7 0.878257 0.313295 0.000000
O O8 0.550758 0.080718 0.500000
O O9 0.500000 0.096938 0.762924
O O10 0.558301 0.000000 0.753921
O O11 0.961639 0.256127 0.845963
O O12 0.291310 0.500000 0.749580
O O13 0.357129 0.583436 0.736999
O O14 0.305433 0.580446 0.000000
O O15 0.090605 0.071905 0.500000
O O16 0.063854 0.140478 0.750741
O O17 0.074908 0.000000 0.764464
O O18 0.051304 0.224256 0.500000
#
# Coordination Sequence:
#
# PCOD9524300 Si02
#       7
#    16  16  16   4  16  16  16
#     4  12  25  40  58  85 123 164 208 261 318 375
#     4  11  22  37  63  91 124 163 206 258 314 373
#     4   8  16  32  57  89 122 158 201 248 302 364
#     4  12  26  44  61  92 129 162 208 264 320 368
#     4   9  18  36  63  91 119 156 202 252 309 373
#     4   8  16  35  63  90 119 159 205 254 308 371
#     4  11  23  41  65  92 124 163 210 259 313 376
#
# _framework density 21.561029000000001
#
# number of rings (size 3 to 8) (size 9 to 14) (size 15 to 20)
#    0.000    2.080    0.800    4.560    1.120    2.240 
#    1.440    2.800    0.000    3.360    0.000    4.480 
#    0.000    0.000    0.000    0.000    0.000    0.000 
#
# Total GULP energy -278570.278320 kJ/mol
# GULP energy per Si atom -5571.405566 kJ/mol
# Density = 2.151195 g / cm^3
# Si number density = 21.561029 Si / 1000 Ang^3
#
#
#
# Elastic Constant Matrix: (Units=GPa)
#
#
# Indices 1 2 3 4 5 6 
#
# 1 49.2888 15.0711 15.1516 0.0000 0.0000 0.0000
# 2 15.0711 82.4740 14.0575 0.0000 0.0000 0.0000
# 3 15.1516 14.0575 74.1652 0.0000 0.0000 0.0000
# 4 0.0000 0.0000 0.0000 17.9639 0.0000 0.0000
# 5 0.0000 0.0000 0.0000 0.0000 -39.6792 0.0000
# 6 0.0000 0.0000 0.0000 0.0000 0.0000 -8.8631
#
#
#
# Elastic Compliance Matrix: (Units=1/GPa)
#
#
# Indices 1 2 3 4 5 6 
#
# 1 0.022559 -0.003448 -0.003955 0.000000 0.000000 0.000000
# 2 -0.003448 0.013057 -0.001770 0.000000 0.000000 0.000000
# 3 -0.003955 -0.001770 0.014627 0.000000 0.000000 0.000000
# 4 0.000000 0.000000 0.000000 0.055667 0.000000 0.000000
# 5 0.000000 0.000000 0.000000 0.000000 -0.025202 0.000000
# 6 0.000000 0.000000 0.000000 0.000000 0.000000 -0.112827
#
#
# Mechanical properties :
#
#
# Convention : Reuss Voigt Hill
#
# Bulk Modulus (GPa) = 31.35257 32.72094 32.03676
# Shear Modulus (GPa) = -1592.24448 4.66084 -793.79182
#
# Velocity S-wave (km/s) = -27.20452 1.47187 -19.20832
# Velocity P-wave (km/s) = 31.18025 4.25411 21.84160
#
# Compressibility (1/GPa) = 0.03189531
#
# Stress axis : x y z
#
# Youngs Moduli (GPa) = 44.32870 76.58781 68.36684
#
# Poissons Ratio (x) = 0.26409 0.27039
# Poissons Ratio (y) = 0.15285 0.12104
# Poissons Ratio (z) = 0.17532 0.13559
#
# Static dielectric constant tensor:
#      x y z
#    x 1.825380 0.000000 0.000000 
#    y 0.000000 1.918000 0.000000 
#    z 0.000000 0.000000 1.786510 
# 
# From -- ./inp_files/15043.got.cif
#   From: 2010.05.17/outbox.cif.g08.bks.cpg/sg71_8_cif.got.tgz:15043.got - 2010.06.03 16:22:01.
