data_PCOD9524134
_publ_section_title
;
Structure prediction by ZEFSAII (Michael W. Deem and Ramdas Pophale) SiO2 
 PCOD9524134
Probable space group: I M M M
;
_chemical_formula_sum "Si O2"
_cell_formula_units_Z 72
_cell_length_a 14.838255
_cell_length_b 8.061133
_cell_length_c 32.627663
_cell_angle_alpha 90.000000
_cell_angle_beta 90.000000
_cell_angle_gamma 90.000000
_cell_volume 3902.697452
_symmetry_space_group_name_H-M "I M M M"
_symmetry_group_IT_number 71
_symmetry_cell_setting 'orthorhombic'
loop_
_space_group_symop_operation_xyz
x,y,z
-x,-y,z
x,-y,-z
-x,y,-z
-x,-y,-z
x,y,-z
-x,y,z
x,-y,z
1/2+x,1/2+y,1/2+z
1/2-x,1/2-y,1/2+z
1/2+x,1/2-y,1/2-z
1/2-x,1/2+y,1/2-z
1/2-x,1/2-y,1/2-z
1/2+x,1/2+y,1/2-z
1/2-x,1/2+y,1/2+z
1/2+x,1/2-y,1/2+z
loop_
_atom_site_type_symbol
_atom_site_label
_atom_site_fract_x
_atom_site_fract_y
_atom_site_fract_z
Si Si1 0.195291 0.303965 0.368519
Si Si2 0.000000 0.703009 0.336285
Si Si3 0.500000 0.685313 0.048733
Si Si4 0.306924 0.801310 0.289689
Si Si5 0.695480 0.699782 0.045892
Si Si6 0.000000 0.702532 0.759475
O O1 0.186967 0.500000 0.372633
O O2 0.093643 0.239336 0.357306
O O3 0.258427 0.265294 0.329991
O O4 0.240220 0.238659 0.410746
O O5 0.000000 0.500000 0.337473
O O6 0.000000 0.752538 0.288430
O O7 0.500000 0.500000 0.067725
O O8 0.595114 0.771606 0.055015
O O9 0.500000 0.661563 0.000000
O O10 0.250000 0.750000 0.250000
O O11 0.409031 0.742542 0.281887
O O12 0.308067 0.000000 0.292199
O O13 0.687597 0.500000 0.043274
O O14 0.725139 0.754833 0.000000
O O15 0.000000 0.500000 0.759061
#
# Coordination Sequence:
#
# PCOD9524134 Si02
#       6
#    16   8   8  16  16   8
#     4  11  21  33  50  74 105 139 175 214 254 303
#     4   9  17  31  48  70 103 141 175 207 250 301
#     4   7  11  22  41  63  90 125 165 210 251 286
#     4  11  21  36  56  77 102 134 171 211 255 303
#     4   9  17  30  47  68  97 133 173 215 256 300
#     4   9  18  35  55  72 100 138 170 204 253 304
#
# _framework density 18.448778000000001
#
# number of rings (size 3 to 8) (size 9 to 14) (size 15 to 20)
#    0.000    2.333    2.222    3.333    0.000    0.444 
#    0.000    5.000    0.000    4.000    0.000    0.778 
#    0.000    6.222    0.000    0.000    0.000    0.000 
#
# Total GULP energy -200434.143702 kJ/mol
# GULP energy per Si atom -5567.615103 kJ/mol
# Density = 1.840679 g / cm^3
# Si number density = 18.448778 Si / 1000 Ang^3
#
#
#
# Elastic Constant Matrix: (Units=GPa)
#
#
# Indices 1 2 3 4 5 6 
#
# 1 89.9964 8.6763 56.1577 0.0000 0.0000 0.0000
# 2 8.6763 29.5067 18.8008 0.0000 0.0000 0.0000
# 3 56.1577 18.8008 197.8342 0.0000 0.0000 0.0000
# 4 0.0000 0.0000 0.0000 27.0636 0.0000 0.0000
# 5 0.0000 0.0000 0.0000 0.0000 18.5124 0.0000
# 6 0.0000 0.0000 0.0000 0.0000 0.0000 1.2716
#
#
#
# Elastic Compliance Matrix: (Units=1/GPa)
#
#
# Indices 1 2 3 4 5 6 
#
# 1 0.013577 -0.001636 -0.003699 0.000000 0.000000 0.000000
# 2 -0.001636 0.036272 -0.002983 0.000000 0.000000 0.000000
# 3 -0.003699 -0.002983 0.006388 0.000000 0.000000 0.000000
# 4 0.000000 0.000000 0.000000 0.036950 0.000000 0.000000
# 5 0.000000 0.000000 0.000000 0.000000 0.054018 0.000000
# 6 0.000000 0.000000 0.000000 0.000000 0.000000 0.786410
#
#
# Mechanical properties :
#
#
# Convention : Reuss Voigt Hill
#
# Bulk Modulus (GPa) = 25.25044 53.84521 39.54782
# Shear Modulus (GPa) = 5.18968 24.94969 15.06968
#
# Velocity S-wave (km/s) = 1.67903 3.68146 2.86114
# Velocity P-wave (km/s) = 4.18035 6.87899 5.69192
#
# Compressibility (1/GPa) = 0.03960327
#
# Stress axis : x y z
#
# Youngs Moduli (GPa) = 73.65302 27.56945 156.54128
#
# Poissons Ratio (x) = 0.04509 0.57898
# Poissons Ratio (y) = 0.12047 0.46692
# Poissons Ratio (z) = 0.27241 0.08223
#
# Static dielectric constant tensor:
#      x y z
#    x 1.720240 0.000000 0.000000 
#    y 0.000000 1.673980 0.000000 
#    z 0.000000 0.000000 1.679290 
# 
# From -- ./inp_files/69726.got.cif
#   From: 2010.05.17/outbox.cif.g08.bks.cpg/sg71_35_cif.got.tgz:69726.got - 2010.06.03 16:22:01.
