data_PCOD9524481
_publ_section_title
;
Structure prediction by ZEFSAII (Michael W. Deem and Ramdas Pophale) SiO2 
 PCOD9524481
Probable space group: I M M M
;
_chemical_formula_sum "Si O2"
_cell_formula_units_Z 72
_cell_length_a 17.246286
_cell_length_b 8.627011
_cell_length_c 24.494487
_cell_angle_alpha 90.000000
_cell_angle_beta 90.000000
_cell_angle_gamma 90.000000
_cell_volume 3644.385281
_symmetry_space_group_name_H-M "I M M M"
_symmetry_group_IT_number 71
_symmetry_cell_setting 'orthorhombic'
loop_
_space_group_symop_operation_xyz
x,y,z
-x,-y,z
x,-y,-z
-x,y,-z
-x,-y,-z
x,y,-z
-x,y,z
x,-y,z
1/2+x,1/2+y,1/2+z
1/2-x,1/2-y,1/2+z
1/2+x,1/2-y,1/2-z
1/2-x,1/2+y,1/2-z
1/2-x,1/2-y,1/2-z
1/2+x,1/2+y,1/2-z
1/2-x,1/2+y,1/2+z
1/2+x,1/2-y,1/2+z
loop_
_atom_site_type_symbol
_atom_site_label
_atom_site_fract_x
_atom_site_fract_y
_atom_site_fract_z
Si Si1 0.907521 0.677501 0.175662
Si Si2 0.405591 0.820305 0.000000
Si Si3 0.671653 0.318924 0.775033
Si Si4 0.908673 0.311367 0.941507
Si Si5 0.909628 0.312348 0.619362
O O1 0.879828 0.500000 0.185215
O O2 0.889117 0.781246 0.227200
O O3 0.875668 0.737626 0.117206
O O4 0.000000 0.668686 0.169362
O O5 0.383642 0.753565 0.059174
O O6 0.500000 0.821409 0.000000
O O7 0.380173 0.000000 0.000000
O O8 0.679980 0.500000 0.783883
O O9 0.750000 0.250000 0.750000
O O10 0.643140 0.242781 0.831112
O O11 0.906458 0.500000 0.940261
O O12 0.000000 0.268122 0.942804
O O13 0.874393 0.260836 0.000000
O O14 0.909151 0.500000 0.617703
O O15 0.000000 0.265729 0.628298
#
# Coordination Sequence:
#
# PCOD9524481 Si02
#       5
#    16   8  16  16  16
#     4   9  17  31  53  79 105 133 168 210 258 314
#     4   7  12  26  53  87 115 139 168 205 256 323
#     4  12  25  38  52  71 102 142 184 226 268 316
#     4   7  10  19  40  71 101 126 155 194 239 286
#     4   9  17  33  59  88 115 142 174 213 263 325
#
# _framework density 19.756418
#
# number of rings (size 3 to 8) (size 9 to 14) (size 15 to 20)
#    0.000    3.000    0.000    6.000    0.000    3.556 
#    0.000    0.556    2.444    2.667    0.000    3.111 
#    0.000    0.000    0.000    0.000    0.000    0.000 
#
# Total GULP energy -200412.859692 kJ/mol
# GULP energy per Si atom -5567.023880 kJ/mol
# Density = 1.971145 g / cm^3
# Si number density = 19.756418 Si / 1000 Ang^3
#
#
#
# Elastic Constant Matrix: (Units=GPa)
#
#
# Indices 1 2 3 4 5 6 
#
# 1 33.4944 14.4401 46.4592 0.0000 0.0000 0.0000
# 2 14.4401 30.3024 29.0978 0.0000 0.0000 0.0000
# 3 46.4592 29.0978 210.0130 0.0000 0.0000 0.0000
# 4 0.0000 0.0000 0.0000 1.1114 0.0000 0.0000
# 5 0.0000 0.0000 0.0000 0.0000 5.3784 0.0000
# 6 0.0000 0.0000 0.0000 0.0000 0.0000 15.8771
#
#
#
# Elastic Compliance Matrix: (Units=1/GPa)
#
#
# Indices 1 2 3 4 5 6 
#
# 1 0.048126 -0.014661 -0.008615 0.000000 0.000000 0.000000
# 2 -0.014661 0.042531 -0.002649 0.000000 0.000000 0.000000
# 3 -0.008615 -0.002649 0.007035 0.000000 0.000000 0.000000
# 4 0.000000 0.000000 0.000000 0.899751 0.000000 0.000000
# 5 0.000000 0.000000 0.000000 0.000000 0.185930 0.000000
# 6 0.000000 0.000000 0.000000 0.000000 0.000000 0.062984
#
#
# Mechanical properties :
#
#
# Convention : Reuss Voigt Hill
#
# Bulk Modulus (GPa) = 21.81471 50.42266 36.11868
# Shear Modulus (GPa) = 3.80666 16.72757 10.26712
#
# Velocity S-wave (km/s) = 1.38960 2.91295 2.28213
# Velocity P-wave (km/s) = 3.69330 6.07382 5.02652
#
# Compressibility (1/GPa) = 0.04584063
#
# Stress axis : x y z
#
# Youngs Moduli (GPa) = 20.77867 23.51212 142.15531
#
# Poissons Ratio (x) = 0.34471 1.22470
# Poissons Ratio (y) = 0.30464 0.37664
# Poissons Ratio (z) = 0.17901 0.06229
#
# Static dielectric constant tensor:
#      x y z
#    x 1.718140 0.000000 0.000000 
#    y 0.000000 1.690880 0.000000 
#    z 0.000000 0.000000 1.793670 
# 
# From -- ./inp_files/60374.got.cif
#   From: 2010.05.17/outbox.cif.g08.bks.cpg/sg71_31_cif.got.tgz:60374.got - 2010.06.03 16:22:01.
