data_PCOD9524141
_publ_section_title
;
Structure prediction by ZEFSAII (Michael W. Deem and Ramdas Pophale) SiO2 
 PCOD9524141
Probable space group: I M M M
;
_chemical_formula_sum "Si O2"
_cell_formula_units_Z 88
_cell_length_a 24.484244
_cell_length_b 7.644846
_cell_length_c 22.766815
_cell_angle_alpha 90.000000
_cell_angle_beta 90.000000
_cell_angle_gamma 90.000000
_cell_volume 4261.453155
_symmetry_space_group_name_H-M "I M M M"
_symmetry_group_IT_number 71
_symmetry_cell_setting 'orthorhombic'
loop_
_space_group_symop_operation_xyz
x,y,z
-x,-y,z
x,-y,-z
-x,y,-z
-x,-y,-z
x,y,-z
-x,y,z
x,-y,z
1/2+x,1/2+y,1/2+z
1/2-x,1/2-y,1/2+z
1/2+x,1/2-y,1/2-z
1/2-x,1/2+y,1/2-z
1/2-x,1/2-y,1/2-z
1/2+x,1/2+y,1/2-z
1/2-x,1/2+y,1/2+z
1/2+x,1/2-y,1/2+z
loop_
_atom_site_type_symbol
_atom_site_label
_atom_site_fract_x
_atom_site_fract_y
_atom_site_fract_z
Si Si1 0.348183 0.296765 0.659327
Si Si2 0.767018 0.211132 0.062515
Si Si3 0.563462 0.788740 0.434766
Si Si4 0.145914 0.710939 0.600613
Si Si5 0.436422 0.785355 0.000000
Si Si6 0.809015 0.303569 0.277196
O O1 0.337541 0.500000 0.672515
O O2 0.299339 0.222435 0.618817
O O3 0.400401 0.282025 0.617807
O O4 0.349182 0.204261 0.721645
O O5 0.703013 0.243080 0.067516
O O6 0.774616 0.000000 0.062923
O O7 0.787799 0.278631 0.000000
O O8 0.581348 0.729170 0.500000
O O9 0.500000 0.741610 0.428229
O O10 0.567029 0.000000 0.433801
O O11 0.137416 0.500000 0.604754
O O12 0.096751 0.773417 0.558637
O O13 0.160628 0.779954 0.666327
O O14 0.500000 0.733225 0.000000
O O15 0.435060 0.000000 0.000000
O O16 0.798084 0.500000 0.297326
O O17 0.750000 0.250000 0.250000
#
# Coordination Sequence:
#
# PCOD9524141 Si02
#       6
#    16  16  16  16   8  16
#     4  11  21  33  51  79 110 145 187 224 263 323
#     4   9  15  25  44  71 101 133 169 214 270 320
#     4   9  19  37  58  79 108 145 180 221 276 327
#     4   9  16  28  46  70 102 135 171 218 273 327
#     4   9  16  28  50  78 105 135 172 219 274 330
#     4  11  21  34  51  75 108 148 183 221 279 339
#
# _framework density 20.650231999999999
#
# number of rings (size 3 to 8) (size 9 to 14) (size 15 to 20)
#    0.000    2.273    2.727    2.182    0.000    1.455 
#    0.000    1.818    0.000    3.273    0.000    1.909 
#    0.000    2.909    0.000    0.000    0.000    0.000 
#
# Total GULP energy -245272.321123 kJ/mol
# GULP energy per Si atom -5574.370935 kJ/mol
# Density = 2.060323 g / cm^3
# Si number density = 20.650232 Si / 1000 Ang^3
#
#
#
# Elastic Constant Matrix: (Units=GPa)
#
#
# Indices 1 2 3 4 5 6 
#
# 1 112.3855 4.6430 67.6992 0.0000 0.0000 0.0000
# 2 4.6430 39.0024 3.1060 0.0000 0.0000 0.0000
# 3 67.6992 3.1060 189.0816 0.0000 0.0000 0.0000
# 4 0.0000 0.0000 0.0000 9.9636 0.0000 0.0000
# 5 0.0000 0.0000 0.0000 0.0000 5.8579 0.0000
# 6 0.0000 0.0000 0.0000 0.0000 0.0000 12.3702
#
#
#
# Elastic Compliance Matrix: (Units=1/GPa)
#
#
# Indices 1 2 3 4 5 6 
#
# 1 0.011386 -0.001032 -0.004060 0.000000 0.000000 0.000000
# 2 -0.001032 0.025767 -0.000054 0.000000 0.000000 0.000000
# 3 -0.004060 -0.000054 0.006743 0.000000 0.000000 0.000000
# 4 0.000000 0.000000 0.000000 0.100365 0.000000 0.000000
# 5 0.000000 0.000000 0.000000 0.000000 0.170711 0.000000
# 6 0.000000 0.000000 0.000000 0.000000 0.000000 0.080840
#
#
# Mechanical properties :
#
#
# Convention : Reuss Voigt Hill
#
# Bulk Modulus (GPa) = 29.75780 54.59622 42.17701
# Shear Modulus (GPa) = 11.98167 23.30643 17.64405
#
# Velocity S-wave (km/s) = 2.41139 3.36315 2.92622
# Velocity P-wave (km/s) = 4.71113 6.44802 5.64676
#
# Compressibility (1/GPa) = 0.03360463
#
# Stress axis : x y z
#
# Youngs Moduli (GPa) = 87.82628 38.80999 148.29825
#
# Poissons Ratio (x) = 0.04006 0.60205
# Poissons Ratio (y) = 0.09065 0.00796
# Poissons Ratio (z) = 0.35655 0.00208
#
# Static dielectric constant tensor:
#      x y z
#    x 1.726350 0.000000 0.000000 
#    y 0.000000 1.845420 0.000000 
#    z 0.000000 0.000000 1.787390 
# 
# From -- ./inp_files/55556.got.cif
#   From: 2010.05.17/outbox.cif.g08.bks.cpg/sg71_28_cif.got.tgz:55556.got - 2010.06.03 16:22:01.
