data_PCOD9524167
_publ_section_title
;
Structure prediction by ZEFSAII (Michael W. Deem and Ramdas Pophale) SiO2 
 PCOD9524167
Probable space group: I M M M
;
_chemical_formula_sum "Si O2"
_cell_formula_units_Z 96
_cell_length_a 25.038150
_cell_length_b 8.558914
_cell_length_c 21.504958
_cell_angle_alpha 90.000000
_cell_angle_beta 90.000000
_cell_angle_gamma 90.000000
_cell_volume 4608.499007
_symmetry_space_group_name_H-M "I M M M"
_symmetry_group_IT_number 71
_symmetry_cell_setting 'orthorhombic'
loop_
_space_group_symop_operation_xyz
x,y,z
-x,-y,z
x,-y,-z
-x,y,-z
-x,-y,-z
x,y,-z
-x,y,z
x,-y,z
1/2+x,1/2+y,1/2+z
1/2-x,1/2-y,1/2+z
1/2+x,1/2-y,1/2-z
1/2-x,1/2+y,1/2-z
1/2-x,1/2-y,1/2-z
1/2+x,1/2+y,1/2-z
1/2-x,1/2+y,1/2+z
1/2+x,1/2-y,1/2+z
loop_
_atom_site_type_symbol
_atom_site_label
_atom_site_fract_x
_atom_site_fract_y
_atom_site_fract_z
Si Si1 0.440358 0.813661 0.594328
Si Si2 0.058126 0.687353 0.757692
Si Si3 0.825829 0.814311 0.931876
Si Si4 0.744961 0.182097 0.679833
Si Si5 0.438964 0.319026 0.074146
Si Si6 0.143976 0.682655 0.337869
O O1 0.500000 0.764063 0.573850
O O2 0.438292 0.790560 0.668831
O O3 0.388466 0.728987 0.569013
O O4 0.436063 0.000000 0.582258
O O5 0.057270 0.500000 0.746659
O O6 0.110072 0.743958 0.721464
O O7 0.000000 0.750264 0.737103
O O8 0.797660 0.747617 0.869953
O O9 0.819441 0.000000 0.929655
O O10 0.804486 0.759001 0.000000
O O11 0.750000 0.250000 0.750000
O O12 0.802984 0.219711 0.651700
O O13 0.734101 0.000000 0.686214
O O14 0.500000 0.277535 0.089828
O O15 0.429791 0.500000 0.093417
O O16 0.397343 0.206446 0.106498
O O17 0.434083 0.313447 0.000000
O O18 0.157943 0.500000 0.329631
#
# Coordination Sequence:
#
# PCOD9524167 Si02
#       6
#    16  16  16  16  16  16
#     4   9  18  35  61  91 123 161 202 242 292 360
#     4   8  15  29  51  82 118 152 187 232 286 344
#     4  11  25  44  65  91 125 164 209 261 313 366
#     4  12  26  45  68  92 122 161 207 258 314 376
#     4   9  19  36  55  77 112 158 204 250 302 360
#     4  11  21  34  57  87 116 150 196 248 302 362
#
# _framework density 20.831075999999999
#
# number of rings (size 3 to 8) (size 9 to 14) (size 15 to 20)
#    0.000    2.000    0.000    5.500    0.000    5.333 
#    0.000    3.333    0.000    2.000    0.000    0.000 
#    0.000    0.000    0.000    0.000    0.000    0.000 
#
# Total GULP energy -267943.312874 kJ/mol
# GULP energy per Si atom -5582.152352 kJ/mol
# Density = 2.078366 g / cm^3
# Si number density = 20.831076 Si / 1000 Ang^3
#
#
#
# Elastic Constant Matrix: (Units=GPa)
#
#
# Indices 1 2 3 4 5 6 
#
# 1 105.5604 26.8405 46.3439 0.0000 0.0000 0.0000
# 2 26.8405 58.3770 41.9076 0.0000 0.0000 0.0000
# 3 46.3439 41.9076 110.8100 0.0000 0.0000 0.0000
# 4 0.0000 0.0000 0.0000 22.4633 0.0000 0.0000
# 5 0.0000 0.0000 0.0000 0.0000 44.5669 0.0000
# 6 0.0000 0.0000 0.0000 0.0000 0.0000 31.0073
#
#
#
# Elastic Compliance Matrix: (Units=1/GPa)
#
#
# Indices 1 2 3 4 5 6 
#
# 1 0.011885 -0.002603 -0.003986 0.000000 0.000000 0.000000
# 2 -0.002603 0.024084 -0.008020 0.000000 0.000000 0.000000
# 3 -0.003986 -0.008020 0.013725 0.000000 0.000000 0.000000
# 4 0.000000 0.000000 0.000000 0.044517 0.000000 0.000000
# 5 0.000000 0.000000 0.000000 0.000000 0.022438 0.000000
# 6 0.000000 0.000000 0.000000 0.000000 0.000000 0.032250
#
#
# Mechanical properties :
#
#
# Convention : Reuss Voigt Hill
#
# Bulk Modulus (GPa) = 48.83796 56.10349 52.47072
# Shear Modulus (GPa) = 27.03534 30.25117 28.64326
#
# Velocity S-wave (km/s) = 3.60646 3.81493 3.71216
# Velocity P-wave (km/s) = 6.39044 6.81146 6.60430
#
# Compressibility (1/GPa) = 0.02047588
#
# Stress axis : x y z
#
# Youngs Moduli (GPa) = 84.13834 41.52129 72.86128
#
# Poissons Ratio (x) = 0.10807 0.29045
# Poissons Ratio (y) = 0.21900 0.58434
# Poissons Ratio (z) = 0.33540 0.33299
#
# Static dielectric constant tensor:
#      x y z
#    x 1.755640 0.000000 0.000000 
#    y 0.000000 1.734840 0.000000 
#    z 0.000000 0.000000 1.785240 
# 
# From -- ./inp_files/61546.got.cif
#   From: 2010.05.17/outbox.cif.g08.bks.cpg/sg71_31_cif.got.tgz:61546.got - 2010.06.03 16:22:01.
