data_PCOD9524950
_publ_section_title
;
Structure prediction by ZEFSAII (Michael W. Deem and Ramdas Pophale) SiO2 
 PCOD9524950
Probable space group: I B A M
;
_chemical_formula_sum "Si O2"
_cell_formula_units_Z 112
_cell_length_a 17.207474
_cell_length_b 15.907716
_cell_length_c 20.272148
_cell_angle_alpha 90.000000
_cell_angle_beta 90.000000
_cell_angle_gamma 90.000000
_cell_volume 5549.127699
_symmetry_space_group_name_H-M "I B A M"
_symmetry_group_IT_number 72
_symmetry_cell_setting 'orthorhombic'
loop_
_space_group_symop_operation_xyz
x,y,z
-x,-y,z
x,-y,1/2-z
-x,y,1/2-z
-x,-y,-z
x,y,-z
-x,y,1/2+z
x,-y,1/2+z
1/2+x,1/2+y,1/2+z
1/2-x,1/2-y,1/2+z
1/2+x,1/2-y,-z
1/2-x,1/2+y,-z
1/2-x,1/2-y,1/2-z
1/2+x,1/2+y,1/2-z
1/2-x,1/2+y,z
1/2+x,1/2-y,z
loop_
_atom_site_type_symbol
_atom_site_label
_atom_site_fract_x
_atom_site_fract_y
_atom_site_fract_z
Si Si1 0.281088 0.202110 0.664506
Si Si2 0.416974 0.174701 0.573562
Si Si3 0.349596 0.609444 0.185027
Si Si4 0.686145 0.079752 0.286491
Si Si5 0.963318 0.350375 0.180908
Si Si6 0.101177 0.835025 0.825368
Si Si7 0.528838 0.628588 0.423916
O O1 0.331079 0.168553 0.603595
O O2 0.313328 0.296605 0.674423
O O3 0.302748 0.151205 0.730658
O O4 0.189138 0.191431 0.655726
O O5 0.421392 0.142068 0.500000
O O6 0.475591 0.132459 0.624192
O O7 0.444344 0.272975 0.572866
O O8 0.270725 0.555615 0.185997
O O9 0.390703 0.612840 0.256890
O O10 0.407889 0.588847 0.126028
O O11 0.620506 0.111221 0.335296
O O12 0.652852 0.000000 0.250000
O O13 0.946346 0.250620 0.188751
O O14 0.000000 0.378985 0.250000
O O15 0.053128 0.876613 0.885089
O O16 0.526997 0.599056 0.500000
#
# Coordination Sequence:
#
# PCOD9524950 Si02
#       7
#    16  16  16  16  16  16  16
#     4  10  17  32  52  73 101 135 172 212 264 304
#     4   9  18  30  47  74 107 139 173 212 254 307
#     4  10  17  33  53  74 102 138 168 216 264 309
#     4  11  21  32  51  80 102 127 176 220 257 305
#     4  11  17  31  50  74 103 135 168 213 258 305
#     4  10  16  27  53  77 101 131 172 211 260 314
#     4   9  18  29  47  79 108 132 167 216 266 310
#
# _framework density 20.183351999999999
#
# number of rings (size 3 to 8) (size 9 to 14) (size 15 to 20)
#    0.000    2.000    4.286    3.000    0.000    0.857 
#    0.000    0.714    0.000    9.429    0.000    4.000 
#    0.000    0.000    0.000    0.000    0.000    0.000 
#
# Total GULP energy -312413.932064 kJ/mol
# GULP energy per Si atom -5578.820215 kJ/mol
# Density = 2.013741 g / cm^3
# Si number density = 20.183352 Si / 1000 Ang^3
#
#
#
# Elastic Constant Matrix: (Units=GPa)
#
#
# Indices 1 2 3 4 5 6 
#
# 1 134.7340 8.9613 94.4342 0.0000 0.0000 0.0000
# 2 8.9613 18.5158 -2.5071 0.0000 0.0000 0.0000
# 3 94.4342 -2.5071 171.3195 0.0000 0.0000 0.0000
# 4 0.0000 0.0000 0.0000 0.1976 0.0000 0.0000
# 5 0.0000 0.0000 0.0000 0.0000 25.2412 0.0000
# 6 0.0000 0.0000 0.0000 0.0000 0.0000 -6.0331
#
#
#
# Elastic Compliance Matrix: (Units=1/GPa)
#
#
# Indices 1 2 3 4 5 6 
#
# 1 0.013005 -0.007280 -0.007275 0.000000 0.000000 0.000000
# 2 -0.007280 0.058190 0.004864 0.000001 0.000000 0.000000
# 3 -0.007275 0.004864 0.009919 0.000000 0.000000 0.000000
# 4 0.000000 0.000001 0.000000 5.060378 0.000000 0.000000
# 5 0.000000 0.000000 0.000000 0.000000 0.039618 0.000000
# 6 0.000000 0.000000 0.000000 0.000000 0.000000 -0.165751
#
#
# Mechanical properties :
#
#
# Convention : Reuss Voigt Hill
#
# Bulk Modulus (GPa) = 16.19895 58.48289 37.34092
# Shear Modulus (GPa) = 0.98906 18.79318 9.89112
#
# Velocity S-wave (km/s) = 0.70079 3.05474 2.21614
# Velocity P-wave (km/s) = 2.94926 6.44055 5.00893
#
# Compressibility (1/GPa) = 0.06173240
#
# Stress axis : x y z
#
# Youngs Moduli (GPa) = 76.89078 17.18512 100.82137
#
# Poissons Ratio (x) = 0.12510 0.73351
# Poissons Ratio (y) = 0.55973 -0.49041
# Poissons Ratio (z) = 0.55941 -0.08359
#
# Static dielectric constant tensor:
#      x y z
#    x 1.743790 0.000000 0.000000 
#    y 0.000000 1.753580 0.000000 
#    z 0.000000 0.000000 1.035150 
# 
# From -- ./inp_files/39184.got.cif
#   From: 2010.05.17/outbox.cif.g08.bks.cpg/sg72_20_cif.got.tgz:39184.got - 2010.06.03 17:03:01.
