data_PCOD9524506
_publ_section_title
;
Structure prediction by ZEFSAII (Michael W. Deem and Ramdas Pophale) SiO2 
 PCOD9524506
Probable space group: I M M M
;
_chemical_formula_sum "Si O2"
_cell_formula_units_Z 80
_cell_length_a 7.499049
_cell_length_b 24.038261
_cell_length_c 22.844050
_cell_angle_alpha 90.000000
_cell_angle_beta 90.000000
_cell_angle_gamma 90.000000
_cell_volume 4117.962048
_symmetry_space_group_name_H-M "I M M M"
_symmetry_group_IT_number 71
_symmetry_cell_setting 'orthorhombic'
loop_
_space_group_symop_operation_xyz
x,y,z
-x,-y,z
x,-y,-z
-x,y,-z
-x,-y,-z
x,y,-z
-x,y,z
x,-y,z
1/2+x,1/2+y,1/2+z
1/2-x,1/2-y,1/2+z
1/2+x,1/2-y,1/2-z
1/2-x,1/2+y,1/2-z
1/2-x,1/2-y,1/2-z
1/2+x,1/2+y,1/2-z
1/2-x,1/2+y,1/2+z
1/2+x,1/2-y,1/2+z
loop_
_atom_site_type_symbol
_atom_site_label
_atom_site_fract_x
_atom_site_fract_y
_atom_site_fract_z
Si Si1 0.293148 0.932453 0.000000
Si Si2 0.290476 0.149029 0.568215
Si Si3 0.000000 0.938089 0.428834
Si Si4 0.704214 0.842999 0.219842
Si Si5 0.715553 0.774254 0.670567
Si Si6 0.718834 0.935167 0.870222
O O1 0.219664 0.917022 0.064226
O O2 0.500000 0.914543 0.000000
O O3 0.290818 0.000000 0.000000
O O4 0.255710 0.159335 0.500000
O O5 0.500000 0.137486 0.575683
O O6 0.243306 0.201585 0.607431
O O7 0.173360 0.096886 0.587673
O O8 0.000000 0.941270 0.500000
O O9 0.000000 0.000000 0.405161
O O10 0.500000 0.859067 0.232801
O O11 0.780636 0.819311 0.281026
O O12 0.708136 0.786475 0.181781
O O13 0.780005 0.893285 0.180927
O O14 0.500000 0.769832 0.677247
O O15 0.500000 0.933581 0.871540
O O16 0.768171 0.000000 0.860806
#
# Coordination Sequence:
#
# PCOD9524506 Si02
#       6
#     8  16   8  16  16  16
#     4   7  10  18  34  56  87 121 141 169 225 278
#     4   9  18  33  52  73 101 135 167 208 256 296
#     4   9  18  32  52  78 104 132 167 204 250 308
#     4   9  17  29  47  70  91 122 162 198 242 289
#     4   9  18  32  47  66  93 127 163 198 242 296
#     4   8  13  23  40  63  92 120 148 187 234 284
#
# _framework density 19.427084000000001
#
# number of rings (size 3 to 8) (size 9 to 14) (size 15 to 20)
#    0.000    3.400    0.000    1.200    1.400    0.400 
#    1.800    3.000    0.000    4.200    0.000    0.000 
#    0.000    2.400    0.000    0.000    0.000    0.000 
#
# Total GULP energy -222685.185725 kJ/mol
# GULP energy per Si atom -5567.129643 kJ/mol
# Density = 1.938287 g / cm^3
# Si number density = 19.427084 Si / 1000 Ang^3
#
#
#
# Elastic Constant Matrix: (Units=GPa)
#
#
# Indices 1 2 3 4 5 6 
#
# 1 41.3086 6.8548 19.8401 0.0000 0.0000 0.0000
# 2 6.8548 75.7450 53.2439 0.0000 0.0000 0.0000
# 3 19.8401 53.2439 59.7446 0.0000 0.0000 0.0000
# 4 0.0000 0.0000 0.0000 28.2692 0.0000 0.0000
# 5 0.0000 0.0000 0.0000 0.0000 -8.9724 0.0000
# 6 0.0000 0.0000 0.0000 0.0000 0.0000 35.5035
#
#
#
# Elastic Compliance Matrix: (Units=1/GPa)
#
#
# Indices 1 2 3 4 5 6 
#
# 1 0.032704 0.012514 -0.022013 0.000000 0.000000 0.000000
# 2 0.012514 0.040131 -0.039920 0.000000 0.000000 0.000000
# 3 -0.022013 -0.039920 0.059624 0.000000 0.000000 0.000000
# 4 0.000000 0.000000 0.000000 0.035374 0.000000 0.000000
# 5 0.000000 0.000000 0.000000 0.000000 -0.111453 0.000000
# 6 0.000000 0.000000 0.000000 0.000000 0.000000 0.028166
#
#
# Mechanical properties :
#
#
# Convention : Reuss Voigt Hill
#
# Bulk Modulus (GPa) = 29.74280 37.40843 33.57561
# Shear Modulus (GPa) = 25.69504 17.41735 21.55619
#
# Velocity S-wave (km/s) = 3.64076 2.99749 3.33467
# Velocity P-wave (km/s) = 5.74601 5.59263 5.66984
#
# Compressibility (1/GPa) = 0.03362159
#
# Stress axis : x y z
#
# Youngs Moduli (GPa) = 30.57739 24.91853 16.77175
#
# Poissons Ratio (x) = -0.31182 0.36919
# Poissons Ratio (y) = -0.38264 0.66953
# Poissons Ratio (z) = 0.67309 0.99474
#
# Static dielectric constant tensor:
#      x y z
#    x 1.740490 0.000000 0.000000 
#    y 0.000000 1.639780 0.000000 
#    z 0.000000 0.000000 1.711730 
# 
# From -- ./inp_files/57697.got.cif
#   From: 2010.05.17/outbox.cif.g08.bks.cpg/sg71_29_cif.got.tgz:57697.got - 2010.06.03 16:22:01.
