data_PCOD9524810
_publ_section_title
;
Structure prediction by ZEFSAII (Michael W. Deem and Ramdas Pophale) SiO2 
 PCOD9524810
Probable space group: I M M M
;
_chemical_formula_sum "Si O2"
_cell_formula_units_Z 52
_cell_length_a 9.000000
_cell_length_b 21.000000
_cell_length_c 27.000000
_cell_angle_alpha 90.000000
_cell_angle_beta 90.000000
_cell_angle_gamma 90.000000
_cell_volume 5103.000000
_symmetry_space_group_name_H-M "I M M M"
_symmetry_group_IT_number 71
_symmetry_cell_setting 'orthorhombic'
loop_
_space_group_symop_operation_xyz
x,y,z
-x,-y,z
x,-y,-z
-x,y,-z
-x,-y,-z
x,y,-z
-x,y,z
x,-y,z
1/2+x,1/2+y,1/2+z
1/2-x,1/2-y,1/2+z
1/2+x,1/2-y,1/2-z
1/2-x,1/2+y,1/2-z
1/2-x,1/2-y,1/2-z
1/2+x,1/2+y,1/2-z
1/2-x,1/2+y,1/2+z
1/2+x,1/2-y,1/2+z
loop_
_atom_site_type_symbol
_atom_site_label
_atom_site_fract_x
_atom_site_fract_y
_atom_site_fract_z
Si Si1 0.823414 0.565604 0.862245
Si Si2 0.167159 0.251117 0.059231
Si Si3 0.323049 0.184007 0.693780
Si Si4 0.673378 0.614338 0.604902
Si Si5 0.664501 0.622344 0.941335
Si Si6 0.824499 0.823234 0.202483
Si Si7 0.174476 0.500000 0.554199
O O1 0.765237 0.500000 0.840930
O O2 0.756178 0.627039 0.836962
O O3 0.780520 0.573553 0.918832
O O4 0.000000 0.566158 0.856948
O O5 0.202443 0.182260 0.080020
O O6 0.281222 0.306520 0.070952
O O7 0.000000 0.269258 0.077020
O O8 0.161348 0.246326 0.000000
O O9 0.500000 0.180791 0.691111
O O10 0.272242 0.172856 0.749314
O O11 0.283006 0.255170 0.678396
O O12 0.500000 0.599558 0.596398
O O13 0.698085 0.622200 0.663091
O O14 0.774198 0.561722 0.582294
O O15 0.500000 0.609238 0.922239
O O16 0.662872 0.617785 0.000000
O O17 0.000000 0.820235 0.214832
O O18 0.245092 0.500000 0.500000
O O19 0.000000 0.500000 0.550107
#
# Coordination Sequence:
#
# PCOD9524810 Si02
#       7
#    16  16  16  16  16  16   8
#     4  10  21  37  56  77 103 140 184 224 264 314
#     4   9  17  31  54  81 106 137 179 224 269 318
#     4   9  18  35  57  81 110 141 175 220 272 326
#     4  10  20  36  58  82 109 145 187 229 275 331
#     4  10  21  35  52  78 111 143 175 218 271 322
#     4   9  18  33  56  84 110 137 174 222 274 325
#     4  11  25  41  55  77 113 153 193 239 288 339
#
# _framework density 10.190084000000001
#
# number of rings (size 3 to 8) (size 9 to 14) (size 15 to 20)
#    0.000    2.385    0.000    2.077    0.000    7.077 
#    1.385    6.154    0.000    0.000    0.000    0.000 
#    0.000    0.000    0.000    0.000    0.000    0.000 
#
# Total GULP energy -289505.618753 kJ/mol
# GULP energy per Si atom -5567.415745 kJ/mol
# Density = 1.016689 g / cm^3
# Si number density = 10.190084 Si / 1000 Ang^3
#
#
#
# Elastic Constant Matrix: (Units=GPa)
#
#
# Indices 1 2 3 4 5 6 
#
# 1 -48.7756 56.2385 32.6137 0.0000 0.0000 0.0000
# 2 56.2385 19.2251 57.5793 0.0000 0.0000 0.0000
# 3 32.6137 57.5793 47.4269 0.0000 0.0000 0.0000
# 4 0.0000 0.0000 0.0000 -50.6905 0.0000 0.0000
# 5 0.0000 0.0000 0.0000 0.0000 14.4848 0.0000
# 6 0.0000 0.0000 0.0000 0.0000 0.0000 4.8952
#
#
#
# Elastic Compliance Matrix: (Units=1/GPa)
#
#
# Indices 1 2 3 4 5 6 
#
# 1 -0.015212 -0.004996 0.016526 0.000000 0.000000 0.000000
# 2 -0.004996 -0.021372 0.029383 0.000000 0.000000 0.000000
# 3 0.016526 0.029383 -0.025952 0.000000 0.000000 0.000000
# 4 0.000000 0.000000 0.000000 -0.019728 0.000000 0.000000
# 5 0.000000 0.000000 0.000000 0.000000 0.069038 0.000000
# 6 0.000000 0.000000 0.000000 0.000000 0.000000 0.204283
#
#
# Mechanical properties :
#
#
# Convention : Reuss Voigt Hill
#
# Bulk Modulus (GPa) = 51.84102 34.52659 43.18381
# Shear Modulus (GPa) = 43.22956 -14.83246 14.19855
#
# Velocity S-wave (km/s) = 4.61060 -2.70068 2.64234
# Velocity P-wave (km/s) = 7.33728 2.69316 5.52670
#
# Compressibility (1/GPa) = 0.01928974
#
# Stress axis : x y z
#
# Youngs Moduli (GPa) = -65.73708 -46.78963 -38.53326
#
# Poissons Ratio (x) = -0.23375 0.63680
# Poissons Ratio (y) = -0.32840 1.13221
# Poissons Ratio (z) = 1.08636 1.37480
#
# Static dielectric constant tensor:
#      x y z
#    x 1.712590 0.000000 0.000000 
#    y 0.000000 1.750590 0.000000 
#    z 0.000000 0.000000 1.756030 
# 
# From -- ./inp_files/11126.got.cif
#   From: 2010.05.17/outbox.ucp.g08.bks.cvg/sg71_6_cif.got.tgz:11126.got - 2010.06.11 16:29:00.
