data_PCOD9524990
_publ_section_title
;
Structure prediction by ZEFSAII (Michael W. Deem and Ramdas Pophale) SiO2 
 PCOD9524990
Probable space group: I B A M
;
_chemical_formula_sum "Si O2"
_cell_formula_units_Z 84
_cell_length_a 26.353671
_cell_length_b 12.072108
_cell_length_c 15.137224
_cell_angle_alpha 90.000000
_cell_angle_beta 90.000000
_cell_angle_gamma 90.000000
_cell_volume 4815.822480
_symmetry_space_group_name_H-M "I B A M"
_symmetry_group_IT_number 72
_symmetry_cell_setting 'orthorhombic'
loop_
_space_group_symop_operation_xyz
x,y,z
-x,-y,z
x,-y,1/2-z
-x,y,1/2-z
-x,-y,-z
x,y,-z
-x,y,1/2+z
x,-y,1/2+z
1/2+x,1/2+y,1/2+z
1/2-x,1/2-y,1/2+z
1/2+x,1/2-y,-z
1/2-x,1/2+y,-z
1/2-x,1/2-y,1/2-z
1/2+x,1/2+y,1/2-z
1/2-x,1/2+y,z
1/2+x,1/2-y,z
loop_
_atom_site_type_symbol
_atom_site_label
_atom_site_fract_x
_atom_site_fract_y
_atom_site_fract_z
Si Si1 0.660415 0.874180 0.603934
Si Si2 0.803028 0.187187 0.271589
Si Si3 0.576318 0.064578 0.602506
Si Si4 0.661889 0.752851 0.096306
Si Si5 0.000000 0.500000 0.250000
Si Si6 0.246300 0.449115 0.599281
O O1 0.661488 0.843099 0.500000
O O2 0.663482 0.770706 0.668669
O O3 0.613163 0.957589 0.617079
O O4 0.711292 0.946183 0.621599
O O5 0.750000 0.250000 0.250000
O O6 0.829596 0.172607 0.177803
O O7 0.787961 0.082596 0.329876
O O8 0.557591 0.057411 0.500000
O O9 0.611835 0.172550 0.606993
O O10 0.535488 0.065983 0.680635
O O11 0.706979 0.844986 0.096667
O O12 0.662203 0.699337 0.000000
O O13 0.266130 0.462272 0.500000
#
# Coordination Sequence:
#
# PCOD9524990 Si02
#       6
#    16  16  16  16   4  16
#     4   9  17  30  43  55  79 110 136 166 205 241
#     4  10  17  23  39  59  74  97 135 172 201 231
#     4   9  18  29  40  54  74 103 135 167 203 242
#     4   8  15  27  37  48  71  99 126 158 195 230
#     4  12  18  24  40  58  76  92 130 178 212 238
#     4   8  15  26  39  56  75  96 130 171 199 228
#
# _framework density 17.442502999999999
#
# number of rings (size 3 to 8) (size 9 to 14) (size 15 to 20)
#    0.000    3.048    0.000    4.286    0.000    6.857 
#    0.000    0.000    0.000    1.143    0.000    0.000 
#    0.000    0.000    0.000    0.000    0.000  243.810 
#
# Total GULP energy -234146.261289 kJ/mol
# GULP energy per Si atom -5574.910983 kJ/mol
# Density = 1.740280 g / cm^3
# Si number density = 17.442503 Si / 1000 Ang^3
#
#
#
# Elastic Constant Matrix: (Units=GPa)
#
#
# Indices 1 2 3 4 5 6 
#
# 1 50.4828 16.1052 61.9052 0.0000 0.0000 0.0000
# 2 16.1052 31.6196 45.2719 0.0000 0.0000 0.0000
# 3 61.9052 45.2719 160.0049 0.0000 0.0000 0.0000
# 4 0.0000 0.0000 0.0000 15.6939 0.0000 0.0000
# 5 0.0000 0.0000 0.0000 0.0000 35.9452 0.0000
# 6 0.0000 0.0000 0.0000 0.0000 0.0000 9.6536
#
#
#
# Elastic Compliance Matrix: (Units=1/GPa)
#
#
# Indices 1 2 3 4 5 6 
#
# 1 0.037841 0.002837 -0.015443 0.000000 0.000000 0.000000
# 2 0.002837 0.053375 -0.016200 0.000000 0.000000 0.000000
# 3 -0.015443 -0.016200 0.016808 0.000000 0.000000 0.000000
# 4 0.000000 0.000000 0.000000 0.063719 0.000000 0.000000
# 5 0.000000 0.000000 0.000000 0.000000 0.027820 0.000000
# 6 0.000000 0.000000 0.000000 0.000000 0.000000 0.103588
#
#
# Mechanical properties :
#
#
# Convention : Reuss Voigt Hill
#
# Bulk Modulus (GPa) = 19.83622 54.29687 37.06655
# Shear Modulus (GPa) = 13.24264 20.18019 16.71142
#
# Velocity S-wave (km/s) = 2.75838 3.40509 3.09865
# Velocity P-wave (km/s) = 4.64133 6.83053 5.83944
#
# Compressibility (1/GPa) = 0.05041283
#
# Stress axis : x y z
#
# Youngs Moduli (GPa) = 26.42620 18.73536 59.49439
#
# Poissons Ratio (x) = -0.05315 0.91879
# Poissons Ratio (y) = -0.07497 0.96379
# Poissons Ratio (z) = 0.40811 0.30351
#
# Static dielectric constant tensor:
#      x y z
#    x 1.593220 0.000000 0.000000 
#    y 0.000000 1.599810 0.000000 
#    z 0.000000 0.000000 1.655090 
# 
# From -- ./inp_files/25091.got.cif
#   From: 2010.05.17/outbox.cif.g08.bks.cpg/sg72_13_cif.got.tgz:25091.got - 2010.06.03 17:03:01.
