data_PCOD9524588
_publ_section_title
;
Structure prediction by ZEFSAII (Michael W. Deem and Ramdas Pophale) SiO2 
 PCOD9524588
Probable space group: I M M M
;
_chemical_formula_sum "Si O2"
_cell_formula_units_Z 96
_cell_length_a 22.071558
_cell_length_b 22.194666
_cell_length_c 9.355053
_cell_angle_alpha 90.000000
_cell_angle_beta 90.000000
_cell_angle_gamma 90.000000
_cell_volume 4582.767839
_symmetry_space_group_name_H-M "I M M M"
_symmetry_group_IT_number 71
_symmetry_cell_setting 'orthorhombic'
loop_
_space_group_symop_operation_xyz
x,y,z
-x,-y,z
x,-y,-z
-x,y,-z
-x,-y,-z
x,y,-z
-x,y,z
x,-y,z
1/2+x,1/2+y,1/2+z
1/2-x,1/2-y,1/2+z
1/2+x,1/2-y,1/2-z
1/2-x,1/2+y,1/2-z
1/2-x,1/2-y,1/2-z
1/2+x,1/2+y,1/2-z
1/2-x,1/2+y,1/2+z
1/2+x,1/2-y,1/2+z
loop_
_atom_site_type_symbol
_atom_site_label
_atom_site_fract_x
_atom_site_fract_y
_atom_site_fract_z
Si Si1 0.240183 0.691161 0.659407
Si Si2 0.405117 0.816559 0.836311
Si Si3 0.926042 0.933170 0.164382
Si Si4 0.398339 0.066658 0.328888
Si Si5 0.072241 0.182908 0.338820
Si Si6 0.268309 0.064687 0.827524
O O1 0.263413 0.701853 0.500000
O O2 0.250000 0.750000 0.750000
O O3 0.167780 0.681405 0.655456
O O4 0.264615 0.626669 0.712461
O O5 0.426113 0.874190 0.745674
O O6 0.418615 0.749930 0.776314
O O7 0.428165 0.819679 0.000000
O O8 0.905778 0.874683 0.251248
O O9 0.000000 0.931703 0.161538
O O10 0.909878 0.000000 0.220521
O O11 0.905117 0.929091 0.000000
O O12 0.396241 0.074499 0.500000
O O13 0.330681 0.063296 0.261714
O O14 0.425643 0.000000 0.299917
O O15 0.098346 0.183714 0.500000
O O16 0.000000 0.175621 0.350084
O O17 0.237475 0.000000 0.804240
O O18 0.280683 0.068656 0.000000
#
# Coordination Sequence:
#
# PCOD9524588 Si02
#       6
#    16  16  16  16  16  16
#     4   9  17  28  43  63  86 112 140 171 208 250
#     4   9  18  31  45  63  88 116 143 173 214 259
#     4   8  14  25  41  62  88 115 142 174 213 255
#     4   9  16  25  40  64  88 108 138 179 214 247
#     4   9  17  29  46  67  88 111 143 181 215 250
#     4   8  14  26  43  61  82 109 140 174 213 252
#
# _framework density 20.948039999999999
#
# number of rings (size 3 to 8) (size 9 to 14) (size 15 to 20)
#    0.000    3.333    0.000    2.000    0.000    4.667 
#    0.000    1.667    0.000    1.500    0.000    8.167 
#    0.000    0.000    0.000    0.000    0.000    0.000 
#
# Total GULP energy -267237.896022 kJ/mol
# GULP energy per Si atom -5567.456167 kJ/mol
# Density = 2.090036 g / cm^3
# Si number density = 20.948040 Si / 1000 Ang^3
#
#
#
# Elastic Constant Matrix: (Units=GPa)
#
#
# Indices 1 2 3 4 5 6 
#
# 1 46.5144 6.4014 3.4802 0.0000 0.0000 0.0000
# 2 6.4014 292.0304 94.5391 0.0000 0.0000 0.0000
# 3 3.4802 94.5391 59.8017 0.0000 0.0000 0.0000
# 4 0.0000 0.0000 0.0000 39.6795 0.0000 0.0000
# 5 0.0000 0.0000 0.0000 0.0000 2.9075 0.0000
# 6 0.0000 0.0000 0.0000 0.0000 0.0000 18.6579
#
#
#
# Elastic Compliance Matrix: (Units=1/GPa)
#
#
# Indices 1 2 3 4 5 6 
#
# 1 0.021595 -0.000136 -0.001041 0.000000 0.000000 0.000000
# 2 -0.000136 0.007015 -0.011081 0.000000 0.000000 0.000000
# 3 -0.001041 -0.011081 0.034301 0.000000 0.000000 0.000000
# 4 0.000000 0.000000 0.000000 0.025202 0.000000 0.000000
# 5 0.000000 0.000000 0.000000 0.000000 0.343933 0.000000
# 6 0.000000 0.000000 0.000000 0.000000 0.000000 0.053597
#
#
# Mechanical properties :
#
#
# Convention : Reuss Voigt Hill
#
# Bulk Modulus (GPa) = 26.04649 67.46532 46.75590
# Shear Modulus (GPa) = 9.56099 31.84405 20.70252
#
# Velocity S-wave (km/s) = 2.13870 3.90313 3.14710
# Velocity P-wave (km/s) = 4.30808 7.25180 5.96440
#
# Compressibility (1/GPa) = 0.03839289
#
# Stress axis : x y z
#
# Youngs Moduli (GPa) = 46.30622 142.55832 29.15377
#
# Poissons Ratio (x) = 0.01943 0.03036
# Poissons Ratio (y) = 0.00631 0.32306
# Poissons Ratio (z) = 0.04822 1.57975
#
# Static dielectric constant tensor:
#      x y z
#    x 1.830800 0.000000 0.000000 
#    y 0.000000 1.831890 0.000000 
#    z 0.000000 0.000000 1.727950 
# 
# From -- ./inp_files/10886.got.cif
#   From: 2010.05.17/outbox.cif.g08.bks.cpg/sg71_6_cif.got.tgz:10886.got - 2010.06.03 16:22:01.
