data_PCOD9524479
_publ_section_title
;
Structure prediction by ZEFSAII (Michael W. Deem and Ramdas Pophale) SiO2 
 PCOD9524479
Probable space group: I M M M
;
_chemical_formula_sum "Si O2"
_cell_formula_units_Z 82
_cell_length_a 11.799462
_cell_length_b 20.410531
_cell_length_c 18.332612
_cell_angle_alpha 90.000000
_cell_angle_beta 90.000000
_cell_angle_gamma 90.000000
_cell_volume 4415.103169
_symmetry_space_group_name_H-M "I M M M"
_symmetry_group_IT_number 71
_symmetry_cell_setting 'orthorhombic'
loop_
_space_group_symop_operation_xyz
x,y,z
-x,-y,z
x,-y,-z
-x,y,-z
-x,-y,-z
x,y,-z
-x,y,z
x,-y,z
1/2+x,1/2+y,1/2+z
1/2-x,1/2-y,1/2+z
1/2+x,1/2-y,1/2-z
1/2-x,1/2+y,1/2-z
1/2-x,1/2-y,1/2-z
1/2+x,1/2+y,1/2-z
1/2-x,1/2+y,1/2+z
1/2+x,1/2-y,1/2+z
loop_
_atom_site_type_symbol
_atom_site_label
_atom_site_fract_x
_atom_site_fract_y
_atom_site_fract_z
Si Si1 0.769901 0.572669 0.284826
Si Si2 0.864082 0.889636 0.918618
Si Si3 0.000000 0.391268 0.367242
Si Si4 0.500000 0.000000 0.000000
Si Si5 0.634602 0.237762 0.579437
Si Si6 0.287267 0.693679 0.191929
Si Si7 0.500000 0.260666 0.089888
O O1 0.782168 0.500000 0.252765
O O2 0.693652 0.569407 0.357069
O O3 0.706353 0.625380 0.234080
O O4 0.890251 0.598145 0.315600
O O5 0.831261 0.813300 0.906585
O O6 0.000000 0.893670 0.915942
O O7 0.827141 0.908344 0.000000
O O8 0.000000 0.317868 0.399574
O O9 0.000000 0.442723 0.434313
O O10 0.679154 0.220118 0.500000
O O11 0.500000 0.238259 0.578061
O O12 0.680009 0.189829 0.639131
O O13 0.250000 0.750000 0.250000
O O14 0.391579 0.712816 0.137963
O O15 0.500000 0.274464 0.000000
#
# Coordination Sequence:
#
# PCOD9524479 Si02
#       7
#    16  16   8   2  16  16   8
#     4  12  26  40  58  89 132 170 213 261 325 384
#     4   9  19  35  57  85 119 160 202 245 299 376
#     4  12  24  40  64  97 134 182 212 254 322 416
#     4  12  24  40  64  96 150 188 204 236 336 438
#     4   9  18  35  61  89 118 152 199 257 314 368
#     4  12  24  38  65  92 127 168 220 268 319 374
#     4  12  26  44  69 100 134 172 229 279 326 390
#
# _framework density 18.572611999999999
#
# number of rings (size 3 to 8) (size 9 to 14) (size 15 to 20)
#    0.000    1.171    5.366    1.756    5.463    2.341 
#    0.000    0.976    0.000    2.927    0.000    1.366 
#    0.000    0.000    0.000    0.000    0.000    0.000 
#
# Total GULP energy -228323.810004 kJ/mol
# GULP energy per Si atom -5568.873415 kJ/mol
# Density = 1.853034 g / cm^3
# Si number density = 18.572612 Si / 1000 Ang^3
#
#
#
# Elastic Constant Matrix: (Units=GPa)
#
#
# Indices 1 2 3 4 5 6 
#
# 1 49.7564 30.3765 42.1816 0.0000 0.0000 0.0000
# 2 30.3765 101.8427 58.8711 0.0000 0.0000 0.0000
# 3 42.1816 58.8711 109.9483 0.0000 0.0000 0.0000
# 4 0.0000 0.0000 0.0000 16.9927 0.0000 0.0000
# 5 0.0000 0.0000 0.0000 0.0000 31.1348 0.0000
# 6 0.0000 0.0000 0.0000 0.0000 0.0000 44.6796
#
#
#
# Elastic Compliance Matrix: (Units=1/GPa)
#
#
# Indices 1 2 3 4 5 6 
#
# 1 0.030571 -0.003387 -0.009915 0.000000 0.000000 0.000000
# 2 -0.003387 0.014596 -0.006516 0.000000 0.000000 0.000000
# 3 -0.009915 -0.006516 0.016388 0.000000 0.000000 0.000000
# 4 0.000000 0.000000 0.000000 0.058849 0.000000 0.000000
# 5 0.000000 0.000000 0.000000 0.000000 0.032118 0.000000
# 6 0.000000 0.000000 0.000000 0.000000 0.000000 0.022382
#
#
# Mechanical properties :
#
#
# Convention : Reuss Voigt Hill
#
# Bulk Modulus (GPa) = 45.62190 58.26729 51.94459
# Shear Modulus (GPa) = 22.53814 27.23598 24.88706
#
# Velocity S-wave (km/s) = 3.48733 3.83359 3.66455
# Velocity P-wave (km/s) = 6.39005 7.14395 6.77749
#
# Compressibility (1/GPa) = 0.02191930
#
# Stress axis : x y z
#
# Youngs Moduli (GPa) = 32.71036 68.51279 61.02025
#
# Poissons Ratio (x) = 0.23205 0.60503
# Poissons Ratio (y) = 0.11079 0.39760
# Poissons Ratio (z) = 0.32433 0.44642
#
# Static dielectric constant tensor:
#      x y z
#    x 1.691120 0.000000 0.000000 
#    y 0.000000 1.730270 0.000000 
#    z 0.000000 0.000000 1.693690 
# 
# From -- ./inp_files/43322.got.cif
#   From: 2010.05.17/outbox.cif.g08.bks.cpg/sg71_22_cif.got.tgz:43322.got - 2010.06.03 16:22:01.
