data_PCOD9524218
_publ_section_title
;
Structure prediction by ZEFSAII (Michael W. Deem and Ramdas Pophale) SiO2 
 PCOD9524218
Probable space group: I M M M
;
_chemical_formula_sum "Si O2"
_cell_formula_units_Z 80
_cell_length_a 11.860699
_cell_length_b 14.901284
_cell_length_c 23.608145
_cell_angle_alpha 90.000000
_cell_angle_beta 90.000000
_cell_angle_gamma 90.000000
_cell_volume 4172.495148
_symmetry_space_group_name_H-M "I M M M"
_symmetry_group_IT_number 71
_symmetry_cell_setting 'orthorhombic'
loop_
_space_group_symop_operation_xyz
x,y,z
-x,-y,z
x,-y,-z
-x,y,-z
-x,-y,-z
x,y,-z
-x,y,z
x,-y,z
1/2+x,1/2+y,1/2+z
1/2-x,1/2-y,1/2+z
1/2+x,1/2-y,1/2-z
1/2-x,1/2+y,1/2-z
1/2-x,1/2-y,1/2-z
1/2+x,1/2+y,1/2-z
1/2-x,1/2+y,1/2+z
1/2+x,1/2-y,1/2+z
loop_
_atom_site_type_symbol
_atom_site_label
_atom_site_fract_x
_atom_site_fract_y
_atom_site_fract_z
Si Si1 0.632257 0.899668 0.146499
Si Si2 0.253606 0.644895 0.761479
Si Si3 0.500000 0.395549 0.734213
Si Si4 0.635371 0.897593 0.379444
Si Si5 0.280726 0.715701 0.434435
Si Si6 0.500000 0.609177 0.395530
O O1 0.500000 0.884447 0.157782
O O2 0.701186 0.898244 0.205118
O O3 0.684182 0.824997 0.105677
O O4 0.645238 0.000000 0.121476
O O5 0.250000 0.750000 0.750000
O O6 0.385750 0.624939 0.766705
O O7 0.184403 0.615998 0.816305
O O8 0.500000 0.500000 0.723251
O O9 0.500000 0.356654 0.670283
O O10 0.500000 0.888141 0.378655
O O11 0.686331 0.816800 0.416400
O O12 0.661453 0.000000 0.398059
O O13 0.249322 0.712605 0.500000
O O14 0.389361 0.651972 0.423513
O O15 0.500000 0.500000 0.399000
#
# Coordination Sequence:
#
# PCOD9524218 Si02
#       6
#    16  16   8  16  16   8
#     4  11  24  42  65  94 128 165 206 256 318 386
#     4  12  23  37  65  95 129 162 205 253 315 377
#     4  11  22  37  60  92 127 158 196 251 311 375
#     4  11  24  43  66  93 128 168 211 260 314 374
#     4  12  25  42  64  91 124 164 215 263 311 369
#     4  11  21  38  62  92 128 163 201 253 316 378
#
# _framework density 19.173181
#
# number of rings (size 3 to 8) (size 9 to 14) (size 15 to 20)
#    0.000    0.600    5.000    3.300    2.800    4.400 
#    0.000    2.000    0.000    0.000    0.000    1.400 
#    0.000    0.000    0.000    0.000    0.000    0.000 
#
# Total GULP energy -223581.970774 kJ/mol
# GULP energy per Si atom -5589.549269 kJ/mol
# Density = 1.912954 g / cm^3
# Si number density = 19.173181 Si / 1000 Ang^3
#
#
#
# Elastic Constant Matrix: (Units=GPa)
#
#
# Indices 1 2 3 4 5 6 
#
# 1 93.0597 28.8122 -5.7136 0.0000 0.0000 0.0000
# 2 28.8122 125.7424 3.8374 0.0000 0.0000 0.0000
# 3 -5.7136 3.8374 44.5537 0.0000 0.0000 0.0000
# 4 0.0000 0.0000 0.0000 9.8011 0.0000 0.0000
# 5 0.0000 0.0000 0.0000 0.0000 15.9419 0.0000
# 6 0.0000 0.0000 0.0000 0.0000 0.0000 29.9742
#
#
#
# Elastic Compliance Matrix: (Units=1/GPa)
#
#
# Indices 1 2 3 4 5 6 
#
# 1 0.011699 -0.002734 0.001736 0.000000 0.000000 0.000000
# 2 -0.002734 0.008612 -0.001092 0.000000 0.000000 0.000000
# 3 0.001736 -0.001092 0.022761 0.000000 0.000000 0.000000
# 4 0.000000 0.000000 0.000000 0.102029 0.000000 0.000000
# 5 0.000000 0.000000 0.000000 0.000000 0.062728 0.000000
# 6 0.000000 0.000000 0.000000 0.000000 0.000000 0.033362
#
#
# Mechanical properties :
#
#
# Convention : Reuss Voigt Hill
#
# Bulk Modulus (GPa) = 25.71208 35.24751 30.47979
# Shear Modulus (GPa) = 19.35462 26.90477 23.12970
#
# Velocity S-wave (km/s) = 3.18065 3.75006 3.47703
# Velocity P-wave (km/s) = 5.18925 6.09707 5.66139
#
# Compressibility (1/GPa) = 0.03889223
#
# Stress axis : x y z
#
# Youngs Moduli (GPa) = 85.47961 116.11078 43.93386
#
# Poissons Ratio (x) = 0.31740 -0.07626
# Poissons Ratio (y) = 0.23366 0.04799
# Poissons Ratio (z) = -0.14837 0.12683
#
# Static dielectric constant tensor:
#      x y z
#    x 1.638790 0.000000 0.000000 
#    y 0.000000 1.702210 0.000000 
#    z 0.000000 0.000000 1.676280 
# 
# From -- ./inp_files/32683.got.cif
#   From: 2010.05.17/outbox.cif.g08.bks.cpg/sg71_17_cif.got.tgz:32683.got - 2010.06.03 16:22:01.
