data_PCOD9524402
_publ_section_title
;
Structure prediction by ZEFSAII (Michael W. Deem and Ramdas Pophale) SiO2 
 PCOD9524402
Probable space group: I M M M
;
_chemical_formula_sum "Si O2"
_cell_formula_units_Z 64
_cell_length_a 22.619645
_cell_length_b 16.974759
_cell_length_c 8.651391
_cell_angle_alpha 90.000000
_cell_angle_beta 90.000000
_cell_angle_gamma 90.000000
_cell_volume 3321.814238
_symmetry_space_group_name_H-M "I M M M"
_symmetry_group_IT_number 71
_symmetry_cell_setting 'orthorhombic'
loop_
_space_group_symop_operation_xyz
x,y,z
-x,-y,z
x,-y,-z
-x,y,-z
-x,-y,-z
x,y,-z
-x,y,z
x,-y,z
1/2+x,1/2+y,1/2+z
1/2-x,1/2-y,1/2+z
1/2+x,1/2-y,1/2-z
1/2-x,1/2+y,1/2-z
1/2-x,1/2-y,1/2-z
1/2+x,1/2+y,1/2-z
1/2-x,1/2+y,1/2+z
1/2+x,1/2-y,1/2+z
loop_
_atom_site_type_symbol
_atom_site_label
_atom_site_fract_x
_atom_site_fract_y
_atom_site_fract_z
Si Si1 0.929919 0.500000 0.184430
Si Si2 0.734900 0.593339 0.815197
Si Si3 0.880693 0.820520 0.185950
Si Si4 0.640548 0.851258 0.184268
Si Si5 0.000000 0.909575 0.188236
O O1 0.899469 0.422972 0.255435
O O2 0.000000 0.500000 0.213050
O O3 0.919745 0.500000 0.000000
O O4 0.733689 0.500000 0.780429
O O5 0.676003 0.634721 0.753870
O O6 0.792549 0.631143 0.737846
O O7 0.739109 0.602935 0.000000
O O8 0.880020 0.730985 0.243364
O O9 0.940681 0.864462 0.235935
O O10 0.877503 0.822080 0.000000
O O11 0.638089 0.847045 0.000000
O O12 0.000000 0.000000 0.241212
O O13 0.000000 0.910559 0.000000
#
# Coordination Sequence:
#
# PCOD9524402 Si02
#       5
#     8  16  16  16   8
#     4  11  25  45  69  95 129 170 213 260 319 383
#     4  11  23  41  65  93 128 168 213 266 325 382
#     4  11  23  40  65  94 128 168 215 266 321 381
#     4  12  25  42  65  95 130 167 214 263 317 380
#     4   9  20  40  65  94 125 164 211 259 314 379
#
# _framework density 19.266579
#
# number of rings (size 3 to 8) (size 9 to 14) (size 15 to 20)
#    0.000    1.000    1.250    5.625    1.750    3.500 
#    0.000    1.875    0.000    4.500    0.000    0.000 
#    0.000    0.000    0.000    0.000    0.000    0.000 
#
# Total GULP energy -179106.113997 kJ/mol
# GULP energy per Si atom -5597.066062 kJ/mol
# Density = 1.922273 g / cm^3
# Si number density = 19.266579 Si / 1000 Ang^3
#
#
#
# Elastic Constant Matrix: (Units=GPa)
#
#
# Indices 1 2 3 4 5 6 
#
# 1 116.9990 56.1909 20.1062 0.0000 0.0000 0.0000
# 2 56.1909 141.1924 19.3491 0.0000 0.0000 0.0000
# 3 20.1062 19.3491 47.2376 0.0000 0.0000 0.0000
# 4 0.0000 0.0000 0.0000 17.8252 0.0000 0.0000
# 5 0.0000 0.0000 0.0000 0.0000 32.9995 0.0000
# 6 0.0000 0.0000 0.0000 0.0000 0.0000 1102.1271
#
#
#
# Elastic Compliance Matrix: (Units=1/GPa)
#
#
# Indices 1 2 3 4 5 6 
#
# 1 0.010967 -0.003946 -0.003051 0.000000 0.000000 0.000000
# 2 -0.003946 0.008924 -0.001976 0.000000 0.000000 0.000000
# 3 -0.003051 -0.001976 0.023278 0.000000 0.000000 0.000000
# 4 0.000000 0.000000 0.000000 0.056100 0.000000 0.000000
# 5 0.000000 0.000000 0.000000 0.000000 0.030303 0.000000
# 6 0.000000 0.000000 0.000000 0.000000 0.000000 0.000907
#
#
# Mechanical properties :
#
#
# Convention : Reuss Voigt Hill
#
# Bulk Modulus (GPa) = 39.64870 55.19129 47.41999
# Shear Modulus (GPa) = 31.88098 244.57587 138.22843
#
# Velocity S-wave (km/s) = 4.07225 11.27912 8.47944
# Velocity P-wave (km/s) = 6.53717 14.08308 10.97879
#
# Compressibility (1/GPa) = 0.02522151
#
# Stress axis : x y z
#
# Youngs Moduli (GPa) = 91.18463 112.05988 42.95968
#
# Poissons Ratio (x) = 0.44222 0.13109
# Poissons Ratio (y) = 0.35984 0.08487
# Poissons Ratio (z) = 0.27824 0.22138
#
# Static dielectric constant tensor:
#      x y z
#    x 1.634940 0.000000 0.000000 
#    y 0.000000 1.639760 0.000000 
#    z 0.000000 0.000000 1.649490 
# 
# From -- ./inp_files/5570.got.cif
#   From: 2010.05.17/outbox.cif.g08.bks.cpg/sg71_3_cif.got.tgz:5570.got - 2010.06.03 16:22:01.
