data_PCOD9524104
_publ_section_title
;
Structure prediction by ZEFSAII (Michael W. Deem and Ramdas Pophale) SiO2 
 PCOD9524104
Probable space group: I M M M
;
_chemical_formula_sum "Si O2"
_cell_formula_units_Z 104
_cell_length_a 13.258526
_cell_length_b 19.229636
_cell_length_c 26.880405
_cell_angle_alpha 90.000000
_cell_angle_beta 90.000000
_cell_angle_gamma 90.000000
_cell_volume 6853.337442
_symmetry_space_group_name_H-M "I M M M"
_symmetry_group_IT_number 71
_symmetry_cell_setting 'orthorhombic'
loop_
_space_group_symop_operation_xyz
x,y,z
-x,-y,z
x,-y,-z
-x,y,-z
-x,-y,-z
x,y,-z
-x,y,z
x,-y,z
1/2+x,1/2+y,1/2+z
1/2-x,1/2-y,1/2+z
1/2+x,1/2-y,1/2-z
1/2-x,1/2+y,1/2-z
1/2-x,1/2-y,1/2-z
1/2+x,1/2+y,1/2-z
1/2-x,1/2+y,1/2+z
1/2+x,1/2-y,1/2+z
loop_
_atom_site_type_symbol
_atom_site_label
_atom_site_fract_x
_atom_site_fract_y
_atom_site_fract_z
Si Si1 0.798500 0.080282 0.277906
Si Si2 0.813316 0.720431 0.328379
Si Si3 0.118357 0.420462 0.296783
Si Si4 0.383543 0.081511 0.440061
Si Si5 0.889432 0.791032 0.228774
Si Si6 0.000000 0.917619 0.440687
Si Si7 0.694456 0.353686 0.887263
O O1 0.688613 0.087937 0.252048
O O2 0.871182 0.129638 0.245952
O O3 0.798556 0.108363 0.333736
O O4 0.827404 0.000000 0.276562
O O5 0.845773 0.640464 0.333870
O O6 0.874079 0.747731 0.279744
O O7 0.697946 0.726368 0.309924
O O8 0.825798 0.773043 0.373767
O O9 0.134228 0.500000 0.314536
O O10 0.000000 0.412262 0.285888
O O11 0.376896 0.086429 0.500000
O O12 0.500000 0.097311 0.425988
O O13 0.298591 0.129210 0.415342
O O14 0.364184 0.000000 0.426986
O O15 0.000000 0.779268 0.208694
O O16 0.899797 0.884426 0.417227
O O17 0.000000 0.908197 0.500000
O O18 0.000000 0.000000 0.430104
#
# Coordination Sequence:
#
# PCOD9524104 Si02
#       7
#    16  16  16  16  16   8  16
#     4   9  18  28  40  66  91 117 164 198 219 260
#     4   9  19  29  42  66  88 112 155 193 222 272
#     4   9  17  30  47  63  90 127 154 189 235 273
#     4   9  18  33  51  68  89 119 152 188 232 279
#     4   9  17  29  42  57  87 126 148 181 236 269
#     4  11  24  38  50  66  93 127 155 187 234 282
#     4  11  21  31  47  69  91 123 154 196 235 270
#
# _framework density 15.175089
#
# number of rings (size 3 to 8) (size 9 to 14) (size 15 to 20)
#    0.000    2.538    0.000    3.692    5.385    2.769 
#    0.000    1.538    0.000    0.000    0.000    0.000 
#    0.000    3.077    0.000    1.692    0.000    0.000 
#
# Total GULP energy -289802.418824 kJ/mol
# GULP energy per Si atom -5573.123439 kJ/mol
# Density = 1.514055 g / cm^3
# Si number density = 15.175089 Si / 1000 Ang^3
#
#
#
# Elastic Constant Matrix: (Units=GPa)
#
#
# Indices 1 2 3 4 5 6 
#
# 1 99.2712 38.6824 26.5751 0.0000 0.0000 0.0000
# 2 38.6824 106.0776 32.6155 0.0000 0.0000 0.0000
# 3 26.5751 32.6155 41.8367 0.0000 0.0000 0.0000
# 4 0.0000 0.0000 0.0000 20.7764 0.0000 0.0000
# 5 0.0000 0.0000 0.0000 0.0000 5.1302 0.0000
# 6 0.0000 0.0000 0.0000 0.0000 0.0000 13.5199
#
#
#
# Elastic Compliance Matrix: (Units=1/GPa)
#
#
# Indices 1 2 3 4 5 6 
#
# 1 0.012757 -0.002842 -0.005888 0.000000 0.000000 0.000000
# 2 -0.002842 0.013032 -0.008355 0.000000 0.000000 0.000000
# 3 -0.005888 -0.008355 0.034156 0.000000 0.000000 0.000000
# 4 0.000000 0.000000 0.000000 0.048132 0.000000 0.000000
# 5 0.000000 0.000000 0.000000 0.000000 0.194924 0.000000
# 6 0.000000 0.000000 0.000000 0.000000 0.000000 0.073965
#
#
# Mechanical properties :
#
#
# Convention : Reuss Voigt Hill
#
# Bulk Modulus (GPa) = 38.79546 49.21460 44.00503
# Shear Modulus (GPa) = 11.91254 17.83947 14.87601
#
# Velocity S-wave (km/s) = 2.80484 3.43239 3.13436
# Velocity P-wave (km/s) = 6.00918 6.94334 6.49308
#
# Compressibility (1/GPa) = 0.02577621
#
# Stress axis : x y z
#
# Youngs Moduli (GPa) = 78.38883 76.73385 29.27756
#
# Poissons Ratio (x) = 0.21804 0.17239
# Poissons Ratio (y) = 0.22275 0.24460
# Poissons Ratio (z) = 0.46156 0.64109
#
# Static dielectric constant tensor:
#      x y z
#    x 1.519250 0.000000 0.000000 
#    y 0.000000 1.540620 0.000000 
#    z 0.000000 0.000000 1.466700 
# 
# From -- ./inp_files/69521.got.cif
#   From: 2010.05.17/outbox.cif.g08.bks.cpg/sg71_35_cif.got.tgz:69521.got - 2010.06.03 16:22:01.
