data_PCOD9524671
_publ_section_title
;
Structure prediction by ZEFSAII (Michael W. Deem and Ramdas Pophale) SiO2 
 PCOD9524671
Probable space group: I M M M
;
_chemical_formula_sum "Si O2"
_cell_formula_units_Z 52
_cell_length_a 9.000000
_cell_length_b 24.000000
_cell_length_c 27.000000
_cell_angle_alpha 90.000000
_cell_angle_beta 90.000000
_cell_angle_gamma 90.000000
_cell_volume 5832.000000
_symmetry_space_group_name_H-M "I M M M"
_symmetry_group_IT_number 71
_symmetry_cell_setting 'orthorhombic'
loop_
_space_group_symop_operation_xyz
x,y,z
-x,-y,z
x,-y,-z
-x,y,-z
-x,-y,-z
x,y,-z
-x,y,z
x,-y,z
1/2+x,1/2+y,1/2+z
1/2-x,1/2-y,1/2+z
1/2+x,1/2-y,1/2-z
1/2-x,1/2+y,1/2-z
1/2-x,1/2-y,1/2-z
1/2+x,1/2+y,1/2-z
1/2-x,1/2+y,1/2+z
1/2+x,1/2-y,1/2+z
loop_
_atom_site_type_symbol
_atom_site_label
_atom_site_fract_x
_atom_site_fract_y
_atom_site_fract_z
Si Si1 0.819605 0.500000 0.944471
Si Si2 0.675865 0.562895 0.585894
Si Si3 0.176346 0.066232 0.287191
Si Si4 0.836879 0.329078 0.557413
Si Si5 0.667062 0.066898 0.187655
Si Si6 0.820364 0.390653 0.116188
Si Si7 0.322722 0.779860 0.558145
O O1 0.776714 0.555951 0.916505
O O2 0.000000 0.500000 0.946164
O O3 0.762530 0.500000 0.000000
O O4 0.500000 0.563999 0.579522
O O5 0.728162 0.500000 0.573480
O O6 0.752175 0.612785 0.557718
O O7 0.723251 0.575669 0.642101
O O8 0.259965 0.086141 0.238162
O O9 0.238730 0.101007 0.332447
O O10 0.000000 0.070889 0.281568
O O11 0.209843 0.000000 0.295198
O O12 0.852003 0.314531 0.500000
O O13 0.749453 0.276591 0.578728
O O14 0.000000 0.335550 0.579631
O O15 0.500000 0.088099 0.179549
O O16 0.656325 0.000000 0.191729
O O17 0.779187 0.334023 0.088757
O O18 0.000000 0.391861 0.122510
O O19 0.287442 0.789113 0.500000
O O20 0.500000 0.773502 0.560830
#
# Coordination Sequence:
#
# PCOD9524671 Si02
#       7
#     8  16  16  16  16  16  16
#     4   9  16  26  43  69  99 129 165 213 264 309
#     4  10  20  34  54  81 110 136 163 199 248 300
#     4  10  19  30  45  68 101 136 171 211 257 305
#     4  10  21  36  54  76 103 137 174 209 245 291
#     4   9  17  30  50  74 101 133 168 205 246 297
#     4  10  18  29  48  72  98 130 171 217 262 308
#     4   9  18  33  52  73  97 130 174 218 258 302
#
# _framework density 8.9163239999999995
#
# number of rings (size 3 to 8) (size 9 to 14) (size 15 to 20)
#    0.000    2.385    0.769    2.308    0.000    7.077 
#    0.000    1.538    0.000    2.769    0.000    0.000 
#    0.000    0.000    0.000    0.000    0.000    0.000 
#
# Total GULP energy -289546.237287 kJ/mol
# GULP energy per Si atom -5568.196871 kJ/mol
# Density = 0.889603 g / cm^3
# Si number density = 8.916324 Si / 1000 Ang^3
#
#
#
# Elastic Constant Matrix: (Units=GPa)
#
#
# Indices 1 2 3 4 5 6 
#
# 1 23.6119 43.3973 9.7589 0.0000 0.0000 0.0000
# 2 43.3973 112.7399 31.6255 0.0000 0.0000 0.0000
# 3 9.7589 31.6255 46.2388 0.0000 0.0000 0.0000
# 4 0.0000 0.0000 0.0000 30.5947 0.0000 0.0000
# 5 0.0000 0.0000 0.0000 0.0000 25.8188 0.0000
# 6 0.0000 0.0000 0.0000 0.0000 0.0000 9.5768
#
#
#
# Elastic Compliance Matrix: (Units=1/GPa)
#
#
# Indices 1 2 3 4 5 6 
#
# 1 0.148130 -0.059705 0.009573 0.000000 0.000000 0.000000
# 2 -0.059705 0.035041 -0.011365 0.000000 0.000000 0.000000
# 3 0.009573 -0.011365 0.027380 0.000000 0.000000 0.000000
# 4 0.000000 0.000000 0.000000 0.032685 0.000000 0.000000
# 5 0.000000 0.000000 0.000000 0.000000 0.038732 0.000000
# 6 0.000000 0.000000 0.000000 0.000000 0.000000 0.104419
#
#
# Mechanical properties :
#
#
# Convention : Reuss Voigt Hill
#
# Bulk Modulus (GPa) = 11.42148 39.12823 25.27485
# Shear Modulus (GPa) = 9.28389 19.71866 14.50128
#
# Velocity S-wave (km/s) = 2.28417 3.32891 2.85474
# Velocity P-wave (km/s) = 3.65722 6.06342 5.00701
#
# Compressibility (1/GPa) = 0.08755434
#
# Stress axis : x y z
#
# Youngs Moduli (GPa) = 6.75083 28.53820 36.52299
#
# Poissons Ratio (x) = 1.70388 -0.34962
# Poissons Ratio (y) = 0.40306 0.41510
# Poissons Ratio (z) = -0.06462 0.32435
#
# Static dielectric constant tensor:
#      x y z
#    x 1.627910 0.000000 0.000000 
#    y 0.000000 1.584070 0.000000 
#    z 0.000000 0.000000 1.696640 
# 
# From -- ./inp_files/14993.got.cif
#   From: 2010.05.17/outbox.ucp.g08.bks.cvg/sg71_8_cif.got.tgz:14993.got - 2010.06.11 16:29:00.
