data_PCOD9524549
_publ_section_title
;
Structure prediction by ZEFSAII (Michael W. Deem and Ramdas Pophale) SiO2 
 PCOD9524549
Probable space group: I M M M
;
_chemical_formula_sum "Si O2"
_cell_formula_units_Z 80
_cell_length_a 7.472702
_cell_length_b 24.951883
_cell_length_c 27.074821
_cell_angle_alpha 90.000000
_cell_angle_beta 90.000000
_cell_angle_gamma 90.000000
_cell_volume 5048.316595
_symmetry_space_group_name_H-M "I M M M"
_symmetry_group_IT_number 71
_symmetry_cell_setting 'orthorhombic'
loop_
_space_group_symop_operation_xyz
x,y,z
-x,-y,z
x,-y,-z
-x,y,-z
-x,-y,-z
x,y,-z
-x,y,z
x,-y,z
1/2+x,1/2+y,1/2+z
1/2-x,1/2-y,1/2+z
1/2+x,1/2-y,1/2-z
1/2-x,1/2+y,1/2-z
1/2-x,1/2-y,1/2-z
1/2+x,1/2+y,1/2-z
1/2-x,1/2+y,1/2+z
1/2+x,1/2-y,1/2+z
loop_
_atom_site_type_symbol
_atom_site_label
_atom_site_fract_x
_atom_site_fract_y
_atom_site_fract_z
Si Si1 0.718623 0.388256 0.056305
Si Si2 0.282324 0.500000 0.894733
Si Si3 0.780470 0.185327 0.354793
Si Si4 0.211187 0.715214 0.299256
Si Si5 0.781620 0.000000 0.279254
Si Si6 0.710029 0.383626 0.760565
O O1 0.500000 0.388640 0.056314
O O2 0.775487 0.445835 0.078016
O O3 0.774722 0.341893 0.094239
O O4 0.776947 0.381144 0.000000
O O5 0.500000 0.500000 0.895543
O O6 0.232100 0.500000 0.837219
O O7 0.720869 0.246056 0.342855
O O8 0.719059 0.147594 0.309083
O O9 0.000000 0.185668 0.353883
O O10 0.250000 0.750000 0.250000
O O11 0.274842 0.655752 0.286207
O O12 0.000000 0.710841 0.305116
O O13 0.718179 0.943788 0.256311
O O14 0.000000 0.000000 0.276396
O O15 0.500000 0.389185 0.770804
#
# Coordination Sequence:
#
# PCOD9524549 Si02
#       6
#    16   8  16  16   8  16
#     4   9  14  18  26  43  67  93 120 149 179 210
#     4   9  13  18  27  41  65  96 124 147 177 209
#     4   8  13  21  31  44  64  91 117 143 176 211
#     4   9  16  25  37  51  68  90 117 148 181 215
#     4   9  14  21  35  50  69  98 123 145 176 214
#     4   9  15  24  37  52  70  93 120 145 174 212
#
# _framework density 15.846868000000001
#
# number of rings (size 3 to 8) (size 9 to 14) (size 15 to 20)
#    0.000    3.200    2.000    2.100    0.000    1.200 
#    0.000    0.500    0.000    0.000    0.000    0.000 
#    0.000   20.000    0.000    8.100    0.000   28.800 
#
# Total GULP energy -222696.158815 kJ/mol
# GULP energy per Si atom -5567.403970 kJ/mol
# Density = 1.581080 g / cm^3
# Si number density = 15.846868 Si / 1000 Ang^3
#
#
#
# Elastic Constant Matrix: (Units=GPa)
#
#
# Indices 1 2 3 4 5 6 
#
# 1 39.6907 3.5055 -3.3684 0.0000 0.0000 0.0000
# 2 3.5055 160.4833 77.4602 0.0000 0.0000 0.0000
# 3 -3.3684 77.4602 73.1940 0.0000 0.0000 0.0000
# 4 0.0000 0.0000 0.0000 18.3473 0.0000 0.0000
# 5 0.0000 0.0000 0.0000 0.0000 1.8816 0.0000
# 6 0.0000 0.0000 0.0000 0.0000 0.0000 8.0944
#
#
#
# Elastic Compliance Matrix: (Units=1/GPa)
#
#
# Indices 1 2 3 4 5 6 
#
# 1 0.025708 -0.002315 0.003633 0.000000 0.000000 0.000000
# 2 -0.002315 0.012946 -0.013807 0.000000 0.000000 0.000000
# 3 0.003633 -0.013807 0.028441 0.000000 0.000000 0.000000
# 4 0.000000 0.000000 0.000000 0.054504 0.000000 0.000000
# 5 0.000000 0.000000 0.000000 0.000000 0.531455 0.000000
# 6 0.000000 0.000000 0.000000 0.000000 0.000000 0.123542
#
#
# Mechanical properties :
#
#
# Convention : Reuss Voigt Hill
#
# Bulk Modulus (GPa) = 23.74350 47.61806 35.68078
# Shear Modulus (GPa) = 6.13036 18.71605 12.42320
#
# Velocity S-wave (km/s) = 1.96898 3.44038 2.80295
# Velocity P-wave (km/s) = 4.49275 6.77464 5.74807
#
# Compressibility (1/GPa) = 0.04211679
#
# Stress axis : x y z
#
# Youngs Moduli (GPa) = 38.89894 77.24400 35.16006
#
# Poissons Ratio (x) = 0.17883 -0.12774
# Poissons Ratio (y) = 0.09006 0.48546
# Poissons Ratio (z) = -0.14132 1.06652
#
# Static dielectric constant tensor:
#      x y z
#    x 1.634510 0.000000 0.000000 
#    y 0.000000 1.568100 0.000000 
#    z 0.000000 0.000000 1.504270 
# 
# From -- ./inp_files/13072.got.cif
#   From: 2010.05.17/outbox.cif.g08.bks.cpg/sg71_7_cif.got.tgz:13072.got - 2010.06.03 16:22:01.
