data_PCOD9524120
_publ_section_title
;
Structure prediction by ZEFSAII (Michael W. Deem and Ramdas Pophale) SiO2 
 PCOD9524120
Probable space group: I M M M
;
_chemical_formula_sum "Si O2"
_cell_formula_units_Z 80
_cell_length_a 18.600190
_cell_length_b 14.326483
_cell_length_c 15.833343
_cell_angle_alpha 90.000000
_cell_angle_beta 90.000000
_cell_angle_gamma 90.000000
_cell_volume 4219.194918
_symmetry_space_group_name_H-M "I M M M"
_symmetry_group_IT_number 71
_symmetry_cell_setting 'orthorhombic'
loop_
_space_group_symop_operation_xyz
x,y,z
-x,-y,z
x,-y,-z
-x,y,-z
-x,-y,-z
x,y,-z
-x,y,z
x,-y,z
1/2+x,1/2+y,1/2+z
1/2-x,1/2-y,1/2+z
1/2+x,1/2-y,1/2-z
1/2-x,1/2+y,1/2-z
1/2-x,1/2-y,1/2-z
1/2+x,1/2+y,1/2-z
1/2-x,1/2+y,1/2+z
1/2+x,1/2-y,1/2+z
loop_
_atom_site_type_symbol
_atom_site_label
_atom_site_fract_x
_atom_site_fract_y
_atom_site_fract_z
Si Si1 0.721655 0.897957 0.100130
Si Si2 0.346915 0.395432 0.101274
Si Si3 0.920469 0.707928 0.603348
Si Si4 0.415225 0.890145 0.399557
Si Si5 0.713726 0.779559 0.337843
O O1 0.644831 0.858084 0.131524
O O2 0.780707 0.818565 0.113650
O O3 0.737564 0.000000 0.136655
O O4 0.713408 0.906622 0.000000
O O5 0.357991 0.500000 0.134836
O O6 0.401136 0.313793 0.129956
O O7 0.268169 0.355254 0.121874
O O8 0.353532 0.399781 0.000000
O O9 0.920028 0.707071 0.500000
O O10 0.000000 0.679917 0.631094
O O11 0.400359 0.873881 0.500000
O O12 0.500000 0.873853 0.385873
O O13 0.364207 0.824812 0.343847
O O14 0.400913 0.000000 0.383403
O O15 0.750000 0.750000 0.250000
#
# Coordination Sequence:
#
# PCOD9524120 Si02
#       5
#    16  16  16  16  16
#     4   9  18  32  48  66  91 129 177 217 248 297
#     4   9  17  30  49  70  93 127 170 214 261 316
#     4   8  14  25  42  66  93 119 154 201 246 285
#     4   9  18  35  62  91 112 135 176 232 288 334
#     4  11  21  32  49  75 108 139 167 208 267 334
#
# _framework density 18.960961999999999
#
# number of rings (size 3 to 8) (size 9 to 14) (size 15 to 20)
#    0.000    2.800    0.000    4.200    0.000    4.000 
#    0.000    8.000    0.000    0.600    0.000    2.800 
#    0.000    0.000    0.000    0.000    0.000    0.000 
#
# Total GULP energy -222835.921436 kJ/mol
# GULP energy per Si atom -5570.898036 kJ/mol
# Density = 1.891781 g / cm^3
# Si number density = 18.960962 Si / 1000 Ang^3
#
#
#
# Elastic Constant Matrix: (Units=GPa)
#
#
# Indices 1 2 3 4 5 6 
#
# 1 93.0471 50.5026 21.6678 0.0000 0.0000 0.0000
# 2 50.5026 121.8852 29.6332 0.0000 0.0000 0.0000
# 3 21.6678 29.6332 31.0350 0.0000 0.0000 0.0000
# 4 0.0000 0.0000 0.0000 5.9928 0.0000 0.0000
# 5 0.0000 0.0000 0.0000 0.0000 14.0948 0.0000
# 6 0.0000 0.0000 0.0000 0.0000 0.0000 9.0045
#
#
#
# Elastic Compliance Matrix: (Units=1/GPa)
#
#
# Indices 1 2 3 4 5 6 
#
# 1 0.014615 -0.004656 -0.005759 0.000000 0.000000 0.000000
# 2 -0.004656 0.012168 -0.008368 0.000000 0.000000 0.000000
# 3 -0.005759 -0.008368 0.044232 0.000000 0.000000 0.000000
# 4 0.000000 0.000000 0.000000 0.166866 0.000000 0.000000
# 5 0.000000 0.000000 0.000000 0.000000 0.070948 0.000000
# 6 0.000000 0.000000 0.000000 0.000000 0.000000 0.111056
#
#
# Mechanical properties :
#
#
# Convention : Reuss Voigt Hill
#
# Bulk Modulus (GPa) = 29.89448 49.95272 39.92360
# Shear Modulus (GPa) = 10.67009 15.42933 13.04971
#
# Velocity S-wave (km/s) = 2.37479 2.85571 2.62628
# Velocity P-wave (km/s) = 4.82908 6.10538 5.50435
#
# Compressibility (1/GPa) = 0.03345099
#
# Stress axis : x y z
#
# Youngs Moduli (GPa) = 68.42204 82.18326 22.60805
#
# Poissons Ratio (x) = 0.38262 0.13019
# Poissons Ratio (y) = 0.31855 0.18918
# Poissons Ratio (z) = 0.39401 0.68770
#
# Static dielectric constant tensor:
#      x y z
#    x 1.659410 0.000000 0.000000 
#    y 0.000000 1.697520 0.000000 
#    z 0.000000 0.000000 1.635690 
# 
# From -- ./inp_files/44620.got.cif
#   From: 2010.05.17/outbox.cif.g08.bks.cpg/sg71_23_cif.got.tgz:44620.got - 2010.06.03 16:22:01.
