data_PCOD9524487
_publ_section_title
;
Structure prediction by ZEFSAII (Michael W. Deem and Ramdas Pophale) SiO2 
 PCOD9524487
Probable space group: I M M M
;
_chemical_formula_sum "Si O2"
_cell_formula_units_Z 72
_cell_length_a 29.294714
_cell_length_b 16.365615
_cell_length_c 7.312910
_cell_angle_alpha 90.000000
_cell_angle_beta 90.000000
_cell_angle_gamma 90.000000
_cell_volume 3505.999269
_symmetry_space_group_name_H-M "I M M M"
_symmetry_group_IT_number 71
_symmetry_cell_setting 'orthorhombic'
loop_
_space_group_symop_operation_xyz
x,y,z
-x,-y,z
x,-y,-z
-x,y,-z
-x,-y,-z
x,y,-z
-x,y,z
x,-y,z
1/2+x,1/2+y,1/2+z
1/2-x,1/2-y,1/2+z
1/2+x,1/2-y,1/2-z
1/2-x,1/2+y,1/2-z
1/2-x,1/2-y,1/2-z
1/2+x,1/2+y,1/2-z
1/2-x,1/2+y,1/2+z
1/2+x,1/2-y,1/2+z
loop_
_atom_site_type_symbol
_atom_site_label
_atom_site_fract_x
_atom_site_fract_y
_atom_site_fract_z
Si Si1 0.051975 0.820609 0.723286
Si Si2 0.055559 0.000000 0.708891
Si Si3 0.692174 0.590398 0.785518
Si Si4 0.700213 0.909295 0.779538
Si Si5 0.642994 0.754131 0.776653
O O1 0.051063 0.824738 0.500000
O O2 0.090097 0.755515 0.775363
O O3 0.000000 0.805135 0.781811
O O4 0.067296 0.911489 0.786724
O O5 0.072611 0.000000 0.500000
O O6 0.000000 0.000000 0.704211
O O7 0.680779 0.500000 0.709653
O O8 0.746696 0.601545 0.769967
O O9 0.668020 0.671313 0.713226
O O10 0.680550 0.587363 0.000000
O O11 0.669140 0.834865 0.713963
O O12 0.686156 0.000000 0.717178
O O13 0.698293 0.909148 0.000000
O O14 0.644830 0.754966 0.000000
#
# Coordination Sequence:
#
# PCOD9524487 Si02
#       5
#    16   8  16  16  16
#     4   8  13  20  31  49  74 102 128 154 188 231
#     4   7  10  16  26  42  66  96 123 145 177 225
#     4   9  17  27  40  60  83 102 124 160 200 233
#     4   9  17  29  42  55  76 107 137 161 188 227
#     4   9  16  24  37  55  76 104 133 159 191 231
#
# _framework density 20.536227
#
# number of rings (size 3 to 8) (size 9 to 14) (size 15 to 20)
#    0.000    3.444    0.000    2.000    1.556    0.000 
#    0.000    0.000    0.000    0.667    0.000    4.667 
#    0.000    3.556    0.000   11.111    0.000   11.556 
#
# Total GULP energy -200805.143041 kJ/mol
# GULP energy per Si atom -5577.920640 kJ/mol
# Density = 2.048949 g / cm^3
# Si number density = 20.536227 Si / 1000 Ang^3
#
#
#
# Elastic Constant Matrix: (Units=GPa)
#
#
# Indices 1 2 3 4 5 6 
#
# 1 107.0467 97.2217 -4.2224 0.0000 0.0000 0.0000
# 2 97.2217 152.8118 6.8183 0.0000 0.0000 0.0000
# 3 -4.2224 6.8183 82.9019 0.0000 0.0000 0.0000
# 4 0.0000 0.0000 0.0000 -10.9632 0.0000 0.0000
# 5 0.0000 0.0000 0.0000 0.0000 -0.5935 0.0000
# 6 0.0000 0.0000 0.0000 0.0000 0.0000 31.1265
#
#
#
# Elastic Compliance Matrix: (Units=1/GPa)
#
#
# Indices 1 2 3 4 5 6 
#
# 1 0.022571 -0.014464 0.002339 0.000000 0.000000 0.000000
# 2 -0.014464 0.015837 -0.002039 0.000000 0.000000 0.000000
# 3 0.002339 -0.002039 0.012349 0.000000 0.000000 0.000000
# 4 0.000000 0.000000 0.000000 -0.091214 0.000000 0.000000
# 5 0.000000 0.000000 0.000000 0.000000 -1.684919 0.000000
# 6 0.000000 0.000000 0.000000 0.000000 0.000000 0.032127
#
#
# Mechanical properties :
#
#
# Convention : Reuss Voigt Hill
#
# Bulk Modulus (GPa) = 44.58556 60.26615 52.42586
# Shear Modulus (GPa) = -3.01669 20.11015 8.54673
#
# Velocity S-wave (km/s) = -1.21332 3.13270 2.04226
# Velocity P-wave (km/s) = 4.44915 6.51882 5.58077
#
# Compressibility (1/GPa) = 0.02242879
#
# Stress axis : x y z
#
# Youngs Moduli (GPa) = 44.30527 63.14163 80.97620
#
# Poissons Ratio (x) = 0.91330 -0.18942
# Poissons Ratio (y) = 0.64084 0.16513
# Poissons Ratio (z) = -0.10364 0.12876
#
# Static dielectric constant tensor:
#      x y z
#    x 1.715960 0.000000 0.000000 
#    y 0.000000 1.726960 0.000000 
#    z 0.000000 0.000000 2.287140 
# 
# From -- ./inp_files/8148.got.cif
#   From: 2010.05.17/outbox.cif.g08.bks.cpg/sg71_5_cif.got.tgz:8148.got - 2010.06.03 16:22:01.
