data_PCOD9524720
_publ_section_title
;
Structure prediction by ZEFSAII (Michael W. Deem and Ramdas Pophale) SiO2 
 PCOD9524720
Probable space group: I M M M
;
_chemical_formula_sum "Si O2"
_cell_formula_units_Z 36
_cell_length_a 24.000000
_cell_length_b 18.000000
_cell_length_c 9.000000
_cell_angle_alpha 90.000000
_cell_angle_beta 90.000000
_cell_angle_gamma 90.000000
_cell_volume 3888.000000
_symmetry_space_group_name_H-M "I M M M"
_symmetry_group_IT_number 71
_symmetry_cell_setting 'orthorhombic'
loop_
_space_group_symop_operation_xyz
x,y,z
-x,-y,z
x,-y,-z
-x,y,-z
-x,-y,-z
x,y,-z
-x,y,z
x,-y,z
1/2+x,1/2+y,1/2+z
1/2-x,1/2-y,1/2+z
1/2+x,1/2-y,1/2-z
1/2-x,1/2+y,1/2-z
1/2-x,1/2-y,1/2-z
1/2+x,1/2+y,1/2-z
1/2-x,1/2+y,1/2+z
1/2+x,1/2-y,1/2+z
loop_
_atom_site_type_symbol
_atom_site_label
_atom_site_fract_x
_atom_site_fract_y
_atom_site_fract_z
Si Si1 0.063461 0.500000 0.818086
Si Si2 0.935564 0.788208 0.178822
Si Si3 0.133617 0.085813 0.679409
Si Si4 0.869533 0.357347 0.180503
Si Si5 0.253391 0.331084 0.820956
O O1 0.094091 0.426017 0.767296
O O2 0.000000 0.500000 0.771499
O O3 0.064630 0.500000 0.000000
O O4 0.914576 0.863786 0.252003
O O5 0.895683 0.720826 0.230182
O O6 0.000000 0.771892 0.213612
O O7 0.930886 0.793973 0.000000
O O8 0.130785 0.088611 0.500000
O O9 0.192479 0.122833 0.725449
O O10 0.130691 0.000000 0.724786
O O11 0.805275 0.368212 0.220269
O O12 0.872276 0.355963 0.000000
O O13 0.250000 0.250000 0.750000
O O14 0.255292 0.324050 0.000000
#
# Coordination Sequence:
#
# PCOD9524720 Si02
#       5
#     8  16  16  16  16
#     4   9  16  26  44  74 109 139 166 203 256 312
#     4  10  20  35  55  78 104 136 177 221 265 314
#     4  10  22  37  53  77 108 139 175 219 264 313
#     4   9  17  29  48  75 106 136 167 210 259 307
#     4  10  19  33  54  77 102 133 170 211 257 306
#
# _framework density 9.2592590000000001
#
# number of rings (size 3 to 8) (size 9 to 14) (size 15 to 20)
#    0.000    2.333    2.222    0.667    1.556    4.000 
#    0.000    2.222    0.000    0.000    0.000    2.333 
#    0.000    5.333    0.000    0.000    0.000    0.000 
#
# Total GULP energy -200760.756667 kJ/mol
# GULP energy per Si atom -5576.687685 kJ/mol
# Density = 0.923818 g / cm^3
# Si number density = 9.259259 Si / 1000 Ang^3
#
#
#
# Elastic Constant Matrix: (Units=GPa)
#
#
# Indices 1 2 3 4 5 6 
#
# 1 58.1281 1.4530 7.1051 0.0000 0.0000 0.0000
# 2 1.4530 82.2231 3.6554 0.0000 0.0000 0.0000
# 3 7.1051 3.6554 -5.7977 0.0000 0.0000 0.0000
# 4 0.0000 0.0000 0.0000 20.7504 0.0000 0.0000
# 5 0.0000 0.0000 0.0000 0.0000 19.8190 0.0000
# 6 0.0000 0.0000 0.0000 0.0000 0.0000 32.0515
#
#
#
# Elastic Compliance Matrix: (Units=1/GPa)
#
#
# Indices 1 2 3 4 5 6 
#
# 1 0.015056 -0.001057 0.017785 0.000000 0.000000 0.000000
# 2 -0.001057 0.011905 0.006211 0.000000 0.000000 0.000000
# 3 0.017785 0.006211 -0.146771 0.000000 0.000000 0.000000
# 4 0.000000 0.000000 0.000000 0.048192 0.000000 0.000000
# 5 0.000000 0.000000 0.000000 0.000000 0.050457 0.000000
# 6 0.000000 0.000000 0.000000 0.000000 0.000000 0.031200
#
#
# Mechanical properties :
#
#
# Convention : Reuss Voigt Hill
#
# Bulk Modulus (GPa) = -13.52588 17.66452 2.06932
# Shear Modulus (GPa) = -82.66679 22.68016 -29.99332
#
# Velocity S-wave (km/s) = -6.68857 3.50341 -4.02884
# Velocity P-wave (km/s) = 8.18347 5.09163 4.53014
#
# Compressibility (1/GPa) = -0.07393236
#
# Stress axis : x y z
#
# Youngs Moduli (GPa) = 66.41909 84.00119 -6.81335
#
# Poissons Ratio (x) = 0.08877 0.12117
# Poissons Ratio (y) = 0.07019 0.04232
# Poissons Ratio (z) = -1.18126 -0.52171
#
# Static dielectric constant tensor:
#      x y z
#    x 1.653110 0.000000 0.000000 
#    y 0.000000 1.583240 0.000000 
#    z 0.000000 0.000000 1.622070 
# 
# From -- ./inp_files/7985.got.cif
#   From: 2010.05.17/outbox.ucp.g08.bks.cvg/sg71_4_cif.got.tgz:7985.got - 2010.06.11 16:29:00.
