data_PCOD9524368
_publ_section_title
;
Structure prediction by ZEFSAII (Michael W. Deem and Ramdas Pophale) SiO2 
 PCOD9524368
Probable space group: I M M M
;
_chemical_formula_sum "Si O2"
_cell_formula_units_Z 88
_cell_length_a 20.151113
_cell_length_b 25.139283
_cell_length_c 8.943527
_cell_angle_alpha 90.000000
_cell_angle_beta 90.000000
_cell_angle_gamma 90.000000
_cell_volume 4530.652444
_symmetry_space_group_name_H-M "I M M M"
_symmetry_group_IT_number 71
_symmetry_cell_setting 'orthorhombic'
loop_
_space_group_symop_operation_xyz
x,y,z
-x,-y,z
x,-y,-z
-x,y,-z
-x,-y,-z
x,y,-z
-x,y,z
x,-y,z
1/2+x,1/2+y,1/2+z
1/2-x,1/2-y,1/2+z
1/2+x,1/2-y,1/2-z
1/2-x,1/2+y,1/2-z
1/2-x,1/2-y,1/2-z
1/2+x,1/2+y,1/2-z
1/2-x,1/2+y,1/2+z
1/2+x,1/2-y,1/2+z
loop_
_atom_site_type_symbol
_atom_site_label
_atom_site_fract_x
_atom_site_fract_y
_atom_site_fract_z
Si Si1 0.676013 0.587175 0.321185
Si Si2 0.924721 0.745676 0.331680
Si Si3 0.579266 0.500000 0.819921
Si Si4 0.696925 0.710039 0.674595
Si Si5 0.925962 0.617957 0.671760
Si Si6 0.190226 0.440345 0.829948
O O1 0.665824 0.586397 0.500000
O O2 0.617723 0.552132 0.245215
O O3 0.687866 0.648827 0.272535
O O4 0.745875 0.561563 0.275142
O O5 0.903125 0.762098 0.500000
O O6 0.874593 0.765176 0.207917
O O7 0.925527 0.681831 0.330231
O O8 0.000000 0.764478 0.309088
O O9 0.500000 0.500000 0.784310
O O10 0.586083 0.500000 0.000000
O O11 0.713798 0.707656 0.500000
O O12 0.750000 0.750000 0.750000
O O13 0.915364 0.600083 0.500000
O O14 0.867007 0.598049 0.773709
O O15 0.000000 0.600770 0.718868
O O16 0.162791 0.500000 0.827311
O O17 0.210947 0.427947 0.000000
#
# Coordination Sequence:
#
# PCOD9524368 Si02
#       6
#    16  16   8  16  16  16
#     4  11  24  42  64  89 121 161 205 252 306 371
#     4   9  19  37  59  83 114 152 193 238 291 351
#     4  11  25  45  69  97 126 159 206 263 323 383
#     4  11  24  39  59  91 125 160 204 253 306 367
#     4   9  19  36  57  82 114 154 199 242 287 346
#     4  11  23  37  56  83 115 150 193 245 297 348
#
# _framework density 19.423251
#
# number of rings (size 3 to 8) (size 9 to 14) (size 15 to 20)
#    0.000    1.727    0.909    4.091    0.000   11.636 
#    0.000    7.273    0.000    0.000    0.000    0.000 
#    0.000    0.000    0.000    0.000    0.000    0.000 
#
# Total GULP energy -245432.696418 kJ/mol
# GULP energy per Si atom -5578.015828 kJ/mol
# Density = 1.937904 g / cm^3
# Si number density = 19.423251 Si / 1000 Ang^3
#
#
#
# Elastic Constant Matrix: (Units=GPa)
#
#
# Indices 1 2 3 4 5 6 
#
# 1 77.0261 46.1097 20.5049 0.0000 0.0000 0.0000
# 2 46.1097 96.9573 36.4145 0.0000 0.0000 0.0000
# 3 20.5049 36.4145 37.9078 0.0000 0.0000 0.0000
# 4 0.0000 0.0000 0.0000 26.3640 0.0000 0.0000
# 5 0.0000 0.0000 0.0000 0.0000 34.0833 0.0000
# 6 0.0000 0.0000 0.0000 0.0000 0.0000 30.7806
#
#
#
# Elastic Compliance Matrix: (Units=1/GPa)
#
#
# Indices 1 2 3 4 5 6 
#
# 1 0.018289 -0.007794 -0.002406 0.000000 0.000000 0.000000
# 2 -0.007794 0.019456 -0.014474 0.000000 0.000000 0.000000
# 3 -0.002406 -0.014474 0.041585 0.000000 0.000000 0.000000
# 4 0.000000 0.000000 0.000000 0.037931 0.000000 0.000000
# 5 0.000000 0.000000 0.000000 0.000000 0.029340 0.000000
# 6 0.000000 0.000000 0.000000 0.000000 0.000000 0.032488
#
#
# Mechanical properties :
#
#
# Convention : Reuss Voigt Hill
#
# Bulk Modulus (GPa) = 33.35271 46.43883 39.89577
# Shear Modulus (GPa) = 20.97047 25.50303 23.23675
#
# Velocity S-wave (km/s) = 3.28938 3.62749 3.46256
# Velocity P-wave (km/s) = 5.62454 6.44249 6.04736
#
# Compressibility (1/GPa) = 0.02998258
#
# Stress axis : x y z
#
# Youngs Moduli (GPa) = 54.67859 51.39677 24.04712
#
# Poissons Ratio (x) = 0.40059 0.05785
# Poissons Ratio (y) = 0.42616 0.34806
# Poissons Ratio (z) = 0.13154 0.74392
#
# Static dielectric constant tensor:
#      x y z
#    x 1.654860 0.000000 0.000000 
#    y 0.000000 1.749560 0.000000 
#    z 0.000000 0.000000 1.690100 
# 
# From -- ./inp_files/10414.got.cif
#   From: 2010.05.17/outbox.cif.g08.bks.cpg/sg71_6_cif.got.tgz:10414.got - 2010.06.03 16:22:01.
