data_PCOD9524021
_publ_section_title
;
Structure prediction by ZEFSAII (Michael W. Deem and Ramdas Pophale) SiO2 
 PCOD9524021
Probable space group: I M M M
;
_chemical_formula_sum "Si O2"
_cell_formula_units_Z 88
_cell_length_a 15.061144
_cell_length_b 15.703349
_cell_length_c 19.387177
_cell_angle_alpha 90.000000
_cell_angle_beta 90.000000
_cell_angle_gamma 90.000000
_cell_volume 4585.268998
_symmetry_space_group_name_H-M "I M M M"
_symmetry_group_IT_number 71
_symmetry_cell_setting 'orthorhombic'
loop_
_space_group_symop_operation_xyz
x,y,z
-x,-y,z
x,-y,-z
-x,y,-z
-x,-y,-z
x,y,-z
-x,y,z
x,-y,z
1/2+x,1/2+y,1/2+z
1/2-x,1/2-y,1/2+z
1/2+x,1/2-y,1/2-z
1/2-x,1/2+y,1/2-z
1/2-x,1/2-y,1/2-z
1/2+x,1/2+y,1/2-z
1/2-x,1/2+y,1/2+z
1/2+x,1/2-y,1/2+z
loop_
_atom_site_type_symbol
_atom_site_label
_atom_site_fract_x
_atom_site_fract_y
_atom_site_fract_z
Si Si1 0.500000 0.600422 0.921070
Si Si2 0.356527 0.332263 0.185352
Si Si3 0.605346 0.859921 0.847359
Si Si4 0.401820 0.283063 0.659701
Si Si5 0.773863 0.907373 0.919030
Si Si6 0.341722 0.096313 0.305272
O O1 0.500000 0.500000 0.928618
O O2 0.416700 0.624732 0.872983
O O3 0.500000 0.637140 0.000000
O O4 0.354575 0.234684 0.160826
O O5 0.396101 0.320330 0.262207
O O6 0.262728 0.379564 0.192885
O O7 0.500000 0.857338 0.861491
O O8 0.669097 0.901834 0.903113
O O9 0.622958 0.902772 0.773260
O O10 0.500000 0.300080 0.632189
O O11 0.327462 0.332622 0.617652
O O12 0.386302 0.180764 0.661598
O O13 0.805268 0.000000 0.892799
O O14 0.788650 0.902540 0.000000
O O15 0.355941 0.000000 0.333081
#
# Coordination Sequence:
#
# PCOD9524021 Si02
#       6
#     8  16  16  16  16  16
#     4  11  24  38  56  92 132 162 208 265 314 378
#     4  11  19  39  61  89 121 166 212 250 309 377
#     4  11  21  38  63  92 127 166 205 256 316 376
#     4  11  22  41  66  90 123 162 214 264 313 370
#     4  11  25  43  62  90 127 166 212 265 317 374
#     4  11  21  36  63  95 126 160 205 259 311 372
#
# _framework density 19.191894000000001
#
# number of rings (size 3 to 8) (size 9 to 14) (size 15 to 20)
#    0.000    1.000    5.455    3.818    0.000    5.091 
#    0.000    1.818    0.000    0.545    0.000    1.273 
#    0.000    0.000    0.000    0.000    0.000    0.000 
#
# Total GULP energy -245342.942374 kJ/mol
# GULP energy per Si atom -5575.975963 kJ/mol
# Density = 1.914821 g / cm^3
# Si number density = 19.191894 Si / 1000 Ang^3
#
#
#
# Elastic Constant Matrix: (Units=GPa)
#
#
# Indices 1 2 3 4 5 6 
#
# 1 122.3294 30.4042 31.1797 0.0000 0.0000 0.0000
# 2 30.4042 120.8274 41.9893 0.0000 0.0000 0.0000
# 3 31.1797 41.9893 56.7505 0.0000 0.0000 0.0000
# 4 0.0000 0.0000 0.0000 17.4479 0.0000 0.0000
# 5 0.0000 0.0000 0.0000 0.0000 46.8282 0.0000
# 6 0.0000 0.0000 0.0000 0.0000 0.0000 7.3631
#
#
#
# Elastic Compliance Matrix: (Units=1/GPa)
#
#
# Indices 1 2 3 4 5 6 
#
# 1 0.009560 -0.000781 -0.004675 0.000000 0.000000 0.000000
# 2 -0.000781 0.011205 -0.007861 0.000000 0.000000 0.000000
# 3 -0.004675 -0.007861 0.026006 0.000000 0.000000 0.000000
# 4 0.000000 0.000000 0.000000 0.057313 0.000000 0.000000
# 5 0.000000 0.000000 0.000000 0.000000 0.021355 0.000000
# 6 0.000000 0.000000 0.000000 0.000000 0.000000 0.135812
#
#
# Mechanical properties :
#
#
# Convention : Reuss Voigt Hill
#
# Bulk Modulus (GPa) = 49.66005 56.33930 52.99968
# Shear Modulus (GPa) = 16.97238 27.41680 22.19459
#
# Velocity S-wave (km/s) = 2.97703 3.78373 3.40436
# Velocity P-wave (km/s) = 6.14399 6.96479 6.56723
#
# Compressibility (1/GPa) = 0.02013691
#
# Stress axis : x y z
#
# Youngs Moduli (GPa) = 104.59942 89.24845 38.45327
#
# Poissons Ratio (x) = 0.06972 0.17975
# Poissons Ratio (y) = 0.08171 0.30228
# Poissons Ratio (z) = 0.48896 0.70159
#
# Static dielectric constant tensor:
#      x y z
#    x 1.676450 0.000000 0.000000 
#    y 0.000000 1.719670 0.000000 
#    z 0.000000 0.000000 1.648350 
# 
# From -- ./inp_files/52893.got.cif
#   From: 2010.05.17/outbox.cif.g08.bks.cpg/sg71_27_cif.got.tgz:52893.got - 2010.06.03 16:22:01.
