data_PCOD9524843
_publ_section_title
;
Structure prediction by ZEFSAII (Michael W. Deem and Ramdas Pophale) SiO2 
 PCOD9524843
Probable space group: I M M M
;
_chemical_formula_sum "Si O2"
_cell_formula_units_Z 40
_cell_length_a 24.000000
_cell_length_b 15.000000
_cell_length_c 12.000000
_cell_angle_alpha 90.000000
_cell_angle_beta 90.000000
_cell_angle_gamma 90.000000
_cell_volume 4320.000000
_symmetry_space_group_name_H-M "I M M M"
_symmetry_group_IT_number 71
_symmetry_cell_setting 'orthorhombic'
loop_
_space_group_symop_operation_xyz
x,y,z
-x,-y,z
x,-y,-z
-x,y,-z
-x,-y,-z
x,y,-z
-x,y,z
x,-y,z
1/2+x,1/2+y,1/2+z
1/2-x,1/2-y,1/2+z
1/2+x,1/2-y,1/2-z
1/2-x,1/2+y,1/2-z
1/2-x,1/2-y,1/2-z
1/2+x,1/2+y,1/2-z
1/2-x,1/2+y,1/2+z
1/2+x,1/2-y,1/2+z
loop_
_atom_site_type_symbol
_atom_site_label
_atom_site_fract_x
_atom_site_fract_y
_atom_site_fract_z
Si Si1 0.090602 0.600316 0.867832
Si Si2 0.910196 0.789211 0.774959
Si Si3 0.196662 0.750843 0.372954
Si Si4 0.067642 0.893743 0.000000
Si Si5 0.219554 0.396493 0.206449
Si Si6 0.000000 0.894219 0.366573
O O1 0.071185 0.500000 0.834741
O O2 0.069071 0.688543 0.804535
O O3 0.157225 0.601705 0.844493
O O4 0.080222 0.610122 0.000000
O O5 0.851408 0.778556 0.713452
O O6 0.909236 0.844268 0.890331
O O7 0.948360 0.844674 0.690625
O O8 0.177241 0.742487 0.500000
O O9 0.217756 0.655496 0.325271
O O10 0.242468 0.829180 0.364989
O O11 0.000000 0.883679 0.000000
O O12 0.079421 0.000000 0.000000
O O13 0.238438 0.500000 0.212126
O O14 0.000000 0.884898 0.500000
O O15 0.000000 0.000000 0.339943
#
# Coordination Sequence:
#
# PCOD9524843 Si02
#       6
#    16  16  16   8  16   8
#     4   9  17  32  56  84 111 144 185 225 272 328
#     4  11  21  37  59  83 113 147 184 234 287 334
#     4  10  21  36  56  83 116 149 188 231 279 335
#     4  11  22  38  59  81 111 149 188 234 286 339
#     4   9  19  35  55  80 112 151 191 228 272 324
#     4  11  24  41  60  81 108 145 189 232 280 344
#
# _framework density 9.2592590000000001
#
# number of rings (size 3 to 8) (size 9 to 14) (size 15 to 20)
#    0.000    2.000    2.000    1.800    0.000    3.200 
#    1.800    0.500    0.000    4.200    0.000    0.000 
#    0.000    0.000    0.000    0.000    0.000    0.000 
#
# Total GULP energy -223098.038116 kJ/mol
# GULP energy per Si atom -5577.450953 kJ/mol
# Density = 0.923818 g / cm^3
# Si number density = 9.259259 Si / 1000 Ang^3
#
#
#
# Elastic Constant Matrix: (Units=GPa)
#
#
# Indices 1 2 3 4 5 6 
#
# 1 33.9021 20.6284 17.7192 0.0000 0.0000 0.0000
# 2 20.6284 168.2436 53.0580 0.0000 0.0000 0.0000
# 3 17.7192 53.0580 121.8509 0.0000 0.0000 0.0000
# 4 0.0000 0.0000 0.0000 24.0793 0.0000 0.0000
# 5 0.0000 0.0000 0.0000 0.0000 22.0147 0.0000
# 6 0.0000 0.0000 0.0000 0.0000 0.0000 25.4684
#
#
#
# Elastic Compliance Matrix: (Units=1/GPa)
#
#
# Indices 1 2 3 4 5 6 
#
# 1 0.033138 -0.002948 -0.003535 0.000000 0.000000 0.000000
# 2 -0.002948 0.007152 -0.002686 0.000000 0.000000 0.000000
# 3 -0.003535 -0.002686 0.009890 0.000000 0.000000 0.000000
# 4 0.000000 0.000000 0.000000 0.041529 0.000000 0.000000
# 5 0.000000 0.000000 0.000000 0.000000 0.045424 0.000000
# 6 0.000000 0.000000 0.000000 0.000000 0.000000 0.039264
#
#
# Mechanical properties :
#
#
# Convention : Reuss Voigt Hill
#
# Bulk Modulus (GPa) = 31.40425 56.31197 43.85811
# Shear Modulus (GPa) = 24.34858 29.81855 27.08356
#
# Velocity S-wave (km/s) = 3.62998 4.01708 3.82843
# Velocity P-wave (km/s) = 5.87913 7.21044 6.57855
#
# Compressibility (1/GPa) = 0.03184282
#
# Stress axis : x y z
#
# Youngs Moduli (GPa) = 30.17655 139.81747 101.11012
#
# Poissons Ratio (x) = 0.41222 0.35744
# Poissons Ratio (y) = 0.08897 0.27154
# Poissons Ratio (z) = 0.10668 0.37549
#
# Static dielectric constant tensor:
#      x y z
#    x 1.689180 0.000000 0.000000 
#    y 0.000000 1.641380 0.000000 
#    z 0.000000 0.000000 1.617910 
# 
# From -- ./inp_files/27153.got.cif
#   From: 2010.05.17/outbox.ucp.g08.bks.cvg/sg71_14_cif.got.tgz:27153.got - 2010.06.11 16:29:00.
