data_PCOD9524730
_publ_section_title
;
Structure prediction by ZEFSAII (Michael W. Deem and Ramdas Pophale) SiO2 
 PCOD9524730
Probable space group: I M M M
;
_chemical_formula_sum "Si O2"
_cell_formula_units_Z 52
_cell_length_a 18.000000
_cell_length_b 15.000000
_cell_length_c 24.000000
_cell_angle_alpha 90.000000
_cell_angle_beta 90.000000
_cell_angle_gamma 90.000000
_cell_volume 6480.000000
_symmetry_space_group_name_H-M "I M M M"
_symmetry_group_IT_number 71
_symmetry_cell_setting 'orthorhombic'
loop_
_space_group_symop_operation_xyz
x,y,z
-x,-y,z
x,-y,-z
-x,y,-z
-x,-y,-z
x,y,-z
-x,y,z
x,-y,z
1/2+x,1/2+y,1/2+z
1/2-x,1/2-y,1/2+z
1/2+x,1/2-y,1/2-z
1/2-x,1/2+y,1/2-z
1/2-x,1/2-y,1/2-z
1/2+x,1/2+y,1/2-z
1/2-x,1/2+y,1/2+z
1/2+x,1/2-y,1/2+z
loop_
_atom_site_type_symbol
_atom_site_label
_atom_site_fract_x
_atom_site_fract_y
_atom_site_fract_z
Si Si1 0.585999 0.766613 0.062554
Si Si2 0.149807 0.605623 0.868258
Si Si3 0.836484 0.726079 0.759216
Si Si4 0.087893 0.101564 0.716942
Si Si5 0.321091 0.601021 0.100751
Si Si6 0.500000 0.107587 0.436626
Si Si7 0.911312 0.395014 0.665264
O O1 0.500000 0.737737 0.071706
O O2 0.639264 0.681537 0.069071
O O3 0.602082 0.843295 0.107352
O O4 0.591740 0.801982 0.000000
O O5 0.142191 0.500000 0.852424
O O6 0.152362 0.671223 0.815779
O O7 0.231815 0.612723 0.896153
O O8 0.077353 0.629756 0.905190
O O9 0.750000 0.750000 0.750000
O O10 0.883323 0.818020 0.755378
O O11 0.866249 0.660535 0.710943
O O12 0.140204 0.105696 0.662052
O O13 0.000000 0.114565 0.703392
O O14 0.095370 0.000000 0.739271
O O15 0.335575 0.500000 0.079629
O O16 0.500000 0.142069 0.500000
O O17 0.500000 0.000000 0.439331
O O18 0.892196 0.500000 0.663695
O O19 0.000000 0.388871 0.677253
#
# Coordination Sequence:
#
# PCOD9524730 Si02
#       7
#    16  16  16  16  16   8  16
#     4  10  20  34  51  74 104 138 180 223 261 307
#     4  10  21  35  53  80 108 139 177 216 273 332
#     4  12  21  33  53  79 111 139 175 223 273 326
#     4  10  20  33  50  72 105 147 180 211 263 324
#     4  10  19  34  52  74 105 141 177 218 268 320
#     4   9  20  38  56  76 107 143 180 226 276 327
#     4  10  21  35  52  75 103 140 178 214 263 315
#
# _framework density 8.0246910000000007
#
# number of rings (size 3 to 8) (size 9 to 14) (size 15 to 20)
#    0.000    1.769    3.077    1.385    2.154    2.769 
#    0.000    3.846    0.000    0.000    0.000    0.000 
#    0.000    1.231    0.000    0.000    0.000    0.154 
#
# Total GULP energy -289939.803716 kJ/mol
# GULP energy per Si atom -5575.765456 kJ/mol
# Density = 0.800643 g / cm^3
# Si number density = 8.024691 Si / 1000 Ang^3
#
#
#
# Elastic Constant Matrix: (Units=GPa)
#
#
# Indices 1 2 3 4 5 6 
#
# 1 121.5302 55.4551 47.7387 0.0000 0.0000 0.0000
# 2 55.4551 113.6102 52.8583 0.0000 0.0000 0.0000
# 3 47.7387 52.8583 86.6452 0.0000 0.0000 0.0000
# 4 0.0000 0.0000 0.0000 18.0916 0.0000 0.0000
# 5 0.0000 0.0000 0.0000 0.0000 19.6796 0.0000
# 6 0.0000 0.0000 0.0000 0.0000 0.0000 29.4227
#
#
#
# Elastic Compliance Matrix: (Units=1/GPa)
#
#
# Indices 1 2 3 4 5 6 
#
# 1 0.011533 -0.003733 -0.004077 0.000000 0.000000 0.000000
# 2 -0.003733 0.013498 -0.006178 0.000000 0.000000 0.000000
# 3 -0.004077 -0.006178 0.017557 0.000000 0.000000 0.000000
# 4 0.000000 0.000000 0.000000 0.055274 0.000000 0.000000
# 5 0.000000 0.000000 0.000000 0.000000 0.050814 0.000000
# 6 0.000000 0.000000 0.000000 0.000000 0.000000 0.033987
#
#
# Mechanical properties :
#
#
# Convention : Reuss Voigt Hill
#
# Bulk Modulus (GPa) = 68.43597 70.43217 69.43407
# Shear Modulus (GPa) = 23.20060 24.48766 23.84413
#
# Velocity S-wave (km/s) = 3.80620 3.91035 3.85862
# Velocity P-wave (km/s) = 7.87716 8.02295 7.95039
#
# Compressibility (1/GPa) = 0.01461220
#
# Stress axis : x y z
#
# Youngs Moduli (GPa) = 86.70589 74.08260 56.95754
#
# Poissons Ratio (x) = 0.27651 0.23224
# Poissons Ratio (y) = 0.32363 0.35190
# Poissons Ratio (z) = 0.35353 0.45770
#
# Static dielectric constant tensor:
#      x y z
#    x 1.536860 0.000000 0.000000 
#    y 0.000000 1.525690 0.000000 
#    z 0.000000 0.000000 1.547980 
# 
# From -- ./inp_files/45124.got.cif
#   From: 2010.05.17/outbox.ucp.g08.bks.cvg/sg71_23_cif.got.tgz:45124.got - 2010.06.11 16:29:00.
