data_PCOD9524476
_publ_section_title
;
Structure prediction by ZEFSAII (Michael W. Deem and Ramdas Pophale) SiO2 
 PCOD9524476
Probable space group: I M M M
;
_chemical_formula_sum "Si O2"
_cell_formula_units_Z 48
_cell_length_a 15.003230
_cell_length_b 5.223021
_cell_length_c 29.681032
_cell_angle_alpha 90.000000
_cell_angle_beta 90.000000
_cell_angle_gamma 90.000000
_cell_volume 2325.870531
_symmetry_space_group_name_H-M "I M M M"
_symmetry_group_IT_number 71
_symmetry_cell_setting 'orthorhombic'
loop_
_space_group_symop_operation_xyz
x,y,z
-x,-y,z
x,-y,-z
-x,y,-z
-x,-y,-z
x,y,-z
-x,y,z
x,-y,z
1/2+x,1/2+y,1/2+z
1/2-x,1/2-y,1/2+z
1/2+x,1/2-y,1/2-z
1/2-x,1/2+y,1/2-z
1/2-x,1/2-y,1/2-z
1/2+x,1/2+y,1/2-z
1/2-x,1/2+y,1/2+z
1/2+x,1/2-y,1/2+z
loop_
_atom_site_type_symbol
_atom_site_label
_atom_site_fract_x
_atom_site_fract_y
_atom_site_fract_z
Si Si1 0.663905 0.000000 0.684472
Si Si2 0.097719 0.500000 0.397898
Si Si3 0.398293 0.500000 0.266058
Si Si4 0.102373 0.500000 0.913384
Si Si5 0.789445 0.000000 0.053816
Si Si6 0.131740 0.000000 0.660534
O O1 0.648879 0.750898 0.714685
O O2 0.761870 0.000000 0.663875
O O3 0.601172 0.000000 0.640932
O O4 0.187694 0.500000 0.427711
O O5 0.102256 0.749330 0.366253
O O6 0.000000 0.500000 0.421237
O O7 0.500000 0.500000 0.282430
O O8 0.398972 0.500000 0.212156
O O9 0.156748 0.750421 0.929189
O O10 0.000000 0.500000 0.930100
O O11 0.787455 0.000000 0.000000
#
# Coordination Sequence:
#
# PCOD9524476 Si02
#       6
#     8   8   8   8   8   8
#     4  12  23  43  64  94 136 180 220 270 323 387
#     4  12  24  45  72  98 132 176 221 274 338 397
#     4  12  24  38  61  98 132 176 230 269 316 382
#     4  12  25  45  72 100 137 181 219 267 333 398
#     4  12  26  47  71 101 136 168 218 282 335 404
#     4  12  24  44  66  95 134 179 223 272 325 386
#
# _framework density 20.637433000000001
#
# number of rings (size 3 to 8) (size 9 to 14) (size 15 to 20)
#    0.000    0.000    3.333    8.000    0.000    2.333 
#    0.000    0.000    0.000    4.000    0.000    0.000 
#    0.000    0.000    0.000    0.000    0.000    0.000 
#
# Total GULP energy -134365.894798 kJ/mol
# GULP energy per Si atom -5598.578950 kJ/mol
# Density = 2.059046 g / cm^3
# Si number density = 20.637433 Si / 1000 Ang^3
#
#
#
# Elastic Constant Matrix: (Units=GPa)
#
#
# Indices 1 2 3 4 5 6 
#
# 1 195.2221 51.9039 24.1504 0.0000 0.0000 0.0000
# 2 51.9039 202.3788 57.4731 0.0000 0.0000 0.0000
# 3 24.1504 57.4731 122.1382 0.0000 0.0000 0.0000
# 4 0.0000 0.0000 0.0000 5.2498 0.0000 0.0000
# 5 0.0000 0.0000 0.0000 0.0000 15.8037 0.0000
# 6 0.0000 0.0000 0.0000 0.0000 0.0000 -10.5618
#
#
#
# Elastic Compliance Matrix: (Units=1/GPa)
#
#
# Indices 1 2 3 4 5 6 
#
# 1 0.005523 -0.001277 -0.000491 0.000000 0.000000 0.000000
# 2 -0.001277 0.005999 -0.002570 0.000000 0.000000 0.000000
# 3 -0.000491 -0.002570 0.009494 0.000000 0.000000 0.000000
# 4 0.000000 0.000000 0.000000 0.190484 0.000000 0.000000
# 5 0.000000 0.000000 0.000000 0.000000 0.063276 0.000000
# 6 0.000000 0.000000 0.000000 0.000000 0.000000 -0.094681
#
#
# Mechanical properties :
#
#
# Convention : Reuss Voigt Hill
#
# Bulk Modulus (GPa) = 81.04560 87.42154 84.23357
# Shear Modulus (GPa) = 25.92231 27.84579 26.88405
#
# Velocity S-wave (km/s) = 3.54797 3.67725 3.61319
# Velocity P-wave (km/s) = 7.49270 7.77703 7.63619
#
# Compressibility (1/GPa) = 0.01233873
#
# Stress axis : x y z
#
# Youngs Moduli (GPa) = 181.07349 166.70483 105.32975
#
# Poissons Ratio (x) = 0.21287 0.05173
# Poissons Ratio (y) = 0.23121 0.27072
# Poissons Ratio (z) = 0.08893 0.42847
#
# Static dielectric constant tensor:
#      x y z
#    x 1.785950 0.000000 0.000000 
#    y 0.000000 1.765490 0.000000 
#    z 0.000000 0.000000 1.686380 
# 
# From -- ./inp_files/64997.got.cif
#   From: 2010.05.17/outbox.cif.g08.bks.cpg/sg71_33_cif.got.tgz:64997.got - 2010.06.03 16:22:01.
