data_PCOD9524955
_publ_section_title
;
Structure prediction by ZEFSAII (Michael W. Deem and Ramdas Pophale) SiO2 
 PCOD9524955
Probable space group: I B A M
;
_chemical_formula_sum "Si O2"
_cell_formula_units_Z 48
_cell_length_a 26.519482
_cell_length_b 12.928280
_cell_length_c 5.548314
_cell_angle_alpha 90.000000
_cell_angle_beta 90.000000
_cell_angle_gamma 90.000000
_cell_volume 1902.246605
_symmetry_space_group_name_H-M "I B A M"
_symmetry_group_IT_number 72
_symmetry_cell_setting 'orthorhombic'
loop_
_space_group_symop_operation_xyz
x,y,z
-x,-y,z
x,-y,1/2-z
-x,y,1/2-z
-x,-y,-z
x,y,-z
-x,y,1/2+z
x,-y,1/2+z
1/2+x,1/2+y,1/2+z
1/2-x,1/2-y,1/2+z
1/2+x,1/2-y,-z
1/2-x,1/2+y,-z
1/2-x,1/2-y,1/2-z
1/2+x,1/2+y,1/2-z
1/2-x,1/2+y,z
1/2+x,1/2-y,z
loop_
_atom_site_type_symbol
_atom_site_label
_atom_site_fract_x
_atom_site_fract_y
_atom_site_fract_z
Si Si1 0.275168 0.879235 0.500000
Si Si2 0.343085 0.620810 0.000000
Si Si3 0.578135 0.033376 0.500000
Si Si4 0.883941 0.883502 0.500000
Si Si5 0.183764 0.401440 0.000000
Si Si6 0.969168 0.747477 0.500000
O O1 0.216218 0.858705 0.500000
O O2 0.303525 0.847760 0.253589
O O3 0.277106 0.003848 0.500000
O O4 0.365806 0.662858 0.247069
O O5 0.360788 0.499632 0.000000
O O6 0.574191 0.157706 0.500000
O O7 0.553972 0.000000 0.750000
O O8 0.630352 0.963612 0.500000
O O9 0.943277 0.860638 0.500000
O O10 0.000000 0.735468 0.750000
#
# Coordination Sequence:
#
# PCOD9524955 Si02
#       6
#     8   8   8   8   8   8
#     4  10  16  28  56  93 125 153 204 230 287 353
#     4  10  19  35  65  98 122 173 207 236 283 382
#     4  12  23  42  67  93 117 161 215 262 317 380
#     4  10  20  39  61  91 127 160 207 251 314 363
#     4  10  16  29  51  90 115 156 193 243 290 347
#     4  12  28  47  65  89 123 163 204 275 337 370
#
# _framework density 25.233324
#
# number of rings (size 3 to 8) (size 9 to 14) (size 15 to 20)
#    0.000    1.333    3.333    7.000    0.000    2.000 
#    0.000   10.000    0.000    8.000    0.000    0.000 
#    0.000    0.000    0.000    0.000    0.000    0.000 
#
# Total GULP energy -133851.520931 kJ/mol
# GULP energy per Si atom -5577.146705 kJ/mol
# Density = 2.517589 g / cm^3
# Si number density = 25.233324 Si / 1000 Ang^3
#
#
#
# Elastic Constant Matrix: (Units=GPa)
#
#
# Indices 1 2 3 4 5 6 
#
# 1 149.4798 35.2311 83.9728 0.0000 0.0000 0.0000
# 2 35.2311 102.0379 27.0872 0.0000 0.0000 0.0000
# 3 83.9728 27.0872 318.2445 0.0000 0.0001 0.0000
# 4 0.0000 0.0000 0.0000 -6.7614 0.0000 0.0000
# 5 0.0000 0.0000 0.0001 0.0000 -175.6195 0.0000
# 6 0.0000 0.0000 0.0000 0.0000 0.0000 192.8894
#
#
#
# Elastic Compliance Matrix: (Units=1/GPa)
#
#
# Indices 1 2 3 4 5 6 
#
# 1 0.008374 -0.002358 -0.002009 0.000000 0.000000 0.000000
# 2 -0.002358 0.010691 -0.000288 0.000000 0.000000 0.000000
# 3 -0.002009 -0.000288 0.003697 0.000000 0.000000 0.000000
# 4 0.000000 0.000000 0.000000 -0.147899 0.000000 0.000000
# 5 0.000000 0.000000 0.000000 0.000000 -0.005694 0.000000
# 6 0.000000 0.000000 0.000000 0.000000 0.000000 0.005184
#
#
# Mechanical properties :
#
#
# Convention : Reuss Voigt Hill
#
# Bulk Modulus (GPa) = 74.33652 95.81604 85.07628
# Shear Modulus (GPa) = -44.70149 30.33310 -7.18419
#
# Velocity S-wave (km/s) = -4.21352 3.47090 -1.68917
# Velocity P-wave (km/s) = 2.41909 7.35645 5.47582
#
# Compressibility (1/GPa) = 0.01345234
#
# Stress axis : x y z
#
# Youngs Moduli (GPa) = 119.41438 93.53787 270.50353
#
# Poissons Ratio (x) = 0.22057 0.54342
# Poissons Ratio (y) = 0.28159 0.07783
# Poissons Ratio (z) = 0.23989 0.02691
#
# Static dielectric constant tensor:
#      x y z
#    x 1.979370 0.000000 0.000000 
#    y 0.000000 2.013230 0.000000 
#    z 0.000000 0.000000 2.081320 
# 
# From -- ./inp_files/885.got.cif
#   From: 2010.05.17/outbox.cif.g08.bks.cpg/sg72_1_cif.got.tgz:885.got - 2010.06.03 17:03:01.
