data_PCOD9524577
_publ_section_title
;
Structure prediction by ZEFSAII (Michael W. Deem and Ramdas Pophale) SiO2 
 PCOD9524577
Probable space group: I M M M
;
_chemical_formula_sum "Si O2"
_cell_formula_units_Z 56
_cell_length_a 37.633051
_cell_length_b 9.530067
_cell_length_c 7.353847
_cell_angle_alpha 90.000000
_cell_angle_beta 90.000000
_cell_angle_gamma 90.000000
_cell_volume 2637.424115
_symmetry_space_group_name_H-M "I M M M"
_symmetry_group_IT_number 71
_symmetry_cell_setting 'orthorhombic'
loop_
_space_group_symop_operation_xyz
x,y,z
-x,-y,z
x,-y,-z
-x,y,-z
-x,-y,-z
x,y,-z
-x,y,z
x,-y,z
1/2+x,1/2+y,1/2+z
1/2-x,1/2-y,1/2+z
1/2+x,1/2-y,1/2-z
1/2-x,1/2+y,1/2-z
1/2-x,1/2-y,1/2-z
1/2+x,1/2+y,1/2-z
1/2-x,1/2+y,1/2+z
1/2+x,1/2-y,1/2+z
loop_
_atom_site_type_symbol
_atom_site_label
_atom_site_fract_x
_atom_site_fract_y
_atom_site_fract_z
Si Si1 0.068979 0.338238 0.722096
Si Si2 0.500000 0.337984 0.778189
Si Si3 0.715547 0.657886 0.216853
Si Si4 0.362932 0.336532 0.778628
O O1 0.068992 0.338782 0.500000
O O2 0.066601 0.500000 0.779660
O O3 0.105209 0.262623 0.782119
O O4 0.035097 0.246338 0.778431
O O5 0.500000 0.500000 0.719469
O O6 0.500000 0.339697 0.000000
O O7 0.720940 0.500000 0.286818
O O8 0.750000 0.750000 0.250000
O O9 0.676705 0.708571 0.280882
O O10 0.712211 0.649130 0.000000
O O11 0.368034 0.500000 0.726506
O O12 0.363777 0.334190 0.000000
#
# Coordination Sequence:
#
# PCOD9524577 Si02
#       4
#    16   8  16  16
#     4   9  15  21  30  46  67  91 124 165 202 238
#     4   9  15  21  29  41  61  93 128 159 196 241
#     4   9  18  31  46  65  88 114 146 183 221 263
#     4   8  14  25  38  51  71 100 132 165 203 249
#
# _framework density 21.232837
#
# number of rings (size 3 to 8) (size 9 to 14) (size 15 to 20)
#    0.000    3.286    0.000    3.000    0.000    6.857 
#    0.000    2.857    0.000    0.000    0.000    0.000 
#    0.000    0.000    0.000    1.286    0.000   25.429 
#
# Total GULP energy -156247.520387 kJ/mol
# GULP energy per Si atom -5580.268585 kJ/mol
# Density = 2.118451 g / cm^3
# Si number density = 21.232837 Si / 1000 Ang^3
#
#
#
# Elastic Constant Matrix: (Units=GPa)
#
#
# Indices 1 2 3 4 5 6 
#
# 1 268.0559 162.6997 6.4193 0.0000 0.0000 0.0000
# 2 162.6997 178.0135 4.3344 0.0000 0.0000 0.0000
# 3 6.4193 4.3344 76.4125 -0.0001 -0.0001 0.0000
# 4 0.0000 0.0000 -0.0001 -3.5534 0.0000 0.0000
# 5 0.0000 0.0000 -0.0001 0.0000 5.0036 0.0000
# 6 0.0000 0.0000 0.0000 0.0000 0.0000 43.7080
#
#
#
# Elastic Compliance Matrix: (Units=1/GPa)
#
#
# Indices 1 2 3 4 5 6 
#
# 1 0.008384 -0.007656 -0.000270 0.000000 0.000000 0.000000
# 2 -0.007656 0.012617 -0.000072 0.000000 0.000000 0.000000
# 3 -0.000270 -0.000072 0.013114 0.000000 0.000000 0.000000
# 4 0.000000 0.000000 0.000000 -0.281417 -0.000002 0.000000
# 5 0.000000 0.000000 0.000000 -0.000002 0.199855 0.000000
# 6 0.000000 0.000000 0.000000 0.000000 0.000000 0.022879
#
#
# Mechanical properties :
#
#
# Convention : Reuss Voigt Hill
#
# Bulk Modulus (GPa) = 55.19648 96.59876 75.89762
# Shear Modulus (GPa) = -1974.70923 32.30021 -971.20451
#
# Velocity S-wave (km/s) = -30.52941 3.90454 -21.41027
# Velocity P-wave (km/s) = 34.88086 8.11917 23.98701
#
# Compressibility (1/GPa) = 0.01811710
#
# Stress axis : x y z
#
# Youngs Moduli (GPa) = 119.27355 79.25854 76.25640
#
# Poissons Ratio (x) = 0.60682 0.02059
# Poissons Ratio (y) = 0.91319 0.00553
# Poissons Ratio (z) = 0.03221 0.00574
#
# Static dielectric constant tensor:
#      x y z
#    x 1.748720 0.000000 0.000000 
#    y 0.000000 1.729270 0.000000 
#    z 0.000000 0.000000 2.088890 
# 
# From -- ./inp_files/16090.got.cif
#   From: 2010.05.17/outbox.cif.g08.bks.cpg/sg71_9_cif.got.tgz:16090.got - 2010.06.03 16:22:01.
