data_PCOD9524340
_publ_section_title
;
Structure prediction by ZEFSAII (Michael W. Deem and Ramdas Pophale) SiO2 
 PCOD9524340
Probable space group: I M M M
;
_chemical_formula_sum "Si O2"
_cell_formula_units_Z 66
_cell_length_a 17.799076
_cell_length_b 7.819457
_cell_length_c 22.809676
_cell_angle_alpha 90.000000
_cell_angle_beta 90.000000
_cell_angle_gamma 90.000000
_cell_volume 3174.630392
_symmetry_space_group_name_H-M "I M M M"
_symmetry_group_IT_number 71
_symmetry_cell_setting 'orthorhombic'
loop_
_space_group_symop_operation_xyz
x,y,z
-x,-y,z
x,-y,-z
-x,y,-z
-x,-y,-z
x,y,-z
-x,y,z
x,-y,z
1/2+x,1/2+y,1/2+z
1/2-x,1/2-y,1/2+z
1/2+x,1/2-y,1/2-z
1/2-x,1/2+y,1/2-z
1/2-x,1/2-y,1/2-z
1/2+x,1/2+y,1/2-z
1/2-x,1/2+y,1/2+z
1/2+x,1/2-y,1/2+z
loop_
_atom_site_type_symbol
_atom_site_label
_atom_site_fract_x
_atom_site_fract_y
_atom_site_fract_z
Si Si1 0.500000 0.000000 0.000000
Si Si2 0.195401 0.299582 0.617611
Si Si3 0.000000 0.205085 0.067120
Si Si4 0.085552 0.291032 0.721139
Si Si5 0.122479 0.810359 0.500000
Si Si6 0.637859 0.203186 0.650328
O O1 0.564704 0.152743 0.000000
O O2 0.177945 0.500000 0.609901
O O3 0.143788 0.235623 0.671394
O O4 0.173133 0.207593 0.557961
O O5 0.282582 0.281063 0.632918
O O6 0.073369 0.262384 0.102845
O O7 0.000000 0.000000 0.065866
O O8 0.000000 0.267894 0.000000
O O9 0.085743 0.500000 0.721753
O O10 0.110285 0.234118 0.785871
O O11 0.000000 0.237565 0.708549
O O12 0.087936 0.000000 0.500000
O O13 0.648559 0.000000 0.654831
#
# Coordination Sequence:
#
# PCOD9524340 Si02
#       6
#     2  16   8  16   8  16
#     4  12  26  52  72  98 144 178 226 284 354 394
#     4  11  23  41  68  97 138 184 225 277 345 404
#     4  11  25  43  64  93 127 172 222 277 342 413
#     4   9  19  37  65  96 131 176 224 277 342 407
#     4  12  27  47  73 107 138 182 236 284 339 413
#     4  11  22  41  67  97 133 172 226 283 338 409
#
# _framework density 20.789822000000001
#
# number of rings (size 3 to 8) (size 9 to 14) (size 15 to 20)
#    0.000    1.333    2.424    2.727    3.394    0.970 
#    0.000    3.636    0.000    0.000    0.000    0.000 
#    0.000    0.000    0.000    0.000    0.000    0.000 
#
# Total GULP energy -184270.363343 kJ/mol
# GULP energy per Si atom -5583.950404 kJ/mol
# Density = 2.074250 g / cm^3
# Si number density = 20.789822 Si / 1000 Ang^3
#
#
#
# Elastic Constant Matrix: (Units=GPa)
#
#
# Indices 1 2 3 4 5 6 
#
# 1 175.3263 8.1428 94.4144 0.0000 0.0000 0.0000
# 2 8.1428 80.8702 13.4548 0.0000 0.0000 0.0000
# 3 94.4144 13.4548 190.0486 0.0000 0.0000 0.0000
# 4 0.0000 0.0000 0.0000 -40.8561 0.0000 0.0000
# 5 0.0000 0.0000 0.0000 0.0000 27.0618 0.0000
# 6 0.0000 0.0000 0.0000 0.0000 0.0000 24.4652
#
#
#
# Elastic Compliance Matrix: (Units=1/GPa)
#
#
# Indices 1 2 3 4 5 6 
#
# 1 0.007788 -0.000142 -0.003859 0.000000 0.000000 0.000000
# 2 -0.000142 0.012515 -0.000815 0.000000 0.000000 0.000000
# 3 -0.003859 -0.000815 0.007237 0.000000 0.000000 0.000000
# 4 0.000000 0.000000 0.000000 -0.024476 0.000000 0.000000
# 5 0.000000 0.000000 0.000000 0.000000 0.036952 0.000000
# 6 0.000000 0.000000 0.000000 0.000000 0.000000 0.040874
#
#
# Mechanical properties :
#
#
# Convention : Reuss Voigt Hill
#
# Bulk Modulus (GPa) = 55.84357 75.36323 65.60340
# Shear Modulus (GPa) = 51.81672 24.14971 37.98322
#
# Velocity S-wave (km/s) = 4.99782 3.41194 4.27899
# Velocity P-wave (km/s) = 7.76039 7.20073 7.48579
#
# Compressibility (1/GPa) = 0.01790716
#
# Stress axis : x y z
#
# Youngs Moduli (GPa) = 128.39548 79.90108 138.18380
#
# Poissons Ratio (x) = 0.01136 0.53327
# Poissons Ratio (y) = 0.01825 0.11268
# Poissons Ratio (z) = 0.49550 0.06515
#
# Static dielectric constant tensor:
#      x y z
#    x 2.440940 0.000000 0.000000 
#    y 0.000000 1.763400 0.000000 
#    z 0.000000 0.000000 1.723020 
# 
# From -- ./inp_files/53758.got.cif
#   From: 2010.05.17/outbox.cif.g08.bks.cpg/sg71_27_cif.got.tgz:53758.got - 2010.06.03 16:22:01.
