data_PCOD9524358
_publ_section_title
;
Structure prediction by ZEFSAII (Michael W. Deem and Ramdas Pophale) SiO2 
 PCOD9524358
Probable space group: I M M M
;
_chemical_formula_sum "Si O2"
_cell_formula_units_Z 104
_cell_length_a 34.465940
_cell_length_b 7.647674
_cell_length_c 22.645468
_cell_angle_alpha 90.000000
_cell_angle_beta 90.000000
_cell_angle_gamma 90.000000
_cell_volume 5968.989225
_symmetry_space_group_name_H-M "I M M M"
_symmetry_group_IT_number 71
_symmetry_cell_setting 'orthorhombic'
loop_
_space_group_symop_operation_xyz
x,y,z
-x,-y,z
x,-y,-z
-x,y,-z
-x,-y,-z
x,y,-z
-x,y,z
x,-y,z
1/2+x,1/2+y,1/2+z
1/2-x,1/2-y,1/2+z
1/2+x,1/2-y,1/2-z
1/2-x,1/2+y,1/2-z
1/2-x,1/2-y,1/2-z
1/2+x,1/2+y,1/2-z
1/2-x,1/2+y,1/2+z
1/2+x,1/2-y,1/2+z
loop_
_atom_site_type_symbol
_atom_site_label
_atom_site_fract_x
_atom_site_fract_y
_atom_site_fract_z
Si Si1 0.238012 0.194237 0.571745
Si Si2 0.593765 0.286028 0.614818
Si Si3 0.955306 0.786420 0.000000
Si Si4 0.175752 0.211395 0.931470
Si Si5 0.318453 0.000000 0.071994
Si Si6 0.453728 0.293367 0.860823
Si Si7 0.591863 0.000000 0.070826
Si Si8 0.544168 0.712985 0.725299
O O1 0.239501 0.206520 0.500000
O O2 0.282259 0.228813 0.590850
O O3 0.206566 0.333743 0.591870
O O4 0.226176 0.000000 0.588157
O O5 0.593818 0.500000 0.615016
O O6 0.567794 0.232474 0.558633
O O7 0.638052 0.230253 0.604430
O O8 0.573769 0.227202 0.675266
O O9 0.000000 0.729195 0.000000
O O10 0.955552 0.000000 0.000000
O O11 0.176386 0.000000 0.931865
O O12 0.171117 0.267480 0.000000
O O13 0.363084 0.000000 0.090003
O O14 0.318568 0.000000 0.000000
O O15 0.500000 0.271937 0.870337
O O16 0.444964 0.500000 0.867779
O O17 0.446067 0.240457 0.792623
O O18 0.429687 0.169912 0.903601
O O19 0.590246 0.000000 0.000000
O O20 0.500000 0.769925 0.712281
O O21 0.543654 0.500000 0.723995
#
# Coordination Sequence:
#
# PCOD9524358 Si02
#       8
#    16  16   8  16   8  16   8  16
#     4   9  16  27  45  66  93 132 169 200 247 303
#     4   9  14  20  34  61  94 134 178 222 271 309
#     4   9  14  18  26  52  97 139 175 218 271 323
#     4   9  14  22  37  60  96 132 168 218 267 310
#     4   9  18  33  48  73 104 130 157 198 244 306
#     4   9  19  36  56  79 109 143 177 210 241 285
#     4  11  23  36  57  86 114 135 160 196 254 313
#     4   8  14  26  44  65  94 134 181 223 254 290
#
# _framework density 17.423385
#
# number of rings (size 3 to 8) (size 9 to 14) (size 15 to 20)
#    0.000    3.000    1.538    1.615    0.000    3.385 
#    0.000    2.308    1.692    0.000    0.000    1.077 
#    0.000    0.615    0.000    0.000    0.000    0.000 
#
# Total GULP energy -289889.358614 kJ/mol
# GULP energy per Si atom -5574.795358 kJ/mol
# Density = 1.738373 g / cm^3
# Si number density = 17.423385 Si / 1000 Ang^3
#
#
#
# Elastic Constant Matrix: (Units=GPa)
#
#
# Indices 1 2 3 4 5 6 
#
# 1 138.4872 65.2388 68.8101 0.0000 0.0000 0.0000
# 2 65.2388 75.3118 34.5336 0.0000 0.0000 0.0000
# 3 68.8101 34.5336 71.8190 0.0000 0.0000 0.0000
# 4 0.0000 0.0000 0.0000 -2.9284 0.0000 0.0000
# 5 0.0000 0.0000 0.0000 0.0000 11.4758 0.0000
# 6 0.0000 0.0000 0.0000 0.0000 0.0000 -61.6853
#
#
#
# Elastic Compliance Matrix: (Units=1/GPa)
#
#
# Indices 1 2 3 4 5 6 
#
# 1 0.018198 -0.009967 -0.012643 0.000000 0.000000 0.000000
# 2 -0.009967 0.022492 -0.001266 0.000000 0.000000 0.000000
# 3 -0.012643 -0.001266 0.026646 0.000000 0.000000 0.000000
# 4 0.000000 0.000000 0.000000 -0.341480 0.000000 0.000000
# 5 0.000000 0.000000 0.000000 0.000000 0.087140 0.000000
# 6 0.000000 0.000000 0.000000 0.000000 0.000000 -0.016211
#
#
# Mechanical properties :
#
#
# Convention : Reuss Voigt Hill
#
# Bulk Modulus (GPa) = 51.06072 69.19809 60.12941
# Shear Modulus (GPa) = -33.57165 -2.82520 -18.19843
#
# Velocity S-wave (km/s) = -4.39431 -1.27476 -3.23535
# Velocity P-wave (km/s) = 1.90337 6.13475 4.54192
#
# Compressibility (1/GPa) = 0.01958452
#
# Stress axis : x y z
#
# Youngs Moduli (GPa) = 54.95121 44.45973 37.52868
#
# Poissons Ratio (x) = 0.44311 0.47448
# Poissons Ratio (y) = 0.54767 0.04752
# Poissons Ratio (z) = 0.69476 0.05630
#
# Static dielectric constant tensor:
#      x y z
#    x 1.578930 0.000000 0.000000 
#    y 0.000000 1.639540 0.000000 
#    z 0.000000 0.000000 1.565090 
# 
# From -- ./inp_files/62336.got.cif
#   From: 2010.05.17/outbox.cif.g08.bks.cpg/sg71_32_cif.got.tgz:62336.got - 2010.06.03 16:22:01.
