data_PCOD9524194
_publ_section_title
;
Structure prediction by ZEFSAII (Michael W. Deem and Ramdas Pophale) SiO2 
 PCOD9524194
Probable space group: I M M M
;
_chemical_formula_sum "Si O2"
_cell_formula_units_Z 72
_cell_length_a 8.291470
_cell_length_b 24.502608
_cell_length_c 18.248879
_cell_angle_alpha 90.000000
_cell_angle_beta 90.000000
_cell_angle_gamma 90.000000
_cell_volume 3707.490419
_symmetry_space_group_name_H-M "I M M M"
_symmetry_group_IT_number 71
_symmetry_cell_setting 'orthorhombic'
loop_
_space_group_symop_operation_xyz
x,y,z
-x,-y,z
x,-y,-z
-x,y,-z
-x,-y,-z
x,y,-z
-x,y,z
x,-y,z
1/2+x,1/2+y,1/2+z
1/2-x,1/2-y,1/2+z
1/2+x,1/2-y,1/2-z
1/2-x,1/2+y,1/2-z
1/2-x,1/2-y,1/2-z
1/2+x,1/2+y,1/2-z
1/2-x,1/2+y,1/2+z
1/2+x,1/2-y,1/2+z
loop_
_atom_site_type_symbol
_atom_site_label
_atom_site_fract_x
_atom_site_fract_y
_atom_site_fract_z
Si Si1 0.802739 0.355850 0.416100
Si Si2 0.307346 0.873405 0.357626
Si Si3 0.306602 0.562530 0.000000
Si Si4 0.192296 0.753373 0.333631
Si Si5 0.197044 0.437041 0.288613
O O1 0.749439 0.361987 0.500000
O O2 0.748877 0.298322 0.380826
O O3 0.753226 0.404426 0.361488
O O4 0.000000 0.355541 0.416651
O O5 0.500000 0.871146 0.353624
O O6 0.255192 0.907690 0.427646
O O7 0.244401 0.811924 0.363519
O O8 0.249753 0.903135 0.283017
O O9 0.251151 0.500000 0.000000
O O10 0.500000 0.563675 0.000000
O O11 0.250000 0.750000 0.250000
O O12 0.000000 0.750361 0.333456
O O13 0.250181 0.500000 0.286585
O O14 0.000000 0.437461 0.287621
#
# Coordination Sequence:
#
# PCOD9524194 Si02
#       5
#    16  16   8  16  16
#     4   9  18  32  51  80 116 149 185 236 294 347
#     4  11  22  38  59  87 119 155 199 246 300 357
#     4  11  25  43  61  87 123 161 202 247 300 363
#     4  11  21  36  58  84 116 154 198 246 300 358
#     4   9  17  31  53  81 112 147 189 235 287 351
#
# _framework density 19.420144000000001
#
# number of rings (size 3 to 8) (size 9 to 14) (size 15 to 20)
#    0.000    1.889    2.222    2.333    1.556    2.222 
#    0.000    2.222    0.000    0.000    0.000    0.000 
#    0.000    1.778    0.000    0.000    0.000    0.000 
#
# Total GULP energy -201095.693579 kJ/mol
# GULP energy per Si atom -5585.991488 kJ/mol
# Density = 1.937594 g / cm^3
# Si number density = 19.420144 Si / 1000 Ang^3
#
#
#
# Elastic Constant Matrix: (Units=GPa)
#
#
# Indices 1 2 3 4 5 6 
#
# 1 19.0419 6.1704 4.3513 0.0000 0.0000 0.0000
# 2 6.1704 132.9353 46.7917 0.0000 0.0000 0.0000
# 3 4.3513 46.7917 138.0636 0.0000 0.0000 0.0000
# 4 0.0000 0.0000 0.0000 34.5876 0.0000 0.0000
# 5 0.0000 0.0000 0.0000 0.0000 18.8698 0.0000
# 6 0.0000 0.0000 0.0000 0.0000 0.0000 22.6105
#
#
#
# Elastic Compliance Matrix: (Units=1/GPa)
#
#
# Indices 1 2 3 4 5 6 
#
# 1 0.053429 -0.002143 -0.000958 0.000000 0.000000 0.000000
# 2 -0.002143 0.008627 -0.002856 0.000000 0.000000 0.000000
# 3 -0.000958 -0.002856 0.008241 0.000000 0.000000 0.000000
# 4 0.000000 0.000000 0.000000 0.028912 0.000000 0.000000
# 5 0.000000 0.000000 0.000000 0.000000 0.052995 0.000000
# 6 0.000000 0.000000 0.000000 0.000000 0.000000 0.044227
#
#
# Mechanical properties :
#
#
# Convention : Reuss Voigt Hill
#
# Bulk Modulus (GPa) = 17.12802 44.96303 31.04552
# Shear Modulus (GPa) = 21.94841 30.72874 26.33858
#
# Velocity S-wave (km/s) = 3.36547 3.98214 3.68673
# Velocity P-wave (km/s) = 4.89293 6.65931 5.84325
#
# Compressibility (1/GPa) = 0.05838387
#
# Stress axis : x y z
#
# Youngs Moduli (GPa) = 18.71640 115.91060 121.34026
#
# Poissons Ratio (x) = 0.24839 0.11620
# Poissons Ratio (y) = 0.04011 0.34659
# Poissons Ratio (z) = 0.01792 0.33109
#
# Static dielectric constant tensor:
#      x y z
#    x 1.692040 0.000000 0.000000 
#    y 0.000000 1.670760 0.000000 
#    z 0.000000 0.000000 1.660780 
# 
# From -- ./inp_files/12172.got.cif
#   From: 2010.05.17/outbox.cif.g08.bks.cpg/sg71_7_cif.got.tgz:12172.got - 2010.06.03 16:22:01.
