data_PCOD9524247
_publ_section_title
;
Structure prediction by ZEFSAII (Michael W. Deem and Ramdas Pophale) SiO2 
 PCOD9524247
Probable space group: I M M M
;
_chemical_formula_sum "Si O2"
_cell_formula_units_Z 88
_cell_length_a 7.341056
_cell_length_b 26.285270
_cell_length_c 20.320005
_cell_angle_alpha 90.000000
_cell_angle_beta 90.000000
_cell_angle_gamma 90.000000
_cell_volume 3920.981470
_symmetry_space_group_name_H-M "I M M M"
_symmetry_group_IT_number 71
_symmetry_cell_setting 'orthorhombic'
loop_
_space_group_symop_operation_xyz
x,y,z
-x,-y,z
x,-y,-z
-x,y,-z
-x,-y,-z
x,y,-z
-x,y,z
x,-y,z
1/2+x,1/2+y,1/2+z
1/2-x,1/2-y,1/2+z
1/2+x,1/2-y,1/2-z
1/2-x,1/2+y,1/2-z
1/2-x,1/2-y,1/2-z
1/2+x,1/2+y,1/2-z
1/2-x,1/2+y,1/2+z
1/2+x,1/2-y,1/2+z
loop_
_atom_site_type_symbol
_atom_site_label
_atom_site_fract_x
_atom_site_fract_y
_atom_site_fract_z
Si Si1 0.222226 0.000000 0.577205
Si Si2 0.302401 0.300528 0.792302
Si Si3 0.221811 0.086328 0.680310
Si Si4 0.778942 0.945693 0.176181
Si Si5 0.220312 0.748014 0.927060
Si Si6 0.721348 0.634261 0.572259
O O1 0.279236 0.050944 0.618451
O O2 0.277545 0.000000 0.500000
O O3 0.000000 0.000000 0.577865
O O4 0.500000 0.313449 0.763302
O O5 0.250000 0.250000 0.750000
O O6 0.211099 0.355921 0.803612
O O7 0.305045 0.280954 0.866766
O O8 0.269377 0.057895 0.747684
O O9 0.000000 0.089622 0.674073
O O10 0.712576 0.899488 0.132068
O O11 0.000000 0.943900 0.174546
O O12 0.722009 0.000000 0.148383
O O13 0.273565 0.807032 0.921947
O O14 0.000000 0.745156 0.921265
O O15 0.269466 0.729396 0.000000
O O16 0.777061 0.615406 0.500000
O O17 0.500000 0.633838 0.573082
#
# Coordination Sequence:
#
# PCOD9524247 Si02
#       6
#     8  16  16  16  16  16
#     4   9  16  28  46  68  98 134 170 213 273 334
#     4  11  22  34  52  78 109 142 179 223 268 321
#     4   9  17  29  44  66  97 132 167 208 266 323
#     4   9  14  21  36  56  85 122 155 190 237 297
#     4   9  18  34  53  72 101 139 174 211 261 316
#     4   8  14  24  39  61  90 125 159 191 234 289
#
# _framework density 22.443359999999998
#
# number of rings (size 3 to 8) (size 9 to 14) (size 15 to 20)
#    0.000    2.818    0.909    2.727    0.000    4.364 
#    0.000    3.636    0.000    0.000    0.000    2.545 
#    0.000    4.364    0.000    9.455    0.000    9.818 
#
# Total GULP energy -245149.256549 kJ/mol
# GULP energy per Si atom -5571.574012 kJ/mol
# Density = 2.239228 g / cm^3
# Si number density = 22.443360 Si / 1000 Ang^3
#
#
#
# Elastic Constant Matrix: (Units=GPa)
#
#
# Indices 1 2 3 4 5 6 
#
# 1 78.3498 6.0718 -2.0526 0.0000 0.0000 0.0000
# 2 6.0718 136.5099 60.7863 0.0000 0.0000 0.0000
# 3 -2.0526 60.7863 102.1517 0.0000 0.0000 0.0000
# 4 0.0000 0.0000 0.0000 45.0711 0.0000 0.0000
# 5 0.0000 0.0000 0.0000 0.0000 1.4509 0.0000
# 6 0.0000 0.0000 0.0000 0.0000 0.0000 -2.9343
#
#
#
# Elastic Compliance Matrix: (Units=1/GPa)
#
#
# Indices 1 2 3 4 5 6 
#
# 1 0.012857 -0.000935 0.000814 0.000000 0.000000 0.000000
# 2 -0.000935 0.010034 -0.005990 0.000000 0.000000 0.000000
# 3 0.000814 -0.005990 0.013370 0.000000 0.000000 0.000000
# 4 0.000000 0.000000 0.000000 0.022187 0.000000 0.000000
# 5 0.000000 0.000000 0.000000 0.000000 0.689251 0.000000
# 6 0.000000 0.000000 0.000000 0.000000 0.000000 -0.340799
#
#
# Mechanical properties :
#
#
# Convention : Reuss Voigt Hill
#
# Bulk Modulus (GPa) = 41.59457 49.62470 45.60964
# Shear Modulus (GPa) = 11.70593 25.53127 18.61860
#
# Velocity S-wave (km/s) = 2.28628 3.37647 2.88337
# Velocity P-wave (km/s) = 5.05399 6.11227 5.60815
#
# Compressibility (1/GPa) = 0.02404160
#
# Stress axis : x y z
#
# Youngs Moduli (GPa) = 77.77843 99.65929 74.79457
#
# Poissons Ratio (x) = 0.09313 -0.06092
# Poissons Ratio (y) = 0.07269 0.44800
# Poissons Ratio (z) = -0.06335 0.59693
#
# Static dielectric constant tensor:
#      x y z
#    x 1.964080 0.000000 0.000000 
#    y 0.000000 1.844300 0.000000 
#    z 0.000000 0.000000 1.788090 
# 
# From -- ./inp_files/50508.got.cif
#   From: 2010.05.17/outbox.cif.g08.bks.cpg/sg71_26_cif.got.tgz:50508.got - 2010.06.03 16:22:01.
