data_PCOD9524816
_publ_section_title
;
Structure prediction by ZEFSAII (Michael W. Deem and Ramdas Pophale) SiO2 
 PCOD9524816
Probable space group: I M M M
;
_chemical_formula_sum "Si O2"
_cell_formula_units_Z 44
_cell_length_a 15.000000
_cell_length_b 27.000000
_cell_length_c 12.000000
_cell_angle_alpha 90.000000
_cell_angle_beta 90.000000
_cell_angle_gamma 90.000000
_cell_volume 4860.000000
_symmetry_space_group_name_H-M "I M M M"
_symmetry_group_IT_number 71
_symmetry_cell_setting 'orthorhombic'
loop_
_space_group_symop_operation_xyz
x,y,z
-x,-y,z
x,-y,-z
-x,y,-z
-x,-y,-z
x,y,-z
-x,y,z
x,-y,z
1/2+x,1/2+y,1/2+z
1/2-x,1/2-y,1/2+z
1/2+x,1/2-y,1/2-z
1/2-x,1/2+y,1/2-z
1/2-x,1/2-y,1/2-z
1/2+x,1/2+y,1/2-z
1/2-x,1/2+y,1/2+z
1/2+x,1/2-y,1/2+z
loop_
_atom_site_type_symbol
_atom_site_label
_atom_site_fract_x
_atom_site_fract_y
_atom_site_fract_z
Si Si1 0.398082 0.940200 0.631815
Si Si2 0.781476 0.085630 0.245405
Si Si3 0.393195 0.500000 0.866640
Si Si4 0.607772 0.843504 0.000000
Si Si5 0.699787 0.240082 0.871945
Si Si6 0.778276 0.559526 0.500000
Si Si7 0.603712 0.659853 0.872037
O O1 0.385930 0.929174 0.500000
O O2 0.500000 0.925894 0.662816
O O3 0.318294 0.917544 0.703702
O O4 0.392106 0.000000 0.643712
O O5 0.843659 0.046150 0.310104
O O6 0.830058 0.136082 0.281649
O O7 0.774569 0.072338 0.114583
O O8 0.500000 0.500000 0.847307
O O9 0.378936 0.500000 0.000000
O O10 0.653276 0.813597 0.894677
O O11 0.500000 0.839462 0.000000
O O12 0.640086 0.900718 0.000000
O O13 0.750000 0.250000 0.750000
O O14 0.623086 0.281737 0.871554
O O15 0.745284 0.247686 0.000000
O O16 0.799549 0.500000 0.500000
O O17 0.500000 0.648937 0.849075
O O18 0.622642 0.642069 0.000000
#
# Coordination Sequence:
#
# PCOD9524816 Si02
#       7
#    16  16   8   8  16   8  16
#     4   9  17  31  53  80 109 149 201 257 317 370
#     4  12  22  38  58  83 128 170 210 263 318 380
#     4  11  22  37  60  88 117 155 213 274 329 386
#     4  10  22  41  70  94 126 171 222 275 328 393
#     4   9  19  37  66  98 131 166 213 266 332 396
#     4  12  26  43  58  86 126 176 229 261 309 378
#     4  10  20  36  63  97 128 159 207 268 329 393
#
# _framework density 9.0534979999999994
#
# number of rings (size 3 to 8) (size 9 to 14) (size 15 to 20)
#    0.545    1.182    1.818    4.364    0.000    2.364 
#    0.000    2.273    0.000    1.636    0.000    2.545 
#    0.000    0.000    0.000    0.000    0.000    0.000 
#
# Total GULP energy -244998.693704 kJ/mol
# GULP energy per Si atom -5568.152130 kJ/mol
# Density = 0.903289 g / cm^3
# Si number density = 9.053498 Si / 1000 Ang^3
#
#
#
# Elastic Constant Matrix: (Units=GPa)
#
#
# Indices 1 2 3 4 5 6 
#
# 1 122.2338 29.6300 70.1180 0.0000 0.0000 0.0000
# 2 29.6300 95.2636 23.8849 0.0000 0.0000 0.0000
# 3 70.1180 23.8849 140.1235 0.0001 0.0000 0.0000
# 4 0.0000 0.0000 0.0001 25.5277 0.0000 0.0000
# 5 0.0000 0.0000 0.0000 0.0000 20.5616 0.0000
# 6 0.0000 0.0000 0.0000 0.0000 0.0000 28.2181
#
#
#
# Elastic Compliance Matrix: (Units=1/GPa)
#
#
# Indices 1 2 3 4 5 6 
#
# 1 0.011945 -0.002316 -0.005582 0.000000 0.000000 0.000000
# 2 -0.002316 0.011415 -0.000787 0.000000 0.000000 0.000000
# 3 -0.005582 -0.000787 0.010064 0.000000 0.000000 0.000000
# 4 0.000000 0.000000 0.000000 0.039173 0.000000 0.000000
# 5 0.000000 0.000000 0.000000 0.000000 0.048634 0.000000
# 6 0.000000 0.000000 0.000000 0.000000 0.000000 0.035438
#
#
# Mechanical properties :
#
#
# Convention : Reuss Voigt Hill
#
# Bulk Modulus (GPa) = 62.29131 67.20963 64.75047
# Shear Modulus (GPa) = 27.87218 30.46068 29.16643
#
# Velocity S-wave (km/s) = 3.92765 4.10599 4.01781
# Velocity P-wave (km/s) = 7.41924 7.72512 7.57372
#
# Compressibility (1/GPa) = 0.01605360
#
# Stress axis : x y z
#
# Youngs Moduli (GPa) = 83.71973 87.60629 99.36246
#
# Poissons Ratio (x) = 0.20285 0.55468
# Poissons Ratio (y) = 0.19385 0.07820
# Poissons Ratio (z) = 0.46736 0.06895
#
# Static dielectric constant tensor:
#      x y z
#    x 1.598290 0.000000 0.000000 
#    y 0.000000 1.694480 0.000000 
#    z 0.000000 0.000000 1.649280 
# 
# From -- ./inp_files/22388.got.cif
#   From: 2010.05.17/outbox.ucp.g08.bks.cvg/sg71_12_cif.got.tgz:22388.got - 2010.06.11 16:29:00.
