data_PCOD9524529
_publ_section_title
;
Structure prediction by ZEFSAII (Michael W. Deem and Ramdas Pophale) SiO2 
 PCOD9524529
Probable space group: I M M M
;
_chemical_formula_sum "Si O2"
_cell_formula_units_Z 80
_cell_length_a 25.297459
_cell_length_b 7.361511
_cell_length_c 24.711641
_cell_angle_alpha 90.000000
_cell_angle_beta 90.000000
_cell_angle_gamma 90.000000
_cell_volume 4601.987685
_symmetry_space_group_name_H-M "I M M M"
_symmetry_group_IT_number 71
_symmetry_cell_setting 'orthorhombic'
loop_
_space_group_symop_operation_xyz
x,y,z
-x,-y,z
x,-y,-z
-x,y,-z
-x,-y,-z
x,y,-z
-x,y,z
x,-y,z
1/2+x,1/2+y,1/2+z
1/2-x,1/2-y,1/2+z
1/2+x,1/2-y,1/2-z
1/2-x,1/2+y,1/2-z
1/2-x,1/2-y,1/2-z
1/2+x,1/2+y,1/2-z
1/2-x,1/2+y,1/2+z
1/2+x,1/2-y,1/2+z
loop_
_atom_site_type_symbol
_atom_site_label
_atom_site_fract_x
_atom_site_fract_y
_atom_site_fract_z
Si Si1 0.770737 0.713789 0.335104
Si Si2 0.441456 0.778962 0.238473
Si Si3 0.670044 0.218727 0.272883
Si Si4 0.441281 0.220695 0.112270
Si Si5 0.168069 0.277850 0.560511
O O1 0.782645 0.500000 0.335630
O O2 0.708960 0.734118 0.321868
O O3 0.802062 0.787059 0.282562
O O4 0.792649 0.784030 0.391856
O O5 0.500000 0.718630 0.255570
O O6 0.390519 0.718786 0.272170
O O7 0.433919 0.728041 0.175319
O O8 0.441933 0.000000 0.239362
O O9 0.669352 0.000000 0.270584
O O10 0.500000 0.279759 0.094887
O O11 0.391284 0.278602 0.077335
O O12 0.441406 0.000000 0.111215
O O13 0.181305 0.218143 0.500000
O O14 0.168536 0.500000 0.559966
#
# Coordination Sequence:
#
# PCOD9524529 Si02
#       5
#    16  16  16  16  16
#     4   9  16  25  36  53  75  98 124 152 183 216
#     4   8  12  19  33  52  73  95 119 149 184 218
#     4   9  15  24  39  55  72  96 124 152 181 219
#     4   8  12  18  28  44  69  98 125 153 183 212
#     4   9  15  22  32  47  71 101 129 155 183 216
#
# _framework density 17.383792
#
# number of rings (size 3 to 8) (size 9 to 14) (size 15 to 20)
#    0.000    3.400    2.000    1.200    0.000    0.400 
#    0.000    2.000    0.000    1.200    0.000    0.000 
#    0.000    1.600    0.000   11.800    0.000    2.000 
#
# Total GULP energy -222878.348019 kJ/mol
# GULP energy per Si atom -5571.958700 kJ/mol
# Density = 1.734423 g / cm^3
# Si number density = 17.383792 Si / 1000 Ang^3
#
#
#
# Elastic Constant Matrix: (Units=GPa)
#
#
# Indices 1 2 3 4 5 6 
#
# 1 132.7219 -3.6826 85.8658 0.0000 0.0000 0.0000
# 2 -3.6826 60.1499 4.2133 0.0000 0.0000 0.0000
# 3 85.8658 4.2133 106.5158 0.0000 0.0000 0.0000
# 4 0.0000 0.0000 0.0000 -4.1370 0.0000 0.0000
# 5 0.0000 0.0000 0.0000 0.0000 23.0293 0.0000
# 6 0.0000 0.0000 0.0000 0.0000 0.0000 6.2454
#
#
#
# Elastic Compliance Matrix: (Units=1/GPa)
#
#
# Indices 1 2 3 4 5 6 
#
# 1 0.015957 0.001883 -0.012938 0.000000 0.000000 0.000000
# 2 0.001883 0.016894 -0.002186 0.000000 0.000000 0.000000
# 3 -0.012938 -0.002186 0.019905 0.000000 0.000000 0.000000
# 4 0.000000 0.000000 0.000000 -0.241720 0.000000 0.000000
# 5 0.000000 0.000000 0.000000 0.000000 0.043423 0.000000
# 6 0.000000 0.000000 0.000000 0.000000 0.000000 0.160119
#
#
# Mechanical properties :
#
#
# Convention : Reuss Voigt Hill
#
# Bulk Modulus (GPa) = 38.06209 52.46454 45.26332
# Shear Modulus (GPa) = 100.36515 19.22692 59.79603
#
# Velocity S-wave (km/s) = 7.60659 3.32930 5.87131
# Velocity P-wave (km/s) = 9.95438 6.71004 8.48865
#
# Compressibility (1/GPa) = 0.02627286
#
# Stress axis : x y z
#
# Youngs Moduli (GPa) = 62.66720 59.19412 50.23946
#
# Poissons Ratio (x) = -0.11148 0.65001
# Poissons Ratio (y) = -0.11802 0.10984
# Poissons Ratio (z) = 0.81080 0.12942
#
# Static dielectric constant tensor:
#      x y z
#    x 1.618400 0.000000 0.000000 
#    y 0.000000 1.723100 0.000000 
#    z 0.000000 0.000000 1.561000 
# 
# From -- ./inp_files/16791.got.cif
#   From: 2010.05.17/outbox.cif.g08.bks.cpg/sg71_9_cif.got.tgz:16791.got - 2010.06.03 16:22:01.
