data_PCOD9524350
_publ_section_title
;
Structure prediction by ZEFSAII (Michael W. Deem and Ramdas Pophale) SiO2 
 PCOD9524350
Probable space group: I M M M
;
_chemical_formula_sum "Si O2"
_cell_formula_units_Z 80
_cell_length_a 26.902266
_cell_length_b 8.860429
_cell_length_c 16.861934
_cell_angle_alpha 90.000000
_cell_angle_beta 90.000000
_cell_angle_gamma 90.000000
_cell_volume 4019.305316
_symmetry_space_group_name_H-M "I M M M"
_symmetry_group_IT_number 71
_symmetry_cell_setting 'orthorhombic'
loop_
_space_group_symop_operation_xyz
x,y,z
-x,-y,z
x,-y,-z
-x,y,-z
-x,-y,-z
x,y,-z
-x,y,z
x,-y,z
1/2+x,1/2+y,1/2+z
1/2-x,1/2-y,1/2+z
1/2+x,1/2-y,1/2-z
1/2-x,1/2+y,1/2-z
1/2-x,1/2-y,1/2-z
1/2+x,1/2+y,1/2-z
1/2-x,1/2+y,1/2+z
1/2+x,1/2-y,1/2+z
loop_
_atom_site_type_symbol
_atom_site_label
_atom_site_fract_x
_atom_site_fract_y
_atom_site_fract_z
Si Si1 0.253912 0.679884 0.661838
Si Si2 0.853935 0.678095 0.093314
Si Si3 0.654926 0.671656 0.876686
Si Si4 0.910092 0.172480 0.770818
Si Si5 0.554351 0.179015 0.120747
O O1 0.257128 0.500000 0.667001
O O2 0.250000 0.750000 0.750000
O O3 0.301668 0.748040 0.618104
O O4 0.203737 0.728972 0.615535
O O5 0.852325 0.500000 0.112246
O O6 0.896310 0.757180 0.145753
O O7 0.862143 0.696767 0.000000
O O8 0.663340 0.500000 0.902237
O O9 0.640496 0.668513 0.782605
O O10 0.603622 0.738767 0.911329
O O11 0.943601 0.275948 0.714122
O O12 0.928194 0.000000 0.775343
O O13 0.500000 0.225865 0.090521
O O14 0.559316 0.000000 0.110621
#
# Coordination Sequence:
#
# PCOD9524350 Si02
#       5
#    16  16  16  16  16
#     4  12  21  31  49  70  95 125 160 199 238 286
#     4  11  23  36  50  69  96 129 164 202 243 288
#     4   9  18  29  44  68  93 121 155 193 235 279
#     4   9  18  30  46  67  91 123 157 193 234 279
#     4   9  16  27  45  69  96 124 155 195 242 286
#
# _framework density 19.903936999999999
#
# number of rings (size 3 to 8) (size 9 to 14) (size 15 to 20)
#    1.200    0.800    2.000    3.600    0.000    3.200 
#    0.000    0.000    0.000    0.600    0.000    4.200 
#    0.000    0.800    0.000    8.400    0.000    3.600 
#
# Total GULP energy -222940.155097 kJ/mol
# GULP energy per Si atom -5573.503877 kJ/mol
# Density = 1.985864 g / cm^3
# Si number density = 19.903937 Si / 1000 Ang^3
#
#
#
# Elastic Constant Matrix: (Units=GPa)
#
#
# Indices 1 2 3 4 5 6 
#
# 1 68.7456 7.4162 17.7806 0.0000 0.0000 0.0000
# 2 7.4162 98.2305 34.5512 0.0000 0.0000 0.0000
# 3 17.7806 34.5512 75.1845 0.0000 0.0000 0.0000
# 4 0.0000 0.0000 0.0000 -2.7131 0.0000 0.0000
# 5 0.0000 0.0000 0.0000 0.0000 -1.5392 0.0000
# 6 0.0000 0.0000 0.0000 0.0000 0.0000 22.9450
#
#
#
# Elastic Compliance Matrix: (Units=1/GPa)
#
#
# Indices 1 2 3 4 5 6 
#
# 1 0.015496 0.000142 -0.003730 0.000000 0.000000 0.000000
# 2 0.000142 0.012144 -0.005615 0.000000 0.000000 0.000000
# 3 -0.003730 -0.005615 0.016763 0.000000 0.000000 0.000000
# 4 0.000000 0.000000 0.000000 -0.368583 0.000000 0.000000
# 5 0.000000 0.000000 0.000000 0.000000 -0.649681 0.000000
# 6 0.000000 0.000000 0.000000 0.000000 0.000000 0.043583
#
#
# Mechanical properties :
#
#
# Convention : Reuss Voigt Hill
#
# Bulk Modulus (GPa) = 38.46429 40.18406 39.32417
# Shear Modulus (GPa) = -5.53583 15.89937 5.18177
#
# Velocity S-wave (km/s) = -1.66952 2.82938 1.61525
# Velocity P-wave (km/s) = 3.95607 5.55938 4.82479
#
# Compressibility (1/GPa) = 0.02599814
#
# Stress axis : x y z
#
# Youngs Moduli (GPa) = 64.53372 82.34355 59.65567
#
# Poissons Ratio (x) = -0.01170 0.22251
# Poissons Ratio (y) = -0.00917 0.33494
# Poissons Ratio (z) = 0.24071 0.46232
#
# Static dielectric constant tensor:
#      x y z
#    x 1.720180 0.000000 0.000000 
#    y 0.000000 1.664010 0.000000 
#    z 0.000000 0.000000 1.738430 
# 
# From -- ./inp_files/49132.got.cif
#   From: 2010.05.17/outbox.cif.g08.bks.cpg/sg71_25_cif.got.tgz:49132.got - 2010.06.03 16:22:01.
