data_PCOD9524779
_publ_section_title
;
Structure prediction by ZEFSAII (Michael W. Deem and Ramdas Pophale) SiO2 
 PCOD9524779
Probable space group: I M M M
;
_chemical_formula_sum "Si O2"
_cell_formula_units_Z 52
_cell_length_a 30.000000
_cell_length_b 21.000000
_cell_length_c 9.000000
_cell_angle_alpha 90.000000
_cell_angle_beta 90.000000
_cell_angle_gamma 90.000000
_cell_volume 5670.000000
_symmetry_space_group_name_H-M "I M M M"
_symmetry_group_IT_number 71
_symmetry_cell_setting 'orthorhombic'
loop_
_space_group_symop_operation_xyz
x,y,z
-x,-y,z
x,-y,-z
-x,y,-z
-x,-y,-z
x,y,-z
-x,y,z
x,-y,z
1/2+x,1/2+y,1/2+z
1/2-x,1/2-y,1/2+z
1/2+x,1/2-y,1/2-z
1/2-x,1/2+y,1/2-z
1/2-x,1/2-y,1/2-z
1/2+x,1/2+y,1/2-z
1/2-x,1/2+y,1/2+z
1/2+x,1/2-y,1/2+z
loop_
_atom_site_type_symbol
_atom_site_label
_atom_site_fract_x
_atom_site_fract_y
_atom_site_fract_z
Si Si1 0.786901 0.295958 0.319342
Si Si2 0.882024 0.239379 0.324081
Si Si3 0.450346 0.173786 0.329606
Si Si4 0.946402 0.000000 0.832802
Si Si5 0.948236 0.868407 0.679500
Si Si6 0.688027 0.074236 0.321107
Si Si7 0.408522 0.074360 0.169275
O O1 0.784767 0.298885 0.500000
O O2 0.750000 0.250000 0.250000
O O3 0.833800 0.262638 0.272980
O O4 0.784537 0.367542 0.251958
O O5 0.878210 0.230894 0.500000
O O6 0.916295 0.293948 0.280952
O O7 0.909406 0.178559 0.264935
O O8 0.436676 0.181381 0.500000
O O9 0.500000 0.198932 0.312585
O O10 0.446526 0.102098 0.274758
O O11 0.935857 0.937144 0.741586
O O12 0.000000 0.000000 0.844856
O O13 0.928006 0.000000 0.000000
O O14 0.948469 0.868025 0.500000
O O15 0.000000 0.853307 0.724922
O O16 0.686858 0.081225 0.500000
O O17 0.639012 0.083368 0.250345
O O18 0.701531 0.000000 0.289437
O O19 0.415096 0.000000 0.157142
O O20 0.407490 0.099866 0.000000
#
# Coordination Sequence:
#
# PCOD9524779 Si02
#       7
#    16  16  16   8  16  16  16
#     4  11  23  39  62  90 118 150 191 237 290 350
#     4  10  21  37  57  81 109 145 188 231 277 333
#     4  11  23  35  50  76 111 150 189 231 281 333
#     4   9  17  29  47  75 109 143 181 223 267 323
#     4   9  17  31  53  79 107 142 184 227 271 324
#     4  10  20  36  61  90 118 149 188 237 290 344
#     4  10  20  34  53  77 106 145 192 236 279 329
#
# _framework density 9.1710759999999993
#
# number of rings (size 3 to 8) (size 9 to 14) (size 15 to 20)
#    0.000    1.923    1.538    2.538    0.000    6.154 
#    0.000    3.077    1.692    0.000    0.000    0.000 
#    0.000    0.000    0.000    0.000    0.000    0.000 
#
# Total GULP energy -289482.984121 kJ/mol
# GULP energy per Si atom -5566.980464 kJ/mol
# Density = 0.915020 g / cm^3
# Si number density = 9.171076 Si / 1000 Ang^3
#
#
#
# Elastic Constant Matrix: (Units=GPa)
#
#
# Indices 1 2 3 4 5 6 
#
# 1 29.6783 44.0132 -17.2767 0.0000 0.0000 0.0000
# 2 44.0132 125.2305 23.3085 0.0000 0.0000 0.0000
# 3 -17.2767 23.3085 -27.6607 0.0000 0.0000 0.0000
# 4 0.0000 0.0000 0.0000 14.9809 0.0000 0.0000
# 5 0.0000 0.0000 0.0000 0.0000 13.1122 0.0000
# 6 0.0000 0.0000 0.0000 0.0000 0.0000 25.4639
#
#
#
# Elastic Compliance Matrix: (Units=1/GPa)
#
#
# Indices 1 2 3 4 5 6 
#
# 1 0.029002 -0.005897 -0.023083 0.000000 0.000000 0.000000
# 2 -0.005897 0.008102 0.010510 0.000000 0.000000 0.000000
# 3 -0.023083 0.010510 -0.012879 0.000000 0.000000 0.000000
# 4 0.000000 0.000000 0.000000 0.066752 0.000000 0.000000
# 5 0.000000 0.000000 0.000000 0.000000 0.076265 0.000000
# 6 0.000000 0.000000 0.000000 0.000000 0.000000 0.039271
#
#
# Mechanical properties :
#
#
# Convention : Reuss Voigt Hill
#
# Bulk Modulus (GPa) = -78.64674 25.25978 -26.69348
# Shear Modulus (GPa) = 20.90177 15.85826 18.38001
#
# Velocity S-wave (km/s) = 3.37938 2.94356 3.16897
# Velocity P-wave (km/s) = 5.26723 5.03528 1.09308
#
# Compressibility (1/GPa) = -0.01271508
#
# Stress axis : x y z
#
# Youngs Moduli (GPa) = 34.48055 123.43345 -77.64819
#
# Poissons Ratio (x) = 0.72783 -1.79236
# Poissons Ratio (y) = 0.20332 0.81606
# Poissons Ratio (z) = 0.79592 -1.29726
#
# Static dielectric constant tensor:
#      x y z
#    x 1.634180 0.000000 0.000000 
#    y 0.000000 1.796590 0.000000 
#    z 0.000000 0.000000 1.648600 
# 
# From -- ./inp_files/17022.got.cif
#   From: 2010.05.17/outbox.ucp.g08.bks.cvg/sg71_9_cif.got.tgz:17022.got - 2010.06.11 16:29:00.
