data_PCOD9524354
_publ_section_title
;
Structure prediction by ZEFSAII (Michael W. Deem and Ramdas Pophale) SiO2 
 PCOD9524354
Probable space group: I M M M
;
_chemical_formula_sum "Si O2"
_cell_formula_units_Z 64
_cell_length_a 18.000491
_cell_length_b 23.427705
_cell_length_c 7.932423
_cell_angle_alpha 90.000000
_cell_angle_beta 90.000000
_cell_angle_gamma 90.000000
_cell_volume 3345.183634
_symmetry_space_group_name_H-M "I M M M"
_symmetry_group_IT_number 71
_symmetry_cell_setting 'orthorhombic'
loop_
_space_group_symop_operation_xyz
x,y,z
-x,-y,z
x,-y,-z
-x,y,-z
-x,-y,-z
x,y,-z
-x,y,z
x,-y,z
1/2+x,1/2+y,1/2+z
1/2-x,1/2-y,1/2+z
1/2+x,1/2-y,1/2-z
1/2-x,1/2+y,1/2-z
1/2-x,1/2-y,1/2-z
1/2+x,1/2+y,1/2-z
1/2-x,1/2+y,1/2+z
1/2+x,1/2-y,1/2+z
loop_
_atom_site_type_symbol
_atom_site_label
_atom_site_fract_x
_atom_site_fract_y
_atom_site_fract_z
Si Si1 0.090647 0.500000 0.695129
Si Si2 0.090742 0.065547 0.500000
Si Si3 0.415585 0.123366 0.202115
Si Si4 0.665837 0.237511 0.299880
Si Si5 0.910606 0.854121 0.194839
O O1 0.116184 0.500000 0.500000
O O2 0.111493 0.438346 0.770092
O O3 0.000000 0.500000 0.693914
O O4 0.114414 0.099098 0.331150
O O5 0.000000 0.065749 0.500000
O O6 0.115091 0.000000 0.500000
O O7 0.500000 0.134225 0.264524
O O8 0.364459 0.177430 0.235088
O O9 0.420374 0.116749 0.000000
O O10 0.660300 0.235038 0.500000
O O11 0.750000 0.250000 0.250000
O O12 0.617054 0.292036 0.246158
O O13 0.000000 0.854216 0.192803
O O14 0.885744 0.864162 0.000000
#
# Coordination Sequence:
#
# PCOD9524354 Si02
#       5
#     8   8  16  16  16
#     4   7  12  26  49  79 109 135 170 211 252 309
#     4   9  18  32  56  86 110 137 174 220 272 324
#     4   9  17  31  55  82 107 140 178 216 261 314
#     4  11  23  36  52  75 106 141 180 225 271 321
#     4   9  19  35  55  80 110 141 178 224 272 325
#
# _framework density 19.131983999999999
#
# number of rings (size 3 to 8) (size 9 to 14) (size 15 to 20)
#    0.000    2.750    0.000    3.000    3.500    2.000 
#    0.000    3.125    2.750    2.250    0.000    0.000 
#    0.000    0.000    0.000    0.000    0.000    0.000 
#
# Total GULP energy -178315.048683 kJ/mol
# GULP energy per Si atom -5572.345271 kJ/mol
# Density = 1.908844 g / cm^3
# Si number density = 19.131984 Si / 1000 Ang^3
#
#
#
# Elastic Constant Matrix: (Units=GPa)
#
#
# Indices 1 2 3 4 5 6 
#
# 1 35.5755 52.4503 12.0569 0.0000 0.0000 0.0000
# 2 52.4503 223.5513 60.9216 0.0000 0.0000 0.0000
# 3 12.0569 60.9216 56.2228 0.0000 0.0000 0.0000
# 4 0.0000 0.0000 0.0000 13.2051 0.0000 0.0000
# 5 0.0000 0.0000 0.0000 0.0000 13.5902 0.0000
# 6 0.0000 0.0000 0.0000 0.0000 0.0000 -1.3947
#
#
#
# Elastic Compliance Matrix: (Units=1/GPa)
#
#
# Indices 1 2 3 4 5 6 
#
# 1 0.043209 -0.010803 0.002439 0.000000 0.000000 0.000000
# 2 -0.010803 0.009048 -0.007488 0.000000 0.000000 0.000000
# 3 0.002439 -0.007488 0.025377 0.000000 0.000000 0.000000
# 4 0.000000 0.000000 0.000000 0.075728 0.000000 0.000000
# 5 0.000000 0.000000 0.000000 0.000000 0.073582 0.000000
# 6 0.000000 0.000000 0.000000 0.000000 0.000000 -0.717025
#
#
# Mechanical properties :
#
#
# Convention : Reuss Voigt Hill
#
# Bulk Modulus (GPa) = 21.77128 62.91191 42.34160
# Shear Modulus (GPa) = -11.28499 17.74152 3.22827
#
# Velocity S-wave (km/s) = -2.43132 3.04850 1.30040
# Velocity P-wave (km/s) = 1.87683 6.73392 4.94308
#
# Compressibility (1/GPa) = 0.04593207
#
# Stress axis : x y z
#
# Youngs Moduli (GPa) = 23.14315 110.51663 39.40565
#
# Poissons Ratio (x) = 1.19387 -0.09612
# Poissons Ratio (y) = 0.25001 0.29507
# Poissons Ratio (z) = -0.05645 0.82755
#
# Static dielectric constant tensor:
#      x y z
#    x 1.619450 0.000000 0.000000 
#    y 0.000000 1.692260 0.000000 
#    z 0.000000 0.000000 1.698330 
# 
# From -- ./inp_files/7520.got.cif
#   From: 2010.05.17/outbox.cif.g08.bks.cpg/sg71_4_cif.got.tgz:7520.got - 2010.06.03 16:22:01.
