data_PCOD9524711
_publ_section_title
;
Structure prediction by ZEFSAII (Michael W. Deem and Ramdas Pophale) SiO2 
 PCOD9524711
Probable space group: I M M M
;
_chemical_formula_sum "Si O2"
_cell_formula_units_Z 44
_cell_length_a 30.000000
_cell_length_b 18.000000
_cell_length_c 9.000000
_cell_angle_alpha 90.000000
_cell_angle_beta 90.000000
_cell_angle_gamma 90.000000
_cell_volume 4860.000000
_symmetry_space_group_name_H-M "I M M M"
_symmetry_group_IT_number 71
_symmetry_cell_setting 'orthorhombic'
loop_
_space_group_symop_operation_xyz
x,y,z
-x,-y,z
x,-y,-z
-x,y,-z
-x,-y,-z
x,y,-z
-x,y,z
x,-y,z
1/2+x,1/2+y,1/2+z
1/2-x,1/2-y,1/2+z
1/2+x,1/2-y,1/2-z
1/2-x,1/2+y,1/2-z
1/2-x,1/2-y,1/2-z
1/2+x,1/2+y,1/2-z
1/2-x,1/2+y,1/2+z
1/2+x,1/2-y,1/2+z
loop_
_atom_site_type_symbol
_atom_site_label
_atom_site_fract_x
_atom_site_fract_y
_atom_site_fract_z
Si Si1 0.603739 0.852923 0.178630
Si Si2 0.052804 0.212771 0.821619
Si Si3 0.387900 0.586339 0.821881
Si Si4 0.803993 0.672109 0.823763
Si Si5 0.204364 0.167015 0.677393
Si Si6 0.449479 0.000000 0.819552
O O1 0.579586 0.781371 0.249017
O O2 0.654146 0.860585 0.236615
O O3 0.576221 0.925724 0.223671
O O4 0.603729 0.845324 0.000000
O O5 0.077158 0.138988 0.761423
O O6 0.000000 0.214819 0.783138
O O7 0.056567 0.216517 0.000000
O O8 0.393098 0.500000 0.783036
O O9 0.337193 0.613495 0.790694
O O10 0.394388 0.594396 0.000000
O O11 0.801628 0.757887 0.771019
O O12 0.754705 0.638804 0.792877
O O13 0.811934 0.668081 0.000000
O O14 0.202785 0.184949 0.500000
O O15 0.500000 0.000000 0.764252
O O16 0.450823 0.000000 0.000000
#
# Coordination Sequence:
#
# PCOD9524711 Si02
#       6
#    16  16  16  16  16   8
#     4  11  21  37  61  86 114 148 191 236 282 341
#     4  11  24  40  59  85 115 147 187 236 292 348
#     4  10  21  38  60  85 114 151 198 243 282 333
#     4  10  19  32  55  86 117 148 185 229 280 337
#     4   9  18  34  55  82 113 150 190 230 277 332
#     4   9  20  38  59  83 111 147 191 239 288 337
#
# _framework density 9.0534979999999994
#
# number of rings (size 3 to 8) (size 9 to 14) (size 15 to 20)
#    0.000    1.909    1.818    2.182    0.000    3.636 
#    1.636    3.636    0.000    3.273    0.000    0.000 
#    0.000    0.000    0.000    0.000    0.000    0.000 
#
# Total GULP energy -245610.800578 kJ/mol
# GULP energy per Si atom -5582.063649 kJ/mol
# Density = 0.903289 g / cm^3
# Si number density = 9.053498 Si / 1000 Ang^3
#
#
#
# Elastic Constant Matrix: (Units=GPa)
#
#
# Indices 1 2 3 4 5 6 
#
# 1 144.8642 44.9371 45.2092 0.0000 0.0000 0.0000
# 2 44.9371 83.6481 27.5352 0.0000 0.0000 0.0000
# 3 45.2092 27.5352 51.3193 0.0000 0.0000 0.0000
# 4 0.0000 0.0000 0.0000 7.7145 0.0000 0.0000
# 5 0.0000 0.0000 0.0000 0.0000 34.1996 0.0000
# 6 0.0000 0.0000 0.0000 0.0000 0.0000 24.4742
#
#
#
# Elastic Compliance Matrix: (Units=1/GPa)
#
#
# Indices 1 2 3 4 5 6 
#
# 1 0.010119 -0.003038 -0.007284 0.000000 0.000000 0.000000
# 2 -0.003038 0.015431 -0.005603 0.000000 0.000000 0.000000
# 3 -0.007284 -0.005603 0.028909 0.000000 0.000000 0.000000
# 4 0.000000 0.000000 0.000000 0.129626 0.000000 0.000000
# 5 0.000000 0.000000 0.000000 0.000000 0.029240 0.000000
# 6 0.000000 0.000000 0.000000 0.000000 0.000000 0.040859
#
#
# Mechanical properties :
#
#
# Convention : Reuss Voigt Hill
#
# Bulk Modulus (GPa) = 44.23114 57.24382 50.73748
# Shear Modulus (GPa) = 17.03166 24.08767 20.55966
#
# Velocity S-wave (km/s) = 3.07027 3.65128 3.37331
# Velocity P-wave (km/s) = 6.08682 7.03268 6.57678
#
# Compressibility (1/GPa) = 0.02260851
#
# Stress axis : x y z
#
# Youngs Moduli (GPa) = 98.82816 64.80257 34.59163
#
# Poissons Ratio (x) = 0.19688 0.25196
# Poissons Ratio (y) = 0.30026 0.19382
# Poissons Ratio (z) = 0.71983 0.36310
#
# Static dielectric constant tensor:
#      x y z
#    x 1.631810 0.000000 0.000000 
#    y 0.000000 1.593760 0.000000 
#    z 0.000000 0.000000 1.605280 
# 
# From -- ./inp_files/8801.got.cif
#   From: 2010.05.17/outbox.ucp.g08.bks.cvg/sg71_5_cif.got.tgz:8801.got - 2010.06.11 16:29:00.
