data_PCOD9524022
_publ_section_title
;
Structure prediction by ZEFSAII (Michael W. Deem and Ramdas Pophale) SiO2 
 PCOD9524022
Probable space group: I M M M
;
_chemical_formula_sum "Si O2"
_cell_formula_units_Z 80
_cell_length_a 28.768562
_cell_length_b 23.607655
_cell_length_c 9.210669
_cell_angle_alpha 90.000000
_cell_angle_beta 90.000000
_cell_angle_gamma 90.000000
_cell_volume 6255.502176
_symmetry_space_group_name_H-M "I M M M"
_symmetry_group_IT_number 71
_symmetry_cell_setting 'orthorhombic'
loop_
_space_group_symop_operation_xyz
x,y,z
-x,-y,z
x,-y,-z
-x,y,-z
-x,-y,-z
x,y,-z
-x,y,z
x,-y,z
1/2+x,1/2+y,1/2+z
1/2-x,1/2-y,1/2+z
1/2+x,1/2-y,1/2-z
1/2-x,1/2+y,1/2-z
1/2-x,1/2-y,1/2-z
1/2+x,1/2+y,1/2-z
1/2-x,1/2+y,1/2+z
1/2+x,1/2-y,1/2+z
loop_
_atom_site_type_symbol
_atom_site_label
_atom_site_fract_x
_atom_site_fract_y
_atom_site_fract_z
Si Si1 0.280054 0.066210 0.174006
Si Si2 0.444994 0.066533 0.828989
Si Si3 0.864577 0.630545 0.173164
Si Si4 0.278529 0.669254 0.333720
Si Si5 0.178192 0.266959 0.666435
O O1 0.324217 0.090303 0.260179
O O2 0.235858 0.105789 0.210652
O O3 0.273161 0.000000 0.201854
O O4 0.288434 0.073774 0.000000
O O5 0.500000 0.075517 0.806843
O O6 0.412860 0.105583 0.731136
O O7 0.435270 0.000000 0.800026
O O8 0.434850 0.076349 0.000000
O O9 0.854315 0.692847 0.237441
O O10 0.862059 0.630925 0.000000
O O11 0.295226 0.669549 0.500000
O O12 0.228720 0.701951 0.332327
O O13 0.312577 0.705181 0.232997
O O14 0.162509 0.264812 0.500000
#
# Coordination Sequence:
#
# PCOD9524022 Si02
#       5
#    16  16  16  16  16
#     4   9  17  28  40  53  72  99 126 150 180 220
#     4   9  18  32  46  56  69  93 122 150 184 227
#     4  11  20  27  38  56  75  93 118 155 191 219
#     4   8  14  24  37  53  71  90 116 150 182 211
#     4   9  16  26  39  52  68  92 119 147 181 220
#
# _framework density 12.788741
#
# number of rings (size 3 to 8) (size 9 to 14) (size 15 to 20)
#    0.000    2.800    0.000    4.800    0.000    8.400 
#    0.000    1.000    0.000    0.000    0.000    0.000 
#    0.000    0.000    0.000    0.000    0.000    1.000 
#
# Total GULP energy -222785.462414 kJ/mol
# GULP energy per Si atom -5569.636560 kJ/mol
# Density = 1.275963 g / cm^3
# Si number density = 12.788741 Si / 1000 Ang^3
#
#
#
# Elastic Constant Matrix: (Units=GPa)
#
#
# Indices 1 2 3 4 5 6 
#
# 1 34.9826 33.1577 38.9557 0.0000 0.0000 0.0000
# 2 33.1577 76.7560 49.6824 0.0000 0.0000 0.0000
# 3 38.9557 49.6824 81.5573 0.0000 0.0000 0.0000
# 4 0.0000 0.0000 0.0000 19.3753 0.0000 0.0000
# 5 0.0000 0.0000 0.0000 0.0000 15.3751 0.0000
# 6 0.0000 0.0000 0.0000 0.0000 0.0000 20.3055
#
#
#
# Elastic Compliance Matrix: (Units=1/GPa)
#
#
# Indices 1 2 3 4 5 6 
#
# 1 0.069137 -0.014019 -0.024483 0.000000 0.000000 0.000000
# 2 -0.014019 0.024352 -0.008139 0.000000 0.000000 0.000000
# 3 -0.024483 -0.008139 0.028914 0.000000 0.000000 0.000000
# 4 0.000000 0.000000 0.000000 0.051612 0.000000 0.000000
# 5 0.000000 0.000000 0.000000 0.000000 0.065040 0.000000
# 6 0.000000 0.000000 0.000000 0.000000 0.000000 0.049248
#
#
# Mechanical properties :
#
#
# Convention : Reuss Voigt Hill
#
# Bulk Modulus (GPa) = 34.33914 48.54307 41.44111
# Shear Modulus (GPa) = 12.77818 15.77786 14.27802
#
# Velocity S-wave (km/s) = 3.16440 3.51626 3.34496
# Velocity P-wave (km/s) = 6.34512 7.38414 6.88426
#
# Compressibility (1/GPa) = 0.02912129
#
# Stress axis : x y z
#
# Youngs Moduli (GPa) = 14.46395 41.06386 34.58590
#
# Poissons Ratio (x) = 0.57568 0.84678
# Poissons Ratio (y) = 0.20277 0.28148
# Poissons Ratio (z) = 0.35413 0.33420
#
# Static dielectric constant tensor:
#      x y z
#    x 1.393150 0.000000 0.000000 
#    y 0.000000 1.429670 0.000000 
#    z 0.000000 0.000000 1.429000 
# 
# From -- ./inp_files/13460.got.cif
#   From: 2010.05.17/outbox.cif.g08.bks.cpg/sg71_7_cif.got.tgz:13460.got - 2010.06.03 16:22:01.
