data_PCOD9524971
_publ_section_title
;
Structure prediction by ZEFSAII (Michael W. Deem and Ramdas Pophale) SiO2 
 PCOD9524971
Probable space group: I B A M
;
_chemical_formula_sum "Si O2"
_cell_formula_units_Z 88
_cell_length_a 11.541184
_cell_length_b 16.113317
_cell_length_c 23.443804
_cell_angle_alpha 90.000000
_cell_angle_beta 90.000000
_cell_angle_gamma 90.000000
_cell_volume 4359.768186
_symmetry_space_group_name_H-M "I B A M"
_symmetry_group_IT_number 72
_symmetry_cell_setting 'orthorhombic'
loop_
_space_group_symop_operation_xyz
x,y,z
-x,-y,z
x,-y,1/2-z
-x,y,1/2-z
-x,-y,-z
x,y,-z
-x,y,1/2+z
x,-y,1/2+z
1/2+x,1/2+y,1/2+z
1/2-x,1/2-y,1/2+z
1/2+x,1/2-y,-z
1/2-x,1/2+y,-z
1/2-x,1/2-y,1/2-z
1/2+x,1/2+y,1/2-z
1/2-x,1/2+y,z
1/2+x,1/2-y,z
loop_
_atom_site_type_symbol
_atom_site_label
_atom_site_fract_x
_atom_site_fract_y
_atom_site_fract_z
Si Si1 0.618303 0.569895 0.000000
Si Si2 0.867792 0.400650 0.736354
Si Si3 0.113034 0.455329 0.880958
Si Si4 0.117546 0.092618 0.777346
Si Si5 0.610151 0.321473 0.000000
Si Si6 0.623823 0.870760 0.500000
Si Si7 0.832200 0.063319 0.596053
O O1 0.512693 0.631942 0.000000
O O2 0.619932 0.509982 0.944904
O O3 0.737447 0.619596 0.000000
O O4 0.868541 0.500000 0.750000
O O5 0.848851 0.392137 0.668144
O O6 0.746766 0.369491 0.765380
O O7 0.000000 0.369866 0.750000
O O8 0.208395 0.526281 0.887524
O O9 0.000000 0.500000 0.858419
O O10 0.085399 0.415183 0.941897
O O11 0.102576 0.082555 0.845382
O O12 0.000000 0.131320 0.750000
O O13 0.123282 0.000000 0.750000
O O14 0.592500 0.224619 0.000000
O O15 0.674337 0.356280 0.944046
#
# Coordination Sequence:
#
# PCOD9524971 Si02
#       7
#     8  16  16  16   8   8  16
#     4   9  22  36  58  75 107 139 184 228 274 314
#     4  10  16  30  51  83 111 136 171 221 283 313
#     4  11  19  35  58  83 109 139 183 233 262 318
#     4  10  19  26  50  86 114 127 171 233 276 307
#     4  11  24  38  56  72 112 149 180 216 278 336
#     4  10  25  38  51  81 109 144 180 228 278 310
#     4  10  19  35  56  87 104 141 185 228 264 322
#
# _framework density 20.184559
#
# number of rings (size 3 to 8) (size 9 to 14) (size 15 to 20)
#    0.000    1.818    5.455    1.909    5.091    1.455 
#    0.000    0.000    0.000    2.182    0.000    0.000 
#    0.000    0.000    0.000    0.000    0.000    0.000 
#
# Total GULP energy -245144.512196 kJ/mol
# GULP energy per Si atom -5571.466186 kJ/mol
# Density = 2.013862 g / cm^3
# Si number density = 20.184559 Si / 1000 Ang^3
#
#
#
# Elastic Constant Matrix: (Units=GPa)
#
#
# Indices 1 2 3 4 5 6 
#
# 1 142.9028 5.4597 20.5191 0.0000 0.0000 0.0000
# 2 5.4597 35.6006 16.0342 0.0000 0.0000 0.0000
# 3 20.5191 16.0342 171.5919 0.0000 0.0000 0.0000
# 4 0.0000 0.0000 0.0000 -138.9067 0.0000 0.0000
# 5 0.0000 0.0000 0.0000 0.0000 20.4880 0.0000
# 6 0.0000 0.0000 0.0000 0.0000 0.0000 4.7472
#
#
#
# Elastic Compliance Matrix: (Units=1/GPa)
#
#
# Indices 1 2 3 4 5 6 
#
# 1 0.007139 -0.000742 -0.000784 0.000000 0.000000 0.000000
# 2 -0.000742 0.029401 -0.002659 0.000000 0.000000 0.000000
# 3 -0.000784 -0.002659 0.006170 0.000000 0.000000 0.000000
# 4 0.000000 0.000000 0.000000 -0.007199 0.000000 0.000000
# 5 0.000000 0.000000 0.000000 0.000000 0.048809 0.000000
# 6 0.000000 0.000000 0.000000 0.000000 0.000000 0.210651
#
#
# Mechanical properties :
#
#
# Convention : Reuss Voigt Hill
#
# Bulk Modulus (GPa) = 29.12035 48.23570 38.67802
# Shear Modulus (GPa) = 15.88381 -2.19548 6.84416
#
# Velocity S-wave (km/s) = 2.80827 -1.04406 1.84341
# Velocity P-wave (km/s) = 4.99735 4.74297 4.87182
#
# Compressibility (1/GPa) = 0.03434025
#
# Stress axis : x y z
#
# Youngs Moduli (GPa) = 140.08120 34.01299 162.07432
#
# Poissons Ratio (x) = 0.02522 0.12713
# Poissons Ratio (y) = 0.10387 0.43090
# Poissons Ratio (z) = 0.10987 0.09043
#
# Static dielectric constant tensor:
#      x y z
#    x 1.834550 0.000000 0.000000 
#    y 0.000000 1.674020 0.000000 
#    z 0.000000 0.000000 1.753890 
# 
# From -- ./inp_files/43258.got.cif
#   From: 2010.05.17/outbox.cif.g08.bks.cpg/sg72_22_cif.got.tgz:43258.got - 2010.06.03 17:03:01.
