data_PCOD9524968
_publ_section_title
;
Structure prediction by ZEFSAII (Michael W. Deem and Ramdas Pophale) SiO2 
 PCOD9524968
Probable space group: I B A M
;
_chemical_formula_sum "Si O2"
_cell_formula_units_Z 96
_cell_length_a 29.257113
_cell_length_b 23.223337
_cell_length_c 10.149977
_cell_angle_alpha 90.000000
_cell_angle_beta 90.000000
_cell_angle_gamma 90.000000
_cell_volume 6896.379490
_symmetry_space_group_name_H-M "I B A M"
_symmetry_group_IT_number 72
_symmetry_cell_setting 'orthorhombic'
loop_
_space_group_symop_operation_xyz
x,y,z
-x,-y,z
x,-y,1/2-z
-x,y,1/2-z
-x,-y,-z
x,y,-z
-x,y,1/2+z
x,-y,1/2+z
1/2+x,1/2+y,1/2+z
1/2-x,1/2-y,1/2+z
1/2+x,1/2-y,-z
1/2-x,1/2+y,-z
1/2-x,1/2-y,1/2-z
1/2+x,1/2+y,1/2-z
1/2-x,1/2+y,z
1/2+x,1/2-y,z
loop_
_atom_site_type_symbol
_atom_site_label
_atom_site_fract_x
_atom_site_fract_y
_atom_site_fract_z
Si Si1 0.057342 0.373137 0.000000
Si Si2 0.361302 0.072645 0.000000
Si Si3 0.815058 0.630892 0.751323
Si Si4 0.954828 0.625644 0.500000
Si Si5 0.360630 0.251921 0.343109
Si Si6 0.051115 0.710081 0.248263
Si Si7 0.346157 0.938002 0.000000
Si Si8 0.767489 0.197923 0.657678
O O1 0.058060 0.331992 0.126999
O O2 0.101393 0.414022 0.000000
O O3 0.006192 0.399370 0.000000
O O4 0.342232 0.105513 0.872394
O O5 0.416013 0.077835 0.000000
O O6 0.346696 0.006550 0.000000
O O7 0.837664 0.691227 0.798956
O O8 0.763419 0.644770 0.705094
O O9 0.821146 0.587580 0.872099
O O10 0.947481 0.667893 0.376262
O O11 0.369584 0.249669 0.500000
O O12 0.407539 0.254943 0.261665
O O13 0.322145 0.300731 0.322206
O O14 0.000000 0.735491 0.250000
O O15 0.759578 0.207921 0.500000
O O16 0.750000 0.250000 0.750000
#
# Coordination Sequence:
#
# PCOD9524968 Si02
#       8
#     8   8  16   8  16  16   8  16
#     4  10  18  33  43  53  78 114 149 180 227 263
#     4  12  22  31  46  64  81 109 151 196 229 252
#     4  11  19  34  44  62  89 105 139 189 219 264
#     4  10  20  29  43  59  80 108 143 196 227 243
#     4  10  16  30  49  64  82 112 139 169 217 270
#     4  10  17  27  44  62  82 111 139 173 219 256
#     4  12  22  33  48  58  79 121 151 182 233 268
#     4   9  19  29  47  68  84 105 133 171 223 263
#
# _framework density 13.920348000000001
#
# number of rings (size 3 to 8) (size 9 to 14) (size 15 to 20)
#    0.000    1.667    5.833    0.500    1.167    0.333 
#    0.000    0.000    0.000    5.000    0.000    0.000 
#    0.000    0.000    0.000    0.000    0.000    5.000 
#
# Total GULP energy -267288.979173 kJ/mol
# GULP energy per Si atom -5568.520399 kJ/mol
# Density = 1.388866 g / cm^3
# Si number density = 13.920348 Si / 1000 Ang^3
#
#
#
# Elastic Constant Matrix: (Units=GPa)
#
#
# Indices 1 2 3 4 5 6 
#
# 1 95.1534 33.2165 11.9806 0.0000 0.0000 0.0000
# 2 33.2165 29.5393 10.3531 0.0000 0.0000 0.0000
# 3 11.9806 10.3531 81.9797 0.0000 0.0000 0.0000
# 4 0.0000 0.0000 0.0000 40.4347 0.0000 0.0000
# 5 0.0000 0.0000 0.0000 0.0000 22.8089 0.0000
# 6 0.0000 0.0000 0.0000 0.0000 0.0000 17.4057
#
#
#
# Elastic Compliance Matrix: (Units=1/GPa)
#
#
# Indices 1 2 3 4 5 6 
#
# 1 0.017301 -0.019428 -0.000075 0.000000 0.000000 0.000000
# 2 -0.019428 0.057238 -0.004389 0.000000 0.000000 0.000000
# 3 -0.000075 -0.004389 0.012763 0.000000 0.000000 0.000000
# 4 0.000000 0.000000 0.000000 0.024731 0.000000 0.000000
# 5 0.000000 0.000000 0.000000 0.000000 0.043843 0.000000
# 6 0.000000 0.000000 0.000000 0.000000 0.000000 0.057452
#
#
# Mechanical properties :
#
#
# Convention : Reuss Voigt Hill
#
# Bulk Modulus (GPa) = 25.30502 35.30809 30.30655
# Shear Modulus (GPa) = 18.22911 26.20466 22.21688
#
# Velocity S-wave (km/s) = 3.62267 4.34345 3.99933
# Velocity P-wave (km/s) = 5.97630 7.11151 6.56848
#
# Compressibility (1/GPa) = 0.03951786
#
# Stress axis : x y z
#
# Youngs Moduli (GPa) = 57.80049 17.47076 78.34903
#
# Poissons Ratio (x) = 0.33943 0.00586
# Poissons Ratio (y) = 1.12297 0.34390
# Poissons Ratio (z) = 0.00432 0.07668
#
# Static dielectric constant tensor:
#      x y z
#    x 1.523580 0.000000 0.000000 
#    y 0.000000 1.415620 0.000000 
#    z 0.000000 0.000000 1.483220 
# 
# From -- ./inp_files/16369.got.cif
#   From: 2010.05.17/outbox.cif.g08.bks.cpg/sg72_9_cif.got.tgz:16369.got - 2010.06.03 17:03:01.
