data_PCOD9524905
_publ_section_title
;
Structure prediction by ZEFSAII (Michael W. Deem and Ramdas Pophale) SiO2 
 PCOD9524905
Probable space group: I M M M
;
_chemical_formula_sum "Si O2"
_cell_formula_units_Z 44
_cell_length_a 21.000000
_cell_length_b 24.000000
_cell_length_c 9.000000
_cell_angle_alpha 90.000000
_cell_angle_beta 90.000000
_cell_angle_gamma 90.000000
_cell_volume 4536.000000
_symmetry_space_group_name_H-M "I M M M"
_symmetry_group_IT_number 71
_symmetry_cell_setting 'orthorhombic'
loop_
_space_group_symop_operation_xyz
x,y,z
-x,-y,z
x,-y,-z
-x,y,-z
-x,-y,-z
x,y,-z
-x,y,z
x,-y,z
1/2+x,1/2+y,1/2+z
1/2-x,1/2-y,1/2+z
1/2+x,1/2-y,1/2-z
1/2-x,1/2+y,1/2-z
1/2-x,1/2-y,1/2-z
1/2+x,1/2+y,1/2-z
1/2-x,1/2+y,1/2+z
1/2+x,1/2-y,1/2+z
loop_
_atom_site_type_symbol
_atom_site_label
_atom_site_fract_x
_atom_site_fract_y
_atom_site_fract_z
Si Si1 0.000000 0.566226 0.821532
Si Si2 0.359101 0.629870 0.764381
Si Si3 0.576452 0.567014 0.500000
Si Si4 0.320804 0.752402 0.180171
Si Si5 0.268356 0.064506 0.670519
Si Si6 0.926946 0.062036 0.500000
Si Si7 0.379421 0.873355 0.824031
O O1 0.939241 0.599999 0.760127
O O2 0.000000 0.500000 0.776454
O O3 0.000000 0.566952 0.000000
O O4 0.383189 0.596247 0.626002
O O5 0.355816 0.696422 0.763266
O O6 0.291013 0.605851 0.814857
O O7 0.409903 0.603369 0.871553
O O8 0.581476 0.500000 0.500000
O O9 0.500000 0.579396 0.500000
O O10 0.250000 0.750000 0.250000
O O11 0.356997 0.810294 0.218353
O O12 0.316177 0.749623 0.000000
O O13 0.292418 0.067771 0.500000
O O14 0.321015 0.086225 0.783293
O O15 0.250649 0.000000 0.698180
O O16 0.000000 0.051509 0.500000
O O17 0.894585 0.000000 0.500000
O O18 0.391858 0.872891 0.000000
#
# Coordination Sequence:
#
# PCOD9524905 Si02
#       7
#     8  16   8  16  16   8  16
#     4  11  25  49  75 101 135 177 226 279 338 407
#     4  12  23  42  64  96 132 174 226 276 334 394
#     4  11  26  46  65  94 138 179 222 279 341 399
#     4  11  24  43  66  96 137 177 222 277 332 399
#     4  11  22  37  62  97 130 163 219 281 336 400
#     4  11  22  40  67  96 128 173 224 273 335 399
#     4  11  25  43  66 100 134 178 221 271 342 400
#
# _framework density 9.7001760000000008
#
# number of rings (size 3 to 8) (size 9 to 14) (size 15 to 20)
#    0.000    0.818    3.636    3.545    2.545    5.455 
#    3.273    0.000    0.000    0.000    0.000    0.000 
#    0.000    0.000    0.000    0.000    0.000    0.000 
#
# Total GULP energy -245033.316862 kJ/mol
# GULP energy per Si atom -5568.939020 kJ/mol
# Density = 0.967810 g / cm^3
# Si number density = 9.700176 Si / 1000 Ang^3
#
#
#
# Elastic Constant Matrix: (Units=GPa)
#
#
# Indices 1 2 3 4 5 6 
#
# 1 88.7030 54.5082 18.4748 0.0000 0.0000 0.0000
# 2 54.5082 172.3415 44.5481 0.0000 0.0000 0.0000
# 3 18.4748 44.5481 83.1005 0.0000 0.0000 0.0000
# 4 0.0000 0.0000 0.0000 32.9230 0.0000 0.0000
# 5 0.0000 0.0000 0.0000 0.0000 35.8641 0.0000
# 6 0.0000 0.0000 0.0000 0.0000 0.0000 29.8298
#
#
#
# Elastic Compliance Matrix: (Units=1/GPa)
#
#
# Indices 1 2 3 4 5 6 
#
# 1 0.014046 -0.004220 -0.000860 0.000000 0.000000 0.000000
# 2 -0.004220 0.008004 -0.003352 0.000000 0.000000 0.000000
# 3 -0.000860 -0.003352 0.014022 0.000000 0.000000 0.000000
# 4 0.000000 0.000000 0.000000 0.030374 0.000000 0.000000
# 5 0.000000 0.000000 0.000000 0.000000 0.027883 0.000000
# 6 0.000000 0.000000 0.000000 0.000000 0.000000 0.033524
#
#
# Mechanical properties :
#
#
# Convention : Reuss Voigt Hill
#
# Bulk Modulus (GPa) = 52.06700 64.35633 58.21167
# Shear Modulus (GPa) = 33.08628 34.83097 33.95862
#
# Velocity S-wave (km/s) = 4.13419 4.24179 4.18833
# Velocity P-wave (km/s) = 7.04877 7.56539 7.31164
#
# Compressibility (1/GPa) = 0.01920602
#
# Stress axis : x y z
#
# Youngs Moduli (GPa) = 71.19451 124.94208 71.31634
#
# Poissons Ratio (x) = 0.52726 0.06136
# Poissons Ratio (y) = 0.30045 0.23908
# Poissons Ratio (z) = 0.06126 0.41885
#
# Static dielectric constant tensor:
#      x y z
#    x 1.685720 0.000000 0.000000 
#    y 0.000000 1.646290 0.000000 
#    z 0.000000 0.000000 1.618490 
# 
# From -- ./inp_files/10570.got.cif
#   From: 2010.05.17/outbox.ucp.g08.bks.cvg/sg71_6_cif.got.tgz:10570.got - 2010.06.11 16:29:00.
