data_PCOD9524466
_publ_section_title
;
Structure prediction by ZEFSAII (Michael W. Deem and Ramdas Pophale) SiO2 
 PCOD9524466
Probable space group: I M M M
;
_chemical_formula_sum "Si O2"
_cell_formula_units_Z 52
_cell_length_a 14.317289
_cell_length_b 7.530764
_cell_length_c 33.122849
_cell_angle_alpha 90.000000
_cell_angle_beta 90.000000
_cell_angle_gamma 90.000000
_cell_volume 3571.309706
_symmetry_space_group_name_H-M "I M M M"
_symmetry_group_IT_number 71
_symmetry_cell_setting 'orthorhombic'
loop_
_space_group_symop_operation_xyz
x,y,z
-x,-y,z
x,-y,-z
-x,y,-z
-x,-y,-z
x,y,-z
-x,y,z
x,-y,z
1/2+x,1/2+y,1/2+z
1/2-x,1/2-y,1/2+z
1/2+x,1/2-y,1/2-z
1/2-x,1/2+y,1/2-z
1/2-x,1/2-y,1/2-z
1/2+x,1/2+y,1/2-z
1/2-x,1/2+y,1/2+z
1/2+x,1/2-y,1/2+z
loop_
_atom_site_type_symbol
_atom_site_label
_atom_site_fract_x
_atom_site_fract_y
_atom_site_fract_z
Si Si1 0.500000 0.000000 0.799267
Si Si2 0.386387 0.000000 0.934315
Si Si3 0.306916 0.000000 0.846005
Si Si4 0.112667 0.203818 0.500000
Si Si5 0.500000 0.292608 0.731060
Si Si6 0.293908 0.207081 0.705656
O O1 0.591911 0.000000 0.825536
O O2 0.500000 0.171217 0.770625
O O3 0.327354 0.000000 0.893406
O O4 0.500000 0.000000 0.927139
O O5 0.363809 0.174590 0.961167
O O6 0.253017 0.830272 0.827919
O O7 0.000000 0.193877 0.500000
O O8 0.147823 0.000000 0.500000
O O9 0.500000 0.500000 0.741064
O O10 0.404317 0.246869 0.708113
O O11 0.250000 0.250000 0.750000
O O12 0.278262 0.000000 0.698009
#
# Coordination Sequence:
#
# PCOD9524466 Si02
#       6
#     4   8   8   8   8  16
#     4  12  22  32  50  67  98 136 180 225 256 290
#     4   9  18  32  49  73 103 131 164 210 251 301
#     4  12  23  33  48  75 103 136 176 221 259 288
#     4   8  15  31  54  73  95 130 163 194 254 320
#     4  12  20  34  52  66  87 132 183 220 259 297
#     4  12  21  34  49  68  95 131 176 219 258 302
#
# _framework density 14.560485
#
# number of rings (size 3 to 8) (size 9 to 14) (size 15 to 20)
#    0.000    1.077    8.462    0.923    0.000    1.231 
#    0.000    0.000    0.000    0.000    0.000    0.000 
#    0.000    9.846    0.000   17.231    0.000    0.000 
#
# Total GULP energy -145016.399432 kJ/mol
# GULP energy per Si atom -5577.553824 kJ/mol
# Density = 1.452734 g / cm^3
# Si number density = 14.560485 Si / 1000 Ang^3
#
#
#
# Elastic Constant Matrix: (Units=GPa)
#
#
# Indices 1 2 3 4 5 6 
#
# 1 97.9795 37.6924 48.3805 0.0000 0.0000 0.0000
# 2 37.6924 176.9019 73.3962 0.0000 0.0000 0.0000
# 3 48.3805 73.3962 128.6506 0.0000 0.0000 0.0000
# 4 0.0000 0.0000 0.0000 10.2462 0.0000 0.0000
# 5 0.0000 0.0000 0.0000 0.0000 29.0289 0.0000
# 6 0.0000 0.0000 0.0000 0.0000 0.0000 24.0436
#
#
#
# Elastic Compliance Matrix: (Units=1/GPa)
#
#
# Indices 1 2 3 4 5 6 
#
# 1 0.012653 -0.000946 -0.004219 0.000000 0.000000 0.000000
# 2 -0.000946 0.007476 -0.003910 0.000000 0.000000 0.000000
# 3 -0.004219 -0.003910 0.011590 0.000000 0.000000 0.000000
# 4 0.000000 0.000000 0.000000 0.097598 0.000000 0.000000
# 5 0.000000 0.000000 0.000000 0.000000 0.034448 0.000000
# 6 0.000000 0.000000 0.000000 0.000000 0.000000 0.041591
#
#
# Mechanical properties :
#
#
# Convention : Reuss Voigt Hill
#
# Bulk Modulus (GPa) = 73.68531 80.27444 76.97988
# Shear Modulus (GPa) = 21.92701 28.93459 25.43080
#
# Velocity S-wave (km/s) = 3.88484 4.46264 4.18372
# Velocity P-wave (km/s) = 8.41658 9.04461 8.73624
#
# Compressibility (1/GPa) = 0.01357123
#
# Stress axis : x y z
#
# Youngs Moduli (GPa) = 79.03132 133.75255 86.28027
#
# Poissons Ratio (x) = 0.12648 0.36401
# Poissons Ratio (y) = 0.07473 0.33734
# Poissons Ratio (z) = 0.33343 0.52295
#
# Static dielectric constant tensor:
#      x y z
#    x 1.477310 0.000000 0.000000 
#    y 0.000000 1.496460 0.000000 
#    z 0.000000 0.000000 1.461660 
# 
# From -- ./inp_files/68758.got.cif
#   From: 2010.05.17/outbox.cif.g08.bks.cpg/sg71_35_cif.got.tgz:68758.got - 2010.06.03 16:22:01.
