data_PCOD9524754
_publ_section_title
;
Structure prediction by ZEFSAII (Michael W. Deem and Ramdas Pophale) SiO2 
 PCOD9524754
Probable space group: I M M M
;
_chemical_formula_sum "Si O2"
_cell_formula_units_Z 40
_cell_length_a 9.000000
_cell_length_b 30.000000
_cell_length_c 18.000000
_cell_angle_alpha 90.000000
_cell_angle_beta 90.000000
_cell_angle_gamma 90.000000
_cell_volume 4860.000000
_symmetry_space_group_name_H-M "I M M M"
_symmetry_group_IT_number 71
_symmetry_cell_setting 'orthorhombic'
loop_
_space_group_symop_operation_xyz
x,y,z
-x,-y,z
x,-y,-z
-x,y,-z
-x,-y,-z
x,y,-z
-x,y,z
x,-y,z
1/2+x,1/2+y,1/2+z
1/2-x,1/2-y,1/2+z
1/2+x,1/2-y,1/2-z
1/2-x,1/2+y,1/2-z
1/2-x,1/2-y,1/2-z
1/2+x,1/2+y,1/2-z
1/2-x,1/2+y,1/2+z
1/2+x,1/2-y,1/2+z
loop_
_atom_site_type_symbol
_atom_site_label
_atom_site_fract_x
_atom_site_fract_y
_atom_site_fract_z
Si Si1 0.821467 0.897401 0.085786
Si Si2 0.182638 0.855008 0.705241
Si Si3 0.819101 0.554081 0.273566
Si Si4 0.679976 0.785717 0.410079
Si Si5 0.181871 0.691392 0.647888
O O1 0.747081 0.930802 0.145938
O O2 0.742182 0.849111 0.096012
O O3 0.000000 0.893304 0.100906
O O4 0.803992 0.911776 0.000000
O O5 0.246908 0.906039 0.720478
O O6 0.245281 0.828274 0.632653
O O7 0.248175 0.824573 0.773018
O O8 0.000000 0.855921 0.706004
O O9 0.788209 0.500000 0.259836
O O10 0.000000 0.558941 0.272156
O O11 0.702539 0.787684 0.500000
O O12 0.500000 0.785210 0.396785
O O13 0.753400 0.739459 0.378542
O O14 0.000000 0.692362 0.650415
#
# Coordination Sequence:
#
# PCOD9524754 Si02
#       5
#    16  16  16  16  16
#     4  10  20  33  50  75 109 146 182 220 263 311
#     4  11  22  37  58  81 108 140 177 220 263 313
#     4  10  21  37  57  79 103 135 177 222 268 319
#     4  11  23  38  56  79 110 144 177 216 263 314
#     4  11  21  34  54  79 110 146 184 220 256 306
#
# _framework density 8.2304530000000007
#
# number of rings (size 3 to 8) (size 9 to 14) (size 15 to 20)
#    0.000    1.400    0.000    9.000    0.000    7.600 
#    0.000    2.000    0.000    0.600    0.000    4.200 
#    0.000    0.000    0.000    0.000    0.000    0.000 
#
# Total GULP energy -223040.153804 kJ/mol
# GULP energy per Si atom -5576.003845 kJ/mol
# Density = 0.821172 g / cm^3
# Si number density = 8.230453 Si / 1000 Ang^3
#
#
#
# Elastic Constant Matrix: (Units=GPa)
#
#
# Indices 1 2 3 4 5 6 
#
# 1 172.6325 63.1367 41.3066 0.0000 0.0000 0.0000
# 2 63.1367 161.2804 52.1833 0.0000 0.0000 0.0000
# 3 41.3066 52.1833 89.2711 0.0000 0.0000 0.0000
# 4 0.0000 0.0000 0.0000 25.6457 0.0000 0.0000
# 5 0.0000 0.0000 0.0000 0.0000 31.5205 0.0000
# 6 0.0000 0.0000 0.0000 0.0000 0.0000 40.8762
#
#
#
# Elastic Compliance Matrix: (Units=1/GPa)
#
#
# Indices 1 2 3 4 5 6 
#
# 1 0.007047 -0.002101 -0.002033 0.000000 0.000000 0.000000
# 2 -0.002101 0.008273 -0.003864 0.000000 0.000000 0.000000
# 3 -0.002033 -0.003864 0.014401 0.000000 0.000000 0.000000
# 4 0.000000 0.000000 0.000000 0.038993 0.000000 0.000000
# 5 0.000000 0.000000 0.000000 0.000000 0.031725 0.000000
# 6 0.000000 0.000000 0.000000 0.000000 0.000000 0.024464
#
#
# Mechanical properties :
#
#
# Convention : Reuss Voigt Hill
#
# Bulk Modulus (GPa) = 72.85340 81.82635 77.33987
# Shear Modulus (GPa) = 34.37026 37.37898 35.87462
#
# Velocity S-wave (km/s) = 4.57441 4.77043 4.67345
# Velocity P-wave (km/s) = 8.50029 8.95322 8.72969
#
# Compressibility (1/GPa) = 0.01372620
#
# Stress axis : x y z
#
# Youngs Moduli (GPa) = 141.89447 120.87381 69.43990
#
# Poissons Ratio (x) = 0.25398 0.14115
# Poissons Ratio (y) = 0.29815 0.26830
# Poissons Ratio (z) = 0.28843 0.46703
#
# Static dielectric constant tensor:
#      x y z
#    x 1.563530 0.000000 0.000000 
#    y 0.000000 1.560680 0.000000 
#    z 0.000000 0.000000 1.588120 
# 
# From -- ./inp_files/8617.got.cif
#   From: 2010.05.17/outbox.ucp.g08.bks.cvg/sg71_5_cif.got.tgz:8617.got - 2010.06.11 16:29:00.
