data_PCOD9524823
_publ_section_title
;
Structure prediction by ZEFSAII (Michael W. Deem and Ramdas Pophale) SiO2 
 PCOD9524823
Probable space group: I M M M
;
_chemical_formula_sum "Si O2"
_cell_formula_units_Z 52
_cell_length_a 21.000000
_cell_length_b 9.000000
_cell_length_c 27.000000
_cell_angle_alpha 90.000000
_cell_angle_beta 90.000000
_cell_angle_gamma 90.000000
_cell_volume 5103.000000
_symmetry_space_group_name_H-M "I M M M"
_symmetry_group_IT_number 71
_symmetry_cell_setting 'orthorhombic'
loop_
_space_group_symop_operation_xyz
x,y,z
-x,-y,z
x,-y,-z
-x,y,-z
-x,-y,-z
x,y,-z
-x,y,z
x,-y,z
1/2+x,1/2+y,1/2+z
1/2-x,1/2-y,1/2+z
1/2+x,1/2-y,1/2-z
1/2-x,1/2+y,1/2-z
1/2-x,1/2-y,1/2-z
1/2+x,1/2+y,1/2-z
1/2-x,1/2+y,1/2+z
1/2+x,1/2-y,1/2+z
loop_
_atom_site_type_symbol
_atom_site_label
_atom_site_fract_x
_atom_site_fract_y
_atom_site_fract_z
Si Si1 0.925528 0.819471 0.500000
Si Si2 0.389551 0.331342 0.644456
Si Si3 0.500000 0.324425 0.812363
Si Si4 0.822814 0.673091 0.943634
Si Si5 0.500000 0.825059 0.296403
Si Si6 0.123087 0.674846 0.328266
Si Si7 0.822420 0.177229 0.417235
Si Si8 0.684525 0.329788 0.258836
O O1 0.881081 0.776946 0.547071
O O2 0.000000 0.769246 0.500000
O O3 0.927313 0.000000 0.500000
O O4 0.414502 0.500000 0.641499
O O5 0.362978 0.273466 0.593098
O O6 0.440685 0.225496 0.670205
O O7 0.332254 0.332074 0.683895
O O8 0.500000 0.500000 0.809009
O O9 0.500000 0.259476 0.756402
O O10 0.559900 0.262937 0.841776
O O11 0.831350 0.500000 0.929412
O O12 0.746971 0.702176 0.940696
O O13 0.843503 0.692493 0.000000
O O14 0.500000 0.000000 0.286526
O O15 0.115556 0.500000 0.329697
O O16 0.175323 0.732404 0.366337
O O17 0.136939 0.731293 0.273191
O O18 0.828434 0.000000 0.408082
O O19 0.682906 0.500000 0.240628
O O20 0.750000 0.250000 0.250000
#
# Coordination Sequence:
#
# PCOD9524823 Si02
#       8
#     8  16   8  16   8  16  16  16
#     4   9  18  34  59  91 121 162 218 267 316 380
#     4  11  24  41  64  93 127 167 212 262 322 389
#     4  12  24  42  64  88 122 166 212 256 308 373
#     4  10  21  40  65  93 126 165 217 273 326 383
#     4  12  24  42  69  97 127 167 208 255 323 394
#     4  12  25  39  58  89 126 162 204 251 307 370
#     4  10  20  38  63  91 125 167 216 268 321 376
#     4  11  23  39  60  88 125 164 206 254 309 369
#
# _framework density 10.190084000000001
#
# number of rings (size 3 to 8) (size 9 to 14) (size 15 to 20)
#    0.000    1.154    2.308    4.615    1.077    5.231 
#    0.000    0.769    0.000    2.769    0.000    0.000 
#    0.000    0.000    0.000    0.000    0.000    0.000 
#
# Total GULP energy -290309.081697 kJ/mol
# GULP energy per Si atom -5582.866956 kJ/mol
# Density = 1.016689 g / cm^3
# Si number density = 10.190084 Si / 1000 Ang^3
#
#
#
# Elastic Constant Matrix: (Units=GPa)
#
#
# Indices 1 2 3 4 5 6 
#
# 1 57.7790 24.4461 9.7086 0.0000 0.0000 0.0000
# 2 24.4461 124.4726 39.1960 0.0000 0.0000 0.0000
# 3 9.7086 39.1960 59.8877 0.0000 0.0000 0.0000
# 4 0.0000 0.0000 0.0000 21.7908 0.0000 0.0000
# 5 0.0000 0.0000 0.0000 0.0000 29.4708 0.0000
# 6 0.0000 0.0000 0.0000 0.0000 0.0000 18.7749
#
#
#
# Elastic Compliance Matrix: (Units=1/GPa)
#
#
# Indices 1 2 3 4 5 6 
#
# 1 0.018906 -0.003461 -0.000800 0.000000 0.000000 0.000000
# 2 -0.003461 0.010753 -0.006477 0.000000 0.000000 0.000000
# 3 -0.000800 -0.006477 0.021067 0.000000 0.000000 0.000000
# 4 0.000000 0.000000 0.000000 0.045891 0.000000 0.000000
# 5 0.000000 0.000000 0.000000 0.000000 0.033932 0.000000
# 6 0.000000 0.000000 0.000000 0.000000 0.000000 0.053263
#
#
# Mechanical properties :
#
#
# Convention : Reuss Voigt Hill
#
# Bulk Modulus (GPa) = 34.18729 43.20452 38.69591
# Shear Modulus (GPa) = 23.25185 25.25987 24.25586
#
# Velocity S-wave (km/s) = 3.38139 3.52438 3.45363
# Velocity P-wave (km/s) = 5.66183 6.14874 5.91030
#
# Compressibility (1/GPa) = 0.02925064
#
# Stress axis : x y z
#
# Youngs Moduli (GPa) = 52.89278 92.99551 47.46872
#
# Poissons Ratio (x) = 0.32189 0.03795
# Poissons Ratio (y) = 0.18308 0.30744
# Poissons Ratio (z) = 0.04229 0.60231
#
# Static dielectric constant tensor:
#      x y z
#    x 1.592940 0.000000 0.000000 
#    y 0.000000 1.685420 0.000000 
#    z 0.000000 0.000000 1.717720 
# 
# From -- ./inp_files/66483.got.cif
#   From: 2010.05.17/outbox.ucp.g08.bks.cvg/sg71_34_cif.got.tgz:66483.got - 2010.06.11 16:29:00.
