data_PCOD9524704
_publ_section_title
;
Structure prediction by ZEFSAII (Michael W. Deem and Ramdas Pophale) SiO2 
 PCOD9524704
Probable space group: I M M M
;
_chemical_formula_sum "Si O2"
_cell_formula_units_Z 44
_cell_length_a 12.000000
_cell_length_b 21.000000
_cell_length_c 18.000000
_cell_angle_alpha 90.000000
_cell_angle_beta 90.000000
_cell_angle_gamma 90.000000
_cell_volume 4536.000000
_symmetry_space_group_name_H-M "I M M M"
_symmetry_group_IT_number 71
_symmetry_cell_setting 'orthorhombic'
loop_
_space_group_symop_operation_xyz
x,y,z
-x,-y,z
x,-y,-z
-x,y,-z
-x,-y,-z
x,y,-z
-x,y,z
x,-y,z
1/2+x,1/2+y,1/2+z
1/2-x,1/2-y,1/2+z
1/2+x,1/2-y,1/2-z
1/2-x,1/2+y,1/2-z
1/2-x,1/2-y,1/2-z
1/2+x,1/2+y,1/2-z
1/2-x,1/2+y,1/2+z
1/2+x,1/2-y,1/2+z
loop_
_atom_site_type_symbol
_atom_site_label
_atom_site_fract_x
_atom_site_fract_y
_atom_site_fract_z
Si Si1 0.687816 0.428980 0.305290
Si Si2 0.376129 0.772864 0.154978
Si Si3 0.782857 0.332613 0.801786
Si Si4 0.370229 0.094992 0.918048
Si Si5 0.132370 0.569846 0.917657
Si Si6 0.500000 0.577314 0.582446
O O1 0.654898 0.500000 0.281001
O O2 0.694959 0.377331 0.241489
O O3 0.804910 0.432820 0.348501
O O4 0.606120 0.404989 0.369482
O O5 0.500000 0.745950 0.148345
O O6 0.279891 0.721484 0.152822
O O7 0.359871 0.803551 0.237162
O O8 0.363444 0.829197 0.095661
O O9 0.844500 0.378059 0.857391
O O10 0.500000 0.077664 0.915583
O O11 0.325952 0.077641 0.000000
O O12 0.175449 0.500000 0.894960
O O13 0.000000 0.565141 0.923645
O O14 0.176688 0.584720 0.000000
O O15 0.500000 0.500000 0.577757
O O16 0.500000 0.603453 0.500000
#
# Coordination Sequence:
#
# PCOD9524704 Si02
#       6
#    16  16  16  16  16   8
#     4  10  20  32  49  75 102 134 171 206 254 307
#     4   9  19  33  49  72  98 133 172 208 251 295
#     4  10  19  32  52  75 100 135 166 216 251 306
#     4   9  18  33  51  72 100 130 165 208 251 299
#     4   9  18  33  54  79 105 133 166 210 267 321
#     4   9  18  32  48  68  99 137 173 207 241 292
#
# _framework density 9.7001760000000008
#
# number of rings (size 3 to 8) (size 9 to 14) (size 15 to 20)
#    0.000    2.636    0.000    2.182    1.273    2.909 
#    0.000    0.909    0.000    0.000    0.000    1.273 
#    0.000    0.000    0.000    0.000    0.000    0.000 
#
# Total GULP energy -244972.444381 kJ/mol
# GULP energy per Si atom -5567.555554 kJ/mol
# Density = 0.967810 g / cm^3
# Si number density = 9.700176 Si / 1000 Ang^3
#
#
#
# Elastic Constant Matrix: (Units=GPa)
#
#
# Indices 1 2 3 4 5 6 
#
# 1 32.0366 12.0836 9.4792 0.0000 0.0000 0.0000
# 2 12.0836 42.3505 26.4433 0.0000 0.0000 0.0000
# 3 9.4792 26.4433 24.8876 0.0000 0.0000 0.0000
# 4 0.0000 0.0000 0.0000 -0.3802 0.0000 0.0000
# 5 0.0000 0.0000 0.0000 0.0000 46.5088 0.0000
# 6 0.0000 0.0000 0.0000 0.0000 0.0000 -14.1108
#
#
#
# Elastic Compliance Matrix: (Units=1/GPa)
#
#
# Indices 1 2 3 4 5 6 
#
# 1 0.035534 -0.005015 -0.008205 0.000000 0.000000 0.000000
# 2 -0.005015 0.070862 -0.073381 0.000000 0.000000 0.000000
# 3 -0.008205 -0.073381 0.121274 0.000000 0.000000 0.000000
# 4 0.000000 0.000000 0.000000 -2.630332 0.000000 0.000001
# 5 0.000000 0.000000 0.000000 0.000000 0.021501 0.000000
# 6 0.000000 0.000000 0.000000 0.000001 0.000000 -0.070868
#
#
# Mechanical properties :
#
#
# Convention : Reuss Voigt Hill
#
# Bulk Modulus (GPa) = 18.35999 21.69854 20.02926
# Shear Modulus (GPa) = -2.21174 9.82148 3.80487
#
# Velocity S-wave (km/s) = -1.06889 2.25245 1.40196
# Velocity P-wave (km/s) = 2.82151 4.23953 3.60101
#
# Compressibility (1/GPa) = 0.05446625
#
# Stress axis : x y z
#
# Youngs Moduli (GPa) = 28.14218 14.11189 8.24578
#
# Poissons Ratio (x) = 0.07078 0.06766
# Poissons Ratio (y) = 0.14115 0.60509
# Poissons Ratio (z) = 0.23091 1.03555
#
# Static dielectric constant tensor:
#      x y z
#    x 1.692660 0.000000 0.000000 
#    y 0.000000 1.727010 0.000000 
#    z 0.000000 0.000000 1.655860 
# 
# From -- ./inp_files/23933.got.cif
#   From: 2010.05.17/outbox.ucp.g08.bks.cvg/sg71_12_cif.got.tgz:23933.got - 2010.06.11 16:29:00.
