data_PCOD9524897
_publ_section_title
;
Structure prediction by ZEFSAII (Michael W. Deem and Ramdas Pophale) SiO2 
 PCOD9524897
Probable space group: I M M M
;
_chemical_formula_sum "Si O2"
_cell_formula_units_Z 60
_cell_length_a 15.000000
_cell_length_b 30.000000
_cell_length_c 15.000000
_cell_angle_alpha 90.000000
_cell_angle_beta 90.000000
_cell_angle_gamma 90.000000
_cell_volume 6750.000000
_symmetry_space_group_name_H-M "I M M M"
_symmetry_group_IT_number 71
_symmetry_cell_setting 'orthorhombic'
loop_
_space_group_symop_operation_xyz
x,y,z
-x,-y,z
x,-y,-z
-x,y,-z
-x,-y,-z
x,y,-z
-x,y,z
x,-y,z
1/2+x,1/2+y,1/2+z
1/2-x,1/2-y,1/2+z
1/2+x,1/2-y,1/2-z
1/2-x,1/2+y,1/2-z
1/2-x,1/2-y,1/2-z
1/2+x,1/2+y,1/2-z
1/2-x,1/2+y,1/2+z
1/2+x,1/2-y,1/2+z
loop_
_atom_site_type_symbol
_atom_site_label
_atom_site_fract_x
_atom_site_fract_y
_atom_site_fract_z
Si Si1 0.604436 0.685686 0.355745
Si Si2 0.500000 0.553349 0.602106
Si Si3 0.326594 0.554443 0.724589
Si Si4 0.152430 0.793771 0.653995
Si Si5 0.600234 0.192732 0.195077
Si Si6 0.395437 0.607057 0.101872
Si Si7 0.762755 0.376432 0.603072
Si Si8 0.643258 0.785647 0.400141
O O1 0.500000 0.673118 0.349467
O O2 0.646928 0.693102 0.257947
O O3 0.667667 0.649368 0.399631
O O4 0.612037 0.734274 0.399798
O O5 0.500000 0.500000 0.591516
O O6 0.500000 0.571996 0.500000
O O7 0.413825 0.562711 0.662761
O O8 0.315338 0.500000 0.734462
O O9 0.343395 0.580379 0.819199
O O10 0.250545 0.580556 0.667586
O O11 0.112141 0.743494 0.656418
O O12 0.112259 0.838797 0.610580
O O13 0.250324 0.788051 0.613223
O O14 0.500000 0.178372 0.174920
O O15 0.669489 0.158969 0.149000
O O16 0.609913 0.194927 0.304080
O O17 0.500000 0.595702 0.112171
O O18 0.367604 0.595367 0.000000
O O19 0.787204 0.386952 0.500000
O O20 0.620745 0.804138 0.500000
#
# Coordination Sequence:
#
# PCOD9524897 Si02
#       8
#    16   8  16  16  16  16  16  16
#     4  11  21  35  55  78 114 158 200 248 299 350
#     4   9  18  34  57  83 109 145 188 234 299 369
#     4  11  23  41  60  82 117 152 194 254 310 365
#     4  11  19  36  56  83 123 168 205 248 291 352
#     4  11  23  41  62  86 123 166 207 256 307 359
#     4  11  22  35  55  85 120 162 209 248 292 360
#     4  12  25  40  60  89 118 151 204 256 308 373
#     4  11  20  34  56  83 120 162 207 253 298 350
#
# _framework density 8.8888890000000007
#
# number of rings (size 3 to 8) (size 9 to 14) (size 15 to 20)
#    0.000    1.000    4.667    4.400    0.933    3.733 
#    0.000    0.667    0.000    0.400    0.000    0.933 
#    0.000    0.000    0.000    5.200    0.000    0.000 
#
# Total GULP energy -334596.984198 kJ/mol
# GULP energy per Si atom -5576.616403 kJ/mol
# Density = 0.886866 g / cm^3
# Si number density = 8.888889 Si / 1000 Ang^3
#
#
#
# Elastic Constant Matrix: (Units=GPa)
#
#
# Indices 1 2 3 4 5 6 
#
# 1 76.9883 34.8912 26.4206 0.0000 0.0000 0.0000
# 2 34.8912 103.1149 51.1379 0.0000 0.0000 0.0000
# 3 26.4206 51.1379 150.6241 0.0001 0.0000 0.0000
# 4 0.0000 0.0000 0.0001 25.0323 0.0000 0.0000
# 5 0.0000 0.0000 0.0000 0.0000 11.3149 0.0000
# 6 0.0000 0.0000 0.0000 0.0000 0.0000 21.8729
#
#
#
# Elastic Compliance Matrix: (Units=1/GPa)
#
#
# Indices 1 2 3 4 5 6 
#
# 1 0.015499 -0.004685 -0.001128 0.000000 0.000000 0.000000
# 2 -0.004685 0.013078 -0.003618 0.000000 0.000000 0.000000
# 3 -0.001128 -0.003618 0.008065 0.000000 0.000000 0.000000
# 4 0.000000 0.000000 0.000000 0.039948 0.000000 0.000000
# 5 0.000000 0.000000 0.000000 0.000000 0.088379 0.000000
# 6 0.000000 0.000000 0.000000 0.000000 0.000000 0.045719
#
#
# Mechanical properties :
#
#
# Convention : Reuss Voigt Hill
#
# Bulk Modulus (GPa) = 56.24410 61.73630 58.99020
# Shear Modulus (GPa) = 21.23346 26.19587 23.71466
#
# Velocity S-wave (km/s) = 3.45973 3.84281 3.65629
# Velocity P-wave (km/s) = 6.90403 7.38184 7.14693
#
# Compressibility (1/GPa) = 0.01777964
#
# Stress axis : x y z
#
# Youngs Moduli (GPa) = 64.51857 76.46683 123.98800
#
# Poissons Ratio (x) = 0.35826 0.13987
# Poissons Ratio (y) = 0.30228 0.44860
# Poissons Ratio (z) = 0.07278 0.27667
#
# Static dielectric constant tensor:
#      x y z
#    x 1.618060 0.000000 0.000000 
#    y 0.000000 1.611810 0.000000 
#    z 0.000000 0.000000 1.647970 
# 
# From -- ./inp_files/35447.got.cif
#   From: 2010.05.17/outbox.ucp.g08.bks.cvg/sg71_18_cif.got.tgz:35447.got - 2010.06.11 16:29:00.
