data_PCOD9524642
_publ_section_title
;
Structure prediction by ZEFSAII (Michael W. Deem and Ramdas Pophale) SiO2 
 PCOD9524642
Probable space group: I M M M
;
_chemical_formula_sum "Si O2"
_cell_formula_units_Z 88
_cell_length_a 9.332323
_cell_length_b 17.471629
_cell_length_c 33.432513
_cell_angle_alpha 90.000000
_cell_angle_beta 90.000000
_cell_angle_gamma 90.000000
_cell_volume 5451.200838
_symmetry_space_group_name_H-M "I M M M"
_symmetry_group_IT_number 71
_symmetry_cell_setting 'orthorhombic'
loop_
_space_group_symop_operation_xyz
x,y,z
-x,-y,z
x,-y,-z
-x,y,-z
-x,-y,-z
x,y,-z
-x,y,z
x,-y,z
1/2+x,1/2+y,1/2+z
1/2-x,1/2-y,1/2+z
1/2+x,1/2-y,1/2-z
1/2-x,1/2+y,1/2-z
1/2-x,1/2-y,1/2-z
1/2+x,1/2+y,1/2-z
1/2-x,1/2+y,1/2+z
1/2+x,1/2-y,1/2+z
loop_
_atom_site_type_symbol
_atom_site_label
_atom_site_fract_x
_atom_site_fract_y
_atom_site_fract_z
Si Si1 0.671492 0.746418 0.379229
Si Si2 0.836245 0.363265 0.268018
Si Si3 0.163977 0.190815 0.695532
Si Si4 0.663908 0.500000 0.951407
Si Si5 0.171202 0.346462 0.046337
Si Si6 0.670948 0.416077 0.344681
O O1 0.500000 0.753930 0.372751
O O2 0.753932 0.796011 0.345986
O O3 0.704268 0.778103 0.423171
O O4 0.709286 0.657417 0.371613
O O5 0.840160 0.275255 0.283939
O O6 0.751013 0.361813 0.226410
O O7 0.752698 0.407518 0.302731
O O8 0.000000 0.389071 0.263398
O O9 0.000000 0.165746 0.690076
O O10 0.500000 0.500000 0.937404
O O11 0.747183 0.422987 0.940041
O O12 0.662754 0.500000 0.000000
O O13 0.000000 0.360375 0.047659
O O14 0.208820 0.330143 0.000000
O O15 0.500000 0.411408 0.337308
O O16 0.701839 0.500000 0.362174
#
# Coordination Sequence:
#
# PCOD9524642 Si02
#       6
#    16  16  16   8  16  16
#     4   9  17  29  46  68  93 123 159 196 233 275
#     4   9  16  26  42  63  86 113 147 186 228 274
#     4   9  16  26  42  64  88 114 145 183 228 276
#     4   9  17  29  47  71  95 117 143 179 225 277
#     4   9  17  30  49  71  95 124 156 189 228 278
#     4   9  17  29  45  65  91 124 161 200 238 273
#
# _framework density 16.143232000000001
#
# number of rings (size 3 to 8) (size 9 to 14) (size 15 to 20)
#    0.000    3.000    0.000    1.364    0.000    6.545 
#    0.000    0.000    2.000    0.545    0.000    3.818 
#    0.000    0.000    0.000   13.636    0.000   14.182 
#
# Total GULP energy -244992.428742 kJ/mol
# GULP energy per Si atom -5568.009744 kJ/mol
# Density = 1.610649 g / cm^3
# Si number density = 16.143232 Si / 1000 Ang^3
#
#
#
# Elastic Constant Matrix: (Units=GPa)
#
#
# Indices 1 2 3 4 5 6 
#
# 1 52.0745 40.5615 45.7341 0.0000 0.0000 0.0000
# 2 40.5615 90.0003 56.3635 0.0000 0.0000 0.0000
# 3 45.7341 56.3635 94.8076 0.0000 0.0000 0.0000
# 4 0.0000 0.0000 0.0000 16.1108 0.0000 0.0000
# 5 0.0000 0.0000 0.0000 0.0000 19.4288 0.0000
# 6 0.0000 0.0000 0.0000 0.0000 0.0000 11.2982
#
#
#
# Elastic Compliance Matrix: (Units=1/GPa)
#
#
# Indices 1 2 3 4 5 6 
#
# 1 0.037248 -0.008817 -0.012726 0.000000 0.000000 0.000000
# 2 -0.008817 0.019789 -0.007511 0.000000 0.000000 0.000000
# 3 -0.012726 -0.007511 0.021152 0.000000 0.000000 0.000000
# 4 0.000000 0.000000 0.000000 0.062070 0.000000 0.000000
# 5 0.000000 0.000000 0.000000 0.000000 0.051470 0.000000
# 6 0.000000 0.000000 0.000000 0.000000 0.000000 0.088510
#
#
# Mechanical properties :
#
#
# Convention : Reuss Voigt Hill
#
# Bulk Modulus (GPa) = 49.80153 58.02230 53.91191
# Shear Modulus (GPa) = 14.49107 15.64911 15.07009
#
# Velocity S-wave (km/s) = 2.99934 3.11688 3.05868
# Velocity P-wave (km/s) = 6.55069 6.99811 6.77809
#
# Compressibility (1/GPa) = 0.02007971
#
# Stress axis : x y z
#
# Youngs Moduli (GPa) = 26.84743 50.53375 47.27667
#
# Poissons Ratio (x) = 0.44556 0.60165
# Poissons Ratio (y) = 0.23671 0.35511
# Poissons Ratio (z) = 0.34166 0.37957
#
# Static dielectric constant tensor:
#      x y z
#    x 1.547060 0.000000 0.000000 
#    y 0.000000 1.547610 0.000000 
#    z 0.000000 0.000000 1.521560 
# 
# From -- ./inp_files/8866.got.cif
#   From: 2010.05.17/outbox.cif.g08.bks.cpg/sg71_5_cif.got.tgz:8866.got - 2010.06.03 16:22:01.
