data_PCOD9524910
_publ_section_title
;
Structure prediction by ZEFSAII (Michael W. Deem and Ramdas Pophale) SiO2 
 PCOD9524910
Probable space group: I M M M
;
_chemical_formula_sum "Si O2"
_cell_formula_units_Z 33
_cell_length_a 12.000000
_cell_length_b 30.000000
_cell_length_c 9.000000
_cell_angle_alpha 90.000000
_cell_angle_beta 90.000000
_cell_angle_gamma 90.000000
_cell_volume 3240.000000
_symmetry_space_group_name_H-M "I M M M"
_symmetry_group_IT_number 71
_symmetry_cell_setting 'orthorhombic'
loop_
_space_group_symop_operation_xyz
x,y,z
-x,-y,z
x,-y,-z
-x,y,-z
-x,-y,-z
x,y,-z
-x,y,z
x,-y,z
1/2+x,1/2+y,1/2+z
1/2-x,1/2-y,1/2+z
1/2+x,1/2-y,1/2-z
1/2-x,1/2+y,1/2-z
1/2-x,1/2-y,1/2-z
1/2+x,1/2+y,1/2-z
1/2-x,1/2+y,1/2+z
1/2+x,1/2-y,1/2+z
loop_
_atom_site_type_symbol
_atom_site_label
_atom_site_fract_x
_atom_site_fract_y
_atom_site_fract_z
Si Si1 0.000000 0.000000 0.000000
Si Si2 0.632532 0.128041 0.171482
Si Si3 0.500000 0.324618 0.668371
Si Si4 0.226373 0.797003 0.323884
Si Si5 0.500000 0.424521 0.251388
Si Si6 0.257869 0.447801 0.833733
O O1 0.000000 0.037863 0.127213
O O2 0.500000 0.125549 0.186340
O O3 0.683799 0.166603 0.272570
O O4 0.689047 0.081922 0.220120
O O5 0.660653 0.137873 0.000000
O O6 0.500000 0.306905 0.500000
O O7 0.608194 0.311079 0.758505
O O8 0.500000 0.377584 0.668518
O O9 0.223688 0.793880 0.500000
O O10 0.250000 0.750000 0.250000
O O11 0.615141 0.430628 0.164313
O O12 0.257742 0.500000 0.794581
O O13 0.210917 0.442733 0.000000
#
# Coordination Sequence:
#
# PCOD9524910 Si02
#       6
#     2  16   8  16   8  16
#     4  12  24  36  62 112 138 196 214 280 340 410
#     4  11  26  46  68  95 132 176 227 281 336 401
#     4  12  25  43  71 107 141 178 227 283 340 409
#     4  12  27  47  73 102 137 178 224 282 344 408
#     4  12  23  37  65 100 141 176 223 272 341 403
#     4  11  24  41  65  96 135 176 222 278 337 404
#
# _framework density 10.185185000000001
#
# number of rings (size 3 to 8) (size 9 to 14) (size 15 to 20)
#    0.000    0.485    4.242    3.636    3.394    4.848 
#    0.000    2.424    0.000    0.000    0.000    0.000 
#    0.000    0.000    0.000    0.000    0.000    0.000 
#
# Total GULP energy -184227.507801 kJ/mol
# GULP energy per Si atom -5582.651752 kJ/mol
# Density = 1.016200 g / cm^3
# Si number density = 10.185185 Si / 1000 Ang^3
#
#
#
# Elastic Constant Matrix: (Units=GPa)
#
#
# Indices 1 2 3 4 5 6 
#
# 1 78.7946 52.0424 66.2186 0.0000 0.0001 0.0005
# 2 52.0424 112.4759 61.8403 -0.0002 0.0003 0.0058
# 3 66.2186 61.8403 179.6235 -0.0031 0.0018 0.0303
# 4 0.0000 -0.0002 -0.0031 42.0148 0.0002 -0.0001
# 5 0.0001 0.0003 0.0018 0.0002 68.9970 -0.0082
# 6 0.0005 0.0058 0.0303 -0.0001 -0.0082 590.4101
#
#
#
# Elastic Compliance Matrix: (Units=1/GPa)
#
#
# Indices 1 2 3 4 5 6 
#
# 1 0.022220 -0.007126 -0.005738 0.000000 0.000000 0.000000
# 2 -0.007126 0.013252 -0.001935 0.000000 0.000000 0.000000
# 3 -0.005738 -0.001935 0.008349 0.000001 0.000000 0.000000
# 4 0.000000 0.000000 0.000001 0.023801 0.000000 0.000000
# 5 0.000000 0.000000 0.000000 0.000000 0.014493 0.000000
# 6 0.000000 0.000000 0.000000 0.000000 0.000000 0.001694
#
#
# Mechanical properties :
#
#
# Convention : Reuss Voigt Hill
#
# Bulk Modulus (GPa) = 70.31465 81.23295 75.77380
# Shear Modulus (GPa) = 42.31908 153.00388 97.66148
#
# Velocity S-wave (km/s) = 4.56289 8.67606 6.93159
# Velocity P-wave (km/s) = 7.89639 11.84610 10.06685
#
# Compressibility (1/GPa) = 0.01422179
#
# Stress axis : x y z
#
# Youngs Moduli (GPa) = 45.00366 75.45911 119.77717
#
# Poissons Ratio (x) = 0.53776 0.68730
# Poissons Ratio (y) = 0.32072 0.23180
# Poissons Ratio (z) = 0.25824 0.14603
#
# Static dielectric constant tensor:
#      x y z
#    x 1.666760 0.000010 0.000000 
#    y 0.000010 2.651580 -0.000020 
#    z 0.000000 -0.000020 1.724070 
# 
# From -- ./inp_files/3866.got.cif
#   From: 2010.05.17/outbox.ucp.g08.bks.cvg/sg71_2_cif.got.tgz:3866.got - 2010.06.11 16:29:00.
