data_PCOD9524482
_publ_section_title
;
Structure prediction by ZEFSAII (Michael W. Deem and Ramdas Pophale) SiO2 
 PCOD9524482
Probable space group: I M M M
;
_chemical_formula_sum "Si O2"
_cell_formula_units_Z 64
_cell_length_a 23.963139
_cell_length_b 13.951155
_cell_length_c 9.947225
_cell_angle_alpha 90.000000
_cell_angle_beta 90.000000
_cell_angle_gamma 90.000000
_cell_volume 3325.491272
_symmetry_space_group_name_H-M "I M M M"
_symmetry_group_IT_number 71
_symmetry_cell_setting 'orthorhombic'
loop_
_space_group_symop_operation_xyz
x,y,z
-x,-y,z
x,-y,-z
-x,y,-z
-x,-y,-z
x,y,-z
-x,y,z
x,-y,z
1/2+x,1/2+y,1/2+z
1/2-x,1/2-y,1/2+z
1/2+x,1/2-y,1/2-z
1/2-x,1/2+y,1/2-z
1/2-x,1/2-y,1/2-z
1/2+x,1/2+y,1/2-z
1/2-x,1/2+y,1/2+z
1/2+x,1/2-y,1/2+z
loop_
_atom_site_type_symbol
_atom_site_label
_atom_site_fract_x
_atom_site_fract_y
_atom_site_fract_z
Si Si1 0.795124 0.210310 0.852150
Si Si2 0.724788 0.500000 0.269189
Si Si3 0.647452 0.000000 0.839030
Si Si4 0.151181 0.000000 0.500000
Si Si5 0.562647 0.324991 0.000000
Si Si6 0.908986 0.304221 0.757633
Si Si7 0.000000 0.318381 0.000000
O O1 0.750000 0.250000 0.750000
O O2 0.855380 0.248236 0.813410
O O3 0.793024 0.096123 0.844327
O O4 0.779563 0.244362 0.000000
O O5 0.792354 0.500000 0.264998
O O6 0.691936 0.500000 0.128438
O O7 0.612836 0.093825 0.797496
O O8 0.657726 0.000000 0.000000
O O9 0.110552 0.093319 0.500000
O O10 0.568693 0.258273 0.867885
O O11 0.500000 0.367298 0.000000
O O12 0.951829 0.317248 0.879794
#
# Coordination Sequence:
#
# PCOD9524482 Si02
#       7
#    16   8   8   4   8  16   4
#     4  12  26  44  70 105 146 191 235 298 365 428
#     4  12  26  41  72 107 153 182 234 291 366 436
#     4  12  26  44  70 110 143 191 239 286 353 444
#     4  12  27  42  74 110 138 185 244 294 366 416
#     4  12  25  49  74 100 134 188 242 302 348 422
#     4  12  26  46  75 101 146 187 240 295 359 425
#     4  12  28  53  70 109 138 194 240 303 360 421
#
# _framework density 19.245276
#
# number of rings (size 3 to 8) (size 9 to 14) (size 15 to 20)
#    0.000    0.000    8.750    1.312    3.500    2.500 
#    0.000    1.250    0.000    1.500    0.000    0.000 
#    0.000    0.000    0.000    0.000    0.000    0.000 
#
# Total GULP energy -178421.289698 kJ/mol
# GULP energy per Si atom -5575.665303 kJ/mol
# Density = 1.920147 g / cm^3
# Si number density = 19.245276 Si / 1000 Ang^3
#
#
#
# Elastic Constant Matrix: (Units=GPa)
#
#
# Indices 1 2 3 4 5 6 
#
# 1 176.1996 49.9789 86.1357 0.0000 0.0000 0.0000
# 2 49.9789 110.6159 37.2146 0.0000 0.0000 0.0000
# 3 86.1357 37.2146 187.9670 0.0000 0.0000 0.0000
# 4 0.0000 0.0000 0.0000 5.7591 0.0000 0.0000
# 5 0.0000 0.0000 0.0000 0.0000 48.5771 0.0000
# 6 0.0000 0.0000 0.0000 0.0000 0.0000 8.5743
#
#
#
# Elastic Compliance Matrix: (Units=1/GPa)
#
#
# Indices 1 2 3 4 5 6 
#
# 1 0.007922 -0.002526 -0.003130 0.000000 0.000000 0.000000
# 2 -0.002526 0.010491 -0.000919 0.000000 0.000000 0.000000
# 3 -0.003130 -0.000919 0.006936 0.000000 0.000000 0.000000
# 4 0.000000 0.000000 0.000000 0.173639 0.000000 0.000000
# 5 0.000000 0.000000 0.000000 0.000000 0.020586 0.000000
# 6 0.000000 0.000000 0.000000 0.000000 0.000000 0.116628
#
#
# Mechanical properties :
#
#
# Convention : Reuss Voigt Hill
#
# Bulk Modulus (GPa) = 81.98075 91.27119 86.62597
# Shear Modulus (GPa) = 14.14744 32.67898 23.41321
#
# Velocity S-wave (km/s) = 2.71424 4.12518 3.49172
# Velocity P-wave (km/s) = 7.24659 8.37960 7.83361
#
# Compressibility (1/GPa) = 0.01219799
#
# Stress axis : x y z
#
# Youngs Moduli (GPa) = 126.22823 95.31925 144.16516
#
# Poissons Ratio (x) = 0.24081 0.45126
# Poissons Ratio (y) = 0.31890 0.13254
# Poissons Ratio (z) = 0.39511 0.08763
#
# Static dielectric constant tensor:
#      x y z
#    x 1.640780 0.000000 0.000000 
#    y 0.000000 1.665480 0.000000 
#    z 0.000000 0.000000 1.661490 
# 
# From -- ./inp_files/12076.got.cif
#   From: 2010.05.17/outbox.cif.g08.bks.cpg/sg71_7_cif.got.tgz:12076.got - 2010.06.03 16:22:01.
