data_PCOD9524940
_publ_section_title
;
Structure prediction by ZEFSAII (Michael W. Deem and Ramdas Pophale) SiO2 
 PCOD9524940
Probable space group: I B A M
;
_chemical_formula_sum "Si O2"
_cell_formula_units_Z 80
_cell_length_a 13.315844
_cell_length_b 14.579621
_cell_length_c 14.479105
_cell_angle_alpha 90.000000
_cell_angle_beta 90.000000
_cell_angle_gamma 90.000000
_cell_volume 2810.972848
_symmetry_space_group_name_H-M "I B A M"
_symmetry_group_IT_number 72
_symmetry_cell_setting 'orthorhombic'
loop_
_space_group_symop_operation_xyz
x,y,z
-x,-y,z
x,-y,1/2-z
-x,y,1/2-z
-x,-y,-z
x,y,-z
-x,y,1/2+z
x,-y,1/2+z
1/2+x,1/2+y,1/2+z
1/2-x,1/2-y,1/2+z
1/2+x,1/2-y,-z
1/2-x,1/2+y,-z
1/2-x,1/2-y,1/2-z
1/2+x,1/2+y,1/2-z
1/2-x,1/2+y,z
1/2+x,1/2-y,z
loop_
_atom_site_type_symbol
_atom_site_label
_atom_site_fract_x
_atom_site_fract_y
_atom_site_fract_z
Si Si1 0.108122 0.033730 0.354294
Si Si2 0.426739 0.899931 0.886841
Si Si3 0.688115 0.069675 0.393484
Si Si4 0.191907 0.232959 0.888647
Si Si5 0.531161 0.723339 0.890067
O O1 0.104314 0.144968 0.355116
O O2 0.110259 0.000000 0.250000
O O3 0.208151 0.989769 0.396904
O O4 0.000000 0.000000 0.394704
O O5 0.602971 0.998728 0.855336
O O6 0.516647 0.829775 0.859453
O O7 0.330452 0.836684 0.861087
O O8 0.430378 0.904080 0.000000
O O9 0.659949 0.086851 0.500000
O O10 0.722843 0.166839 0.351164
O O11 0.082506 0.188367 0.870675
O O12 0.204420 0.234875 0.000000
O O13 0.545703 0.725569 0.000000
#
# Coordination Sequence:
#
# PCOD9524940 Si02
#       5
#    16  16  16  16  16
#     4  11  20  26  37  61  94 120 142 177 227 280
#     4   7  13  24  40  64  86 108 151 191 220 273
#     4  10  16  25  45  67  86 117 151 184 235 282
#     4   7  12  22  38  60  86 108 140 185 219 261
#     4   8  14  27  42  58  86 118 148 184 222 270
#
# _framework density 28.459897999999999
#
# number of rings (size 3 to 8) (size 9 to 14) (size 15 to 20)
#    1.200    2.200    2.000    0.600    0.000    0.800 
#    0.000    0.000    0.000   10.800    0.000    1.400 
#    0.000    9.600    0.000   16.200    0.000   10.800 
#
# Total GULP energy -223347.106254 kJ/mol
# GULP energy per Si atom -5583.677656 kJ/mol
# Density = 2.839512 g / cm^3
# Si number density = 28.459898 Si / 1000 Ang^3
#
#
#
# Elastic Constant Matrix: (Units=GPa)
#
#
# Indices 1 2 3 4 5 6 
#
# 1 162.2868 27.4117 -8.2792 -0.0001 0.0000 0.0000
# 2 27.4117 248.7206 -3.0816 0.0000 0.0000 0.0000
# 3 -8.2792 -3.0816 105.0816 -0.0009 0.0000 0.0000
# 4 -0.0001 0.0000 -0.0009 5824.8333 0.0000 0.0001
# 5 0.0000 0.0000 0.0000 0.0000 -0.0793 0.0000
# 6 0.0000 0.0000 0.0000 0.0001 0.0000 51.5376
#
#
#
# Elastic Compliance Matrix: (Units=1/GPa)
#
#
# Indices 1 2 3 4 5 6 
#
# 1 0.006303 -0.000689 0.000476 0.000000 0.000000 0.000000
# 2 -0.000689 0.004097 0.000066 0.000000 0.000000 0.000000
# 3 0.000476 0.000066 0.009556 0.000000 0.000000 0.000000
# 4 0.000000 0.000000 0.000000 0.000172 0.000000 0.000000
# 5 0.000000 0.000000 0.000000 0.000000-12.616754 0.000000
# 6 0.000000 0.000000 0.000000 0.000000 0.000000 0.019403
#
#
# Mechanical properties :
#
#
# Convention : Reuss Voigt Hill
#
# Bulk Modulus (GPa) = 50.85734 60.91010 55.88372
# Shear Modulus (GPa) = -0.39776 1208.59421 604.09823
#
# Velocity S-wave (km/s) = -0.37425 20.62977 14.58505
# Velocity P-wave (km/s) = 4.20973 24.26723 17.41581
#
# Compressibility (1/GPa) = 0.01966285
#
# Stress axis : x y z
#
# Youngs Moduli (GPa) = 158.66562 244.06340 104.64765
#
# Poissons Ratio (x) = 0.16809 -0.04985
# Poissons Ratio (y) = 0.10927 -0.00690
# Poissons Ratio (z) = -0.07558 -0.01608
#
# Static dielectric constant tensor:
#      x y z
#    x 2.332930 0.000000 0.000000 
#    y 0.000000 2.251520 0.000000 
#    z 0.000000 0.000000 2.107800 
# 
# From -- ./inp_files/30480.got.cif
#   From: 2010.05.17/outbox.cif.g08.bks.cpg/sg72_16_cif.got.tgz:30480.got - 2010.06.03 17:03:01.
