data_PCOD9524360
_publ_section_title
;
Structure prediction by ZEFSAII (Michael W. Deem and Ramdas Pophale) SiO2 
 PCOD9524360
Probable space group: I M M M
;
_chemical_formula_sum "Si O2"
_cell_formula_units_Z 88
_cell_length_a 9.573213
_cell_length_b 29.378143
_cell_length_c 14.995955
_cell_angle_alpha 90.000000
_cell_angle_beta 90.000000
_cell_angle_gamma 90.000000
_cell_volume 4217.510678
_symmetry_space_group_name_H-M "I M M M"
_symmetry_group_IT_number 71
_symmetry_cell_setting 'orthorhombic'
loop_
_space_group_symop_operation_xyz
x,y,z
-x,-y,z
x,-y,-z
-x,y,-z
-x,-y,-z
x,y,-z
-x,y,z
x,-y,z
1/2+x,1/2+y,1/2+z
1/2-x,1/2-y,1/2+z
1/2+x,1/2-y,1/2-z
1/2-x,1/2+y,1/2-z
1/2-x,1/2-y,1/2-z
1/2+x,1/2+y,1/2-z
1/2-x,1/2+y,1/2+z
1/2+x,1/2-y,1/2+z
loop_
_atom_site_type_symbol
_atom_site_label
_atom_site_fract_x
_atom_site_fract_y
_atom_site_fract_z
Si Si1 0.835714 0.266088 0.164910
Si Si2 0.340420 0.500000 0.391064
Si Si3 0.652413 0.333015 0.396962
Si Si4 0.341501 0.087190 0.109380
Si Si5 0.160952 0.852652 0.392526
Si Si6 0.669327 0.548729 0.105757
O O1 0.750000 0.250000 0.250000
O O2 0.823305 0.220851 0.104537
O O3 0.761287 0.311225 0.130521
O O4 0.000000 0.273741 0.181107
O O5 0.500000 0.500000 0.358701
O O6 0.344755 0.500000 0.500000
O O7 0.257575 0.545345 0.364352
O O8 0.642058 0.346695 0.500000
O O9 0.500000 0.341571 0.354567
O O10 0.772909 0.365213 0.359710
O O11 0.500000 0.081856 0.140788
O O12 0.347659 0.086703 0.000000
O O13 0.156101 0.856163 0.500000
O O14 0.212599 0.902013 0.357861
O O15 0.000000 0.844164 0.363266
O O16 0.500000 0.549421 0.110287
O O17 0.716834 0.500000 0.144500
O O18 0.704804 0.547881 0.000000
#
# Coordination Sequence:
#
# PCOD9524360 Si02
#       6
#    16   8  16  16  16  16
#     4  11  23  37  52  71  98 134 174 215 260 308
#     4   9  15  23  37  59  91 127 157 187 228 281
#     4   9  18  33  51  70  93 123 159 199 248 305
#     4   9  16  25  40  65  94 121 151 191 238 285
#     4   9  17  30  51  79 108 137 171 212 257 306
#     4   7  10  19  39  70 105 135 163 198 241 291
#
# _framework density 20.865387999999999
#
# number of rings (size 3 to 8) (size 9 to 14) (size 15 to 20)
#    0.000    3.000    0.000    3.545    0.000    5.818 
#    0.000    1.818    0.000    0.545    2.364    2.545 
#    0.000    0.000    0.000    0.000    0.000    0.000 
#
# Total GULP energy -245212.470185 kJ/mol
# GULP energy per Si atom -5573.010686 kJ/mol
# Density = 2.081790 g / cm^3
# Si number density = 20.865388 Si / 1000 Ang^3
#
#
#
# Elastic Constant Matrix: (Units=GPa)
#
#
# Indices 1 2 3 4 5 6 
#
# 1 148.6889 115.0708 11.9619 0.0000 0.0000 0.0000
# 2 115.0708 193.8611 5.4083 0.0001 0.0000 0.0000
# 3 11.9619 5.4083 30.7397 0.0003 -0.0001 0.0000
# 4 0.0000 0.0001 0.0003 -2.5103 0.0000 0.0000
# 5 0.0000 0.0000 -0.0001 0.0000 8.6116 0.0000
# 6 0.0000 0.0000 0.0000 0.0000 0.0000 30.8877
#
#
#
# Elastic Compliance Matrix: (Units=1/GPa)
#
#
# Indices 1 2 3 4 5 6 
#
# 1 0.012840 -0.007519 -0.003674 0.000000 0.000000 0.000000
# 2 -0.007519 0.009587 0.001239 0.000000 0.000000 0.000000
# 3 -0.003674 0.001239 0.033743 0.000004 0.000000 0.000000
# 4 0.000000 0.000000 0.000004 -0.398364 -0.000001 0.000000
# 5 0.000000 0.000000 0.000000 -0.000001 0.116123 0.000000
# 6 0.000000 0.000000 0.000000 0.000000 0.000000 0.032375
#
#
# Mechanical properties :
#
#
# Convention : Reuss Voigt Hill
#
# Bulk Modulus (GPa) = 27.57647 70.90797 49.24222
# Shear Modulus (GPa) = -30.92107 23.45438 -3.73335
#
# Velocity S-wave (km/s) = -3.85376 3.35637 -1.33908
# Velocity P-wave (km/s) = 2.56065 7.00554 4.61089
#
# Compressibility (1/GPa) = 0.03626280
#
# Stress axis : x y z
#
# Youngs Moduli (GPa) = 77.88198 104.30986 29.63599
#
# Poissons Ratio (x) = 0.78430 0.10887
# Poissons Ratio (y) = 0.58559 -0.03673
# Poissons Ratio (z) = 0.28611 -0.12926
#
# Static dielectric constant tensor:
#      x y z
#    x 1.721600 0.000000 0.000000 
#    y 0.000000 1.817190 0.000000 
#    z 0.000000 0.000000 1.784620 
# 
# From -- ./inp_files/42467.got.cif
#   From: 2010.05.17/outbox.cif.g08.bks.cpg/sg71_22_cif.got.tgz:42467.got - 2010.06.03 16:22:01.
