data_PCOD9524246
_publ_section_title
;
Structure prediction by ZEFSAII (Michael W. Deem and Ramdas Pophale) SiO2 
 PCOD9524246
Probable space group: I M M M
;
_chemical_formula_sum "Si O2"
_cell_formula_units_Z 72
_cell_length_a 32.643856
_cell_length_b 14.699348
_cell_length_c 8.459684
_cell_angle_alpha 90.000000
_cell_angle_beta 90.000000
_cell_angle_gamma 90.000000
_cell_volume 4059.323528
_symmetry_space_group_name_H-M "I M M M"
_symmetry_group_IT_number 71
_symmetry_cell_setting 'orthorhombic'
loop_
_space_group_symop_operation_xyz
x,y,z
-x,-y,z
x,-y,-z
-x,y,-z
-x,-y,-z
x,y,-z
-x,y,z
x,-y,z
1/2+x,1/2+y,1/2+z
1/2-x,1/2-y,1/2+z
1/2+x,1/2-y,1/2-z
1/2-x,1/2+y,1/2-z
1/2-x,1/2-y,1/2-z
1/2+x,1/2+y,1/2-z
1/2-x,1/2+y,1/2+z
1/2+x,1/2-y,1/2+z
loop_
_atom_site_type_symbol
_atom_site_label
_atom_site_fract_x
_atom_site_fract_y
_atom_site_fract_z
Si Si1 0.451746 0.500000 0.322904
Si Si2 0.211192 0.692944 0.811441
Si Si3 0.454082 0.303222 0.812476
Si Si4 0.760945 0.500000 0.309888
Si Si5 0.165438 0.000000 0.810498
Si Si6 0.365982 0.305005 0.190324
O O1 0.500000 0.500000 0.348968
O O2 0.432374 0.500000 0.500000
O O3 0.445666 0.590580 0.223113
O O4 0.250000 0.750000 0.750000
O O5 0.217428 0.590415 0.752748
O O6 0.170455 0.740240 0.746129
O O7 0.210658 0.696234 0.000000
O O8 0.500000 0.280647 0.747597
O O9 0.410354 0.265195 0.754403
O O10 0.456383 0.287828 0.000000
O O11 0.761348 0.500000 0.500000
O O12 0.713095 0.500000 0.257557
O O13 0.144102 0.907029 0.752438
O O14 0.165589 0.000000 0.000000
O O15 0.366643 0.309525 0.000000
#
# Coordination Sequence:
#
# PCOD9524246 Si02
#       6
#     8  16  16   8   8  16
#     4   9  16  25  40  64  95 132 173 218 265 310
#     4  12  24  39  59  83 111 143 180 224 270 323
#     4   9  18  32  48  68  98 138 181 221 263 314
#     4  11  23  40  60  82 109 145 182 222 269 322
#     4  11  22  34  52  77 109 147 187 229 270 321
#     4  11  22  35  54  79 109 146 186 228 272 322
#
# _framework density 17.736944999999999
#
# number of rings (size 3 to 8) (size 9 to 14) (size 15 to 20)
#    0.000    1.444    2.222    4.333    0.000    6.667 
#    0.000    0.000    0.000    0.000    0.000    0.778 
#    0.000    6.222    0.000    0.000    0.000    0.000 
#
# Total GULP energy -200705.930255 kJ/mol
# GULP energy per Si atom -5575.164729 kJ/mol
# Density = 1.769657 g / cm^3
# Si number density = 17.736945 Si / 1000 Ang^3
#
#
#
# Elastic Constant Matrix: (Units=GPa)
#
#
# Indices 1 2 3 4 5 6 
#
# 1 201.2869 61.8016 27.7974 0.0000 0.0000 0.0000
# 2 61.8016 93.1921 20.3974 0.0000 0.0000 0.0000
# 3 27.7974 20.3974 55.4747 0.0000 0.0000 0.0000
# 4 0.0000 0.0000 0.0000 26.2928 0.0000 0.0000
# 5 0.0000 0.0000 0.0000 0.0000 20.0413 0.0000
# 6 0.0000 0.0000 0.0000 0.0000 0.0000 21.5801
#
#
#
# Elastic Compliance Matrix: (Units=1/GPa)
#
#
# Indices 1 2 3 4 5 6 
#
# 1 0.006398 -0.003851 -0.001790 0.000000 0.000000 0.000000
# 2 -0.003851 0.013988 -0.003213 0.000000 0.000000 0.000000
# 3 -0.001790 -0.003213 0.020105 0.000000 0.000000 0.000000
# 4 0.000000 0.000000 0.000000 0.038033 0.000000 0.000000
# 5 0.000000 0.000000 0.000000 0.000000 0.049897 0.000000
# 6 0.000000 0.000000 0.000000 0.000000 0.000000 0.046339
#
#
# Mechanical properties :
#
#
# Convention : Reuss Voigt Hill
#
# Bulk Modulus (GPa) = 43.89519 63.32738 53.61129
# Shear Modulus (GPa) = 24.99238 29.58001 27.28619
#
# Velocity S-wave (km/s) = 3.75781 4.08819 3.92648
# Velocity P-wave (km/s) = 6.60529 7.62007 7.13076
#
# Compressibility (1/GPa) = 0.02278154
#
# Stress axis : x y z
#
# Youngs Moduli (GPa) = 156.31003 71.49177 49.73978
#
# Poissons Ratio (x) = 0.27531 0.08902
# Poissons Ratio (y) = 0.60193 0.15984
# Poissons Ratio (z) = 0.27976 0.22974
#
# Static dielectric constant tensor:
#      x y z
#    x 1.691100 0.000000 0.000000 
#    y 0.000000 1.670540 0.000000 
#    z 0.000000 0.000000 1.624340 
# 
# From -- ./inp_files/6544.got.cif
#   From: 2010.05.17/outbox.cif.g08.bks.cpg/sg71_4_cif.got.tgz:6544.got - 2010.06.03 16:22:01.
