data_PCOD9524157
_publ_section_title
;
Structure prediction by ZEFSAII (Michael W. Deem and Ramdas Pophale) SiO2 
 PCOD9524157
Probable space group: I M M M
;
_chemical_formula_sum "Si O2"
_cell_formula_units_Z 88
_cell_length_a 28.879473
_cell_length_b 19.184958
_cell_length_c 7.750444
_cell_angle_alpha 90.000000
_cell_angle_beta 90.000000
_cell_angle_gamma 90.000000
_cell_volume 4294.144942
_symmetry_space_group_name_H-M "I M M M"
_symmetry_group_IT_number 71
_symmetry_cell_setting 'orthorhombic'
loop_
_space_group_symop_operation_xyz
x,y,z
-x,-y,z
x,-y,-z
-x,y,-z
-x,-y,-z
x,y,-z
-x,y,z
x,-y,z
1/2+x,1/2+y,1/2+z
1/2-x,1/2-y,1/2+z
1/2+x,1/2-y,1/2-z
1/2-x,1/2+y,1/2-z
1/2-x,1/2-y,1/2-z
1/2+x,1/2+y,1/2-z
1/2-x,1/2+y,1/2+z
1/2+x,1/2-y,1/2+z
loop_
_atom_site_type_symbol
_atom_site_label
_atom_site_fract_x
_atom_site_fract_y
_atom_site_fract_z
Si Si1 0.212534 0.579638 0.289402
Si Si2 0.552435 0.423331 0.705946
Si Si3 0.109431 0.788002 0.697926
Si Si4 0.785705 0.188715 0.793845
Si Si5 0.612670 0.134648 0.211744
Si Si6 0.553430 0.000000 0.210805
O O1 0.212232 0.580207 0.500000
O O2 0.210835 0.500000 0.232631
O O3 0.258879 0.619271 0.235216
O O4 0.165593 0.618682 0.235274
O O5 0.549422 0.428568 0.500000
O O6 0.500000 0.412158 0.772369
O O7 0.568758 0.500000 0.769501
O O8 0.584398 0.357022 0.736976
O O9 0.095596 0.782881 0.500000
O O10 0.164579 0.798324 0.712364
O O11 0.098532 0.711545 0.775288
O O12 0.750000 0.250000 0.750000
O O13 0.792325 0.185758 0.000000
O O14 0.580465 0.070037 0.265172
O O15 0.612425 0.135488 0.000000
O O16 0.500000 0.000000 0.265544
O O17 0.554097 0.000000 0.000000
#
# Coordination Sequence:
#
# PCOD9524157 Si02
#       6
#    16  16  16  16  16   8
#     4   9  16  29  50  72  97 138 187 228 268 321
#     4   9  20  41  65  85 109 146 191 234 280 343
#     4  11  22  35  55  86 119 148 182 231 289 345
#     4  11  21  34  53  79 110 148 192 236 282 331
#     4   9  16  28  46  71 105 142 182 224 270 328
#     4   9  16  26  44  72 107 143 179 227 278 319
#
# _framework density 20.493019
#
# number of rings (size 3 to 8) (size 9 to 14) (size 15 to 20)
#    0.000    2.273    2.727    1.636    0.000    2.182 
#    0.000    4.545    0.000    1.636    0.000    1.909 
#    0.000    4.364    0.000    0.000    0.000    0.000 
#
# Total GULP energy -245488.157718 kJ/mol
# GULP energy per Si atom -5579.276312 kJ/mol
# Density = 2.044638 g / cm^3
# Si number density = 20.493019 Si / 1000 Ang^3
#
#
#
# Elastic Constant Matrix: (Units=GPa)
#
#
# Indices 1 2 3 4 5 6 
#
# 1 89.1406 81.9073 -8.5659 0.0000 0.0000 0.0000
# 2 81.9073 213.2341 4.8401 0.0000 0.0000 0.0000
# 3 -8.5659 4.8401 25.4377 0.0000 0.0000 0.0000
# 4 0.0000 0.0000 0.0000 13.6482 0.0000 0.0000
# 5 0.0000 0.0000 0.0000 0.0000 9.3934 0.0000
# 6 0.0000 0.0000 0.0000 0.0000 0.0000 35.2667
#
#
#
# Elastic Compliance Matrix: (Units=1/GPa)
#
#
# Indices 1 2 3 4 5 6 
#
# 1 0.018731 -0.007370 0.007710 0.000000 0.000000 0.000000
# 2 -0.007370 0.007610 -0.003930 0.000000 0.000000 0.000000
# 3 0.007710 -0.003930 0.042656 0.000000 0.000000 0.000000
# 4 0.000000 0.000000 0.000000 0.073270 0.000000 0.000000
# 5 0.000000 0.000000 0.000000 0.000000 0.106458 0.000000
# 6 0.000000 0.000000 0.000000 0.000000 0.000000 0.028355
#
#
# Mechanical properties :
#
#
# Convention : Reuss Voigt Hill
#
# Bulk Modulus (GPa) = 16.17684 53.79726 34.98705
# Shear Modulus (GPa) = 16.40070 28.30373 22.35221
#
# Velocity S-wave (km/s) = 2.83204 3.72040 3.30619
# Velocity P-wave (km/s) = 4.31334 6.69057 5.62888
#
# Compressibility (1/GPa) = 0.06181677
#
# Stress axis : x y z
#
# Youngs Moduli (GPa) = 53.38743 131.40926 23.44356
#
# Poissons Ratio (x) = 0.96848 -0.18075
# Poissons Ratio (y) = 0.39346 0.09213
# Poissons Ratio (z) = -0.41161 0.51640
#
# Static dielectric constant tensor:
#      x y z
#    x 1.682920 0.000000 0.000000 
#    y 0.000000 1.760270 0.000000 
#    z 0.000000 0.000000 1.778700 
# 
# From -- ./inp_files/16710.got.cif
#   From: 2010.05.17/outbox.cif.g08.bks.cpg/sg71_9_cif.got.tgz:16710.got - 2010.06.03 16:22:01.
