data_PCOD9524388
_publ_section_title
;
Structure prediction by ZEFSAII (Michael W. Deem and Ramdas Pophale) SiO2 
 PCOD9524388
Probable space group: I M M M
;
_chemical_formula_sum "Si O2"
_cell_formula_units_Z 72
_cell_length_a 14.706715
_cell_length_b 8.726591
_cell_length_c 30.629032
_cell_angle_alpha 90.000000
_cell_angle_beta 90.000000
_cell_angle_gamma 90.000000
_cell_volume 3930.914247
_symmetry_space_group_name_H-M "I M M M"
_symmetry_group_IT_number 71
_symmetry_cell_setting 'orthorhombic'
loop_
_space_group_symop_operation_xyz
x,y,z
-x,-y,z
x,-y,-z
-x,y,-z
-x,-y,-z
x,y,-z
-x,y,z
x,-y,z
1/2+x,1/2+y,1/2+z
1/2-x,1/2-y,1/2+z
1/2+x,1/2-y,1/2-z
1/2-x,1/2+y,1/2-z
1/2-x,1/2-y,1/2-z
1/2+x,1/2+y,1/2-z
1/2-x,1/2+y,1/2+z
1/2+x,1/2-y,1/2+z
loop_
_atom_site_type_symbol
_atom_site_label
_atom_site_fract_x
_atom_site_fract_y
_atom_site_fract_z
Si Si1 0.691245 0.315785 0.049942
Si Si2 0.000000 0.183366 0.162012
Si Si3 0.500000 0.316100 0.765975
Si Si4 0.310000 0.815593 0.369537
Si Si5 0.000000 0.323825 0.446909
Si Si6 0.192967 0.683739 0.290734
O O1 0.686297 0.500000 0.049008
O O2 0.771081 0.272254 0.082948
O O3 0.593805 0.255373 0.066616
O O4 0.705095 0.261845 0.000000
O O5 0.909717 0.252474 0.140647
O O6 0.000000 0.218140 0.213944
O O7 0.000000 0.000000 0.157600
O O8 0.500000 0.500000 0.771123
O O9 0.590647 0.244977 0.786398
O O10 0.241771 0.745644 0.333907
O O11 0.310199 0.000000 0.365807
O O12 0.000000 0.500000 0.433242
O O13 0.000000 0.316948 0.500000
O O14 0.195103 0.500000 0.289584
O O15 0.250000 0.750000 0.250000
#
# Coordination Sequence:
#
# PCOD9524388 Si02
#       6
#    16   8   8  16   8  16
#     4   9  19  37  60  86 117 155 197 240 287 342
#     4  11  23  39  61  85 114 154 198 243 291 352
#     4  11  23  40  62  88 118 156 198 242 289 348
#     4  11  23  39  62  88 117 154 197 244 293 349
#     4   9  17  30  53  84 115 150 188 230 286 345
#     4  12  24  39  60  87 118 153 192 239 290 347
#
# _framework density 18.316348999999999
#
# number of rings (size 3 to 8) (size 9 to 14) (size 15 to 20)
#    0.000    1.444    2.222    3.667    0.000    4.889 
#    0.000    1.667    0.000    3.333    0.000    0.000 
#    0.000    0.000    0.000    0.000    0.000    0.000 
#
# Total GULP energy -201177.195750 kJ/mol
# GULP energy per Si atom -5588.255438 kJ/mol
# Density = 1.827466 g / cm^3
# Si number density = 18.316349 Si / 1000 Ang^3
#
#
#
# Elastic Constant Matrix: (Units=GPa)
#
#
# Indices 1 2 3 4 5 6 
#
# 1 198.1956 63.8553 83.5166 0.0000 0.0000 0.0000
# 2 63.8553 77.6769 48.1045 0.0000 0.0000 0.0000
# 3 83.5166 48.1045 101.4676 0.0000 0.0000 0.0000
# 4 0.0000 0.0000 0.0000 22.5622 0.0000 0.0000
# 5 0.0000 0.0000 0.0000 0.0000 22.5965 0.0000
# 6 0.0000 0.0000 0.0000 0.0000 0.0000 33.5370
#
#
#
# Elastic Compliance Matrix: (Units=1/GPa)
#
#
# Indices 1 2 3 4 5 6 
#
# 1 0.008423 -0.003724 -0.005167 0.000000 0.000000 0.000000
# 2 -0.003724 0.019871 -0.006355 0.000000 0.000000 0.000000
# 3 -0.005167 -0.006355 0.017121 0.000000 0.000000 0.000000
# 4 0.000000 0.000000 0.000000 0.044322 0.000000 0.000000
# 5 0.000000 0.000000 0.000000 0.000000 0.044255 0.000000
# 6 0.000000 0.000000 0.000000 0.000000 0.000000 0.029818
#
#
# Mechanical properties :
#
#
# Convention : Reuss Voigt Hill
#
# Bulk Modulus (GPa) = 67.01505 85.36588 76.19046
# Shear Modulus (GPa) = 25.09076 27.86338 26.47707
#
# Velocity S-wave (km/s) = 3.70517 3.90453 3.80615
# Velocity P-wave (km/s) = 7.41427 8.18747 7.81044
#
# Compressibility (1/GPa) = 0.01492202
#
# Stress axis : x y z
#
# Youngs Moduli (GPa) = 118.72727 50.32439 58.40665
#
# Poissons Ratio (x) = 0.18741 0.30179
# Poissons Ratio (y) = 0.44215 0.37120
# Poissons Ratio (z) = 0.61347 0.31983
#
# Static dielectric constant tensor:
#      x y z
#    x 1.599290 0.000000 0.000000 
#    y 0.000000 1.613560 0.000000 
#    z 0.000000 0.000000 1.637790 
# 
# From -- ./inp_files/6189.got.cif
#   From: 2010.05.17/outbox.cif.g08.bks.cpg/sg71_4_cif.got.tgz:6189.got - 2010.06.03 16:22:01.
