data_PCOD9524530
_publ_section_title
;
Structure prediction by ZEFSAII (Michael W. Deem and Ramdas Pophale) SiO2 
 PCOD9524530
Probable space group: I M M M
;
_chemical_formula_sum "Si O2"
_cell_formula_units_Z 72
_cell_length_a 14.199437
_cell_length_b 30.387033
_cell_length_c 7.306626
_cell_angle_alpha 90.000000
_cell_angle_beta 90.000000
_cell_angle_gamma 90.000000
_cell_volume 3152.653931
_symmetry_space_group_name_H-M "I M M M"
_symmetry_group_IT_number 71
_symmetry_cell_setting 'orthorhombic'
loop_
_space_group_symop_operation_xyz
x,y,z
-x,-y,z
x,-y,-z
-x,y,-z
-x,-y,-z
x,y,-z
-x,y,z
x,-y,z
1/2+x,1/2+y,1/2+z
1/2-x,1/2-y,1/2+z
1/2+x,1/2-y,1/2-z
1/2-x,1/2+y,1/2-z
1/2-x,1/2-y,1/2-z
1/2+x,1/2+y,1/2-z
1/2-x,1/2+y,1/2+z
1/2+x,1/2-y,1/2+z
loop_
_atom_site_type_symbol
_atom_site_label
_atom_site_fract_x
_atom_site_fract_y
_atom_site_fract_z
Si Si1 0.608082 0.000000 0.222525
Si Si2 0.393267 0.722837 0.221317
Si Si3 0.705656 0.909902 0.223875
Si Si4 0.690497 0.185278 0.786623
Si Si5 0.604509 0.550712 0.722268
O O1 0.654349 0.045601 0.283006
O O2 0.500000 0.000000 0.273123
O O3 0.615678 0.000000 0.000000
O O4 0.500000 0.711468 0.280818
O O5 0.362995 0.771864 0.287430
O O6 0.303526 0.693147 0.274869
O O7 0.393839 0.722914 0.000000
O O8 0.668116 0.862969 0.288472
O O9 0.813811 0.916890 0.280034
O O10 0.702446 0.909177 0.000000
O O11 0.665072 0.184318 0.000000
O O12 0.604186 0.550471 0.500000
O O13 0.500000 0.562469 0.783631
O O14 0.624431 0.500000 0.776011
#
# Coordination Sequence:
#
# PCOD9524530 Si02
#       5
#     8  16  16  16  16
#     4   9  16  24  35  55  88 127 155 175 212 268
#     4   9  18  33  49  65  91 125 155 187 235 288
#     4   9  15  24  37  57  87 116 145 182 220 260
#     4   9  18  30  47  71  94 118 154 197 233 270
#     4   8  12  18  29  45  70 105 135 160 202 255
#
# _framework density 22.837902
#
# number of rings (size 3 to 8) (size 9 to 14) (size 15 to 20)
#    0.000    3.222    1.111    0.667    0.000    2.222 
#    0.000    6.667    0.000    0.000    0.000    0.778 
#    0.000    2.667    0.000    0.000    0.000    0.000 
#
# Total GULP energy -200862.581744 kJ/mol
# GULP energy per Si atom -5579.516160 kJ/mol
# Density = 2.278592 g / cm^3
# Si number density = 22.837902 Si / 1000 Ang^3
#
#
#
# Elastic Constant Matrix: (Units=GPa)
#
#
# Indices 1 2 3 4 5 6 
#
# 1 37.1917 7.4418 -13.5378 -0.0045 0.0002 0.0013
# 2 7.4418 121.8976 -2.9724 -0.0049 0.0019 0.0004
# 3 -13.5378 -2.9724 94.0545 -0.0463 0.0306 0.0042
# 4 -0.0045 -0.0049 -0.0463 -22.9748 0.0104 0.0001
# 5 0.0002 0.0019 0.0306 0.0104 -0.3990 -0.0032
# 6 0.0013 0.0004 0.0042 0.0001 -0.0032 8.6035
#
#
#
# Elastic Compliance Matrix: (Units=1/GPa)
#
#
# Indices 1 2 3 4 5 6 
#
# 1 0.028703 -0.001653 0.004079 -0.000013 0.000320 -0.000006
# 2 -0.001653 0.008305 0.000025 -0.000001 0.000040 0.000000
# 3 0.004079 0.000025 0.011220 -0.000023 0.000861 -0.000006
# 4 -0.000013 -0.000001 -0.000023 -0.043526 -0.001132 0.000000
# 5 0.000320 0.000040 0.000861 -0.001132 -2.506175 -0.000937
# 6 -0.000006 0.000000 -0.000006 0.000000 -0.000937 0.116232
#
#
# Mechanical properties :
#
#
# Convention : Reuss Voigt Hill
#
# Bulk Modulus (GPa) = 18.82192 26.11190 22.46691
# Shear Modulus (GPa) = -2.10754 14.52675 6.20961
#
# Velocity S-wave (km/s) = -0.96168 2.52480 1.65073
# Velocity P-wave (km/s) = 2.65072 4.46743 3.67316
#
# Compressibility (1/GPa) = 0.05312955
#
# Stress axis : x y z
#
# Youngs Moduli (GPa) = 34.83930 120.40780 89.12865
#
# Poissons Ratio (x) = 0.19902 -0.36356
# Poissons Ratio (y) = 0.05758 -0.00219
# Poissons Ratio (z) = -0.14211 -0.00296
#
# Static dielectric constant tensor:
#      x y z
#    x 1.819460 0.000000 0.000000 
#    y 0.000000 1.849440 0.000000 
#    z 0.000000 0.000000 1.926600 
# 
# From -- ./inp_files/6440.got.cif
#   From: 2010.05.17/outbox.cif.g08.bks.cpg/sg71_4_cif.got.tgz:6440.got - 2010.06.03 16:22:01.
