data_PCOD9524504
_publ_section_title
;
Structure prediction by ZEFSAII (Michael W. Deem and Ramdas Pophale) SiO2 
 PCOD9524504
Probable space group: I M M M
;
_chemical_formula_sum "Si O2"
_cell_formula_units_Z 80
_cell_length_a 7.559798
_cell_length_b 23.125344
_cell_length_c 23.104238
_cell_angle_alpha 90.000000
_cell_angle_beta 90.000000
_cell_angle_gamma 90.000000
_cell_volume 4039.150567
_symmetry_space_group_name_H-M "I M M M"
_symmetry_group_IT_number 71
_symmetry_cell_setting 'orthorhombic'
loop_
_space_group_symop_operation_xyz
x,y,z
-x,-y,z
x,-y,-z
-x,y,-z
-x,-y,-z
x,y,-z
-x,y,z
x,-y,z
1/2+x,1/2+y,1/2+z
1/2-x,1/2-y,1/2+z
1/2+x,1/2-y,1/2-z
1/2-x,1/2+y,1/2-z
1/2-x,1/2-y,1/2-z
1/2+x,1/2+y,1/2-z
1/2-x,1/2+y,1/2+z
1/2+x,1/2-y,1/2+z
loop_
_atom_site_type_symbol
_atom_site_label
_atom_site_fract_x
_atom_site_fract_y
_atom_site_fract_z
Si Si1 0.296123 0.929712 0.000000
Si Si2 0.290204 0.127029 0.565905
Si Si3 0.789295 0.000000 0.433907
Si Si4 0.709964 0.833815 0.209197
Si Si5 0.714135 0.791170 0.666761
Si Si6 0.717472 0.933389 0.873502
O O1 0.220160 0.913739 0.062464
O O2 0.500000 0.909758 0.000000
O O3 0.298254 0.000000 0.000000
O O4 0.217161 0.129181 0.500000
O O5 0.500000 0.136342 0.561332
O O6 0.220190 0.174474 0.610618
O O7 0.265886 0.061992 0.590619
O O8 0.717786 0.000000 0.500000
O O9 0.000000 0.000000 0.435818
O O10 0.500000 0.842280 0.215546
O O11 0.779975 0.820446 0.273451
O O12 0.737795 0.776049 0.171423
O O13 0.779050 0.889625 0.175673
O O14 0.500000 0.794272 0.666940
O O15 0.500000 0.932756 0.875155
O O16 0.769019 0.000000 0.863893
#
# Coordination Sequence:
#
# PCOD9524504 Si02
#       6
#     8  16   8  16  16  16
#     4   7  10  18  34  56  85 115 133 158 211 264
#     4   9  17  31  49  67  90 122 159 192 223 269
#     4   9  17  29  47  71  97 121 145 184 239 282
#     4   9  17  30  47  67  89 117 150 186 229 269
#     4   9  18  32  47  64  88 122 156 185 222 268
#     4   8  13  23  40  63  89 113 140 177 218 262
#
# _framework density 19.806145000000001
#
# number of rings (size 3 to 8) (size 9 to 14) (size 15 to 20)
#    0.000    3.400    0.000    1.500    0.000    2.000 
#    3.600    0.000    0.000    0.600    0.000    0.000 
#    0.000    2.400    0.000    0.000    0.000    0.000 
#
# Total GULP energy -222770.098282 kJ/mol
# GULP energy per Si atom -5569.252457 kJ/mol
# Density = 1.976107 g / cm^3
# Si number density = 19.806145 Si / 1000 Ang^3
#
#
#
# Elastic Constant Matrix: (Units=GPa)
#
#
# Indices 1 2 3 4 5 6 
#
# 1 46.4748 -4.9483 3.4571 0.0000 0.0000 0.0000
# 2 -4.9483 108.1319 76.4179 0.0000 0.0000 0.0000
# 3 3.4571 76.4179 89.5585 0.0000 0.0000 0.0000
# 4 0.0000 0.0000 0.0000 26.5900 0.0000 0.0000
# 5 0.0000 0.0000 0.0000 0.0000 1.4135 0.0000
# 6 0.0000 0.0000 0.0000 0.0000 0.0000 16.4387
#
#
#
# Elastic Compliance Matrix: (Units=1/GPa)
#
#
# Indices 1 2 3 4 5 6 
#
# 1 0.022278 0.004099 -0.004357 0.000000 0.000000 0.000000
# 2 0.004099 0.024050 -0.020679 0.000000 0.000000 0.000000
# 3 -0.004357 -0.020679 0.028979 0.000000 0.000000 0.000000
# 4 0.000000 0.000000 0.000000 0.037608 0.000000 0.000000
# 5 0.000000 0.000000 0.000000 0.000000 0.707453 0.000000
# 6 0.000000 0.000000 0.000000 0.000000 0.000000 0.060832
#
#
# Mechanical properties :
#
#
# Convention : Reuss Voigt Hill
#
# Bulk Modulus (GPa) = 29.91241 43.77985 36.84613
# Shear Modulus (GPa) = 5.35207 20.17102 12.76154
#
# Velocity S-wave (km/s) = 1.64563 3.19473 2.54110
# Velocity P-wave (km/s) = 4.32968 5.98002 5.22048
#
# Compressibility (1/GPa) = 0.03343094
#
# Stress axis : x y z
#
# Youngs Moduli (GPa) = 44.88813 41.58044 34.50756
#
# Poissons Ratio (x) = -0.17044 0.15037
# Poissons Ratio (y) = -0.18399 0.71359
# Poissons Ratio (z) = 0.19560 0.85985
#
# Static dielectric constant tensor:
#      x y z
#    x 1.739000 0.000000 0.000000 
#    y 0.000000 1.675780 0.000000 
#    z 0.000000 0.000000 1.729430 
# 
# From -- ./inp_files/57707.got.cif
#   From: 2010.05.17/outbox.cif.g08.bks.cpg/sg71_29_cif.got.tgz:57707.got - 2010.06.03 16:22:01.
