data_PCOD9524319
_publ_section_title
;
Structure prediction by ZEFSAII (Michael W. Deem and Ramdas Pophale) SiO2 
 PCOD9524319
Probable space group: I M M M
;
_chemical_formula_sum "Si O2"
_cell_formula_units_Z 64
_cell_length_a 16.987473
_cell_length_b 22.703834
_cell_length_c 8.286128
_cell_angle_alpha 90.000000
_cell_angle_beta 90.000000
_cell_angle_gamma 90.000000
_cell_volume 3195.800203
_symmetry_space_group_name_H-M "I M M M"
_symmetry_group_IT_number 71
_symmetry_cell_setting 'orthorhombic'
loop_
_space_group_symop_operation_xyz
x,y,z
-x,-y,z
x,-y,-z
-x,y,-z
-x,-y,-z
x,y,-z
-x,y,z
x,-y,z
1/2+x,1/2+y,1/2+z
1/2-x,1/2-y,1/2+z
1/2+x,1/2-y,1/2-z
1/2-x,1/2+y,1/2-z
1/2-x,1/2-y,1/2-z
1/2+x,1/2+y,1/2-z
1/2-x,1/2+y,1/2+z
1/2+x,1/2-y,1/2+z
loop_
_atom_site_type_symbol
_atom_site_label
_atom_site_fract_x
_atom_site_fract_y
_atom_site_fract_z
Si Si1 0.172545 0.379564 0.691045
Si Si2 0.091573 0.738691 0.808887
Si Si3 0.000000 0.932044 0.303051
Si Si4 0.654175 0.360633 0.809144
Si Si5 0.909094 0.500000 0.303022
O O1 0.157951 0.374704 0.500000
O O2 0.132602 0.323227 0.772994
O O3 0.265405 0.378478 0.723642
O O4 0.134426 0.440582 0.750038
O O5 0.135313 0.792160 0.721183
O O6 0.000000 0.737043 0.758034
O O7 0.094524 0.750230 0.000000
O O8 0.078481 0.897717 0.250940
O O9 0.000000 0.930854 0.500000
O O10 0.000000 0.000000 0.252121
O O11 0.663680 0.370727 0.000000
O O12 0.907531 0.500000 0.500000
O O13 0.000000 0.500000 0.252613
#
# Coordination Sequence:
#
# PCOD9524319 Si02
#       5
#    16  16   8  16   8
#     4  11  23  39  62  90 122 158 201 247 300 358
#     4  11  23  40  62  89 122 157 200 252 303 353
#     4   9  20  38  61  89 121 160 201 244 295 355
#     4  11  22  39  63  90 122 159 202 246 298 355
#     4   9  20  40  63  88 119 158 200 244 294 357
#
# _framework density 20.026282999999999
#
# number of rings (size 3 to 8) (size 9 to 14) (size 15 to 20)
#    0.000    1.500    1.250    3.750    1.750    2.500 
#    0.000    1.875    0.000    7.500    0.000    0.000 
#    0.000    0.000    0.000    0.000    0.000    0.000 
#
# Total GULP energy -178957.508462 kJ/mol
# GULP energy per Si atom -5592.422139 kJ/mol
# Density = 1.998070 g / cm^3
# Si number density = 20.026283 Si / 1000 Ang^3
#
#
#
# Elastic Constant Matrix: (Units=GPa)
#
#
# Indices 1 2 3 4 5 6 
#
# 1 124.2963 51.7906 -13.5229 0.0000 0.0000 0.0000
# 2 51.7906 139.8789 -15.9791 0.0000 0.0000 0.0000
# 3 -13.5229 -15.9791 15.4810 0.0000 0.0000 0.0000
# 4 0.0000 0.0000 0.0000 -2.8199 0.0000 0.0000
# 5 0.0000 0.0000 0.0000 0.0000 -84.7722 0.0000
# 6 0.0000 0.0000 0.0000 0.0000 0.0000 9.3267
#
#
#
# Elastic Compliance Matrix: (Units=1/GPa)
#
#
# Indices 1 2 3 4 5 6 
#
# 1 0.009912 -0.003039 0.005521 0.000000 0.000000 0.000000
# 2 -0.003039 0.009037 0.006672 0.000000 0.000000 0.000000
# 3 0.005521 0.006672 0.076305 0.000000 0.000000 0.000000
# 4 0.000000 0.000000 0.000000 -0.354620 0.000000 0.000000
# 5 0.000000 0.000000 0.000000 0.000000 -0.011796 0.000000
# 6 0.000000 0.000000 0.000000 0.000000 0.000000 0.107220
#
#
# Mechanical properties :
#
#
# Convention : Reuss Voigt Hill
#
# Bulk Modulus (GPa) = 8.80565 36.02595 22.41580
# Shear Modulus (GPa) = -34.62689 1.50473 -16.56108
#
# Velocity S-wave (km/s) = -4.16272 0.86776 -2.87882
# Velocity P-wave (km/s) = 4.32409 4.36261 0.40905
#
# Compressibility (1/GPa) = 0.11356344
#
# Stress axis : x y z
#
# Youngs Moduli (GPa) = 100.88351 110.66111 13.10524
#
# Poissons Ratio (x) = 0.33634 -0.07236
# Poissons Ratio (y) = 0.30662 -0.08744
# Poissons Ratio (z) = -0.55703 -0.73837
#
# Static dielectric constant tensor:
#      x y z
#    x 1.679170 0.000000 0.000000 
#    y 0.000000 1.670770 0.000000 
#    z 0.000000 0.000000 1.684960 
# 
# From -- ./inp_files/5493.got.cif
#   From: 2010.05.17/outbox.cif.g08.bks.cpg/sg71_3_cif.got.tgz:5493.got - 2010.06.03 16:22:01.
