data_PCOD9524899
_publ_section_title
;
Structure prediction by ZEFSAII (Michael W. Deem and Ramdas Pophale) SiO2 
 PCOD9524899
Probable space group: I M M M
;
_chemical_formula_sum "Si O2"
_cell_formula_units_Z 48
_cell_length_a 24.000000
_cell_length_b 27.000000
_cell_length_c 9.000000
_cell_angle_alpha 90.000000
_cell_angle_beta 90.000000
_cell_angle_gamma 90.000000
_cell_volume 5832.000000
_symmetry_space_group_name_H-M "I M M M"
_symmetry_group_IT_number 71
_symmetry_cell_setting 'orthorhombic'
loop_
_space_group_symop_operation_xyz
x,y,z
-x,-y,z
x,-y,-z
-x,y,-z
-x,-y,-z
x,y,-z
-x,y,z
x,-y,z
1/2+x,1/2+y,1/2+z
1/2-x,1/2-y,1/2+z
1/2+x,1/2-y,1/2-z
1/2-x,1/2+y,1/2-z
1/2-x,1/2-y,1/2-z
1/2+x,1/2+y,1/2-z
1/2-x,1/2+y,1/2+z
1/2+x,1/2-y,1/2+z
loop_
_atom_site_type_symbol
_atom_site_label
_atom_site_fract_x
_atom_site_fract_y
_atom_site_fract_z
Si Si1 0.214547 0.852105 0.319376
Si Si2 0.500000 0.740594 0.322660
Si Si3 0.000000 0.349911 0.675710
Si Si4 0.784966 0.444971 0.818554
Si Si5 0.107523 0.389212 0.829532
Si Si6 0.317959 0.789601 0.671479
Si Si7 0.887980 0.205876 0.676748
O O1 0.216487 0.851819 0.500000
O O2 0.241314 0.903441 0.267678
O O3 0.257667 0.808612 0.275152
O O4 0.151322 0.840202 0.278207
O O5 0.500000 0.744110 0.500000
O O6 0.500000 0.796238 0.255873
O O7 0.445128 0.712944 0.263784
O O8 0.054516 0.379343 0.728705
O O9 0.000000 0.342024 0.500000
O O10 0.770925 0.500000 0.769993
O O11 0.847805 0.429706 0.776443
O O12 0.784702 0.443550 0.000000
O O13 0.143874 0.338815 0.834221
O O14 0.090222 0.399979 0.000000
O O15 0.314577 0.770859 0.500000
O O16 0.349080 0.752273 0.779380
O O17 0.898204 0.204973 0.500000
#
# Coordination Sequence:
#
# PCOD9524899 Si02
#       7
#    16   8   8  16  16  16  16
#     4   8  16  28  44  70 100 126 154 196 240 278
#     4  12  24  36  48  63  92 133 170 202 234 277
#     4  12  22  32  47  67  92 126 169 204 240 284
#     4   8  14  28  51  76  98 122 156 197 241 287
#     4   9  17  29  47  69  95 127 163 201 234 269
#     4   9  16  28  45  65  95 131 159 187 230 278
#     4  11  20  30  45  69  99 127 160 196 234 278
#
# _framework density 8.2304530000000007
#
# number of rings (size 3 to 8) (size 9 to 14) (size 15 to 20)
#    0.000    2.500    1.667    4.500    0.000    0.000 
#    0.000    1.250    0.000    4.000    0.000    0.583 
#    0.000    4.667    0.000    0.000    0.000    0.000 
#
# Total GULP energy -267488.030749 kJ/mol
# GULP energy per Si atom -5572.667307 kJ/mol
# Density = 0.821172 g / cm^3
# Si number density = 8.230453 Si / 1000 Ang^3
#
#
#
# Elastic Constant Matrix: (Units=GPa)
#
#
# Indices 1 2 3 4 5 6 
#
# 1 122.3930 60.7779 37.9922 0.0000 0.0000 0.0000
# 2 60.7779 75.5798 21.1920 0.0000 0.0000 0.0000
# 3 37.9922 21.1920 60.4688 0.0000 0.0000 0.0000
# 4 0.0000 0.0000 0.0000 9.7609 0.0000 0.0000
# 5 0.0000 0.0000 0.0000 0.0000 18.6819 0.0000
# 6 0.0000 0.0000 0.0000 0.0000 0.0000 10.6823
#
#
#
# Elastic Compliance Matrix: (Units=1/GPa)
#
#
# Indices 1 2 3 4 5 6 
#
# 1 0.015275 -0.010638 -0.005869 0.000000 0.000000 0.000000
# 2 -0.010638 0.022081 -0.001055 0.000000 0.000000 0.000000
# 3 -0.005869 -0.001055 0.020595 0.000000 0.000000 0.000000
# 4 0.000000 0.000000 0.000000 0.102449 0.000000 0.000000
# 5 0.000000 0.000000 0.000000 0.000000 0.053528 0.000000
# 6 0.000000 0.000000 0.000000 0.000000 0.000000 0.093613
#
#
# Mechanical properties :
#
#
# Convention : Reuss Voigt Hill
#
# Bulk Modulus (GPa) = 43.80719 55.37396 49.59058
# Shear Modulus (GPa) = 14.27462 17.05700 15.66581
#
# Velocity S-wave (km/s) = 2.94799 3.22252 3.08831
# Velocity P-wave (km/s) = 6.18532 6.89629 6.55046
#
# Compressibility (1/GPa) = 0.02282730
#
# Stress axis : x y z
#
# Youngs Moduli (GPa) = 65.46844 45.28757 48.55649
#
# Poissons Ratio (x) = 0.48175 0.28497
# Poissons Ratio (y) = 0.69642 0.05123
# Poissons Ratio (z) = 0.38422 0.04778
#
# Static dielectric constant tensor:
#      x y z
#    x 1.574490 0.000000 0.000000 
#    y 0.000000 1.571550 0.000000 
#    z 0.000000 0.000000 1.558210 
# 
# From -- ./inp_files/13204.got.cif
#   From: 2010.05.17/outbox.ucp.g08.bks.cvg/sg71_7_cif.got.tgz:13204.got - 2010.06.11 16:29:00.
