data_PCOD9524913
_publ_section_title
;
Structure prediction by ZEFSAII (Michael W. Deem and Ramdas Pophale) SiO2 
 PCOD9524913
Probable space group: I M M M
;
_chemical_formula_sum "Si O2"
_cell_formula_units_Z 36
_cell_length_a 9.000000
_cell_length_b 27.000000
_cell_length_c 15.000000
_cell_angle_alpha 90.000000
_cell_angle_beta 90.000000
_cell_angle_gamma 90.000000
_cell_volume 3645.000000
_symmetry_space_group_name_H-M "I M M M"
_symmetry_group_IT_number 71
_symmetry_cell_setting 'orthorhombic'
loop_
_space_group_symop_operation_xyz
x,y,z
-x,-y,z
x,-y,-z
-x,y,-z
-x,-y,-z
x,y,-z
-x,y,z
x,-y,z
1/2+x,1/2+y,1/2+z
1/2-x,1/2-y,1/2+z
1/2+x,1/2-y,1/2-z
1/2-x,1/2+y,1/2-z
1/2-x,1/2-y,1/2-z
1/2+x,1/2+y,1/2-z
1/2-x,1/2+y,1/2+z
1/2+x,1/2-y,1/2+z
loop_
_atom_site_type_symbol
_atom_site_label
_atom_site_fract_x
_atom_site_fract_y
_atom_site_fract_z
Si Si1 0.164476 0.056891 0.606922
Si Si2 0.839776 0.215964 0.000000
Si Si3 0.829536 0.190301 0.500000
Si Si4 0.830136 0.643457 0.830363
Si Si5 0.318369 0.557352 0.500000
Si Si6 0.830570 0.866622 0.851081
O O1 0.174858 0.059776 0.500000
O O2 0.298751 0.086023 0.649149
O O3 0.000000 0.076874 0.631145
O O4 0.167402 0.000000 0.632985
O O5 0.836798 0.179961 0.083654
O O6 0.701912 0.251795 0.000000
O O7 0.000000 0.243432 0.000000
O O8 0.755074 0.169965 0.589479
O O9 0.000000 0.176956 0.500000
O O10 0.761676 0.649764 0.733648
O O11 0.000000 0.657485 0.832885
O O12 0.274505 0.500000 0.500000
O O13 0.500000 0.559840 0.500000
O O14 0.271619 0.587763 0.588455
O O15 0.000000 0.879072 0.824655
#
# Coordination Sequence:
#
# PCOD9524913 Si02
#       6
#    16   8   8  16   8  16
#     4   9  18  34  56  79 107 148 193 232 274 329
#     4   9  20  41  64  86 112 145 192 245 296 345
#     4  12  25  41  62  83 110 149 194 242 294 352
#     4  12  24  37  56  86 121 154 191 237 289 345
#     4   8  15  32  61  93 119 150 195 238 274 323
#     4   9  19  37  61  87 118 154 191 236 287 341
#
# _framework density 9.8765429999999999
#
# number of rings (size 3 to 8) (size 9 to 14) (size 15 to 20)
#    0.000    2.111    1.111    5.000    0.000    3.111 
#    0.000    5.000    0.000    0.667    0.000    0.000 
#    0.000    0.000    0.000    0.000    0.000    0.000 
#
# Total GULP energy -200635.621248 kJ/mol
# GULP energy per Si atom -5573.211701 kJ/mol
# Density = 0.985406 g / cm^3
# Si number density = 9.876543 Si / 1000 Ang^3
#
#
#
# Elastic Constant Matrix: (Units=GPa)
#
#
# Indices 1 2 3 4 5 6 
#
# 1 100.5008 28.8220 75.7313 0.0000 0.0000 0.0000
# 2 28.8220 61.6836 47.0606 0.0000 0.0000 0.0000
# 3 75.7313 47.0606 148.2383 0.0000 -0.0008 0.0000
# 4 0.0000 0.0000 0.0000 -8.9718 0.0003 0.0000
# 5 0.0000 0.0000 -0.0008 0.0003 1054.0774 0.0000
# 6 0.0000 0.0000 0.0000 0.0000 0.0000 20.5104
#
#
#
# Elastic Compliance Matrix: (Units=1/GPa)
#
#
# Indices 1 2 3 4 5 6 
#
# 1 0.016307 -0.001668 -0.007802 0.000000 0.000000 0.000000
# 2 -0.001668 0.021564 -0.005994 0.000000 0.000000 0.000000
# 3 -0.007802 -0.005994 0.012634 0.000000 0.000000 0.000000
# 4 0.000000 0.000000 0.000000 -0.111461 0.000000 0.000000
# 5 0.000000 0.000000 0.000000 0.000000 0.000949 0.000000
# 6 0.000000 0.000000 0.000000 0.000000 0.000000 0.048756
#
#
# Mechanical properties :
#
#
# Convention : Reuss Voigt Hill
#
# Bulk Modulus (GPa) = 51.07389 68.18338 59.62864
# Shear Modulus (GPa) = 190.82849 223.71047 207.26948
#
# Velocity S-wave (km/s) = 9.83955 10.65360 10.25466
# Velocity P-wave (km/s) = 12.44995 13.63544 13.05615
#
# Compressibility (1/GPa) = 0.01957948
#
# Stress axis : x y z
#
# Youngs Moduli (GPa) = 61.32273 46.37385 79.14923
#
# Poissons Ratio (x) = 0.07733 0.61749
# Poissons Ratio (y) = 0.10226 0.47441
# Poissons Ratio (z) = 0.47841 0.27796
#
# Static dielectric constant tensor:
#      x y z
#    x 1.791040 0.000000 0.000000 
#    y 0.000000 1.736150 0.000000 
#    z 0.000000 0.000000 1.666830 
# 
# From -- ./inp_files/31465.got.cif
#   From: 2010.05.17/outbox.ucp.g08.bks.cvg/sg71_16_cif.got.tgz:31465.got - 2010.06.11 16:29:00.
