data_PCOD9524343
_publ_section_title
;
Structure prediction by ZEFSAII (Michael W. Deem and Ramdas Pophale) SiO2 
 PCOD9524343
Probable space group: I M M M
;
_chemical_formula_sum "Si O2"
_cell_formula_units_Z 52
_cell_length_a 26.210026
_cell_length_b 7.670907
_cell_length_c 12.607283
_cell_angle_alpha 90.000000
_cell_angle_beta 90.000000
_cell_angle_gamma 90.000000
_cell_volume 2534.753147
_symmetry_space_group_name_H-M "I M M M"
_symmetry_group_IT_number 71
_symmetry_cell_setting 'orthorhombic'
loop_
_space_group_symop_operation_xyz
x,y,z
-x,-y,z
x,-y,-z
-x,y,-z
-x,-y,-z
x,y,-z
-x,y,z
x,-y,z
1/2+x,1/2+y,1/2+z
1/2-x,1/2-y,1/2+z
1/2+x,1/2-y,1/2-z
1/2-x,1/2+y,1/2-z
1/2-x,1/2-y,1/2-z
1/2+x,1/2+y,1/2-z
1/2-x,1/2+y,1/2+z
1/2+x,1/2-y,1/2+z
loop_
_atom_site_type_symbol
_atom_site_label
_atom_site_fract_x
_atom_site_fract_y
_atom_site_fract_z
Si Si1 0.000000 0.712778 0.624201
Si Si2 0.697157 0.000000 0.000000
Si Si3 0.297492 0.302931 0.177049
Si Si4 0.058599 0.209414 0.000000
Si Si5 0.096678 0.294449 0.232908
O O1 0.050193 0.767361 0.690727
O O2 0.000000 0.500000 0.623639
O O3 0.000000 0.767527 0.500000
O O4 0.697414 0.846148 0.090340
O O5 0.289661 0.500000 0.136564
O O6 0.250000 0.250000 0.250000
O O7 0.350546 0.298210 0.241372
O O8 0.082985 0.271418 0.109712
O O9 0.000000 0.268551 0.000000
O O10 0.059904 0.000000 0.000000
O O11 0.102764 0.500000 0.254502
#
# Coordination Sequence:
#
# PCOD9524343 Si02
#       5
#     8   4  16   8  16
#     4   9  20  35  63  98 138 183 231 288 355 427
#     4  12  26  50  80 105 152 191 242 302 370 424
#     4  12  26  49  76 110 147 191 243 300 366 437
#     4  11  23  40  63  97 143 190 244 304 361 431
#     4  11  22  41  70 101 141 185 242 298 359 434
#
# _framework density 20.514818999999999
#
# number of rings (size 3 to 8) (size 9 to 14) (size 15 to 20)
#    0.000    0.923    4.615    1.846    2.154    1.846 
#    2.769    3.077    0.000    3.692    0.000    0.000 
#    0.000    0.000    0.000    0.000    0.000    0.000 
#
# Total GULP energy -144795.788800 kJ/mol
# GULP energy per Si atom -5569.068800 kJ/mol
# Density = 2.046813 g / cm^3
# Si number density = 20.514819 Si / 1000 Ang^3
#
#
#
# Elastic Constant Matrix: (Units=GPa)
#
#
# Indices 1 2 3 4 5 6 
#
# 1 156.4882 31.5331 82.0233 0.0000 0.0000 0.0000
# 2 31.5331 154.7410 39.8073 0.0000 0.0000 0.0000
# 3 82.0233 39.8073 182.5344 0.0000 0.0000 0.0000
# 4 0.0000 0.0000 0.0000 39.0141 0.0000 0.0000
# 5 0.0000 0.0000 0.0000 0.0000 -64.0685 0.0000
# 6 0.0000 0.0000 0.0000 0.0000 0.0000 12.5872
#
#
#
# Elastic Compliance Matrix: (Units=1/GPa)
#
#
# Indices 1 2 3 4 5 6 
#
# 1 0.008449 -0.000789 -0.003625 0.000000 0.000000 0.000000
# 2 -0.000789 0.006920 -0.001154 0.000000 0.000000 0.000000
# 3 -0.003625 -0.001154 0.007359 0.000000 0.000000 0.000000
# 4 0.000000 0.000000 0.000000 0.025632 0.000000 0.000000
# 5 0.000000 0.000000 0.000000 0.000000 -0.015608 0.000000
# 6 0.000000 0.000000 0.000000 0.000000 0.000000 0.079446
#
#
# Mechanical properties :
#
#
# Convention : Reuss Voigt Hill
#
# Bulk Modulus (GPa) = 86.26968 88.94343 87.60656
# Shear Modulus (GPa) = 39.30869 20.19988 29.75428
#
# Velocity S-wave (km/s) = 4.38209 3.14131 3.81252
# Velocity P-wave (km/s) = 8.23087 7.52376 7.88525
#
# Compressibility (1/GPa) = 0.01159156
#
# Stress axis : x y z
#
# Youngs Moduli (GPa) = 118.35561 144.50335 135.88983
#
# Poissons Ratio (x) = 0.11406 0.49254
# Poissons Ratio (y) = 0.09342 0.15688
# Poissons Ratio (z) = 0.42898 0.16683
#
# Static dielectric constant tensor:
#      x y z
#    x 1.712390 0.000000 0.000000 
#    y 0.000000 1.749290 0.000000 
#    z 0.000000 0.000000 1.547730 
# 
# From -- ./inp_files/28183.got.cif
#   From: 2010.05.17/outbox.cif.g08.bks.cpg/sg71_15_cif.got.tgz:28183.got - 2010.06.03 16:22:01.
