data_PCOD9524618
_publ_section_title
;
Structure prediction by ZEFSAII (Michael W. Deem and Ramdas Pophale) SiO2 
 PCOD9524618
Probable space group: I M M M
;
_chemical_formula_sum "Si O2"
_cell_formula_units_Z 104
_cell_length_a 31.206377
_cell_length_b 23.374239
_cell_length_c 7.752935
_cell_angle_alpha 90.000000
_cell_angle_beta 90.000000
_cell_angle_gamma 90.000000
_cell_volume 5655.187049
_symmetry_space_group_name_H-M "I M M M"
_symmetry_group_IT_number 71
_symmetry_cell_setting 'orthorhombic'
loop_
_space_group_symop_operation_xyz
x,y,z
-x,-y,z
x,-y,-z
-x,y,-z
-x,-y,-z
x,y,-z
-x,y,z
x,-y,z
1/2+x,1/2+y,1/2+z
1/2-x,1/2-y,1/2+z
1/2+x,1/2-y,1/2-z
1/2-x,1/2+y,1/2-z
1/2-x,1/2-y,1/2-z
1/2+x,1/2+y,1/2-z
1/2-x,1/2+y,1/2+z
1/2+x,1/2-y,1/2+z
loop_
_atom_site_type_symbol
_atom_site_label
_atom_site_fract_x
_atom_site_fract_y
_atom_site_fract_z
Si Si1 0.451143 0.218732 0.292146
Si Si2 0.379173 0.565356 0.794028
Si Si3 0.286029 0.565216 0.294945
Si Si4 0.103295 0.388518 0.788710
Si Si5 0.548595 0.348853 0.792681
Si Si6 0.049250 0.500000 0.210515
Si Si7 0.693218 0.065799 0.706529
O O1 0.452217 0.215092 0.500000
O O2 0.500000 0.208746 0.229992
O O3 0.418964 0.169864 0.229509
O O4 0.439058 0.283435 0.245758
O O5 0.380978 0.500000 0.725073
O O6 0.331522 0.589895 0.762447
O O7 0.416661 0.606027 0.725623
O O8 0.384469 0.561702 0.000000
O O9 0.287152 0.562301 0.500000
O O10 0.285328 0.500000 0.222408
O O11 0.240142 0.590799 0.245568
O O12 0.074712 0.443149 0.736875
O O13 0.152018 0.399345 0.730952
O O14 0.103414 0.387634 0.000000
O O15 0.500000 0.357991 0.726951
O O16 0.547077 0.354700 0.000000
O O17 0.000000 0.500000 0.268040
O O18 0.048841 0.500000 0.000000
O O19 0.689588 0.062325 0.500000
O O20 0.691309 0.000000 0.773499
#
# Coordination Sequence:
#
# PCOD9524618 Si02
#       7
#    16  16  16  16  16   8  16
#     4   9  17  29  45  65  90 122 158 190 221 262
#     4   9  17  30  49  72  94 116 144 178 220 266
#     4   9  17  28  43  65  93 121 147 178 220 271
#     4   9  15  24  39  63  91 119 153 193 232 267
#     4   9  18  32  49  69  93 120 149 180 215 261
#     4   9  14  20  34  60  93 121 147 189 240 275
#     4   9  15  25  42  63  89 119 152 189 229 270
#
# _framework density 18.390194999999999
#
# number of rings (size 3 to 8) (size 9 to 14) (size 15 to 20)
#    0.000    3.000    0.769    0.923    0.000    4.615 
#    0.000    2.308    0.000    0.923    0.000    4.308 
#    0.000    3.692    0.000    0.000    0.000    0.000 
#
# Total GULP energy -289726.053840 kJ/mol
# GULP energy per Si atom -5571.654882 kJ/mol
# Density = 1.834834 g / cm^3
# Si number density = 18.390195 Si / 1000 Ang^3
#
#
#
# Elastic Constant Matrix: (Units=GPa)
#
#
# Indices 1 2 3 4 5 6 
#
# 1 185.1949 103.3892 5.7183 0.0000 0.0000 0.0000
# 2 103.3892 97.0360 4.8145 0.0000 0.0000 0.0000
# 3 5.7183 4.8145 26.0212 0.0000 0.0000 0.0000
# 4 0.0000 0.0000 0.0000 8.8421 0.0000 0.0000
# 5 0.0000 0.0000 0.0000 0.0000 -0.3310 0.0000
# 6 0.0000 0.0000 0.0000 0.0000 0.0000 17.0325
#
#
#
# Elastic Compliance Matrix: (Units=1/GPa)
#
#
# Indices 1 2 3 4 5 6 
#
# 1 0.013329 -0.014187 -0.000304 0.000000 0.000000 0.000000
# 2 -0.014187 0.025501 -0.001601 0.000000 0.000000 0.000000
# 3 -0.000304 -0.001601 0.038793 0.000000 0.000000 0.000000
# 4 0.000000 0.000000 0.000000 0.113095 0.000000 0.000000
# 5 0.000000 0.000000 0.000000 0.000000 -3.020741 0.000000
# 6 0.000000 0.000000 0.000000 0.000000 0.000000 0.058711
#
#
# Mechanical properties :
#
#
# Convention : Reuss Voigt Hill
#
# Bulk Modulus (GPa) = 22.00719 59.56622 40.78670
# Shear Modulus (GPa) = -1.83555 18.06406 8.11425
#
# Velocity S-wave (km/s) = -1.00014 3.13751 2.10282
# Velocity P-wave (km/s) = 3.26482 6.75173 5.30306
#
# Compressibility (1/GPa) = 0.04543970
#
# Stress axis : x y z
#
# Youngs Moduli (GPa) = 75.02315 39.21490 25.77769
#
# Poissons Ratio (x) = 0.55633 0.00784
# Poissons Ratio (y) = 1.06434 0.04126
# Poissons Ratio (z) = 0.02283 0.06276
#
# Static dielectric constant tensor:
#      x y z
#    x 1.661310 0.000000 0.000000 
#    y 0.000000 1.609950 0.000000 
#    z 0.000000 0.000000 1.680490 
# 
# From -- ./inp_files/17260.got.cif
#   From: 2010.05.17/outbox.cif.g08.bks.cpg/sg71_9_cif.got.tgz:17260.got - 2010.06.03 16:22:01.
