data_PCOD9524314
_publ_section_title
;
Structure prediction by ZEFSAII (Michael W. Deem and Ramdas Pophale) SiO2 
 PCOD9524314
Probable space group: I M M M
;
_chemical_formula_sum "Si O2"
_cell_formula_units_Z 80
_cell_length_a 7.546965
_cell_length_b 15.814168
_cell_length_c 31.125746
_cell_angle_alpha 90.000000
_cell_angle_beta 90.000000
_cell_angle_gamma 90.000000
_cell_volume 3714.825800
_symmetry_space_group_name_H-M "I M M M"
_symmetry_group_IT_number 71
_symmetry_cell_setting 'orthorhombic'
loop_
_space_group_symop_operation_xyz
x,y,z
-x,-y,z
x,-y,-z
-x,y,-z
-x,-y,-z
x,y,-z
-x,y,z
x,-y,z
1/2+x,1/2+y,1/2+z
1/2-x,1/2-y,1/2+z
1/2+x,1/2-y,1/2-z
1/2-x,1/2+y,1/2-z
1/2-x,1/2-y,1/2-z
1/2+x,1/2+y,1/2-z
1/2-x,1/2+y,1/2+z
1/2+x,1/2-y,1/2+z
loop_
_atom_site_type_symbol
_atom_site_label
_atom_site_fract_x
_atom_site_fract_y
_atom_site_fract_z
Si Si1 0.000000 0.406428 0.293381
Si Si2 0.500000 0.895848 0.887216
Si Si3 0.712339 0.397625 0.046163
Si Si4 0.202889 0.103158 0.952124
Si Si5 0.284488 0.401044 0.139147
Si Si6 0.290684 0.342335 0.767918
O O1 0.000000 0.357862 0.338948
O O2 0.170670 0.396463 0.263766
O O3 0.000000 0.500000 0.309725
O O4 0.670696 0.867404 0.914217
O O5 0.500000 0.000000 0.890643
O O6 0.500000 0.383166 0.045610
O O7 0.735895 0.500000 0.046727
O O8 0.779452 0.368035 0.092717
O O9 0.783044 0.366575 0.000000
O O10 0.000000 0.129825 0.946517
O O11 0.203442 0.000000 0.951854
O O12 0.264294 0.128537 0.000000
O O13 0.500000 0.399541 0.137653
O O14 0.233392 0.500000 0.143694
O O15 0.232968 0.353845 0.182700
O O16 0.500000 0.360950 0.765130
O O17 0.250000 0.250000 0.750000
#
# Coordination Sequence:
#
# PCOD9524314 Si02
#       6
#     8   8  16  16  16  16
#     4  11  24  39  58  87 114 145 192 242 296 355
#     4   9  17  28  43  68 104 136 169 220 279 332
#     4   7   9  15  31  61 101 135 163 205 263 328
#     4   8  13  22  39  65  99 138 174 209 263 336
#     4   8  14  25  45  74 105 140 181 225 277 333
#     4  11  22  39  59  79 110 150 194 244 293 347
#
# _framework density 21.535329999999998
#
# number of rings (size 3 to 8) (size 9 to 14) (size 15 to 20)
#    0.000    3.200    1.000    3.300    0.000    3.200 
#    0.000    2.000    0.000    0.000    0.000    3.500 
#    0.000    7.200    0.000    0.400    0.000    0.200 
#
# Total GULP energy -222830.053260 kJ/mol
# GULP energy per Si atom -5570.751332 kJ/mol
# Density = 2.148631 g / cm^3
# Si number density = 21.535330 Si / 1000 Ang^3
#
#
#
# Elastic Constant Matrix: (Units=GPa)
#
#
# Indices 1 2 3 4 5 6 
#
# 1 94.0011 -4.0345 67.5155 0.0000 0.0000 0.0000
# 2 -4.0345 17.6487 21.8491 0.0000 0.0000 0.0000
# 3 67.5155 21.8491 274.6891 0.0000 0.0000 0.0000
# 4 0.0000 0.0000 0.0000 -17.6026 0.0000 0.0000
# 5 0.0000 0.0000 0.0000 0.0000 14.8580 0.0000
# 6 0.0000 0.0000 0.0000 0.0000 0.0000 1.6198
#
#
#
# Elastic Compliance Matrix: (Units=1/GPa)
#
#
# Indices 1 2 3 4 5 6 
#
# 1 0.013918 0.008227 -0.004075 0.000000 0.000000 0.000000
# 2 0.008227 0.067713 -0.007408 0.000000 0.000000 0.000000
# 3 -0.004075 -0.007408 0.005231 0.000000 0.000000 0.000000
# 4 0.000000 0.000000 0.000000 -0.056810 0.000000 0.000000
# 5 0.000000 0.000000 0.000000 0.000000 0.067304 0.000000
# 6 0.000000 0.000000 0.000000 0.000000 0.000000 0.617363
#
#
# Mechanical properties :
#
#
# Convention : Reuss Voigt Hill
#
# Bulk Modulus (GPa) = 12.44552 61.88879 37.16716
# Shear Modulus (GPa) = 6.68434 19.84229 13.26332
#
# Velocity S-wave (km/s) = 1.76370 3.03872 2.48440
# Velocity P-wave (km/s) = 3.15265 6.41190 5.05231
#
# Compressibility (1/GPa) = 0.08035020
#
# Stress axis : x y z
#
# Youngs Moduli (GPa) = 71.84754 14.76814 191.15324
#
# Poissons Ratio (x) = -0.12150 0.77902
# Poissons Ratio (y) = -0.59109 1.41608
# Poissons Ratio (z) = 0.29280 0.10940
#
# Static dielectric constant tensor:
#      x y z
#    x 1.794300 0.000000 0.000000 
#    y 0.000000 1.044450 0.000000 
#    z 0.000000 0.000000 1.672620 
# 
# From -- ./inp_files/67963.got.cif
#   From: 2010.05.17/outbox.cif.g08.bks.cpg/sg71_34_cif.got.tgz:67963.got - 2010.06.03 16:22:01.
