data_PCOD9524416
_publ_section_title
;
Structure prediction by ZEFSAII (Michael W. Deem and Ramdas Pophale) SiO2 
 PCOD9524416
Probable space group: I M M M
;
_chemical_formula_sum "Si O2"
_cell_formula_units_Z 104
_cell_length_a 22.130155
_cell_length_b 7.507915
_cell_length_c 31.826007
_cell_angle_alpha 90.000000
_cell_angle_beta 90.000000
_cell_angle_gamma 90.000000
_cell_volume 5287.933159
_symmetry_space_group_name_H-M "I M M M"
_symmetry_group_IT_number 71
_symmetry_cell_setting 'orthorhombic'
loop_
_space_group_symop_operation_xyz
x,y,z
-x,-y,z
x,-y,-z
-x,y,-z
-x,-y,-z
x,y,-z
-x,y,z
x,-y,z
1/2+x,1/2+y,1/2+z
1/2-x,1/2-y,1/2+z
1/2+x,1/2-y,1/2-z
1/2-x,1/2+y,1/2-z
1/2-x,1/2-y,1/2-z
1/2+x,1/2+y,1/2-z
1/2-x,1/2+y,1/2+z
1/2+x,1/2-y,1/2+z
loop_
_atom_site_type_symbol
_atom_site_label
_atom_site_fract_x
_atom_site_fract_y
_atom_site_fract_z
Si Si1 0.067543 0.708978 0.790593
Si Si2 0.182873 0.781230 0.640048
Si Si3 0.709408 0.283100 0.954336
Si Si4 0.158145 0.300525 0.069237
Si Si5 0.066793 0.784438 0.307725
Si Si6 0.565990 0.500000 0.549981
Si Si7 0.311295 0.797190 0.332303
O O1 0.066602 0.500000 0.802890
O O2 0.072762 0.722977 0.740326
O O3 0.129775 0.785491 0.809947
O O4 0.000000 0.729451 0.677140
O O5 0.183282 0.725286 0.590894
O O6 0.122356 0.725292 0.663709
O O7 0.243281 0.720135 0.665136
O O8 0.185930 0.000000 0.639786
O O9 0.706932 0.500000 0.953827
O O10 0.780216 0.234676 0.952088
O O11 0.684651 0.225097 0.000000
O O12 0.145736 0.500000 0.054190
O O13 0.103175 0.172226 0.062360
O O14 0.172076 0.307242 0.118631
O O15 0.000000 0.781109 0.198250
O O16 0.068119 0.000000 0.307085
O O17 0.500000 0.500000 0.569364
O O18 0.561682 0.500000 0.500000
O O19 0.305242 0.000000 0.315330
#
# Coordination Sequence:
#
# PCOD9524416 Si02
#       7
#    16  16  16  16  16   8  16
#     4   9  17  29  45  64  87 117 154 195 234 276
#     4   8  14  25  43  66  92 120 150 191 235 279
#     4   8  13  24  47  73  89 112 153 193 235 285
#     4   9  18  34  53  70  93 126 161 202 250 300
#     4   9  17  29  44  63  90 125 158 183 223 287
#     4  11  24  36  46  68  98 128 167 207 245 295
#     4   8  15  29  49  70  90 115 153 197 241 284
#
# _framework density 19.667418999999999
#
# number of rings (size 3 to 8) (size 9 to 14) (size 15 to 20)
#    0.000    3.308    0.000    2.308    0.000    2.462 
#    1.385    2.308    6.769    0.462    0.000    3.231 
#    0.000    0.000    0.000    3.846    0.000    4.000 
#
# Total GULP energy -289585.291301 kJ/mol
# GULP energy per Si atom -5568.947910 kJ/mol
# Density = 1.962266 g / cm^3
# Si number density = 19.667419 Si / 1000 Ang^3
#
#
#
# Elastic Constant Matrix: (Units=GPa)
#
#
# Indices 1 2 3 4 5 6 
#
# 1 164.2942 14.9522 72.8837 0.0000 0.0000 0.0000
# 2 14.9522 50.3932 -4.2539 0.0000 0.0000 0.0000
# 3 72.8837 -4.2539 72.7001 0.0000 0.0000 0.0000
# 4 0.0000 0.0000 0.0000 10.3764 0.0000 0.0000
# 5 0.0000 0.0000 0.0000 0.0000 5.8554 0.0000
# 6 0.0000 0.0000 0.0000 0.0000 0.0000 10.3768
#
#
#
# Elastic Compliance Matrix: (Units=1/GPa)
#
#
# Indices 1 2 3 4 5 6 
#
# 1 0.011924 -0.004570 -0.012222 0.000000 0.000000 0.000000
# 2 -0.004570 0.021694 0.005851 0.000000 0.000000 0.000000
# 3 -0.012222 0.005851 0.026350 0.000000 0.000000 0.000000
# 4 0.000000 0.000000 0.000000 0.096372 0.000000 0.000000
# 5 0.000000 0.000000 0.000000 0.000000 0.170782 0.000000
# 6 0.000000 0.000000 0.000000 0.000000 0.000000 0.096369
#
#
# Mechanical properties :
#
#
# Convention : Reuss Voigt Hill
#
# Bulk Modulus (GPa) = 26.25608 50.50572 38.38090
# Shear Modulus (GPa) = 10.91539 18.90876 14.91208
#
# Velocity S-wave (km/s) = 2.35840 3.10405 2.75655
# Velocity P-wave (km/s) = 4.56016 6.21148 5.44874
#
# Compressibility (1/GPa) = 0.03808642
#
# Stress axis : x y z
#
# Youngs Moduli (GPa) = 83.86189 46.09622 37.95034
#
# Poissons Ratio (x) = 0.21065 0.46382
# Poissons Ratio (y) = 0.38323 -0.22204
# Poissons Ratio (z) = 1.02495 -0.26970
#
# Static dielectric constant tensor:
#      x y z
#    x 1.714420 0.000000 0.000000 
#    y 0.000000 1.722900 0.000000 
#    z 0.000000 0.000000 1.680520 
# 
# From -- ./inp_files/70718.got.cif
#   From: 2010.05.17/outbox.cif.g08.bks.cpg/sg71_36_cif.got.tgz:70718.got - 2010.06.03 16:22:01.
