data_PCOD9524937
_publ_section_title
;
Structure prediction by ZEFSAII (Michael W. Deem and Ramdas Pophale) SiO2 
 PCOD9524937
Probable space group: I B A M
;
_chemical_formula_sum "Si O2"
_cell_formula_units_Z 64
_cell_length_a 33.286935
_cell_length_b 15.839932
_cell_length_c 5.483544
_cell_angle_alpha 90.000000
_cell_angle_beta 90.000000
_cell_angle_gamma 90.000000
_cell_volume 2891.268691
_symmetry_space_group_name_H-M "I B A M"
_symmetry_group_IT_number 72
_symmetry_cell_setting 'orthorhombic'
loop_
_space_group_symop_operation_xyz
x,y,z
-x,-y,z
x,-y,1/2-z
-x,y,1/2-z
-x,-y,-z
x,y,-z
-x,y,1/2+z
x,-y,1/2+z
1/2+x,1/2+y,1/2+z
1/2-x,1/2-y,1/2+z
1/2+x,1/2-y,-z
1/2-x,1/2+y,-z
1/2-x,1/2-y,1/2-z
1/2+x,1/2+y,1/2-z
1/2-x,1/2+y,z
1/2+x,1/2-y,z
loop_
_atom_site_type_symbol
_atom_site_label
_atom_site_fract_x
_atom_site_fract_y
_atom_site_fract_z
Si Si1 0.642767 0.331102 0.500000
Si Si2 0.517247 0.323291 0.000000
Si Si3 0.482687 0.872088 0.000000
Si Si4 0.087516 0.995947 0.000000
Si Si5 0.386353 0.322217 0.500000
Si Si6 0.279727 0.444046 0.000000
Si Si7 0.897405 0.444516 0.500000
Si Si8 0.809218 0.445435 0.500000
O O1 0.611006 0.408552 0.500000
O O2 0.632655 0.286115 0.753606
O O3 0.686373 0.372665 0.500000
O O4 0.500000 0.359902 0.750000
O O5 0.565452 0.319866 0.000000
O O6 0.503655 0.225270 0.000000
O O7 0.500000 0.908974 0.250000
O O8 0.434797 0.881450 0.000000
O O9 0.064173 0.000000 0.750000
O O10 0.119479 0.074117 0.000000
O O11 0.283872 0.500000 0.250000
O O12 0.234825 0.404020 0.000000
O O13 0.900575 0.500000 0.250000
O O14 0.853054 0.403300 0.500000
O O15 0.809162 0.500000 0.750000
#
# Coordination Sequence:
#
# PCOD9524937 Si02
#       8
#     8   8   8   8   8   8   8   8
#     4  10  17  26  43  67  91 116 148 193 239 275
#     4  10  21  37  52  66  87 117 157 200 235 274
#     4  10  21  35  52  74  96 121 157 196 230 270
#     4   8  14  23  37  57  81 104 132 174 225 267
#     4  10  18  29  46  64  85 116 152 193 238 276
#     4  10  16  25  41  65  96 127 155 185 227 272
#     4  10  19  32  50  75 105 130 151 179 224 278
#     4   8  16  27  41  64  97 131 156 177 210 272
#
# _framework density 22.135611000000001
#
# number of rings (size 3 to 8) (size 9 to 14) (size 15 to 20)
#    0.000    2.500    0.000    4.500    0.000    1.500 
#    0.000    0.000    0.000   20.250    0.000    1.750 
#    0.000    0.000    0.000    0.000    0.000    0.000 
#
# Total GULP energy -178302.387311 kJ/mol
# GULP energy per Si atom -5571.949603 kJ/mol
# Density = 2.208523 g / cm^3
# Si number density = 22.135611 Si / 1000 Ang^3
#
#
#
# Elastic Constant Matrix: (Units=GPa)
#
#
# Indices 1 2 3 4 5 6 
#
# 1 163.5011 -7.2858 67.8406 0.0000 0.0002 0.0000
# 2 -7.2858 27.9083 6.5361 0.0000 0.0000 0.0000
# 3 67.8406 6.5361 259.1885 0.0001 0.0005 -0.0001
# 4 0.0000 0.0000 0.0001 -2.6461 -0.0004 0.0000
# 5 0.0002 0.0000 0.0005 -0.0004 5.0738 0.0000
# 6 0.0000 0.0000 -0.0001 0.0000 0.0000 -20.2551
#
#
#
# Elastic Compliance Matrix: (Units=1/GPa)
#
#
# Indices 1 2 3 4 5 6 
#
# 1 0.007001 0.002270 -0.001890 0.000000 0.000000 0.000000
# 2 0.002270 0.036781 -0.001522 0.000000 0.000000 0.000000
# 3 -0.001890 -0.001522 0.004391 0.000000 0.000000 0.000000
# 4 0.000000 0.000000 0.000000 -0.377918 -0.000033 0.000000
# 5 0.000000 0.000000 0.000000 -0.000033 0.197089 0.000000
# 6 0.000000 0.000000 0.000000 0.000000 0.000000 -0.049370
#
#
# Mechanical properties :
#
#
# Convention : Reuss Voigt Hill
#
# Bulk Modulus (GPa) = 21.79072 64.97552 43.38312
# Shear Modulus (GPa) = -30.40507 22.00166 -4.20170
#
# Velocity S-wave (km/s) = -3.71021 3.15612 -1.37923
# Velocity P-wave (km/s) = 2.91352 6.53441 4.13581
#
# Compressibility (1/GPa) = 0.04589109
#
# Stress axis : x y z
#
# Youngs Moduli (GPa) = 142.82690 27.18811 227.72697
#
# Poissons Ratio (x) = -0.06173 0.43037
# Poissons Ratio (y) = -0.32428 0.34655
# Poissons Ratio (z) = 0.26992 0.04137
#
# Static dielectric constant tensor:
#      x y z
#    x 1.782040 0.000000 0.000000 
#    y 0.000000 1.835040 0.000000 
#    z 0.000000 0.000000 2.051310 
# 
# From -- ./inp_files/1021.got.cif
#   From: 2010.05.17/outbox.cif.g08.bks.cpg/sg72_1_cif.got.tgz:1021.got - 2010.06.03 17:03:01.
