data_PCOD9524424
_publ_section_title
;
Structure prediction by ZEFSAII (Michael W. Deem and Ramdas Pophale) SiO2 
 PCOD9524424
Probable space group: I M M M
;
_chemical_formula_sum "Si O2"
_cell_formula_units_Z 72
_cell_length_a 7.521463
_cell_length_b 30.854998
_cell_length_c 14.170076
_cell_angle_alpha 90.000000
_cell_angle_beta 90.000000
_cell_angle_gamma 90.000000
_cell_volume 3288.516503
_symmetry_space_group_name_H-M "I M M M"
_symmetry_group_IT_number 71
_symmetry_cell_setting 'orthorhombic'
loop_
_space_group_symop_operation_xyz
x,y,z
-x,-y,z
x,-y,-z
-x,y,-z
-x,-y,-z
x,y,-z
-x,y,z
x,-y,z
1/2+x,1/2+y,1/2+z
1/2-x,1/2-y,1/2+z
1/2+x,1/2-y,1/2-z
1/2-x,1/2+y,1/2-z
1/2-x,1/2-y,1/2-z
1/2+x,1/2+y,1/2-z
1/2-x,1/2+y,1/2+z
1/2+x,1/2-y,1/2+z
loop_
_atom_site_type_symbol
_atom_site_label
_atom_site_fract_x
_atom_site_fract_y
_atom_site_fract_z
Si Si1 0.195703 0.798894 0.271696
Si Si2 0.784515 0.360014 0.610077
Si Si3 0.286781 0.953972 0.114142
Si Si4 0.000000 0.549729 0.114605
Si Si5 0.710027 0.380065 0.113348
O O1 0.250000 0.750000 0.250000
O O2 0.201903 0.822603 0.171355
O O3 0.282295 0.835676 0.338751
O O4 0.000000 0.794876 0.313316
O O5 0.742536 0.355984 0.500000
O O6 0.720691 0.407188 0.645571
O O7 0.000000 0.358279 0.618774
O O8 0.500000 0.953873 0.129534
O O9 0.215865 0.000000 0.150147
O O10 0.263186 0.953959 0.000000
O O11 0.171184 0.578490 0.142137
O O12 0.000000 0.500000 0.149421
O O13 0.000000 0.547509 0.000000
O O14 0.500000 0.385814 0.136231
O O15 0.724200 0.376013 0.000000
#
# Coordination Sequence:
#
# PCOD9524424 Si02
#       5
#    16  16  16   8  16
#     4  11  24  39  58  82 109 150 198 249 303 354
#     4   9  18  33  54  80 113 150 186 231 281 336
#     4   7  10  20  42  71 100 133 174 213 251 302
#     4   9  18  34  62  96 123 157 203 249 307 374
#     4   9  20  39  61  87 122 160 199 250 309 372
#
# _framework density 21.894372000000001
#
# number of rings (size 3 to 8) (size 9 to 14) (size 15 to 20)
#    0.000    3.000    0.000    2.667    3.111    1.778 
#    0.000    5.556    0.000    2.000    0.000    3.111 
#    0.000    0.000    0.000    0.000    0.000    0.000 
#
# Total GULP energy -200685.441774 kJ/mol
# GULP energy per Si atom -5574.595605 kJ/mol
# Density = 2.184454 g / cm^3
# Si number density = 21.894372 Si / 1000 Ang^3
#
#
#
# Elastic Constant Matrix: (Units=GPa)
#
#
# Indices 1 2 3 4 5 6 
#
# 1 82.3284 54.9308 15.7956 0.0000 0.0000 0.0000
# 2 54.9308 265.3757 43.6382 0.0000 0.0000 0.0000
# 3 15.7956 43.6382 69.1901 -0.0002 0.0000 0.0000
# 4 0.0000 0.0000 -0.0002 36.2485 0.0000 0.0000
# 5 0.0000 0.0000 0.0000 0.0000 13.8359 0.0000
# 6 0.0000 0.0000 0.0000 0.0000 0.0000 22.6580
#
#
#
# Elastic Compliance Matrix: (Units=1/GPa)
#
#
# Indices 1 2 3 4 5 6 
#
# 1 0.014241 -0.002692 -0.001553 0.000000 0.000000 0.000000
# 2 -0.002692 0.004713 -0.002358 0.000000 0.000000 0.000000
# 3 -0.001553 -0.002358 0.016295 0.000000 0.000000 0.000000
# 4 0.000000 0.000000 0.000000 0.027587 0.000000 0.000000
# 5 0.000000 0.000000 0.000000 0.000000 0.072276 0.000000
# 6 0.000000 0.000000 0.000000 0.000000 0.000000 0.044134
#
#
# Mechanical properties :
#
#
# Convention : Reuss Voigt Hill
#
# Bulk Modulus (GPa) = 45.36790 71.73594 58.55192
# Shear Modulus (GPa) = 25.02495 34.71712 29.87104
#
# Velocity S-wave (km/s) = 3.38447 3.98636 3.69768
# Velocity P-wave (km/s) = 6.00326 7.35009 6.71055
#
# Compressibility (1/GPa) = 0.02204202
#
# Stress axis : x y z
#
# Youngs Moduli (GPa) = 70.22059 212.16568 61.36969
#
# Poissons Ratio (x) = 0.57123 0.09531
# Poissons Ratio (y) = 0.18906 0.14471
# Poissons Ratio (z) = 0.10905 0.50029
#
# Static dielectric constant tensor:
#      x y z
#    x 1.764960 0.000000 0.000000 
#    y 0.000000 1.819450 0.000000 
#    z 0.000000 0.000000 1.826030 
# 
# From -- ./inp_files/31444.got.cif
#   From: 2010.05.17/outbox.cif.g08.bks.cpg/sg71_16_cif.got.tgz:31444.got - 2010.06.03 16:22:01.
