data_PCOD9524142
_publ_section_title
;
Structure prediction by ZEFSAII (Michael W. Deem and Ramdas Pophale) SiO2 
 PCOD9524142
Probable space group: I M M M
;
_chemical_formula_sum "Si O2"
_cell_formula_units_Z 96
_cell_length_a 16.616273
_cell_length_b 13.654032
_cell_length_c 25.568738
_cell_angle_alpha 90.000000
_cell_angle_beta 90.000000
_cell_angle_gamma 90.000000
_cell_volume 5801.012860
_symmetry_space_group_name_H-M "I M M M"
_symmetry_group_IT_number 71
_symmetry_cell_setting 'orthorhombic'
loop_
_space_group_symop_operation_xyz
x,y,z
-x,-y,z
x,-y,-z
-x,y,-z
-x,-y,-z
x,y,-z
-x,y,z
x,-y,z
1/2+x,1/2+y,1/2+z
1/2-x,1/2-y,1/2+z
1/2+x,1/2-y,1/2-z
1/2-x,1/2+y,1/2-z
1/2-x,1/2-y,1/2-z
1/2+x,1/2+y,1/2-z
1/2-x,1/2+y,1/2+z
1/2+x,1/2-y,1/2+z
loop_
_atom_site_type_symbol
_atom_site_label
_atom_site_fract_x
_atom_site_fract_y
_atom_site_fract_z
Si Si1 0.830728 0.197415 0.605915
Si Si2 0.596279 0.385897 0.000000
Si Si3 0.097183 0.110127 0.711790
Si Si4 0.500000 0.118669 0.559844
Si Si5 0.596187 0.808208 0.265563
Si Si6 0.841893 0.617546 0.125337
Si Si7 0.095378 0.387119 0.349821
O O1 0.870371 0.163694 0.552171
O O2 0.867880 0.137607 0.655138
O O3 0.736905 0.172399 0.605353
O O4 0.852444 0.309725 0.618171
O O5 0.620394 0.500000 0.000000
O O6 0.500000 0.380562 0.000000
O O7 0.120378 0.196279 0.751939
O O8 0.000000 0.113618 0.707912
O O9 0.121356 0.000000 0.726620
O O10 0.500000 0.153740 0.500000
O O11 0.419983 0.146344 0.591441
O O12 0.500000 0.000000 0.558476
O O13 0.500000 0.811247 0.276148
O O14 0.641591 0.852807 0.314703
O O15 0.609772 0.867390 0.211842
O O16 0.830967 0.500000 0.121679
O O17 0.110667 0.500000 0.362370
O O18 0.000000 0.366218 0.358493
#
# Coordination Sequence:
#
# PCOD9524142 Si02
#       7
#    16   8  16   8  16  16  16
#     4  11  22  34  50  78 107 135 174 219 262 311
#     4  11  22  36  55  76 104 140 174 206 251 315
#     4   9  17  31  50  73 107 143 171 207 261 318
#     4   9  20  36  54  74 101 141 179 214 266 317
#     4   9  17  31  51  75 102 138 182 216 253 315
#     4  11  21  33  52  77 107 138 174 220 266 315
#     4   9  18  34  56  78 106 142 177 211 256 311
#
# _framework density 16.548833999999999
#
# number of rings (size 3 to 8) (size 9 to 14) (size 15 to 20)
#    0.000    2.167    0.833    4.500    1.167    4.667 
#    0.000    2.917    0.000    1.500    0.000    0.000 
#    0.000    2.667    0.000    0.000    0.000    0.000 
#
# Total GULP energy -267879.238899 kJ/mol
# GULP energy per Si atom -5580.817477 kJ/mol
# Density = 1.651117 g / cm^3
# Si number density = 16.548834 Si / 1000 Ang^3
#
#
#
# Elastic Constant Matrix: (Units=GPa)
#
#
# Indices 1 2 3 4 5 6 
#
# 1 78.5504 57.7599 50.2347 0.0000 0.0000 0.0000
# 2 57.7599 114.5098 40.3290 0.0000 0.0000 0.0000
# 3 50.2347 40.3290 88.3261 0.0000 0.0000 0.0000
# 4 0.0000 0.0000 0.0000 14.2434 0.0000 0.0000
# 5 0.0000 0.0000 0.0000 0.0000 9.9856 0.0000
# 6 0.0000 0.0000 0.0000 0.0000 0.0000 20.8075
#
#
#
# Elastic Compliance Matrix: (Units=1/GPa)
#
#
# Indices 1 2 3 4 5 6 
#
# 1 0.026766 -0.009699 -0.010794 0.000000 0.000000 0.000000
# 2 -0.009699 0.013921 -0.000840 0.000000 0.000000 0.000000
# 3 -0.010794 -0.000840 0.017844 0.000000 0.000000 0.000000
# 4 0.000000 0.000000 0.000000 0.070208 0.000000 0.000000
# 5 0.000000 0.000000 0.000000 0.000000 0.100144 0.000000
# 6 0.000000 0.000000 0.000000 0.000000 0.000000 0.048060
#
#
# Mechanical properties :
#
#
# Convention : Reuss Voigt Hill
#
# Bulk Modulus (GPa) = 63.03409 64.22594 63.63002
# Shear Modulus (GPa) = 15.38943 17.87815 16.63379
#
# Velocity S-wave (km/s) = 3.05280 3.29040 3.17382
# Velocity P-wave (km/s) = 7.11327 7.30273 7.20862
#
# Compressibility (1/GPa) = 0.01586443
#
# Stress axis : x y z
#
# Youngs Moduli (GPa) = 37.36071 71.83311 56.04042
#
# Poissons Ratio (x) = 0.69674 0.60491
# Poissons Ratio (y) = 0.36238 0.04706
# Poissons Ratio (z) = 0.40328 0.06033
#
# Static dielectric constant tensor:
#      x y z
#    x 1.564660 0.000000 0.000000 
#    y 0.000000 1.560840 0.000000 
#    z 0.000000 0.000000 1.525160 
# 
# From -- ./inp_files/65470.got.cif
#   From: 2010.05.17/outbox.cif.g08.bks.cpg/sg71_33_cif.got.tgz:65470.got - 2010.06.03 16:22:01.
