data_PCOD9524038
_publ_section_title
;
Structure prediction by ZEFSAII (Michael W. Deem and Ramdas Pophale) SiO2 
 PCOD9524038
Probable space group: I M M M
;
_chemical_formula_sum "Si O2"
_cell_formula_units_Z 104
_cell_length_a 31.257921
_cell_length_b 23.336024
_cell_length_c 8.152091
_cell_angle_alpha 90.000000
_cell_angle_beta 90.000000
_cell_angle_gamma 90.000000
_cell_volume 5946.425346
_symmetry_space_group_name_H-M "I M M M"
_symmetry_group_IT_number 71
_symmetry_cell_setting 'orthorhombic'
loop_
_space_group_symop_operation_xyz
x,y,z
-x,-y,z
x,-y,-z
-x,y,-z
-x,-y,-z
x,y,-z
-x,y,z
x,-y,z
1/2+x,1/2+y,1/2+z
1/2-x,1/2-y,1/2+z
1/2+x,1/2-y,1/2-z
1/2-x,1/2+y,1/2-z
1/2-x,1/2-y,1/2-z
1/2+x,1/2+y,1/2-z
1/2-x,1/2+y,1/2+z
1/2+x,1/2-y,1/2+z
loop_
_atom_site_type_symbol
_atom_site_label
_atom_site_fract_x
_atom_site_fract_y
_atom_site_fract_z
Si Si1 0.451390 0.216830 0.197898
Si Si2 0.378507 0.565593 0.698171
Si Si3 0.285363 0.569731 0.310151
Si Si4 0.103553 0.389820 0.804894
Si Si5 0.548538 0.347336 0.802015
Si Si6 0.950526 0.500000 0.799276
Si Si7 0.692668 0.065781 0.802144
O O1 0.500000 0.202718 0.252091
O O2 0.418552 0.169387 0.256831
O O3 0.441878 0.281996 0.251620
O O4 0.451347 0.216712 0.000000
O O5 0.375473 0.563833 0.500000
O O6 0.386241 0.500000 0.753837
O O7 0.331595 0.585335 0.762126
O O8 0.416383 0.607786 0.744712
O O9 0.285537 0.589211 0.500000
O O10 0.284973 0.500000 0.312169
O O11 0.239192 0.586227 0.238212
O O12 0.074784 0.443336 0.743156
O O13 0.151809 0.397208 0.743401
O O14 0.104395 0.394112 0.000000
O O15 0.500000 0.361422 0.747615
O O16 0.548319 0.347361 0.000000
O O17 0.000000 0.500000 0.746674
O O18 0.950624 0.500000 0.000000
O O19 0.685380 0.000000 0.744954
O O20 0.695825 0.063785 0.000000
#
# Coordination Sequence:
#
# PCOD9524038 Si02
#       7
#    16  16  16  16  16   8  16
#     4   9  19  36  53  67  87 121 166 206 236 277
#     4   9  17  30  50  77 105 128 155 192 234 279
#     4   7  12  25  45  68  94 126 158 190 230 277
#     4  11  20  30  46  69  98 126 155 197 246 291
#     4   9  19  35  52  70  96 129 161 195 236 281
#     4   9  18  30  41  59  93 129 151 179 236 295
#     4   9  16  28  47  68  93 126 163 196 232 282
#
# _framework density 17.4895
#
# number of rings (size 3 to 8) (size 9 to 14) (size 15 to 20)
#    0.000    3.000    0.769    3.692    0.000    2.462 
#    0.000    3.846    0.000    5.538    0.000    0.000 
#    0.000    0.000    0.000    0.000    0.000    0.000 
#
# Total GULP energy -289628.801362 kJ/mol
# GULP energy per Si atom -5569.784642 kJ/mol
# Density = 1.744969 g / cm^3
# Si number density = 17.489500 Si / 1000 Ang^3
#
#
#
# Elastic Constant Matrix: (Units=GPa)
#
#
# Indices 1 2 3 4 5 6 
#
# 1 199.9652 102.1117 16.6959 0.0000 0.0000 0.0000
# 2 102.1117 89.1440 11.1983 0.0000 0.0000 0.0000
# 3 16.6959 11.1983 10.7321 0.0000 0.0000 0.0000
# 4 0.0000 0.0000 0.0000 19.8189 0.0000 0.0000
# 5 0.0000 0.0000 0.0000 0.0000 16.8364 0.0000
# 6 0.0000 0.0000 0.0000 0.0000 0.0000 15.3853
#
#
#
# Elastic Compliance Matrix: (Units=1/GPa)
#
#
# Indices 1 2 3 4 5 6 
#
# 1 0.012286 -0.013433 -0.005097 0.000000 0.000000 0.000000
# 2 -0.013433 0.027597 -0.007898 0.000000 0.000000 0.000000
# 3 -0.005097 -0.007898 0.109349 0.000000 0.000000 0.000000
# 4 0.000000 0.000000 0.000000 0.050457 0.000000 0.000000
# 5 0.000000 0.000000 0.000000 0.000000 0.059395 0.000000
# 6 0.000000 0.000000 0.000000 0.000000 0.000000 0.064997
#
#
# Mechanical properties :
#
#
# Convention : Reuss Voigt Hill
#
# Bulk Modulus (GPa) = 10.37603 62.20589 36.29096
# Shear Modulus (GPa) = 12.22310 21.73048 16.97679
#
# Velocity S-wave (km/s) = 2.64651 3.52872 3.11896
# Velocity P-wave (km/s) = 3.90951 7.22823 5.81083
#
# Compressibility (1/GPa) = 0.09637598
#
# Stress axis : x y z
#
# Youngs Moduli (GPa) = 81.39455 36.23608 9.14504
#
# Poissons Ratio (x) = 0.48675 0.04661
# Poissons Ratio (y) = 1.09336 0.07223
# Poissons Ratio (z) = 0.41485 0.28620
#
# Static dielectric constant tensor:
#      x y z
#    x 1.626910 0.000000 0.000000 
#    y 0.000000 1.569000 0.000000 
#    z 0.000000 0.000000 1.624840 
# 
# From -- ./inp_files/11520.got.cif
#   From: 2010.05.17/outbox.cif.g08.bks.cpg/sg71_6_cif.got.tgz:11520.got - 2010.06.03 16:22:01.
