data_PCOD9524734
_publ_section_title
;
Structure prediction by ZEFSAII (Michael W. Deem and Ramdas Pophale) SiO2 
 PCOD9524734
Probable space group: I M M M
;
_chemical_formula_sum "Si O2"
_cell_formula_units_Z 44
_cell_length_a 9.000000
_cell_length_b 18.000000
_cell_length_c 30.000000
_cell_angle_alpha 90.000000
_cell_angle_beta 90.000000
_cell_angle_gamma 90.000000
_cell_volume 4860.000000
_symmetry_space_group_name_H-M "I M M M"
_symmetry_group_IT_number 71
_symmetry_cell_setting 'orthorhombic'
loop_
_space_group_symop_operation_xyz
x,y,z
-x,-y,z
x,-y,-z
-x,y,-z
-x,-y,-z
x,y,-z
-x,y,z
x,-y,z
1/2+x,1/2+y,1/2+z
1/2-x,1/2-y,1/2+z
1/2+x,1/2-y,1/2-z
1/2-x,1/2+y,1/2-z
1/2-x,1/2-y,1/2-z
1/2+x,1/2+y,1/2-z
1/2-x,1/2+y,1/2+z
1/2+x,1/2-y,1/2+z
loop_
_atom_site_type_symbol
_atom_site_label
_atom_site_fract_x
_atom_site_fract_y
_atom_site_fract_z
Si Si1 0.179346 0.786105 0.447638
Si Si2 0.823885 0.346845 0.208224
Si Si3 0.178948 0.857590 0.901154
Si Si4 0.821310 0.915337 0.620876
Si Si5 0.676676 0.669987 0.299772
Si Si6 0.323600 0.000000 0.053162
O O1 0.217987 0.792227 0.500000
O O2 0.257468 0.716008 0.424615
O O3 0.219998 0.858531 0.418581
O O4 0.000000 0.776699 0.445054
O O5 0.749183 0.390263 0.167627
O O6 0.759096 0.364139 0.257144
O O7 0.794911 0.258823 0.200419
O O8 0.000000 0.358624 0.207712
O O9 0.219828 0.858601 0.848643
O O10 0.000000 0.857662 0.903929
O O11 0.247990 0.927885 0.925764
O O12 0.000000 0.912013 0.625386
O O13 0.779088 0.000000 0.610513
O O14 0.500000 0.659265 0.294005
O O15 0.500000 0.000000 0.062022
O O16 0.302581 0.000000 0.000000
#
# Coordination Sequence:
#
# PCOD9524734 Si02
#       6
#    16  16  16  16  16   8
#     4  10  21  37  59  86 115 150 194 242 290 342
#     4  10  19  34  57  85 114 147 188 233 283 339
#     4  11  22  39  62  88 117 150 191 238 290 349
#     4  10  21  37  57  82 116 158 198 239 288 340
#     4   9  19  35  57  85 115 147 185 231 282 339
#     4  11  25  43  61  85 119 155 193 239 290 345
#
# _framework density 9.0534979999999994
#
# number of rings (size 3 to 8) (size 9 to 14) (size 15 to 20)
#    0.000    1.909    1.818    1.909    0.000    6.182 
#    1.636    1.818    0.000    0.000    0.000    2.545 
#    0.000    0.000    0.000    0.000    0.000    0.000 
#
# Total GULP energy -245712.169017 kJ/mol
# GULP energy per Si atom -5584.367478 kJ/mol
# Density = 0.903289 g / cm^3
# Si number density = 9.053498 Si / 1000 Ang^3
#
#
#
# Elastic Constant Matrix: (Units=GPa)
#
#
# Indices 1 2 3 4 5 6 
#
# 1 38.8237 51.5850 62.0487 0.0000 0.0000 0.0000
# 2 51.5850 124.7075 87.9809 0.0000 0.0000 0.0000
# 3 62.0487 87.9809 183.0374 0.0000 0.0000 0.0000
# 4 0.0000 0.0000 0.0000 21.6169 0.0000 0.0000
# 5 0.0000 0.0000 0.0000 0.0000 31.9518 0.0000
# 6 0.0000 0.0000 0.0000 0.0000 0.0000 15.1576
#
#
#
# Elastic Compliance Matrix: (Units=1/GPa)
#
#
# Indices 1 2 3 4 5 6 
#
# 1 0.083026 -0.021921 -0.017609 0.000000 0.000000 0.000000
# 2 -0.021921 0.017921 -0.001183 0.000000 0.000000 0.000000
# 3 -0.017609 -0.001183 0.012001 0.000000 0.000000 0.000000
# 4 0.000000 0.000000 0.000000 0.046260 0.000000 0.000000
# 5 0.000000 0.000000 0.000000 0.000000 0.031297 0.000000
# 6 0.000000 0.000000 0.000000 0.000000 0.000000 0.065973
#
#
# Mechanical properties :
#
#
# Convention : Reuss Voigt Hill
#
# Bulk Modulus (GPa) = 31.72259 83.31089 57.51674
# Shear Modulus (GPa) = 14.35085 23.40887 18.87986
#
# Velocity S-wave (km/s) = 2.81830 3.59946 3.23256
# Velocity P-wave (km/s) = 5.30546 7.96147 6.76509
#
# Compressibility (1/GPa) = 0.03152328
#
# Stress axis : x y z
#
# Youngs Moduli (GPa) = 12.04442 55.80095 83.32420
#
# Poissons Ratio (x) = 1.22319 1.46724
# Poissons Ratio (y) = 0.26402 0.09858
# Poissons Ratio (z) = 0.21209 0.06602
#
# Static dielectric constant tensor:
#      x y z
#    x 1.601690 0.000000 0.000000 
#    y 0.000000 1.621220 0.000000 
#    z 0.000000 0.000000 1.598580 
# 
# From -- ./inp_files/68018.got.cif
#   From: 2010.05.17/outbox.ucp.g08.bks.cvg/sg71_35_cif.got.tgz:68018.got - 2010.06.11 16:29:00.
