data_PCOD9524202
_publ_section_title
;
Structure prediction by ZEFSAII (Michael W. Deem and Ramdas Pophale) SiO2 
 PCOD9524202
Probable space group: I M M M
;
_chemical_formula_sum "Si O2"
_cell_formula_units_Z 58
_cell_length_a 24.662454
_cell_length_b 15.259966
_cell_length_c 7.663145
_cell_angle_alpha 90.000000
_cell_angle_beta 90.000000
_cell_angle_gamma 90.000000
_cell_volume 2884.010900
_symmetry_space_group_name_H-M "I M M M"
_symmetry_group_IT_number 71
_symmetry_cell_setting 'orthorhombic'
loop_
_space_group_symop_operation_xyz
x,y,z
-x,-y,z
x,-y,-z
-x,y,-z
-x,-y,-z
x,y,-z
-x,y,z
x,-y,z
1/2+x,1/2+y,1/2+z
1/2-x,1/2-y,1/2+z
1/2+x,1/2-y,1/2-z
1/2-x,1/2+y,1/2-z
1/2-x,1/2-y,1/2-z
1/2+x,1/2+y,1/2-z
1/2-x,1/2+y,1/2+z
1/2+x,1/2-y,1/2+z
loop_
_atom_site_type_symbol
_atom_site_label
_atom_site_fract_x
_atom_site_fract_y
_atom_site_fract_z
Si Si1 0.000000 0.500000 0.500000
Si Si2 0.205043 0.399112 0.287337
Si Si3 0.327669 0.399910 0.289074
Si Si4 0.389682 0.229138 0.795051
Si Si5 0.500000 0.853809 0.308422
O O1 0.000000 0.423916 0.653527
O O2 0.205275 0.396880 0.500000
O O3 0.193646 0.500000 0.237498
O O4 0.266229 0.376577 0.230649
O O5 0.158921 0.333053 0.226081
O O6 0.327578 0.398889 0.500000
O O7 0.338510 0.500000 0.233918
O O8 0.369945 0.328321 0.226564
O O9 0.446206 0.205056 0.708837
O O10 0.395609 0.209787 0.000000
O O11 0.500000 0.895100 0.500000
#
# Coordination Sequence:
#
# PCOD9524202 Si02
#       5
#     2  16  16  16   8
#     4  12  26  52  68  94 130 160 214 256 308 360
#     4   8  16  30  54  84 119 161 202 249 312 373
#     4   9  18  35  57  85 118 160 209 259 314 373
#     4  11  21  36  60  87 124 163 208 259 309 370
#     4  12  27  45  68  95 126 167 209 254 308 370
#
# _framework density 20.110880999999999
#
# number of rings (size 3 to 8) (size 9 to 14) (size 15 to 20)
#    0.000    2.207    1.379    3.517    1.931    0.552 
#    0.000    2.069    0.000    7.448    0.000    0.000 
#    0.000    0.000    0.000    0.000    0.000    0.000 
#
# Total GULP energy -161720.046313 kJ/mol
# GULP energy per Si atom -5576.553321 kJ/mol
# Density = 2.006511 g / cm^3
# Si number density = 20.110881 Si / 1000 Ang^3
#
#
#
# Elastic Constant Matrix: (Units=GPa)
#
#
# Indices 1 2 3 4 5 6 
#
# 1 134.5532 96.9882 29.8835 0.0000 0.0000 0.0000
# 2 96.9882 113.3236 20.7760 0.0000 0.0000 0.0000
# 3 29.8835 20.7760 87.2745 0.0000 0.0000 0.0000
# 4 0.0000 0.0000 0.0000 25.4310 0.0000 0.0000
# 5 0.0000 0.0000 0.0000 0.0000 -3.6465 0.0000
# 6 0.0000 0.0000 0.0000 0.0000 0.0000 -25.2304
#
#
#
# Elastic Compliance Matrix: (Units=1/GPa)
#
#
# Indices 1 2 3 4 5 6 
#
# 1 0.020084 -0.016655 -0.002912 0.000000 0.000000 0.000000
# 2 -0.016655 0.023038 0.000218 0.000000 0.000000 0.000000
# 3 -0.002912 0.000218 0.012403 0.000000 0.000000 0.000000
# 4 0.000000 0.000000 0.000000 0.039322 0.000000 0.000000
# 5 0.000000 0.000000 0.000000 0.000000 -0.274236 0.000000
# 6 0.000000 0.000000 0.000000 0.000000 0.000000 -0.039635
#
#
# Mechanical properties :
#
#
# Convention : Reuss Voigt Hill
#
# Bulk Modulus (GPa) = 59.42390 70.04962 64.73676
# Shear Modulus (GPa) = -28.61787 11.81105 -8.40341
#
# Velocity S-wave (km/s) = -3.77637 2.42605 -2.04637
# Velocity P-wave (km/s) = 3.25541 6.53873 5.16491
#
# Compressibility (1/GPa) = 0.01682825
#
# Stress axis : x y z
#
# Youngs Moduli (GPa) = 49.79093 43.40568 80.62406
#
# Poissons Ratio (x) = 0.72292 0.23479
# Poissons Ratio (y) = 0.82927 -0.01761
# Poissons Ratio (z) = 0.14500 -0.00948
#
# Static dielectric constant tensor:
#      x y z
#    x 1.690090 0.000000 0.000000 
#    y 0.000000 1.680380 0.000000 
#    z 0.000000 0.000000 1.751800 
# 
# From -- ./inp_files/5379.got.cif
#   From: 2010.05.17/outbox.cif.g08.bks.cpg/sg71_3_cif.got.tgz:5379.got - 2010.06.03 16:22:01.
