data_PCOD9524367
_publ_section_title
;
Structure prediction by ZEFSAII (Michael W. Deem and Ramdas Pophale) SiO2 
 PCOD9524367
Probable space group: I M M M
;
_chemical_formula_sum "Si O2"
_cell_formula_units_Z 96
_cell_length_a 25.699083
_cell_length_b 23.672759
_cell_length_c 8.935484
_cell_angle_alpha 90.000000
_cell_angle_beta 90.000000
_cell_angle_gamma 90.000000
_cell_volume 5436.064303
_symmetry_space_group_name_H-M "I M M M"
_symmetry_group_IT_number 71
_symmetry_cell_setting 'orthorhombic'
loop_
_space_group_symop_operation_xyz
x,y,z
-x,-y,z
x,-y,-z
-x,y,-z
-x,-y,-z
x,y,-z
-x,y,z
x,-y,z
1/2+x,1/2+y,1/2+z
1/2-x,1/2-y,1/2+z
1/2+x,1/2-y,1/2-z
1/2-x,1/2+y,1/2-z
1/2-x,1/2-y,1/2-z
1/2+x,1/2+y,1/2-z
1/2-x,1/2+y,1/2+z
1/2+x,1/2-y,1/2+z
loop_
_atom_site_type_symbol
_atom_site_label
_atom_site_fract_x
_atom_site_fract_y
_atom_site_fract_z
Si Si1 0.758149 0.566797 0.322926
Si Si2 0.307361 0.749381 0.822085
Si Si3 0.650030 0.860514 0.678215
Si Si4 0.438659 0.065334 0.179123
Si Si5 0.658255 0.378574 0.823264
Si Si6 0.940107 0.066852 0.821517
O O1 0.763530 0.578083 0.500000
O O2 0.764591 0.500000 0.298821
O O3 0.801589 0.601642 0.234547
O O4 0.701906 0.586764 0.266538
O O5 0.250000 0.750000 0.750000
O O6 0.341198 0.799046 0.749652
O O7 0.331685 0.687704 0.796927
O O8 0.302791 0.758732 0.000000
O O9 0.650514 0.856616 0.500000
O O10 0.598233 0.891432 0.736065
O O11 0.500000 0.073967 0.209029
O O12 0.425945 0.000000 0.218300
O O13 0.430788 0.070966 0.000000
O O14 0.601907 0.397733 0.768113
O O15 0.664528 0.389387 0.000000
O O16 0.000000 0.080614 0.784341
O O17 0.932390 0.000000 0.792488
O O18 0.933270 0.075246 0.000000
#
# Coordination Sequence:
#
# PCOD9524367 Si02
#       6
#    16  16  16  16  16  16
#     4  11  23  37  56  82 114 152 189 230 285 347
#     4  11  23  40  60  82 112 154 197 239 288 345
#     4  12  24  37  57  86 117 151 192 239 289 342
#     4   9  19  38  63  88 116 153 194 236 288 349
#     4  11  23  37  57  86 115 145 188 239 291 341
#     4   9  19  37  60  85 115 153 193 230 276 339
#
# _framework density 17.659835999999999
#
# number of rings (size 3 to 8) (size 9 to 14) (size 15 to 20)
#    0.000    1.500    1.667    5.000    0.000    8.667 
#    0.000    2.500    0.000    1.000    0.000    0.000 
#    0.000    0.000    0.000    0.000    0.000    0.000 
#
# Total GULP energy -268302.033763 kJ/mol
# GULP energy per Si atom -5589.625703 kJ/mol
# Density = 1.761964 g / cm^3
# Si number density = 17.659836 Si / 1000 Ang^3
#
#
#
# Elastic Constant Matrix: (Units=GPa)
#
#
# Indices 1 2 3 4 5 6 
#
# 1 67.4948 22.2585 34.2759 0.0000 0.0000 0.0000
# 2 22.2585 40.6294 37.9220 0.0000 0.0000 0.0000
# 3 34.2759 37.9220 73.0259 0.0000 0.0000 0.0000
# 4 0.0000 0.0000 0.0000 29.2053 0.0000 0.0000
# 5 0.0000 0.0000 0.0000 0.0000 33.9187 0.0000
# 6 0.0000 0.0000 0.0000 0.0000 0.0000 -20.6305
#
#
#
# Elastic Compliance Matrix: (Units=1/GPa)
#
#
# Indices 1 2 3 4 5 6 
#
# 1 0.019819 -0.004221 -0.007110 0.000000 0.000000 0.000000
# 2 -0.004221 0.048662 -0.023289 0.000000 0.000000 0.000000
# 3 -0.007110 -0.023289 0.029125 0.000000 0.000000 0.000000
# 4 0.000000 0.000000 0.000000 0.034240 0.000000 0.000000
# 5 0.000000 0.000000 0.000000 0.000000 0.029482 0.000000
# 6 0.000000 0.000000 0.000000 0.000000 0.000000 -0.048472
#
#
# Mechanical properties :
#
#
# Convention : Reuss Voigt Hill
#
# Bulk Modulus (GPa) = 35.25413 41.11810 38.18611
# Shear Modulus (GPa) = 26.10252 14.27826 20.19039
#
# Velocity S-wave (km/s) = 3.84874 2.84653 3.38493
# Velocity P-wave (km/s) = 6.30529 5.84274 6.07841
#
# Compressibility (1/GPa) = 0.02836547
#
# Stress axis : x y z
#
# Youngs Moduli (GPa) = 50.45708 20.54984 34.33485
#
# Poissons Ratio (x) = 0.08674 0.24413
# Poissons Ratio (y) = 0.21298 0.79962
# Poissons Ratio (z) = 0.35877 0.47858
#
# Static dielectric constant tensor:
#      x y z
#    x 1.581140 0.000000 0.000000 
#    y 0.000000 1.583300 0.000000 
#    z 0.000000 0.000000 1.589190 
# 
# From -- ./inp_files/12803.got.cif
#   From: 2010.05.17/outbox.cif.g08.bks.cpg/sg71_7_cif.got.tgz:12803.got - 2010.06.03 16:22:01.
