data_PCOD9524860
_publ_section_title
;
Structure prediction by ZEFSAII (Michael W. Deem and Ramdas Pophale) SiO2 
 PCOD9524860
Probable space group: I M M M
;
_chemical_formula_sum "Si O2"
_cell_formula_units_Z 52
_cell_length_a 27.000000
_cell_length_b 9.000000
_cell_length_c 21.000000
_cell_angle_alpha 90.000000
_cell_angle_beta 90.000000
_cell_angle_gamma 90.000000
_cell_volume 5103.000000
_symmetry_space_group_name_H-M "I M M M"
_symmetry_group_IT_number 71
_symmetry_cell_setting 'orthorhombic'
loop_
_space_group_symop_operation_xyz
x,y,z
-x,-y,z
x,-y,-z
-x,y,-z
-x,-y,-z
x,y,-z
-x,y,z
x,-y,z
1/2+x,1/2+y,1/2+z
1/2-x,1/2-y,1/2+z
1/2+x,1/2-y,1/2-z
1/2-x,1/2+y,1/2-z
1/2-x,1/2-y,1/2-z
1/2+x,1/2+y,1/2-z
1/2-x,1/2+y,1/2+z
1/2+x,1/2-y,1/2+z
loop_
_atom_site_type_symbol
_atom_site_label
_atom_site_fract_x
_atom_site_fract_y
_atom_site_fract_z
Si Si1 0.944130 0.678384 0.103104
Si Si2 0.941345 0.178071 0.500000
Si Si3 0.898366 0.321575 0.764510
Si Si4 0.221045 0.664306 0.398204
Si Si5 0.393313 0.175482 0.875261
Si Si6 0.874052 0.176107 0.000000
Si Si7 0.794120 0.166201 0.785064
Si Si8 0.729609 0.164405 0.500000
O O1 0.939312 0.500000 0.094655
O O2 0.935041 0.711705 0.177526
O O3 0.000000 0.720545 0.084301
O O4 0.903029 0.757978 0.060763
O O5 0.914585 0.241345 0.563344
O O6 0.000000 0.218797 0.500000
O O7 0.937867 0.000000 0.500000
O O8 0.892206 0.500000 0.761568
O O9 0.913921 0.273771 0.693457
O O10 0.845449 0.251529 0.782151
O O11 0.217082 0.500000 0.429048
O O12 0.166698 0.688885 0.368731
O O13 0.269166 0.654939 0.353867
O O14 0.234367 0.800636 0.442089
O O15 0.404001 0.000000 0.883623
O O16 0.817109 0.226513 0.000000
O O17 0.876976 0.000000 0.000000
O O18 0.750000 0.250000 0.750000
O O19 0.801016 0.000000 0.759166
O O20 0.709381 0.000000 0.500000
#
# Coordination Sequence:
#
# PCOD9524860 Si02
#       8
#    16   8  16  16  16   8  16   8
#     4  10  22  41  66  94 124 158 200 255 311 361
#     4  11  26  45  62  86 119 153 198 257 314 365
#     4  10  21  39  62  94 128 159 201 250 299 359
#     4  10  21  38  58  86 124 161 195 240 294 351
#     4  10  21  40  65  91 121 158 201 247 299 363
#     4  12  25  42  63  87 121 165 210 255 302 361
#     4  11  21  35  57  85 120 160 197 235 285 346
#     4  12  25  38  57  87 120 158 202 251 296 352
#
# _framework density 10.190084000000001
#
# number of rings (size 3 to 8) (size 9 to 14) (size 15 to 20)
#    0.000    1.462    1.538    3.692    0.000    9.846 
#    0.000    1.538    0.000    0.000    0.000    0.000 
#    0.000    0.000    0.000    0.000    0.000    0.000 
#
# Total GULP energy -290097.811598 kJ/mol
# GULP energy per Si atom -5578.804069 kJ/mol
# Density = 1.016689 g / cm^3
# Si number density = 10.190084 Si / 1000 Ang^3
#
#
#
# Elastic Constant Matrix: (Units=GPa)
#
#
# Indices 1 2 3 4 5 6 
#
# 1 47.9719 12.6519 9.8984 0.0000 0.0000 0.0000
# 2 12.6519 41.8864 33.8639 0.0000 0.0000 0.0000
# 3 9.8984 33.8639 107.4830 0.0000 0.0000 0.0000
# 4 0.0000 0.0000 0.0000 14.3650 0.0000 0.0000
# 5 0.0000 0.0000 0.0000 0.0000 28.0859 0.0000
# 6 0.0000 0.0000 0.0000 0.0000 0.0000 25.8536
#
#
#
# Elastic Compliance Matrix: (Units=1/GPa)
#
#
# Indices 1 2 3 4 5 6 
#
# 1 0.022651 -0.006917 0.000093 0.000000 0.000000 0.000000
# 2 -0.006917 0.034146 -0.010121 0.000000 0.000000 0.000000
# 3 0.000093 -0.010121 0.012484 0.000000 0.000000 0.000000
# 4 0.000000 0.000000 0.000000 0.069614 0.000000 0.000000
# 5 0.000000 0.000000 0.000000 0.000000 0.035605 0.000000
# 6 0.000000 0.000000 0.000000 0.000000 0.000000 0.038679
#
#
# Mechanical properties :
#
#
# Convention : Reuss Voigt Hill
#
# Bulk Modulus (GPa) = 28.25593 34.46330 31.35962
# Shear Modulus (GPa) = 19.31505 23.05605 21.18555
#
# Velocity S-wave (km/s) = 3.08187 3.36713 3.22765
# Velocity P-wave (km/s) = 5.15349 5.66248 5.41397
#
# Compressibility (1/GPa) = 0.03539080
#
# Stress axis : x y z
#
# Youngs Moduli (GPa) = 44.14896 29.28589 80.10256
#
# Poissons Ratio (x) = 0.20258 -0.00748
# Poissons Ratio (y) = 0.30539 0.81073
# Poissons Ratio (z) = -0.00412 0.29641
#
# Static dielectric constant tensor:
#      x y z
#    x 1.507020 0.000000 0.000000 
#    y 0.000000 1.693110 0.000000 
#    z 0.000000 0.000000 1.360750 
# 
# From -- ./inp_files/56329.got.cif
#   From: 2010.05.17/outbox.ucp.g08.bks.cvg/sg71_29_cif.got.tgz:56329.got - 2010.06.11 16:29:00.
