data_PCOD9524799
_publ_section_title
;
Structure prediction by ZEFSAII (Michael W. Deem and Ramdas Pophale) SiO2 
 PCOD9524799
Probable space group: I M M M
;
_chemical_formula_sum "Si O2"
_cell_formula_units_Z 52
_cell_length_a 30.000000
_cell_length_b 21.000000
_cell_length_c 9.000000
_cell_angle_alpha 90.000000
_cell_angle_beta 90.000000
_cell_angle_gamma 90.000000
_cell_volume 5670.000000
_symmetry_space_group_name_H-M "I M M M"
_symmetry_group_IT_number 71
_symmetry_cell_setting 'orthorhombic'
loop_
_space_group_symop_operation_xyz
x,y,z
-x,-y,z
x,-y,-z
-x,y,-z
-x,-y,-z
x,y,-z
-x,y,z
x,-y,z
1/2+x,1/2+y,1/2+z
1/2-x,1/2-y,1/2+z
1/2+x,1/2-y,1/2-z
1/2-x,1/2+y,1/2-z
1/2-x,1/2-y,1/2-z
1/2+x,1/2+y,1/2-z
1/2-x,1/2+y,1/2+z
1/2+x,1/2-y,1/2+z
loop_
_atom_site_type_symbol
_atom_site_label
_atom_site_fract_x
_atom_site_fract_y
_atom_site_fract_z
Si Si1 0.390538 0.883186 0.178385
Si Si2 0.446351 0.000000 0.320172
Si Si3 0.551772 0.757901 0.173474
Si Si4 0.859361 0.930980 0.818924
Si Si5 0.549641 0.624213 0.321324
Si Si6 0.207241 0.820896 0.820953
Si Si7 0.303846 0.174126 0.321788
O O1 0.419573 0.939217 0.253822
O O2 0.417154 0.817488 0.205721
O O3 0.341444 0.870027 0.246369
O O4 0.387840 0.893858 0.000000
O O5 0.500000 0.000000 0.282021
O O6 0.443543 0.000000 0.500000
O O7 0.500000 0.776567 0.194818
O O8 0.560274 0.696245 0.272800
O O9 0.557359 0.740367 0.000000
O O10 0.910092 0.919759 0.769954
O O11 0.828474 0.873031 0.772357
O O12 0.842848 0.000000 0.770629
O O13 0.859414 0.930132 0.000000
O O14 0.548435 0.621279 0.500000
O O15 0.500000 0.608365 0.265504
O O16 0.254151 0.835601 0.742276
O O17 0.189390 0.749719 0.788040
O O18 0.213655 0.823943 0.000000
O O19 0.305003 0.165855 0.500000
#
# Coordination Sequence:
#
# PCOD9524799 Si02
#       7
#    16   8  16  16  16  16  16
#     4  11  22  37  58  83 110 145 186 227 275 336
#     4  11  25  43  61  83 115 153 191 233 282 337
#     4   9  18  32  51  76 105 137 174 217 263 310
#     4   9  17  30  49  74 104 139 177 218 263 314
#     4   9  17  29  48  76 107 138 175 219 265 314
#     4   9  18  34  55  79 107 142 185 230 280 339
#     4  10  20  35  57  82 109 139 176 231 289 336
#
# _framework density 9.1710759999999993
#
# number of rings (size 3 to 8) (size 9 to 14) (size 15 to 20)
#    0.000    2.385    0.000    2.538    0.000    4.615 
#    1.385    3.846    0.000    1.385    0.000    2.154 
#    0.000    0.000    0.000    0.000    0.000    0.000 
#
# Total GULP energy -289977.806461 kJ/mol
# GULP energy per Si atom -5576.496278 kJ/mol
# Density = 0.915020 g / cm^3
# Si number density = 9.171076 Si / 1000 Ang^3
#
#
#
# Elastic Constant Matrix: (Units=GPa)
#
#
# Indices 1 2 3 4 5 6 
#
# 1 115.8640 72.2256 35.4315 0.0000 0.0000 0.0000
# 2 72.2256 76.5104 20.5659 0.0000 0.0000 0.0000
# 3 35.4315 20.5659 36.2026 0.0000 0.0000 0.0000
# 4 0.0000 0.0000 0.0000 11.7954 0.0000 0.0000
# 5 0.0000 0.0000 0.0000 0.0000 25.5620 0.0000
# 6 0.0000 0.0000 0.0000 0.0000 0.0000 25.5967
#
#
#
# Elastic Compliance Matrix: (Units=1/GPa)
#
#
# Indices 1 2 3 4 5 6 
#
# 1 0.025433 -0.020439 -0.013280 0.000000 0.000000 0.000000
# 2 -0.020439 0.031851 0.001909 0.000000 0.000000 0.000000
# 3 -0.013280 0.001909 0.039535 0.000000 0.000000 0.000000
# 4 0.000000 0.000000 0.000000 0.084779 0.000000 0.000000
# 5 0.000000 0.000000 0.000000 0.000000 0.039121 0.000000
# 6 0.000000 0.000000 0.000000 0.000000 0.000000 0.039068
#
#
# Mechanical properties :
#
#
# Convention : Reuss Voigt Hill
#
# Bulk Modulus (GPa) = 30.12074 53.89144 42.00609
# Shear Modulus (GPa) = 14.94900 19.28107 17.11503
#
# Velocity S-wave (km/s) = 2.85793 3.24572 3.05798
# Velocity P-wave (km/s) = 5.22949 6.59479 5.95142
#
# Compressibility (1/GPa) = 0.03319972
#
# Stress axis : x y z
#
# Youngs Moduli (GPa) = 39.31957 31.39629 25.29418
#
# Poissons Ratio (x) = 0.64170 0.33591
# Poissons Ratio (y) = 0.80364 -0.04830
# Poissons Ratio (z) = 0.52217 -0.05995
#
# Static dielectric constant tensor:
#      x y z
#    x 1.634980 0.000000 0.000000 
#    y 0.000000 1.624060 0.000000 
#    z 0.000000 0.000000 1.614640 
# 
# From -- ./inp_files/16984.got.cif
#   From: 2010.05.17/outbox.ucp.g08.bks.cvg/sg71_9_cif.got.tgz:16984.got - 2010.06.11 16:29:00.
