data_PCOD9524518
_publ_section_title
;
Structure prediction by ZEFSAII (Michael W. Deem and Ramdas Pophale) SiO2 
 PCOD9524518
Probable space group: I M M M
;
_chemical_formula_sum "Si O2"
_cell_formula_units_Z 64
_cell_length_a 7.317497
_cell_length_b 25.378615
_cell_length_c 13.331138
_cell_angle_alpha 90.000000
_cell_angle_beta 90.000000
_cell_angle_gamma 90.000000
_cell_volume 2475.698164
_symmetry_space_group_name_H-M "I M M M"
_symmetry_group_IT_number 71
_symmetry_cell_setting 'orthorhombic'
loop_
_space_group_symop_operation_xyz
x,y,z
-x,-y,z
x,-y,-z
-x,y,-z
-x,-y,-z
x,y,-z
-x,y,z
x,-y,z
1/2+x,1/2+y,1/2+z
1/2-x,1/2-y,1/2+z
1/2+x,1/2-y,1/2-z
1/2-x,1/2+y,1/2-z
1/2-x,1/2-y,1/2-z
1/2+x,1/2+y,1/2-z
1/2-x,1/2+y,1/2+z
1/2+x,1/2-y,1/2+z
loop_
_atom_site_type_symbol
_atom_site_label
_atom_site_fract_x
_atom_site_fract_y
_atom_site_fract_z
Si Si1 0.284588 0.288874 0.891459
Si Si2 0.276796 0.440805 0.333752
Si Si3 0.220100 0.828258 0.176518
Si Si4 0.709384 0.562958 0.106526
O O1 0.500000 0.299353 0.893355
O O2 0.264772 0.226082 0.877996
O O3 0.213266 0.317852 0.791601
O O4 0.207885 0.303338 0.000000
O O5 0.500000 0.443376 0.337629
O O6 0.217172 0.500000 0.366675
O O7 0.222208 0.383348 0.375345
O O8 0.216677 0.431811 0.218099
O O9 0.000000 0.830791 0.181398
O O10 0.500000 0.582819 0.109952
O O11 0.699762 0.500000 0.098858
O O12 0.789968 0.581000 0.000000
#
# Coordination Sequence:
#
# PCOD9524518 Si02
#       4
#    16  16  16  16
#     4   9  18  32  48  66  91 122 153 189 232 270
#     4   8  13  21  35  58  88 117 141 172 219 269
#     4   9  17  29  47  71  94 117 151 190 225 269
#     4   7   9  13  22  40  70 106 136 158 189 242
#
# _framework density 25.851296000000001
#
# number of rings (size 3 to 8) (size 9 to 14) (size 15 to 20)
#    0.000    3.750    0.000    2.250    0.000    1.500 
#    0.000    5.000    0.000    1.500    0.000    5.250 
#    0.000    0.000    0.000   18.750    0.000   18.000 
#
# Total GULP energy -178185.427675 kJ/mol
# GULP energy per Si atom -5568.294615 kJ/mol
# Density = 2.579246 g / cm^3
# Si number density = 25.851296 Si / 1000 Ang^3
#
#
#
# Elastic Constant Matrix: (Units=GPa)
#
#
# Indices 1 2 3 4 5 6 
#
# 1 97.7970 3.0526 1.2070 0.0000 0.0000 0.0000
# 2 3.0526 298.5508 22.0943 -0.0001 0.0000 0.0000
# 3 1.2070 22.0943 81.0259 -0.0002 0.0000 0.0000
# 4 0.0000 -0.0001 -0.0002 -18.2449 0.0000 0.0000
# 5 0.0000 0.0000 0.0000 0.0000 4.9866 0.0000
# 6 0.0000 0.0000 0.0000 0.0000 0.0000 -17.1151
#
#
#
# Elastic Compliance Matrix: (Units=1/GPa)
#
#
# Indices 1 2 3 4 5 6 
#
# 1 0.010230 -0.000095 -0.000126 0.000000 0.000000 0.000000
# 2 -0.000095 0.003419 -0.000931 0.000000 0.000000 0.000000
# 3 -0.000126 -0.000931 0.012597 0.000000 0.000000 0.000000
# 4 0.000000 0.000000 0.000000 -0.054810 0.000000 0.000000
# 5 0.000000 0.000000 0.000000 0.000000 0.200538 0.000000
# 6 0.000000 0.000000 0.000000 0.000000 0.000000 -0.058428
#
#
# Mechanical properties :
#
#
# Convention : Reuss Voigt Hill
#
# Bulk Modulus (GPa) = 41.76871 58.89793 50.33332
# Shear Modulus (GPa) = 40.37695 23.99331 32.18513
#
# Velocity S-wave (km/s) = 3.95637 3.04982 3.53230
# Velocity P-wave (km/s) = 6.08792 5.93588 6.01238
#
# Compressibility (1/GPa) = 0.02394137
#
# Stress axis : x y z
#
# Youngs Moduli (GPa) = 97.75364 292.45021 79.38101
#
# Poissons Ratio (x) = 0.02785 0.01004
# Poissons Ratio (y) = 0.00931 0.07390
# Poissons Ratio (z) = 0.01236 0.27227
#
# Static dielectric constant tensor:
#      x y z
#    x 1.980960 0.000000 0.000000 
#    y 0.000000 2.049170 0.000000 
#    z 0.000000 0.000000 2.095010 
# 
# From -- ./inp_files/21444.got.cif
#   From: 2010.05.17/outbox.cif.g08.bks.cpg/sg71_11_cif.got.tgz:21444.got - 2010.06.03 16:22:01.
