data_PCOD9524742
_publ_section_title
;
Structure prediction by ZEFSAII (Michael W. Deem and Ramdas Pophale) SiO2 
 PCOD9524742
Probable space group: I M M M
;
_chemical_formula_sum "Si O2"
_cell_formula_units_Z 36
_cell_length_a 27.000000
_cell_length_b 9.000000
_cell_length_c 15.000000
_cell_angle_alpha 90.000000
_cell_angle_beta 90.000000
_cell_angle_gamma 90.000000
_cell_volume 3645.000000
_symmetry_space_group_name_H-M "I M M M"
_symmetry_group_IT_number 71
_symmetry_cell_setting 'orthorhombic'
loop_
_space_group_symop_operation_xyz
x,y,z
-x,-y,z
x,-y,-z
-x,y,-z
-x,-y,-z
x,y,-z
-x,y,z
x,-y,z
1/2+x,1/2+y,1/2+z
1/2-x,1/2-y,1/2+z
1/2+x,1/2-y,1/2-z
1/2-x,1/2+y,1/2-z
1/2-x,1/2-y,1/2-z
1/2+x,1/2+y,1/2-z
1/2-x,1/2+y,1/2+z
1/2+x,1/2-y,1/2+z
loop_
_atom_site_type_symbol
_atom_site_label
_atom_site_fract_x
_atom_site_fract_y
_atom_site_fract_z
Si Si1 0.745007 0.820083 0.500000
Si Si2 0.440666 0.176830 0.000000
Si Si3 0.894531 0.178134 0.675452
Si Si4 0.636066 0.318794 0.500000
Si Si5 0.211930 0.679888 0.320444
Si Si6 0.945534 0.178331 0.858259
O O1 0.688117 0.764420 0.500000
O O2 0.771586 0.748504 0.585281
O O3 0.748007 0.000000 0.500000
O O4 0.416659 0.253888 0.914200
O O5 0.500000 0.197223 0.000000
O O6 0.430300 0.000000 0.000000
O O7 0.843172 0.259931 0.697900
O O8 0.933019 0.204510 0.755523
O O9 0.886454 0.000000 0.667770
O O10 0.644176 0.500000 0.500000
O O11 0.601429 0.275022 0.416617
O O12 0.213853 0.500000 0.320226
O O13 0.250000 0.750000 0.250000
O O14 0.000000 0.237950 0.882705
O O15 0.947734 0.000000 0.871829
#
# Coordination Sequence:
#
# PCOD9524742 Si02
#       6
#     8   8  16   8  16  16
#     4  12  25  42  63  89 122 161 206 253 306 365
#     4  11  24  41  60  85 119 160 206 257 312 364
#     4  11  22  38  61  89 121 158 202 250 303 363
#     4  10  19  35  61  90 121 156 196 243 294 350
#     4  12  25  43  65  91 124 161 204 253 308 369
#     4   9  18  33  57  89 121 154 194 239 287 345
#
# _framework density 9.8765429999999999
#
# number of rings (size 3 to 8) (size 9 to 14) (size 15 to 20)
#    0.000    1.222    0.000    7.000    0.000    4.889 
#    0.000    1.111    0.000    4.000    0.000    0.000 
#    0.000    0.000    0.000    0.000    0.000    0.000 
#
# Total GULP energy -201254.065185 kJ/mol
# GULP energy per Si atom -5590.390700 kJ/mol
# Density = 0.985406 g / cm^3
# Si number density = 9.876543 Si / 1000 Ang^3
#
#
#
# Elastic Constant Matrix: (Units=GPa)
#
#
# Indices 1 2 3 4 5 6 
#
# 1 92.7082 34.3087 -6.8937 0.0000 0.0000 0.0000
# 2 34.3087 133.6893 27.1540 0.0000 0.0000 0.0000
# 3 -6.8937 27.1540 76.5657 0.0000 0.0000 0.0000
# 4 0.0000 0.0000 0.0000 20.4375 0.0000 0.0000
# 5 0.0000 0.0000 0.0000 0.0000 -54.4709 0.0000
# 6 0.0000 0.0000 0.0000 0.0000 0.0000 35.9732
#
#
#
# Elastic Compliance Matrix: (Units=1/GPa)
#
#
# Indices 1 2 3 4 5 6 
#
# 1 0.012315 -0.003649 0.002403 0.000000 0.000000 0.000000
# 2 -0.003649 0.009142 -0.003571 0.000000 0.000000 0.000000
# 3 0.002403 -0.003571 0.014543 0.000000 0.000000 0.000000
# 4 0.000000 0.000000 0.000000 0.048930 0.000000 0.000000
# 5 0.000000 0.000000 0.000000 0.000000 -0.018358 0.000000
# 6 0.000000 0.000000 0.000000 0.000000 0.000000 0.027798
#
#
# Mechanical properties :
#
#
# Convention : Reuss Voigt Hill
#
# Bulk Modulus (GPa) = 37.92519 45.78902 41.85711
# Shear Modulus (GPa) = 44.32941 16.94759 30.63850
#
# Velocity S-wave (km/s) = 4.74241 2.93229 3.94264
# Velocity P-wave (km/s) = 7.01631 5.89029 6.47781
#
# Compressibility (1/GPa) = 0.02636770
#
# Stress axis : x y z
#
# Youngs Moduli (GPa) = 81.19894 109.39018 68.76013
#
# Poissons Ratio (x) = 0.39912 -0.16522
# Poissons Ratio (y) = 0.29626 0.24551
# Poissons Ratio (z) = -0.19510 0.39058
#
# Static dielectric constant tensor:
#      x y z
#    x 1.679400 0.000000 0.000000 
#    y 0.000000 1.653930 0.000000 
#    z 0.000000 0.000000 1.714890 
# 
# From -- ./inp_files/39978.got.cif
#   From: 2010.05.17/outbox.ucp.g08.bks.cvg/sg71_20_cif.got.tgz:39978.got - 2010.06.11 16:29:00.
