data_PCOD9524384
_publ_section_title
;
Structure prediction by ZEFSAII (Michael W. Deem and Ramdas Pophale) SiO2 
 PCOD9524384
Probable space group: I M M M
;
_chemical_formula_sum "Si O2"
_cell_formula_units_Z 72
_cell_length_a 22.220194
_cell_length_b 17.853261
_cell_length_c 9.115072
_cell_angle_alpha 90.000000
_cell_angle_beta 90.000000
_cell_angle_gamma 90.000000
_cell_volume 3615.975705
_symmetry_space_group_name_H-M "I M M M"
_symmetry_group_IT_number 71
_symmetry_cell_setting 'orthorhombic'
loop_
_space_group_symop_operation_xyz
x,y,z
-x,-y,z
x,-y,-z
-x,y,-z
-x,-y,-z
x,y,-z
-x,y,z
x,-y,z
1/2+x,1/2+y,1/2+z
1/2-x,1/2-y,1/2+z
1/2+x,1/2-y,1/2-z
1/2-x,1/2+y,1/2-z
1/2-x,1/2-y,1/2-z
1/2+x,1/2+y,1/2-z
1/2-x,1/2+y,1/2+z
1/2+x,1/2-y,1/2+z
loop_
_atom_site_type_symbol
_atom_site_label
_atom_site_fract_x
_atom_site_fract_y
_atom_site_fract_z
Si Si1 0.105113 0.913264 0.327036
Si Si2 0.361216 0.139730 0.173643
Si Si3 0.428071 0.000000 0.674988
Si Si4 0.068750 0.231801 0.170750
Si Si5 0.748092 0.410962 0.831494
O O1 0.091520 0.901780 0.500000
O O2 0.072570 0.852979 0.227487
O O3 0.177009 0.901394 0.307925
O O4 0.091612 0.000000 0.292557
O O5 0.397702 0.072992 0.253580
O O6 0.388496 0.217126 0.231066
O O7 0.291997 0.131663 0.222737
O O8 0.367251 0.132757 0.000000
O O9 0.500000 0.000000 0.699135
O O10 0.417164 0.000000 0.500000
O O11 0.000000 0.258925 0.185291
O O12 0.085706 0.236862 0.000000
O O13 0.760117 0.500000 0.817284
O O14 0.761829 0.389684 0.000000
#
# Coordination Sequence:
#
# PCOD9524384 Si02
#       5
#    16  16   8  16  16
#     4   9  20  40  66  94 120 153 196 245 302 359
#     4  12  24  37  59  90 121 157 201 250 299 348
#     4  11  23  39  59  83 117 163 206 243 292 355
#     4  11  25  43  61  84 118 161 205 249 301 359
#     4   9  18  36  62  89 122 160 196 239 294 358
#
# _framework density 19.911638
#
# number of rings (size 3 to 8) (size 9 to 14) (size 15 to 20)
#    0.000    1.667    1.111    5.000    0.000    8.000 
#    0.000    4.444    0.000    0.000    0.000    0.000 
#    0.000    0.000    0.000    0.000    0.000    0.000 
#
# Total GULP energy -201290.762856 kJ/mol
# GULP energy per Si atom -5591.410079 kJ/mol
# Density = 1.986632 g / cm^3
# Si number density = 19.911638 Si / 1000 Ang^3
#
#
#
# Elastic Constant Matrix: (Units=GPa)
#
#
# Indices 1 2 3 4 5 6 
#
# 1 24.5583 4.0980 25.5168 0.0000 0.0000 0.0000
# 2 4.0980 56.1147 26.0841 0.0000 0.0000 0.0000
# 3 25.5168 26.0841 97.3635 0.0000 0.0000 0.0000
# 4 0.0000 0.0000 0.0000 30.3571 0.0000 0.0000
# 5 0.0000 0.0000 0.0000 0.0000 21.7212 0.0000
# 6 0.0000 0.0000 0.0000 0.0000 0.0000 30.9731
#
#
#
# Elastic Compliance Matrix: (Units=1/GPa)
#
#
# Indices 1 2 3 4 5 6 
#
# 1 0.056439 0.003146 -0.015634 0.000000 0.000000 0.000000
# 2 0.003146 0.020531 -0.006325 0.000000 0.000000 0.000000
# 3 -0.015634 -0.006325 0.016063 0.000000 0.000000 0.000000
# 4 0.000000 0.000000 0.000000 0.032941 0.000000 0.000000
# 5 0.000000 0.000000 0.000000 0.000000 0.046038 0.000000
# 6 0.000000 0.000000 0.000000 0.000000 0.000000 0.032286
#
#
# Mechanical properties :
#
#
# Convention : Reuss Voigt Hill
#
# Bulk Modulus (GPa) = 18.04863 32.15937 25.10400
# Shear Modulus (GPa) = 19.20179 24.76612 21.98396
#
# Velocity S-wave (km/s) = 3.10877 3.53058 3.32637
# Velocity P-wave (km/s) = 4.68721 5.72766 5.23336
#
# Compressibility (1/GPa) = 0.05540587
#
# Stress axis : x y z
#
# Youngs Moduli (GPa) = 17.71832 48.70710 62.25654
#
# Poissons Ratio (x) = -0.15322 0.97332
# Poissons Ratio (y) = -0.05574 0.39376
# Poissons Ratio (z) = 0.27701 0.30806
#
# Static dielectric constant tensor:
#      x y z
#    x 1.714440 0.000000 0.000000 
#    y 0.000000 1.695330 0.000000 
#    z 0.000000 0.000000 1.659490 
# 
# From -- ./inp_files/12171.got.cif
#   From: 2010.05.17/outbox.cif.g08.bks.cpg/sg71_7_cif.got.tgz:12171.got - 2010.06.03 16:22:01.
