data_PCOD9524863
_publ_section_title
;
Structure prediction by ZEFSAII (Michael W. Deem and Ramdas Pophale) SiO2 
 PCOD9524863
Probable space group: I M M M
;
_chemical_formula_sum "Si O2"
_cell_formula_units_Z 44
_cell_length_a 30.000000
_cell_length_b 18.000000
_cell_length_c 9.000000
_cell_angle_alpha 90.000000
_cell_angle_beta 90.000000
_cell_angle_gamma 90.000000
_cell_volume 4860.000000
_symmetry_space_group_name_H-M "I M M M"
_symmetry_group_IT_number 71
_symmetry_cell_setting 'orthorhombic'
loop_
_space_group_symop_operation_xyz
x,y,z
-x,-y,z
x,-y,-z
-x,y,-z
-x,-y,-z
x,y,-z
-x,y,z
x,-y,z
1/2+x,1/2+y,1/2+z
1/2-x,1/2-y,1/2+z
1/2+x,1/2-y,1/2-z
1/2-x,1/2+y,1/2-z
1/2-x,1/2-y,1/2-z
1/2+x,1/2+y,1/2-z
1/2-x,1/2+y,1/2+z
1/2+x,1/2-y,1/2+z
loop_
_atom_site_type_symbol
_atom_site_label
_atom_site_fract_x
_atom_site_fract_y
_atom_site_fract_z
Si Si1 0.242726 0.000000 0.321359
Si Si2 0.448179 0.912031 0.321359
Si Si3 0.775677 0.674773 0.820206
Si Si4 0.353404 0.500000 0.323232
Si Si5 0.373243 0.806642 0.821302
Si Si6 0.000000 0.914213 0.319820
Si Si7 0.403784 0.361585 0.178399
O O1 0.261990 0.914037 0.288863
O O2 0.237353 0.000000 0.500000
O O3 0.196871 0.000000 0.233137
O O4 0.443688 0.902694 0.500000
O O5 0.500000 0.894294 0.282463
O O6 0.411935 0.861314 0.239106
O O7 0.441230 0.000000 0.289573
O O8 0.750000 0.750000 0.750000
O O9 0.826178 0.679497 0.759276
O O10 0.772825 0.682878 0.000000
O O11 0.356374 0.500000 0.500000
O O12 0.376423 0.426331 0.257615
O O13 0.387138 0.721249 0.790676
O O14 0.368701 0.815408 0.000000
O O15 0.955107 0.872760 0.275308
O O16 0.000000 0.916594 0.500000
O O17 0.000000 0.000000 0.268306
O O18 0.400560 0.373324 0.000000
#
# Coordination Sequence:
#
# PCOD9524863 Si02
#       7
#     8  16  16   8  16   8  16
#     4  10  24  44  67  89 115 161 207 246 304 380
#     4   9  20  40  63  86 119 164 206 246 301 366
#     4  11  24  44  67  92 125 163 209 261 316 381
#     4  12  24  37  59  90 121 151 193 250 304 353
#     4  11  24  38  61  94 126 160 202 256 309 364
#     4   9  16  32  60  84 107 156 211 247 280 340
#     4  10  21  38  59  83 119 164 204 241 294 362
#
# _framework density 9.0534979999999994
#
# number of rings (size 3 to 8) (size 9 to 14) (size 15 to 20)
#    0.000    1.727    0.909    3.545    2.545    8.000 
#    0.000    1.818    0.000    0.000    0.000    0.000 
#    0.000    0.000    0.000    0.000    0.000    0.000 
#
# Total GULP energy -245250.425877 kJ/mol
# GULP energy per Si atom -5573.873315 kJ/mol
# Density = 0.903289 g / cm^3
# Si number density = 9.053498 Si / 1000 Ang^3
#
#
#
# Elastic Constant Matrix: (Units=GPa)
#
#
# Indices 1 2 3 4 5 6 
#
# 1 169.7041 110.5779 73.1758 0.0000 0.0000 0.0000
# 2 110.5779 178.0725 73.2210 0.0000 0.0000 0.0000
# 3 73.1758 73.2210 68.1757 0.0000 0.0000 0.0000
# 4 0.0000 0.0000 0.0000 39.7370 0.0000 0.0000
# 5 0.0000 0.0000 0.0000 0.0000 29.6373 0.0000
# 6 0.0000 0.0000 0.0000 0.0000 0.0000 21.1232
#
#
#
# Elastic Compliance Matrix: (Units=1/GPa)
#
#
# Indices 1 2 3 4 5 6 
#
# 1 0.012365 -0.003978 -0.009000 0.000000 0.000000 0.000000
# 2 -0.003978 0.011337 -0.007906 0.000000 0.000000 0.000000
# 3 -0.009000 -0.007906 0.032819 0.000000 0.000000 0.000000
# 4 0.000000 0.000000 0.000000 0.025165 0.000000 0.000000
# 5 0.000000 0.000000 0.000000 0.000000 0.033741 0.000000
# 6 0.000000 0.000000 0.000000 0.000000 0.000000 0.047341
#
#
# Mechanical properties :
#
#
# Convention : Reuss Voigt Hill
#
# Bulk Modulus (GPa) = 67.78100 103.32240 85.55170
# Shear Modulus (GPa) = 23.87152 28.69801 26.28476
#
# Velocity S-wave (km/s) = 3.63486 3.98542 3.81417
# Velocity P-wave (km/s) = 7.42503 8.85235 8.16992
#
# Compressibility (1/GPa) = 0.01475340
#
# Stress axis : x y z
#
# Youngs Moduli (GPa) = 80.87159 88.20936 30.47000
#
# Poissons Ratio (x) = 0.35088 0.27423
# Poissons Ratio (y) = 0.32169 0.24090
# Poissons Ratio (z) = 0.72784 0.69739
#
# Static dielectric constant tensor:
#      x y z
#    x 1.625580 0.000000 0.000000 
#    y 0.000000 1.435400 0.000000 
#    z 0.000000 0.000000 1.608420 
# 
# From -- ./inp_files/16715.got.cif
#   From: 2010.05.17/outbox.ucp.g08.bks.cvg/sg71_9_cif.got.tgz:16715.got - 2010.06.11 16:29:00.
