data_PCOD9524486
_publ_section_title
;
Structure prediction by ZEFSAII (Michael W. Deem and Ramdas Pophale) SiO2 
 PCOD9524486
Probable space group: I M M M
;
_chemical_formula_sum "Si O2"
_cell_formula_units_Z 72
_cell_length_a 34.493562
_cell_length_b 15.295697
_cell_length_c 7.350164
_cell_angle_alpha 90.000000
_cell_angle_beta 90.000000
_cell_angle_gamma 90.000000
_cell_volume 3877.969112
_symmetry_space_group_name_H-M "I M M M"
_symmetry_group_IT_number 71
_symmetry_cell_setting 'orthorhombic'
loop_
_space_group_symop_operation_xyz
x,y,z
-x,-y,z
x,-y,-z
-x,y,-z
-x,-y,-z
x,y,-z
-x,y,z
x,-y,z
1/2+x,1/2+y,1/2+z
1/2-x,1/2-y,1/2+z
1/2+x,1/2-y,1/2-z
1/2-x,1/2+y,1/2-z
1/2-x,1/2-y,1/2-z
1/2+x,1/2+y,1/2-z
1/2-x,1/2+y,1/2+z
1/2+x,1/2-y,1/2+z
loop_
_atom_site_type_symbol
_atom_site_label
_atom_site_fract_x
_atom_site_fract_y
_atom_site_fract_z
Si Si1 0.415076 0.101119 0.722556
Si Si2 0.500000 0.106126 0.289743
Si Si3 0.342864 0.781177 0.722888
Si Si4 0.771904 0.599279 0.219310
Si Si5 0.817966 0.902553 0.212633
O O1 0.415996 0.100709 0.500000
O O2 0.457920 0.130215 0.786354
O O3 0.380577 0.164550 0.778888
O O4 0.408227 0.000000 0.776293
O O5 0.500000 0.135161 0.500000
O O6 0.500000 0.000000 0.289237
O O7 0.342559 0.780566 0.500000
O O8 0.304210 0.832832 0.781267
O O9 0.340529 0.681170 0.786580
O O10 0.781360 0.500000 0.277528
O O11 0.727968 0.618190 0.276501
O O12 0.772178 0.600037 0.000000
O O13 0.823586 0.000000 0.291286
O O14 0.827903 0.908195 0.000000
#
# Coordination Sequence:
#
# PCOD9524486 Si02
#       5
#    16   8  16  16  16
#     4   8  12  18  29  46  67  88 110 137 168 202
#     4   7  10  16  26  42  65  89 108 129 163 205
#     4   9  15  22  33  48  65  87 115 143 169 199
#     4   9  16  25  37  52  68  87 113 144 175 204
#     4   9  17  27  36  47  66  93 121 144 167 197
#
# _framework density 18.566420000000001
#
# number of rings (size 3 to 8) (size 9 to 14) (size 15 to 20)
#    0.000    3.444    0.000    2.667    0.000    2.667 
#    0.000    0.000    0.000    0.000    0.000    0.778 
#    0.000    6.222    0.000    4.000    0.000   57.556 
#
# Total GULP energy -200674.063624 kJ/mol
# GULP energy per Si atom -5574.279545 kJ/mol
# Density = 1.852416 g / cm^3
# Si number density = 18.566420 Si / 1000 Ang^3
#
#
#
# Elastic Constant Matrix: (Units=GPa)
#
#
# Indices 1 2 3 4 5 6 
#
# 1 102.8224 101.0651 -0.1828 0.0000 0.0000 0.0000
# 2 101.0651 141.6058 7.0868 0.0000 0.0000 0.0000
# 3 -0.1828 7.0868 68.8685 0.0000 -0.0001 0.0000
# 4 0.0000 0.0000 0.0000 -5.9201 0.0000 0.0000
# 5 0.0000 0.0000 -0.0001 0.0000 -14.1539 0.0000
# 6 0.0000 0.0000 0.0000 0.0000 0.0000 14.5647
#
#
#
# Elastic Compliance Matrix: (Units=1/GPa)
#
#
# Indices 1 2 3 4 5 6 
#
# 1 0.033014 -0.023688 0.002525 0.000000 0.000000 0.000000
# 2 -0.023688 0.024096 -0.002542 0.000000 0.000000 0.000000
# 3 0.002525 -0.002542 0.014789 0.000000 0.000000 0.000000
# 4 0.000000 0.000000 0.000000 -0.168915 0.000000 0.000000
# 5 0.000000 0.000000 0.000000 0.000000 -0.070652 0.000000
# 6 0.000000 0.000000 0.000000 0.000000 0.000000 0.068659
#
#
# Mechanical properties :
#
#
# Convention : Reuss Voigt Hill
#
# Bulk Modulus (GPa) = 40.83817 58.80388 49.82103
# Shear Modulus (GPa) = -115.10985 12.58664 -51.26161
#
# Velocity S-wave (km/s) = -7.88248 2.60652 -5.26021
# Velocity P-wave (km/s) = 7.79752 6.38745 3.16241
#
# Compressibility (1/GPa) = 0.02448689
#
# Stress axis : x y z
#
# Youngs Moduli (GPa) = 30.29059 41.50121 67.61890
#
# Poissons Ratio (x) = 0.98310 -0.17076
# Poissons Ratio (y) = 0.71754 0.17192
# Poissons Ratio (z) = -0.07649 0.10551
#
# Static dielectric constant tensor:
#      x y z
#    x 1.628970 0.000000 0.000000 
#    y 0.000000 1.643490 0.000000 
#    z 0.000000 0.000000 3.250510 
# 
# From -- ./inp_files/16376.got.cif
#   From: 2010.05.17/outbox.cif.g08.bks.cpg/sg71_9_cif.got.tgz:16376.got - 2010.06.03 16:22:01.
