data_PCOD9524789
_publ_section_title
;
Structure prediction by ZEFSAII (Michael W. Deem and Ramdas Pophale) SiO2 
 PCOD9524789
Probable space group: I M M M
;
_chemical_formula_sum "Si O2"
_cell_formula_units_Z 52
_cell_length_a 21.000000
_cell_length_b 18.000000
_cell_length_c 15.000000
_cell_angle_alpha 90.000000
_cell_angle_beta 90.000000
_cell_angle_gamma 90.000000
_cell_volume 5670.000000
_symmetry_space_group_name_H-M "I M M M"
_symmetry_group_IT_number 71
_symmetry_cell_setting 'orthorhombic'
loop_
_space_group_symop_operation_xyz
x,y,z
-x,-y,z
x,-y,-z
-x,y,-z
-x,-y,-z
x,y,-z
-x,y,z
x,-y,z
1/2+x,1/2+y,1/2+z
1/2-x,1/2-y,1/2+z
1/2+x,1/2-y,1/2-z
1/2-x,1/2+y,1/2-z
1/2-x,1/2-y,1/2-z
1/2+x,1/2+y,1/2-z
1/2-x,1/2+y,1/2+z
1/2+x,1/2-y,1/2+z
loop_
_atom_site_type_symbol
_atom_site_label
_atom_site_fract_x
_atom_site_fract_y
_atom_site_fract_z
Si Si1 0.072376 0.500000 0.608481
Si Si2 0.204731 0.129648 0.100822
Si Si3 0.865481 0.713318 0.897749
Si Si4 0.427623 0.737199 0.221216
Si Si5 0.147219 0.352819 0.393231
Si Si6 0.734575 0.913845 0.394116
Si Si7 0.140042 0.083591 0.723488
O O1 0.072607 0.500000 0.500000
O O2 0.107923 0.574730 0.635700
O O3 0.000000 0.500000 0.639507
O O4 0.180352 0.214574 0.101948
O O5 0.278964 0.131157 0.123931
O O6 0.165763 0.086597 0.175295
O O7 0.196966 0.100864 0.000000
O O8 0.916371 0.732561 0.821772
O O9 0.822375 0.642515 0.872149
O O10 0.889044 0.703773 0.000000
O O11 0.500000 0.750425 0.193416
O O12 0.379254 0.782374 0.158913
O O13 0.410089 0.650178 0.215776
O O14 0.139975 0.342339 0.500000
O O15 0.747438 0.904780 0.500000
O O16 0.798654 0.899098 0.338614
O O17 0.716833 0.000000 0.378197
O O18 0.117674 0.000000 0.702318
#
# Coordination Sequence:
#
# PCOD9524789 Si02
#       7
#     8  16  16  16  16  16  16
#     4   9  18  32  48  70 105 143 172 200 241 298
#     4   9  18  32  54  81 105 131 165 213 274 326
#     4   9  18  35  55  75 102 133 171 222 270 312
#     4  11  23  37  53  74 102 143 188 219 254 305
#     4  10  20  34  55  81 108 139 173 212 257 313
#     4   9  17  31  54  81 107 134 164 205 264 323
#     4  10  21  35  53  78 108 137 171 220 267 314
#
# _framework density 9.1710759999999993
#
# number of rings (size 3 to 8) (size 9 to 14) (size 15 to 20)
#    0.000    2.385    0.000    2.308    1.077    6.154 
#    1.385    0.000    0.000    0.000    0.000    9.692 
#    0.000    0.000    0.000    0.000    0.000    0.000 
#
# Total GULP energy -290156.833122 kJ/mol
# GULP energy per Si atom -5579.939099 kJ/mol
# Density = 0.915020 g / cm^3
# Si number density = 9.171076 Si / 1000 Ang^3
#
#
#
# Elastic Constant Matrix: (Units=GPa)
#
#
# Indices 1 2 3 4 5 6 
#
# 1 12.5703 -9.5319 -7.9395 0.0000 0.0000 0.0000
# 2 -9.5319 53.1285 5.8759 0.0000 0.0000 0.0000
# 3 -7.9395 5.8759 16.0865 0.0000 0.0000 0.0000
# 4 0.0000 0.0000 0.0000 22.1305 0.0000 0.0000
# 5 0.0000 0.0000 0.0000 0.0000 15.2043 0.0000
# 6 0.0000 0.0000 0.0000 0.0000 0.0000 12.5046
#
#
#
# Elastic Compliance Matrix: (Units=1/GPa)
#
#
# Indices 1 2 3 4 5 6 
#
# 1 0.128385 0.016701 0.057264 0.000000 0.000000 0.000000
# 2 0.016701 0.021787 0.000284 0.000000 0.000000 0.000000
# 3 0.057264 0.000284 0.090322 0.000000 0.000000 0.000000
# 4 0.000000 0.000000 0.000000 0.045187 0.000000 0.000000
# 5 0.000000 0.000000 0.000000 0.000000 0.065771 0.000000
# 6 0.000000 0.000000 0.000000 0.000000 0.000000 0.079971
#
#
# Mechanical properties :
#
#
# Convention : Reuss Voigt Hill
#
# Bulk Modulus (GPa) = 2.57074 6.51047 4.54061
# Shear Modulus (GPa) = 12.11861 16.19327 14.15594
#
# Velocity S-wave (km/s) = 2.57319 2.97449 2.78109
# Velocity P-wave (km/s) = 3.19891 3.91842 3.57680
#
# Compressibility (1/GPa) = 0.38899244
#
# Stress axis : x y z
#
# Youngs Moduli (GPa) = 7.78908 45.89863 11.07145
#
# Poissons Ratio (x) = -0.76654 -0.63399
# Poissons Ratio (y) = -0.13008 -0.00315
# Poissons Ratio (z) = -0.44603 -0.01306
#
# Static dielectric constant tensor:
#      x y z
#    x 1.596550 0.000000 0.000000 
#    y 0.000000 1.634260 0.000000 
#    z 0.000000 0.000000 1.649480 
# 
# From -- ./inp_files/38070.got.cif
#   From: 2010.05.17/outbox.ucp.g08.bks.cvg/sg71_20_cif.got.tgz:38070.got - 2010.06.11 16:29:00.
