data_PCOD9524595
_publ_section_title
;
Structure prediction by ZEFSAII (Michael W. Deem and Ramdas Pophale) SiO2 
 PCOD9524595
Probable space group: I M M M
;
_chemical_formula_sum "Si O2"
_cell_formula_units_Z 64
_cell_length_a 23.956117
_cell_length_b 7.343993
_cell_length_c 16.389219
_cell_angle_alpha 90.000000
_cell_angle_beta 90.000000
_cell_angle_gamma 90.000000
_cell_volume 2883.413571
_symmetry_space_group_name_H-M "I M M M"
_symmetry_group_IT_number 71
_symmetry_cell_setting 'orthorhombic'
loop_
_space_group_symop_operation_xyz
x,y,z
-x,-y,z
x,-y,-z
-x,y,-z
-x,-y,-z
x,y,-z
-x,y,z
x,-y,z
1/2+x,1/2+y,1/2+z
1/2-x,1/2-y,1/2+z
1/2+x,1/2-y,1/2-z
1/2-x,1/2+y,1/2-z
1/2-x,1/2-y,1/2-z
1/2+x,1/2+y,1/2-z
1/2-x,1/2+y,1/2+z
1/2+x,1/2-y,1/2+z
loop_
_atom_site_type_symbol
_atom_site_label
_atom_site_fract_x
_atom_site_fract_y
_atom_site_fract_z
Si Si1 0.738742 0.283086 0.346338
Si Si2 0.117687 0.211840 0.165222
Si Si3 0.500000 0.278410 0.595672
Si Si4 0.436930 0.777661 0.000000
Si Si5 0.640655 0.779152 0.854367
O O1 0.736084 0.500000 0.359975
O O2 0.750000 0.250000 0.250000
O O3 0.677107 0.210297 0.367110
O O4 0.797418 0.217220 0.382154
O O5 0.058101 0.286970 0.136217
O O6 0.124377 0.220460 0.263185
O O7 0.117150 0.000000 0.140448
O O8 0.500000 0.500000 0.603361
O O9 0.500000 0.233989 0.500000
O O10 0.404430 0.719850 0.080448
O O11 0.500000 0.716333 0.000000
O O12 0.436630 0.000000 0.000000
O O13 0.642150 0.000000 0.852111
#
# Coordination Sequence:
#
# PCOD9524595 Si02
#       5
#    16  16   8   8  16
#     4   8  14  26  44  67  89 112 145 185 222 261
#     4   9  17  30  49  69  91 119 151 186 226 271
#     4   9  18  32  47  68  95 120 148 185 229 273
#     4   9  18  30  43  65  97 124 150 186 223 263
#     4   9  17  30  48  69  92 120 153 186 224 268
#
# _framework density 22.195916
#
# number of rings (size 3 to 8) (size 9 to 14) (size 15 to 20)
#    0.000    3.250    0.000    0.000    1.750    0.000 
#    2.250    0.625    0.000    2.250    0.000    0.000 
#    0.000    0.000    0.000    0.000    0.000    0.000 
#
# Total GULP energy -178341.017597 kJ/mol
# GULP energy per Si atom -5573.156800 kJ/mol
# Density = 2.214540 g / cm^3
# Si number density = 22.195916 Si / 1000 Ang^3
#
#
#
# Elastic Constant Matrix: (Units=GPa)
#
#
# Indices 1 2 3 4 5 6 
#
# 1 313.2431 10.9075 84.6688 0.0000 0.0000 0.0000
# 2 10.9075 87.4778 -8.7547 0.0000 0.0000 0.0000
# 3 84.6688 -8.7547 50.7386 0.0000 0.0000 0.0000
# 4 0.0000 0.0000 0.0000 10.5117 0.0000 0.0000
# 5 0.0000 0.0000 0.0000 0.0000 15.6227 0.0000
# 6 0.0000 0.0000 0.0000 0.0000 0.0000 -8.3007
#
#
#
# Elastic Compliance Matrix: (Units=1/GPa)
#
#
# Indices 1 2 3 4 5 6 
#
# 1 0.006083 -0.001806 -0.010463 0.000000 0.000000 0.000000
# 2 -0.001806 0.012168 0.005113 0.000000 0.000000 0.000000
# 3 -0.010463 0.005113 0.038051 0.000000 0.000000 0.000000
# 4 0.000000 0.000000 0.000000 0.095132 0.000000 0.000000
# 5 0.000000 0.000000 0.000000 0.000000 0.064009 0.000000
# 6 0.000000 0.000000 0.000000 0.000000 0.000000 -0.120471
#
#
# Mechanical properties :
#
#
# Convention : Reuss Voigt Hill
#
# Bulk Modulus (GPa) = 23.81472 69.45587 46.63529
# Shear Modulus (GPa) = 40.55747 27.87594 34.21670
#
# Velocity S-wave (km/s) = 4.27927 3.54772 3.93055
# Velocity P-wave (km/s) = 5.93033 6.93843 6.45409
#
# Compressibility (1/GPa) = 0.04199083
#
# Stress axis : x y z
#
# Youngs Moduli (GPa) = 164.38009 82.18075 26.28031
#
# Poissons Ratio (x) = 0.14839 0.27498
# Poissons Ratio (y) = 0.29682 -0.13437
# Poissons Ratio (z) = 1.71994 -0.42017
#
# Static dielectric constant tensor:
#      x y z
#    x 1.859370 0.000000 0.000000 
#    y 0.000000 1.842510 0.000000 
#    z 0.000000 0.000000 1.754250 
# 
# From -- ./inp_files/38791.got.cif
#   From: 2010.05.17/outbox.cif.g08.bks.cpg/sg71_20_cif.got.tgz:38791.got - 2010.06.03 16:22:01.
