data_PCOD9524298
_publ_section_title
;
Structure prediction by ZEFSAII (Michael W. Deem and Ramdas Pophale) SiO2 
 PCOD9524298
Probable space group: I M M M
;
_chemical_formula_sum "Si O2"
_cell_formula_units_Z 72
_cell_length_a 27.496805
_cell_length_b 14.809555
_cell_length_c 9.003662
_cell_angle_alpha 90.000000
_cell_angle_beta 90.000000
_cell_angle_gamma 90.000000
_cell_volume 3666.430237
_symmetry_space_group_name_H-M "I M M M"
_symmetry_group_IT_number 71
_symmetry_cell_setting 'orthorhombic'
loop_
_space_group_symop_operation_xyz
x,y,z
-x,-y,z
x,-y,-z
-x,y,-z
-x,-y,-z
x,y,-z
-x,y,z
x,-y,z
1/2+x,1/2+y,1/2+z
1/2-x,1/2-y,1/2+z
1/2+x,1/2-y,1/2-z
1/2-x,1/2+y,1/2-z
1/2-x,1/2-y,1/2-z
1/2+x,1/2+y,1/2-z
1/2-x,1/2+y,1/2+z
1/2+x,1/2-y,1/2+z
loop_
_atom_site_type_symbol
_atom_site_label
_atom_site_fract_x
_atom_site_fract_y
_atom_site_fract_z
Si Si1 0.500000 0.607762 0.823580
Si Si2 0.909512 0.791070 0.177690
Si Si3 0.392391 0.099170 0.179751
Si Si4 0.217053 0.371083 0.668327
Si Si5 0.810517 0.159568 0.667396
O O1 0.500000 0.500000 0.803815
O O2 0.546959 0.651791 0.747508
O O3 0.500000 0.627143 0.000000
O O4 0.912523 0.688320 0.241111
O O5 0.858692 0.835063 0.233153
O O6 0.911288 0.789550 0.000000
O O7 0.335222 0.095073 0.221834
O O8 0.414142 0.000000 0.212971
O O9 0.394278 0.112294 0.000000
O O10 0.225170 0.401276 0.500000
O O11 0.208023 0.263281 0.660897
O O12 0.264338 0.391501 0.764592
O O13 0.822303 0.130169 0.500000
#
# Coordination Sequence:
#
# PCOD9524298 Si02
#       5
#     8  16  16  16  16
#     4  11  25  47  72  91 108 135 177 232 292 351
#     4  11  22  37  60  88 118 150 186 234 290 346
#     4   9  18  34  56  83 119 162 202 237 277 331
#     4   8  14  25  44  73 108 148 193 237 278 318
#     4   9  16  28  48  74 107 149 193 233 276 328
#
# _framework density 19.637630999999999
#
# number of rings (size 3 to 8) (size 9 to 14) (size 15 to 20)
#    0.000    2.556    0.000    4.333    0.000    6.667 
#    0.000    1.667    0.000    7.333    0.000    0.000 
#    0.000    0.000    0.000    0.000    0.000    0.000 
#
# Total GULP energy -200742.804388 kJ/mol
# GULP energy per Si atom -5576.189011 kJ/mol
# Density = 1.959293 g / cm^3
# Si number density = 19.637631 Si / 1000 Ang^3
#
#
#
# Elastic Constant Matrix: (Units=GPa)
#
#
# Indices 1 2 3 4 5 6 
#
# 1 100.9814 50.2259 75.2773 0.0000 0.0000 0.0000
# 2 50.2259 94.9064 60.4372 0.0000 0.0000 0.0000
# 3 75.2773 60.4372 138.7344 0.0000 0.0000 0.0000
# 4 0.0000 0.0000 0.0000 8.9356 0.0000 0.0000
# 5 0.0000 0.0000 0.0000 0.0000 33.9344 0.0000
# 6 0.0000 0.0000 0.0000 0.0000 0.0000 -15.9998
#
#
#
# Elastic Compliance Matrix: (Units=1/GPa)
#
#
# Indices 1 2 3 4 5 6 
#
# 1 0.017952 -0.004563 -0.007753 0.000000 0.000000 0.000000
# 2 -0.004563 0.015742 -0.004382 0.000000 0.000000 0.000000
# 3 -0.007753 -0.004382 0.013323 0.000000 0.000000 0.000000
# 4 0.000000 0.000000 0.000000 0.111912 0.000000 0.000000
# 5 0.000000 0.000000 0.000000 0.000000 0.029469 0.000000
# 6 0.000000 0.000000 0.000000 0.000000 0.000000 -0.062501
#
#
# Mechanical properties :
#
#
# Convention : Reuss Voigt Hill
#
# Bulk Modulus (GPa) = 73.41180 78.50033 75.95607
# Shear Modulus (GPa) = 30.51888 15.28615 22.90251
#
# Velocity S-wave (km/s) = 3.94649 2.79303 3.41875
# Velocity P-wave (km/s) = 7.63091 7.10370 7.37202
#
# Compressibility (1/GPa) = 0.01362179
#
# Stress axis : x y z
#
# Youngs Moduli (GPa) = 55.70441 63.52444 75.05582
#
# Poissons Ratio (x) = 0.28989 0.58189
# Poissons Ratio (y) = 0.25420 0.32886
# Poissons Ratio (z) = 0.43186 0.27834
#
# Static dielectric constant tensor:
#      x y z
#    x 1.676650 0.000000 0.000000 
#    y 0.000000 1.777990 0.000000 
#    z 0.000000 0.000000 1.672890 
# 
# From -- ./inp_files/16385.got.cif
#   From: 2010.05.17/outbox.cif.g08.bks.cpg/sg71_9_cif.got.tgz:16385.got - 2010.06.03 16:22:01.
