data_PCOD9524543
_publ_section_title
;
Structure prediction by ZEFSAII (Michael W. Deem and Ramdas Pophale) SiO2 
 PCOD9524543
Probable space group: I M M M
;
_chemical_formula_sum "Si O2"
_cell_formula_units_Z 80
_cell_length_a 34.800036
_cell_length_b 15.036757
_cell_length_c 7.344382
_cell_angle_alpha 90.000000
_cell_angle_beta 90.000000
_cell_angle_gamma 90.000000
_cell_volume 3843.165899
_symmetry_space_group_name_H-M "I M M M"
_symmetry_group_IT_number 71
_symmetry_cell_setting 'orthorhombic'
loop_
_space_group_symop_operation_xyz
x,y,z
-x,-y,z
x,-y,-z
-x,y,-z
-x,-y,-z
x,y,-z
-x,y,z
x,-y,z
1/2+x,1/2+y,1/2+z
1/2-x,1/2-y,1/2+z
1/2+x,1/2-y,1/2-z
1/2-x,1/2+y,1/2-z
1/2-x,1/2-y,1/2-z
1/2+x,1/2+y,1/2-z
1/2-x,1/2+y,1/2+z
1/2+x,1/2-y,1/2+z
loop_
_atom_site_type_symbol
_atom_site_label
_atom_site_fract_x
_atom_site_fract_y
_atom_site_fract_z
Si Si1 0.251037 0.601494 0.783166
Si Si2 0.810381 0.250087 0.718225
Si Si3 0.042841 0.602121 0.721591
Si Si4 0.102109 0.250162 0.722697
Si Si5 0.457136 0.602131 0.221575
O O1 0.250465 0.500000 0.713026
O O2 0.212179 0.658171 0.754876
O O3 0.284752 0.667063 0.712652
O O4 0.256454 0.595126 0.000000
O O5 0.811773 0.241163 0.500000
O O6 0.854011 0.250100 0.784931
O O7 0.042853 0.603509 0.500000
O O8 0.047734 0.500000 0.777444
O O9 0.077183 0.664989 0.781056
O O10 0.000000 0.632210 0.777151
O O11 0.102863 0.250483 0.500000
O O12 0.077231 0.165089 0.780466
O O13 0.500000 0.632012 0.277262
O O14 0.452157 0.500000 0.277416
O O15 0.457144 0.603485 0.000000
#
# Coordination Sequence:
#
# PCOD9524543 Si02
#       5
#    16  16  16  16  16
#     4   9  18  33  49  62  83 116 145 171 213 267
#     4   9  18  30  45  68  90 108 140 183 219 254
#     4   8  13  20  29  43  68 103 134 155 186 237
#     4   9  15  22  34  53  78 105 132 168 209 241
#     4   8  13  20  30  47  75 112 146 168 194 242
#
# _framework density 20.816171000000001
#
# number of rings (size 3 to 8) (size 9 to 14) (size 15 to 20)
#    0.000    3.400    0.000    1.800    0.000    4.400 
#    0.000    6.000    0.000    0.000    0.000    0.000 
#    0.000    3.200    0.000   13.200    0.000   10.400 
#
# Total GULP energy -223134.513180 kJ/mol
# GULP energy per Si atom -5578.362830 kJ/mol
# Density = 2.076879 g / cm^3
# Si number density = 20.816171 Si / 1000 Ang^3
#
#
#
# Elastic Constant Matrix: (Units=GPa)
#
#
# Indices 1 2 3 4 5 6 
#
# 1 228.8611 131.1632 5.0188 0.0000 0.0000 0.0000
# 2 131.1632 175.2624 3.8917 0.0000 0.0000 0.0000
# 3 5.0188 3.8917 79.4794 0.0001 0.0000 0.0002
# 4 0.0000 0.0000 0.0001 -1.6637 0.0000 0.0000
# 5 0.0000 0.0000 0.0000 0.0000 -0.2837 0.0000
# 6 0.0000 0.0000 0.0002 0.0000 0.0000 86.2913
#
#
#
# Elastic Compliance Matrix: (Units=1/GPa)
#
#
# Indices 1 2 3 4 5 6 
#
# 1 0.007654 -0.005724 -0.000203 0.000000 0.000000 0.000000
# 2 -0.005724 0.009992 -0.000128 0.000000 0.000000 0.000000
# 3 -0.000203 -0.000128 0.012601 0.000001 -0.000001 0.000000
# 4 0.000000 0.000000 0.000001 -0.601073 0.000018 0.000000
# 5 0.000000 0.000000 -0.000001 0.000018 -3.525112 0.000001
# 6 0.000000 0.000000 0.000000 0.000000 0.000001 0.011589
#
#
# Mechanical properties :
#
#
# Convention : Reuss Voigt Hill
#
# Bulk Modulus (GPa) = 55.13293 84.86114 69.99704
# Shear Modulus (GPa) = -1.22965 39.77073 19.27054
#
# Velocity S-wave (km/s) = -0.76942 4.37575 3.04591
# Velocity P-wave (km/s) = 5.07482 8.14770 6.78744
#
# Compressibility (1/GPa) = 0.01813798
#
# Stress axis : x y z
#
# Youngs Moduli (GPa) = 130.64511 100.07812 79.35903
#
# Poissons Ratio (x) = 0.57283 0.01612
# Poissons Ratio (y) = 0.74779 0.01014
# Poissons Ratio (z) = 0.02653 0.01279
#
# Static dielectric constant tensor:
#      x y z
#    x 1.710200 0.000000 0.000000 
#    y 0.000000 1.722350 0.000000 
#    z 0.000000 0.000000 1.855820 
# 
# From -- ./inp_files/29833.got.cif
#   From: 2010.05.17/outbox.cif.g08.bks.cpg/sg71_15_cif.got.tgz:29833.got - 2010.06.03 16:22:01.
