data_PCOD9524962
_publ_section_title
;
Structure prediction by ZEFSAII (Michael W. Deem and Ramdas Pophale) SiO2 
 PCOD9524962
Probable space group: I B A M
;
_chemical_formula_sum "Si O2"
_cell_formula_units_Z 96
_cell_length_a 22.720253
_cell_length_b 12.397343
_cell_length_c 14.785407
_cell_angle_alpha 90.000000
_cell_angle_beta 90.000000
_cell_angle_gamma 90.000000
_cell_volume 4164.616967
_symmetry_space_group_name_H-M "I B A M"
_symmetry_group_IT_number 72
_symmetry_cell_setting 'orthorhombic'
loop_
_space_group_symop_operation_xyz
x,y,z
-x,-y,z
x,-y,1/2-z
-x,y,1/2-z
-x,-y,-z
x,y,-z
-x,y,1/2+z
x,-y,1/2+z
1/2+x,1/2+y,1/2+z
1/2-x,1/2-y,1/2+z
1/2+x,1/2-y,-z
1/2-x,1/2+y,-z
1/2-x,1/2-y,1/2-z
1/2+x,1/2+y,1/2-z
1/2-x,1/2+y,z
1/2+x,1/2-y,z
loop_
_atom_site_type_symbol
_atom_site_label
_atom_site_fract_x
_atom_site_fract_y
_atom_site_fract_z
Si Si1 0.897149 0.269074 0.897475
Si Si2 0.681771 0.623799 0.399455
Si Si3 0.347457 0.879688 0.099101
Si Si4 0.288712 0.856670 0.717556
Si Si5 0.477885 0.168437 0.655239
Si Si6 0.578226 0.383970 0.235637
O O1 0.847433 0.330828 0.840042
O O2 0.906502 0.166008 0.832999
O O3 0.961616 0.325294 0.900150
O O4 0.877920 0.247988 0.000000
O O5 0.674752 0.578090 0.500000
O O6 0.670896 0.753122 0.407356
O O7 0.743504 0.595172 0.354653
O O8 0.634173 0.591629 0.326320
O O9 0.312401 0.911202 0.189904
O O10 0.418312 0.883977 0.116601
O O11 0.335016 0.929138 0.000000
O O12 0.250000 0.750000 0.750000
O O13 0.500000 0.120348 0.750000
O O14 0.457225 0.291306 0.680923
O O15 0.552761 0.500000 0.250000
#
# Coordination Sequence:
#
# PCOD9524962 Si02
#       6
#    16  16  16  16  16  16
#     4  11  20  30  46  67  89 115 153 198 238 274
#     4   9  17  30  47  63  85 115 151 192 236 285
#     4   9  15  25  43  62  82 113 144 173 224 284
#     4  10  16  30  44  66  86 109 146 193 240 285
#     4   9  16  30  42  60  90 120 149 189 231 270
#     4  10  20  34  47  62  88 124 167 200 226 267
#
# _framework density 23.051338000000001
#
# number of rings (size 3 to 8) (size 9 to 14) (size 15 to 20)
#    0.000    2.333    6.667    1.000    0.000    5.000 
#    0.000    0.833    0.000    0.000    0.000    0.000 
#    0.000    0.000    0.000    3.000    0.667   14.000 
#
# Total GULP energy -267482.384532 kJ/mol
# GULP energy per Si atom -5572.549678 kJ/mol
# Density = 2.299887 g / cm^3
# Si number density = 23.051338 Si / 1000 Ang^3
#
#
#
# Elastic Constant Matrix: (Units=GPa)
#
#
# Indices 1 2 3 4 5 6 
#
# 1 86.1331 20.3314 45.9102 0.0000 0.0000 0.0000
# 2 20.3314 42.2531 18.5948 0.0000 0.0000 0.0000
# 3 45.9102 18.5948 210.1214 0.0000 0.0000 0.0000
# 4 0.0000 0.0000 0.0000 5.3502 0.0000 0.0000
# 5 0.0000 0.0000 0.0000 0.0000 24.0545 0.0000
# 6 0.0000 0.0000 0.0000 0.0000 0.0000 -67.8778
#
#
#
# Elastic Compliance Matrix: (Units=1/GPa)
#
#
# Indices 1 2 3 4 5 6 
#
# 1 0.014371 -0.005757 -0.002630 0.000000 0.000000 0.000000
# 2 -0.005757 0.026933 -0.001125 0.000000 0.000000 0.000000
# 3 -0.002630 -0.001125 0.005433 0.000000 0.000000 0.000000
# 4 0.000000 0.000000 0.000000 0.186908 0.000000 0.000000
# 5 0.000000 0.000000 0.000000 0.000000 0.041572 0.000000
# 6 0.000000 0.000000 0.000000 0.000000 0.000000 -0.014732
#
#
# Mechanical properties :
#
#
# Convention : Reuss Voigt Hill
#
# Bulk Modulus (GPa) = 36.08759 56.46449 46.27604
# Shear Modulus (GPa) = 17.31613 9.21682 13.26647
#
# Velocity S-wave (km/s) = 2.74377 2.00177 2.40160
# Velocity P-wave (km/s) = 5.07218 5.46727 5.27343
#
# Compressibility (1/GPa) = 0.02771036
#
# Stress axis : x y z
#
# Youngs Moduli (GPa) = 69.58445 37.12982 184.04377
#
# Poissons Ratio (x) = 0.21377 0.48412
# Poissons Ratio (y) = 0.40063 0.20713
# Poissons Ratio (z) = 0.18304 0.04179
#
# Static dielectric constant tensor:
#      x y z
#    x 1.921480 0.000000 0.000000 
#    y 0.000000 1.942130 0.000000 
#    z 0.000000 0.000000 2.008200 
# 
# From -- ./inp_files/24395.got.cif
#   From: 2010.05.17/outbox.cif.g08.bks.cpg/sg72_13_cif.got.tgz:24395.got - 2010.06.03 17:03:01.
