data_PCOD9524984
_publ_section_title
;
Structure prediction by ZEFSAII (Michael W. Deem and Ramdas Pophale) SiO2 
 PCOD9524984
Probable space group: I B A M
;
_chemical_formula_sum "Si O2"
_cell_formula_units_Z 104
_cell_length_a 7.248322
_cell_length_b 29.275305
_cell_length_c 21.212969
_cell_angle_alpha 90.000000
_cell_angle_beta 90.000000
_cell_angle_gamma 90.000000
_cell_volume 4501.324931
_symmetry_space_group_name_H-M "I B A M"
_symmetry_group_IT_number 72
_symmetry_cell_setting 'orthorhombic'
loop_
_space_group_symop_operation_xyz
x,y,z
-x,-y,z
x,-y,1/2-z
-x,y,1/2-z
-x,-y,-z
x,y,-z
-x,y,1/2+z
x,-y,1/2+z
1/2+x,1/2+y,1/2+z
1/2-x,1/2-y,1/2+z
1/2+x,1/2-y,-z
1/2-x,1/2+y,-z
1/2-x,1/2-y,1/2-z
1/2+x,1/2+y,1/2-z
1/2-x,1/2+y,z
1/2+x,1/2-y,z
loop_
_atom_site_type_symbol
_atom_site_label
_atom_site_fract_x
_atom_site_fract_y
_atom_site_fract_z
Si Si1 0.126359 0.310395 0.603137
Si Si2 0.950996 0.791939 0.427333
Si Si3 0.725620 0.124831 0.292968
Si Si4 0.253267 0.542285 0.572860
Si Si5 0.325619 0.056739 0.896419
Si Si6 0.645228 0.372803 0.657603
Si Si7 0.149389 0.623945 0.000000
O O1 0.051934 0.259499 0.598595
O O2 0.335422 0.307432 0.574709
O O3 0.134884 0.331853 0.672217
O O4 0.040451 0.346762 0.555378
O O5 0.888764 0.791900 0.500000
O O6 0.839150 0.826848 0.383613
O O7 0.660061 0.078546 0.327421
O O8 0.719890 0.124978 0.217877
O O9 0.939839 0.127871 0.313823
O O10 0.310517 0.544315 0.500000
O O11 0.278309 0.491255 0.599852
O O12 0.333893 0.582488 0.614969
O O13 0.030835 0.549739 0.575217
O O14 0.245961 0.094035 0.944329
#
# Coordination Sequence:
#
# PCOD9524984 Si02
#       7
#    16  16  16  16  16  16   8
#     4  10  21  35  61  81 118 146 198 231 298 338
#     4  11  20  37  55  89 114 153 186 249 287 353
#     4   9  22  43  59  84 110 175 193 239 289 357
#     4  11  21  39  58  95 117 153 186 257 292 354
#     4  10  20  37  64  82 122 151 197 232 306 351
#     4  10  23  40  60  81 127 150 208 240 289 340
#     4  10  16  35  56  83 110 153 176 233 274 367
#
# _framework density 23.104308
#
# number of rings (size 3 to 8) (size 9 to 14) (size 15 to 20)
#    0.000    1.846    3.077    0.923    0.000    4.923 
#    4.154    3.846    0.000    0.000    0.000    0.000 
#    0.000    0.000    0.000    0.000    0.000    0.000 
#
# Total GULP energy -289862.591324 kJ/mol
# GULP energy per Si atom -5574.280602 kJ/mol
# Density = 2.305172 g / cm^3
# Si number density = 23.104308 Si / 1000 Ang^3
#
#
#
# Elastic Constant Matrix: (Units=GPa)
#
#
# Indices 1 2 3 4 5 6 
#
# 1 43.2907 10.5726 29.3503 0.0000 0.0000 0.0000
# 2 10.5726 183.7457 70.4330 0.0000 0.0000 0.0000
# 3 29.3503 70.4330 126.4382 0.0000 0.0000 0.0000
# 4 0.0000 0.0000 0.0000 37.8990 0.0000 0.0000
# 5 0.0000 0.0000 0.0000 0.0000 15.8092 0.0000
# 6 0.0000 0.0000 0.0000 0.0000 0.0000 23.3667
#
#
#
# Elastic Compliance Matrix: (Units=1/GPa)
#
#
# Indices 1 2 3 4 5 6 
#
# 1 0.027589 0.001103 -0.007019 0.000000 0.000000 0.000000
# 2 0.001103 0.006964 -0.004135 0.000000 0.000000 0.000000
# 3 -0.007019 -0.004135 0.011842 0.000000 0.000000 0.000000
# 4 0.000000 0.000000 0.000000 0.026386 0.000000 0.000000
# 5 0.000000 0.000000 0.000000 0.000000 0.063254 0.000000
# 6 0.000000 0.000000 0.000000 0.000000 0.000000 0.042796
#
#
# Mechanical properties :
#
#
# Convention : Reuss Voigt Hill
#
# Bulk Modulus (GPa) = 38.03362 63.79849 50.91605
# Shear Modulus (GPa) = 24.07353 31.62291 27.84822
#
# Velocity S-wave (km/s) = 3.23143 3.70361 3.47555
# Velocity P-wave (km/s) = 5.51546 6.77954 6.17990
#
# Compressibility (1/GPa) = 0.02629253
#
# Stress axis : x y z
#
# Youngs Moduli (GPa) = 36.24666 143.59571 84.44624
#
# Poissons Ratio (x) = -0.15837 0.59269
# Poissons Ratio (y) = -0.03998 0.34921
# Poissons Ratio (z) = 0.25440 0.59382
#
# Static dielectric constant tensor:
#      x y z
#    x 2.022930 0.000000 0.000000 
#    y 0.000000 1.959080 0.000000 
#    z 0.000000 0.000000 1.824830 
# 
# From -- ./inp_files/36150.got.cif
#   From: 2010.05.17/outbox.cif.g08.bks.cpg/sg72_19_cif.got.tgz:36150.got - 2010.06.03 17:03:01.
