data_PCOD9524748
_publ_section_title
;
Structure prediction by ZEFSAII (Michael W. Deem and Ramdas Pophale) SiO2 
 PCOD9524748
Probable space group: I M M M
;
_chemical_formula_sum "Si O2"
_cell_formula_units_Z 52
_cell_length_a 9.000000
_cell_length_b 27.000000
_cell_length_c 21.000000
_cell_angle_alpha 90.000000
_cell_angle_beta 90.000000
_cell_angle_gamma 90.000000
_cell_volume 5103.000000
_symmetry_space_group_name_H-M "I M M M"
_symmetry_group_IT_number 71
_symmetry_cell_setting 'orthorhombic'
loop_
_space_group_symop_operation_xyz
x,y,z
-x,-y,z
x,-y,-z
-x,y,-z
-x,-y,-z
x,y,-z
-x,y,z
x,-y,z
1/2+x,1/2+y,1/2+z
1/2-x,1/2-y,1/2+z
1/2+x,1/2-y,1/2-z
1/2-x,1/2+y,1/2-z
1/2-x,1/2-y,1/2-z
1/2+x,1/2+y,1/2-z
1/2-x,1/2+y,1/2+z
1/2+x,1/2-y,1/2+z
loop_
_atom_site_type_symbol
_atom_site_label
_atom_site_fract_x
_atom_site_fract_y
_atom_site_fract_z
Si Si1 0.826245 0.138748 0.261733
Si Si2 0.681484 0.207847 0.432194
Si Si3 0.670356 0.443552 0.348583
Si Si4 0.322092 0.712040 0.660123
Si Si5 0.168910 0.631959 0.424793
Si Si6 0.677449 0.894627 0.612739
Si Si7 0.673693 0.000000 0.575973
O O1 0.821781 0.094212 0.210435
O O2 0.771262 0.188667 0.226532
O O3 0.719302 0.122773 0.317479
O O4 0.000000 0.144251 0.281288
O O5 0.726467 0.230548 0.500000
O O6 0.500000 0.208736 0.430127
O O7 0.736160 0.237542 0.370697
O O8 0.729899 0.151064 0.429851
O O9 0.500000 0.441436 0.372330
O O10 0.702846 0.500000 0.330326
O O11 0.780975 0.421836 0.400753
O O12 0.500000 0.714886 0.665191
O O13 0.278739 0.670849 0.607991
O O14 0.177034 0.635389 0.500000
O O15 0.000000 0.642424 0.403861
O O16 0.500000 0.897683 0.603360
O O17 0.742028 0.948619 0.599178
O O18 0.500000 0.000000 0.597065
O O19 0.673797 0.000000 0.500000
#
# Coordination Sequence:
#
# PCOD9524748 Si02
#       7
#    16  16  16  16  16  16   8
#     4   9  19  34  51  74 104 135 170 213 262 311
#     4   9  17  31  54  81 104 131 175 226 265 304
#     4   9  19  35  53  71  94 132 180 223 260 306
#     4   9  18  34  55  75  98 135 181 220 257 307
#     4  10  20  32  47  72 105 136 167 210 269 324
#     4  10  20  33  53  81 107 136 175 216 263 318
#     4   9  18  34  55  79 109 141 174 217 264 311
#
# _framework density 10.190084000000001
#
# number of rings (size 3 to 8) (size 9 to 14) (size 15 to 20)
#    0.000    2.692    0.000    2.308    1.077    7.385 
#    0.000    2.308    0.000    3.231    0.000    0.000 
#    0.000    0.000    0.000    0.000    0.000    0.000 
#
# Total GULP energy -289602.350912 kJ/mol
# GULP energy per Si atom -5569.275979 kJ/mol
# Density = 1.016689 g / cm^3
# Si number density = 10.190084 Si / 1000 Ang^3
#
#
#
# Elastic Constant Matrix: (Units=GPa)
#
#
# Indices 1 2 3 4 5 6 
#
# 1 -35.0641 -11.3185 -16.1331 0.0000 0.0000 0.0000
# 2 -11.3185 127.6789 37.3192 0.0000 0.0000 0.0000
# 3 -16.1331 37.3192 43.6001 0.0000 0.0000 0.0000
# 4 0.0000 0.0000 0.0000 16.7548 0.0000 0.0000
# 5 0.0000 0.0000 0.0000 0.0000 4.8315 0.0000
# 6 0.0000 0.0000 0.0000 0.0000 0.0000 -25.2018
#
#
#
# Elastic Compliance Matrix: (Units=1/GPa)
#
#
# Indices 1 2 3 4 5 6 
#
# 1 -0.024332 0.000633 -0.009545 0.000000 0.000000 0.000000
# 2 0.000633 0.010429 -0.008692 0.000000 0.000000 0.000000
# 3 -0.009545 -0.008692 0.026844 0.000000 0.000000 0.000000
# 4 0.000000 0.000000 0.000000 0.059684 0.000000 0.000000
# 5 0.000000 0.000000 0.000000 0.000000 0.206973 0.000000
# 6 0.000000 0.000000 0.000000 0.000000 0.000000 -0.039680
#
#
# Mechanical properties :
#
#
# Convention : Reuss Voigt Hill
#
# Bulk Modulus (GPa) = -44.90773 17.32778 -13.78997
# Shear Modulus (GPa) = 18.67724 7.70006 13.18865
#
# Velocity S-wave (km/s) = 3.03056 1.94587 2.54664
# Velocity P-wave (km/s) = 3.13641 3.68365 1.36605
#
# Compressibility (1/GPa) = -0.02226788
#
# Stress axis : x y z
#
# Youngs Moduli (GPa) = -41.09852 95.88697 37.25232
#
# Poissons Ratio (x) = -0.06069 0.35558
# Poissons Ratio (y) = 0.02601 0.32381
# Poissons Ratio (z) = -0.39229 0.83348
#
# Static dielectric constant tensor:
#      x y z
#    x 1.698670 0.000000 0.000000 
#    y 0.000000 1.780960 0.000000 
#    z 0.000000 0.000000 1.754760 
# 
# From -- ./inp_files/50904.got.cif
#   From: 2010.05.17/outbox.ucp.g08.bks.cvg/sg71_26_cif.got.tgz:50904.got - 2010.06.11 16:29:00.
