data_PCOD9524661
_publ_section_title
;
Structure prediction by ZEFSAII (Michael W. Deem and Ramdas Pophale) SiO2 
 PCOD9524661
Probable space group: I M M M
;
_chemical_formula_sum "Si O2"
_cell_formula_units_Z 80
_cell_length_a 23.926385
_cell_length_b 23.992538
_cell_length_c 7.467044
_cell_angle_alpha 90.000000
_cell_angle_beta 90.000000
_cell_angle_gamma 90.000000
_cell_volume 4286.491713
_symmetry_space_group_name_H-M "I M M M"
_symmetry_group_IT_number 71
_symmetry_cell_setting 'orthorhombic'
loop_
_space_group_symop_operation_xyz
x,y,z
-x,-y,z
x,-y,-z
-x,y,-z
-x,-y,-z
x,y,-z
-x,y,z
x,-y,z
1/2+x,1/2+y,1/2+z
1/2-x,1/2-y,1/2+z
1/2+x,1/2-y,1/2-z
1/2-x,1/2+y,1/2-z
1/2-x,1/2-y,1/2-z
1/2+x,1/2+y,1/2-z
1/2-x,1/2+y,1/2+z
1/2+x,1/2-y,1/2+z
loop_
_atom_site_type_symbol
_atom_site_label
_atom_site_fract_x
_atom_site_fract_y
_atom_site_fract_z
Si Si1 0.936548 0.067518 0.000000
Si Si2 0.934189 0.653220 0.713660
Si Si3 0.268270 0.334429 0.216783
Si Si4 0.344876 0.434718 0.786920
Si Si5 0.339847 0.768860 0.793822
Si Si6 0.932299 0.562679 0.000000
O O1 0.899337 0.082240 0.826863
O O2 0.000000 0.089153 0.000000
O O3 0.940206 0.000000 0.000000
O O4 0.925717 0.645566 0.500000
O O5 0.896308 0.704548 0.778957
O O6 0.000000 0.663055 0.743469
O O7 0.917143 0.598762 0.825809
O O8 0.293839 0.394147 0.263050
O O9 0.311045 0.286331 0.283408
O O10 0.207648 0.316713 0.285278
O O11 0.264899 0.331060 0.000000
O O12 0.333254 0.500000 0.750682
O O13 0.354849 0.428726 0.000000
O O14 0.351623 0.754847 0.000000
O O15 0.909912 0.500000 0.000000
O O16 0.000000 0.559174 0.000000
#
# Coordination Sequence:
#
# PCOD9524661 Si02
#       6
#     8  16  16  16  16   8
#     4   9  18  32  51  75 101 133 171 206 246 300
#     4   9  18  33  52  73 101 135 170 212 258 303
#     4   9  18  32  51  75 100 132 172 214 256 304
#     4   9  18  33  52  74 103 137 170 209 256 303
#     4   9  18  32  51  75  99 130 173 214 257 305
#     4   9  18  32  51  75 101 133 171 204 246 304
#
# _framework density 18.663281000000001
#
# number of rings (size 3 to 8) (size 9 to 14) (size 15 to 20)
#    0.000    3.000    0.000    0.000    2.800    0.800 
#    0.000    6.000    0.000    6.000    0.000    0.000 
#    0.000    0.000    0.000    0.000    0.000    0.000 
#
# Total GULP energy -222803.464046 kJ/mol
# GULP energy per Si atom -5570.086601 kJ/mol
# Density = 1.862080 g / cm^3
# Si number density = 18.663281 Si / 1000 Ang^3
#
#
#
# Elastic Constant Matrix: (Units=GPa)
#
#
# Indices 1 2 3 4 5 6 
#
# 1 55.6059 37.7236 14.0794 0.0000 0.0000 0.0000
# 2 37.7236 62.1063 16.2569 0.0000 0.0000 0.0000
# 3 14.0794 16.2569 60.1182 0.0000 0.0000 0.0000
# 4 0.0000 0.0000 0.0000 48.0886 0.0000 0.0000
# 5 0.0000 0.0000 0.0000 0.0000 16.1341 0.0000
# 6 0.0000 0.0000 0.0000 0.0000 0.0000 21.9980
#
#
#
# Elastic Compliance Matrix: (Units=1/GPa)
#
#
# Indices 1 2 3 4 5 6 
#
# 1 0.030887 -0.018152 -0.002325 0.000000 0.000000 0.000000
# 2 -0.018152 0.027996 -0.003319 0.000000 0.000000 0.000000
# 3 -0.002325 -0.003319 0.018076 0.000000 0.000000 0.000000
# 4 0.000000 0.000000 0.000000 0.020795 0.000000 0.000000
# 5 0.000000 0.000000 0.000000 0.000000 0.061980 0.000000
# 6 0.000000 0.000000 0.000000 0.000000 0.000000 0.045459
#
#
# Mechanical properties :
#
#
# Convention : Reuss Voigt Hill
#
# Bulk Modulus (GPa) = 34.05315 34.88335 34.46825
# Shear Modulus (GPa) = 19.04214 24.56218 21.80216
#
# Velocity S-wave (km/s) = 3.19768 3.63170 3.42158
# Velocity P-wave (km/s) = 5.64971 6.02637 5.84108
#
# Compressibility (1/GPa) = 0.02936586
#
# Stress axis : x y z
#
# Youngs Moduli (GPa) = 32.37589 35.71919 55.32198
#
# Poissons Ratio (x) = 0.64839 0.12862
# Poissons Ratio (y) = 0.58770 0.18364
# Poissons Ratio (z) = 0.07527 0.11857
#
# Static dielectric constant tensor:
#      x y z
#    x 1.632050 0.000000 0.000000 
#    y 0.000000 1.651290 0.000000 
#    z 0.000000 0.000000 1.685580 
# 
# From -- ./inp_files/12757.got.cif
#   From: 2010.05.17/outbox.cif.g08.bks.cpg/sg71_7_cif.got.tgz:12757.got - 2010.06.03 16:22:01.
