data_PCOD9524946
_publ_section_title
;
Structure prediction by ZEFSAII (Michael W. Deem and Ramdas Pophale) SiO2 
 PCOD9524946
Probable space group: I B A M
;
_chemical_formula_sum "Si O2"
_cell_formula_units_Z 64
_cell_length_a 21.958380
_cell_length_b 9.320933
_cell_length_c 13.716761
_cell_angle_alpha 90.000000
_cell_angle_beta 90.000000
_cell_angle_gamma 90.000000
_cell_volume 2807.444983
_symmetry_space_group_name_H-M "I B A M"
_symmetry_group_IT_number 72
_symmetry_cell_setting 'orthorhombic'
loop_
_space_group_symop_operation_xyz
x,y,z
-x,-y,z
x,-y,1/2-z
-x,y,1/2-z
-x,-y,-z
x,y,-z
-x,y,1/2+z
x,-y,1/2+z
1/2+x,1/2+y,1/2+z
1/2-x,1/2-y,1/2+z
1/2+x,1/2-y,-z
1/2-x,1/2+y,-z
1/2-x,1/2-y,1/2-z
1/2+x,1/2+y,1/2-z
1/2-x,1/2+y,z
1/2+x,1/2-y,z
loop_
_atom_site_type_symbol
_atom_site_label
_atom_site_fract_x
_atom_site_fract_y
_atom_site_fract_z
Si Si1 0.278288 0.605805 0.000000
Si Si2 0.120824 0.006998 0.862705
Si Si3 0.576781 0.180139 0.838901
Si Si4 0.665107 0.077640 0.000000
Si Si5 0.063374 0.699828 0.887735
O O1 0.314302 0.529191 0.087556
O O2 0.208716 0.559670 0.000000
O O3 0.293089 0.775596 0.000000
O O4 0.085942 0.156192 0.875326
O O5 0.132770 0.000000 0.750000
O O6 0.081132 0.869539 0.891415
O O7 0.623495 0.089892 0.903728
O O8 0.588762 0.163592 0.722683
O O9 0.506851 0.157595 0.868274
O O10 0.077612 0.652367 0.000000
#
# Coordination Sequence:
#
# PCOD9524946 Si02
#       5
#     8  16  16   8  16
#     4  10  20  35  55  77 111 154 197 232 282 322
#     4   9  17  29  47  76 109 141 182 226 279 335
#     4   9  18  28  45  78 112 147 173 232 290 349
#     4  10  20  37  55  81 115 152 195 238 274 332
#     4  10  16  26  47  76 114 144 174 222 304 357
#
# _framework density 22.796527000000001
#
# number of rings (size 3 to 8) (size 9 to 14) (size 15 to 20)
#    0.000    2.500    2.500    0.750    0.000    4.000 
#    0.000   11.250    0.000    0.000    0.000    3.500 
#    0.000   56.000    0.000    0.000    0.000    0.000 
#
# Total GULP energy -178382.989574 kJ/mol
# GULP energy per Si atom -5574.468424 kJ/mol
# Density = 2.274464 g / cm^3
# Si number density = 22.796527 Si / 1000 Ang^3
#
#
#
# Elastic Constant Matrix: (Units=GPa)
#
#
# Indices 1 2 3 4 5 6 
#
# 1 99.8926 24.8651 63.4091 0.0000 0.0000 0.0000
# 2 24.8651 90.0556 66.1936 0.0000 0.0000 0.0000
# 3 63.4091 66.1936 211.0902 0.0000 0.0000 0.0000
# 4 0.0000 0.0000 0.0000 44.9556 0.0000 0.0000
# 5 0.0000 0.0000 0.0000 0.0000 33.1279 0.0000
# 6 0.0000 0.0000 0.0000 0.0000 0.0000 -91.3051
#
#
#
# Elastic Compliance Matrix: (Units=1/GPa)
#
#
# Indices 1 2 3 4 5 6 
#
# 1 0.012424 -0.000893 -0.003452 0.000000 0.000000 0.000000
# 2 -0.000893 0.014495 -0.004277 0.000000 0.000000 0.000000
# 3 -0.003452 -0.004277 0.007115 0.000000 0.000000 0.000000
# 4 0.000000 0.000000 0.000000 0.022244 0.000000 0.000000
# 5 0.000000 0.000000 0.000000 0.000000 0.030186 0.000000
# 6 0.000000 0.000000 0.000000 0.000000 0.000000 -0.010952
#
#
# Mechanical properties :
#
#
# Convention : Reuss Voigt Hill
#
# Bulk Modulus (GPa) = 59.55878 78.88602 69.22240
# Shear Modulus (GPa) = 50.83725 13.79370 32.31547
#
# Velocity S-wave (km/s) = 4.72746 2.46250 3.76914
# Velocity P-wave (km/s) = 7.48207 6.53948 7.02660
#
# Compressibility (1/GPa) = 0.01679014
#
# Stress axis : x y z
#
# Youngs Moduli (GPa) = 80.48710 68.99165 140.53960
#
# Poissons Ratio (x) = 0.06161 0.48515
# Poissons Ratio (y) = 0.07188 0.60108
# Poissons Ratio (z) = 0.27785 0.29507
#
# Static dielectric constant tensor:
#      x y z
#    x 1.807540 0.000000 0.000000 
#    y 0.000000 1.949150 0.000000 
#    z 0.000000 0.000000 1.844570 
# 
# From -- ./inp_files/22823.got.cif
#   From: 2010.05.17/outbox.cif.g08.bks.cpg/sg72_12_cif.got.tgz:22823.got - 2010.06.03 17:03:01.
