data_PCOD9524279
_publ_section_title
;
Structure prediction by ZEFSAII (Michael W. Deem and Ramdas Pophale) SiO2 
 PCOD9524279
Probable space group: I M M M
;
_chemical_formula_sum "Si O2"
_cell_formula_units_Z 64
_cell_length_a 24.587541
_cell_length_b 8.131738
_cell_length_c 16.063128
_cell_angle_alpha 90.000000
_cell_angle_beta 90.000000
_cell_angle_gamma 90.000000
_cell_volume 3211.652841
_symmetry_space_group_name_H-M "I M M M"
_symmetry_group_IT_number 71
_symmetry_cell_setting 'orthorhombic'
loop_
_space_group_symop_operation_xyz
x,y,z
-x,-y,z
x,-y,-z
-x,y,-z
-x,-y,-z
x,y,-z
-x,y,z
x,-y,z
1/2+x,1/2+y,1/2+z
1/2-x,1/2-y,1/2+z
1/2+x,1/2-y,1/2-z
1/2-x,1/2+y,1/2-z
1/2-x,1/2-y,1/2-z
1/2+x,1/2+y,1/2-z
1/2-x,1/2+y,1/2+z
1/2+x,1/2-y,1/2+z
loop_
_atom_site_type_symbol
_atom_site_label
_atom_site_fract_x
_atom_site_fract_y
_atom_site_fract_z
Si Si1 0.000000 0.197079 0.096465
Si Si2 0.500000 0.799597 0.903305
Si Si3 0.812261 0.195135 0.000000
Si Si4 0.311346 0.798354 0.000000
Si Si5 0.382609 0.804141 0.657402
Si Si6 0.117737 0.298824 0.341564
O O1 0.945073 0.256935 0.139784
O O2 0.000000 0.000000 0.096116
O O3 0.000000 0.254073 0.000000
O O4 0.555801 0.746172 0.860356
O O5 0.500000 0.000000 0.902001
O O6 0.500000 0.750172 0.000000
O O7 0.845502 0.243594 0.917925
O O8 0.750715 0.260822 0.000000
O O9 0.808283 0.000000 0.000000
O O10 0.343553 0.746257 0.082960
O O11 0.311614 0.000000 0.000000
O O12 0.365997 0.743178 0.749237
O O13 0.379286 0.000000 0.658119
O O14 0.117964 0.500000 0.342030
#
# Coordination Sequence:
#
# PCOD9524279 Si02
#       6
#     8   8   8   8  16  16
#     4  11  22  37  59  84 113 149 184 218 271 340
#     4   9  13  22  46  77 110 138 165 211 272 330
#     4  11  23  38  55  77 108 152 196 229 274 331
#     4   9  18  34  54  77 112 150 187 231 274 327
#     4  11  22  36  58  86 114 142 181 233 281 325
#     4   9  17  30  51  83 114 143 179 224 279 329
#
# _framework density 19.927433000000001
#
# number of rings (size 3 to 8) (size 9 to 14) (size 15 to 20)
#    0.000    2.000    2.500    2.250    0.000    3.500 
#    0.000    0.000    0.000    4.500    0.000    0.875 
#    0.000    0.000    0.000    0.000    0.000    0.000 
#
# Total GULP energy -178715.952524 kJ/mol
# GULP energy per Si atom -5584.873516 kJ/mol
# Density = 1.988208 g / cm^3
# Si number density = 19.927433 Si / 1000 Ang^3
#
#
#
# Elastic Constant Matrix: (Units=GPa)
#
#
# Indices 1 2 3 4 5 6 
#
# 1 172.4993 10.7216 106.9802 0.0000 0.0000 0.0000
# 2 10.7216 19.3324 17.6061 0.0000 0.0000 0.0000
# 3 106.9802 17.6061 222.6738 0.0000 0.0000 0.0000
# 4 0.0000 0.0000 0.0000 -2.5179 0.0000 0.0000
# 5 0.0000 0.0000 0.0000 0.0000 -2.5036 0.0000
# 6 0.0000 0.0000 0.0000 0.0000 0.0000 -22.4451
#
#
#
# Elastic Compliance Matrix: (Units=1/GPa)
#
#
# Indices 1 2 3 4 5 6 
#
# 1 0.008277 -0.001044 -0.003894 0.000000 0.000000 0.000000
# 2 -0.001044 0.055872 -0.003916 0.000000 0.000000 0.000000
# 3 -0.003894 -0.003916 0.006671 0.000000 0.000000 0.000000
# 4 0.000000 0.000000 0.000000 -0.397155 0.000000 0.000000
# 5 0.000000 0.000000 0.000000 0.000000 -0.399421 0.000000
# 6 0.000000 0.000000 0.000000 0.000000 0.000000 -0.044553
#
#
# Mechanical properties :
#
#
# Convention : Reuss Voigt Hill
#
# Bulk Modulus (GPa) = 18.82813 76.12458 47.47635
# Shear Modulus (GPa) = -6.80368 13.11985 3.15808
#
# Velocity S-wave (km/s) = -1.84977 2.56868 1.26025
# Velocity P-wave (km/s) = 2.21510 6.86158 5.09843
#
# Compressibility (1/GPa) = 0.05311202
#
# Stress axis : x y z
#
# Youngs Moduli (GPa) = 120.81682 17.89810 149.89558
#
# Poissons Ratio (x) = 0.01869 0.58369
# Poissons Ratio (y) = 0.12614 0.58699
# Poissons Ratio (z) = 0.47046 0.07009
#
# Static dielectric constant tensor:
#      x y z
#    x 1.577470 0.000000 0.000000 
#    y 0.000000 1.703360 0.000000 
#    z 0.000000 0.000000 1.718880 
# 
# From -- ./inp_files/12051.got.cif
#   From: 2010.05.17/outbox.cif.g08.bks.cpg/sg71_7_cif.got.tgz:12051.got - 2010.06.03 16:22:01.
