data_PCOD9524127
_publ_section_title
;
Structure prediction by ZEFSAII (Michael W. Deem and Ramdas Pophale) SiO2 
 PCOD9524127
Probable space group: I M M M
;
_chemical_formula_sum "Si O2"
_cell_formula_units_Z 80
_cell_length_a 22.924863
_cell_length_b 8.666305
_cell_length_c 21.246054
_cell_angle_alpha 90.000000
_cell_angle_beta 90.000000
_cell_angle_gamma 90.000000
_cell_volume 4221.035448
_symmetry_space_group_name_H-M "I M M M"
_symmetry_group_IT_number 71
_symmetry_cell_setting 'orthorhombic'
loop_
_space_group_symop_operation_xyz
x,y,z
-x,-y,z
x,-y,-z
-x,y,-z
-x,-y,-z
x,y,-z
-x,y,z
x,-y,z
1/2+x,1/2+y,1/2+z
1/2-x,1/2-y,1/2+z
1/2+x,1/2-y,1/2-z
1/2-x,1/2+y,1/2-z
1/2-x,1/2-y,1/2-z
1/2+x,1/2+y,1/2-z
1/2-x,1/2+y,1/2+z
1/2+x,1/2-y,1/2+z
loop_
_atom_site_type_symbol
_atom_site_label
_atom_site_fract_x
_atom_site_fract_y
_atom_site_fract_z
Si Si1 0.638930 0.827085 0.123773
Si Si2 0.431987 0.684372 0.241472
Si Si3 0.264640 0.326416 0.684607
Si Si4 0.809111 0.183140 0.500000
Si Si5 0.626150 0.820679 0.632876
Si Si6 0.830418 0.310956 0.000000
O O1 0.602198 0.753296 0.181153
O O2 0.704290 0.840791 0.149596
O O3 0.616217 0.000000 0.110587
O O4 0.652109 0.735275 0.059852
O O5 0.500000 0.726144 0.236530
O O6 0.426217 0.500000 0.239243
O O7 0.408522 0.741485 0.309668
O O8 0.290549 0.500000 0.689861
O O9 0.250000 0.250000 0.750000
O O10 0.306961 0.205937 0.652070
O O11 0.739356 0.239718 0.500000
O O12 0.803904 0.000000 0.500000
O O13 0.631558 0.761626 0.561082
O O14 0.609576 0.000000 0.632042
O O15 0.828613 0.500000 0.000000
#
# Coordination Sequence:
#
# PCOD9524127 Si02
#       6
#    16  16  16   8  16   8
#     4  11  23  38  59  90 124 158 199 245 297 357
#     4  11  25  44  64  86 114 155 207 257 305 356
#     4  11  21  32  53  87 123 156 192 242 299 358
#     4  11  21  37  60  89 130 167 194 235 295 362
#     4  11  21  37  60  88 121 158 199 245 297 355
#     4   9  20  35  56  89 126 160 194 232 288 359
#
# _framework density 18.952694999999999
#
# number of rings (size 3 to 8) (size 9 to 14) (size 15 to 20)
#    0.000    1.200    4.000    2.700    0.000    3.200 
#    0.000    3.000    0.000    6.000    0.000    0.000 
#    0.000    0.000    0.000    0.000    0.000    0.000 
#
# Total GULP energy -222706.937116 kJ/mol
# GULP energy per Si atom -5567.673428 kJ/mol
# Density = 1.890956 g / cm^3
# Si number density = 18.952695 Si / 1000 Ang^3
#
#
#
# Elastic Constant Matrix: (Units=GPa)
#
#
# Indices 1 2 3 4 5 6 
#
# 1 79.9805 12.1611 29.1727 0.0000 0.0000 0.0000
# 2 12.1611 46.3428 31.2399 0.0000 0.0000 0.0000
# 3 29.1727 31.2399 147.3563 0.0000 0.0000 0.0000
# 4 0.0000 0.0000 0.0000 15.4660 0.0000 0.0000
# 5 0.0000 0.0000 0.0000 0.0000 1.2496 0.0000
# 6 0.0000 0.0000 0.0000 0.0000 0.0000 22.9650
#
#
#
# Elastic Compliance Matrix: (Units=1/GPa)
#
#
# Indices 1 2 3 4 5 6 
#
# 1 0.013641 -0.002053 -0.002266 0.000000 0.000000 0.000000
# 2 -0.002053 0.025485 -0.004997 0.000000 0.000000 0.000000
# 3 -0.002266 -0.004997 0.008294 0.000000 0.000000 0.000000
# 4 0.000000 0.000000 0.000000 0.064658 0.000000 0.000000
# 5 0.000000 0.000000 0.000000 0.000000 0.800257 0.000000
# 6 0.000000 0.000000 0.000000 0.000000 0.000000 0.043545
#
#
# Mechanical properties :
#
#
# Convention : Reuss Voigt Hill
#
# Bulk Modulus (GPa) = 34.73253 46.53633 40.63443
# Shear Modulus (GPa) = 5.08075 21.34319 13.21197
#
# Velocity S-wave (km/s) = 1.63908 3.35943 2.64313
# Velocity P-wave (km/s) = 4.68485 6.29721 5.54990
#
# Compressibility (1/GPa) = 0.02879145
#
# Stress axis : x y z
#
# Youngs Moduli (GPa) = 73.30579 39.23848 120.56815
#
# Poissons Ratio (x) = 0.08054 0.27315
# Poissons Ratio (y) = 0.15047 0.60243
# Poissons Ratio (z) = 0.16607 0.19606
#
# Static dielectric constant tensor:
#      x y z
#    x 1.629330 0.000000 0.000000 
#    y 0.000000 1.694920 0.000000 
#    z 0.000000 0.000000 1.721870 
# 
# From -- ./inp_files/55442.got.cif
#   From: 2010.05.17/outbox.cif.g08.bks.cpg/sg71_28_cif.got.tgz:55442.got - 2010.06.03 16:22:01.
