data_PCOD9524756
_publ_section_title
;
Structure prediction by ZEFSAII (Michael W. Deem and Ramdas Pophale) SiO2 
 PCOD9524756
Probable space group: I M M M
;
_chemical_formula_sum "Si O2"
_cell_formula_units_Z 60
_cell_length_a 27.000000
_cell_length_b 9.000000
_cell_length_c 27.000000
_cell_angle_alpha 90.000000
_cell_angle_beta 90.000000
_cell_angle_gamma 90.000000
_cell_volume 6561.000000
_symmetry_space_group_name_H-M "I M M M"
_symmetry_group_IT_number 71
_symmetry_cell_setting 'orthorhombic'
loop_
_space_group_symop_operation_xyz
x,y,z
-x,-y,z
x,-y,-z
-x,y,-z
-x,-y,-z
x,y,-z
-x,y,z
x,-y,z
1/2+x,1/2+y,1/2+z
1/2-x,1/2-y,1/2+z
1/2+x,1/2-y,1/2-z
1/2-x,1/2+y,1/2-z
1/2-x,1/2-y,1/2-z
1/2+x,1/2+y,1/2-z
1/2-x,1/2+y,1/2+z
1/2+x,1/2-y,1/2+z
loop_
_atom_site_type_symbol
_atom_site_label
_atom_site_fract_x
_atom_site_fract_y
_atom_site_fract_z
Si Si1 0.155377 0.173765 0.555729
Si Si2 0.118863 0.179673 0.830059
Si Si3 0.914822 0.323090 0.372451
Si Si4 0.941147 0.823271 0.731596
Si Si5 0.723217 0.822400 0.702212
Si Si6 0.636145 0.678047 0.442636
Si Si7 0.000000 0.820727 0.440845
Si Si8 0.764148 0.328570 0.090256
O O1 0.138480 0.214850 0.500000
O O2 0.135071 0.275993 0.599449
O O3 0.214528 0.180980 0.558809
O O4 0.141054 0.000000 0.563926
O O5 0.079154 0.216223 0.786642
O O6 0.169137 0.253334 0.808973
O O7 0.110720 0.224029 0.888710
O O8 0.124196 0.000000 0.830613
O O9 0.922090 0.500000 0.371574
O O10 0.918669 0.260559 0.316345
O O11 0.954326 0.245208 0.409469
O O12 0.000000 0.798074 0.730072
O O13 0.931836 0.000000 0.724832
O O14 0.750000 0.750000 0.750000
O O15 0.748484 0.796908 0.648178
O O16 0.720280 0.000000 0.710243
O O17 0.622715 0.729400 0.500000
O O18 0.631622 0.500000 0.444166
O O19 0.692584 0.726945 0.431554
O O20 0.000000 0.782099 0.500000
O O21 0.000000 0.000000 0.437971
O O22 0.782284 0.500000 0.089072
#
# Coordination Sequence:
#
# PCOD9524756 Si02
#       8
#    16  16  16  16  16  16   8  16
#     4  10  21  37  55  75 103 142 184 222 264 316
#     4   9  19  35  55  80 108 142 183 224 271 326
#     4  12  25  38  55  81 108 135 173 226 282 326
#     4  10  21  39  62  81 103 140 185 229 273 332
#     4  10  20  33  50  76 109 144 181 221 270 320
#     4   9  17  31  53  81 113 145 176 217 270 322
#     4  11  23  41  63  81 101 135 178 221 270 333
#     4   9  19  34  52  75 104 142 186 224 257 307
#
# _framework density 9.1449470000000002
#
# number of rings (size 3 to 8) (size 9 to 14) (size 15 to 20)
#    0.000    2.067    0.667    2.600    1.867    4.800 
#    0.000    0.000    0.000    0.400    0.000    2.800 
#    0.000    0.000    0.000    7.867    0.000    8.267 
#
# Total GULP energy -334256.116578 kJ/mol
# GULP energy per Si atom -5570.935276 kJ/mol
# Density = 0.912413 g / cm^3
# Si number density = 9.144947 Si / 1000 Ang^3
#
#
#
# Elastic Constant Matrix: (Units=GPa)
#
#
# Indices 1 2 3 4 5 6 
#
# 1 31.5508 17.8874 29.6302 0.0000 0.0000 0.0000
# 2 17.8874 50.6437 44.2786 0.0000 0.0000 0.0000
# 3 29.6302 44.2786 187.0948 0.0000 0.0000 0.0000
# 4 0.0000 0.0000 0.0000 24.6454 0.0000 0.0000
# 5 0.0000 0.0000 0.0000 0.0000 35.5026 0.0000
# 6 0.0000 0.0000 0.0000 0.0000 0.0000 16.8110
#
#
#
# Elastic Compliance Matrix: (Units=1/GPa)
#
#
# Indices 1 2 3 4 5 6 
#
# 1 0.041817 -0.011322 -0.003943 0.000000 0.000000 0.000000
# 2 -0.011322 0.027963 -0.004825 0.000000 0.000000 0.000000
# 3 -0.003943 -0.004825 0.007111 0.000000 0.000000 0.000000
# 4 0.000000 0.000000 0.000000 0.040576 0.000000 0.000000
# 5 0.000000 0.000000 0.000000 0.000000 0.028167 0.000000
# 6 0.000000 0.000000 0.000000 0.000000 0.000000 0.059485
#
#
# Mechanical properties :
#
#
# Convention : Reuss Voigt Hill
#
# Bulk Modulus (GPa) = 27.23964 50.32015 38.77990
# Shear Modulus (GPa) = 19.41475 27.22466 23.31970
#
# Velocity S-wave (km/s) = 3.26160 3.86230 3.57459
# Velocity P-wave (km/s) = 5.39534 6.88928 6.18756
#
# Compressibility (1/GPa) = 0.03671120
#
# Stress axis : x y z
#
# Youngs Moduli (GPa) = 23.91373 35.76124 140.62377
#
# Poissons Ratio (x) = 0.40490 0.55447
# Poissons Ratio (y) = 0.27076 0.67848
# Poissons Ratio (z) = 0.09429 0.17254
#
# Static dielectric constant tensor:
#      x y z
#    x 1.682220 0.000000 0.000000 
#    y 0.000000 1.621220 0.000000 
#    z 0.000000 0.000000 1.663000 
# 
# From -- ./inp_files/67203.got.cif
#   From: 2010.05.17/outbox.ucp.g08.bks.cvg/sg71_34_cif.got.tgz:67203.got - 2010.06.11 16:29:00.
