data_PCOD9524359
_publ_section_title
;
Structure prediction by ZEFSAII (Michael W. Deem and Ramdas Pophale) SiO2 
 PCOD9524359
Probable space group: I M M M
;
_chemical_formula_sum "Si O2"
_cell_formula_units_Z 104
_cell_length_a 24.644860
_cell_length_b 29.259815
_cell_length_c 8.901468
_cell_angle_alpha 90.000000
_cell_angle_beta 90.000000
_cell_angle_gamma 90.000000
_cell_volume 6418.884575
_symmetry_space_group_name_H-M "I M M M"
_symmetry_group_IT_number 71
_symmetry_cell_setting 'orthorhombic'
loop_
_space_group_symop_operation_xyz
x,y,z
-x,-y,z
x,-y,-z
-x,y,-z
-x,-y,-z
x,y,-z
-x,y,z
x,-y,z
1/2+x,1/2+y,1/2+z
1/2-x,1/2-y,1/2+z
1/2+x,1/2-y,1/2-z
1/2-x,1/2+y,1/2-z
1/2-x,1/2-y,1/2-z
1/2+x,1/2+y,1/2-z
1/2-x,1/2+y,1/2+z
1/2+x,1/2-y,1/2+z
loop_
_atom_site_type_symbol
_atom_site_label
_atom_site_fract_x
_atom_site_fract_y
_atom_site_fract_z
Si Si1 0.062651 0.870148 0.319070
Si Si2 0.563971 0.174042 0.681723
Si Si3 0.935072 0.500000 0.177629
Si Si4 0.145233 0.947923 0.316849
Si Si5 0.376756 0.912299 0.178722
Si Si6 0.065853 0.775634 0.826652
Si Si7 0.730745 0.054538 0.678338
O O1 0.062697 0.870563 0.500000
O O2 0.101695 0.910744 0.265555
O O3 0.082021 0.820397 0.264604
O O4 0.000000 0.876696 0.269478
O O5 0.568127 0.171559 0.500000
O O6 0.500000 0.168590 0.718668
O O7 0.597945 0.134102 0.756699
O O8 0.582365 0.225190 0.727750
O O9 0.909641 0.545002 0.251558
O O10 0.000000 0.500000 0.194986
O O11 0.922241 0.500000 0.000000
O O12 0.144241 0.948476 0.500000
O O13 0.207168 0.935949 0.275523
O O14 0.133519 0.000000 0.267934
O O15 0.314823 0.918795 0.231402
O O16 0.380836 0.913462 0.000000
O O17 0.000000 0.774400 0.824601
O O18 0.082653 0.780769 0.000000
O O19 0.725172 0.063851 0.500000
O O20 0.722096 0.000000 0.698482
#
# Coordination Sequence:
#
# PCOD9524359 Si02
#       7
#    16  16   8  16  16  16  16
#     4   9  16  26  45  75 106 130 153 190 241 286
#     4   9  18  33  51  69  91 124 164 198 232 286
#     4  11  23  37  51  67  93 131 166 191 226 287
#     4   8  15  28  47  72  98 128 167 200 227 274
#     4  12  23  32  47  72  99 122 151 202 254 288
#     4   8  15  29  48  68  92 125 163 196 227 277
#     4   9  17  32  52  66  84 124 173 206 230 276
#
# _framework density 16.202193000000001
#
# number of rings (size 3 to 8) (size 9 to 14) (size 15 to 20)
#    0.000    2.692    0.769    3.923    0.000    3.692 
#    0.000    3.846    0.000    2.308    0.000    2.154 
#    0.000    0.000    0.000    0.000    0.000    0.000 
#
# Total GULP energy -289801.274019 kJ/mol
# GULP energy per Si atom -5573.101423 kJ/mol
# Density = 1.616532 g / cm^3
# Si number density = 16.202193 Si / 1000 Ang^3
#
#
#
# Elastic Constant Matrix: (Units=GPa)
#
#
# Indices 1 2 3 4 5 6 
#
# 1 90.4426 87.0443 39.5753 0.0000 0.0000 0.0000
# 2 87.0443 155.0918 47.6808 0.0000 0.0000 0.0000
# 3 39.5753 47.6808 37.4778 0.0000 0.0000 0.0000
# 4 0.0000 0.0000 0.0000 22.8386 0.0000 0.0000
# 5 0.0000 0.0000 0.0000 0.0000 7.0467 0.0000
# 6 0.0000 0.0000 0.0000 0.0000 0.0000 4.3744
#
#
#
# Elastic Compliance Matrix: (Units=1/GPa)
#
#
# Indices 1 2 3 4 5 6 
#
# 1 0.029076 -0.011299 -0.016328 0.000000 0.000000 0.000000
# 2 -0.011299 0.014980 -0.007128 0.000000 0.000000 0.000000
# 3 -0.016328 -0.007128 0.052993 0.000000 0.000000 0.000000
# 4 0.000000 0.000000 0.000000 0.043786 0.000000 0.000000
# 5 0.000000 0.000000 0.000000 0.000000 0.141910 0.000000
# 6 0.000000 0.000000 0.000000 0.000000 0.000000 0.228602
#
#
# Mechanical properties :
#
#
# Convention : Reuss Voigt Hill
#
# Bulk Modulus (GPa) = 36.31152 70.17921 53.24536
# Shear Modulus (GPa) = 8.47407 14.09940 11.28673
#
# Velocity S-wave (km/s) = 2.28944 2.95314 2.64222
# Velocity P-wave (km/s) = 5.42668 7.41867 6.49945
#
# Compressibility (1/GPa) = 0.02753947
#
# Stress axis : x y z
#
# Youngs Moduli (GPa) = 34.39307 66.75398 18.87055
#
# Poissons Ratio (x) = 0.75423 0.30812
# Poissons Ratio (y) = 0.38859 0.13450
# Poissons Ratio (z) = 0.56158 0.47580
#
# Static dielectric constant tensor:
#      x y z
#    x 1.537780 0.000000 0.000000 
#    y 0.000000 1.539450 0.000000 
#    z 0.000000 0.000000 1.543270 
# 
# From -- ./inp_files/15553.got.cif
#   From: 2010.05.17/outbox.cif.g08.bks.cpg/sg71_8_cif.got.tgz:15553.got - 2010.06.03 16:22:01.
