data_PCOD9524746
_publ_section_title
;
Structure prediction by ZEFSAII (Michael W. Deem and Ramdas Pophale) SiO2 
 PCOD9524746
Probable space group: I M M M
;
_chemical_formula_sum "Si O2"
_cell_formula_units_Z 50
_cell_length_a 18.000000
_cell_length_b 21.000000
_cell_length_c 15.000000
_cell_angle_alpha 90.000000
_cell_angle_beta 90.000000
_cell_angle_gamma 90.000000
_cell_volume 5670.000000
_symmetry_space_group_name_H-M "I M M M"
_symmetry_group_IT_number 71
_symmetry_cell_setting 'orthorhombic'
loop_
_space_group_symop_operation_xyz
x,y,z
-x,-y,z
x,-y,-z
-x,y,-z
-x,-y,-z
x,y,-z
-x,y,z
x,-y,z
1/2+x,1/2+y,1/2+z
1/2-x,1/2-y,1/2+z
1/2+x,1/2-y,1/2-z
1/2-x,1/2+y,1/2-z
1/2-x,1/2-y,1/2-z
1/2+x,1/2+y,1/2-z
1/2-x,1/2+y,1/2+z
1/2+x,1/2-y,1/2+z
loop_
_atom_site_type_symbol
_atom_site_label
_atom_site_fract_x
_atom_site_fract_y
_atom_site_fract_z
Si Si1 0.217254 0.254757 0.649988
Si Si2 0.911528 0.075275 0.760539
Si Si3 0.000000 0.419077 0.000000
Si Si4 0.087359 0.701939 0.757001
Si Si5 0.370389 0.928401 0.347549
Si Si6 0.865846 0.812533 0.896299
Si Si7 0.796350 0.891469 0.399215
O O1 0.250000 0.250000 0.750000
O O2 0.133924 0.277132 0.670206
O O3 0.276497 0.301127 0.603682
O O4 0.215802 0.184865 0.607948
O O5 0.888252 0.124570 0.839640
O O6 0.856991 0.089521 0.676166
O O7 0.000000 0.085794 0.741139
O O8 0.903014 0.000000 0.783836
O O9 0.066120 0.421628 0.923162
O O10 0.115585 0.631898 0.784058
O O11 0.102985 0.751793 0.839229
O O12 0.000000 0.701708 0.741598
O O13 0.285340 0.921276 0.381833
O O14 0.378038 0.000000 0.309614
O O15 0.891235 0.813386 0.000000
O O16 0.820256 0.907913 0.500000
#
# Coordination Sequence:
#
# PCOD9524746 Si02
#       7
#    16  16   4  16  16  16  16
#     4  10  19  37  58  86 119 152 197 256 296 343
#     4  11  25  44  62  87 123 156 201 261 306 356
#     4  12  25  36  48  84 138 158 183 248 295 346
#     4  11  22  35  58  84 118 159 201 244 297 360
#     4  12  23  35  53  85 126 160 194 239 292 357
#     4  11  22  39  64  88 114 155 203 251 306 360
#     4  12  23  39  63  88 119 165 207 243 300 365
#
# _framework density 8.8183419999999995
#
# number of rings (size 3 to 8) (size 9 to 14) (size 15 to 20)
#    0.000    0.800    8.000    2.160    1.120    2.880 
#    0.000    1.600    0.000    1.440    0.000    0.000 
#    0.000    0.000    0.000   10.720    0.000    0.000 
#
# Total GULP energy -278425.023303 kJ/mol
# GULP energy per Si atom -5568.500466 kJ/mol
# Density = 0.879827 g / cm^3
# Si number density = 8.818342 Si / 1000 Ang^3
#
#
#
# Elastic Constant Matrix: (Units=GPa)
#
#
# Indices 1 2 3 4 5 6 
#
# 1 139.5173 43.0457 39.7946 0.0000 0.0000 0.0000
# 2 43.0457 128.7129 27.9952 0.0000 0.0000 0.0000
# 3 39.7946 27.9952 57.1652 0.0000 0.0000 0.0000
# 4 0.0000 0.0000 0.0000 -5.1258 0.0000 0.0000
# 5 0.0000 0.0000 0.0000 0.0000 24.4604 0.0000
# 6 0.0000 0.0000 0.0000 0.0000 0.0000 21.3017
#
#
#
# Elastic Compliance Matrix: (Units=1/GPa)
#
#
# Indices 1 2 3 4 5 6 
#
# 1 0.009347 -0.001915 -0.005569 0.000000 0.000000 0.000000
# 2 -0.001915 0.009088 -0.003118 0.000000 0.000000 0.000000
# 3 -0.005569 -0.003118 0.022897 0.000000 0.000000 0.000000
# 4 0.000000 0.000000 0.000000 -0.195091 0.000000 0.000000
# 5 0.000000 0.000000 0.000000 0.000000 0.040882 0.000000
# 6 0.000000 0.000000 0.000000 0.000000 0.000000 0.046945
#
#
# Mechanical properties :
#
#
# Convention : Reuss Voigt Hill
#
# Bulk Modulus (GPa) = 49.68029 60.78514 55.23272
# Shear Modulus (GPa) = -131.50588 22.43125 -54.53732
#
# Velocity S-wave (km/s) = -8.64440 3.57017 -5.56685
# Velocity P-wave (km/s) = 8.45011 7.17878 3.15195
#
# Compressibility (1/GPa) = 0.02012871
#
# Stress axis : x y z
#
# Youngs Moduli (GPa) = 106.98941 110.03985 43.67446
#
# Poissons Ratio (x) = 0.21068 0.24322
# Poissons Ratio (y) = 0.20484 0.13616
# Poissons Ratio (z) = 0.59582 0.34306
#
# Static dielectric constant tensor:
#      x y z
#    x 1.635740 0.000000 0.000000 
#    y 0.000000 1.623620 0.000000 
#    z 0.000000 0.000000 1.592730 
# 
# From -- ./inp_files/36709.got.cif
#   From: 2010.05.17/outbox.ucp.g08.bks.cvg/sg71_19_cif.got.tgz:36709.got - 2010.06.11 16:29:00.
