data_PCOD9524062
_publ_section_title
;
Structure prediction by ZEFSAII (Michael W. Deem and Ramdas Pophale) SiO2 
 PCOD9524062
Probable space group: I M M M
;
_chemical_formula_sum "Si O2"
_cell_formula_units_Z 96
_cell_length_a 12.276831
_cell_length_b 19.481802
_cell_length_c 24.850996
_cell_angle_alpha 90.000000
_cell_angle_beta 90.000000
_cell_angle_gamma 90.000000
_cell_volume 5943.731768
_symmetry_space_group_name_H-M "I M M M"
_symmetry_group_IT_number 71
_symmetry_cell_setting 'orthorhombic'
loop_
_space_group_symop_operation_xyz
x,y,z
-x,-y,z
x,-y,-z
-x,y,-z
-x,-y,-z
x,y,-z
-x,y,z
x,-y,z
1/2+x,1/2+y,1/2+z
1/2-x,1/2-y,1/2+z
1/2+x,1/2-y,1/2-z
1/2-x,1/2+y,1/2-z
1/2-x,1/2-y,1/2-z
1/2+x,1/2+y,1/2-z
1/2-x,1/2+y,1/2+z
1/2+x,1/2-y,1/2+z
loop_
_atom_site_type_symbol
_atom_site_label
_atom_site_fract_x
_atom_site_fract_y
_atom_site_fract_z
Si Si1 0.500000 0.578880 0.197873
Si Si2 0.811180 0.813907 0.324606
Si Si3 0.373140 0.823167 0.239888
Si Si4 0.763003 0.078157 0.837410
Si Si5 0.627687 0.730509 0.939335
Si Si6 0.375207 0.103828 0.060940
Si Si7 0.500000 0.578427 0.673067
O O1 0.500000 0.500000 0.178310
O O2 0.392334 0.621538 0.181720
O O3 0.500000 0.576907 0.262543
O O4 0.695331 0.822749 0.295199
O O5 0.863059 0.749687 0.291464
O O6 0.807376 0.796426 0.387824
O O7 0.500000 0.838947 0.246980
O O8 0.311992 0.877669 0.201818
O O9 0.706173 0.076633 0.894953
O O10 0.884004 0.109858 0.842573
O O11 0.774609 0.000000 0.816601
O O12 0.500000 0.710850 0.932427
O O13 0.630329 0.813290 0.937575
O O14 0.661556 0.709586 0.000000
O O15 0.500000 0.084678 0.073727
O O16 0.351646 0.082260 0.000000
O O17 0.500000 0.500000 0.651457
#
# Coordination Sequence:
#
# PCOD9524062 Si02
#       7
#     8  16  16  16  16  16   8
#     4  11  20  34  55  77 104 140 170 201 261 323
#     4  11  20  34  54  76 107 136 171 217 256 314
#     4  11  22  33  50  79 107 138 175 215 261 305
#     4  11  21  34  52  74 105 142 178 219 260 310
#     4   9  16  29  52  77 100 131 168 209 263 312
#     4   9  18  32  49  72 102 135 175 220 263 306
#     4   9  20  36  49  71 105 142 175 207 263 320
#
# _framework density 16.15147
#
# number of rings (size 3 to 8) (size 9 to 14) (size 15 to 20)
#    0.000    1.833    5.000    1.500    0.000    1.667 
#    0.000    1.250    0.000    3.000    0.000    0.000 
#    0.000    0.000    0.000    3.000    0.000    0.000 
#
# Total GULP energy -267597.220361 kJ/mol
# GULP energy per Si atom -5574.942091 kJ/mol
# Density = 1.611471 g / cm^3
# Si number density = 16.151470 Si / 1000 Ang^3
#
#
#
# Elastic Constant Matrix: (Units=GPa)
#
#
# Indices 1 2 3 4 5 6 
#
# 1 140.0879 36.6721 67.0948 0.0000 0.0000 0.0000
# 2 36.6721 70.5663 25.3815 0.0000 0.0000 0.0000
# 3 67.0948 25.3815 115.4897 0.0000 0.0000 0.0000
# 4 0.0000 0.0000 0.0000 13.3123 0.0000 0.0000
# 5 0.0000 0.0000 0.0000 0.0000 23.3625 0.0000
# 6 0.0000 0.0000 0.0000 0.0000 0.0000 18.5336
#
#
#
# Elastic Compliance Matrix: (Units=1/GPa)
#
#
# Indices 1 2 3 4 5 6 
#
# 1 0.010671 -0.003600 -0.005408 0.000000 0.000000 0.000000
# 2 -0.003600 0.016602 -0.001557 0.000000 0.000000 0.000000
# 3 -0.005408 -0.001557 0.012143 0.000000 0.000000 0.000000
# 4 0.000000 0.000000 0.000000 0.075119 0.000000 0.000000
# 5 0.000000 0.000000 0.000000 0.000000 0.042804 0.000000
# 6 0.000000 0.000000 0.000000 0.000000 0.000000 0.053956
#
#
# Mechanical properties :
#
#
# Convention : Reuss Voigt Hill
#
# Bulk Modulus (GPa) = 54.68976 64.93786 59.81381
# Shear Modulus (GPa) = 20.96253 24.17470 22.56861
#
# Velocity S-wave (km/s) = 3.60651 3.87298 3.74212
# Velocity P-wave (km/s) = 7.16077 7.76484 7.46891
#
# Compressibility (1/GPa) = 0.01828496
#
# Stress axis : x y z
#
# Youngs Moduli (GPa) = 93.71071 60.23311 82.35237
#
# Poissons Ratio (x) = 0.21686 0.44538
# Poissons Ratio (y) = 0.33739 0.12823
# Poissons Ratio (z) = 0.50681 0.09379
#
# Static dielectric constant tensor:
#      x y z
#    x 1.550890 0.000000 0.000000 
#    y 0.000000 1.574980 0.000000 
#    z 0.000000 0.000000 1.536740 
# 
# From -- ./inp_files/59000.got.cif
#   From: 2010.05.17/outbox.cif.g08.bks.cpg/sg71_30_cif.got.tgz:59000.got - 2010.06.03 16:22:01.
