data_PCOD9524231
_publ_section_title
;
Structure prediction by ZEFSAII (Michael W. Deem and Ramdas Pophale) SiO2 
 PCOD9524231
Probable space group: I M M M
;
_chemical_formula_sum "Si O2"
_cell_formula_units_Z 104
_cell_length_a 20.367261
_cell_length_b 15.025597
_cell_length_c 17.098995
_cell_angle_alpha 90.000000
_cell_angle_beta 90.000000
_cell_angle_gamma 90.000000
_cell_volume 5232.809813
_symmetry_space_group_name_H-M "I M M M"
_symmetry_group_IT_number 71
_symmetry_cell_setting 'orthorhombic'
loop_
_space_group_symop_operation_xyz
x,y,z
-x,-y,z
x,-y,-z
-x,y,-z
-x,-y,-z
x,y,-z
-x,y,z
x,-y,z
1/2+x,1/2+y,1/2+z
1/2-x,1/2-y,1/2+z
1/2+x,1/2-y,1/2-z
1/2-x,1/2+y,1/2-z
1/2-x,1/2-y,1/2-z
1/2+x,1/2+y,1/2-z
1/2-x,1/2+y,1/2+z
1/2+x,1/2-y,1/2+z
loop_
_atom_site_type_symbol
_atom_site_label
_atom_site_fract_x
_atom_site_fract_y
_atom_site_fract_z
Si Si1 0.232166 0.395286 0.187814
Si Si2 0.119389 0.162335 0.333245
Si Si3 0.426236 0.604204 0.000000
Si Si4 0.821243 0.235247 0.090698
Si Si5 0.424499 0.601921 0.670005
Si Si6 0.210442 0.596568 0.371372
Si Si7 0.925594 0.663120 0.409917
O O1 0.234815 0.500000 0.163061
O O2 0.304693 0.351655 0.187631
O O3 0.189168 0.328805 0.135118
O O4 0.209263 0.394678 0.277557
O O5 0.110224 0.125093 0.419984
O O6 0.080899 0.114328 0.263757
O O7 0.091128 0.261103 0.346107
O O8 0.433840 0.500000 0.000000
O O9 0.500000 0.643120 0.000000
O O10 0.876197 0.173663 0.131514
O O11 0.754011 0.177276 0.096533
O O12 0.836494 0.249858 0.000000
O O13 0.500000 0.615114 0.646017
O O14 0.405299 0.500000 0.651267
O O15 0.240228 0.500000 0.390789
O O16 0.136327 0.599270 0.401910
O O17 0.922357 0.697267 0.500000
O O18 0.000000 0.629572 0.398497
#
# Coordination Sequence:
#
# PCOD9524231 Si02
#       7
#    16  16   8  16  16  16  16
#     4  11  24  42  66  94 126 163 213 267 318 377
#     4  12  21  38  59  90 129 169 208 258 311 376
#     4  11  22  32  50  84 125 167 206 247 305 381
#     4  12  25  42  65  95 126 167 214 266 321 376
#     4  11  24  42  66  95 128 168 212 262 320 381
#     4  11  23  42  65  90 123 168 216 265 316 375
#     4  11  23  38  59  91 130 170 211 256 312 379
#
# _framework density 19.874599
#
# number of rings (size 3 to 8) (size 9 to 14) (size 15 to 20)
#    0.000    0.692    3.846    5.077    1.077    4.308 
#    0.000    1.538    0.000    1.385    0.000    1.077 
#    0.000    0.000    0.000    0.000    0.000    0.000 
#
# Total GULP energy -290417.316452 kJ/mol
# GULP energy per Si atom -5584.948393 kJ/mol
# Density = 1.982936 g / cm^3
# Si number density = 19.874599 Si / 1000 Ang^3
#
#
#
# Elastic Constant Matrix: (Units=GPa)
#
#
# Indices 1 2 3 4 5 6 
#
# 1 119.0607 26.8686 30.2375 0.0000 0.0000 0.0000
# 2 26.8686 73.5278 15.1087 0.0000 0.0000 0.0000
# 3 30.2375 15.1087 87.6059 0.0000 0.0000 0.0000
# 4 0.0000 0.0000 0.0000 10.4935 0.0000 0.0000
# 5 0.0000 0.0000 0.0000 0.0000 24.7648 0.0000
# 6 0.0000 0.0000 0.0000 0.0000 0.0000 30.4293
#
#
#
# Elastic Compliance Matrix: (Units=1/GPa)
#
#
# Indices 1 2 3 4 5 6 
#
# 1 0.009803 -0.002993 -0.002867 0.000000 0.000000 0.000000
# 2 -0.002993 0.015014 -0.001556 0.000000 0.000000 0.000000
# 3 -0.002867 -0.001556 0.012673 0.000000 0.000000 0.000000
# 4 0.000000 0.000000 0.000000 0.095297 0.000000 0.000000
# 5 0.000000 0.000000 0.000000 0.000000 0.040380 0.000000
# 6 0.000000 0.000000 0.000000 0.000000 0.000000 0.032863
#
#
# Mechanical properties :
#
#
# Convention : Reuss Voigt Hill
#
# Bulk Modulus (GPa) = 44.13787 47.18046 45.65917
# Shear Modulus (GPa) = 21.89004 27.00283 24.44644
#
# Velocity S-wave (km/s) = 3.32235 3.69000 3.51099
# Velocity P-wave (km/s) = 6.08060 6.47653 6.28168
#
# Compressibility (1/GPa) = 0.02265628
#
# Stress axis : x y z
#
# Youngs Moduli (GPa) = 102.01288 66.60553 78.90918
#
# Poissons Ratio (x) = 0.19935 0.22625
# Poissons Ratio (y) = 0.30532 0.12281
# Poissons Ratio (z) = 0.29250 0.10366
#
# Static dielectric constant tensor:
#      x y z
#    x 1.763030 0.000000 0.000000 
#    y 0.000000 1.754170 0.000000 
#    z 0.000000 0.000000 1.651050 
# 
# From -- ./inp_files/47310.got.cif
#   From: 2010.05.17/outbox.cif.g08.bks.cpg/sg71_24_cif.got.tgz:47310.got - 2010.06.03 16:22:01.
