data_PCOD9524178
_publ_section_title
;
Structure prediction by ZEFSAII (Michael W. Deem and Ramdas Pophale) SiO2 
 PCOD9524178
Probable space group: I M M M
;
_chemical_formula_sum "Si O2"
_cell_formula_units_Z 72
_cell_length_a 22.105717
_cell_length_b 8.888184
_cell_length_c 19.925336
_cell_angle_alpha 90.000000
_cell_angle_beta 90.000000
_cell_angle_gamma 90.000000
_cell_volume 3914.923644
_symmetry_space_group_name_H-M "I M M M"
_symmetry_group_IT_number 71
_symmetry_cell_setting 'orthorhombic'
loop_
_space_group_symop_operation_xyz
x,y,z
-x,-y,z
x,-y,-z
-x,y,-z
-x,-y,-z
x,y,-z
-x,y,z
x,-y,z
1/2+x,1/2+y,1/2+z
1/2-x,1/2-y,1/2+z
1/2+x,1/2-y,1/2-z
1/2-x,1/2+y,1/2-z
1/2-x,1/2-y,1/2-z
1/2+x,1/2+y,1/2-z
1/2-x,1/2+y,1/2+z
1/2+x,1/2-y,1/2+z
loop_
_atom_site_type_symbol
_atom_site_label
_atom_site_fract_x
_atom_site_fract_y
_atom_site_fract_z
Si Si1 0.722645 0.680461 0.422716
Si Si2 0.929590 0.179767 0.702667
Si Si3 0.500000 0.182965 0.577068
Si Si4 0.635588 0.180701 0.922941
Si Si5 0.117390 0.319672 0.162980
O O1 0.707739 0.721375 0.500000
O O2 0.715992 0.500000 0.416579
O O3 0.793361 0.715775 0.411769
O O4 0.678060 0.761858 0.372055
O O5 0.904592 0.237882 0.631975
O O6 0.892397 0.252894 0.763379
O O7 0.000000 0.222918 0.710551
O O8 0.925063 0.000000 0.706198
O O9 0.500000 0.235502 0.500000
O O10 0.439909 0.229370 0.617117
O O11 0.500000 0.000000 0.575761
O O12 0.628908 0.000000 0.916736
O O13 0.620720 0.221169 0.000000
O O14 0.117431 0.500000 0.166373
#
# Coordination Sequence:
#
# PCOD9524178 Si02
#       5
#    16  16   8  16  16
#     4   9  19  37  59  85 118 151 186 233 285 338
#     4  11  24  40  58  82 116 152 189 237 289 341
#     4   9  18  32  51  79 112 145 186 233 275 320
#     4   9  20  40  64  87 112 146 189 235 284 342
#     4  11  21  35  57  83 115 154 193 235 281 332
#
# _framework density 18.391162999999999
#
# number of rings (size 3 to 8) (size 9 to 14) (size 15 to 20)
#    0.000    2.111    1.111    3.333    0.000    5.333 
#    0.000    4.444    0.000    2.667    0.000    0.000 
#    0.000    0.000    0.000    0.000    0.000    0.000 
#
# Total GULP energy -201066.171109 kJ/mol
# GULP energy per Si atom -5585.171420 kJ/mol
# Density = 1.834930 g / cm^3
# Si number density = 18.391163 Si / 1000 Ang^3
#
#
#
# Elastic Constant Matrix: (Units=GPa)
#
#
# Indices 1 2 3 4 5 6 
#
# 1 40.9983 30.4673 41.3942 0.0000 0.0000 0.0000
# 2 30.4673 35.0299 38.8261 0.0000 0.0000 0.0000
# 3 41.3942 38.8261 111.7491 0.0000 0.0000 0.0000
# 4 0.0000 0.0000 0.0000 31.8470 0.0000 0.0000
# 5 0.0000 0.0000 0.0000 0.0000 29.1374 0.0000
# 6 0.0000 0.0000 0.0000 0.0000 0.0000 29.7750
#
#
#
# Elastic Compliance Matrix: (Units=1/GPa)
#
#
# Indices 1 2 3 4 5 6 
#
# 1 0.073243 -0.054694 -0.008128 0.000000 0.000000 0.000000
# 2 -0.054694 0.087268 -0.010060 0.000000 0.000000 0.000000
# 3 -0.008128 -0.010060 0.015455 0.000000 0.000000 0.000000
# 4 0.000000 0.000000 0.000000 0.031400 0.000000 0.000000
# 5 0.000000 0.000000 0.000000 0.000000 0.034320 0.000000
# 6 0.000000 0.000000 0.000000 0.000000 0.000000 0.033585
#
#
# Mechanical properties :
#
#
# Convention : Reuss Voigt Hill
#
# Bulk Modulus (GPa) = 33.11201 45.46139 39.28670
# Shear Modulus (GPa) = 11.59816 23.29120 17.44468
#
# Velocity S-wave (km/s) = 2.51397 3.56256 3.08317
# Velocity P-wave (km/s) = 5.14492 6.45719 5.83804
#
# Compressibility (1/GPa) = 0.03020052
#
# Stress axis : x y z
#
# Youngs Moduli (GPa) = 13.65324 11.45894 64.70533
#
# Poissons Ratio (x) = 0.62674 0.52590
# Poissons Ratio (y) = 0.74676 0.65096
# Poissons Ratio (z) = 0.11097 0.11528
#
# Static dielectric constant tensor:
#      x y z
#    x 1.615310 0.000000 0.000000 
#    y 0.000000 1.611940 0.000000 
#    z 0.000000 0.000000 1.610890 
# 
# From -- ./inp_files/7959.got.cif
#   From: 2010.05.17/outbox.cif.g08.bks.cpg/sg71_4_cif.got.tgz:7959.got - 2010.06.03 16:22:01.
