data_PCOD9524712
_publ_section_title
;
Structure prediction by ZEFSAII (Michael W. Deem and Ramdas Pophale) SiO2 
 PCOD9524712
Probable space group: I M M M
;
_chemical_formula_sum "Si O2"
_cell_formula_units_Z 44
_cell_length_a 9.000000
_cell_length_b 24.000000
_cell_length_c 21.000000
_cell_angle_alpha 90.000000
_cell_angle_beta 90.000000
_cell_angle_gamma 90.000000
_cell_volume 4536.000000
_symmetry_space_group_name_H-M "I M M M"
_symmetry_group_IT_number 71
_symmetry_cell_setting 'orthorhombic'
loop_
_space_group_symop_operation_xyz
x,y,z
-x,-y,z
x,-y,-z
-x,y,-z
-x,-y,-z
x,y,-z
-x,y,z
x,-y,z
1/2+x,1/2+y,1/2+z
1/2-x,1/2-y,1/2+z
1/2+x,1/2-y,1/2-z
1/2-x,1/2+y,1/2-z
1/2-x,1/2-y,1/2-z
1/2+x,1/2+y,1/2-z
1/2-x,1/2+y,1/2+z
1/2+x,1/2-y,1/2+z
loop_
_atom_site_type_symbol
_atom_site_label
_atom_site_fract_x
_atom_site_fract_y
_atom_site_fract_z
Si Si1 0.665848 0.681370 0.308166
Si Si2 0.820005 0.610871 0.929372
Si Si3 0.669968 0.185941 0.316640
Si Si4 0.820269 0.500000 0.145792
Si Si5 0.323099 0.500000 0.283565
Si Si6 0.833501 0.933704 0.000000
Si Si7 0.827573 0.591906 0.629653
O O1 0.500000 0.660627 0.322926
O O2 0.665863 0.747624 0.315035
O O3 0.715390 0.666829 0.236743
O O4 0.790856 0.654785 0.351715
O O5 0.784338 0.662504 0.884506
O O6 0.777431 0.554515 0.893731
O O7 0.000000 0.609369 0.933831
O O8 0.758632 0.614398 0.000000
O O9 0.500000 0.166014 0.302370
O O10 0.741746 0.500000 0.213210
O O11 0.000000 0.500000 0.154443
O O12 0.500000 0.500000 0.284512
O O13 0.259845 0.553187 0.320940
O O14 0.741908 0.917915 0.938517
O O15 0.000000 0.909503 0.000000
O O16 0.847285 0.000000 0.000000
O O17 0.000000 0.578645 0.631848
#
# Coordination Sequence:
#
# PCOD9524712 Si02
#       7
#    16  16  16   8   8   8  16
#     4  10  20  35  56  83 113 149 194 245 294 337
#     4   9  17  31  53  81 113 146 188 234 279 335
#     4   9  18  34  56  82 112 151 197 242 290 343
#     4  10  19  32  55  87 116 147 184 229 283 339
#     4  12  24  38  58  85 116 147 185 235 282 334
#     4  11  23  41  63  85 116 152 188 231 282 343
#     4  12  24  39  60  85 115 151 190 234 285 345
#
# _framework density 9.7001760000000008
#
# number of rings (size 3 to 8) (size 9 to 14) (size 15 to 20)
#    0.000    1.727    0.909    4.636    0.000    3.636 
#    1.636    0.000    0.000    2.727    0.000    0.000 
#    0.000    0.000    0.000    0.000    0.000    0.000 
#
# Total GULP energy -245490.679555 kJ/mol
# GULP energy per Si atom -5579.333626 kJ/mol
# Density = 0.967810 g / cm^3
# Si number density = 9.700176 Si / 1000 Ang^3
#
#
#
# Elastic Constant Matrix: (Units=GPa)
#
#
# Indices 1 2 3 4 5 6 
#
# 1 88.5584 29.2319 53.8579 0.0000 0.0000 0.0000
# 2 29.2319 25.7134 49.3538 0.0000 -0.0001 0.0000
# 3 53.8579 49.3538 171.1407 0.0000 -0.0004 0.0000
# 4 0.0000 0.0000 0.0000 40.5901 -0.0002 0.0000
# 5 0.0000 -0.0001 -0.0004 -0.0002 -786.0292 0.0000
# 6 0.0000 0.0000 0.0000 0.0000 0.0000 16.1323
#
#
#
# Elastic Compliance Matrix: (Units=1/GPa)
#
#
# Indices 1 2 3 4 5 6 
#
# 1 0.018096 -0.021595 0.000533 0.000000 0.000000 0.000000
# 2 -0.021595 0.112873 -0.025755 0.000000 0.000000 0.000000
# 3 0.000533 -0.025755 0.013103 0.000000 0.000000 0.000000
# 4 0.000000 0.000000 0.000000 0.024637 0.000000 0.000000
# 5 0.000000 0.000000 0.000000 0.000000 -0.001272 0.000000
# 6 0.000000 0.000000 0.000000 0.000000 0.000000 0.061988
#
#
# Mechanical properties :
#
#
# Convention : Reuss Voigt Hill
#
# Bulk Modulus (GPa) = 19.82617 61.14442 40.48529
# Shear Modulus (GPa) = 14.71148 -135.66344 -60.47598
#
# Velocity S-wave (km/s) = 2.75673 -8.37139 -5.58930
# Velocity P-wave (km/s) = 4.51380 7.86477 4.55413
#
# Compressibility (1/GPa) = 0.05043839
#
# Stress axis : x y z
#
# Youngs Moduli (GPa) = 55.26015 8.85949 76.32032
#
# Poissons Ratio (x) = 0.19132 -0.04066
# Poissons Ratio (y) = 1.19334 1.96560
# Poissons Ratio (z) = -0.02944 0.22817
#
# Static dielectric constant tensor:
#      x y z
#    x 1.669010 0.000000 0.000000 
#    y 0.000000 1.709840 0.000000 
#    z 0.000000 0.000000 1.556500 
# 
# From -- ./inp_files/50575.got.cif
#   From: 2010.05.17/outbox.ucp.g08.bks.cvg/sg71_26_cif.got.tgz:50575.got - 2010.06.11 16:29:00.
