data_PCOD9524718
_publ_section_title
;
Structure prediction by ZEFSAII (Michael W. Deem and Ramdas Pophale) SiO2 
 PCOD9524718
Probable space group: I M M M
;
_chemical_formula_sum "Si O2"
_cell_formula_units_Z 44
_cell_length_a 18.000000
_cell_length_b 9.000000
_cell_length_c 30.000000
_cell_angle_alpha 90.000000
_cell_angle_beta 90.000000
_cell_angle_gamma 90.000000
_cell_volume 4860.000000
_symmetry_space_group_name_H-M "I M M M"
_symmetry_group_IT_number 71
_symmetry_cell_setting 'orthorhombic'
loop_
_space_group_symop_operation_xyz
x,y,z
-x,-y,z
x,-y,-z
-x,y,-z
-x,-y,-z
x,y,-z
-x,y,z
x,-y,z
1/2+x,1/2+y,1/2+z
1/2-x,1/2-y,1/2+z
1/2+x,1/2-y,1/2-z
1/2-x,1/2+y,1/2-z
1/2-x,1/2-y,1/2-z
1/2+x,1/2+y,1/2-z
1/2-x,1/2+y,1/2+z
1/2+x,1/2-y,1/2+z
loop_
_atom_site_type_symbol
_atom_site_label
_atom_site_fract_x
_atom_site_fract_y
_atom_site_fract_z
Si Si1 0.089460 0.828755 0.368398
Si Si2 0.590400 0.172535 0.776746
Si Si3 0.660686 0.678237 0.409720
Si Si4 0.087588 0.320253 0.823263
Si Si5 0.087932 0.170977 0.000000
Si Si6 0.674605 0.822654 0.052198
O O1 0.115631 0.756354 0.321482
O O2 0.117486 0.750341 0.413327
O O3 0.000000 0.821785 0.367773
O O4 0.112850 0.000000 0.369271
O O5 0.500000 0.177134 0.776376
O O6 0.612051 0.227309 0.726999
O O7 0.612361 0.000000 0.780685
O O8 0.649023 0.500000 0.404728
O O9 0.634719 0.753821 0.363937
O O10 0.614736 0.734846 0.452939
O O11 0.745238 0.703771 0.425026
O O12 0.091629 0.500000 0.824001
O O13 0.000000 0.280006 0.828971
O O14 0.000000 0.167006 0.000000
O O15 0.117825 0.000000 0.000000
O O16 0.662721 0.000000 0.051391
O O17 0.672763 0.772526 0.000000
#
# Coordination Sequence:
#
# PCOD9524718 Si02
#       6
#    16  16  16  16   8  16
#     4  10  21  36  56  83 109 131 165 216 268 320
#     4   8  15  31  54  77 104 139 174 210 257 311
#     4  10  19  33  52  76 104 138 181 222 260 305
#     4   9  18  32  51  78 111 143 176 216 261 310
#     4   9  16  28  49  75 102 133 172 218 261 297
#     4  10  21  38  57  76 103 140 180 219 260 312
#
# _framework density 9.0534979999999994
#
# number of rings (size 3 to 8) (size 9 to 14) (size 15 to 20)
#    0.000    2.636    0.909    2.182    0.000    4.364 
#    0.000    5.000    0.000    1.636    0.000    0.000 
#    0.000    0.000    0.000    0.000    0.000    0.000 
#
# Total GULP energy -245125.769732 kJ/mol
# GULP energy per Si atom -5571.040221 kJ/mol
# Density = 0.903289 g / cm^3
# Si number density = 9.053498 Si / 1000 Ang^3
#
#
#
# Elastic Constant Matrix: (Units=GPa)
#
#
# Indices 1 2 3 4 5 6 
#
# 1 17.3555 23.5104 37.3084 0.0000 0.0000 0.0000
# 2 23.5104 36.3583 58.9306 0.0000 0.0000 0.0000
# 3 37.3084 58.9306 205.4787 0.0000 0.0000 0.0000
# 4 0.0000 0.0000 0.0000 37.7691 0.0000 0.0000
# 5 0.0000 0.0000 0.0000 0.0000 4.4559 0.0000
# 6 0.0000 0.0000 0.0000 0.0000 0.0000 18.2525
#
#
#
# Elastic Compliance Matrix: (Units=1/GPa)
#
#
# Indices 1 2 3 4 5 6 
#
# 1 0.465734 -0.306636 0.003380 0.000000 0.000000 0.000000
# 2 -0.306636 0.253282 -0.016965 0.000000 0.000000 0.000000
# 3 0.003380 -0.016965 0.009119 0.000000 0.000000 0.000000
# 4 0.000000 0.000000 0.000000 0.026477 0.000000 0.000000
# 5 0.000000 0.000000 0.000000 0.000000 0.224424 0.000000
# 6 0.000000 0.000000 0.000000 0.000000 0.000000 0.054787
#
#
# Mechanical properties :
#
#
# Convention : Reuss Voigt Hill
#
# Bulk Modulus (GPa) = 11.40358 55.41014 33.40686
# Shear Modulus (GPa) = 2.93514 21.39169 12.16342
#
# Velocity S-wave (km/s) = 1.27457 3.44089 2.59463
# Velocity P-wave (km/s) = 2.91163 6.81573 5.24079
#
# Compressibility (1/GPa) = 0.08769176
#
# Stress axis : x y z
#
# Youngs Moduli (GPa) = 2.14715 3.94817 109.66647
#
# Poissons Ratio (x) = 1.21065 -0.37063
# Poissons Ratio (y) = 0.65839 1.86049
# Poissons Ratio (z) = -0.00726 0.06698
#
# Static dielectric constant tensor:
#      x y z
#    x 1.639330 0.000000 0.000000 
#    y 0.000000 1.629500 0.000000 
#    z 0.000000 0.000000 1.625720 
# 
# From -- ./inp_files/10450.got.cif
#   From: 2010.05.17/outbox.ucp.g08.bks.cvg/sg71_6_cif.got.tgz:10450.got - 2010.06.11 16:29:00.
