data_PCOD9524264
_publ_section_title
;
Structure prediction by ZEFSAII (Michael W. Deem and Ramdas Pophale) SiO2 
 PCOD9524264
Probable space group: I M M M
;
_chemical_formula_sum "Si O2"
_cell_formula_units_Z 96
_cell_length_a 15.302026
_cell_length_b 23.197182
_cell_length_c 14.274443
_cell_angle_alpha 90.000000
_cell_angle_beta 90.000000
_cell_angle_gamma 90.000000
_cell_volume 5066.911702
_symmetry_space_group_name_H-M "I M M M"
_symmetry_group_IT_number 71
_symmetry_cell_setting 'orthorhombic'
loop_
_space_group_symop_operation_xyz
x,y,z
-x,-y,z
x,-y,-z
-x,y,-z
-x,-y,-z
x,y,-z
-x,y,z
x,-y,z
1/2+x,1/2+y,1/2+z
1/2-x,1/2-y,1/2+z
1/2+x,1/2-y,1/2-z
1/2-x,1/2+y,1/2-z
1/2-x,1/2-y,1/2-z
1/2+x,1/2+y,1/2-z
1/2-x,1/2+y,1/2+z
1/2+x,1/2-y,1/2+z
loop_
_atom_site_type_symbol
_atom_site_label
_atom_site_fract_x
_atom_site_fract_y
_atom_site_fract_z
Si Si1 0.299699 0.230299 0.608505
Si Si2 0.853603 0.567467 0.105228
Si Si3 0.598703 0.568340 0.279142
Si Si4 0.903398 0.344348 0.253406
Si Si5 0.332132 0.632851 0.894551
Si Si6 0.755168 0.863830 0.891464
O O1 0.324211 0.215317 0.500000
O O2 0.364854 0.205811 0.686371
O O3 0.207586 0.196577 0.625098
O O4 0.291446 0.298482 0.614568
O O5 0.850987 0.500000 0.123222
O O6 0.905231 0.601498 0.183261
O O7 0.755547 0.593420 0.107482
O O8 0.887694 0.576878 0.000000
O O9 0.500000 0.575263 0.317297
O O10 0.611940 0.500000 0.260866
O O11 0.607309 0.605917 0.184310
O O12 0.674486 0.593214 0.345671
O O13 0.834205 0.360738 0.333022
O O14 0.000000 0.330455 0.288360
O O15 0.368218 0.631707 0.000000
O O16 0.740680 0.877910 0.000000
#
# Coordination Sequence:
#
# PCOD9524264 Si02
#       6
#    16  16  16  16  16  16
#     4   9  19  38  63  90 118 150 192 237 294 368
#     4   9  17  31  54  83 116 152 185 221 278 352
#     4  11  24  40  61  89 118 155 210 263 305 354
#     4  11  22  35  58  90 121 151 188 237 292 358
#     4   9  17  33  60  90 121 151 180 229 300 373
#     4  11  24  43  63  81 115 162 205 254 302 343
#
# _framework density 18.946451
#
# number of rings (size 3 to 8) (size 9 to 14) (size 15 to 20)
#    0.000    2.000    3.333    2.500    0.000    4.667 
#    0.000    4.167    0.000    3.000    0.000    2.333 
#    0.000    0.000    0.000    0.000    0.000    0.000 
#
# Total GULP energy -267795.282435 kJ/mol
# GULP energy per Si atom -5579.068384 kJ/mol
# Density = 1.890333 g / cm^3
# Si number density = 18.946451 Si / 1000 Ang^3
#
#
#
# Elastic Constant Matrix: (Units=GPa)
#
#
# Indices 1 2 3 4 5 6 
#
# 1 101.5107 2.4969 41.7792 0.0001 0.0000 0.0000
# 2 2.4969 52.2859 -2.3861 0.0000 0.0000 0.0000
# 3 41.7792 -2.3861 78.6530 -0.0001 0.0000 0.0000
# 4 0.0001 0.0000 -0.0001 21.5644 0.0000 0.0000
# 5 0.0000 0.0000 0.0000 0.0000 -12.3045 0.0000
# 6 0.0000 0.0000 0.0000 0.0000 0.0000 7.9322
#
#
#
# Elastic Compliance Matrix: (Units=1/GPa)
#
#
# Indices 1 2 3 4 5 6 
#
# 1 0.012651 -0.000912 -0.006748 0.000000 0.000000 0.000000
# 2 -0.000912 0.019218 0.001067 0.000000 0.000000 0.000000
# 3 -0.006748 0.001067 0.016331 0.000000 0.000000 0.000000
# 4 0.000000 0.000000 0.000000 0.046373 0.000000 0.000000
# 5 0.000000 0.000000 0.000000 0.000000 -0.081271 0.000000
# 6 0.000000 0.000000 0.000000 0.000000 0.000000 0.126068
#
#
# Mechanical properties :
#
#
# Convention : Reuss Voigt Hill
#
# Bulk Modulus (GPa) = 28.55915 35.13663 31.84789
# Shear Modulus (GPa) = 30.44606 16.14240 23.29423
#
# Velocity S-wave (km/s) = 4.01303 2.92207 3.51019
# Velocity P-wave (km/s) = 6.04805 5.47450 5.76841
#
# Compressibility (1/GPa) = 0.03501505
#
# Stress axis : x y z
#
# Youngs Moduli (GPa) = 79.04685 52.03482 61.23458
#
# Poissons Ratio (x) = 0.04746 0.41318
# Poissons Ratio (y) = 0.07210 -0.06537
# Poissons Ratio (z) = 0.53337 -0.05555
#
# Static dielectric constant tensor:
#      x y z
#    x 1.681590 0.000000 0.000000 
#    y 0.000000 1.654990 0.000000 
#    z 0.000000 0.000000 1.671790 
# 
# From -- ./inp_files/34533.got.cif
#   From: 2010.05.17/outbox.cif.g08.bks.cpg/sg71_18_cif.got.tgz:34533.got - 2010.06.03 16:22:01.
