data_PCOD9524280
_publ_section_title
;
Structure prediction by ZEFSAII (Michael W. Deem and Ramdas Pophale) SiO2 
 PCOD9524280
Probable space group: I M M M
;
_chemical_formula_sum "Si O2"
_cell_formula_units_Z 92
_cell_length_a 14.770191
_cell_length_b 19.761768
_cell_length_c 17.244123
_cell_angle_alpha 90.000000
_cell_angle_beta 90.000000
_cell_angle_gamma 90.000000
_cell_volume 5033.302357
_symmetry_space_group_name_H-M "I M M M"
_symmetry_group_IT_number 71
_symmetry_cell_setting 'orthorhombic'
loop_
_space_group_symop_operation_xyz
x,y,z
-x,-y,z
x,-y,-z
-x,y,-z
-x,-y,-z
x,y,-z
-x,y,z
x,-y,z
1/2+x,1/2+y,1/2+z
1/2-x,1/2-y,1/2+z
1/2+x,1/2-y,1/2-z
1/2-x,1/2+y,1/2-z
1/2-x,1/2-y,1/2-z
1/2+x,1/2+y,1/2-z
1/2-x,1/2+y,1/2+z
1/2+x,1/2-y,1/2+z
loop_
_atom_site_type_symbol
_atom_site_label
_atom_site_fract_x
_atom_site_fract_y
_atom_site_fract_z
Si Si1 0.795073 0.113390 0.187373
Si Si2 0.000000 0.257335 0.000000
Si Si3 0.894492 0.000000 0.092454
Si Si4 0.148947 0.213520 0.588223
Si Si5 0.897513 0.075388 0.340515
Si Si6 0.852093 0.737162 0.861431
Si Si7 0.600460 0.834481 0.202445
O O1 0.842041 0.064856 0.125227
O O2 0.827525 0.087107 0.270797
O O3 0.832840 0.188926 0.174936
O O4 0.686499 0.118768 0.181944
O O5 0.921740 0.257734 0.068549
O O6 0.000000 0.000000 0.117885
O O7 0.893785 0.000000 0.000000
O O8 0.133245 0.235168 0.500000
O O9 0.112269 0.138258 0.602234
O O10 0.255783 0.211836 0.606749
O O11 0.108033 0.267886 0.647955
O O12 0.000000 0.077832 0.308010
O O13 0.884512 0.000000 0.373907
O O14 0.885400 0.690289 0.790925
O O15 0.500000 0.863969 0.193445
#
# Coordination Sequence:
#
# PCOD9524280 Si02
#       7
#    16   4   8  16  16  16  16
#     4  11  22  38  59  86 123 157 201 243 297 361
#     4  12  24  32  64  97 125 146 190 260 310 364
#     4  11  26  40  61  91 126 163 199 251 309 366
#     4  11  22  39  58  86 123 158 195 247 303 357
#     4  11  22  36  58  86 115 157 198 244 296 356
#     4  11  22  37  59  93 122 154 194 249 308 360
#     4  11  22  39  63  88 118 160 204 248 301 362
#
# _framework density 18.278258000000001
#
# number of rings (size 3 to 8) (size 9 to 14) (size 15 to 20)
#    0.000    0.957    6.087    2.087    3.652    2.435 
#    0.000    1.304    0.000    0.522    0.000    0.609 
#    0.000    0.000    0.000    0.000    0.000    0.000 
#
# Total GULP energy -256375.734609 kJ/mol
# GULP energy per Si atom -5573.385535 kJ/mol
# Density = 1.823666 g / cm^3
# Si number density = 18.278258 Si / 1000 Ang^3
#
#
#
# Elastic Constant Matrix: (Units=GPa)
#
#
# Indices 1 2 3 4 5 6 
#
# 1 159.0998 29.9254 17.1440 0.0000 0.0000 0.0000
# 2 29.9254 54.8913 -10.2757 0.0000 0.0000 0.0000
# 3 17.1440 -10.2757 72.8273 0.0000 0.0000 0.0000
# 4 0.0000 0.0000 0.0000 16.3895 0.0000 0.0000
# 5 0.0000 0.0000 0.0000 0.0000 29.6476 0.0000
# 6 0.0000 0.0000 0.0000 0.0000 0.0000 13.4622
#
#
#
# Elastic Compliance Matrix: (Units=1/GPa)
#
#
# Indices 1 2 3 4 5 6 
#
# 1 0.007381 -0.004467 -0.002368 0.000000 0.000000 0.000000
# 2 -0.004467 0.021416 0.004073 0.000000 0.000000 0.000000
# 3 -0.002368 0.004073 0.014863 0.000000 0.000000 0.000000
# 4 0.000000 0.000000 0.000000 0.061015 0.000000 0.000000
# 5 0.000000 0.000000 0.000000 0.000000 0.033730 0.000000
# 6 0.000000 0.000000 0.000000 0.000000 0.000000 0.074282
#
#
# Mechanical properties :
#
#
# Convention : Reuss Voigt Hill
#
# Bulk Modulus (GPa) = 26.22161 40.04511 33.13336
# Shear Modulus (GPa) = 21.65239 28.56816 25.11027
#
# Velocity S-wave (km/s) = 3.44553 3.95772 3.71047
# Velocity P-wave (km/s) = 5.49599 6.54529 6.04346
#
# Compressibility (1/GPa) = 0.03813649
#
# Stress axis : x y z
#
# Youngs Moduli (GPa) = 135.48820 46.69484 67.28018
#
# Poissons Ratio (x) = 0.20859 0.15930
# Poissons Ratio (y) = 0.60523 -0.27405
# Poissons Ratio (z) = 0.32080 -0.19020
#
# Static dielectric constant tensor:
#      x y z
#    x 1.644000 0.000000 0.000000 
#    y 0.000000 1.626750 0.000000 
#    z 0.000000 0.000000 1.613690 
# 
# From -- ./inp_files/34561.got.cif
#   From: 2010.05.17/outbox.cif.g08.bks.cpg/sg71_18_cif.got.tgz:34561.got - 2010.06.03 16:22:01.
