data_PCOD9524040
_publ_section_title
;
Structure prediction by ZEFSAII (Michael W. Deem and Ramdas Pophale) SiO2 
 PCOD9524040
Probable space group: I M M M
;
_chemical_formula_sum "Si O2"
_cell_formula_units_Z 88
_cell_length_a 19.256113
_cell_length_b 19.345906
_cell_length_c 13.658590
_cell_angle_alpha 90.000000
_cell_angle_beta 90.000000
_cell_angle_gamma 90.000000
_cell_volume 5088.192902
_symmetry_space_group_name_H-M "I M M M"
_symmetry_group_IT_number 71
_symmetry_cell_setting 'orthorhombic'
loop_
_space_group_symop_operation_xyz
x,y,z
-x,-y,z
x,-y,-z
-x,y,-z
-x,-y,-z
x,y,-z
-x,y,z
x,-y,z
1/2+x,1/2+y,1/2+z
1/2-x,1/2-y,1/2+z
1/2+x,1/2-y,1/2-z
1/2-x,1/2+y,1/2-z
1/2-x,1/2-y,1/2-z
1/2+x,1/2+y,1/2-z
1/2-x,1/2+y,1/2+z
1/2+x,1/2-y,1/2+z
loop_
_atom_site_type_symbol
_atom_site_label
_atom_site_fract_x
_atom_site_fract_y
_atom_site_fract_z
Si Si1 0.580962 0.807538 0.886333
Si Si2 0.286966 0.418720 0.115135
Si Si3 0.348285 0.862264 0.699828
Si Si4 0.083126 0.500000 0.885539
Si Si5 0.082556 0.772884 0.111273
Si Si6 0.080059 0.848138 0.691942
O O1 0.500000 0.826086 0.865996
O O2 0.630837 0.846845 0.811510
O O3 0.586577 0.725784 0.863243
O O4 0.595430 0.820422 0.000000
O O5 0.273532 0.500000 0.129690
O O6 0.232356 0.374621 0.177896
O O7 0.364506 0.399695 0.147139
O O8 0.277131 0.403425 0.000000
O O9 0.376295 0.796276 0.639570
O O10 0.386854 0.931119 0.663183
O O11 0.000000 0.500000 0.879008
O O12 0.103285 0.500000 0.000000
O O13 0.095729 0.830001 0.194470
O O14 0.000000 0.756722 0.118449
O O15 0.097569 0.793991 0.000000
O O16 0.000000 0.870787 0.683272
#
# Coordination Sequence:
#
# PCOD9524040 Si02
#       6
#    16  16  16   8  16  16
#     4   9  18  34  56  81 108 139 177 219 259 305
#     4  11  23  37  53  75 106 140 173 218 271 315
#     4  11  20  33  50  75 110 141 172 213 259 310
#     4  11  20  30  49  73 100 140 179 206 245 303
#     4   9  17  31  54  83 110 134 167 213 261 311
#     4   9  19  36  57  79 103 134 175 221 269 319
#
# _framework density 17.294941999999999
#
# number of rings (size 3 to 8) (size 9 to 14) (size 15 to 20)
#    0.000    2.091    0.909    4.909    0.000    5.818 
#    0.000    4.091    0.000    3.273    0.000    2.545 
#    0.000    0.000    0.000    0.000    0.000    0.000 
#
# Total GULP energy -245574.118332 kJ/mol
# GULP energy per Si atom -5581.229962 kJ/mol
# Density = 1.725558 g / cm^3
# Si number density = 17.294942 Si / 1000 Ang^3
#
#
#
# Elastic Constant Matrix: (Units=GPa)
#
#
# Indices 1 2 3 4 5 6 
#
# 1 71.5524 16.7236 44.5228 0.0000 0.0000 0.0000
# 2 16.7236 14.0721 17.0991 0.0000 0.0000 0.0000
# 3 44.5228 17.0991 118.8804 0.0000 0.0000 0.0000
# 4 0.0000 0.0000 0.0000 17.2135 0.0000 0.0000
# 5 0.0000 0.0000 0.0000 0.0000 21.6080 0.0000
# 6 0.0000 0.0000 0.0000 0.0000 0.0000 20.8380
#
#
#
# Elastic Compliance Matrix: (Units=1/GPa)
#
#
# Indices 1 2 3 4 5 6 
#
# 1 0.021878 -0.019442 -0.005397 0.000000 0.000000 0.000000
# 2 -0.019442 0.103391 -0.007590 0.000000 0.000000 0.000000
# 3 -0.005397 -0.007590 0.011525 0.000000 0.000000 0.000000
# 4 0.000000 0.000000 0.000000 0.058094 0.000000 0.000000
# 5 0.000000 0.000000 0.000000 0.000000 0.046279 0.000000
# 6 0.000000 0.000000 0.000000 0.000000 0.000000 0.047989
#
#
# Mechanical properties :
#
#
# Convention : Reuss Voigt Hill
#
# Bulk Modulus (GPa) = 13.90141 40.13289 27.01715
# Shear Modulus (GPa) = 13.22774 20.34251 16.78512
#
# Velocity S-wave (km/s) = 2.76856 3.43331 3.11870
# Velocity P-wave (km/s) = 4.27495 6.24277 5.35011
#
# Compressibility (1/GPa) = 0.07193517
#
# Stress axis : x y z
#
# Youngs Moduli (GPa) = 45.70723 9.67205 86.76881
#
# Poissons Ratio (x) = 0.18805 0.46832
# Poissons Ratio (y) = 0.88866 0.65855
# Poissons Ratio (z) = 0.24670 0.07341
#
# Static dielectric constant tensor:
#      x y z
#    x 1.598000 0.000000 0.000000 
#    y 0.000000 1.553900 0.000000 
#    z 0.000000 0.000000 1.593020 
# 
# From -- ./inp_files/36596.got.cif
#   From: 2010.05.17/outbox.cif.g08.bks.cpg/sg71_19_cif.got.tgz:36596.got - 2010.06.03 16:22:01.
