data_PCOD9524235
_publ_section_title
;
Structure prediction by ZEFSAII (Michael W. Deem and Ramdas Pophale) SiO2 
 PCOD9524235
Probable space group: I M M M
;
_chemical_formula_sum "Si O2"
_cell_formula_units_Z 88
_cell_length_a 31.663476
_cell_length_b 7.676205
_cell_length_c 18.467247
_cell_angle_alpha 90.000000
_cell_angle_beta 90.000000
_cell_angle_gamma 90.000000
_cell_volume 4488.562865
_symmetry_space_group_name_H-M "I M M M"
_symmetry_group_IT_number 71
_symmetry_cell_setting 'orthorhombic'
loop_
_space_group_symop_operation_xyz
x,y,z
-x,-y,z
x,-y,-z
-x,y,-z
-x,-y,-z
x,y,-z
-x,y,z
x,-y,z
1/2+x,1/2+y,1/2+z
1/2-x,1/2-y,1/2+z
1/2+x,1/2-y,1/2-z
1/2-x,1/2+y,1/2-z
1/2-x,1/2-y,1/2-z
1/2+x,1/2+y,1/2-z
1/2-x,1/2+y,1/2+z
1/2+x,1/2-y,1/2+z
loop_
_atom_site_type_symbol
_atom_site_label
_atom_site_fract_x
_atom_site_fract_y
_atom_site_fract_z
Si Si1 0.798074 0.210061 0.267552
Si Si2 0.500000 0.290885 0.082956
Si Si3 0.880720 0.200724 0.192836
Si Si4 0.671019 0.705402 0.921520
Si Si5 0.411819 0.796804 0.152168
Si Si6 0.952264 0.787275 0.915546
O O1 0.750000 0.250000 0.250000
O O2 0.834030 0.275584 0.211215
O O3 0.808168 0.277821 0.348426
O O4 0.803421 0.000000 0.269188
O O5 0.500000 0.500000 0.082430
O O6 0.541426 0.228916 0.124020
O O7 0.500000 0.228783 0.000000
O O8 0.903254 0.205742 0.271215
O O9 0.913924 0.276994 0.135032
O O10 0.874146 0.000000 0.170286
O O11 0.681066 0.500000 0.923704
O O12 0.621224 0.724841 0.906451
O O13 0.682170 0.780791 0.000000
O O14 0.402925 0.000000 0.162614
O O15 0.000000 0.731691 0.893638
O O16 0.952416 0.000000 0.911697
O O17 0.946273 0.740714 0.000000
#
# Coordination Sequence:
#
# PCOD9524235 Si02
#       6
#    16   8  16  16  16  16
#     4   9  18  32  50  73 100 130 167 209 254 303
#     4  11  23  37  51  67  94 135 174 203 239 290
#     4   9  18  33  52  74 100 135 174 208 249 308
#     4   9  18  35  56  74  95 128 170 210 252 308
#     4  11  22  33  48  74 104 131 164 209 253 294
#     4   8  14  26  48  78 104 127 164 213 256 297
#
# _framework density 19.605384999999998
#
# number of rings (size 3 to 8) (size 9 to 14) (size 15 to 20)
#    0.000    2.636    0.000    4.091    1.273    6.182 
#    0.000    0.909    0.000    1.636    0.000    1.273 
#    0.000    0.000    0.000    0.000    0.000    0.000 
#
# Total GULP energy -245256.633832 kJ/mol
# GULP energy per Si atom -5574.014405 kJ/mol
# Density = 1.956076 g / cm^3
# Si number density = 19.605385 Si / 1000 Ang^3
#
#
#
# Elastic Constant Matrix: (Units=GPa)
#
#
# Indices 1 2 3 4 5 6 
#
# 1 176.3073 -7.4902 86.8704 0.0000 0.0000 0.0000
# 2 -7.4902 42.4978 0.4692 0.0000 0.0000 0.0000
# 3 86.8704 0.4692 100.1632 0.0000 0.0000 0.0000
# 4 0.0000 0.0000 0.0000 -9.5344 0.0000 0.0000
# 5 0.0000 0.0000 0.0000 0.0000 17.8894 0.0000
# 6 0.0000 0.0000 0.0000 0.0000 0.0000 23.2157
#
#
#
# Elastic Compliance Matrix: (Units=1/GPa)
#
#
# Indices 1 2 3 4 5 6 
#
# 1 0.010050 0.001868 -0.008725 0.000000 0.000000 0.000000
# 2 0.001868 0.023879 -0.001732 0.000000 0.000000 0.000000
# 3 -0.008725 -0.001732 0.017559 0.000000 0.000000 0.000000
# 4 0.000000 0.000000 0.000000 -0.104883 0.000000 0.000000
# 5 0.000000 0.000000 0.000000 0.000000 0.055899 0.000000
# 6 0.000000 0.000000 0.000000 0.000000 0.000000 0.043074
#
#
# Mechanical properties :
#
#
# Convention : Reuss Voigt Hill
#
# Bulk Modulus (GPa) = 29.14613 53.18524 41.16568
# Shear Modulus (GPa) = 67.39095 22.25540 44.82318
#
# Velocity S-wave (km/s) = 5.86927 3.37288 4.78668
# Velocity P-wave (km/s) = 7.79934 6.50809 7.18279
#
# Compressibility (1/GPa) = 0.03430987
#
# Stress axis : x y z
#
# Youngs Moduli (GPa) = 99.49799 41.87793 56.94999
#
# Poissons Ratio (x) = -0.07822 0.49691
# Poissons Ratio (y) = -0.18583 0.09862
# Poissons Ratio (z) = 0.86816 0.07252
#
# Static dielectric constant tensor:
#      x y z
#    x 1.679660 0.000000 0.000000 
#    y 0.000000 1.745000 0.000000 
#    z 0.000000 0.000000 1.682470 
# 
# From -- ./inp_files/49199.got.cif
#   From: 2010.05.17/outbox.cif.g08.bks.cpg/sg71_25_cif.got.tgz:49199.got - 2010.06.03 16:22:01.
