data_PCOD9524931
_publ_section_title
;
Structure prediction by ZEFSAII (Michael W. Deem and Ramdas Pophale) SiO2 
 PCOD9524931
Probable space group: I B A M
;
_chemical_formula_sum "Si O2"
_cell_formula_units_Z 64
_cell_length_a 33.409804
_cell_length_b 15.469326
_cell_length_c 5.530275
_cell_angle_alpha 90.000000
_cell_angle_beta 90.000000
_cell_angle_gamma 90.000000
_cell_volume 2858.196265
_symmetry_space_group_name_H-M "I B A M"
_symmetry_group_IT_number 72
_symmetry_cell_setting 'orthorhombic'
loop_
_space_group_symop_operation_xyz
x,y,z
-x,-y,z
x,-y,1/2-z
-x,y,1/2-z
-x,-y,-z
x,y,-z
-x,y,1/2+z
x,-y,1/2+z
1/2+x,1/2+y,1/2+z
1/2-x,1/2-y,1/2+z
1/2+x,1/2-y,-z
1/2-x,1/2+y,-z
1/2-x,1/2-y,1/2-z
1/2+x,1/2+y,1/2-z
1/2-x,1/2+y,z
1/2+x,1/2-y,z
loop_
_atom_site_type_symbol
_atom_site_label
_atom_site_fract_x
_atom_site_fract_y
_atom_site_fract_z
Si Si1 0.671118 0.345166 0.500000
Si Si2 0.013494 0.373416 0.000000
Si Si3 0.825929 0.655853 0.000000
Si Si4 0.412881 0.447113 0.000000
Si Si5 0.286229 0.336279 0.500000
Si Si6 0.913760 0.722360 0.000000
Si Si7 0.951817 0.215111 0.000000
Si Si8 0.191688 0.358660 0.500000
O O1 0.627155 0.386733 0.500000
O O2 0.693231 0.369585 0.247871
O O3 0.673596 0.239993 0.500000
O O4 0.000000 0.411900 0.250000
O O5 0.060983 0.365808 0.000000
O O6 0.990534 0.277925 0.000000
O O7 0.791889 0.731260 0.000000
O O8 0.867082 0.708793 0.000000
O O9 0.822477 0.603953 0.753453
O O10 0.411650 0.500000 0.250000
O O11 0.452986 0.387960 0.000000
O O12 0.239508 0.355604 0.500000
O O13 0.928196 0.764529 0.749173
#
# Coordination Sequence:
#
# PCOD9524931 Si02
#       8
#     8   8   8   8   8   8   8   8
#     4  10  18  30  44  58  79 105 124 152 194 235
#     4   8  16  27  44  60  72  89 120 163 205 246
#     4  10  16  23  36  58  83 101 115 138 176 228
#     4  12  24  35  46  62  81 104 138 173 207 255
#     4  10  17  28  44  64  82  97 119 146 183 238
#     4  10  17  28  46  63  75  96 126 155 198 258
#     4  10  18  32  46  57  71  94 126 170 211 236
#     4  10  18  27  42  64  83  98 118 145 182 238
#
# _framework density 22.391743999999999
#
# number of rings (size 3 to 8) (size 9 to 14) (size 15 to 20)
#    0.000    2.000    0.000    9.000    0.000    0.000 
#    0.000    0.000    0.000   20.250    0.000    0.000 
#    0.000    0.000    0.000    0.000    0.000    0.000 
#
# Total GULP energy -178448.063945 kJ/mol
# GULP energy per Si atom -5576.501998 kJ/mol
# Density = 2.234078 g / cm^3
# Si number density = 22.391744 Si / 1000 Ang^3
#
#
#
# Elastic Constant Matrix: (Units=GPa)
#
#
# Indices 1 2 3 4 5 6 
#
# 1 54.3966 21.8653 28.8792 0.0001 0.0002 0.0000
# 2 21.8653 60.7116 19.3967 -0.0001 0.0000 0.0000
# 3 28.8792 19.3967 257.0665 -0.0013 -0.0006 0.0000
# 4 0.0001 -0.0001 -0.0013 -7.9818 -0.0003 0.0000
# 5 0.0002 0.0000 -0.0006 -0.0003 24.5255 -0.0001
# 6 0.0000 0.0000 0.0000 0.0000 -0.0001 16.4111
#
#
#
# Elastic Compliance Matrix: (Units=1/GPa)
#
#
# Indices 1 2 3 4 5 6 
#
# 1 0.022416 -0.007448 -0.001956 0.000001 0.000000 0.000000
# 2 -0.007448 0.019353 -0.000624 0.000000 0.000000 0.000000
# 3 -0.001956 -0.000624 0.004157 -0.000001 0.000000 0.000000
# 4 0.000001 0.000000 -0.000001 -0.125285 -0.000001 0.000000
# 5 0.000000 0.000000 0.000000 -0.000001 0.040774 0.000000
# 6 0.000000 0.000000 0.000000 0.000000 0.000000 0.060934
#
#
# Mechanical properties :
#
#
# Convention : Reuss Voigt Hill
#
# Bulk Modulus (GPa) = 38.65483 56.93968 47.79726
# Shear Modulus (GPa) = 97.98571 26.72653 62.35612
#
# Velocity S-wave (km/s) = 6.62229 3.45858 5.28283
# Velocity P-wave (km/s) = 8.70479 6.43686 7.65528
#
# Compressibility (1/GPa) = 0.02586999
#
# Stress axis : x y z
#
# Youngs Moduli (GPa) = 44.61117 51.67172 240.56621
#
# Poissons Ratio (x) = 0.38486 0.47061
# Poissons Ratio (y) = 0.33227 0.15000
# Poissons Ratio (z) = 0.08727 0.03222
#
# Static dielectric constant tensor:
#      x y z
#    x 1.814400 0.000000 0.000000 
#    y 0.000000 1.854180 0.000000 
#    z 0.000000 0.000000 1.893390 
# 
# From -- ./inp_files/929.got.cif
#   From: 2010.05.17/outbox.cif.g08.bks.cpg/sg72_1_cif.got.tgz:929.got - 2010.06.03 17:03:01.
