data_PCOD9524531
_publ_section_title
;
Structure prediction by ZEFSAII (Michael W. Deem and Ramdas Pophale) SiO2 
 PCOD9524531
Probable space group: I M M M
;
_chemical_formula_sum "Si O2"
_cell_formula_units_Z 72
_cell_length_a 28.384768
_cell_length_b 16.910660
_cell_length_c 7.306607
_cell_angle_alpha 90.000000
_cell_angle_beta 90.000000
_cell_angle_gamma 90.000000
_cell_volume 3507.209068
_symmetry_space_group_name_H-M "I M M M"
_symmetry_group_IT_number 71
_symmetry_cell_setting 'orthorhombic'
loop_
_space_group_symop_operation_xyz
x,y,z
-x,-y,z
x,-y,-z
-x,y,-z
-x,-y,-z
x,y,-z
-x,y,z
x,-y,z
1/2+x,1/2+y,1/2+z
1/2-x,1/2-y,1/2+z
1/2+x,1/2-y,1/2-z
1/2-x,1/2+y,1/2-z
1/2-x,1/2-y,1/2-z
1/2+x,1/2+y,1/2-z
1/2-x,1/2+y,1/2+z
1/2+x,1/2-y,1/2+z
loop_
_atom_site_type_symbol
_atom_site_label
_atom_site_fract_x
_atom_site_fract_y
_atom_site_fract_z
Si Si1 0.444810 0.500000 0.776427
Si Si2 0.643059 0.087452 0.776896
Si Si3 0.606328 0.660920 0.222550
Si Si4 0.947163 0.320826 0.722400
Si Si5 0.194739 0.256032 0.282166
O O1 0.500000 0.500000 0.720853
O O2 0.416619 0.578625 0.717025
O O3 0.445290 0.500000 0.000000
O O4 0.590287 0.112786 0.723494
O O5 0.675896 0.159326 0.714329
O O6 0.655798 0.000000 0.714555
O O7 0.644559 0.086671 0.000000
O O8 0.573531 0.735262 0.274997
O O9 0.659181 0.686573 0.282609
O O10 0.606574 0.657351 0.000000
O O11 0.947923 0.320800 0.500000
O O12 0.000000 0.332754 0.786784
O O13 0.188166 0.256862 0.500000
O O14 0.250000 0.250000 0.250000
#
# Coordination Sequence:
#
# PCOD9524531 Si02
#       5
#     8  16  16  16  16
#     4   9  14  20  34  56  85 117 139 159 202 265
#     4   8  14  24  37  54  77 105 134 163 198 241
#     4   8  14  23  34  52  79 108 136 166 202 244
#     4   8  12  18  30  49  75 105 132 158 192 237
#     4   9  17  30  45  59  80 109 139 173 210 244
#
# _framework density 20.529143000000001
#
# number of rings (size 3 to 8) (size 9 to 14) (size 15 to 20)
#    0.000    3.667    0.000    3.333    0.000    3.111 
#    2.000    2.222    0.000    0.000    0.000    0.000 
#    0.000   23.111    0.000    8.000    0.000    8.889 
#
# Total GULP energy -200667.270402 kJ/mol
# GULP energy per Si atom -5574.090845 kJ/mol
# Density = 2.048242 g / cm^3
# Si number density = 20.529143 Si / 1000 Ang^3
#
#
#
# Elastic Constant Matrix: (Units=GPa)
#
#
# Indices 1 2 3 4 5 6 
#
# 1 197.2044 93.5229 0.8770 0.0000 0.0000 0.0000
# 2 93.5229 161.4788 6.3942 0.0000 0.0000 0.0000
# 3 0.8770 6.3942 81.7219 0.0000 0.0000 0.0000
# 4 0.0000 0.0000 0.0000 -17.2636 0.0000 0.0000
# 5 0.0000 0.0000 0.0000 0.0000 6.6549 0.0000
# 6 0.0000 0.0000 0.0000 0.0000 0.0000 15.1667
#
#
#
# Elastic Compliance Matrix: (Units=1/GPa)
#
#
# Indices 1 2 3 4 5 6 
#
# 1 0.006996 -0.004061 0.000243 0.000000 0.000000 0.000000
# 2 -0.004061 0.008570 -0.000627 0.000000 0.000000 0.000000
# 3 0.000243 -0.000627 0.012283 0.000000 0.000000 0.000000
# 4 0.000000 0.000000 0.000000 -0.057925 0.000000 0.000000
# 5 0.000000 0.000000 0.000000 0.000000 0.150266 0.000000
# 6 0.000000 0.000000 0.000000 0.000000 0.000000 0.065934
#
#
# Mechanical properties :
#
#
# Convention : Reuss Voigt Hill
#
# Bulk Modulus (GPa) = 52.74954 71.33255 62.04104
# Shear Modulus (GPa) = 24.83433 23.55232 24.19332
#
# Velocity S-wave (km/s) = 3.48186 3.39080 3.43663
# Velocity P-wave (km/s) = 6.47420 7.08184 6.78482
#
# Compressibility (1/GPa) = 0.01895751
#
# Stress axis : x y z
#
# Youngs Moduli (GPa) = 142.94115 116.68881 81.41282
#
# Poissons Ratio (x) = 0.47392 -0.01976
# Poissons Ratio (y) = 0.58054 0.05104
# Poissons Ratio (z) = -0.03469 0.07316
#
# Static dielectric constant tensor:
#      x y z
#    x 1.723710 0.000000 0.000000 
#    y 0.000000 1.701330 0.000000 
#    z 0.000000 0.000000 1.844020 
# 
# From -- ./inp_files/14469.got.cif
#   From: 2010.05.17/outbox.cif.g08.bks.cpg/sg71_8_cif.got.tgz:14469.got - 2010.06.03 16:22:01.
