data_PCOD9524010
_publ_section_title
;
Structure prediction by ZEFSAII (Michael W. Deem and Ramdas Pophale) SiO2 
 PCOD9524010
Probable space group: I M M M
;
_chemical_formula_sum "Si O2"
_cell_formula_units_Z 88
_cell_length_a 18.829296
_cell_length_b 13.142759
_cell_length_c 19.083929
_cell_angle_alpha 90.000000
_cell_angle_beta 90.000000
_cell_angle_gamma 90.000000
_cell_volume 4722.678907
_symmetry_space_group_name_H-M "I M M M"
_symmetry_group_IT_number 71
_symmetry_cell_setting 'orthorhombic'
loop_
_space_group_symop_operation_xyz
x,y,z
-x,-y,z
x,-y,-z
-x,y,-z
-x,-y,-z
x,y,-z
-x,y,z
x,-y,z
1/2+x,1/2+y,1/2+z
1/2-x,1/2-y,1/2+z
1/2+x,1/2-y,1/2-z
1/2-x,1/2+y,1/2-z
1/2-x,1/2-y,1/2-z
1/2+x,1/2+y,1/2-z
1/2-x,1/2+y,1/2+z
1/2+x,1/2-y,1/2+z
loop_
_atom_site_type_symbol
_atom_site_label
_atom_site_fract_x
_atom_site_fract_y
_atom_site_fract_z
Si Si1 0.205861 0.114980 0.417914
Si Si2 0.872584 0.327140 0.078337
Si Si3 0.921562 0.619201 0.226588
Si Si4 0.583586 0.000000 0.082920
Si Si5 0.309828 0.384442 0.580544
Si Si6 0.669566 0.818914 0.154262
O O1 0.186443 0.123542 0.500000
O O2 0.290975 0.134046 0.415078
O O3 0.168837 0.204778 0.375157
O O4 0.191048 0.000000 0.393971
O O5 0.914826 0.369766 0.143447
O O6 0.867340 0.204612 0.085180
O O7 0.897488 0.353448 0.000000
O O8 0.915368 0.500000 0.243996
O O9 0.857693 0.675801 0.266198
O O10 0.000000 0.654893 0.249118
O O11 0.618505 0.898321 0.114333
O O12 0.500000 0.000000 0.096770
O O13 0.595977 0.000000 0.000000
O O14 0.280126 0.375145 0.500000
O O15 0.334983 0.500000 0.588607
O O16 0.247988 0.360739 0.636087
#
# Coordination Sequence:
#
# PCOD9524010 Si02
#       6
#    16  16  16   8  16  16
#     4   9  18  33  55  83 112 141 172 214 266 317
#     4   9  19  35  55  78 103 136 177 220 269 325
#     4  11  23  37  52  72 103 140 177 224 273 310
#     4  11  20  30  50  76 103 139 178 212 249 300
#     4   9  16  29  53  83 111 134 162 211 270 320
#     4  11  19  32  51  77 110 141 171 215 259 317
#
# _framework density 18.633493000000001
#
# number of rings (size 3 to 8) (size 9 to 14) (size 15 to 20)
#    0.000    2.091    1.818    3.818    0.000    4.364 
#    0.000    3.636    0.000    3.818    0.000    8.909 
#    0.000    0.000    0.000    0.000    0.000    0.000 
#
# Total GULP energy -245438.470548 kJ/mol
# GULP energy per Si atom -5578.147058 kJ/mol
# Density = 1.859108 g / cm^3
# Si number density = 18.633493 Si / 1000 Ang^3
#
#
#
# Elastic Constant Matrix: (Units=GPa)
#
#
# Indices 1 2 3 4 5 6 
#
# 1 15.7216 3.6611 12.8704 0.0000 0.0000 0.0000
# 2 3.6611 128.8728 21.1777 0.0000 0.0000 0.0000
# 3 12.8704 21.1777 75.2975 0.0000 0.0000 0.0000
# 4 0.0000 0.0000 0.0000 29.3630 0.0000 0.0000
# 5 0.0000 0.0000 0.0000 0.0000 13.3093 0.0000
# 6 0.0000 0.0000 0.0000 0.0000 0.0000 10.7334
#
#
#
# Elastic Compliance Matrix: (Units=1/GPa)
#
#
# Indices 1 2 3 4 5 6 
#
# 1 0.073956 -0.000025 -0.012634 0.000000 0.000000 0.000000
# 2 -0.000025 0.008136 -0.002284 0.000000 0.000000 0.000000
# 3 -0.012634 -0.002284 0.016083 0.000000 0.000000 0.000000
# 4 0.000000 0.000000 0.000000 0.034056 0.000000 0.000000
# 5 0.000000 0.000000 0.000000 0.000000 0.075136 0.000000
# 6 0.000000 0.000000 0.000000 0.000000 0.000000 0.093167
#
#
# Mechanical properties :
#
#
# Convention : Reuss Voigt Hill
#
# Bulk Modulus (GPa) = 14.64385 32.81225 23.72805
# Shear Modulus (GPa) = 14.15702 22.82664 18.49183
#
# Velocity S-wave (km/s) = 2.75937 3.50384 3.15365
# Velocity P-wave (km/s) = 4.24595 5.83239 5.10122
#
# Compressibility (1/GPa) = 0.06828806
#
# Stress axis : x y z
#
# Youngs Moduli (GPa) = 13.52163 122.91639 62.17930
#
# Poissons Ratio (x) = 0.00305 0.78558
# Poissons Ratio (y) = 0.00034 0.14201
# Poissons Ratio (z) = 0.17083 0.28073
#
# Static dielectric constant tensor:
#      x y z
#    x 1.635970 0.000000 0.000000 
#    y 0.000000 1.650420 0.000000 
#    z 0.000000 0.000000 1.688600 
# 
# From -- ./inp_files/47122.got.cif
#   From: 2010.05.17/outbox.cif.g08.bks.cpg/sg71_24_cif.got.tgz:47122.got - 2010.06.03 16:22:01.
