data_PCOD9524560
_publ_section_title
;
Structure prediction by ZEFSAII (Michael W. Deem and Ramdas Pophale) SiO2 
 PCOD9524560
Probable space group: I M M M
;
_chemical_formula_sum "Si O2"
_cell_formula_units_Z 90
_cell_length_a 32.641817
_cell_length_b 7.347490
_cell_length_c 18.151756
_cell_angle_alpha 90.000000
_cell_angle_beta 90.000000
_cell_angle_gamma 90.000000
_cell_volume 4353.434096
_symmetry_space_group_name_H-M "I M M M"
_symmetry_group_IT_number 71
_symmetry_cell_setting 'orthorhombic'
loop_
_space_group_symop_operation_xyz
x,y,z
-x,-y,z
x,-y,-z
-x,y,-z
-x,-y,-z
x,y,-z
-x,y,z
x,-y,z
1/2+x,1/2+y,1/2+z
1/2-x,1/2-y,1/2+z
1/2+x,1/2-y,1/2-z
1/2-x,1/2+y,1/2-z
1/2-x,1/2-y,1/2-z
1/2+x,1/2+y,1/2-z
1/2-x,1/2+y,1/2+z
1/2+x,1/2-y,1/2+z
loop_
_atom_site_type_symbol
_atom_site_label
_atom_site_fract_x
_atom_site_fract_y
_atom_site_fract_z
Si Si1 0.130483 0.777566 0.645326
Si Si2 0.618394 0.722907 0.310886
Si Si3 0.046721 0.778594 0.082743
Si Si4 0.500000 0.500000 0.000000
Si Si5 0.716765 0.718182 0.915786
Si Si6 0.914452 0.202363 0.500000
Si Si7 0.190926 0.214581 0.915927
O O1 0.117877 0.716418 0.726506
O O2 0.177266 0.721471 0.629256
O O3 0.102154 0.716932 0.576582
O O4 0.128763 0.000000 0.647751
O O5 0.618886 0.500000 0.309919
O O6 0.578543 0.780833 0.356195
O O7 0.658033 0.784278 0.357483
O O8 0.000000 0.720800 0.095519
O O9 0.046698 0.000000 0.083072
O O10 0.059142 0.723563 0.000000
O O11 0.462787 0.656626 0.000000
O O12 0.714909 0.500000 0.917739
O O13 0.762276 0.765276 0.889565
O O14 0.713130 0.784905 0.000000
O O15 0.893970 0.000000 0.500000
O O16 0.182737 0.000000 0.922179
O O17 0.187966 0.288925 0.000000
#
# Coordination Sequence:
#
# PCOD9524560 Si02
#       7
#    16  16  16   2  16   8  16
#     4   9  15  25  39  53  76 103 141 169 204 251
#     4   9  16  24  35  55  77 106 133 170 213 250
#     4   8  13  22  34  49  71 102 137 165 195 245
#     4   8  16  24  40  56  80 108 144 176 224 252
#     4   9  16  27  44  60  76 111 150 175 205 253
#     4   8  14  26  36  54  75 107 139 171 210 256
#     4   9  17  28  41  59  85 111 139 177 217 249
#
# _framework density 20.673333
#
# number of rings (size 3 to 8) (size 9 to 14) (size 15 to 20)
#    0.267    3.022    0.889    1.067    0.000    2.844 
#    1.600    0.000    0.000    0.000    0.000    0.000 
#    0.000    0.711    0.000    8.178    0.533    8.000 
#
# Total GULP energy -250562.313771 kJ/mol
# GULP energy per Si atom -5568.051417 kJ/mol
# Density = 2.062628 g / cm^3
# Si number density = 20.673333 Si / 1000 Ang^3
#
#
#
# Elastic Constant Matrix: (Units=GPa)
#
#
# Indices 1 2 3 4 5 6 
#
# 1 156.3261 -0.5484 140.0698 0.0000 0.0000 0.0000
# 2 -0.5484 74.1292 7.4308 0.0000 0.0000 0.0000
# 3 140.0698 7.4308 195.5383 0.0000 0.0000 0.0000
# 4 0.0000 0.0000 0.0000 -11.8224 0.0000 0.0000
# 5 0.0000 0.0000 0.0000 0.0000 18.1653 0.0000
# 6 0.0000 0.0000 0.0000 0.0000 0.0000 10.0160
#
#
#
# Elastic Compliance Matrix: (Units=1/GPa)
#
#
# Indices 1 2 3 4 5 6 
#
# 1 0.018011 0.001432 -0.012956 0.000000 0.000000 0.000000
# 2 0.001432 0.013655 -0.001545 0.000000 0.000000 0.000000
# 3 -0.012956 -0.001545 0.014453 0.000000 0.000000 0.000000
# 4 0.000000 0.000000 0.000000 -0.084585 0.000000 0.000000
# 5 0.000000 0.000000 0.000000 0.000000 0.055050 0.000000
# 6 0.000000 0.000000 0.000000 0.000000 0.000000 0.099840
#
#
# Mechanical properties :
#
#
# Convention : Reuss Voigt Hill
#
# Bulk Modulus (GPa) = 50.04462 79.98866 65.01664
# Shear Modulus (GPa) = 33.50700 21.87454 27.69077
#
# Velocity S-wave (km/s) = 4.03026 3.25638 3.66381
# Velocity P-wave (km/s) = 6.77623 7.27423 7.02964
#
# Compressibility (1/GPa) = 0.01998217
#
# Stress axis : x y z
#
# Youngs Moduli (GPa) = 55.52312 73.23115 69.18756
#
# Poissons Ratio (x) = -0.10486 0.89639
# Poissons Ratio (y) = -0.07951 0.10687
# Poissons Ratio (z) = 0.71935 0.11312
#
# Static dielectric constant tensor:
#      x y z
#    x 1.705770 0.000000 0.000000 
#    y 0.000000 1.747310 0.000000 
#    z 0.000000 0.000000 1.723800 
# 
# From -- ./inp_files/49375.got.cif
#   From: 2010.05.17/outbox.cif.g08.bks.cpg/sg71_25_cif.got.tgz:49375.got - 2010.06.03 16:22:01.
