data_PCOD9524125
_publ_section_title
;
Structure prediction by ZEFSAII (Michael W. Deem and Ramdas Pophale) SiO2 
 PCOD9524125
Probable space group: I M M M
;
_chemical_formula_sum "Si O2"
_cell_formula_units_Z 56
_cell_length_a 25.468191
_cell_length_b 8.693144
_cell_length_c 14.833878
_cell_angle_alpha 90.000000
_cell_angle_beta 90.000000
_cell_angle_gamma 90.000000
_cell_volume 3284.200590
_symmetry_space_group_name_H-M "I M M M"
_symmetry_group_IT_number 71
_symmetry_cell_setting 'orthorhombic'
loop_
_space_group_symop_operation_xyz
x,y,z
-x,-y,z
x,-y,-z
-x,y,-z
-x,-y,-z
x,y,-z
-x,y,z
x,-y,z
1/2+x,1/2+y,1/2+z
1/2-x,1/2-y,1/2+z
1/2+x,1/2-y,1/2-z
1/2-x,1/2+y,1/2-z
1/2-x,1/2-y,1/2-z
1/2+x,1/2+y,1/2-z
1/2-x,1/2+y,1/2+z
1/2+x,1/2-y,1/2+z
loop_
_atom_site_type_symbol
_atom_site_label
_atom_site_fract_x
_atom_site_fract_y
_atom_site_fract_z
Si Si1 0.500000 0.187234 0.105668
Si Si2 0.387507 0.183818 0.822163
Si Si3 0.800612 0.183074 0.195543
Si Si4 0.286679 0.175819 0.500000
Si Si5 0.661175 0.323207 0.000000
O O1 0.552455 0.233188 0.159074
O O2 0.500000 0.000000 0.101646
O O3 0.500000 0.238817 0.000000
O O4 0.354061 0.262349 0.743729
O O5 0.358057 0.232216 0.913280
O O6 0.386268 0.000000 0.810133
O O7 0.750000 0.250000 0.250000
O O8 0.801446 0.240911 0.092760
O O9 0.796299 0.000000 0.199158
O O10 0.223610 0.170314 0.500000
O O11 0.306503 0.000000 0.500000
O O12 0.641419 0.500000 0.000000
#
# Coordination Sequence:
#
# PCOD9524125 Si02
#       5
#     8  16  16   8   8
#     4   9  18  34  56  85 114 149 192 232 277 337
#     4  11  21  36  58  82 115 154 192 232 279 335
#     4  12  24  38  57  84 116 151 190 233 285 338
#     4  11  23  39  58  83 115 151 192 232 282 341
#     4  11  21  32  52  83 118 150 188 233 278 336
#
# _framework density 17.051333
#
# number of rings (size 3 to 8) (size 9 to 14) (size 15 to 20)
#    0.000    1.000    4.286    4.286    0.000    1.143 
#    0.000    3.571    0.000    0.857    0.000    6.000 
#    0.000    0.000    0.000    0.000    0.000    0.000 
#
# Total GULP energy -156358.737308 kJ/mol
# GULP energy per Si atom -5584.240618 kJ/mol
# Density = 1.701252 g / cm^3
# Si number density = 17.051333 Si / 1000 Ang^3
#
#
#
# Elastic Constant Matrix: (Units=GPa)
#
#
# Indices 1 2 3 4 5 6 
#
# 1 124.3741 49.1310 76.0758 0.0000 0.0000 0.0000
# 2 49.1310 121.9459 62.5851 0.0000 0.0000 0.0000
# 3 76.0758 62.5851 156.3986 0.0000 0.0000 0.0000
# 4 0.0000 0.0000 0.0000 32.9640 0.0000 0.0000
# 5 0.0000 0.0000 0.0000 0.0000 55.8766 0.0000
# 6 0.0000 0.0000 0.0000 0.0000 0.0000 20.8660
#
#
#
# Elastic Compliance Matrix: (Units=1/GPa)
#
#
# Indices 1 2 3 4 5 6 
#
# 1 0.011938 -0.002302 -0.004886 0.000000 0.000000 0.000000
# 2 -0.002302 0.010764 -0.003187 0.000000 0.000000 0.000000
# 3 -0.004886 -0.003187 0.010046 0.000000 0.000000 0.000000
# 4 0.000000 0.000000 0.000000 0.030336 0.000000 0.000000
# 5 0.000000 0.000000 0.000000 0.000000 0.017897 0.000000
# 6 0.000000 0.000000 0.000000 0.000000 0.000000 0.047925
#
#
# Mechanical properties :
#
#
# Convention : Reuss Voigt Hill
#
# Bulk Modulus (GPa) = 83.35382 86.47802 84.91592
# Shear Modulus (GPa) = 32.54039 36.26977 34.40508
#
# Velocity S-wave (km/s) = 4.37324 4.61705 4.49679
# Velocity P-wave (km/s) = 8.63079 8.90220 8.76754
#
# Compressibility (1/GPa) = 0.01199705
#
# Stress axis : x y z
#
# Youngs Moduli (GPa) = 83.76497 92.90425 99.54329
#
# Poissons Ratio (x) = 0.21390 0.48634
# Poissons Ratio (y) = 0.19286 0.31728
# Poissons Ratio (z) = 0.40925 0.29612
#
# Static dielectric constant tensor:
#      x y z
#    x 1.583630 0.000000 0.000000 
#    y 0.000000 1.593420 0.000000 
#    z 0.000000 0.000000 1.558770 
# 
# From -- ./inp_files/5346.got.cif
#   From: 2010.05.17/outbox.cif.g08.bks.cpg/sg71_3_cif.got.tgz:5346.got - 2010.06.03 16:22:01.
