data_PCOD9524547
_publ_section_title
;
Structure prediction by ZEFSAII (Michael W. Deem and Ramdas Pophale) SiO2 
 PCOD9524547
Probable space group: I M M M
;
_chemical_formula_sum "Si O2"
_cell_formula_units_Z 96
_cell_length_a 7.335141
_cell_length_b 30.027891
_cell_length_c 21.087873
_cell_angle_alpha 90.000000
_cell_angle_beta 90.000000
_cell_angle_gamma 90.000000
_cell_volume 4644.789906
_symmetry_space_group_name_H-M "I M M M"
_symmetry_group_IT_number 71
_symmetry_cell_setting 'orthorhombic'
loop_
_space_group_symop_operation_xyz
x,y,z
-x,-y,z
x,-y,-z
-x,y,-z
-x,-y,-z
x,y,-z
-x,y,z
x,-y,z
1/2+x,1/2+y,1/2+z
1/2-x,1/2-y,1/2+z
1/2+x,1/2-y,1/2-z
1/2-x,1/2+y,1/2-z
1/2-x,1/2-y,1/2-z
1/2+x,1/2+y,1/2-z
1/2-x,1/2+y,1/2+z
1/2+x,1/2-y,1/2+z
loop_
_atom_site_type_symbol
_atom_site_label
_atom_site_fract_x
_atom_site_fract_y
_atom_site_fract_z
Si Si1 0.213338 0.289117 0.158900
Si Si2 0.719399 0.803101 0.198309
Si Si3 0.721322 0.051773 0.932594
Si Si4 0.222581 0.595725 0.696011
Si Si5 0.222155 0.551698 0.829438
Si Si6 0.777345 0.629030 0.073172
O O1 0.227862 0.235990 0.149608
O O2 0.289816 0.294303 0.230054
O O3 0.283411 0.325416 0.108959
O O4 0.000000 0.299809 0.163815
O O5 0.500000 0.802366 0.199450
O O6 0.777425 0.853271 0.186463
O O7 0.500000 0.054933 0.931564
O O8 0.785889 0.070912 0.866617
O O9 0.767547 0.000000 0.933718
O O10 0.781082 0.072042 0.000000
O O11 0.279892 0.573048 0.762024
O O12 0.000000 0.594756 0.698134
O O13 0.279749 0.500000 0.836257
O O14 0.277251 0.585979 0.885097
O O15 0.000000 0.551231 0.829515
O O16 0.000000 0.629135 0.072223
O O17 0.718148 0.627297 0.000000
#
# Coordination Sequence:
#
# PCOD9524547 Si02
#       6
#    16  16  16  16  16  16
#     4   9  16  28  43  60  82 109 140 170 203 247
#     4   9  16  26  43  63  83 106 136 173 209 245
#     4   8  13  20  30  46  71 105 138 160 188 241
#     4   9  14  22  35  53  78 106 132 165 208 247
#     4   9  15  22  34  54  79 106 137 171 207 250
#     4   9  16  26  39  55  79 111 142 172 210 253
#
# _framework density 20.668319
#
# number of rings (size 3 to 8) (size 9 to 14) (size 15 to 20)
#    0.000    3.167    1.667    1.000    0.000    2.333 
#    0.000    2.500    0.000    1.500    0.000    0.000 
#    0.000    4.667    0.000    3.333    0.000    3.333 
#
# Total GULP energy -267427.703572 kJ/mol
# GULP energy per Si atom -5571.410491 kJ/mol
# Density = 2.062128 g / cm^3
# Si number density = 20.668319 Si / 1000 Ang^3
#
#
#
# Elastic Constant Matrix: (Units=GPa)
#
#
# Indices 1 2 3 4 5 6 
#
# 1 75.9996 -0.6394 3.6426 0.0000 0.0000 0.0000
# 2 -0.6394 186.2740 120.9237 0.0000 0.0000 0.0000
# 3 3.6426 120.9237 187.8837 0.0000 0.0000 0.0000
# 4 0.0000 0.0000 0.0000 32.6389 0.0000 0.0000
# 5 0.0000 0.0000 0.0000 0.0000 -28.7259 0.0000
# 6 0.0000 0.0000 0.0000 0.0000 0.0000 7.4005
#
#
#
# Elastic Compliance Matrix: (Units=1/GPa)
#
#
# Indices 1 2 3 4 5 6 
#
# 1 0.013184 0.000363 -0.000489 0.000000 0.000000 0.000000
# 2 0.000363 0.009231 -0.005948 0.000000 0.000000 0.000000
# 3 -0.000489 -0.005948 0.009160 0.000000 0.000000 0.000000
# 4 0.000000 0.000000 0.000000 0.030638 0.000000 0.000000
# 5 0.000000 0.000000 0.000000 0.000000 -0.034812 0.000000
# 6 0.000000 0.000000 0.000000 0.000000 0.000000 0.135125
#
#
# Mechanical properties :
#
#
# Convention : Reuss Voigt Hill
#
# Bulk Modulus (GPa) = 51.47563 77.55680 64.51622
# Shear Modulus (GPa) = 27.60104 24.01141 25.80623
#
# Velocity S-wave (km/s) = 3.65831 3.41214 3.53737
# Velocity P-wave (km/s) = 6.54248 7.28900 6.92581
#
# Compressibility (1/GPa) = 0.01942667
#
# Stress axis : x y z
#
# Youngs Moduli (GPa) = 75.84688 108.32915 109.16691
#
# Poissons Ratio (x) = -0.03930 0.05339
# Poissons Ratio (y) = -0.02751 0.64935
# Poissons Ratio (z) = 0.03710 0.64437
#
# Static dielectric constant tensor:
#      x y z
#    x 1.855230 0.000000 0.000000 
#    y 0.000000 1.768860 0.000000 
#    z 0.000000 0.000000 1.716860 
# 
# From -- ./inp_files/26372.got.cif
#   From: 2010.05.17/outbox.cif.g08.bks.cpg/sg71_14_cif.got.tgz:26372.got - 2010.06.03 16:22:01.
