data_PCOD9524664
_publ_section_title
;
Structure prediction by ZEFSAII (Michael W. Deem and Ramdas Pophale) SiO2 
 PCOD9524664
Probable space group: I M M M
;
_chemical_formula_sum "Si O2"
_cell_formula_units_Z 64
_cell_length_a 24.000000
_cell_length_b 18.000000
_cell_length_c 18.000000
_cell_angle_alpha 90.000000
_cell_angle_beta 90.000000
_cell_angle_gamma 90.000000
_cell_volume 7776.000000
_symmetry_space_group_name_H-M "I M M M"
_symmetry_group_IT_number 71
_symmetry_cell_setting 'orthorhombic'
loop_
_space_group_symop_operation_xyz
x,y,z
-x,-y,z
x,-y,-z
-x,y,-z
-x,-y,-z
x,y,-z
-x,y,z
x,-y,z
1/2+x,1/2+y,1/2+z
1/2-x,1/2-y,1/2+z
1/2+x,1/2-y,1/2-z
1/2-x,1/2+y,1/2-z
1/2-x,1/2-y,1/2-z
1/2+x,1/2+y,1/2-z
1/2-x,1/2+y,1/2+z
1/2+x,1/2-y,1/2+z
loop_
_atom_site_type_symbol
_atom_site_label
_atom_site_fract_x
_atom_site_fract_y
_atom_site_fract_z
Si Si1 0.769389 0.419331 0.111147
Si Si2 0.400958 0.916798 0.617642
Si Si3 0.239779 0.083313 0.215443
Si Si4 0.436665 0.755510 0.415487
Si Si5 0.341131 0.819553 0.163664
Si Si6 0.435190 0.085111 0.789613
Si Si7 0.835377 0.217395 0.190139
Si Si8 0.239166 0.765232 0.421902
O O1 0.753949 0.500000 0.083433
O O2 0.835625 0.409140 0.098856
O O3 0.758549 0.417898 0.199032
O O4 0.735399 0.353065 0.077228
O O5 0.431653 0.845393 0.586130
O O6 0.408900 0.912551 0.706784
O O7 0.419410 0.000000 0.595107
O O8 0.292514 0.119308 0.174070
O O9 0.185711 0.134939 0.207940
O O10 0.229477 0.000000 0.189804
O O11 0.425263 0.731208 0.500000
O O12 0.500000 0.735444 0.395513
O O13 0.390856 0.725173 0.358472
O O14 0.399780 0.859839 0.160383
O O15 0.340390 0.766224 0.235827
O O16 0.319542 0.770997 0.095990
O O17 0.500000 0.104528 0.783505
O O18 0.430609 0.000000 0.815212
O O19 0.783743 0.249415 0.142403
O O20 0.261995 0.737085 0.500000
#
# Coordination Sequence:
#
# PCOD9524664 Si02
#       8
#    16  16  16  16  16  16  16  16
#     4  10  17  28  46  71 102 135 160 188 234 288
#     4  10  18  28  44  67 100 136 168 196 226 276
#     4  10  17  29  50  72  94 121 157 203 245 283
#     4  11  22  33  46  66  97 134 166 201 240 277
#     4  11  18  31  50  73  98 129 161 199 238 276
#     4  10  18  28  47  73  99 128 162 198 234 277
#     4  11  19  32  50  70  94 129 165 200 238 279
#     4  11  20  31  47  70  99 129 159 198 241 287
#
# _framework density 8.2304530000000007
#
# number of rings (size 3 to 8) (size 9 to 14) (size 15 to 20)
#    0.000    1.500    6.250    1.875    0.000    1.250 
#    0.000    1.875    0.000   13.500    0.000    1.750 
#    0.000    0.500    0.000    1.125    0.000    0.000 
#
# Total GULP energy -356679.539575 kJ/mol
# GULP energy per Si atom -5573.117806 kJ/mol
# Density = 0.821172 g / cm^3
# Si number density = 8.230453 Si / 1000 Ang^3
#
#
#
# Elastic Constant Matrix: (Units=GPa)
#
#
# Indices 1 2 3 4 5 6 
#
# 1 57.4313 44.4249 12.1712 0.0000 0.0000 0.0000
# 2 44.4249 93.4031 16.5803 0.0000 0.0000 0.0000
# 3 12.1712 16.5803 24.0282 0.0000 0.0000 0.0000
# 4 0.0000 0.0000 0.0000 21.3960 0.0000 0.0000
# 5 0.0000 0.0000 0.0000 0.0000 17.0601 0.0000
# 6 0.0000 0.0000 0.0000 0.0000 0.0000 20.3464
#
#
#
# Elastic Compliance Matrix: (Units=1/GPa)
#
#
# Indices 1 2 3 4 5 6 
#
# 1 0.028224 -0.012406 -0.005736 0.000000 0.000000 0.000000
# 2 -0.012406 0.017654 -0.005898 0.000000 0.000000 0.000000
# 3 -0.005736 -0.005898 0.048593 0.000000 0.000000 0.000000
# 4 0.000000 0.000000 0.000000 0.046738 0.000000 0.000000
# 5 0.000000 0.000000 0.000000 0.000000 0.058616 0.000000
# 6 0.000000 0.000000 0.000000 0.000000 0.000000 0.049149
#
#
# Mechanical properties :
#
#
# Convention : Reuss Voigt Hill
#
# Bulk Modulus (GPa) = 21.55567 35.69061 28.62314
# Shear Modulus (GPa) = 15.99915 18.53958 17.26937
#
# Velocity S-wave (km/s) = 3.12099 3.35965 3.24252
# Velocity P-wave (km/s) = 5.10989 6.06455 5.60757
#
# Compressibility (1/GPa) = 0.04639150
#
# Stress axis : x y z
#
# Youngs Moduli (GPa) = 35.43081 56.64532 20.57910
#
# Poissons Ratio (x) = 0.70273 0.11804
# Poissons Ratio (y) = 0.43955 0.12137
# Poissons Ratio (z) = 0.20324 0.33408
#
# Static dielectric constant tensor:
#      x y z
#    x 1.530780 0.000000 0.000000 
#    y 0.000000 1.599230 0.000000 
#    z 0.000000 0.000000 1.623470 
# 
# From -- ./inp_files/48403.got.cif
#   From: 2010.05.17/outbox.ucp.g08.bks.cvg/sg71_25_cif.got.tgz:48403.got - 2010.06.11 16:29:00.
