data_PCOD9524391
_publ_section_title
;
Structure prediction by ZEFSAII (Michael W. Deem and Ramdas Pophale) SiO2 
 PCOD9524391
Probable space group: I M M M
;
_chemical_formula_sum "Si O2"
_cell_formula_units_Z 56
_cell_length_a 11.316780
_cell_length_b 8.766116
_cell_length_c 28.180547
_cell_angle_alpha 90.000000
_cell_angle_beta 90.000000
_cell_angle_gamma 90.000000
_cell_volume 2795.628796
_symmetry_space_group_name_H-M "I M M M"
_symmetry_group_IT_number 71
_symmetry_cell_setting 'orthorhombic'
loop_
_space_group_symop_operation_xyz
x,y,z
-x,-y,z
x,-y,-z
-x,y,-z
-x,-y,-z
x,y,-z
-x,y,z
x,-y,z
1/2+x,1/2+y,1/2+z
1/2-x,1/2-y,1/2+z
1/2+x,1/2-y,1/2-z
1/2-x,1/2+y,1/2-z
1/2-x,1/2-y,1/2-z
1/2+x,1/2+y,1/2-z
1/2-x,1/2+y,1/2+z
1/2+x,1/2-y,1/2+z
loop_
_atom_site_type_symbol
_atom_site_label
_atom_site_fract_x
_atom_site_fract_y
_atom_site_fract_z
Si Si1 0.358913 0.675240 0.552980
Si Si2 0.500000 0.822686 0.943735
Si Si3 0.694999 0.679287 0.879673
Si Si4 0.363672 0.817246 0.221994
O O1 0.320713 0.728719 0.500000
O O2 0.500000 0.670122 0.551936
O O3 0.315119 0.500000 0.558417
O O4 0.319687 0.773630 0.597862
O O5 0.610219 0.736315 0.921458
O O6 0.500000 0.000000 0.928875
O O7 0.500000 0.817105 0.000000
O O8 0.685558 0.500000 0.871217
O O9 0.657858 0.766643 0.832250
O O10 0.500000 0.769369 0.235457
O O11 0.250000 0.750000 0.250000
O O12 0.359977 0.000000 0.226305
#
# Coordination Sequence:
#
# PCOD9524391 Si02
#       4
#    16   8  16  16
#     4   9  19  37  60  86 121 168 217 262 314 380
#     4  11  23  39  61  89 125 169 213 257 312 379
#     4  12  24  38  61  92 127 164 207 260 321 385
#     4  11  25  46  72  98 129 170 218 274 338 402
#
# _framework density 20.031271
#
# number of rings (size 3 to 8) (size 9 to 14) (size 15 to 20)
#    0.000    1.286    1.429    5.571    0.000    8.571 
#    0.000    1.429    0.000    0.000    0.000    0.000 
#    0.000    0.000    0.000    0.000    0.000    0.000 
#
# Total GULP energy -156279.127685 kJ/mol
# GULP energy per Si atom -5581.397417 kJ/mol
# Density = 1.998568 g / cm^3
# Si number density = 20.031271 Si / 1000 Ang^3
#
#
#
# Elastic Constant Matrix: (Units=GPa)
#
#
# Indices 1 2 3 4 5 6 
#
# 1 113.3020 37.5320 48.4919 0.0000 0.0000 0.0000
# 2 37.5320 70.5918 25.5878 0.0000 0.0000 0.0000
# 3 48.4919 25.5878 73.0024 0.0000 0.0000 0.0000
# 4 0.0000 0.0000 0.0000 30.9809 0.0000 0.0000
# 5 0.0000 0.0000 0.0000 0.0000 17.2021 0.0000
# 6 0.0000 0.0000 0.0000 0.0000 0.0000 19.4877
#
#
#
# Elastic Compliance Matrix: (Units=1/GPa)
#
#
# Indices 1 2 3 4 5 6 
#
# 1 0.013468 -0.004488 -0.007373 0.000000 0.000000 0.000000
# 2 -0.004488 0.017723 -0.003231 0.000000 0.000000 0.000000
# 3 -0.007373 -0.003231 0.019728 0.000000 0.000000 0.000000
# 4 0.000000 0.000000 0.000000 0.032278 0.000000 0.000000
# 5 0.000000 0.000000 0.000000 0.000000 0.058132 0.000000
# 6 0.000000 0.000000 0.000000 0.000000 0.000000 0.051314
#
#
# Mechanical properties :
#
#
# Convention : Reuss Voigt Hill
#
# Bulk Modulus (GPa) = 48.22663 53.34662 50.78663
# Shear Modulus (GPa) = 21.76363 23.21977 22.49170
#
# Velocity S-wave (km/s) = 3.29976 3.40836 3.35450
# Velocity P-wave (km/s) = 6.21658 6.49451 6.35706
#
# Compressibility (1/GPa) = 0.02073543
#
# Stress axis : x y z
#
# Youngs Moduli (GPa) = 74.24803 56.42284 50.68862
#
# Poissons Ratio (x) = 0.25324 0.37374
# Poissons Ratio (y) = 0.33324 0.16377
# Poissons Ratio (z) = 0.54745 0.18229
#
# Static dielectric constant tensor:
#      x y z
#    x 1.632870 0.000000 0.000000 
#    y 0.000000 1.690760 0.000000 
#    z 0.000000 0.000000 1.678880 
# 
# From -- ./inp_files/3295.got.cif
#   From: 2010.05.17/outbox.cif.g08.bks.cpg/sg71_2_cif.got.tgz:3295.got - 2010.06.03 16:22:01.
