data_PCOD9524143
_publ_section_title
;
Structure prediction by ZEFSAII (Michael W. Deem and Ramdas Pophale) SiO2 
 PCOD9524143
Probable space group: I M M M
;
_chemical_formula_sum "Si O2"
_cell_formula_units_Z 68
_cell_length_a 7.686153
_cell_length_b 26.767503
_cell_length_c 17.027000
_cell_angle_alpha 90.000000
_cell_angle_beta 90.000000
_cell_angle_gamma 90.000000
_cell_volume 3503.120056
_symmetry_space_group_name_H-M "I M M M"
_symmetry_group_IT_number 71
_symmetry_cell_setting 'orthorhombic'
loop_
_space_group_symop_operation_xyz
x,y,z
-x,-y,z
x,-y,-z
-x,y,-z
-x,-y,-z
x,y,-z
-x,y,z
x,-y,z
1/2+x,1/2+y,1/2+z
1/2-x,1/2-y,1/2+z
1/2+x,1/2-y,1/2-z
1/2-x,1/2+y,1/2-z
1/2-x,1/2-y,1/2-z
1/2+x,1/2+y,1/2-z
1/2-x,1/2+y,1/2+z
1/2+x,1/2-y,1/2+z
loop_
_atom_site_type_symbol
_atom_site_label
_atom_site_fract_x
_atom_site_fract_y
_atom_site_fract_z
Si Si1 0.791341 0.767716 0.087779
Si Si2 0.000000 0.375695 0.000000
Si Si3 0.206722 0.356509 0.704684
Si Si4 0.807232 0.846313 0.616478
Si Si5 0.787732 0.442897 0.410942
O O1 0.739149 0.806547 0.154352
O O2 0.712724 0.713081 0.100639
O O3 0.000000 0.761496 0.089343
O O4 0.741997 0.785723 0.000000
O O5 0.846565 0.372003 0.068155
O O6 0.287221 0.354050 0.790486
O O7 0.272655 0.402688 0.652082
O O8 0.000000 0.361915 0.714842
O O9 0.000000 0.862466 0.592500
O O10 0.732538 0.430382 0.500000
O O11 0.735671 0.500000 0.394052
O O12 0.000000 0.441877 0.410860
#
# Coordination Sequence:
#
# PCOD9524143 Si02
#       5
#    16   4  16  16  16
#     4  11  21  36  52  76 115 156 198 237 281 337
#     4  12  22  44  60  82 111 148 199 236 284 350
#     4  11  21  33  52  84 117 148 196 245 285 338
#     4  12  23  39  59  81 114 154 193 237 288 338
#     4   8  15  30  53  82 117 156 195 235 283 339
#
# _framework density 19.411268
#
# number of rings (size 3 to 8) (size 9 to 14) (size 15 to 20)
#    0.000    1.412    3.529    3.882    0.000    2.353 
#    0.000    0.000    0.000    2.824    0.000    9.882 
#    0.000    1.882    0.000    0.000    0.000    0.000 
#
# Total GULP energy -189486.022374 kJ/mol
# GULP energy per Si atom -5573.118305 kJ/mol
# Density = 1.936709 g / cm^3
# Si number density = 19.411268 Si / 1000 Ang^3
#
#
#
# Elastic Constant Matrix: (Units=GPa)
#
#
# Indices 1 2 3 4 5 6 
#
# 1 120.1251 3.5800 36.5490 0.0000 0.0000 0.0000
# 2 3.5800 22.6918 20.3876 0.0002 0.0000 0.0000
# 3 36.5490 20.3876 146.5552 0.0012 0.0000 0.0001
# 4 0.0000 0.0002 0.0012 66.7809 -0.0001 0.0001
# 5 0.0000 0.0000 0.0000 -0.0001 11.5205 0.0000
# 6 0.0000 0.0000 0.0001 0.0001 0.0000 -4.3617
#
#
#
# Elastic Compliance Matrix: (Units=1/GPa)
#
#
# Indices 1 2 3 4 5 6 
#
# 1 0.009017 0.000683 -0.002344 0.000000 0.000000 0.000000
# 2 0.000683 0.050415 -0.007184 0.000000 0.000000 0.000000
# 3 -0.002344 -0.007184 0.008407 0.000000 0.000000 0.000000
# 4 0.000000 0.000000 0.000000 0.014974 0.000000 0.000001
# 5 0.000000 0.000000 0.000000 0.000000 0.086802 0.000000
# 6 0.000000 0.000000 0.000000 0.000001 0.000000 -0.229268
#
#
# Mechanical properties :
#
#
# Convention : Reuss Voigt Hill
#
# Bulk Modulus (GPa) = 19.93977 45.60060 32.77019
# Shear Modulus (GPa) = -198.04718 30.04497 -84.00111
#
# Velocity S-wave (km/s) = -10.11180 3.93849 -6.58546
# Velocity P-wave (km/s) = 11.22660 6.65020 6.39576
#
# Compressibility (1/GPa) = 0.05015102
#
# Stress axis : x y z
#
# Youngs Moduli (GPa) = 110.89628 19.83530 118.94500
#
# Poissons Ratio (x) = -0.01355 0.27879
# Poissons Ratio (y) = -0.07577 0.85447
# Poissons Ratio (z) = 0.25993 0.14249
#
# Static dielectric constant tensor:
#      x y z
#    x 1.721390 0.000000 0.000000 
#    y 0.000000 1.653990 0.000000 
#    z 0.000000 0.000000 1.678710 
# 
# From -- ./inp_files/42199.got.cif
#   From: 2010.05.17/outbox.cif.g08.bks.cpg/sg71_22_cif.got.tgz:42199.got - 2010.06.03 16:22:01.
