data_PCOD9524209
_publ_section_title
;
Structure prediction by ZEFSAII (Michael W. Deem and Ramdas Pophale) SiO2 
 PCOD9524209
Probable space group: I M M M
;
_chemical_formula_sum "Si O2"
_cell_formula_units_Z 80
_cell_length_a 9.821979
_cell_length_b 17.363646
_cell_length_c 26.692386
_cell_angle_alpha 90.000000
_cell_angle_beta 90.000000
_cell_angle_gamma 90.000000
_cell_volume 4552.262750
_symmetry_space_group_name_H-M "I M M M"
_symmetry_group_IT_number 71
_symmetry_cell_setting 'orthorhombic'
loop_
_space_group_symop_operation_xyz
x,y,z
-x,-y,z
x,-y,-z
-x,y,-z
-x,-y,-z
x,y,-z
-x,y,z
x,-y,z
1/2+x,1/2+y,1/2+z
1/2-x,1/2-y,1/2+z
1/2+x,1/2-y,1/2-z
1/2-x,1/2+y,1/2-z
1/2-x,1/2-y,1/2-z
1/2+x,1/2+y,1/2-z
1/2-x,1/2+y,1/2+z
1/2+x,1/2-y,1/2+z
loop_
_atom_site_type_symbol
_atom_site_label
_atom_site_fract_x
_atom_site_fract_y
_atom_site_fract_z
Si Si1 0.500000 0.587343 0.940240
Si Si2 0.338947 0.654511 0.444816
Si Si3 0.000000 0.592983 0.939302
Si Si4 0.333818 0.772491 0.799535
Si Si5 0.754979 0.187219 0.400746
Si Si6 0.840918 0.911614 0.161165
O O1 0.500000 0.500000 0.921120
O O2 0.373802 0.635186 0.921367
O O3 0.500000 0.584338 0.000000
O O4 0.301551 0.625793 0.500000
O O5 0.500000 0.673536 0.445309
O O6 0.262452 0.733327 0.431448
O O7 0.320900 0.596656 0.398774
O O8 0.125092 0.634546 0.912009
O O9 0.000000 0.500000 0.933673
O O10 0.000000 0.608278 0.000000
O O11 0.500000 0.772756 0.794696
O O12 0.250000 0.750000 0.750000
O O13 0.288133 0.714537 0.844291
O O14 0.269830 0.855247 0.814784
O O15 0.000000 0.887701 0.171365
O O16 0.826325 0.000000 0.176667
#
# Coordination Sequence:
#
# PCOD9524209 Si02
#       6
#     8  16   8  16  16  16
#     4  11  22  36  55  82 123 167 198 237 300 364
#     4   9  16  28  52  83 114 152 192 229 271 328
#     4  11  22  36  59  90 125 167 208 247 296 356
#     4  11  24  42  67  89 112 155 203 253 309 361
#     4  11  21  37  57  87 119 155 200 251 294 357
#     4   9  19  36  59  89 122 153 189 237 292 349
#
# _framework density 17.573678000000001
#
# number of rings (size 3 to 8) (size 9 to 14) (size 15 to 20)
#    0.000    1.800    2.000    3.000    2.800    2.400 
#    0.000    4.000    0.000    0.000    0.000    2.800 
#    0.000    0.000    0.000    0.000    0.000    0.000 
#
# Total GULP energy -222899.660132 kJ/mol
# GULP energy per Si atom -5572.491503 kJ/mol
# Density = 1.753368 g / cm^3
# Si number density = 17.573678 Si / 1000 Ang^3
#
#
#
# Elastic Constant Matrix: (Units=GPa)
#
#
# Indices 1 2 3 4 5 6 
#
# 1 156.0822 58.4022 58.1727 0.0000 0.0000 0.0000
# 2 58.4022 93.4373 34.6777 0.0000 0.0000 0.0000
# 3 58.1727 34.6777 109.9652 0.0000 0.0000 0.0000
# 4 0.0000 0.0000 0.0000 10.8453 0.0000 0.0000
# 5 0.0000 0.0000 0.0000 0.0000 20.8018 0.0000
# 6 0.0000 0.0000 0.0000 0.0000 0.0000 56.1332
#
#
#
# Elastic Compliance Matrix: (Units=1/GPa)
#
#
# Indices 1 2 3 4 5 6 
#
# 1 0.009447 -0.004587 -0.003551 0.000000 0.000000 0.000000
# 2 -0.004587 0.014348 -0.002098 0.000000 0.000000 0.000000
# 3 -0.003551 -0.002098 0.011634 0.000000 0.000000 0.000000
# 4 0.000000 0.000000 0.000000 0.092206 0.000000 0.000000
# 5 0.000000 0.000000 0.000000 0.000000 0.048073 0.000000
# 6 0.000000 0.000000 0.000000 0.000000 0.000000 0.017815
#
#
# Mechanical properties :
#
#
# Convention : Reuss Voigt Hill
#
# Bulk Modulus (GPa) = 66.85924 73.55444 70.20684
# Shear Modulus (GPa) = 22.83321 31.43819 27.13570
#
# Velocity S-wave (km/s) = 3.60847 4.23417 3.93378
# Velocity P-wave (km/s) = 7.44910 8.11480 7.78907
#
# Compressibility (1/GPa) = 0.01495680
#
# Stress axis : x y z
#
# Youngs Moduli (GPa) = 105.85900 69.69649 85.95535
#
# Poissons Ratio (x) = 0.31967 0.30522
# Poissons Ratio (y) = 0.48553 0.18036
# Poissons Ratio (z) = 0.37590 0.14624
#
# Static dielectric constant tensor:
#      x y z
#    x 1.565610 0.000000 0.000000 
#    y 0.000000 1.581190 0.000000 
#    z 0.000000 0.000000 1.618940 
# 
# From -- ./inp_files/48627.got.cif
#   From: 2010.05.17/outbox.cif.g08.bks.cpg/sg71_25_cif.got.tgz:48627.got - 2010.06.03 16:22:01.
