data_PCOD9524884
_publ_section_title
;
Structure prediction by ZEFSAII (Michael W. Deem and Ramdas Pophale) SiO2 
 PCOD9524884
Probable space group: I M M M
;
_chemical_formula_sum "Si O2"
_cell_formula_units_Z 44
_cell_length_a 30.000000
_cell_length_b 18.000000
_cell_length_c 9.000000
_cell_angle_alpha 90.000000
_cell_angle_beta 90.000000
_cell_angle_gamma 90.000000
_cell_volume 4860.000000
_symmetry_space_group_name_H-M "I M M M"
_symmetry_group_IT_number 71
_symmetry_cell_setting 'orthorhombic'
loop_
_space_group_symop_operation_xyz
x,y,z
-x,-y,z
x,-y,-z
-x,y,-z
-x,-y,-z
x,y,-z
-x,y,z
x,-y,z
1/2+x,1/2+y,1/2+z
1/2-x,1/2-y,1/2+z
1/2+x,1/2-y,1/2-z
1/2-x,1/2+y,1/2-z
1/2-x,1/2-y,1/2-z
1/2+x,1/2+y,1/2-z
1/2-x,1/2+y,1/2+z
1/2+x,1/2-y,1/2+z
loop_
_atom_site_type_symbol
_atom_site_label
_atom_site_fract_x
_atom_site_fract_y
_atom_site_fract_z
Si Si1 0.727678 0.323241 0.320191
Si Si2 0.000000 0.412543 0.180112
Si Si3 0.403062 0.838392 0.320393
Si Si4 0.050770 0.089418 0.174629
Si Si5 0.628336 0.317465 0.179067
Si Si6 0.182762 0.588383 0.329105
O O1 0.722624 0.317957 0.500000
O O2 0.750000 0.250000 0.250000
O O3 0.678026 0.332059 0.248906
O O4 0.767321 0.383014 0.288670
O O5 0.952292 0.372787 0.222572
O O6 0.000000 0.500000 0.227393
O O7 0.000000 0.412260 0.000000
O O8 0.403096 0.831615 0.500000
O O9 0.392149 0.759303 0.244299
O O10 0.359504 0.885751 0.269137
O O11 0.091284 0.122673 0.269062
O O12 0.000000 0.113126 0.218339
O O13 0.051770 0.000000 0.183130
O O14 0.056540 0.110032 0.000000
O O15 0.632158 0.314542 0.000000
O O16 0.174838 0.614700 0.500000
O O17 0.183611 0.500000 0.327665
#
# Coordination Sequence:
#
# PCOD9524884 Si02
#       6
#    16   8  16  16  16  16
#     4  11  22  39  62  87 119 160 200 247 301 355
#     4   9  20  38  59  87 120 153 196 251 303 352
#     4  11  22  38  62  89 119 160 206 252 298 355
#     4   9  20  41  67  92 120 157 202 251 305 365
#     4  12  25  39  59  90 127 163 202 252 301 359
#     4  10  22  40  62  89 121 155 194 245 306 368
#
# _framework density 9.0534979999999994
#
# number of rings (size 3 to 8) (size 9 to 14) (size 15 to 20)
#    0.000    1.545    1.818    3.818    1.273    3.273 
#    0.000    4.091    0.000    3.273    0.000    0.000 
#    0.000    0.000    0.000    0.000    0.000    0.000 
#
# Total GULP energy -245375.512635 kJ/mol
# GULP energy per Si atom -5576.716196 kJ/mol
# Density = 0.903289 g / cm^3
# Si number density = 9.053498 Si / 1000 Ang^3
#
#
#
# Elastic Constant Matrix: (Units=GPa)
#
#
# Indices 1 2 3 4 5 6 
#
# 1 212.7672 56.8140 73.8797 0.0000 0.0000 0.0000
# 2 56.8140 68.9612 33.1132 0.0000 0.0000 0.0000
# 3 73.8797 33.1132 106.9697 0.0000 0.0000 0.0000
# 4 0.0000 0.0000 0.0000 27.3427 0.0000 0.0000
# 5 0.0000 0.0000 0.0000 0.0000 41.1152 0.0000
# 6 0.0000 0.0000 0.0000 0.0000 0.0000 45.1401
#
#
#
# Elastic Compliance Matrix: (Units=1/GPa)
#
#
# Indices 1 2 3 4 5 6 
#
# 1 0.007036 -0.004068 -0.003600 0.000000 0.000000 0.000000
# 2 -0.004068 0.019385 -0.003191 0.000000 0.000000 0.000000
# 3 -0.003600 -0.003191 0.012823 0.000000 0.000000 0.000000
# 4 0.000000 0.000000 0.000000 0.036573 0.000000 0.000000
# 5 0.000000 0.000000 0.000000 0.000000 0.024322 0.000000
# 6 0.000000 0.000000 0.000000 0.000000 0.000000 0.022153
#
#
# Mechanical properties :
#
#
# Convention : Reuss Voigt Hill
#
# Bulk Modulus (GPa) = 57.06165 79.59018 68.32591
# Shear Modulus (GPa) = 33.36607 37.71236 35.53922
#
# Velocity S-wave (km/s) = 4.29734 4.56867 4.43508
# Velocity P-wave (km/s) = 7.49699 8.47828 8.00269
#
# Compressibility (1/GPa) = 0.01752490
#
# Stress axis : x y z
#
# Youngs Moduli (GPa) = 142.11651 51.58710 77.98531
#
# Poissons Ratio (x) = 0.20987 0.28078
# Poissons Ratio (y) = 0.57816 0.24885
# Poissons Ratio (z) = 0.51169 0.16461
#
# Static dielectric constant tensor:
#      x y z
#    x 1.621160 0.000000 0.000000 
#    y 0.000000 1.652620 0.000000 
#    z 0.000000 0.000000 1.625990 
# 
# From -- ./inp_files/16624.got.cif
#   From: 2010.05.17/outbox.ucp.g08.bks.cvg/sg71_9_cif.got.tgz:16624.got - 2010.06.11 16:29:00.
