data_PCOD9524201
_publ_section_title
;
Structure prediction by ZEFSAII (Michael W. Deem and Ramdas Pophale) SiO2 
 PCOD9524201
Probable space group: I M M M
;
_chemical_formula_sum "Si O2"
_cell_formula_units_Z 72
_cell_length_a 7.807581
_cell_length_b 17.975328
_cell_length_c 24.782778
_cell_angle_alpha 90.000000
_cell_angle_beta 90.000000
_cell_angle_gamma 90.000000
_cell_volume 3478.109967
_symmetry_space_group_name_H-M "I M M M"
_symmetry_group_IT_number 71
_symmetry_cell_setting 'orthorhombic'
loop_
_space_group_symop_operation_xyz
x,y,z
-x,-y,z
x,-y,-z
-x,y,-z
-x,-y,-z
x,y,-z
-x,y,z
x,-y,z
1/2+x,1/2+y,1/2+z
1/2-x,1/2-y,1/2+z
1/2+x,1/2-y,1/2-z
1/2-x,1/2+y,1/2-z
1/2-x,1/2-y,1/2-z
1/2+x,1/2+y,1/2-z
1/2-x,1/2+y,1/2+z
1/2+x,1/2-y,1/2+z
loop_
_atom_site_type_symbol
_atom_site_label
_atom_site_fract_x
_atom_site_fract_y
_atom_site_fract_z
Si Si1 0.809149 0.861410 0.137853
Si Si2 0.208814 0.915650 0.561532
Si Si3 0.294155 0.917698 0.253141
Si Si4 0.000000 0.410498 0.437227
Si Si5 0.797236 0.804489 0.654439
O O1 0.771733 0.906279 0.192645
O O2 0.666174 0.880315 0.093873
O O3 0.792766 0.774753 0.153907
O O4 0.000000 0.877705 0.118296
O O5 0.260350 0.898826 0.500000
O O6 0.266045 0.855835 0.605041
O O7 0.000000 0.915827 0.562641
O O8 0.264201 0.000000 0.574558
O O9 0.500000 0.914221 0.251881
O O10 0.229405 0.852632 0.291829
O O11 0.242308 0.000000 0.273160
O O12 0.000000 0.500000 0.433887
O O13 0.000000 0.388476 0.500000
O O14 0.000000 0.790628 0.647826
#
# Coordination Sequence:
#
# PCOD9524201 Si02
#       5
#    16  16  16   8  16
#     4  12  25  44  69  99 136 174 219 274 341 402
#     4   8  15  29  51  81 119 166 218 268 320 380
#     4  11  23  40  63  93 133 177 223 278 336 400
#     4  11  26  50  76 102 133 171 222 278 335 404
#     4  11  21  36  59  95 133 175 224 275 329 392
#
# _framework density 20.700897999999999
#
# number of rings (size 3 to 8) (size 9 to 14) (size 15 to 20)
#    0.000    1.444    2.222    4.000    0.000    5.333 
#    0.000    1.111    0.000    2.000    0.000    7.778 
#    0.000    0.000    0.000    0.000    0.000    0.000 
#
# Total GULP energy -201384.196625 kJ/mol
# GULP energy per Si atom -5594.005462 kJ/mol
# Density = 2.065378 g / cm^3
# Si number density = 20.700898 Si / 1000 Ang^3
#
#
#
# Elastic Constant Matrix: (Units=GPa)
#
#
# Indices 1 2 3 4 5 6 
#
# 1 90.0010 11.1663 23.8724 0.0000 0.0000 0.0000
# 2 11.1663 77.8752 29.4027 0.0000 0.0000 0.0000
# 3 23.8724 29.4027 100.8575 0.0000 0.0000 0.0000
# 4 0.0000 0.0000 0.0000 107.7793 0.0000 0.0000
# 5 0.0000 0.0000 0.0000 0.0000 12.4265 0.0000
# 6 0.0000 0.0000 0.0000 0.0000 0.0000 4.7195
#
#
#
# Elastic Compliance Matrix: (Units=1/GPa)
#
#
# Indices 1 2 3 4 5 6 
#
# 1 0.011891 -0.000722 -0.002604 0.000000 0.000000 0.000000
# 2 -0.000722 0.014473 -0.004048 0.000000 0.000000 0.000000
# 3 -0.002604 -0.004048 0.011712 0.000000 0.000000 0.000000
# 4 0.000000 0.000000 0.000000 0.009278 0.000000 0.000000
# 5 0.000000 0.000000 0.000000 0.000000 0.080473 0.000000
# 6 0.000000 0.000000 0.000000 0.000000 0.000000 0.211886
#
#
# Mechanical properties :
#
#
# Convention : Reuss Voigt Hill
#
# Bulk Modulus (GPa) = 42.86857 44.17960 43.52408
# Shear Modulus (GPa) = 13.80310 38.60455 26.20383
#
# Velocity S-wave (km/s) = 2.58502 4.32310 3.56171
# Velocity P-wave (km/s) = 5.44640 6.80494 6.16322
#
# Compressibility (1/GPa) = 0.02332711
#
# Stress axis : x y z
#
# Youngs Moduli (GPa) = 84.09518 69.09364 85.38534
#
# Poissons Ratio (x) = 0.04987 0.22236
# Poissons Ratio (y) = 0.06070 0.34568
# Poissons Ratio (z) = 0.21900 0.27972
#
# Static dielectric constant tensor:
#      x y z
#    x 1.749760 0.000000 0.000000 
#    y 0.000000 1.734630 0.000000 
#    z 0.000000 0.000000 1.702800 
# 
# From -- ./inp_files/57306.got.cif
#   From: 2010.05.17/outbox.cif.g08.bks.cpg/sg71_29_cif.got.tgz:57306.got - 2010.06.03 16:22:01.
