data_PCOD9524075
_publ_section_title
;
Structure prediction by ZEFSAII (Michael W. Deem and Ramdas Pophale) SiO2 
 PCOD9524075
Probable space group: I M M M
;
_chemical_formula_sum "Si O2"
_cell_formula_units_Z 56
_cell_length_a 11.186798
_cell_length_b 10.429798
_cell_length_c 25.455279
_cell_angle_alpha 90.000000
_cell_angle_beta 90.000000
_cell_angle_gamma 90.000000
_cell_volume 2970.021238
_symmetry_space_group_name_H-M "I M M M"
_symmetry_group_IT_number 71
_symmetry_cell_setting 'orthorhombic'
loop_
_space_group_symop_operation_xyz
x,y,z
-x,-y,z
x,-y,-z
-x,y,-z
-x,-y,-z
x,y,-z
-x,y,z
x,-y,z
1/2+x,1/2+y,1/2+z
1/2-x,1/2-y,1/2+z
1/2+x,1/2-y,1/2-z
1/2-x,1/2+y,1/2-z
1/2-x,1/2-y,1/2-z
1/2+x,1/2+y,1/2-z
1/2-x,1/2+y,1/2+z
1/2+x,1/2-y,1/2+z
loop_
_atom_site_type_symbol
_atom_site_label
_atom_site_fract_x
_atom_site_fract_y
_atom_site_fract_z
Si Si1 0.358206 0.500000 0.713630
Si Si2 0.307355 0.741935 0.638622
Si Si3 0.857338 0.647782 0.559010
Si Si4 0.641136 0.000000 0.701826
Si Si5 0.500000 0.649572 0.438193
O O1 0.500000 0.500000 0.730844
O O2 0.336611 0.626791 0.678632
O O3 0.249574 0.500000 0.755801
O O4 0.179771 0.726813 0.610566
O O5 0.388685 0.718082 0.587900
O O6 0.337622 0.873549 0.666940
O O7 0.818560 0.690601 0.500000
O O8 0.812837 0.500000 0.565397
O O9 0.000000 0.643159 0.557465
O O10 0.500000 0.000000 0.720187
O O11 0.500000 0.500000 0.422658
O O12 0.500000 0.656619 0.500000
#
# Coordination Sequence:
#
# PCOD9524075 Si02
#       5
#     8  16  16   8   8
#     4  12  24  44  68  89 118 164 227 282 318 378
#     4  12  21  41  63  91 127 159 210 265 321 383
#     4   9  18  34  61  96 128 160 204 258 316 384
#     4  12  28  44  62  87 132 174 215 270 330 380
#     4  11  20  35  67  97 121 159 207 259 322 382
#
# _framework density 18.855084999999999
#
# number of rings (size 3 to 8) (size 9 to 14) (size 15 to 20)
#    0.000    1.000    5.714    2.571    0.000    4.571 
#    0.000    3.571    0.000    1.714    0.000    0.000 
#    0.000    0.000    0.000    0.000    0.000    0.000 
#
# Total GULP energy -156080.804589 kJ/mol
# GULP energy per Si atom -5574.314450 kJ/mol
# Density = 1.881217 g / cm^3
# Si number density = 18.855085 Si / 1000 Ang^3
#
#
#
# Elastic Constant Matrix: (Units=GPa)
#
#
# Indices 1 2 3 4 5 6 
#
# 1 109.7171 30.9209 59.4492 0.0000 0.0000 0.0000
# 2 30.9209 122.7468 54.0806 0.0000 0.0000 0.0000
# 3 59.4492 54.0806 92.6997 0.0000 0.0000 0.0000
# 4 0.0000 0.0000 0.0000 59.1036 0.0000 0.0000
# 5 0.0000 0.0000 0.0000 0.0000 37.7155 0.0000
# 6 0.0000 0.0000 0.0000 0.0000 0.0000 20.1447
#
#
#
# Elastic Compliance Matrix: (Units=1/GPa)
#
#
# Indices 1 2 3 4 5 6 
#
# 1 0.013998 0.000577 -0.009314 0.000000 0.000000 0.000000
# 2 0.000577 0.010989 -0.006781 0.000000 0.000000 0.000000
# 3 -0.009314 -0.006781 0.020717 0.000000 0.000000 0.000000
# 4 0.000000 0.000000 0.000000 0.016919 0.000000 0.000000
# 5 0.000000 0.000000 0.000000 0.000000 0.026514 0.000000
# 6 0.000000 0.000000 0.000000 0.000000 0.000000 0.049641
#
#
# Mechanical properties :
#
#
# Convention : Reuss Voigt Hill
#
# Bulk Modulus (GPa) = 68.17391 68.22946 68.20169
# Shear Modulus (GPa) = 28.61969 35.44028 32.02999
#
# Velocity S-wave (km/s) = 3.90022 4.34015 4.12606
# Velocity P-wave (km/s) = 7.51782 7.83459 7.67783
#
# Compressibility (1/GPa) = 0.01466837
#
# Stress axis : x y z
#
# Youngs Moduli (GPa) = 71.43651 90.99870 48.26954
#
# Poissons Ratio (x) = -0.05254 0.44959
# Poissons Ratio (y) = -0.04125 0.32733
# Poissons Ratio (z) = 0.66537 0.61709
#
# Static dielectric constant tensor:
#      x y z
#    x 1.390390 0.000000 0.000000 
#    y 0.000000 1.625470 0.000000 
#    z 0.000000 0.000000 1.646700 
# 
# From -- ./inp_files/13989.got.cif
#   From: 2010.05.17/outbox.cif.g08.bks.cpg/sg71_7_cif.got.tgz:13989.got - 2010.06.03 16:22:01.
