data_PCOD9524263
_publ_section_title
;
Structure prediction by ZEFSAII (Michael W. Deem and Ramdas Pophale) SiO2 
 PCOD9524263
Probable space group: I M M M
;
_chemical_formula_sum "Si O2"
_cell_formula_units_Z 72
_cell_length_a 8.413695
_cell_length_b 17.314518
_cell_length_c 25.062685
_cell_angle_alpha 90.000000
_cell_angle_beta 90.000000
_cell_angle_gamma 90.000000
_cell_volume 3651.108731
_symmetry_space_group_name_H-M "I M M M"
_symmetry_group_IT_number 71
_symmetry_cell_setting 'orthorhombic'
loop_
_space_group_symop_operation_xyz
x,y,z
-x,-y,z
x,-y,-z
-x,y,-z
-x,-y,-z
x,y,-z
-x,y,z
x,-y,z
1/2+x,1/2+y,1/2+z
1/2-x,1/2-y,1/2+z
1/2+x,1/2-y,1/2-z
1/2-x,1/2+y,1/2-z
1/2-x,1/2-y,1/2-z
1/2+x,1/2+y,1/2-z
1/2-x,1/2+y,1/2+z
1/2+x,1/2-y,1/2+z
loop_
_atom_site_type_symbol
_atom_site_label
_atom_site_fract_x
_atom_site_fract_y
_atom_site_fract_z
Si Si1 0.311652 0.875221 0.142607
Si Si2 0.806049 0.585426 0.761940
Si Si3 0.309990 0.588846 0.062768
Si Si4 0.187273 0.703979 0.149197
Si Si5 0.810826 0.000000 0.939242
O O1 0.500000 0.887251 0.141268
O O2 0.254403 0.903789 0.200843
O O3 0.272783 0.784906 0.140091
O O4 0.240707 0.925388 0.094830
O O5 0.756684 0.500000 0.781088
O O6 0.752296 0.655374 0.799534
O O7 0.000000 0.586966 0.762890
O O8 0.500000 0.597624 0.071435
O O9 0.267774 0.500000 0.075223
O O10 0.216884 0.647936 0.099367
O O11 0.280365 0.601353 0.000000
O O12 0.000000 0.718895 0.156061
O O13 0.000000 0.000000 0.942187
O O14 0.747126 0.000000 0.000000
#
# Coordination Sequence:
#
# PCOD9524263 Si02
#       5
#    16  16  16  16   8
#     4  11  22  40  64  86 117 157 198 243 292 355
#     4   9  18  35  59  87 120 156 194 239 292 348
#     4   9  19  37  58  80 112 153 197 244 291 346
#     4  11  22  35  57  89 124 156 193 243 298 353
#     4  11  25  45  67  91 119 151 196 255 312 361
#
# _framework density 19.720037999999999
#
# number of rings (size 3 to 8) (size 9 to 14) (size 15 to 20)
#    0.000    1.889    1.111    3.667    0.000    3.556 
#    0.000    4.444    0.000    0.000    0.000    0.000 
#    0.000    0.000    0.000    0.000    0.000    0.000 
#
# Total GULP energy -201113.644644 kJ/mol
# GULP energy per Si atom -5586.490129 kJ/mol
# Density = 1.967515 g / cm^3
# Si number density = 19.720038 Si / 1000 Ang^3
#
#
#
# Elastic Constant Matrix: (Units=GPa)
#
#
# Indices 1 2 3 4 5 6 
#
# 1 21.4486 13.8532 20.9406 0.0000 0.0000 0.0000
# 2 13.8532 127.0634 72.1167 0.0000 0.0000 0.0000
# 3 20.9406 72.1167 116.9714 0.0000 0.0000 0.0000
# 4 0.0000 0.0000 0.0000 -26.0080 0.0000 0.0000
# 5 0.0000 0.0000 0.0000 0.0000 20.4383 0.0000
# 6 0.0000 0.0000 0.0000 0.0000 0.0000 11.5880
#
#
#
# Elastic Compliance Matrix: (Units=1/GPa)
#
#
# Indices 1 2 3 4 5 6 
#
# 1 0.056533 -0.000645 -0.009723 0.000000 0.000000 0.000000
# 2 -0.000645 0.012114 -0.007353 0.000000 0.000000 0.000000
# 3 -0.009723 -0.007353 0.014823 0.000000 0.000000 0.000000
# 4 0.000000 0.000000 0.000000 -0.038450 0.000000 0.000000
# 5 0.000000 0.000000 0.000000 0.000000 0.048928 0.000000
# 6 0.000000 0.000000 0.000000 0.000000 0.000000 0.086296
#
#
# Mechanical properties :
#
#
# Convention : Reuss Voigt Hill
#
# Bulk Modulus (GPa) = 20.82151 53.25605 37.03878
# Shear Modulus (GPa) = 21.58011 11.77518 16.67765
#
# Velocity S-wave (km/s) = 3.31165 2.44625 2.91128
# Velocity P-wave (km/s) = 5.02037 5.91976 5.48852
#
# Compressibility (1/GPa) = 0.04802727
#
# Stress axis : x y z
#
# Youngs Moduli (GPa) = 17.68894 82.55086 67.46220
#
# Poissons Ratio (x) = 0.05325 0.65593
# Poissons Ratio (y) = 0.01141 0.49605
# Poissons Ratio (z) = 0.17199 0.60700
#
# Static dielectric constant tensor:
#      x y z
#    x 1.685250 0.000000 0.000000 
#    y 0.000000 1.671310 0.000000 
#    z 0.000000 0.000000 1.692040 
# 
# From -- ./inp_files/6107.got.cif
#   From: 2010.05.17/outbox.cif.g08.bks.cpg/sg71_4_cif.got.tgz:6107.got - 2010.06.03 16:22:01.
