data_PCOD9524050
_publ_section_title
;
Structure prediction by ZEFSAII (Michael W. Deem and Ramdas Pophale) SiO2 
 PCOD9524050
Probable space group: I M M M
;
_chemical_formula_sum "Si O2"
_cell_formula_units_Z 96
_cell_length_a 11.712061
_cell_length_b 19.344866
_cell_length_c 24.477329
_cell_angle_alpha 90.000000
_cell_angle_beta 90.000000
_cell_angle_gamma 90.000000
_cell_volume 5545.785612
_symmetry_space_group_name_H-M "I M M M"
_symmetry_group_IT_number 71
_symmetry_cell_setting 'orthorhombic'
loop_
_space_group_symop_operation_xyz
x,y,z
-x,-y,z
x,-y,-z
-x,y,-z
-x,-y,-z
x,y,-z
-x,y,z
x,-y,z
1/2+x,1/2+y,1/2+z
1/2-x,1/2-y,1/2+z
1/2+x,1/2-y,1/2-z
1/2-x,1/2+y,1/2-z
1/2-x,1/2-y,1/2-z
1/2+x,1/2+y,1/2-z
1/2-x,1/2+y,1/2+z
1/2+x,1/2-y,1/2+z
loop_
_atom_site_type_symbol
_atom_site_label
_atom_site_fract_x
_atom_site_fract_y
_atom_site_fract_z
Si Si1 0.740406 0.922511 0.166540
Si Si2 0.500000 0.079908 0.203521
Si Si3 0.629993 0.890796 0.062187
Si Si4 0.366798 0.276118 0.063177
Si Si5 0.500000 0.080865 0.333826
Si Si6 0.787250 0.318057 0.833530
Si Si7 0.371096 0.319422 0.270288
O O1 0.620229 0.887104 0.185855
O O2 0.723155 0.921627 0.102091
O O3 0.846794 0.881271 0.188101
O O4 0.742074 0.000000 0.188420
O O5 0.500000 0.077800 0.268248
O O6 0.500000 0.000000 0.183341
O O7 0.500000 0.910497 0.078553
O O8 0.636767 0.807576 0.064927
O O9 0.645087 0.912014 0.000000
O O10 0.500000 0.295890 0.072316
O O11 0.285051 0.303002 0.111441
O O12 0.336853 0.295872 0.000000
O O13 0.613867 0.125891 0.346611
O O14 0.500000 0.000000 0.353260
O O15 0.703681 0.337543 0.783205
O O16 0.839595 0.248488 0.805906
O O17 0.500000 0.311744 0.252220
#
# Coordination Sequence:
#
# PCOD9524050 Si02
#       7
#    16   8  16  16   8  16  16
#     4  11  20  32  51  74 111 154 186 225 271 320
#     4   9  18  32  49  75 109 150 183 213 273 324
#     4   9  17  29  48  77 110 143 183 232 274 312
#     4   9  18  34  58  86 114 144 182 229 281 330
#     4  11  22  38  59  85 114 142 176 225 289 345
#     4  11  21  36  59  83 112 144 181 230 280 328
#     4  11  23  35  52  82 113 146 189 227 269 326
#
# _framework density 17.310441999999998
#
# number of rings (size 3 to 8) (size 9 to 14) (size 15 to 20)
#    0.000    1.833    5.000    1.500    0.000    0.667 
#    0.000    1.250    0.000    4.000    0.000    2.333 
#    0.000    0.000    0.000    0.000    0.000    0.000 
#
# Total GULP energy -267313.786812 kJ/mol
# GULP energy per Si atom -5569.037225 kJ/mol
# Density = 1.727104 g / cm^3
# Si number density = 17.310442 Si / 1000 Ang^3
#
#
#
# Elastic Constant Matrix: (Units=GPa)
#
#
# Indices 1 2 3 4 5 6 
#
# 1 82.6707 33.6582 44.5472 0.0000 0.0000 0.0000
# 2 33.6582 61.9191 30.2876 0.0000 0.0000 0.0000
# 3 44.5472 30.2876 93.5667 0.0000 0.0000 0.0000
# 4 0.0000 0.0000 0.0000 16.5573 0.0000 0.0000
# 5 0.0000 0.0000 0.0000 0.0000 21.6589 0.0000
# 6 0.0000 0.0000 0.0000 0.0000 0.0000 13.1178
#
#
#
# Elastic Compliance Matrix: (Units=1/GPa)
#
#
# Indices 1 2 3 4 5 6 
#
# 1 0.018396 -0.006791 -0.006560 0.000000 0.000000 0.000000
# 2 -0.006791 0.021695 -0.003790 0.000000 0.000000 0.000000
# 3 -0.006560 -0.003790 0.015038 0.000000 0.000000 0.000000
# 4 0.000000 0.000000 0.000000 0.060396 0.000000 0.000000
# 5 0.000000 0.000000 0.000000 0.000000 0.046170 0.000000
# 6 0.000000 0.000000 0.000000 0.000000 0.000000 0.076233
#
#
# Mechanical properties :
#
#
# Convention : Reuss Voigt Hill
#
# Bulk Modulus (GPa) = 47.96739 50.57136 49.26937
# Shear Modulus (GPa) = 17.91099 18.91102 18.41101
#
# Velocity S-wave (km/s) = 3.22015 3.30883 3.26479
# Velocity P-wave (km/s) = 6.44950 6.62386 6.53727
#
# Compressibility (1/GPa) = 0.02084750
#
# Stress axis : x y z
#
# Youngs Moduli (GPa) = 54.35992 46.09317 66.50024
#
# Poissons Ratio (x) = 0.31301 0.43625
# Poissons Ratio (y) = 0.36915 0.25201
# Poissons Ratio (z) = 0.35661 0.17468
#
# Static dielectric constant tensor:
#      x y z
#    x 1.616510 0.000000 0.000000 
#    y 0.000000 1.608070 0.000000 
#    z 0.000000 0.000000 1.604350 
# 
# From -- ./inp_files/26205.got.cif
#   From: 2010.05.17/outbox.cif.g08.bks.cpg/sg71_14_cif.got.tgz:26205.got - 2010.06.03 16:22:01.
