data_PCOD9524970
_publ_section_title
;
Structure prediction by ZEFSAII (Michael W. Deem and Ramdas Pophale) SiO2 
 PCOD9524970
Probable space group: I B A M
;
_chemical_formula_sum "Si O2"
_cell_formula_units_Z 64
_cell_length_a 5.321365
_cell_length_b 14.521330
_cell_length_c 36.707339
_cell_angle_alpha 90.000000
_cell_angle_beta 90.000000
_cell_angle_gamma 90.000000
_cell_volume 2836.497117
_symmetry_space_group_name_H-M "I B A M"
_symmetry_group_IT_number 72
_symmetry_cell_setting 'orthorhombic'
loop_
_space_group_symop_operation_xyz
x,y,z
-x,-y,z
x,-y,1/2-z
-x,y,1/2-z
-x,-y,-z
x,y,-z
-x,y,1/2+z
x,-y,1/2+z
1/2+x,1/2+y,1/2+z
1/2-x,1/2-y,1/2+z
1/2+x,1/2-y,-z
1/2-x,1/2+y,-z
1/2-x,1/2-y,1/2-z
1/2+x,1/2+y,1/2-z
1/2-x,1/2+y,z
1/2+x,1/2-y,z
loop_
_atom_site_type_symbol
_atom_site_label
_atom_site_fract_x
_atom_site_fract_y
_atom_site_fract_z
Si Si1 0.771533 0.308661 0.349740
Si Si2 0.747401 0.855239 0.733979
Si Si3 0.029438 0.887979 0.458524
Si Si4 0.531591 0.108511 0.077909
O O1 0.488907 0.269437 0.352810
O O2 0.776550 0.350572 0.309330
O O3 0.857051 0.375984 0.381903
O O4 0.500000 0.899165 0.750000
O O5 0.750000 0.750000 0.750000
O O6 0.000000 0.896724 0.750000
O O7 0.097852 0.865735 0.500000
O O8 0.252432 0.855787 0.431585
O O9 0.751696 0.853737 0.448137
O O10 0.000000 0.000000 0.456210
O O11 0.500000 0.000000 0.071642
#
# Coordination Sequence:
#
# PCOD9524970 Si02
#       4
#    16  16  16  16
#     4  12  21  33  55  81 109 141 179 227 268 318
#     4  10  16  30  49  76 102 128 176 226 241 287
#     4   9  17  33  57  79 101 139 188 225 255 314
#     4  10  21  35  53  82 112 138 174 226 280 322
#
# _framework density 22.563040999999998
#
# number of rings (size 3 to 8) (size 9 to 14) (size 15 to 20)
#    0.000    1.750    5.000    2.250    0.000    3.000 
#    0.000    0.000    0.000   15.750    0.000    3.500 
#    0.000    0.000    0.000    0.000    0.000    0.000 
#
# Total GULP energy -178598.057766 kJ/mol
# GULP energy per Si atom -5581.189305 kJ/mol
# Density = 2.251169 g / cm^3
# Si number density = 22.563041 Si / 1000 Ang^3
#
#
#
# Elastic Constant Matrix: (Units=GPa)
#
#
# Indices 1 2 3 4 5 6 
#
# 1 192.5316 11.7358 68.0145 0.0000 0.0000 0.0000
# 2 11.7358 56.4654 -7.2497 0.0000 0.0000 0.0000
# 3 68.0145 -7.2497 121.2578 0.0000 0.0000 0.0000
# 4 0.0000 0.0000 0.0000 26.2800 0.0000 0.0000
# 5 0.0000 0.0000 0.0000 0.0000 42.7711 0.0000
# 6 0.0000 0.0000 0.0000 0.0000 0.0000 -9.5906
#
#
#
# Elastic Compliance Matrix: (Units=1/GPa)
#
#
# Indices 1 2 3 4 5 6 
#
# 1 0.006670 -0.001881 -0.003854 0.000000 0.000000 0.000000
# 2 -0.001881 0.018377 0.002154 0.000000 0.000000 0.000000
# 3 -0.003854 0.002154 0.010537 0.000000 0.000000 0.000000
# 4 0.000000 0.000000 0.000000 0.038052 0.000000 0.000000
# 5 0.000000 0.000000 0.000000 0.000000 0.023380 0.000000
# 6 0.000000 0.000000 0.000000 0.000000 0.000000 -0.104269
#
#
# Mechanical properties :
#
#
# Convention : Reuss Voigt Hill
#
# Bulk Modulus (GPa) = 35.18303 57.25068 46.21685
# Shear Modulus (GPa) = 532.83303 31.74238 282.28770
#
# Velocity S-wave (km/s) = 15.38394 3.75484 11.19742
# Velocity P-wave (km/s) = 18.19839 6.65035 13.70052
#
# Compressibility (1/GPa) = 0.02842279
#
# Stress axis : x y z
#
# Youngs Moduli (GPa) = 149.92516 54.41451 94.90147
#
# Poissons Ratio (x) = 0.10236 0.36572
# Poissons Ratio (y) = 0.28202 -0.20440
# Poissons Ratio (z) = 0.57777 -0.11720
#
# Static dielectric constant tensor:
#      x y z
#    x 1.840710 0.000000 0.000000 
#    y 0.000000 1.828980 0.000000 
#    z 0.000000 0.000000 1.838630 
# 
# From -- ./inp_files/50155.got.cif
#   From: 2010.05.17/outbox.cif.g08.bks.cpg/sg72_26_cif.got.tgz:50155.got - 2010.06.03 17:03:01.
