data_PCOD9524270
_publ_section_title
;
Structure prediction by ZEFSAII (Michael W. Deem and Ramdas Pophale) SiO2 
 PCOD9524270
Probable space group: I M M M
;
_chemical_formula_sum "Si O2"
_cell_formula_units_Z 104
_cell_length_a 22.556121
_cell_length_b 27.580234
_cell_length_c 7.603047
_cell_angle_alpha 90.000000
_cell_angle_beta 90.000000
_cell_angle_gamma 90.000000
_cell_volume 4729.879073
_symmetry_space_group_name_H-M "I M M M"
_symmetry_group_IT_number 71
_symmetry_cell_setting 'orthorhombic'
loop_
_space_group_symop_operation_xyz
x,y,z
-x,-y,z
x,-y,-z
-x,y,-z
-x,-y,-z
x,y,-z
-x,y,z
x,-y,z
1/2+x,1/2+y,1/2+z
1/2-x,1/2-y,1/2+z
1/2+x,1/2-y,1/2-z
1/2-x,1/2+y,1/2-z
1/2-x,1/2-y,1/2-z
1/2+x,1/2+y,1/2-z
1/2-x,1/2+y,1/2+z
1/2+x,1/2-y,1/2+z
loop_
_atom_site_type_symbol
_atom_site_label
_atom_site_fract_x
_atom_site_fract_y
_atom_site_fract_z
Si Si1 0.000000 0.445457 0.714877
Si Si2 0.311954 0.275428 0.198333
Si Si3 0.392260 0.121254 0.786179
Si Si4 0.431995 0.228990 0.215474
Si Si5 0.932138 0.945499 0.287626
Si Si6 0.321595 0.384593 0.705135
Si Si7 0.213546 0.554602 0.285235
O O1 0.057496 0.416262 0.769022
O O2 0.000000 0.500000 0.777621
O O3 0.000000 0.446366 0.500000
O O4 0.250000 0.250000 0.250000
O O5 0.376146 0.261274 0.280347
O O6 0.307819 0.333331 0.207841
O O7 0.318848 0.258582 0.000000
O O8 0.411883 0.174686 0.732210
O O9 0.330949 0.097180 0.727986
O O10 0.390722 0.122824 0.000000
O O11 0.500000 0.239244 0.274836
O O12 0.435348 0.231197 0.000000
O O13 0.931495 0.945535 0.500000
O O14 0.887773 0.904109 0.227099
O O15 0.000000 0.937558 0.231571
O O16 0.914300 0.000000 0.229049
O O17 0.308982 0.376786 0.500000
O O18 0.278542 0.427618 0.767913
O O19 0.210719 0.552812 0.500000
O O20 0.199413 0.500000 0.224862
#
# Coordination Sequence:
#
# PCOD9524270 Si02
#       7
#     8  16  16  16  16  16  16
#     4   9  14  18  30  56  90 126 161 197 238 289
#     4  11  23  39  59  82 110 147 193 245 299 353
#     4   9  14  23  39  62  95 133 171 207 249 306
#     4   9  17  31  51  75 103 140 182 224 276 339
#     4   9  19  37  60  85 115 152 192 234 285 348
#     4  11  22  36  55  81 112 147 188 235 290 347
#     4   9  17  28  44  70 106 144 176 210 260 323
#
# _framework density 21.987876
#
# number of rings (size 3 to 8) (size 9 to 14) (size 15 to 20)
#    0.000    2.385    0.769    3.231    0.000    6.154 
#    0.000    2.308    0.000    1.385    0.000    0.000 
#    0.000    0.000    0.000    1.385    0.000    1.538 
#
# Total GULP energy -290078.022806 kJ/mol
# GULP energy per Si atom -5578.423515 kJ/mol
# Density = 2.193783 g / cm^3
# Si number density = 21.987876 Si / 1000 Ang^3
#
#
#
# Elastic Constant Matrix: (Units=GPa)
#
#
# Indices 1 2 3 4 5 6 
#
# 1 141.0960 47.0751 9.5324 0.0000 0.0000 0.0000
# 2 47.0751 66.3301 -2.2289 0.0000 0.0000 0.0000
# 3 9.5324 -2.2289 39.6314 0.0000 0.0000 0.0000
# 4 0.0000 0.0000 0.0000 11.2443 0.0000 0.0000
# 5 0.0000 0.0000 0.0000 0.0000 17.7219 0.0000
# 6 0.0000 0.0000 0.0000 0.0000 0.0000 45.0076
#
#
#
# Elastic Compliance Matrix: (Units=1/GPa)
#
#
# Indices 1 2 3 4 5 6 
#
# 1 0.009564 -0.006878 -0.002687 0.000000 0.000000 0.000000
# 2 -0.006878 0.020051 0.002782 0.000000 0.000000 0.000000
# 3 -0.002687 0.002782 0.026035 0.000000 0.000000 0.000000
# 4 0.000000 0.000000 0.000000 0.088934 0.000000 0.000000
# 5 0.000000 0.000000 0.000000 0.000000 0.056427 0.000000
# 6 0.000000 0.000000 0.000000 0.000000 0.000000 0.022218
#
#
# Mechanical properties :
#
#
# Convention : Reuss Voigt Hill
#
# Bulk Modulus (GPa) = 23.76202 39.53496 31.64849
# Shear Modulus (GPa) = 19.93440 27.64002 23.78721
#
# Velocity S-wave (km/s) = 3.01426 3.54935 3.29269
# Velocity P-wave (km/s) = 4.79006 5.90055 5.37407
#
# Compressibility (1/GPa) = 0.04208396
#
# Stress axis : x y z
#
# Youngs Moduli (GPa) = 104.56358 49.87354 38.40937
#
# Poissons Ratio (x) = 0.34301 0.10321
# Poissons Ratio (y) = 0.71915 -0.10685
# Poissons Ratio (z) = 0.28097 -0.13874
#
# Static dielectric constant tensor:
#      x y z
#    x 1.871290 0.000000 0.000000 
#    y 0.000000 1.768750 0.000000 
#    z 0.000000 0.000000 1.907990 
# 
# From -- ./inp_files/11538.got.cif
#   From: 2010.05.17/outbox.cif.g08.bks.cpg/sg71_6_cif.got.tgz:11538.got - 2010.06.03 16:22:01.
