data_PCOD9524635
_publ_section_title
;
Structure prediction by ZEFSAII (Michael W. Deem and Ramdas Pophale) SiO2 
 PCOD9524635
Probable space group: I M M M
;
_chemical_formula_sum "Si O2"
_cell_formula_units_Z 80
_cell_length_a 25.365591
_cell_length_b 7.378213
_cell_length_c 24.492426
_cell_angle_alpha 90.000000
_cell_angle_beta 90.000000
_cell_angle_gamma 90.000000
_cell_volume 4583.824470
_symmetry_space_group_name_H-M "I M M M"
_symmetry_group_IT_number 71
_symmetry_cell_setting 'orthorhombic'
loop_
_space_group_symop_operation_xyz
x,y,z
-x,-y,z
x,-y,-z
-x,y,-z
-x,-y,-z
x,y,-z
-x,y,z
x,-y,z
1/2+x,1/2+y,1/2+z
1/2-x,1/2-y,1/2+z
1/2+x,1/2-y,1/2-z
1/2-x,1/2+y,1/2-z
1/2-x,1/2-y,1/2-z
1/2+x,1/2+y,1/2-z
1/2-x,1/2+y,1/2+z
1/2+x,1/2-y,1/2+z
loop_
_atom_site_type_symbol
_atom_site_label
_atom_site_fract_x
_atom_site_fract_y
_atom_site_fract_z
Si Si1 0.665498 0.710547 0.274909
Si Si2 0.829364 0.721501 0.560659
Si Si3 0.558595 0.719514 0.770875
Si Si4 0.558117 0.212613 0.100294
Si Si5 0.767112 0.720233 0.332996
O O1 0.658453 0.500000 0.289397
O O2 0.607367 0.787794 0.265069
O O3 0.708398 0.785333 0.317430
O O4 0.694575 0.721361 0.216191
O O5 0.812913 0.775256 0.500000
O O6 0.830286 0.500000 0.562439
O O7 0.889144 0.784998 0.572523
O O8 0.791146 0.779365 0.609560
O O9 0.500000 0.777720 0.753777
O O10 0.559833 0.500000 0.770133
O O11 0.565438 0.772908 0.834279
O O12 0.500000 0.289385 0.087204
O O13 0.556045 0.000000 0.086243
O O14 0.766619 0.500000 0.331895
#
# Coordination Sequence:
#
# PCOD9524635 Si02
#       5
#    16  16  16  16  16
#     4   9  16  25  39  56  73  93 118 148 181 219
#     4   9  16  25  37  53  73  95 121 154 185 211
#     4   9  16  25  37  53  74  97 119 146 180 215
#     4   9  16  25  37  52  70  94 125 155 179 205
#     4   9  16  26  39  55  73  93 119 149 182 217
#
# _framework density 17.452674999999999
#
# number of rings (size 3 to 8) (size 9 to 14) (size 15 to 20)
#    0.000    3.000    2.000    0.000    0.000    0.400 
#    0.000    2.000    0.000    2.400    0.000    2.800 
#    0.000    0.800    0.000   11.200    0.000    0.000 
#
# Total GULP energy -222938.643816 kJ/mol
# GULP energy per Si atom -5573.466095 kJ/mol
# Density = 1.741295 g / cm^3
# Si number density = 17.452675 Si / 1000 Ang^3
#
#
#
# Elastic Constant Matrix: (Units=GPa)
#
#
# Indices 1 2 3 4 5 6 
#
# 1 112.0694 -7.9034 59.3726 0.0000 0.0000 0.0000
# 2 -7.9034 61.4770 -5.4059 0.0000 0.0000 0.0000
# 3 59.3726 -5.4059 92.8994 0.0000 0.0000 0.0000
# 4 0.0000 0.0000 0.0000 7.1114 0.0000 0.0000
# 5 0.0000 0.0000 0.0000 0.0000 21.5474 0.0000
# 6 0.0000 0.0000 0.0000 0.0000 0.0000 2.1922
#
#
#
# Elastic Compliance Matrix: (Units=1/GPa)
#
#
# Indices 1 2 3 4 5 6 
#
# 1 0.013550 0.000986 -0.008603 0.000000 0.000000 0.000000
# 2 0.000986 0.016422 0.000326 0.000000 0.000000 0.000000
# 3 -0.008603 0.000326 0.016281 0.000000 0.000000 0.000000
# 4 0.000000 0.000000 0.000000 0.140620 0.000000 0.000000
# 5 0.000000 0.000000 0.000000 0.000000 0.046409 0.000000
# 6 0.000000 0.000000 0.000000 0.000000 0.000000 0.456163
#
#
# Mechanical properties :
#
#
# Convention : Reuss Voigt Hill
#
# Bulk Modulus (GPa) = 31.57538 39.84137 35.70838
# Shear Modulus (GPa) = 6.99707 20.86235 13.92971
#
# Velocity S-wave (km/s) = 2.00446 3.46116 2.82821
# Velocity P-wave (km/s) = 4.84649 6.23303 5.58297
#
# Compressibility (1/GPa) = 0.03167024
#
# Stress axis : x y z
#
# Youngs Moduli (GPa) = 73.80044 60.89549 61.42031
#
# Poissons Ratio (x) = -0.06001 0.52837
# Poissons Ratio (y) = -0.07273 -0.02001
# Poissons Ratio (z) = 0.63487 -0.01984
#
# Static dielectric constant tensor:
#      x y z
#    x 1.637110 0.000000 0.000000 
#    y 0.000000 1.703540 0.000000 
#    z 0.000000 0.000000 1.556900 
# 
# From -- ./inp_files/11260.got.cif
#   From: 2010.05.17/outbox.cif.g08.bks.cpg/sg71_6_cif.got.tgz:11260.got - 2010.06.03 16:22:01.
