data_PCOD9524008
_publ_section_title
;
Structure prediction by ZEFSAII (Michael W. Deem and Ramdas Pophale) SiO2 
 PCOD9524008
Probable space group: I M M M
;
_chemical_formula_sum "Si O2"
_cell_formula_units_Z 72
_cell_length_a 18.247236
_cell_length_b 24.389697
_cell_length_c 7.811627
_cell_angle_alpha 90.000000
_cell_angle_beta 90.000000
_cell_angle_gamma 90.000000
_cell_volume 3476.522079
_symmetry_space_group_name_H-M "I M M M"
_symmetry_group_IT_number 71
_symmetry_cell_setting 'orthorhombic'
loop_
_space_group_symop_operation_xyz
x,y,z
-x,-y,z
x,-y,-z
-x,y,-z
-x,-y,-z
x,y,-z
-x,y,z
x,-y,z
1/2+x,1/2+y,1/2+z
1/2-x,1/2-y,1/2+z
1/2+x,1/2-y,1/2-z
1/2-x,1/2+y,1/2-z
1/2-x,1/2-y,1/2-z
1/2+x,1/2+y,1/2-z
1/2-x,1/2+y,1/2+z
1/2+x,1/2-y,1/2+z
loop_
_atom_site_type_symbol
_atom_site_label
_atom_site_fract_x
_atom_site_fract_y
_atom_site_fract_z
Si Si1 0.393499 0.500000 0.198008
Si Si2 0.581485 0.377104 0.209728
Si Si3 0.152305 0.611683 0.695978
Si Si4 0.500000 0.064524 0.210087
Si Si5 0.219080 0.500000 0.801064
Si Si6 0.778279 0.809321 0.694682
O O1 0.414904 0.559404 0.271417
O O2 0.305978 0.500000 0.195883
O O3 0.419071 0.500000 0.000000
O O4 0.500000 0.355214 0.250607
O O5 0.650568 0.340696 0.273936
O O6 0.587020 0.380177 0.000000
O O7 0.145968 0.631022 0.500000
O O8 0.071689 0.597990 0.765228
O O9 0.190602 0.552880 0.705185
O O10 0.207475 0.651738 0.790978
O O11 0.500000 0.000000 0.263503
O O12 0.500000 0.063103 0.000000
O O13 0.193653 0.500000 0.000000
O O14 0.800412 0.802063 0.500000
O O15 0.750000 0.750000 0.750000
#
# Coordination Sequence:
#
# PCOD9524008 Si02
#       6
#     8  16  16   8   8  16
#     4   9  15  27  51  85 117 141 170 219 278 336
#     4   9  17  31  55  86 115 144 183 229 276 335
#     4  11  21  37  60  84 113 154 198 242 291 343
#     4   9  18  34  56  86 120 152 192 235 280 349
#     4  11  19  31  54  87 120 153 188 231 288 348
#     4  11  23  41  61  83 113 151 198 244 289 340
#
# _framework density 20.710353000000001
#
# number of rings (size 3 to 8) (size 9 to 14) (size 15 to 20)
#    0.000    1.889    3.333    2.000    0.000    1.333 
#    2.000    2.778    0.000    2.000    0.000    1.556 
#    0.000    0.000    0.000    0.000    0.000    0.000 
#
# Total GULP energy -200673.197885 kJ/mol
# GULP energy per Si atom -5574.255497 kJ/mol
# Density = 2.066322 g / cm^3
# Si number density = 20.710353 Si / 1000 Ang^3
#
#
#
# Elastic Constant Matrix: (Units=GPa)
#
#
# Indices 1 2 3 4 5 6 
#
# 1 181.1738 72.8041 0.0276 0.0000 0.0000 0.0000
# 2 72.8041 149.1336 -0.1032 0.0000 0.0000 0.0000
# 3 0.0276 -0.1032 27.3443 0.0000 0.0000 0.0000
# 4 0.0000 0.0000 0.0000 22.5515 0.0000 0.0000
# 5 0.0000 0.0000 0.0000 0.0000 -10.1581 0.0000
# 6 0.0000 0.0000 0.0000 0.0000 0.0000 -4.0208
#
#
#
# Elastic Compliance Matrix: (Units=1/GPa)
#
#
# Indices 1 2 3 4 5 6 
#
# 1 0.006867 -0.003352 -0.000020 0.000000 0.000000 0.000000
# 2 -0.003352 0.008342 0.000035 0.000000 0.000000 0.000000
# 3 -0.000020 0.000035 0.036571 0.000000 0.000000 0.000000
# 4 0.000000 0.000000 0.000000 0.044343 0.000000 0.000000
# 5 0.000000 0.000000 0.000000 0.000000 -0.098444 0.000000
# 6 0.000000 0.000000 0.000000 0.000000 0.000000 -0.248709
#
#
# Mechanical properties :
#
#
# Convention : Reuss Voigt Hill
#
# Bulk Modulus (GPa) = 22.17020 55.90095 39.03558
# Shear Modulus (GPa) = -21.80345 20.66941 -0.56702
#
# Velocity S-wave (km/s) = -3.24818 3.16258 -0.52381
# Velocity P-wave (km/s) = 1.82741 6.35502 4.30388
#
# Compressibility (1/GPa) = 0.04510559
#
# Stress axis : x y z
#
# Youngs Moduli (GPa) = 145.63205 119.87705 27.34420
#
# Poissons Ratio (x) = 0.40185 0.00054
# Poissons Ratio (y) = 0.48818 -0.00095
# Poissons Ratio (z) = 0.00285 -0.00418
#
# Static dielectric constant tensor:
#      x y z
#    x 1.800760 0.000000 0.000000 
#    y 0.000000 1.707990 0.000000 
#    z 0.000000 0.000000 1.790360 
# 
# From -- ./inp_files/8014.got.cif
#   From: 2010.05.17/outbox.cif.g08.bks.cpg/sg71_5_cif.got.tgz:8014.got - 2010.06.03 16:22:01.
