data_PCOD9524770
_publ_section_title
;
Structure prediction by ZEFSAII (Michael W. Deem and Ramdas Pophale) SiO2 
 PCOD9524770
Probable space group: I M M M
;
_chemical_formula_sum "Si O2"
_cell_formula_units_Z 36
_cell_length_a 15.000000
_cell_length_b 30.000000
_cell_length_c 9.000000
_cell_angle_alpha 90.000000
_cell_angle_beta 90.000000
_cell_angle_gamma 90.000000
_cell_volume 4050.000000
_symmetry_space_group_name_H-M "I M M M"
_symmetry_group_IT_number 71
_symmetry_cell_setting 'orthorhombic'
loop_
_space_group_symop_operation_xyz
x,y,z
-x,-y,z
x,-y,-z
-x,y,-z
-x,-y,-z
x,y,-z
-x,y,z
x,-y,z
1/2+x,1/2+y,1/2+z
1/2-x,1/2-y,1/2+z
1/2+x,1/2-y,1/2-z
1/2-x,1/2+y,1/2-z
1/2-x,1/2-y,1/2-z
1/2+x,1/2+y,1/2-z
1/2-x,1/2+y,1/2+z
1/2+x,1/2-y,1/2+z
loop_
_atom_site_type_symbol
_atom_site_label
_atom_site_fract_x
_atom_site_fract_y
_atom_site_fract_z
Si Si1 0.600365 0.265553 0.323230
Si Si2 0.107065 0.090664 0.170915
Si Si3 0.108245 0.000000 0.671647
Si Si4 0.279273 0.662369 0.825251
Si Si5 0.400881 0.831851 0.177536
O O1 0.611967 0.259583 0.500000
O O2 0.500000 0.285607 0.301775
O O3 0.679872 0.294708 0.257467
O O4 0.599558 0.218533 0.240004
O O5 0.134572 0.042845 0.233616
O O6 0.148594 0.125453 0.283796
O O7 0.000000 0.093165 0.171984
O O8 0.135877 0.098697 0.000000
O O9 0.139415 0.000000 0.500000
O O10 0.000000 0.000000 0.665147
O O11 0.184650 0.647526 0.757395
O O12 0.271602 0.670366 0.000000
O O13 0.500000 0.850399 0.211258
O O14 0.389547 0.831909 0.000000
#
# Coordination Sequence:
#
# PCOD9524770 Si02
#       5
#    16  16   8  16  16
#     4  10  20  34  51  71  98 131 166 205 248 295
#     4  10  20  34  52  75 104 136 168 201 239 287
#     4   9  17  31  51  75 104 135 164 195 237 291
#     4  12  23  33  49  73 101 131 165 207 250 293
#     4  10  21  37  54  70  92 126 168 211 253 297
#
# _framework density 8.8888890000000007
#
# number of rings (size 3 to 8) (size 9 to 14) (size 15 to 20)
#    0.000    1.667    0.000    5.667    0.000    8.000 
#    0.000    0.000    0.000    0.000    0.000    0.778 
#    0.000    6.222    0.000    0.000    0.000    0.000 
#
# Total GULP energy -200846.152596 kJ/mol
# GULP energy per Si atom -5579.059794 kJ/mol
# Density = 0.886866 g / cm^3
# Si number density = 8.888889 Si / 1000 Ang^3
#
#
#
# Elastic Constant Matrix: (Units=GPa)
#
#
# Indices 1 2 3 4 5 6 
#
# 1 60.7178 -1.0394 33.1794 0.0029 -0.0002 -0.0001
# 2 -1.0394 28.8142 -10.8274 0.0020 -0.0004 0.0004
# 3 33.1794 -10.8274 83.8290 0.0090 -0.0010 0.0026
# 4 0.0029 0.0020 0.0090 20.8704 -0.0011 0.0004
# 5 -0.0002 -0.0004 -0.0010 -0.0011 28.7930 -0.0004
# 6 -0.0001 0.0004 0.0026 0.0004 -0.0004 -10.4412
#
#
#
# Elastic Compliance Matrix: (Units=1/GPa)
#
#
# Indices 1 2 3 4 5 6 
#
# 1 0.021186 -0.002508 -0.008709 0.000001 0.000000 -0.000003
# 2 -0.002508 0.036772 0.005742 -0.000006 0.000001 0.000003
# 3 -0.008709 0.005742 0.016118 -0.000006 0.000001 0.000004
# 4 0.000001 -0.000006 -0.000006 0.047915 0.000002 0.000002
# 5 0.000000 0.000001 0.000001 0.000002 0.034731 -0.000001
# 6 -0.000003 0.000003 0.000004 0.000002 -0.000001 -0.095775
#
#
# Mechanical properties :
#
#
# Convention : Reuss Voigt Hill
#
# Bulk Modulus (GPa) = 15.84145 23.99845 19.91995
# Shear Modulus (GPa) = 53.79840 17.98102 35.88971
#
# Velocity S-wave (km/s) = 5.50702 3.18375 4.49798
# Velocity P-wave (km/s) = 7.02613 5.20033 6.18102
#
# Compressibility (1/GPa) = 0.06312552
#
# Stress axis : x y z
#
# Youngs Moduli (GPa) = 47.20115 27.19425 62.04290
#
# Poissons Ratio (x) = 0.06821 0.54035
# Poissons Ratio (y) = 0.11840 -0.35627
# Poissons Ratio (z) = 0.41109 -0.15616
#
# Static dielectric constant tensor:
#      x y z
#    x 1.663680 0.000000 0.000000 
#    y 0.000000 1.776600 0.000010 
#    z 0.000000 0.000010 1.587230 
# 
# From -- ./inp_files/6033.got.cif
#   From: 2010.05.17/outbox.ucp.g08.bks.cvg/sg71_4_cif.got.tgz:6033.got - 2010.06.11 16:29:00.
