data_PCOD9524513
_publ_section_title
;
Structure prediction by ZEFSAII (Michael W. Deem and Ramdas Pophale) SiO2 
 PCOD9524513
Probable space group: I M M M
;
_chemical_formula_sum "Si O2"
_cell_formula_units_Z 80
_cell_length_a 15.273729
_cell_length_b 7.327210
_cell_length_c 40.297944
_cell_angle_alpha 90.000000
_cell_angle_beta 90.000000
_cell_angle_gamma 90.000000
_cell_volume 4509.896846
_symmetry_space_group_name_H-M "I M M M"
_symmetry_group_IT_number 71
_symmetry_cell_setting 'orthorhombic'
loop_
_space_group_symop_operation_xyz
x,y,z
-x,-y,z
x,-y,-z
-x,y,-z
-x,-y,-z
x,y,-z
-x,y,z
x,-y,z
1/2+x,1/2+y,1/2+z
1/2-x,1/2-y,1/2+z
1/2+x,1/2-y,1/2-z
1/2-x,1/2+y,1/2-z
1/2-x,1/2-y,1/2-z
1/2+x,1/2+y,1/2-z
1/2-x,1/2+y,1/2+z
1/2+x,1/2-y,1/2+z
loop_
_atom_site_type_symbol
_atom_site_label
_atom_site_fract_x
_atom_site_fract_y
_atom_site_fract_z
Si Si1 0.599418 0.719933 0.268357
Si Si2 0.718075 0.276369 0.670634
Si Si3 0.895548 0.219806 0.035672
Si Si4 0.398210 0.722718 0.391565
Si Si5 0.902422 0.287076 0.691404
O O1 0.500000 0.778041 0.276504
O O2 0.600284 0.500000 0.268516
O O3 0.667226 0.781919 0.296076
O O4 0.618206 0.777439 0.230751
O O5 0.718683 0.500000 0.670851
O O6 0.663253 0.219338 0.638512
O O7 0.818317 0.212708 0.672294
O O8 0.865454 0.282767 0.071930
O O9 0.000000 0.255285 0.035665
O O10 0.885340 0.000000 0.035421
O O11 0.860648 0.286894 0.000000
O O12 0.500000 0.777395 0.386973
O O13 0.398845 0.500000 0.391643
O O14 0.908127 0.500000 0.682660
O O15 0.000000 0.208043 0.686649
#
# Coordination Sequence:
#
# PCOD9524513 Si02
#       5
#    16  16  16  16  16
#     4   9  16  25  37  51  64  79 103 134 164 193
#     4   9  15  22  32  45  61  80 103 132 162 189
#     4   7   9  13  21  34  54  79 102 122 147 181
#     4   8  12  17  26  41  60  80 102 129 159 187
#     4   9  17  27  36  46  62  84 109 135 161 189
#
# _framework density 17.738764
#
# number of rings (size 3 to 8) (size 9 to 14) (size 15 to 20)
#    0.000    3.600    0.000    3.000    0.000    2.400 
#    0.000    0.000    0.000    0.000    0.000    0.000 
#    0.000    0.800    0.000   11.200    0.000    4.400 
#
# Total GULP energy -222828.876999 kJ/mol
# GULP energy per Si atom -5570.721925 kJ/mol
# Density = 1.769839 g / cm^3
# Si number density = 17.738764 Si / 1000 Ang^3
#
#
#
# Elastic Constant Matrix: (Units=GPa)
#
#
# Indices 1 2 3 4 5 6 
#
# 1 111.7040 5.9059 88.9794 0.0000 0.0000 0.0000
# 2 5.9059 67.3200 -0.6015 0.0000 0.0000 0.0000
# 3 88.9794 -0.6015 105.6623 0.0000 0.0000 0.0000
# 4 0.0000 0.0000 0.0000 -30.8852 0.0000 0.0000
# 5 0.0000 0.0000 0.0000 0.0000 8.1953 0.0000
# 6 0.0000 0.0000 0.0000 0.0000 0.0000 -8.8918
#
#
#
# Elastic Compliance Matrix: (Units=1/GPa)
#
#
# Indices 1 2 3 4 5 6 
#
# 1 0.027653 -0.002634 -0.023302 0.000000 0.000000 0.000000
# 2 -0.002634 0.015106 0.002304 0.000000 0.000000 0.000000
# 3 -0.023302 0.002304 0.029100 0.000000 0.000000 0.000000
# 4 0.000000 0.000000 0.000000 -0.032378 0.000000 0.000000
# 5 0.000000 0.000000 0.000000 0.000000 0.122021 0.000000
# 6 0.000000 0.000000 0.000000 0.000000 0.000000 -0.112463
#
#
# Mechanical properties :
#
#
# Convention : Reuss Voigt Hill
#
# Bulk Modulus (GPa) = 40.65784 52.58377 46.62081
# Shear Modulus (GPa) = 47.84651 6.37716 27.11184
#
# Velocity S-wave (km/s) = 5.19917 1.89812 3.91371
# Velocity P-wave (km/s) = 7.68193 5.87466 6.83826
#
# Compressibility (1/GPa) = 0.02459550
#
# Stress axis : x y z
#
# Youngs Moduli (GPa) = 36.16267 66.19842 34.36440
#
# Poissons Ratio (x) = 0.17438 0.80075
# Poissons Ratio (y) = 0.09526 -0.07918
# Poissons Ratio (z) = 0.84265 -0.15254
#
# Static dielectric constant tensor:
#      x y z
#    x 1.596970 0.000000 0.000000 
#    y 0.000000 1.536750 0.000000 
#    z 0.000000 0.000000 1.620390 
# 
# From -- ./inp_files/69774.got.cif
#   From: 2010.05.17/outbox.cif.g08.bks.cpg/sg71_35_cif.got.tgz:69774.got - 2010.06.03 16:22:01.
