data_PCOD9524580
_publ_section_title
;
Structure prediction by ZEFSAII (Michael W. Deem and Ramdas Pophale) SiO2 
 PCOD9524580
Probable space group: I M M M
;
_chemical_formula_sum "Si O2"
_cell_formula_units_Z 88
_cell_length_a 24.746080
_cell_length_b 9.913648
_cell_length_c 17.561831
_cell_angle_alpha 90.000000
_cell_angle_beta 90.000000
_cell_angle_gamma 90.000000
_cell_volume 4308.337337
_symmetry_space_group_name_H-M "I M M M"
_symmetry_group_IT_number 71
_symmetry_cell_setting 'orthorhombic'
loop_
_space_group_symop_operation_xyz
x,y,z
-x,-y,z
x,-y,-z
-x,y,-z
-x,-y,-z
x,y,-z
-x,y,z
x,-y,z
1/2+x,1/2+y,1/2+z
1/2-x,1/2-y,1/2+z
1/2+x,1/2-y,1/2-z
1/2-x,1/2+y,1/2-z
1/2-x,1/2-y,1/2-z
1/2+x,1/2+y,1/2-z
1/2-x,1/2+y,1/2+z
1/2+x,1/2-y,1/2+z
loop_
_atom_site_type_symbol
_atom_site_label
_atom_site_fract_x
_atom_site_fract_y
_atom_site_fract_z
Si Si1 0.705748 0.847107 0.211277
Si Si2 0.437192 0.659560 0.316477
Si Si3 0.934494 0.151166 0.637473
Si Si4 0.649767 0.150221 0.367965
Si Si5 0.272501 0.345784 0.912214
Si Si6 0.434139 0.154342 0.000000
O O1 0.750000 0.750000 0.250000
O O2 0.661899 0.858517 0.277329
O O3 0.694392 0.762688 0.135765
O O4 0.724412 0.000000 0.194541
O O5 0.500000 0.698820 0.325728
O O6 0.432369 0.500000 0.330451
O O7 0.423035 0.678481 0.226442
O O8 0.397701 0.742191 0.371405
O O9 0.918599 0.261632 0.575251
O O10 0.000000 0.144868 0.633542
O O11 0.913946 0.000000 0.618256
O O12 0.707944 0.185509 0.404646
O O13 0.635035 0.000000 0.395126
O O14 0.278189 0.500000 0.882336
O O15 0.287467 0.343804 0.000000
O O16 0.500000 0.148384 0.000000
O O17 0.414228 0.000000 0.000000
#
# Coordination Sequence:
#
# PCOD9524580 Si02
#       6
#    16  16  16  16  16   8
#     4   9  17  30  49  75 104 132 164 201 246 302
#     4   9  18  31  47  68  93 125 169 216 253 289
#     4   8  14  25  39  54  75 106 144 187 234 279
#     4   9  18  31  49  74 102 132 165 204 251 299
#     4   9  18  33  53  78 107 135 165 204 250 304
#     4   9  15  21  33  55  77  97 129 177 231 281
#
# _framework density 20.425514
#
# number of rings (size 3 to 8) (size 9 to 14) (size 15 to 20)
#    0.000    3.182    0.000    3.000    0.000    6.182 
#    0.000    1.818    2.000    0.545    0.000    3.818 
#    0.000    0.000    0.000    0.000    0.000    0.000 
#
# Total GULP energy -245182.741933 kJ/mol
# GULP energy per Si atom -5572.335044 kJ/mol
# Density = 2.037902 g / cm^3
# Si number density = 20.425514 Si / 1000 Ang^3
#
#
#
# Elastic Constant Matrix: (Units=GPa)
#
#
# Indices 1 2 3 4 5 6 
#
# 1 53.2824 20.7436 1.4348 0.0000 0.0000 0.0000
# 2 20.7436 82.4896 14.8751 0.0000 0.0000 0.0000
# 3 1.4348 14.8751 34.6472 0.0000 0.0000 0.0000
# 4 0.0000 0.0000 0.0000 17.6297 0.0000 0.0000
# 5 0.0000 0.0000 0.0000 0.0000 16.2458 0.0000
# 6 0.0000 0.0000 0.0000 0.0000 0.0000 17.7114
#
#
#
# Elastic Compliance Matrix: (Units=1/GPa)
#
#
# Indices 1 2 3 4 5 6 
#
# 1 0.020877 -0.005521 0.001506 0.000000 0.000000 0.000000
# 2 -0.005521 0.014600 -0.006040 0.000000 0.000000 0.000000
# 3 0.001506 -0.006040 0.031393 0.000000 0.000000 0.000000
# 4 0.000000 0.000000 0.000000 0.056723 0.000000 0.000000
# 5 0.000000 0.000000 0.000000 0.000000 0.061554 0.000000
# 6 0.000000 0.000000 0.000000 0.000000 0.000000 0.056461
#
#
# Mechanical properties :
#
#
# Convention : Reuss Voigt Hill
#
# Bulk Modulus (GPa) = 21.38586 27.16959 24.27772
# Shear Modulus (GPa) = 18.03068 19.20842 18.61955
#
# Velocity S-wave (km/s) = 2.97434 3.06994 3.02252
# Velocity P-wave (km/s) = 4.72107 5.08888 4.90842
#
# Compressibility (1/GPa) = 0.04675987
#
# Stress axis : x y z
#
# Youngs Moduli (GPa) = 47.89970 68.49147 31.85422
#
# Poissons Ratio (x) = 0.37817 -0.04797
# Poissons Ratio (y) = 0.26448 0.19239
# Poissons Ratio (z) = -0.07214 0.41367
#
# Static dielectric constant tensor:
#      x y z
#    x 1.756250 0.000000 0.000000 
#    y 0.000000 1.743530 0.000000 
#    z 0.000000 0.000000 1.771450 
# 
# From -- ./inp_files/49210.got.cif
#   From: 2010.05.17/outbox.cif.g08.bks.cpg/sg71_25_cif.got.tgz:49210.got - 2010.06.03 16:22:01.
