data_PCOD9524452
_publ_section_title
;
Structure prediction by ZEFSAII (Michael W. Deem and Ramdas Pophale) SiO2 
 PCOD9524452
Probable space group: I M M M
;
_chemical_formula_sum "Si O2"
_cell_formula_units_Z 72
_cell_length_a 14.870157
_cell_length_b 7.458764
_cell_length_c 28.686066
_cell_angle_alpha 90.000000
_cell_angle_beta 90.000000
_cell_angle_gamma 90.000000
_cell_volume 3181.657400
_symmetry_space_group_name_H-M "I M M M"
_symmetry_group_IT_number 71
_symmetry_cell_setting 'orthorhombic'
loop_
_space_group_symop_operation_xyz
x,y,z
-x,-y,z
x,-y,-z
-x,y,-z
-x,-y,-z
x,y,-z
-x,y,z
x,-y,z
1/2+x,1/2+y,1/2+z
1/2-x,1/2-y,1/2+z
1/2+x,1/2-y,1/2-z
1/2-x,1/2+y,1/2-z
1/2-x,1/2-y,1/2-z
1/2+x,1/2+y,1/2-z
1/2-x,1/2+y,1/2+z
1/2+x,1/2-y,1/2+z
loop_
_atom_site_type_symbol
_atom_site_label
_atom_site_fract_x
_atom_site_fract_y
_atom_site_fract_z
Si Si1 0.854004 0.282138 0.209906
Si Si2 0.404231 0.289673 0.607179
Si Si3 0.703913 0.212622 0.905072
Si Si4 0.353328 0.203377 0.190974
Si Si5 0.398501 0.286169 0.000000
O O1 0.849151 0.500000 0.211168
O O2 0.904369 0.227704 0.163250
O O3 0.753840 0.205538 0.201983
O O4 0.890341 0.220298 0.260307
O O5 0.500000 0.214162 0.589829
O O6 0.403636 0.500000 0.594521
O O7 0.306340 0.214529 0.592782
O O8 0.646724 0.285886 0.860799
O O9 0.653801 0.232734 0.953472
O O10 0.712960 0.000000 0.895110
O O11 0.388120 0.000000 0.187642
O O12 0.402846 0.500000 0.000000
O O13 0.500000 0.214445 0.000000
#
# Coordination Sequence:
#
# PCOD9524452 Si02
#       5
#    16  16  16  16   8
#     4   9  15  24  43  72 105 141 179 215 248 287
#     4   9  18  33  52  77 112 149 180 210 248 302
#     4   9  18  35  59  81 101 134 179 219 258 308
#     4   8  15  28  46  71 103 137 174 214 254 298
#     4  11  25  43  60  79 102 126 159 213 280 335
#
# _framework density 22.629715000000001
#
# number of rings (size 3 to 8) (size 9 to 14) (size 15 to 20)
#    0.000    3.000    0.000    2.333    0.000    5.778 
#    0.000    1.667    0.000   10.000    0.000    0.000 
#    0.000    0.000    0.000    0.000    0.000    0.000 
#
# Total GULP energy -200491.276169 kJ/mol
# GULP energy per Si atom -5569.202116 kJ/mol
# Density = 2.257821 g / cm^3
# Si number density = 22.629715 Si / 1000 Ang^3
#
#
#
# Elastic Constant Matrix: (Units=GPa)
#
#
# Indices 1 2 3 4 5 6 
#
# 1 122.1048 -6.4998 54.0239 0.0000 0.0000 0.0000
# 2 -6.4998 80.2313 -14.6870 0.0000 0.0000 0.0000
# 3 54.0239 -14.6870 155.8804 0.0000 0.0000 0.0000
# 4 0.0000 0.0000 0.0000 21.4132 0.0000 0.0000
# 5 0.0000 0.0000 0.0000 0.0000 -113.9389 0.0000
# 6 0.0000 0.0000 0.0000 0.0000 0.0000 3.9518
#
#
#
# Elastic Compliance Matrix: (Units=1/GPa)
#
#
# Indices 1 2 3 4 5 6 
#
# 1 0.009675 0.000173 -0.003337 0.000000 0.000000 0.000000
# 2 0.000173 0.012686 0.001135 0.000000 0.000000 0.000000
# 3 -0.003337 0.001135 0.007679 0.000000 0.000000 0.000000
# 4 0.000000 0.000000 0.000000 0.046700 0.000000 0.000000
# 5 0.000000 0.000000 0.000000 0.000000 -0.008777 0.000000
# 6 0.000000 0.000000 0.000000 0.000000 0.000000 0.253048
#
#
# Mechanical properties :
#
#
# Convention : Reuss Voigt Hill
#
# Bulk Modulus (GPa) = 38.48747 47.09896 42.79321
# Shear Modulus (GPa) = 14.98221 3.97718 9.47970
#
# Velocity S-wave (km/s) = 2.57584 1.32715 2.04894
# Velocity P-wave (km/s) = 5.08832 4.81731 4.95467
#
# Compressibility (1/GPa) = 0.02598248
#
# Stress axis : x y z
#
# Youngs Moduli (GPa) = 103.35638 78.82829 130.23177
#
# Poissons Ratio (x) = -0.01364 0.43457
# Poissons Ratio (y) = -0.01788 -0.14785
# Poissons Ratio (z) = 0.34489 -0.08949
#
# Static dielectric constant tensor:
#      x y z
#    x 1.911610 0.000000 0.000000 
#    y 0.000000 1.886250 0.000000 
#    z 0.000000 0.000000 1.868050 
# 
# From -- ./inp_files/31446.got.cif
#   From: 2010.05.17/outbox.cif.g08.bks.cpg/sg71_16_cif.got.tgz:31446.got - 2010.06.03 16:22:01.
