data_PCOD9524072
_publ_section_title
;
Structure prediction by ZEFSAII (Michael W. Deem and Ramdas Pophale) SiO2 
 PCOD9524072
Probable space group: I M M M
;
_chemical_formula_sum "Si O2"
_cell_formula_units_Z 96
_cell_length_a 16.997998
_cell_length_b 11.973602
_cell_length_c 28.052561
_cell_angle_alpha 90.000000
_cell_angle_beta 90.000000
_cell_angle_gamma 90.000000
_cell_volume 5709.460956
_symmetry_space_group_name_H-M "I M M M"
_symmetry_group_IT_number 71
_symmetry_cell_setting 'orthorhombic'
loop_
_space_group_symop_operation_xyz
x,y,z
-x,-y,z
x,-y,-z
-x,y,-z
-x,-y,-z
x,y,-z
-x,y,z
x,-y,z
1/2+x,1/2+y,1/2+z
1/2-x,1/2-y,1/2+z
1/2+x,1/2-y,1/2-z
1/2-x,1/2+y,1/2-z
1/2-x,1/2-y,1/2-z
1/2+x,1/2+y,1/2-z
1/2-x,1/2+y,1/2+z
1/2+x,1/2-y,1/2+z
loop_
_atom_site_type_symbol
_atom_site_label
_atom_site_fract_x
_atom_site_fract_y
_atom_site_fract_z
Si Si1 0.818537 0.784647 0.878540
Si Si2 0.679093 0.134586 0.054315
Si Si3 0.587753 0.865990 0.853888
Si Si4 0.295912 0.716304 0.798104
Si Si5 0.594089 0.126992 0.447267
Si Si6 0.907853 0.000000 0.163576
Si Si7 0.094599 0.000000 0.278330
O O1 0.758056 0.827916 0.918877
O O2 0.770071 0.713637 0.839502
O O3 0.878718 0.706070 0.905618
O O4 0.861964 0.890497 0.855023
O O5 0.611805 0.168051 0.092255
O O6 0.678721 0.000000 0.052214
O O7 0.671461 0.176049 0.000000
O O8 0.500000 0.828196 0.842938
O O9 0.648179 0.816102 0.816282
O O10 0.591067 0.000000 0.852152
O O11 0.250000 0.750000 0.750000
O O12 0.353111 0.608443 0.793627
O O13 0.620749 0.165360 0.500000
O O14 0.500000 0.124030 0.448138
O O15 0.622530 0.000000 0.440586
O O16 0.906380 0.000000 0.220830
O O17 0.000000 0.000000 0.148370
O O18 0.000000 0.000000 0.293020
#
# Coordination Sequence:
#
# PCOD9524072 Si02
#       7
#    16  16  16  16  16   8   8
#     4  11  20  35  55  80 111 141 188 230 274 333
#     4   9  17  29  50  78 107 139 171 213 266 318
#     4   9  19  35  55  79 109 140 174 219 269 326
#     4  11  23  36  59  80 108 142 187 227 277 329
#     4   9  19  36  55  76 108 147 184 226 272 322
#     4  11  22  36  55  80 113 151 183 228 289 340
#     4  11  24  42  58  79 111 149 189 232 284 341
#
# _framework density 16.814197
#
# number of rings (size 3 to 8) (size 9 to 14) (size 15 to 20)
#    0.000    2.000    2.500    2.000    3.500    0.333 
#    0.000    1.667    0.000    4.000    0.000    0.000 
#    0.000    7.000    0.000    0.000    0.000    0.000 
#
# Total GULP energy -267346.560271 kJ/mol
# GULP energy per Si atom -5569.720006 kJ/mol
# Density = 1.677593 g / cm^3
# Si number density = 16.814197 Si / 1000 Ang^3
#
#
#
# Elastic Constant Matrix: (Units=GPa)
#
#
# Indices 1 2 3 4 5 6 
#
# 1 89.4151 37.0378 49.7445 0.0000 0.0000 0.0000
# 2 37.0378 61.0051 39.3808 0.0000 0.0000 0.0000
# 3 49.7445 39.3808 112.8418 0.0000 0.0000 0.0000
# 4 0.0000 0.0000 0.0000 23.8822 0.0000 0.0000
# 5 0.0000 0.0000 0.0000 0.0000 16.8598 0.0000
# 6 0.0000 0.0000 0.0000 0.0000 0.0000 28.0226
#
#
#
# Elastic Compliance Matrix: (Units=1/GPa)
#
#
# Indices 1 2 3 4 5 6 
#
# 1 0.016865 -0.007022 -0.004984 0.000000 0.000000 0.000000
# 2 -0.007022 0.024082 -0.005309 0.000000 0.000000 0.000000
# 3 -0.004984 -0.005309 0.012912 0.000000 0.000000 0.000000
# 4 0.000000 0.000000 0.000000 0.041872 0.000000 0.000000
# 5 0.000000 0.000000 0.000000 0.000000 0.059313 0.000000
# 6 0.000000 0.000000 0.000000 0.000000 0.000000 0.035685
#
#
# Mechanical properties :
#
#
# Convention : Reuss Voigt Hill
#
# Bulk Modulus (GPa) = 52.00379 57.28758 54.64569
# Shear Modulus (GPa) = 21.57310 22.89285 22.23297
#
# Velocity S-wave (km/s) = 3.58582 3.69388 3.64025
# Velocity P-wave (km/s) = 6.93829 7.23450 7.08794
#
# Compressibility (1/GPa) = 0.01922937
#
# Stress axis : x y z
#
# Youngs Moduli (GPa) = 59.29338 41.52405 77.44732
#
# Poissons Ratio (x) = 0.29158 0.38601
# Poissons Ratio (y) = 0.41635 0.41117
# Poissons Ratio (z) = 0.29553 0.22045
#
# Static dielectric constant tensor:
#      x y z
#    x 1.583850 0.000000 0.000000 
#    y 0.000000 1.549940 0.000000 
#    z 0.000000 0.000000 1.562800 
# 
# From -- ./inp_files/60559.got.cif
#   From: 2010.05.17/outbox.cif.g08.bks.cpg/sg71_31_cif.got.tgz:60559.got - 2010.06.03 16:22:01.
