data_PCOD9524888
_publ_section_title
;
Structure prediction by ZEFSAII (Michael W. Deem and Ramdas Pophale) SiO2 
 PCOD9524888
Probable space group: I M M M
;
_chemical_formula_sum "Si O2"
_cell_formula_units_Z 50
_cell_length_a 27.000000
_cell_length_b 9.000000
_cell_length_c 21.000000
_cell_angle_alpha 90.000000
_cell_angle_beta 90.000000
_cell_angle_gamma 90.000000
_cell_volume 5103.000000
_symmetry_space_group_name_H-M "I M M M"
_symmetry_group_IT_number 71
_symmetry_cell_setting 'orthorhombic'
loop_
_space_group_symop_operation_xyz
x,y,z
-x,-y,z
x,-y,-z
-x,y,-z
-x,-y,-z
x,y,-z
-x,y,z
x,-y,z
1/2+x,1/2+y,1/2+z
1/2-x,1/2-y,1/2+z
1/2+x,1/2-y,1/2-z
1/2-x,1/2+y,1/2-z
1/2-x,1/2-y,1/2-z
1/2+x,1/2+y,1/2-z
1/2-x,1/2+y,1/2+z
1/2+x,1/2-y,1/2+z
loop_
_atom_site_type_symbol
_atom_site_label
_atom_site_fract_x
_atom_site_fract_y
_atom_site_fract_z
Si Si1 0.737928 0.320987 0.182428
Si Si2 0.374104 0.675289 0.837691
Si Si3 0.687664 0.177428 0.429261
Si Si4 0.586176 0.328780 0.605860
Si Si5 0.944796 0.330840 0.575799
Si Si6 0.444044 0.176862 0.264971
Si Si7 0.500000 0.685510 0.500000
O O1 0.739914 0.500000 0.188037
O O2 0.750000 0.250000 0.250000
O O3 0.682653 0.277400 0.162631
O O4 0.776143 0.277063 0.127476
O O5 0.375993 0.500000 0.828136
O O6 0.402743 0.722645 0.900720
O O7 0.404633 0.754868 0.782584
O O8 0.708825 0.202548 0.500000
O O9 0.636737 0.264779 0.422188
O O10 0.678206 0.000000 0.423423
O O11 0.592671 0.500000 0.625599
O O12 0.570383 0.230051 0.665241
O O13 0.542993 0.320065 0.554591
O O14 0.945663 0.335449 0.500000
O O15 0.936165 0.500000 0.599002
O O16 0.000000 0.286417 0.597656
O O17 0.500000 0.227663 0.250689
O O18 0.442869 0.000000 0.261509
#
# Coordination Sequence:
#
# PCOD9524888 Si02
#       7
#    16  16  16  16  16  16   4
#     4  10  23  42  62  85 115 153 197 246 303 356
#     4  11  23  38  60  90 119 152 196 249 302 354
#     4  10  22  41  63  87 117 155 198 245 294 348
#     4  12  23  40  62  89 123 159 196 237 293 349
#     4   9  19  37  60  87 122 162 198 237 290 352
#     4  11  24  40  58  85 120 160 201 243 291 347
#     4  12  25  40  61  90 129 164 187 234 299 348
#
# _framework density 9.7981580000000008
#
# number of rings (size 3 to 8) (size 9 to 14) (size 15 to 20)
#    0.000    1.440    1.600    4.080    0.000    8.640 
#    0.000    4.000    0.000    0.000    0.000    0.000 
#    0.000    0.000    0.000    0.000    0.000    0.000 
#
# Total GULP energy -278712.431314 kJ/mol
# GULP energy per Si atom -5574.248626 kJ/mol
# Density = 0.977586 g / cm^3
# Si number density = 9.798158 Si / 1000 Ang^3
#
#
#
# Elastic Constant Matrix: (Units=GPa)
#
#
# Indices 1 2 3 4 5 6 
#
# 1 147.7896 50.2115 64.2023 0.0000 0.0000 0.0000
# 2 50.2115 25.3875 26.2717 0.0000 0.0000 0.0000
# 3 64.2023 26.2717 102.6255 0.0000 0.0000 0.0000
# 4 0.0000 0.0000 0.0000 17.6809 0.0000 0.0000
# 5 0.0000 0.0000 0.0000 0.0000 13.8299 0.0000
# 6 0.0000 0.0000 0.0000 0.0000 0.0000 11.2559
#
#
#
# Elastic Compliance Matrix: (Units=1/GPa)
#
#
# Indices 1 2 3 4 5 6 
#
# 1 0.021508 -0.038926 -0.003490 0.000000 0.000000 0.000000
# 2 -0.038926 0.124036 -0.007400 0.000000 0.000000 0.000000
# 3 -0.003490 -0.007400 0.013822 0.000000 0.000000 0.000000
# 4 0.000000 0.000000 0.000000 0.056558 0.000000 0.000000
# 5 0.000000 0.000000 0.000000 0.000000 0.072307 0.000000
# 6 0.000000 0.000000 0.000000 0.000000 0.000000 0.088842
#
#
# Mechanical properties :
#
#
# Convention : Reuss Voigt Hill
#
# Bulk Modulus (GPa) = 16.74143 61.90817 39.32480
# Shear Modulus (GPa) = 10.06808 17.56115 13.81461
#
# Velocity S-wave (km/s) = 2.26912 2.99682 2.65799
# Velocity P-wave (km/s) = 3.92771 6.60567 5.43423
#
# Compressibility (1/GPa) = 0.05973206
#
# Stress axis : x y z
#
# Youngs Moduli (GPa) = 46.49460 8.06214 72.34761
#
# Poissons Ratio (x) = 0.31383 0.25251
# Poissons Ratio (y) = 1.80987 0.53541
# Poissons Ratio (z) = 0.16228 0.05966
#
# Static dielectric constant tensor:
#      x y z
#    x 1.666730 0.000000 0.000000 
#    y 0.000000 1.675770 0.000000 
#    z 0.000000 0.000000 1.686150 
# 
# From -- ./inp_files/56199.got.cif
#   From: 2010.05.17/outbox.ucp.g08.bks.cvg/sg71_29_cif.got.tgz:56199.got - 2010.06.11 16:29:00.
