data_PCOD9524572
_publ_section_title
;
Structure prediction by ZEFSAII (Michael W. Deem and Ramdas Pophale) SiO2 
 PCOD9524572
Probable space group: I M M M
;
_chemical_formula_sum "Si O2"
_cell_formula_units_Z 64
_cell_length_a 25.105207
_cell_length_b 7.462275
_cell_length_c 13.194729
_cell_angle_alpha 90.000000
_cell_angle_beta 90.000000
_cell_angle_gamma 90.000000
_cell_volume 2471.926374
_symmetry_space_group_name_H-M "I M M M"
_symmetry_group_IT_number 71
_symmetry_cell_setting 'orthorhombic'
loop_
_space_group_symop_operation_xyz
x,y,z
-x,-y,z
x,-y,-z
-x,y,-z
-x,-y,-z
x,y,-z
-x,y,z
x,-y,z
1/2+x,1/2+y,1/2+z
1/2-x,1/2-y,1/2+z
1/2+x,1/2-y,1/2-z
1/2-x,1/2+y,1/2-z
1/2-x,1/2-y,1/2-z
1/2+x,1/2+y,1/2-z
1/2-x,1/2+y,1/2+z
1/2+x,1/2-y,1/2+z
loop_
_atom_site_type_symbol
_atom_site_label
_atom_site_fract_x
_atom_site_fract_y
_atom_site_fract_z
Si Si1 0.290144 0.210977 0.891907
Si Si2 0.440325 0.796311 0.662604
Si Si3 0.936177 0.793431 0.608639
Si Si4 0.327769 0.781931 0.674079
O O1 0.317374 0.282426 0.790045
O O2 0.226554 0.229721 0.880828
O O3 0.302587 0.000000 0.893134
O O4 0.305319 0.291218 0.000000
O O5 0.500000 0.716940 0.646662
O O6 0.429130 0.801558 0.784111
O O7 0.383867 0.716339 0.627829
O O8 0.443385 0.000000 0.625004
O O9 0.917650 0.716768 0.500000
O O10 0.000000 0.798848 0.601420
O O11 0.918367 0.000000 0.616661
O O12 0.329699 0.000000 0.673501
#
# Coordination Sequence:
#
# PCOD9524572 Si02
#       4
#    16  16  16  16
#     4   9  18  33  52  72  95 124 158 199 244 283
#     4   9  17  28  43  65  93 124 155 187 227 278
#     4   8  14  24  36  52  79 116 155 190 222 261
#     4   9  18  32  50  73  99 125 157 197 238 283
#
# _framework density 25.890739
#
# number of rings (size 3 to 8) (size 9 to 14) (size 15 to 20)
#    0.000    3.250    0.000    0.750    0.000    3.000 
#    0.000    5.000    0.000    0.750    0.000    5.250 
#    0.000    0.000    0.000    0.000    0.000    0.000 
#
# Total GULP energy -178454.505980 kJ/mol
# GULP energy per Si atom -5576.703312 kJ/mol
# Density = 2.583181 g / cm^3
# Si number density = 25.890739 Si / 1000 Ang^3
#
#
#
# Elastic Constant Matrix: (Units=GPa)
#
#
# Indices 1 2 3 4 5 6 
#
# 1 236.9849 -6.4190 10.5476 0.0000 0.0000 0.0000
# 2 -6.4190 85.3638 5.4008 0.0000 0.0000 0.0000
# 3 10.5476 5.4008 95.5904 0.0000 0.0000 0.0000
# 4 0.0000 0.0000 0.0000 0.9243 0.0000 0.0000
# 5 0.0000 0.0000 0.0000 0.0000 -18.2510 0.0000
# 6 0.0000 0.0000 0.0000 0.0000 0.0000 16.1055
#
#
#
# Elastic Compliance Matrix: (Units=1/GPa)
#
#
# Indices 1 2 3 4 5 6 
#
# 1 0.004251 0.000351 -0.000489 0.000000 0.000000 0.000000
# 2 0.000351 0.011786 -0.000705 0.000000 0.000000 0.000000
# 3 -0.000489 -0.000705 0.010555 0.000000 0.000000 0.000000
# 4 0.000000 0.000000 0.000000 1.081857 0.000000 0.000000
# 5 0.000000 0.000000 0.000000 0.000000 -0.054791 0.000000
# 6 0.000000 0.000000 0.000000 0.000000 0.000000 0.062090
#
#
# Mechanical properties :
#
#
# Convention : Reuss Voigt Hill
#
# Bulk Modulus (GPa) = 40.15130 48.55535 44.35333
# Shear Modulus (GPa) = 4.44154 26.98307 15.71231
#
# Velocity S-wave (km/s) = 1.31119 3.23180 2.46615
# Velocity P-wave (km/s) = 4.22302 5.72020 5.02766
#
# Compressibility (1/GPa) = 0.02490579
#
# Stress axis : x y z
#
# Youngs Moduli (GPa) = 235.24253 84.85002 94.74133
#
# Poissons Ratio (x) = -0.02975 0.04632
# Poissons Ratio (y) = -0.08247 0.06675
# Poissons Ratio (z) = 0.11500 0.05978
#
# Static dielectric constant tensor:
#      x y z
#    x 2.074220 0.000000 0.000000 
#    y 0.000000 1.987950 0.000000 
#    z 0.000000 0.000000 2.094680 
# 
# From -- ./inp_files/5462.got.cif
#   From: 2010.05.17/outbox.cif.g08.bks.cpg/sg71_3_cif.got.tgz:5462.got - 2010.06.03 16:22:01.
