data_PCOD9524866
_publ_section_title
;
Structure prediction by ZEFSAII (Michael W. Deem and Ramdas Pophale) SiO2 
 PCOD9524866
Probable space group: I M M M
;
_chemical_formula_sum "Si O2"
_cell_formula_units_Z 48
_cell_length_a 21.000000
_cell_length_b 27.000000
_cell_length_c 9.000000
_cell_angle_alpha 90.000000
_cell_angle_beta 90.000000
_cell_angle_gamma 90.000000
_cell_volume 5103.000000
_symmetry_space_group_name_H-M "I M M M"
_symmetry_group_IT_number 71
_symmetry_cell_setting 'orthorhombic'
loop_
_space_group_symop_operation_xyz
x,y,z
-x,-y,z
x,-y,-z
-x,y,-z
-x,-y,-z
x,y,-z
-x,y,z
x,-y,z
1/2+x,1/2+y,1/2+z
1/2-x,1/2-y,1/2+z
1/2+x,1/2-y,1/2-z
1/2-x,1/2+y,1/2-z
1/2-x,1/2-y,1/2-z
1/2+x,1/2+y,1/2-z
1/2-x,1/2+y,1/2+z
1/2+x,1/2-y,1/2+z
loop_
_atom_site_type_symbol
_atom_site_label
_atom_site_fract_x
_atom_site_fract_y
_atom_site_fract_z
Si Si1 0.186141 0.227444 0.678812
Si Si2 0.573846 0.208795 0.677561
Si Si3 0.695172 0.942493 0.675532
Si Si4 0.307254 0.619910 0.320354
Si Si5 0.069703 0.056914 0.819684
Si Si6 0.426834 0.099983 0.822543
O O1 0.187679 0.230544 0.500000
O O2 0.250000 0.250000 0.750000
O O3 0.124780 0.255987 0.743710
O O4 0.185727 0.171636 0.737648
O O5 0.585806 0.206364 0.500000
O O6 0.500000 0.224834 0.698420
O O7 0.579792 0.154480 0.750336
O O8 0.695229 0.930249 0.500000
O O9 0.744579 0.908207 0.763631
O O10 0.625452 0.933796 0.744015
O O11 0.713372 0.000000 0.692305
O O12 0.305114 0.625893 0.500000
O O13 0.369282 0.588072 0.277230
O O14 0.000000 0.075811 0.771275
O O15 0.075820 0.000000 0.770838
O O16 0.069103 0.056517 0.000000
O O17 0.500000 0.083696 0.798530
O O18 0.415939 0.102509 0.000000
#
# Coordination Sequence:
#
# PCOD9524866 Si02
#       6
#    16  16  16  16  16  16
#     4  12  25  41  60  83 115 152 193 240 290 345
#     4  10  21  39  63  89 118 152 191 235 285 343
#     4  11  24  40  58  82 115 154 194 237 286 341
#     4  11  22  37  59  86 115 149 191 238 289 342
#     4   8  15  30  54  84 115 146 182 225 272 323
#     4  10  21  38  61  88 117 149 187 233 286 343
#
# _framework density 9.4062319999999993
#
# number of rings (size 3 to 8) (size 9 to 14) (size 15 to 20)
#    0.000    1.667    0.000    5.500    0.000    5.000 
#    0.000    3.333    0.000    1.500    0.000    5.833 
#    0.000    0.000    0.000    0.000    0.000    0.000 
#
# Total GULP energy -268154.005607 kJ/mol
# GULP energy per Si atom -5586.541783 kJ/mol
# Density = 0.938482 g / cm^3
# Si number density = 9.406232 Si / 1000 Ang^3
#
#
#
# Elastic Constant Matrix: (Units=GPa)
#
#
# Indices 1 2 3 4 5 6 
#
# 1 78.7883 16.7293 21.8179 0.0000 0.0000 0.0000
# 2 16.7293 31.6423 4.1605 0.0000 0.0000 0.0000
# 3 21.8179 4.1605 94.4537 0.0000 0.0000 0.0000
# 4 0.0000 0.0000 0.0000 30.9937 0.0000 0.0000
# 5 0.0000 0.0000 0.0000 0.0000 27.7579 0.0000
# 6 0.0000 0.0000 0.0000 0.0000 0.0000 178.4721
#
#
#
# Elastic Compliance Matrix: (Units=1/GPa)
#
#
# Indices 1 2 3 4 5 6 
#
# 1 0.015187 -0.007612 -0.003173 0.000000 0.000000 0.000000
# 2 -0.007612 0.035603 0.000190 0.000000 0.000000 0.000000
# 3 -0.003173 0.000190 0.011312 0.000000 0.000000 0.000000
# 4 0.000000 0.000000 0.000000 0.032265 0.000000 0.000000
# 5 0.000000 0.000000 0.000000 0.000000 0.036026 0.000000
# 6 0.000000 0.000000 0.000000 0.000000 0.000000 0.005603
#
#
# Mechanical properties :
#
#
# Convention : Reuss Voigt Hill
#
# Bulk Modulus (GPa) = 24.44276 32.25552 28.34914
# Shear Modulus (GPa) = 29.27014 58.25650 43.76332
#
# Velocity S-wave (km/s) = 3.94876 5.57083 4.82840
# Velocity P-wave (km/s) = 5.81475 7.65258 6.79608
#
# Compressibility (1/GPa) = 0.04091191
#
# Stress axis : x y z
#
# Youngs Moduli (GPa) = 65.84502 28.08758 88.40393
#
# Poissons Ratio (x) = 0.21381 0.28049
# Poissons Ratio (y) = 0.50123 -0.01681
# Poissons Ratio (z) = 0.20891 -0.00534
#
# Static dielectric constant tensor:
#      x y z
#    x 1.646600 0.000000 0.000000 
#    y 0.000000 1.644710 0.000000 
#    z 0.000000 0.000000 1.623520 
# 
# From -- ./inp_files/10965.got.cif
#   From: 2010.05.17/outbox.ucp.g08.bks.cvg/sg71_6_cif.got.tgz:10965.got - 2010.06.11 16:29:00.
