data_PCOD9524037
_publ_section_title
;
Structure prediction by ZEFSAII (Michael W. Deem and Ramdas Pophale) SiO2 
 PCOD9524037
Probable space group: I M M M
;
_chemical_formula_sum "Si O2"
_cell_formula_units_Z 104
_cell_length_a 24.978809
_cell_length_b 8.108639
_cell_length_c 29.623907
_cell_angle_alpha 90.000000
_cell_angle_beta 90.000000
_cell_angle_gamma 90.000000
_cell_volume 6000.148910
_symmetry_space_group_name_H-M "I M M M"
_symmetry_group_IT_number 71
_symmetry_cell_setting 'orthorhombic'
loop_
_space_group_symop_operation_xyz
x,y,z
-x,-y,z
x,-y,-z
-x,y,-z
-x,-y,-z
x,y,-z
-x,y,z
x,-y,z
1/2+x,1/2+y,1/2+z
1/2-x,1/2-y,1/2+z
1/2+x,1/2-y,1/2-z
1/2-x,1/2+y,1/2-z
1/2-x,1/2-y,1/2-z
1/2+x,1/2+y,1/2-z
1/2-x,1/2+y,1/2+z
1/2+x,1/2-y,1/2+z
loop_
_atom_site_type_symbol
_atom_site_label
_atom_site_fract_x
_atom_site_fract_y
_atom_site_fract_z
Si Si1 0.355266 0.699031 0.948507
Si Si2 0.937863 0.798256 0.000000
Si Si3 0.438880 0.801347 0.676853
Si Si4 0.265724 0.198951 0.551858
Si Si5 0.875461 0.804226 0.089347
Si Si6 0.938794 0.699187 0.372995
Si Si7 0.934890 0.690400 0.274750
O O1 0.355022 0.500000 0.949115
O O2 0.294649 0.752880 0.936511
O O3 0.398875 0.755053 0.912726
O O4 0.366530 0.754495 0.000000
O O5 0.907536 0.740488 0.045159
O O6 0.000000 0.748771 0.000000
O O7 0.936533 0.000000 0.000000
O O8 0.500000 0.743050 0.668350
O O9 0.401333 0.759819 0.635243
O O10 0.420054 0.736268 0.726048
O O11 0.441315 0.000000 0.680883
O O12 0.276331 0.252527 0.500000
O O13 0.313402 0.260764 0.582919
O O14 0.266362 0.000000 0.552285
O O15 0.881246 0.000000 0.089378
O O16 0.940613 0.500000 0.369715
O O17 0.920413 0.763618 0.323510
O O18 0.000000 0.755501 0.381423
O O19 0.916120 0.500000 0.274949
O O20 0.000000 0.687148 0.274572
#
# Coordination Sequence:
#
# PCOD9524037 Si02
#       7
#    16   8  16  16  16  16  16
#     4   9  19  34  50  70  97 129 159 191 234 279
#     4   9  18  30  41  59  93 129 150 175 230 291
#     4   9  17  30  48  69  93 124 161 196 232 279
#     4   9  18  34  52  66  86 120 164 204 234 274
#     4  11  20  30  46  68  95 125 156 195 242 287
#     4   9  17  30  50  76 102 127 155 189 231 277
#     4   7  12  26  47  68  92 123 157 191 229 275
#
# _framework density 17.332903999999999
#
# number of rings (size 3 to 8) (size 9 to 14) (size 15 to 20)
#    0.000    3.000    0.769    3.692    0.000    2.462 
#    0.000    3.846    0.000    5.538    0.000    0.000 
#    0.000    0.000    0.000    0.000    0.000    0.000 
#
# Total GULP energy -289612.108422 kJ/mol
# GULP energy per Si atom -5569.463623 kJ/mol
# Density = 1.729345 g / cm^3
# Si number density = 17.332904 Si / 1000 Ang^3
#
#
#
# Elastic Constant Matrix: (Units=GPa)
#
#
# Indices 1 2 3 4 5 6 
#
# 1 107.6149 9.4559 100.2896 0.0000 0.0000 0.0000
# 2 9.4559 10.8543 14.4533 0.0000 0.0000 0.0000
# 3 100.2896 14.4533 174.7720 0.0000 0.0000 0.0000
# 4 0.0000 0.0000 0.0000 11.2803 0.0000 0.0000
# 5 0.0000 0.0000 0.0000 0.0000 8.8073 0.0000
# 6 0.0000 0.0000 0.0000 0.0000 0.0000 19.7271
#
#
#
# Elastic Compliance Matrix: (Units=1/GPa)
#
#
# Indices 1 2 3 4 5 6 
#
# 1 0.020030 -0.002410 -0.011294 0.000000 0.000000 0.000000
# 2 -0.002410 0.103820 -0.007203 0.000000 0.000000 0.000000
# 3 -0.011294 -0.007203 0.012798 0.000000 0.000000 0.000000
# 4 0.000000 0.000000 0.000000 0.088650 0.000000 0.000000
# 5 0.000000 0.000000 0.000000 0.000000 0.113542 0.000000
# 6 0.000000 0.000000 0.000000 0.000000 0.000000 0.050692
#
#
# Mechanical properties :
#
#
# Convention : Reuss Voigt Hill
#
# Bulk Modulus (GPa) = 10.54472 60.18209 35.36340
# Shear Modulus (GPa) = 10.80013 19.23244 15.01629
#
# Velocity S-wave (km/s) = 2.49890 3.33467 2.94657
# Velocity P-wave (km/s) = 3.79775 7.04438 5.65890
#
# Compressibility (1/GPa) = 0.09483416
#
# Stress axis : x y z
#
# Youngs Moduli (GPa) = 49.92573 9.63203 78.13437
#
# Poissons Ratio (x) = 0.02321 0.88248
# Poissons Ratio (y) = 0.12032 0.56278
# Poissons Ratio (z) = 0.56388 0.06938
#
# Static dielectric constant tensor:
#      x y z
#    x 1.566880 0.000000 0.000000 
#    y 0.000000 1.623340 0.000000 
#    z 0.000000 0.000000 1.616730 
# 
# From -- ./inp_files/66785.got.cif
#   From: 2010.05.17/outbox.cif.g08.bks.cpg/sg71_34_cif.got.tgz:66785.got - 2010.06.03 16:22:01.
