data_PCOD9524296
_publ_section_title
;
Structure prediction by ZEFSAII (Michael W. Deem and Ramdas Pophale) SiO2 
 PCOD9524296
Probable space group: I M M M
;
_chemical_formula_sum "Si O2"
_cell_formula_units_Z 88
_cell_length_a 25.288859
_cell_length_b 7.863698
_cell_length_c 20.535558
_cell_angle_alpha 90.000000
_cell_angle_beta 90.000000
_cell_angle_gamma 90.000000
_cell_volume 4083.782178
_symmetry_space_group_name_H-M "I M M M"
_symmetry_group_IT_number 71
_symmetry_cell_setting 'orthorhombic'
loop_
_space_group_symop_operation_xyz
x,y,z
-x,-y,z
x,-y,-z
-x,y,-z
-x,-y,-z
x,y,-z
-x,y,z
x,-y,z
1/2+x,1/2+y,1/2+z
1/2-x,1/2-y,1/2+z
1/2+x,1/2-y,1/2-z
1/2-x,1/2+y,1/2-z
1/2-x,1/2-y,1/2-z
1/2+x,1/2+y,1/2-z
1/2-x,1/2+y,1/2+z
1/2+x,1/2-y,1/2+z
loop_
_atom_site_type_symbol
_atom_site_label
_atom_site_fract_x
_atom_site_fract_y
_atom_site_fract_z
Si Si1 0.253440 0.798913 0.174137
Si Si2 0.671782 0.291730 0.430008
Si Si3 0.442067 0.292350 0.391461
Si Si4 0.941495 0.206928 0.259372
Si Si5 0.868291 0.203266 0.626504
Si Si6 0.561665 0.202095 0.000000
O O1 0.250000 0.750000 0.250000
O O2 0.205342 0.727695 0.130896
O O3 0.307757 0.757974 0.136132
O O4 0.247852 0.000000 0.174001
O O5 0.695083 0.243114 0.500000
O O6 0.671343 0.500000 0.427567
O O7 0.610940 0.236145 0.426305
O O8 0.500000 0.235124 0.414490
O O9 0.442926 0.500000 0.394268
O O10 0.435986 0.242972 0.315586
O O11 0.898380 0.270971 0.309359
O O12 0.000000 0.256127 0.282333
O O13 0.939257 0.000000 0.259200
O O14 0.903035 0.250068 0.563253
O O15 0.868135 0.000000 0.628779
O O16 0.500000 0.269663 0.000000
O O17 0.557117 0.000000 0.000000
#
# Coordination Sequence:
#
# PCOD9524296 Si02
#       6
#    16  16  16  16  16   8
#     4  11  23  39  60  84 115 156 203 254 310 376
#     4   9  18  31  48  73 107 147 185 227 288 355
#     4   8  13  23  42  70 104 139 175 219 275 339
#     4   8  14  26  47  76 108 140 176 225 286 345
#     4  11  22  37  60  87 116 154 203 257 309 364
#     4  11  25  43  61  87 127 171 212 255 312 385
#
# _framework density 21.548651
#
# number of rings (size 3 to 8) (size 9 to 14) (size 15 to 20)
#    0.000    2.455    0.000    4.091    1.273    4.727 
#    0.000    1.818    0.000    0.000    0.000    0.000 
#    0.000    2.182    0.000   12.364    0.000   11.636 
#
# Total GULP energy -245417.438124 kJ/mol
# GULP energy per Si atom -5577.669048 kJ/mol
# Density = 2.149961 g / cm^3
# Si number density = 21.548651 Si / 1000 Ang^3
#
#
#
# Elastic Constant Matrix: (Units=GPa)
#
#
# Indices 1 2 3 4 5 6 
#
# 1 157.8184 6.8796 86.4518 0.0000 0.0000 0.0000
# 2 6.8796 32.6785 9.4940 0.0000 0.0000 0.0000
# 3 86.4518 9.4940 133.7807 0.0000 0.0000 0.0000
# 4 0.0000 0.0000 0.0000 16.4912 0.0000 0.0000
# 5 0.0000 0.0000 0.0000 0.0000 33.4774 0.0000
# 6 0.0000 0.0000 0.0000 0.0000 0.0000 15.4615
#
#
#
# Elastic Compliance Matrix: (Units=1/GPa)
#
#
# Indices 1 2 3 4 5 6 
#
# 1 0.009810 -0.000228 -0.006323 0.000000 0.000000 0.000000
# 2 -0.000228 0.031251 -0.002070 0.000000 0.000000 0.000000
# 3 -0.006323 -0.002070 0.011708 0.000000 0.000000 0.000000
# 4 0.000000 0.000000 0.000000 0.060638 0.000000 0.000000
# 5 0.000000 0.000000 0.000000 0.000000 0.029871 0.000000
# 6 0.000000 0.000000 0.000000 0.000000 0.000000 0.064677
#
#
# Mechanical properties :
#
#
# Convention : Reuss Voigt Hill
#
# Bulk Modulus (GPa) = 28.14897 58.88093 43.51495
# Shear Modulus (GPa) = 21.09342 27.84949 24.47146
#
# Velocity S-wave (km/s) = 3.13209 3.59890 3.37358
# Velocity P-wave (km/s) = 5.11579 6.68232 5.95083
#
# Compressibility (1/GPa) = 0.03552528
#
# Stress axis : x y z
#
# Youngs Moduli (GPa) = 101.93415 31.99935 85.41055
#
# Poissons Ratio (x) = 0.00730 0.54008
# Poissons Ratio (y) = 0.02326 0.17683
# Poissons Ratio (z) = 0.64457 0.06625
#
# Static dielectric constant tensor:
#      x y z
#    x 1.850590 0.000000 0.000000 
#    y 0.000000 1.803580 0.000000 
#    z 0.000000 0.000000 1.778460 
# 
# From -- ./inp_files/12504.got.cif
#   From: 2010.05.17/outbox.cif.g08.bks.cpg/sg71_7_cif.got.tgz:12504.got - 2010.06.03 16:22:01.
