data_PCOD9524047
_publ_section_title
;
Structure prediction by ZEFSAII (Michael W. Deem and Ramdas Pophale) SiO2 
 PCOD9524047
Probable space group: I M M M
;
_chemical_formula_sum "Si O2"
_cell_formula_units_Z 72
_cell_length_a 26.341472
_cell_length_b 7.917681
_cell_length_c 23.982494
_cell_angle_alpha 90.000000
_cell_angle_beta 90.000000
_cell_angle_gamma 90.000000
_cell_volume 5001.869826
_symmetry_space_group_name_H-M "I M M M"
_symmetry_group_IT_number 71
_symmetry_cell_setting 'orthorhombic'
loop_
_space_group_symop_operation_xyz
x,y,z
-x,-y,z
x,-y,-z
-x,y,-z
-x,-y,-z
x,y,-z
-x,y,z
x,-y,z
1/2+x,1/2+y,1/2+z
1/2-x,1/2-y,1/2+z
1/2+x,1/2-y,1/2-z
1/2-x,1/2+y,1/2-z
1/2-x,1/2-y,1/2-z
1/2+x,1/2+y,1/2-z
1/2-x,1/2+y,1/2+z
1/2+x,1/2-y,1/2+z
loop_
_atom_site_type_symbol
_atom_site_label
_atom_site_fract_x
_atom_site_fract_y
_atom_site_fract_z
Si Si1 0.729777 0.294931 0.063759
Si Si2 0.718458 0.797104 0.671727
Si Si3 0.828164 0.198840 0.721036
Si Si4 0.939438 0.000000 0.434381
Si Si5 0.878302 0.310798 0.384870
O O1 0.724833 0.500000 0.066329
O O2 0.774385 0.247429 0.107252
O O3 0.676366 0.221669 0.085559
O O4 0.738989 0.246167 0.000000
O O5 0.772909 0.744455 0.697978
O O6 0.675248 0.728070 0.712757
O O7 0.715273 0.000000 0.674728
O O8 0.868314 0.290067 0.681503
O O9 0.832814 0.000000 0.709724
O O10 0.915267 0.165621 0.406497
O O11 0.926003 0.000000 0.500000
O O12 0.000000 0.000000 0.428994
O O13 0.895559 0.500000 0.397638
#
# Coordination Sequence:
#
# PCOD9524047 Si02
#       5
#    16  16  16   8  16
#     4   9  16  27  41  58  86 119 148 179 214 249
#     4   8  14  22  35  58  83 109 140 175 208 243
#     4   9  15  26  41  58  82 107 134 173 217 250
#     4  11  24  40  52  64  86 108 135 183 231 269
#     4  11  20  32  50  67  81 107 143 180 220 264
#
# _framework density 14.394615999999999
#
# number of rings (size 3 to 8) (size 9 to 14) (size 15 to 20)
#    0.000    2.556    2.222    2.667    0.000    7.556 
#    0.000    1.111    0.000    0.000    0.000    0.000 
#    0.000    0.000    0.000    0.000    0.000    2.222 
#
# Total GULP energy -200414.062102 kJ/mol
# GULP energy per Si atom -5567.057281 kJ/mol
# Density = 1.436185 g / cm^3
# Si number density = 14.394616 Si / 1000 Ang^3
#
#
#
# Elastic Constant Matrix: (Units=GPa)
#
#
# Indices 1 2 3 4 5 6 
#
# 1 28.9980 26.1971 27.7880 0.0000 0.0000 0.0000
# 2 26.1971 68.6992 30.7785 0.0000 0.0000 0.0000
# 3 27.7880 30.7785 100.6041 0.0000 0.0000 0.0000
# 4 0.0000 0.0000 0.0000 17.1456 0.0000 0.0000
# 5 0.0000 0.0000 0.0000 0.0000 16.1842 0.0000
# 6 0.0000 0.0000 0.0000 0.0000 0.0000 -0.3259
#
#
#
# Elastic Compliance Matrix: (Units=1/GPa)
#
#
# Indices 1 2 3 4 5 6 
#
# 1 0.062342 -0.018609 -0.011526 0.000000 0.000000 0.000000
# 2 -0.018609 0.022423 -0.001720 0.000000 0.000000 0.000000
# 3 -0.011526 -0.001720 0.013650 0.000000 0.000000 0.000000
# 4 0.000000 0.000000 0.000000 0.058324 0.000000 0.000000
# 5 0.000000 0.000000 0.000000 0.000000 0.061789 0.000000
# 6 0.000000 0.000000 0.000000 0.000000 0.000000 -3.068663
#
#
# Mechanical properties :
#
#
# Convention : Reuss Voigt Hill
#
# Bulk Modulus (GPa) = 28.81492 40.86982 34.84237
# Shear Modulus (GPa) = -1.80190 14.16995 6.18403
#
# Velocity S-wave (km/s) = -1.12005 3.14091 2.07494
# Velocity P-wave (km/s) = 4.28820 6.45041 5.47706
#
# Compressibility (1/GPa) = 0.03470424
#
# Stress axis : x y z
#
# Youngs Moduli (GPa) = 16.04053 44.59716 73.26048
#
# Poissons Ratio (x) = 0.82990 0.84443
# Poissons Ratio (y) = 0.29850 0.12601
# Poissons Ratio (z) = 0.18489 0.07671
#
# Static dielectric constant tensor:
#      x y z
#    x 1.434310 0.000000 0.000000 
#    y 0.000000 1.508150 0.000000 
#    z 0.000000 0.000000 1.539190 
# 
# From -- ./inp_files/14708.got.cif
#   From: 2010.05.17/outbox.cif.g08.bks.cpg/sg71_8_cif.got.tgz:14708.got - 2010.06.03 16:22:01.
