data_PCOD9524435
_publ_section_title
;
Structure prediction by ZEFSAII (Michael W. Deem and Ramdas Pophale) SiO2 
 PCOD9524435
Probable space group: I M M M
;
_chemical_formula_sum "Si O2"
_cell_formula_units_Z 120
_cell_length_a 11.787623
_cell_length_b 22.718499
_cell_length_c 23.800599
_cell_angle_alpha 90.000000
_cell_angle_beta 90.000000
_cell_angle_gamma 90.000000
_cell_volume 6373.731422
_symmetry_space_group_name_H-M "I M M M"
_symmetry_group_IT_number 71
_symmetry_cell_setting 'orthorhombic'
loop_
_space_group_symop_operation_xyz
x,y,z
-x,-y,z
x,-y,-z
-x,y,-z
-x,-y,-z
x,y,-z
-x,y,z
x,-y,z
1/2+x,1/2+y,1/2+z
1/2-x,1/2-y,1/2+z
1/2+x,1/2-y,1/2-z
1/2-x,1/2+y,1/2-z
1/2-x,1/2-y,1/2-z
1/2+x,1/2+y,1/2-z
1/2-x,1/2+y,1/2+z
1/2+x,1/2-y,1/2+z
loop_
_atom_site_type_symbol
_atom_site_label
_atom_site_fract_x
_atom_site_fract_y
_atom_site_fract_z
Si Si1 0.365787 0.726776 0.438369
Si Si2 0.135481 0.066866 0.767585
Si Si3 0.136054 0.566577 0.437502
Si Si4 0.866301 0.632468 0.937623
Si Si5 0.367659 0.740613 0.212822
Si Si6 0.500000 0.570770 0.066266
Si Si7 0.230062 0.655153 0.652639
Si Si8 0.814020 0.881869 0.649334
O O1 0.323198 0.706700 0.500000
O O2 0.500000 0.715990 0.436764
O O3 0.348852 0.796935 0.436560
O O4 0.310206 0.696053 0.385419
O O5 0.200021 0.117757 0.801629
O O6 0.165580 0.076040 0.702265
O O7 0.000000 0.074036 0.774071
O O8 0.165139 0.000000 0.785134
O O9 0.173444 0.584585 0.500000
O O10 0.176428 0.500000 0.427921
O O11 0.177185 0.608877 0.389698
O O12 0.000000 0.565624 0.437726
O O13 0.807007 0.611692 0.880674
O O14 0.000000 0.620746 0.935876
O O15 0.825135 0.611666 0.000000
O O16 0.500000 0.733725 0.235589
O O17 0.250000 0.750000 0.250000
O O18 0.362933 0.801558 0.178811
O O19 0.342896 0.683262 0.173991
O O20 0.500000 0.500000 0.074173
O O21 0.604506 0.600070 0.098477
O O22 0.500000 0.582728 0.000000
#
# Coordination Sequence:
#
# PCOD9524435 Si02
#       8
#    16  16  16  16  16   8  16  16
#     4   9  18  32  52  83 123 163 198 235 292 369
#     4  11  24  41  61  85 118 163 213 269 323 378
#     4   9  19  37  58  79 109 152 198 246 303 368
#     4   9  19  36  59  90 126 162 197 239 304 385
#     4  12  26  42  61  92 130 169 211 263 327 391
#     4  11  24  42  70 100 128 168 216 270 332 393
#     4  12  21  36  59  88 119 154 205 258 314 376
#     4  12  21  41  64  91 125 164 209 261 320 381
#
# _framework density 18.827276999999999
#
# number of rings (size 3 to 8) (size 9 to 14) (size 15 to 20)
#    0.000    1.400    4.000    3.600    0.000    1.067 
#    0.000    0.000    0.000    3.200    0.000   10.267 
#    0.000    0.000    0.000    0.000    0.000    0.000 
#
# Total GULP energy -334374.249970 kJ/mol
# GULP energy per Si atom -5572.904166 kJ/mol
# Density = 1.878443 g / cm^3
# Si number density = 18.827277 Si / 1000 Ang^3
#
#
#
# Elastic Constant Matrix: (Units=GPa)
#
#
# Indices 1 2 3 4 5 6 
#
# 1 39.4174 15.3124 28.6889 0.0000 0.0000 0.0000
# 2 15.3124 51.8939 22.5008 0.0000 0.0000 0.0000
# 3 28.6889 22.5008 87.5197 0.0000 0.0000 0.0000
# 4 0.0000 0.0000 0.0000 62.1366 0.0000 0.0000
# 5 0.0000 0.0000 0.0000 0.0000 28.5060 0.0000
# 6 0.0000 0.0000 0.0000 0.0000 0.0000 23.9634
#
#
#
# Elastic Compliance Matrix: (Units=1/GPa)
#
#
# Indices 1 2 3 4 5 6 
#
# 1 0.034908 -0.006009 -0.009898 0.000000 0.000000 0.000000
# 2 -0.006009 0.022722 -0.003872 0.000000 0.000000 0.000000
# 3 -0.009898 -0.003872 0.015666 0.000000 0.000000 0.000000
# 4 0.000000 0.000000 0.000000 0.016094 0.000000 0.000000
# 5 0.000000 0.000000 0.000000 0.000000 0.035080 0.000000
# 6 0.000000 0.000000 0.000000 0.000000 0.000000 0.041730
#
#
# Mechanical properties :
#
#
# Convention : Reuss Voigt Hill
#
# Bulk Modulus (GPa) = 29.63977 34.64834 32.14406
# Shear Modulus (GPa) = 23.04116 30.40979 26.72548
#
# Velocity S-wave (km/s) = 3.50211 4.02331 3.77172
# Velocity P-wave (km/s) = 5.66835 6.32661 6.00650
#
# Compressibility (1/GPa) = 0.03373845
#
# Stress axis : x y z
#
# Youngs Moduli (GPa) = 28.64708 44.01033 63.83235
#
# Poissons Ratio (x) = 0.26444 0.63181
# Poissons Ratio (y) = 0.17213 0.24716
# Poissons Ratio (z) = 0.28355 0.17041
#
# Static dielectric constant tensor:
#      x y z
#    x 1.694550 0.000000 0.000000 
#    y 0.000000 1.652660 0.000000 
#    z 0.000000 0.000000 1.670760 
# 
# From -- ./inp_files/52253.got.cif
#   From: 2010.05.17/outbox.cif.g08.bks.cpg/sg71_27_cif.got.tgz:52253.got - 2010.06.03 16:22:01.
