data_PCOD9524448
_publ_section_title
;
Structure prediction by ZEFSAII (Michael W. Deem and Ramdas Pophale) SiO2 
 PCOD9524448
Probable space group: I M M M
;
_chemical_formula_sum "Si O2"
_cell_formula_units_Z 88
_cell_length_a 15.595060
_cell_length_b 13.721348
_cell_length_c 19.976298
_cell_angle_alpha 90.000000
_cell_angle_beta 90.000000
_cell_angle_gamma 90.000000
_cell_volume 4274.633029
_symmetry_space_group_name_H-M "I M M M"
_symmetry_group_IT_number 71
_symmetry_cell_setting 'orthorhombic'
loop_
_space_group_symop_operation_xyz
x,y,z
-x,-y,z
x,-y,-z
-x,y,-z
-x,-y,-z
x,y,-z
-x,y,z
x,-y,z
1/2+x,1/2+y,1/2+z
1/2-x,1/2-y,1/2+z
1/2+x,1/2-y,1/2-z
1/2-x,1/2+y,1/2-z
1/2-x,1/2-y,1/2-z
1/2+x,1/2+y,1/2-z
1/2-x,1/2+y,1/2+z
1/2+x,1/2-y,1/2+z
loop_
_atom_site_type_symbol
_atom_site_label
_atom_site_fract_x
_atom_site_fract_y
_atom_site_fract_z
Si Si1 0.500000 0.880540 0.922075
Si Si2 0.664975 0.117151 0.838536
Si Si3 0.906370 0.116269 0.721743
Si Si4 0.096586 0.686649 0.925065
Si Si5 0.719419 0.882726 0.308653
Si Si6 0.141276 0.112081 0.878167
O O1 0.415356 0.847604 0.881690
O O2 0.500000 0.000000 0.922833
O O3 0.500000 0.849855 0.000000
O O4 0.676526 0.150165 0.761472
O O5 0.756439 0.130326 0.874556
O O6 0.653778 0.000000 0.833594
O O7 0.818394 0.151599 0.687822
O O8 0.891714 0.124340 0.801746
O O9 0.000000 0.157933 0.704465
O O10 0.909895 0.000000 0.708259
O O11 0.163007 0.650362 0.870317
O O12 0.099886 0.804014 0.921685
O O13 0.000000 0.654330 0.908589
O O14 0.117600 0.653834 0.000000
O O15 0.722036 0.000000 0.306382
O O16 0.125609 0.000000 0.898037
#
# Coordination Sequence:
#
# PCOD9524448 Si02
#       6
#     8  16  16  16  16  16
#     4   9  16  26  44  76 115 145 176 223 271 323
#     4   8  16  30  52  82 107 139 186 221 264 334
#     4   8  14  28  55  89 115 135 170 222 281 342
#     4  11  25  39  52  77 109 146 195 241 281 327
#     4   9  19  36  58  81 109 146 186 233 281 328
#     4   9  18  35  57  80 108 142 178 225 283 339
#
# _framework density 20.586563000000002
#
# number of rings (size 3 to 8) (size 9 to 14) (size 15 to 20)
#    0.000    3.000    0.000    2.727    1.273    5.818 
#    0.000    3.636    2.000    0.545    0.000    2.545 
#    0.000    0.000    0.000    0.000    0.000    0.364 
#
# Total GULP energy -245598.176559 kJ/mol
# GULP energy per Si atom -5581.776740 kJ/mol
# Density = 2.053971 g / cm^3
# Si number density = 20.586563 Si / 1000 Ang^3
#
#
#
# Elastic Constant Matrix: (Units=GPa)
#
#
# Indices 1 2 3 4 5 6 
#
# 1 189.7450 24.2045 103.6521 0.0000 0.0000 0.0000
# 2 24.2045 55.0145 14.6312 0.0000 0.0000 0.0000
# 3 103.6521 14.6312 89.9210 0.0000 0.0000 0.0000
# 4 0.0000 0.0000 0.0000 17.4932 0.0000 0.0000
# 5 0.0000 0.0000 0.0000 0.0000 16.5427 0.0000
# 6 0.0000 0.0000 0.0000 0.0000 0.0000 21.3834
#
#
#
# Elastic Compliance Matrix: (Units=1/GPa)
#
#
# Indices 1 2 3 4 5 6 
#
# 1 0.014442 -0.002014 -0.016320 0.000000 0.000000 0.000000
# 2 -0.002014 0.019280 -0.000816 0.000000 0.000000 0.000000
# 3 -0.016320 -0.000816 0.030065 0.000000 0.000000 0.000000
# 4 0.000000 0.000000 0.000000 0.057165 0.000000 0.000000
# 5 0.000000 0.000000 0.000000 0.000000 0.060450 0.000000
# 6 0.000000 0.000000 0.000000 0.000000 0.000000 0.046765
#
#
# Mechanical properties :
#
#
# Convention : Reuss Voigt Hill
#
# Bulk Modulus (GPa) = 39.23291 68.85069 54.04180
# Shear Modulus (GPa) = 18.18428 23.89670 21.04049
#
# Velocity S-wave (km/s) = 2.97527 3.41073 3.20042
# Velocity P-wave (km/s) = 5.55895 7.00199 6.32178
#
# Compressibility (1/GPa) = 0.02548881
#
# Stress axis : x y z
#
# Youngs Moduli (GPa) = 69.24178 51.86730 33.26073
#
# Poissons Ratio (x) = 0.10445 0.54281
# Poissons Ratio (y) = 0.13944 0.02713
# Poissons Ratio (z) = 1.13001 0.04231
#
# Static dielectric constant tensor:
#      x y z
#    x 1.753740 0.000000 0.000000 
#    y 0.000000 1.789670 0.000000 
#    z 0.000000 0.000000 1.692070 
# 
# From -- ./inp_files/52900.got.cif
#   From: 2010.05.17/outbox.cif.g08.bks.cpg/sg71_27_cif.got.tgz:52900.got - 2010.06.03 16:22:01.
