data_PCOD9524784
_publ_section_title
;
Structure prediction by ZEFSAII (Michael W. Deem and Ramdas Pophale) SiO2 
 PCOD9524784
Probable space group: I M M M
;
_chemical_formula_sum "Si O2"
_cell_formula_units_Z 40
_cell_length_a 27.000000
_cell_length_b 9.000000
_cell_length_c 18.000000
_cell_angle_alpha 90.000000
_cell_angle_beta 90.000000
_cell_angle_gamma 90.000000
_cell_volume 4374.000000
_symmetry_space_group_name_H-M "I M M M"
_symmetry_group_IT_number 71
_symmetry_cell_setting 'orthorhombic'
loop_
_space_group_symop_operation_xyz
x,y,z
-x,-y,z
x,-y,-z
-x,y,-z
-x,-y,-z
x,y,-z
-x,y,z
x,-y,z
1/2+x,1/2+y,1/2+z
1/2-x,1/2-y,1/2+z
1/2+x,1/2-y,1/2-z
1/2-x,1/2+y,1/2-z
1/2-x,1/2-y,1/2-z
1/2+x,1/2+y,1/2-z
1/2-x,1/2+y,1/2+z
1/2+x,1/2-y,1/2+z
loop_
_atom_site_type_symbol
_atom_site_label
_atom_site_fract_x
_atom_site_fract_y
_atom_site_fract_z
Si Si1 0.000000 0.170726 0.590624
Si Si2 0.803699 0.323496 0.170490
Si Si3 0.307052 0.676972 0.832098
Si Si4 0.101161 0.671570 0.410450
Si Si5 0.500000 0.681025 0.413915
Si Si6 0.892529 0.172576 0.089608
O O1 0.050238 0.251237 0.614877
O O2 0.000000 0.173394 0.500000
O O3 0.000000 0.000000 0.614419
O O4 0.805802 0.500000 0.182425
O O5 0.748663 0.287836 0.140086
O O6 0.809527 0.240992 0.248949
O O7 0.847609 0.269616 0.118324
O O8 0.312719 0.500000 0.830806
O O9 0.350641 0.747904 0.879473
O O10 0.101900 0.677820 0.500000
O O11 0.101310 0.500000 0.387611
O O12 0.500000 0.500000 0.414916
O O13 0.500000 0.730384 0.500000
O O14 0.553276 0.724499 0.381639
O O15 0.885286 0.000000 0.111818
O O16 0.894431 0.175354 0.000000
#
# Coordination Sequence:
#
# PCOD9524784 Si02
#       6
#     8  16  16  16   8  16
#     4   9  17  31  52  77 106 139 172 206 250 305
#     4  10  21  36  53  74 102 134 169 213 263 311
#     4  10  21  37  55  73  98 135 175 213 256 309
#     4  10  20  34  54  80 108 136 169 212 258 303
#     4   7  12  26  48  73 100 131 166 202 240 285
#     4   9  17  31  53  78 103 133 170 209 248 297
#
# _framework density 9.1449470000000002
#
# number of rings (size 3 to 8) (size 9 to 14) (size 15 to 20)
#    0.000    2.600    0.000    3.300    0.000    6.000 
#    0.000    5.500    0.000    3.000    0.000    0.000 
#    0.000    0.000    0.000    0.000    0.000    0.000 
#
# Total GULP energy -222981.735533 kJ/mol
# GULP energy per Si atom -5574.543388 kJ/mol
# Density = 0.912413 g / cm^3
# Si number density = 9.144947 Si / 1000 Ang^3
#
#
#
# Elastic Constant Matrix: (Units=GPa)
#
#
# Indices 1 2 3 4 5 6 
#
# 1 193.4772 91.2546 34.8919 0.0000 0.0000 0.0000
# 2 91.2546 101.1882 22.1548 0.0000 0.0000 0.0000
# 3 34.8919 22.1548 6.6468 0.0000 0.0000 0.0000
# 4 0.0000 0.0000 0.0000 26.8030 0.0000 0.0000
# 5 0.0000 0.0000 0.0000 0.0000 52.9208 0.0000
# 6 0.0000 0.0000 0.0000 0.0000 0.0000 34.3195
#
#
#
# Elastic Compliance Matrix: (Units=1/GPa)
#
#
# Indices 1 2 3 4 5 6 
#
# 1 -0.079215 -0.072555 0.657665 0.000000 0.000000 0.000000
# 2 -0.072555 -0.029883 0.480476 0.000000 0.000000 0.000000
# 3 0.657665 0.480476 -4.903388 0.000000 0.000000 0.000000
# 4 0.000000 0.000000 0.000000 0.037309 0.000000 0.000000
# 5 0.000000 0.000000 0.000000 0.000000 0.018896 0.000000
# 6 0.000000 0.000000 0.000000 0.000000 0.000000 0.029138
#
#
# Mechanical properties :
#
#
# Convention : Reuss Voigt Hill
#
# Bulk Modulus (GPa) = -0.34706 66.43498 33.04396
# Shear Modulus (GPa) = -0.62354 33.00938 16.19292
#
# Velocity S-wave (km/s) = -0.58452 4.25289 2.97871
# Velocity P-wave (km/s) = 0.80356 7.77935 5.47140
#
# Compressibility (1/GPa) = -2.88131505
#
# Stress axis : x y z
#
# Youngs Moduli (GPa) = -12.62393 -33.46335 -0.20394
#
# Poissons Ratio (x) = -2.42793 0.13412
# Poissons Ratio (y) = -0.91593 0.09799
# Poissons Ratio (z) = 8.30231 16.07832
#
# Static dielectric constant tensor:
#      x y z
#    x 1.646680 0.000000 0.000000 
#    y 0.000000 1.613680 0.000000 
#    z 0.000000 0.000000 1.612690 
# 
# From -- ./inp_files/48611.got.cif
#   From: 2010.05.17/outbox.ucp.g08.bks.cvg/sg71_25_cif.got.tgz:48611.got - 2010.06.11 16:29:00.
