data_PCOD9524557
_publ_section_title
;
Structure prediction by ZEFSAII (Michael W. Deem and Ramdas Pophale) SiO2 
 PCOD9524557
Probable space group: I M M M
;
_chemical_formula_sum "Si O2"
_cell_formula_units_Z 96
_cell_length_a 14.356700
_cell_length_b 15.097129
_cell_length_c 20.874415
_cell_angle_alpha 90.000000
_cell_angle_beta 90.000000
_cell_angle_gamma 90.000000
_cell_volume 4524.424075
_symmetry_space_group_name_H-M "I M M M"
_symmetry_group_IT_number 71
_symmetry_cell_setting 'orthorhombic'
loop_
_space_group_symop_operation_xyz
x,y,z
-x,-y,z
x,-y,-z
-x,y,-z
-x,-y,-z
x,y,-z
-x,y,z
x,-y,z
1/2+x,1/2+y,1/2+z
1/2-x,1/2-y,1/2+z
1/2+x,1/2-y,1/2-z
1/2-x,1/2+y,1/2-z
1/2-x,1/2-y,1/2-z
1/2+x,1/2+y,1/2-z
1/2-x,1/2+y,1/2+z
1/2+x,1/2-y,1/2+z
loop_
_atom_site_type_symbol
_atom_site_label
_atom_site_fract_x
_atom_site_fract_y
_atom_site_fract_z
Si Si1 0.637572 0.896825 0.427961
Si Si2 0.398637 0.397671 0.391945
Si Si3 0.190037 0.604397 0.430029
Si Si4 0.863933 0.102505 0.573079
Si Si5 0.643747 0.751732 0.829576
Si Si6 0.635740 0.230872 0.687059
O O1 0.609203 0.867399 0.500000
O O2 0.750609 0.893922 0.427584
O O3 0.604627 0.836726 0.368826
O O4 0.611239 0.000000 0.420373
O O5 0.500000 0.386014 0.424225
O O6 0.394088 0.500000 0.371218
O O7 0.302492 0.381045 0.429291
O O8 0.393479 0.328836 0.334417
O O9 0.154856 0.630240 0.500000
O O10 0.174926 0.500000 0.420410
O O11 0.145824 0.663639 0.375619
O O12 0.892574 0.125558 0.500000
O O13 0.894782 0.170133 0.628369
O O14 0.889564 0.000000 0.585140
O O15 0.605233 0.778712 0.760311
O O16 0.751880 0.726546 0.815973
#
# Coordination Sequence:
#
# PCOD9524557 Si02
#       6
#    16  16  16  16  16  16
#     4   8  14  25  40  56  74  99 132 168 207 253
#     4   9  18  31  44  59  83 117 156 192 219 247
#     4   9  17  28  42  61  87 119 150 180 217 261
#     4   8  13  21  34  52  75 104 133 160 196 247
#     4   9  16  25  37  58  86 110 135 174 224 272
#     4   9  17  26  40  61  81 107 141 178 225 272
#
# _framework density 21.218170000000001
#
# number of rings (size 3 to 8) (size 9 to 14) (size 15 to 20)
#    0.000    3.333    0.000    1.500    0.000    5.667 
#    0.000    8.333    0.000    0.500    0.000    1.167 
#    0.000    2.667    0.000   12.000    0.000   33.667 
#
# Total GULP energy -267500.741378 kJ/mol
# GULP energy per Si atom -5572.932112 kJ/mol
# Density = 2.116988 g / cm^3
# Si number density = 21.218170 Si / 1000 Ang^3
#
#
#
# Elastic Constant Matrix: (Units=GPa)
#
#
# Indices 1 2 3 4 5 6 
#
# 1 72.6560 13.5048 13.0214 0.0000 0.0000 0.0000
# 2 13.5048 85.4219 117.6289 0.0000 0.0000 0.0000
# 3 13.0214 117.6289 237.8630 0.0000 0.0000 0.0000
# 4 0.0000 0.0000 0.0000 2.0165 0.0000 0.0000
# 5 0.0000 0.0000 0.0000 0.0000 -23.2464 0.0000
# 6 0.0000 0.0000 0.0000 0.0000 0.0000 -18.5548
#
#
#
# Elastic Compliance Matrix: (Units=1/GPa)
#
#
# Indices 1 2 3 4 5 6 
#
# 1 0.014263 -0.003698 0.001048 0.000000 0.000000 0.000000
# 2 -0.003698 0.037654 -0.018418 0.000000 0.000000 0.000000
# 3 0.001048 -0.018418 0.013255 0.000000 0.000000 0.000000
# 4 0.000000 0.000000 0.000000 0.495903 0.000000 0.000000
# 5 0.000000 0.000000 0.000000 0.000000 -0.043017 0.000000
# 6 0.000000 0.000000 0.000000 0.000000 0.000000 -0.053894
#
#
# Mechanical properties :
#
#
# Convention : Reuss Voigt Hill
#
# Bulk Modulus (GPa) = 43.41161 76.02789 59.71975
# Shear Modulus (GPa) = 9.72804 8.82878 9.27841
#
# Velocity S-wave (km/s) = 2.14353 2.04205 2.09341
# Velocity P-wave (km/s) = 5.16046 6.43966 5.83522
#
# Compressibility (1/GPa) = 0.02303531
#
# Stress axis : x y z
#
# Youngs Moduli (GPa) = 70.11138 26.55763 75.44293
#
# Poissons Ratio (x) = 0.09821 -0.07906
# Poissons Ratio (y) = 0.25927 1.38953
# Poissons Ratio (z) = -0.07347 0.48915
#
# Static dielectric constant tensor:
#      x y z
#    x 1.800650 0.000000 0.000000 
#    y 0.000000 1.728820 0.000000 
#    z 0.000000 0.000000 1.520290 
# 
# From -- ./inp_files/55012.got.cif
#   From: 2010.05.17/outbox.cif.g08.bks.cpg/sg71_28_cif.got.tgz:55012.got - 2010.06.03 16:22:01.
