data_PCOD9524591
_publ_section_title
;
Structure prediction by ZEFSAII (Michael W. Deem and Ramdas Pophale) SiO2 
 PCOD9524591
Probable space group: I M M M
;
_chemical_formula_sum "Si O2"
_cell_formula_units_Z 104
_cell_length_a 9.693230
_cell_length_b 23.046627
_cell_length_c 21.248219
_cell_angle_alpha 90.000000
_cell_angle_beta 90.000000
_cell_angle_gamma 90.000000
_cell_volume 4746.772576
_symmetry_space_group_name_H-M "I M M M"
_symmetry_group_IT_number 71
_symmetry_cell_setting 'orthorhombic'
loop_
_space_group_symop_operation_xyz
x,y,z
-x,-y,z
x,-y,-z
-x,y,-z
-x,-y,-z
x,y,-z
-x,y,z
x,-y,z
1/2+x,1/2+y,1/2+z
1/2-x,1/2-y,1/2+z
1/2+x,1/2-y,1/2-z
1/2-x,1/2+y,1/2-z
1/2-x,1/2-y,1/2-z
1/2+x,1/2+y,1/2-z
1/2-x,1/2+y,1/2+z
1/2+x,1/2-y,1/2+z
loop_
_atom_site_type_symbol
_atom_site_label
_atom_site_fract_x
_atom_site_fract_y
_atom_site_fract_z
Si Si1 0.162464 0.436197 0.114296
Si Si2 0.153753 0.892566 0.076884
Si Si3 0.656297 0.000000 0.923348
Si Si4 0.848968 0.703814 0.571701
Si Si5 0.334393 0.435786 0.755554
Si Si6 0.657589 0.308239 0.754746
Si Si7 0.654490 0.664639 0.095965
O O1 0.179251 0.500000 0.084902
O O2 0.243405 0.438192 0.180916
O O3 0.234183 0.383244 0.078892
O O4 0.000000 0.426175 0.123978
O O5 0.259007 0.943055 0.094618
O O6 0.220428 0.831713 0.096867
O O7 0.000000 0.902375 0.101905
O O8 0.142749 0.894090 0.000000
O O9 0.500000 0.000000 0.899480
O O10 0.649960 0.000000 0.000000
O O11 0.863046 0.682661 0.500000
O O12 0.821523 0.771691 0.569235
O O13 0.000000 0.694882 0.602832
O O14 0.500000 0.433052 0.769095
O O15 0.312272 0.500000 0.724924
O O16 0.300566 0.372030 0.726666
O O17 0.500000 0.295133 0.734741
O O18 0.750000 0.250000 0.750000
O O19 0.656102 0.323102 0.829188
O O20 0.500000 0.645305 0.078816
#
# Coordination Sequence:
#
# PCOD9524591 Si02
#       7
#    16  16   8  16  16  16  16
#     4   9  16  25  40  64  90 113 142 182 221 258
#     4   9  16  25  38  59  86 111 136 173 221 266
#     4   9  15  23  37  57  81 109 141 177 217 259
#     4   9  17  30  47  65  85 111 147 188 225 265
#     4   8  14  26  43  62  86 116 148 181 219 261
#     4   9  17  28  43  66  93 118 145 179 218 262
#     4   9  18  31  46  65  89 118 149 181 221 266
#
# _framework density 21.909623
#
# number of rings (size 3 to 8) (size 9 to 14) (size 15 to 20)
#    0.000    3.154    0.000    2.077    0.000    6.769 
#    0.000    0.000    0.000    0.462    2.000    3.231 
#    0.000    0.000    0.000    0.000    0.000    0.000 
#
# Total GULP energy -289718.314541 kJ/mol
# GULP energy per Si atom -5571.506049 kJ/mol
# Density = 2.185976 g / cm^3
# Si number density = 21.909623 Si / 1000 Ang^3
#
#
#
# Elastic Constant Matrix: (Units=GPa)
#
#
# Indices 1 2 3 4 5 6 
#
# 1 158.6455 108.3376 4.9492 0.0000 0.0000 0.0000
# 2 108.3376 166.8866 1.7818 0.0000 0.0000 0.0000
# 3 4.9492 1.7818 46.9344 0.0000 0.0000 0.0000
# 4 0.0000 0.0000 0.0000 20.6101 0.0000 0.0000
# 5 0.0000 0.0000 0.0000 0.0000 2.4650 0.0000
# 6 0.0000 0.0000 0.0000 0.0000 0.0000 44.6367
#
#
#
# Elastic Compliance Matrix: (Units=1/GPa)
#
#
# Indices 1 2 3 4 5 6 
#
# 1 0.011362 -0.007366 -0.000919 0.000000 0.000000 0.000000
# 2 -0.007366 0.010770 0.000368 0.000000 0.000000 0.000000
# 3 -0.000919 0.000368 0.021389 0.000000 0.000000 0.000000
# 4 0.000000 0.000000 0.000000 0.048520 0.000000 0.000000
# 5 0.000000 0.000000 0.000000 0.000000 0.405682 0.000000
# 6 0.000000 0.000000 0.000000 0.000000 0.000000 0.022403
#
#
# Mechanical properties :
#
#
# Convention : Reuss Voigt Hill
#
# Bulk Modulus (GPa) = 36.11681 66.95597 51.53639
# Shear Modulus (GPa) = 9.17112 30.70221 19.93666
#
# Velocity S-wave (km/s) = 2.04816 3.74747 3.01981
# Velocity P-wave (km/s) = 4.70250 7.02504 5.97765
#
# Compressibility (1/GPa) = 0.02768794
#
# Stress axis : x y z
#
# Youngs Moduli (GPa) = 88.00945 92.84916 46.75250
#
# Poissons Ratio (x) = 0.68396 0.04294
# Poissons Ratio (y) = 0.64831 -0.01720
# Poissons Ratio (z) = 0.08084 -0.03416
#
# Static dielectric constant tensor:
#      x y z
#    x 1.776160 0.000000 0.000000 
#    y 0.000000 1.840150 0.000000 
#    z 0.000000 0.000000 1.941800 
# 
# From -- ./inp_files/61996.got.cif
#   From: 2010.05.17/outbox.cif.g08.bks.cpg/sg71_31_cif.got.tgz:61996.got - 2010.06.03 16:22:01.
