data_PCOD9524286
_publ_section_title
;
Structure prediction by ZEFSAII (Michael W. Deem and Ramdas Pophale) SiO2 
 PCOD9524286
Probable space group: I M M M
;
_chemical_formula_sum "Si O2"
_cell_formula_units_Z 88
_cell_length_a 28.905545
_cell_length_b 14.455705
_cell_length_c 12.068704
_cell_angle_alpha 90.000000
_cell_angle_beta 90.000000
_cell_angle_gamma 90.000000
_cell_volume 5042.908345
_symmetry_space_group_name_H-M "I M M M"
_symmetry_group_IT_number 71
_symmetry_cell_setting 'orthorhombic'
loop_
_space_group_symop_operation_xyz
x,y,z
-x,-y,z
x,-y,-z
-x,y,-z
-x,-y,-z
x,y,-z
-x,y,z
x,-y,z
1/2+x,1/2+y,1/2+z
1/2-x,1/2-y,1/2+z
1/2+x,1/2-y,1/2-z
1/2-x,1/2+y,1/2-z
1/2-x,1/2-y,1/2-z
1/2+x,1/2+y,1/2-z
1/2-x,1/2+y,1/2+z
1/2+x,1/2-y,1/2+z
loop_
_atom_site_type_symbol
_atom_site_label
_atom_site_fract_x
_atom_site_fract_y
_atom_site_fract_z
Si Si1 0.757497 0.110171 0.500000
Si Si2 0.055898 0.796477 0.629500
Si Si3 0.161178 0.500000 0.368326
Si Si4 0.292713 0.319359 0.769365
Si Si5 0.148641 0.611887 0.000000
Si Si6 0.771977 0.000000 0.131176
Si Si7 0.376053 0.821142 0.739898
Si Si8 0.053293 0.000000 0.634257
O O1 0.784359 0.143971 0.607394
O O2 0.703318 0.140574 0.500000
O O3 0.756074 0.000000 0.500000
O O4 0.069120 0.781112 0.500000
O O5 0.077073 0.719649 0.709087
O O6 0.073178 0.899766 0.664372
O O7 0.000000 0.797529 0.632908
O O8 0.152819 0.500000 0.500000
O O9 0.216478 0.500000 0.349762
O O10 0.140318 0.590413 0.310565
O O11 0.250000 0.250000 0.750000
O O12 0.290859 0.406989 0.687742
O O13 0.338527 0.259716 0.756222
O O14 0.125107 0.649563 0.111511
O O15 0.147358 0.500000 0.000000
O O16 0.780431 0.000000 0.000000
O O17 0.052133 0.000000 0.500000
O O18 0.000000 0.000000 0.673103
#
# Coordination Sequence:
#
# PCOD9524286 Si02
#       8
#     8  16   8  16   8   8  16   8
#     4  11  22  40  58  81 123 156 199 250 296 346
#     4   9  19  38  64  92 120 150 188 240 301 356
#     4  11  22  37  57  86 118 153 195 241 295 349
#     4  12  24  37  58  86 115 156 198 243 290 342
#     4  11  22  40  61  78 112 166 211 239 277 350
#     4  11  24  40  54  81 123 160 197 241 286 345
#     4  12  24  38  61  87 117 155 201 244 292 349
#     4   7  12  29  58  87 115 145 174 216 285 357
#
# _framework density 17.450247999999998
#
# number of rings (size 3 to 8) (size 9 to 14) (size 15 to 20)
#    0.000    1.364    5.455    1.636    5.091    0.727 
#    0.000    0.909    0.000    2.182    0.000    1.909 
#    0.000    0.000    0.000    0.000    0.000    0.000 
#
# Total GULP energy -245602.240189 kJ/mol
# GULP energy per Si atom -5581.869095 kJ/mol
# Density = 1.741053 g / cm^3
# Si number density = 17.450248 Si / 1000 Ang^3
#
#
#
# Elastic Constant Matrix: (Units=GPa)
#
#
# Indices 1 2 3 4 5 6 
#
# 1 36.8465 34.3102 33.2453 0.0000 0.0000 0.0000
# 2 34.3102 133.0602 68.0944 0.0000 0.0000 0.0000
# 3 33.2453 68.0944 122.9982 0.0000 0.0000 0.0000
# 4 0.0000 0.0000 0.0000 33.9262 0.0000 0.0000
# 5 0.0000 0.0000 0.0000 0.0000 21.6146 0.0000
# 6 0.0000 0.0000 0.0000 0.0000 0.0000 23.3443
#
#
#
# Elastic Compliance Matrix: (Units=1/GPa)
#
#
# Indices 1 2 3 4 5 6 
#
# 1 0.039670 -0.006616 -0.007060 0.000000 0.000000 0.000000
# 2 -0.006616 0.011590 -0.004628 0.000000 0.000000 0.000000
# 3 -0.007060 -0.004628 0.012601 0.000000 0.000000 0.000000
# 4 0.000000 0.000000 0.000000 0.029476 0.000000 0.000000
# 5 0.000000 0.000000 0.000000 0.000000 0.046265 0.000000
# 6 0.000000 0.000000 0.000000 0.000000 0.000000 0.042837
#
#
# Mechanical properties :
#
#
# Convention : Reuss Voigt Hill
#
# Bulk Modulus (GPa) = 36.69367 62.68940 49.69154
# Shear Modulus (GPa) = 21.91729 26.26070 24.08900
#
# Velocity S-wave (km/s) = 3.54784 3.88350 3.71946
# Velocity P-wave (km/s) = 6.15273 7.49075 6.85447
#
# Compressibility (1/GPa) = 0.02725266
#
# Stress axis : x y z
#
# Youngs Moduli (GPa) = 25.20785 86.28195 79.36184
#
# Poissons Ratio (x) = 0.57088 0.56026
# Poissons Ratio (y) = 0.16679 0.36729
# Poissons Ratio (z) = 0.17795 0.39932
#
# Static dielectric constant tensor:
#      x y z
#    x 1.590650 0.000000 0.000000 
#    y 0.000000 1.594730 0.000000 
#    z 0.000000 0.000000 1.417790 
# 
# From -- ./inp_files/28684.got.cif
#   From: 2010.05.17/outbox.cif.g08.bks.cpg/sg71_15_cif.got.tgz:28684.got - 2010.06.03 16:22:01.
