data_PCOD9524175
_publ_section_title
;
Structure prediction by ZEFSAII (Michael W. Deem and Ramdas Pophale) SiO2 
 PCOD9524175
Probable space group: I M M M
;
_chemical_formula_sum "Si O2"
_cell_formula_units_Z 104
_cell_length_a 23.820786
_cell_length_b 8.448802
_cell_length_c 28.451088
_cell_angle_alpha 90.000000
_cell_angle_beta 90.000000
_cell_angle_gamma 90.000000
_cell_volume 5725.983588
_symmetry_space_group_name_H-M "I M M M"
_symmetry_group_IT_number 71
_symmetry_cell_setting 'orthorhombic'
loop_
_space_group_symop_operation_xyz
x,y,z
-x,-y,z
x,-y,-z
-x,y,-z
-x,-y,-z
x,y,-z
-x,y,z
x,-y,z
1/2+x,1/2+y,1/2+z
1/2-x,1/2-y,1/2+z
1/2+x,1/2-y,1/2-z
1/2-x,1/2+y,1/2-z
1/2-x,1/2-y,1/2-z
1/2+x,1/2+y,1/2-z
1/2-x,1/2+y,1/2+z
1/2+x,1/2-y,1/2+z
loop_
_atom_site_type_symbol
_atom_site_label
_atom_site_fract_x
_atom_site_fract_y
_atom_site_fract_z
Si Si1 0.717858 0.311653 0.054504
Si Si2 0.064797 0.178455 0.500000
Si Si3 0.102868 0.684336 0.596123
Si Si4 0.378343 0.309595 0.708327
Si Si5 0.000000 0.193203 0.768729
Si Si6 0.299509 0.189122 0.216652
Si Si7 0.718448 0.309283 0.363490
Si Si8 0.000000 0.809919 0.659013
O O1 0.719585 0.500000 0.053123
O O2 0.663496 0.259628 0.084648
O O3 0.771529 0.251623 0.084084
O O4 0.714280 0.253760 0.000000
O O5 0.076154 0.280900 0.454383
O O6 0.000000 0.148429 0.500000
O O7 0.092800 0.000000 0.500000
O O8 0.110848 0.500000 0.606827
O O9 0.057375 0.752029 0.633250
O O10 0.377288 0.500000 0.706249
O O11 0.442497 0.254373 0.706409
O O12 0.354336 0.261893 0.759668
O O13 0.335581 0.253619 0.667198
O O14 0.000000 0.239713 0.713717
O O15 0.000000 0.000000 0.769125
O O16 0.250000 0.250000 0.250000
O O17 0.274053 0.236184 0.166651
O O18 0.304228 0.000000 0.218008
O O19 0.716339 0.500000 0.364357
O O20 0.000000 0.000000 0.656428
#
# Coordination Sequence:
#
# PCOD9524175 Si02
#       8
#    16   8  16  16   8  16  16   8
#     4  11  24  39  56  78 106 139 180 230 278 329
#     4  11  21  35  55  73  96 134 184 235 274 323
#     4  12  24  37  54  74 102 141 183 230 280 322
#     4   9  18  35  56  81 109 141 179 220 265 322
#     4   9  20  37  58  82 110 144 181 219 267 318
#     4   9  17  30  49  76 106 139 177 219 263 314
#     4   9  19  34  54  79 108 139 176 220 271 326
#     4  11  23  38  54  77 107 146 189 228 265 316
#
# _framework density 18.16282
#
# number of rings (size 3 to 8) (size 9 to 14) (size 15 to 20)
#    0.000    1.923    1.538    3.692    2.154    4.308 
#    0.000    1.154    0.000    0.000    0.000    0.538 
#    0.000    4.308    0.000    0.000    0.000    0.000 
#
# Total GULP energy -289623.819512 kJ/mol
# GULP energy per Si atom -5569.688837 kJ/mol
# Density = 1.812148 g / cm^3
# Si number density = 18.162820 Si / 1000 Ang^3
#
#
#
# Elastic Constant Matrix: (Units=GPa)
#
#
# Indices 1 2 3 4 5 6 
#
# 1 127.2612 16.0678 65.8272 0.0000 0.0000 0.0000
# 2 16.0678 27.3367 20.3947 0.0000 0.0000 0.0000
# 3 65.8272 20.3947 110.4877 0.0000 0.0000 0.0000
# 4 0.0000 0.0000 0.0000 22.7107 0.0000 0.0000
# 5 0.0000 0.0000 0.0000 0.0000 -11.0771 0.0000
# 6 0.0000 0.0000 0.0000 0.0000 0.0000 17.7167
#
#
#
# Elastic Compliance Matrix: (Units=1/GPa)
#
#
# Indices 1 2 3 4 5 6 
#
# 1 0.011443 -0.001901 -0.006466 0.000000 0.000000 0.000000
# 2 -0.001901 0.042739 -0.006756 0.000000 0.000000 0.000000
# 3 -0.006466 -0.006756 0.014151 0.000000 0.000000 0.000000
# 4 0.000000 0.000000 0.000000 0.044032 0.000000 0.000000
# 5 0.000000 0.000000 0.000000 0.000000 -0.090276 0.000000
# 6 0.000000 0.000000 0.000000 0.000000 0.000000 0.056444
#
#
# Mechanical properties :
#
#
# Convention : Reuss Voigt Hill
#
# Bulk Modulus (GPa) = 26.25775 52.18500 39.22137
# Shear Modulus (GPa) = 41.16072 16.72312 28.94192
#
# Velocity S-wave (km/s) = 4.76563 3.03765 3.99616
# Velocity P-wave (km/s) = 6.69104 6.41071 6.55237
#
# Compressibility (1/GPa) = 0.03808400
#
# Stress axis : x y z
#
# Youngs Moduli (GPa) = 87.39131 23.39784 70.66857
#
# Poissons Ratio (x) = 0.04449 0.45698
# Poissons Ratio (y) = 0.16617 0.47746
# Poissons Ratio (z) = 0.56512 0.15808
#
# Static dielectric constant tensor:
#      x y z
#    x 1.661890 0.000000 0.000000 
#    y 0.000000 1.631460 0.000000 
#    z 0.000000 0.000000 1.664220 
# 
# From -- ./inp_files/66899.got.cif
#   From: 2010.05.17/outbox.cif.g08.bks.cpg/sg71_34_cif.got.tgz:66899.got - 2010.06.03 16:22:01.
