data_PCOD9524872
_publ_section_title
;
Structure prediction by ZEFSAII (Michael W. Deem and Ramdas Pophale) SiO2 
 PCOD9524872
Probable space group: I M M M
;
_chemical_formula_sum "Si O2"
_cell_formula_units_Z 40
_cell_length_a 12.000000
_cell_length_b 18.000000
_cell_length_c 21.000000
_cell_angle_alpha 90.000000
_cell_angle_beta 90.000000
_cell_angle_gamma 90.000000
_cell_volume 4536.000000
_symmetry_space_group_name_H-M "I M M M"
_symmetry_group_IT_number 71
_symmetry_cell_setting 'orthorhombic'
loop_
_space_group_symop_operation_xyz
x,y,z
-x,-y,z
x,-y,-z
-x,y,-z
-x,-y,-z
x,y,-z
-x,y,z
x,-y,z
1/2+x,1/2+y,1/2+z
1/2-x,1/2-y,1/2+z
1/2+x,1/2-y,1/2-z
1/2-x,1/2+y,1/2-z
1/2-x,1/2-y,1/2-z
1/2+x,1/2+y,1/2-z
1/2-x,1/2+y,1/2+z
1/2+x,1/2-y,1/2+z
loop_
_atom_site_type_symbol
_atom_site_label
_atom_site_fract_x
_atom_site_fract_y
_atom_site_fract_z
Si Si1 0.375478 0.086361 0.198867
Si Si2 0.000000 0.913754 0.908295
Si Si3 0.220842 0.827013 0.287962
Si Si4 0.364585 0.287921 0.072516
Si Si5 0.000000 0.086554 0.243564
Si Si6 0.751974 0.373989 0.430679
O O1 0.500000 0.117238 0.185988
O O2 0.320964 0.123103 0.260835
O O3 0.299964 0.093068 0.135110
O O4 0.383949 0.000000 0.211872
O O5 0.000000 0.916079 0.832310
O O6 0.116967 0.875637 0.927484
O O7 0.000000 0.000000 0.930108
O O8 0.250000 0.750000 0.250000
O O9 0.197845 0.819684 0.364077
O O10 0.108567 0.867388 0.263999
O O11 0.500000 0.286164 0.083220
O O12 0.310149 0.206352 0.068639
O O13 0.348755 0.320595 0.000000
O O14 0.000000 0.000000 0.266687
O O15 0.781286 0.409030 0.500000
#
# Coordination Sequence:
#
# PCOD9524872 Si02
#       6
#    16   8  16  16   8  16
#     4  11  24  40  59  86 120 155 200 248 294 354
#     4  11  21  36  53  79 118 159 201 240 288 354
#     4  12  22  37  65  90 119 155 203 244 298 363
#     4  10  21  39  62  89 119 152 193 247 302 356
#     4  11  22  37  61  91 122 156 198 256 314 359
#     4  11  22  36  55  81 119 160 198 242 295 355
#
# _framework density 8.8183419999999995
#
# number of rings (size 3 to 8) (size 9 to 14) (size 15 to 20)
#    0.000    1.000    5.000    2.100    1.400    3.200 
#    1.800    1.000    0.000    3.000    0.000    1.400 
#    0.000    0.000    0.000    0.000    0.000    0.000 
#
# Total GULP energy -222673.482042 kJ/mol
# GULP energy per Si atom -5566.837051 kJ/mol
# Density = 0.879827 g / cm^3
# Si number density = 8.818342 Si / 1000 Ang^3
#
#
#
# Elastic Constant Matrix: (Units=GPa)
#
#
# Indices 1 2 3 4 5 6 
#
# 1 129.8230 31.2691 49.3313 0.0000 0.0000 0.0000
# 2 31.2691 59.4001 43.6857 0.0000 0.0000 0.0000
# 3 49.3313 43.6857 169.7657 0.0000 0.0000 0.0000
# 4 0.0000 0.0000 0.0000 -12.2406 0.0000 0.0000
# 5 0.0000 0.0000 0.0000 0.0000 27.7813 0.0000
# 6 0.0000 0.0000 0.0000 0.0000 0.0000 23.6657
#
#
#
# Elastic Compliance Matrix: (Units=1/GPa)
#
#
# Indices 1 2 3 4 5 6 
#
# 1 0.009232 -0.003561 -0.001766 0.000000 0.000000 0.000000
# 2 -0.003561 0.022138 -0.004662 0.000000 0.000000 0.000000
# 3 -0.001766 -0.004662 0.007603 0.000000 0.000000 0.000000
# 4 0.000000 0.000000 0.000000 -0.081696 0.000000 0.000000
# 5 0.000000 0.000000 0.000000 0.000000 0.035995 0.000000
# 6 0.000000 0.000000 0.000000 0.000000 0.000000 0.042255
#
#
# Mechanical properties :
#
#
# Convention : Reuss Voigt Hill
#
# Bulk Modulus (GPa) = 52.64536 67.50677 60.07607
# Shear Modulus (GPa) = 80.85648 23.48813 52.17231
#
# Velocity S-wave (km/s) = 6.77829 3.65331 5.44481
# Velocity P-wave (km/s) = 9.54856 7.49366 8.58283
#
# Compressibility (1/GPa) = 0.01899503
#
# Stress axis : x y z
#
# Youngs Moduli (GPa) = 108.32385 45.17098 131.51948
#
# Poissons Ratio (x) = 0.16084 0.23230
# Poissons Ratio (y) = 0.38570 0.61316
# Poissons Ratio (z) = 0.19133 0.21059
#
# Static dielectric constant tensor:
#      x y z
#    x 1.620330 0.000000 0.000000 
#    y 0.000000 1.627230 0.000000 
#    z 0.000000 0.000000 1.643250 
# 
# From -- ./inp_files/23814.got.cif
#   From: 2010.05.17/outbox.ucp.g08.bks.cvg/sg71_12_cif.got.tgz:23814.got - 2010.06.11 16:29:00.
