data_PCOD9524052
_publ_section_title
;
Structure prediction by ZEFSAII (Michael W. Deem and Ramdas Pophale) SiO2 
 PCOD9524052
Probable space group: I M M M
;
_chemical_formula_sum "Si O2"
_cell_formula_units_Z 96
_cell_length_a 11.954670
_cell_length_b 16.560969
_cell_length_c 28.253716
_cell_angle_alpha 90.000000
_cell_angle_beta 90.000000
_cell_angle_gamma 90.000000
_cell_volume 5593.696667
_symmetry_space_group_name_H-M "I M M M"
_symmetry_group_IT_number 71
_symmetry_cell_setting 'orthorhombic'
loop_
_space_group_symop_operation_xyz
x,y,z
-x,-y,z
x,-y,-z
-x,y,-z
-x,-y,-z
x,y,-z
-x,y,z
x,-y,z
1/2+x,1/2+y,1/2+z
1/2-x,1/2-y,1/2+z
1/2+x,1/2-y,1/2-z
1/2-x,1/2+y,1/2-z
1/2-x,1/2-y,1/2-z
1/2+x,1/2+y,1/2-z
1/2-x,1/2+y,1/2+z
1/2+x,1/2-y,1/2+z
loop_
_atom_site_type_symbol
_atom_site_label
_atom_site_fract_x
_atom_site_fract_y
_atom_site_fract_z
Si Si1 0.366897 0.761747 0.446046
Si Si2 0.000000 0.095950 0.764258
Si Si3 0.737152 0.672510 0.857598
Si Si4 0.132008 0.910775 0.902213
Si Si5 0.125308 0.404599 0.776069
Si Si6 0.272615 0.345454 0.690588
Si Si7 0.000000 0.094440 0.650335
O O1 0.335991 0.780301 0.500000
O O2 0.500000 0.775457 0.440254
O O3 0.300281 0.811842 0.406859
O O4 0.347926 0.666257 0.435435
O O5 0.890879 0.142241 0.782883
O O6 0.000000 0.095993 0.707597
O O7 0.000000 0.000000 0.778910
O O8 0.801717 0.612423 0.822478
O O9 0.745821 0.756993 0.829074
O O10 0.612255 0.640424 0.865211
O O11 0.209663 0.900097 0.856140
O O12 0.000000 0.905205 0.887681
O O13 0.147783 0.000000 0.923168
O O14 0.121203 0.500000 0.769005
O O15 0.180908 0.368792 0.729068
O O16 0.000000 0.372246 0.783056
O O17 0.000000 0.000000 0.635890
#
# Coordination Sequence:
#
# PCOD9524052 Si02
#       7
#    16   8  16  16  16  16   8
#     4   9  19  36  56  81 110 141 178 224 282 338
#     4  11  20  32  54  81 115 157 190 219 261 310
#     4  11  23  36  58  80 107 140 185 229 277 329
#     4   9  16  27  48  79 113 147 182 219 259 308
#     4  11  23  35  50  75 112 150 182 221 268 320
#     4  11  21  31  52  79 117 151 189 221 257 313
#     4  11  24  40  59  82 107 142 185 233 282 330
#
# _framework density 17.162174
#
# number of rings (size 3 to 8) (size 9 to 14) (size 15 to 20)
#    0.000    1.667    2.500    3.000    3.500    0.333 
#    0.000    2.083    0.000    2.500    0.000    5.833 
#    0.000    3.000    0.000    0.000    0.000    0.000 
#
# Total GULP energy -267799.781720 kJ/mol
# GULP energy per Si atom -5579.162119 kJ/mol
# Density = 1.712311 g / cm^3
# Si number density = 17.162174 Si / 1000 Ang^3
#
#
#
# Elastic Constant Matrix: (Units=GPa)
#
#
# Indices 1 2 3 4 5 6 
#
# 1 103.3208 27.3349 46.6110 0.0000 0.0000 0.0000
# 2 27.3349 54.1718 27.8925 0.0000 0.0000 0.0000
# 3 46.6110 27.8925 109.3028 0.0000 0.0000 0.0000
# 4 0.0000 0.0000 0.0000 5.7658 0.0000 0.0000
# 5 0.0000 0.0000 0.0000 0.0000 17.6797 0.0000
# 6 0.0000 0.0000 0.0000 0.0000 0.0000 19.3523
#
#
#
# Elastic Compliance Matrix: (Units=1/GPa)
#
#
# Indices 1 2 3 4 5 6 
#
# 1 0.012759 -0.004187 -0.004372 0.000000 0.000000 0.000000
# 2 -0.004187 0.022626 -0.003988 0.000000 0.000000 0.000000
# 3 -0.004372 -0.003988 0.012031 0.000000 0.000000 0.000000
# 4 0.000000 0.000000 0.000000 0.173436 0.000000 0.000000
# 5 0.000000 0.000000 0.000000 0.000000 0.056562 0.000000
# 6 0.000000 0.000000 0.000000 0.000000 0.000000 0.051673
#
#
# Mechanical properties :
#
#
# Convention : Reuss Voigt Hill
#
# Bulk Modulus (GPa) = 44.80120 52.27469 48.53795
# Shear Modulus (GPa) = 13.82657 19.55670 16.69164
#
# Velocity S-wave (km/s) = 2.84146 3.37935 3.12201
# Velocity P-wave (km/s) = 6.07672 6.76402 6.42956
#
# Compressibility (1/GPa) = 0.02232083
#
# Stress axis : x y z
#
# Youngs Moduli (GPa) = 78.37735 44.19697 83.11667
#
# Poissons Ratio (x) = 0.18504 0.36343
# Poissons Ratio (y) = 0.32814 0.33151
# Poissons Ratio (z) = 0.34270 0.17628
#
# Static dielectric constant tensor:
#      x y z
#    x 1.580240 0.000000 0.000000 
#    y 0.000000 1.546510 0.000000 
#    z 0.000000 0.000000 1.564780 
# 
# From -- ./inp_files/69264.got.cif
#   From: 2010.05.17/outbox.cif.g08.bks.cpg/sg71_35_cif.got.tgz:69264.got - 2010.06.03 16:22:01.
