data_PCOD9524262
_publ_section_title
;
Structure prediction by ZEFSAII (Michael W. Deem and Ramdas Pophale) SiO2 
 PCOD9524262
Probable space group: I M M M
;
_chemical_formula_sum "Si O2"
_cell_formula_units_Z 88
_cell_length_a 17.681269
_cell_length_b 22.984426
_cell_length_c 12.204046
_cell_angle_alpha 90.000000
_cell_angle_beta 90.000000
_cell_angle_gamma 90.000000
_cell_volume 4959.648860
_symmetry_space_group_name_H-M "I M M M"
_symmetry_group_IT_number 71
_symmetry_cell_setting 'orthorhombic'
loop_
_space_group_symop_operation_xyz
x,y,z
-x,-y,z
x,-y,-z
-x,y,-z
-x,-y,-z
x,y,-z
-x,y,z
x,-y,z
1/2+x,1/2+y,1/2+z
1/2-x,1/2-y,1/2+z
1/2+x,1/2-y,1/2-z
1/2-x,1/2+y,1/2-z
1/2-x,1/2-y,1/2-z
1/2+x,1/2+y,1/2-z
1/2-x,1/2+y,1/2+z
1/2+x,1/2-y,1/2+z
loop_
_atom_site_type_symbol
_atom_site_label
_atom_site_fract_x
_atom_site_fract_y
_atom_site_fract_z
Si Si1 0.091170 0.929729 0.000000
Si Si2 0.326638 0.929972 0.723144
Si Si3 0.154485 0.894187 0.236637
Si Si4 0.590629 0.843915 0.124078
Si Si5 0.910204 0.000000 0.623592
Si Si6 0.591291 0.712796 0.130214
Si Si7 0.087637 0.570243 0.000000
O O1 0.127790 0.903375 0.110942
O O2 0.000000 0.920256 0.000000
O O3 0.103459 0.000000 0.000000
O O4 0.243161 0.905687 0.745675
O O5 0.379780 0.897932 0.809019
O O6 0.363367 0.914060 0.606199
O O7 0.325205 0.000000 0.732743
O O8 0.129881 0.833386 0.290235
O O9 0.114466 0.943842 0.309262
O O10 0.500000 0.844174 0.124106
O O11 0.612971 0.778950 0.161795
O O12 0.617924 0.849299 0.000000
O O13 0.877790 0.000000 0.500000
O O14 0.000000 0.000000 0.615769
O O15 0.500000 0.707093 0.138844
O O16 0.609193 0.703844 0.000000
O O17 0.082240 0.500000 0.000000
O O18 0.000000 0.591912 0.000000
#
# Coordination Sequence:
#
# PCOD9524262 Si02
#       7
#     8  16  16  16   8  16   8
#     4  11  22  38  55  77 122 173 208 238 293 363
#     4  11  23  37  59  89 122 156 198 253 301 362
#     4  12  23  36  58  85 122 160 200 247 301 355
#     4   9  20  40  64  87 115 153 198 250 306 361
#     4  11  22  35  57  87 117 153 203 251 292 352
#     4   9  19  38  63  88 116 153 199 250 302 359
#     4   9  20  38  59  83 117 158 192 235 309 373
#
# _framework density 17.743193000000002
#
# number of rings (size 3 to 8) (size 9 to 14) (size 15 to 20)
#    0.000    1.727    1.818    3.818    3.818    3.636 
#    0.000    1.818    0.000    3.273    0.000    0.000 
#    0.000    0.000    0.000    0.000    0.000    0.000 
#
# Total GULP energy -245450.020238 kJ/mol
# GULP energy per Si atom -5578.409551 kJ/mol
# Density = 1.770281 g / cm^3
# Si number density = 17.743193 Si / 1000 Ang^3
#
#
#
# Elastic Constant Matrix: (Units=GPa)
#
#
# Indices 1 2 3 4 5 6 
#
# 1 67.4354 25.6684 49.1609 0.0000 0.0000 0.0000
# 2 25.6684 41.1049 37.4212 0.0000 0.0000 0.0000
# 3 49.1609 37.4212 116.2726 0.0000 0.0000 0.0000
# 4 0.0000 0.0000 0.0000 25.2273 0.0000 0.0000
# 5 0.0000 0.0000 0.0000 0.0000 19.2575 0.0000
# 6 0.0000 0.0000 0.0000 0.0000 0.0000 30.3425
#
#
#
# Elastic Compliance Matrix: (Units=1/GPa)
#
#
# Indices 1 2 3 4 5 6 
#
# 1 0.023087 -0.007822 -0.007244 0.000000 0.000000 0.000000
# 2 -0.007822 0.037061 -0.008620 0.000000 0.000000 0.000000
# 3 -0.007244 -0.008620 0.014438 0.000000 0.000000 0.000000
# 4 0.000000 0.000000 0.000000 0.039640 0.000000 0.000000
# 5 0.000000 0.000000 0.000000 0.000000 0.051928 0.000000
# 6 0.000000 0.000000 0.000000 0.000000 0.000000 0.032957
#
#
# Mechanical properties :
#
#
# Convention : Reuss Voigt Hill
#
# Bulk Modulus (GPa) = 36.74796 49.92378 43.33587
# Shear Modulus (GPa) = 19.56534 22.46962 21.01748
#
# Velocity S-wave (km/s) = 3.32429 3.56248 3.44545
# Velocity P-wave (km/s) = 5.95739 6.71712 6.34863
#
# Compressibility (1/GPa) = 0.02721239
#
# Stress axis : x y z
#
# Youngs Moduli (GPa) = 43.31372 26.98289 69.26353
#
# Poissons Ratio (x) = 0.21107 0.50174
# Poissons Ratio (y) = 0.33882 0.59707
# Poissons Ratio (z) = 0.31376 0.23260
#
# Static dielectric constant tensor:
#      x y z
#    x 1.536380 0.000000 0.000000 
#    y 0.000000 1.584700 0.000000 
#    z 0.000000 0.000000 1.619950 
# 
# From -- ./inp_files/24008.got.cif
#   From: 2010.05.17/outbox.cif.g08.bks.cpg/sg71_13_cif.got.tgz:24008.got - 2010.06.03 16:22:01.
