data_PCOD9524461
_publ_section_title
;
Structure prediction by ZEFSAII (Michael W. Deem and Ramdas Pophale) SiO2 
 PCOD9524461
Probable space group: I M M M
;
_chemical_formula_sum "Si O2"
_cell_formula_units_Z 64
_cell_length_a 12.960959
_cell_length_b 16.124123
_cell_length_c 14.492535
_cell_angle_alpha 90.000000
_cell_angle_beta 90.000000
_cell_angle_gamma 90.000000
_cell_volume 3028.709342
_symmetry_space_group_name_H-M "I M M M"
_symmetry_group_IT_number 71
_symmetry_cell_setting 'orthorhombic'
loop_
_space_group_symop_operation_xyz
x,y,z
-x,-y,z
x,-y,-z
-x,y,-z
-x,-y,-z
x,y,-z
-x,y,z
x,-y,z
1/2+x,1/2+y,1/2+z
1/2-x,1/2-y,1/2+z
1/2+x,1/2-y,1/2-z
1/2-x,1/2+y,1/2-z
1/2-x,1/2-y,1/2-z
1/2+x,1/2+y,1/2-z
1/2-x,1/2+y,1/2+z
1/2+x,1/2-y,1/2+z
loop_
_atom_site_type_symbol
_atom_site_label
_atom_site_fract_x
_atom_site_fract_y
_atom_site_fract_z
Si Si1 0.500000 0.601797 0.888219
Si Si2 0.000000 0.405819 0.612286
Si Si3 0.888784 0.599187 0.105258
Si Si4 0.725929 0.099349 0.103267
Si Si5 0.300586 0.662420 0.778453
O O1 0.500000 0.500000 0.872964
O O2 0.401369 0.646027 0.840154
O O3 0.500000 0.613543 0.000000
O O4 0.888255 0.368134 0.634093
O O5 0.000000 0.500000 0.650711
O O6 0.000000 0.410986 0.500000
O O7 0.893621 0.500000 0.101290
O O8 0.791628 0.620685 0.165020
O O9 0.000000 0.629244 0.142171
O O10 0.877471 0.629687 0.000000
O O11 0.810776 0.119507 0.178628
O O12 0.714451 0.000000 0.098338
O O13 0.747599 0.130425 0.000000
O O14 0.250000 0.750000 0.750000
#
# Coordination Sequence:
#
# PCOD9524461 Si02
#       5
#     8   8  16  16  16
#     4  11  26  51  78 100 134 193 255 299 340 415
#     4   7  12  25  49  81 113 147 190 245 304 362
#     4   9  19  38  66  96 125 164 220 287 349 403
#     4   9  18  34  56  85 123 168 218 268 326 405
#     4  12  26  39  64  97 140 176 226 282 352 416
#
# _framework density 21.131112999999999
#
# number of rings (size 3 to 8) (size 9 to 14) (size 15 to 20)
#    0.000    2.250    0.000    5.250    3.500    4.000 
#    0.000    1.875    0.000    2.250    0.000    0.000 
#    0.000    0.000    0.000    0.000    0.000    0.000 
#
# Total GULP energy -178311.718621 kJ/mol
# GULP energy per Si atom -5572.241207 kJ/mol
# Density = 2.108302 g / cm^3
# Si number density = 21.131113 Si / 1000 Ang^3
#
#
#
# Elastic Constant Matrix: (Units=GPa)
#
#
# Indices 1 2 3 4 5 6 
#
# 1 131.8816 28.5464 88.6542 0.0000 0.0000 0.0000
# 2 28.5464 57.1212 29.4539 0.0000 0.0000 0.0000
# 3 88.6542 29.4539 134.4970 0.0000 0.0000 0.0000
# 4 0.0000 0.0000 0.0000 53.3542 0.0000 0.0000
# 5 0.0000 0.0000 0.0000 0.0000 28.4706 0.0000
# 6 0.0000 0.0000 0.0000 0.0000 0.0000 13.5747
#
#
#
# Elastic Compliance Matrix: (Units=1/GPa)
#
#
# Indices 1 2 3 4 5 6 
#
# 1 0.013928 -0.002510 -0.008631 0.000000 0.000000 0.000000
# 2 -0.002510 0.020188 -0.002766 0.000000 0.000000 0.000000
# 3 -0.008631 -0.002766 0.013730 0.000000 0.000000 0.000000
# 4 0.000000 0.000000 0.000000 0.018743 0.000000 0.000000
# 5 0.000000 0.000000 0.000000 0.000000 0.035124 0.000000
# 6 0.000000 0.000000 0.000000 0.000000 0.000000 0.073666
#
#
# Mechanical properties :
#
#
# Convention : Reuss Voigt Hill
#
# Bulk Modulus (GPa) = 49.92351 68.53432 59.22892
# Shear Modulus (GPa) = 23.82431 30.86958 27.34695
#
# Velocity S-wave (km/s) = 3.36140 3.82627 3.60134
# Velocity P-wave (km/s) = 6.22432 7.21275 6.73669
#
# Compressibility (1/GPa) = 0.02003064
#
# Stress axis : x y z
#
# Youngs Moduli (GPa) = 71.79911 49.53560 72.83319
#
# Poissons Ratio (x) = 0.12433 0.62861
# Poissons Ratio (y) = 0.18022 0.20149
# Poissons Ratio (z) = 0.61969 0.13704
#
# Static dielectric constant tensor:
#      x y z
#    x 1.786990 0.000000 0.000000 
#    y 0.000000 1.808590 0.000000 
#    z 0.000000 0.000000 1.854240 
# 
# From -- ./inp_files/32291.got.cif
#   From: 2010.05.17/outbox.cif.g08.bks.cpg/sg71_17_cif.got.tgz:32291.got - 2010.06.03 16:22:01.
