data_PCOD9524222
_publ_section_title
;
Structure prediction by ZEFSAII (Michael W. Deem and Ramdas Pophale) SiO2 
 PCOD9524222
Probable space group: I M M M
;
_chemical_formula_sum "Si O2"
_cell_formula_units_Z 52
_cell_length_a 7.636233
_cell_length_b 26.763638
_cell_length_c 12.249528
_cell_angle_alpha 90.000000
_cell_angle_beta 90.000000
_cell_angle_gamma 90.000000
_cell_volume 2503.477388
_symmetry_space_group_name_H-M "I M M M"
_symmetry_group_IT_number 71
_symmetry_cell_setting 'orthorhombic'
loop_
_space_group_symop_operation_xyz
x,y,z
-x,-y,z
x,-y,-z
-x,y,-z
-x,-y,-z
x,y,-z
-x,y,z
x,-y,z
1/2+x,1/2+y,1/2+z
1/2-x,1/2-y,1/2+z
1/2+x,1/2-y,1/2-z
1/2-x,1/2+y,1/2-z
1/2-x,1/2-y,1/2-z
1/2+x,1/2+y,1/2-z
1/2-x,1/2+y,1/2+z
1/2+x,1/2-y,1/2+z
loop_
_atom_site_type_symbol
_atom_site_label
_atom_site_fract_x
_atom_site_fract_y
_atom_site_fract_z
Si Si1 0.710061 0.441736 0.000000
Si Si2 0.000000 0.692269 0.000000
Si Si3 0.295465 0.096712 0.260360
Si Si4 0.714247 0.000000 0.873211
Si Si5 0.698449 0.700658 0.815847
O O1 0.777974 0.417489 0.111380
O O2 0.759687 0.500000 0.000000
O O3 0.500000 0.437672 0.000000
O O4 0.153917 0.693382 0.093849
O O5 0.500000 0.102315 0.234352
O O6 0.205806 0.149963 0.243869
O O7 0.226787 0.049764 0.190690
O O8 0.500000 0.000000 0.868571
O O9 0.765086 0.000000 0.000000
O O10 0.500000 0.705392 0.858232
O O11 0.750000 0.750000 0.750000
#
# Coordination Sequence:
#
# PCOD9524222 Si02
#       5
#     8   4  16   8  16
#     4  11  22  35  57  93 132 170 218 274 346 410
#     4  12  24  48  76 105 142 183 238 286 368 410
#     4  11  21  39  65  96 134 176 228 285 345 413
#     4   9  20  39  63  94 134 185 235 283 340 414
#     4  12  25  47  72 103 143 185 233 293 354 424
#
# _framework density 20.771108000000002
#
# number of rings (size 3 to 8) (size 9 to 14) (size 15 to 20)
#    0.000    0.923    4.615    2.769    0.000    0.615 
#    2.769    0.000    0.000    6.462    0.000    0.000 
#    0.000    0.000    0.000    0.000    0.000    0.000 
#
# Total GULP energy -144827.633824 kJ/mol
# GULP energy per Si atom -5570.293609 kJ/mol
# Density = 2.072383 g / cm^3
# Si number density = 20.771108 Si / 1000 Ang^3
#
#
#
# Elastic Constant Matrix: (Units=GPa)
#
#
# Indices 1 2 3 4 5 6 
#
# 1 161.5265 35.4877 21.9907 -0.0001 0.0000 0.0000
# 2 35.4877 193.8940 72.6834 0.0000 0.0000 0.0000
# 3 21.9907 72.6834 112.4540 -0.0007 -0.0001 0.0000
# 4 -0.0001 0.0000 -0.0007 -4.3165 0.0000 0.0000
# 5 0.0000 0.0000 -0.0001 0.0000 50.6813 0.0000
# 6 0.0000 0.0000 0.0000 0.0000 0.0000 26.1194
#
#
#
# Elastic Compliance Matrix: (Units=1/GPa)
#
#
# Indices 1 2 3 4 5 6 
#
# 1 0.006487 -0.000939 -0.000661 0.000000 0.000000 0.000000
# 2 -0.000939 0.006943 -0.004304 0.000001 0.000000 0.000000
# 3 -0.000661 -0.004304 0.011803 -0.000002 0.000000 0.000000
# 4 0.000000 0.000001 -0.000002 -0.231669 0.000000 0.000000
# 5 0.000000 0.000000 0.000000 0.000000 0.019731 0.000000
# 6 0.000000 0.000000 0.000000 0.000000 0.000000 0.038286
#
#
# Mechanical properties :
#
#
# Convention : Reuss Voigt Hill
#
# Bulk Modulus (GPa) = 74.49028 80.91089 77.70059
# Shear Modulus (GPa) = -37.84021 37.01101 -0.41460
#
# Velocity S-wave (km/s) = -4.27285 4.22578 -0.44726
# Velocity P-wave (km/s) = 3.40548 7.92766 6.10103
#
# Compressibility (1/GPa) = 0.01342457
#
# Stress axis : x y z
#
# Youngs Moduli (GPa) = 154.14551 144.03734 84.72099
#
# Poissons Ratio (x) = 0.13531 0.05604
# Poissons Ratio (y) = 0.14481 0.36460
# Poissons Ratio (z) = 0.10196 0.61988
#
# Static dielectric constant tensor:
#      x y z
#    x 1.760620 0.000000 0.000000 
#    y 0.000000 1.784110 0.000000 
#    z 0.000000 0.000000 1.697100 
# 
# From -- ./inp_files/18214.got.cif
#   From: 2010.05.17/outbox.cif.g08.bks.cpg/sg71_10_cif.got.tgz:18214.got - 2010.06.03 16:22:01.
