data_PCOD9524995
_publ_section_title
;
Structure prediction by ZEFSAII (Michael W. Deem and Ramdas Pophale) SiO2 
 PCOD9524995
Probable space group: I B A M
;
_chemical_formula_sum "Si O2"
_cell_formula_units_Z 96
_cell_length_a 5.558897
_cell_length_b 39.766457
_cell_length_c 18.643910
_cell_angle_alpha 90.000000
_cell_angle_beta 90.000000
_cell_angle_gamma 90.000000
_cell_volume 4121.378717
_symmetry_space_group_name_H-M "I B A M"
_symmetry_group_IT_number 72
_symmetry_cell_setting 'orthorhombic'
loop_
_space_group_symop_operation_xyz
x,y,z
-x,-y,z
x,-y,1/2-z
-x,y,1/2-z
-x,-y,-z
x,y,-z
-x,y,1/2+z
x,-y,1/2+z
1/2+x,1/2+y,1/2+z
1/2-x,1/2-y,1/2+z
1/2+x,1/2-y,-z
1/2-x,1/2+y,-z
1/2-x,1/2-y,1/2-z
1/2+x,1/2+y,1/2-z
1/2-x,1/2+y,z
1/2+x,1/2-y,z
loop_
_atom_site_type_symbol
_atom_site_label
_atom_site_fract_x
_atom_site_fract_y
_atom_site_fract_z
Si Si1 0.017753 0.863101 0.331606
Si Si2 0.635632 0.085603 0.000000
Si Si3 0.906407 0.536390 0.136959
Si Si4 0.021681 0.661450 0.666536
Si Si5 0.099188 0.941908 0.344033
Si Si6 0.362954 0.418507 0.500000
Si Si7 0.800801 0.738045 0.167863
O O1 0.258085 0.846600 0.364350
O O2 0.056508 0.902882 0.327066
O O3 0.000000 0.848817 0.250000
O O4 0.754942 0.857100 0.365024
O O5 0.627603 0.061902 0.070404
O O6 0.378505 0.103173 0.000000
O O7 0.893670 0.102705 0.000000
O O8 0.641237 0.537126 0.172691
O O9 0.000000 0.500000 0.112516
O O10 0.136511 0.548554 0.182527
O O11 0.096290 0.700375 0.666272
O O12 0.000000 0.649993 0.750000
O O13 0.130072 0.942014 0.430493
O O14 0.750000 0.750000 0.250000
O O15 0.528372 0.740772 0.136719
#
# Coordination Sequence:
#
# PCOD9524995 Si02
#       7
#    16   8  16  16  16   8  16
#     4  10  21  32  47  62  88 127 160 189 211 258
#     4   8  15  26  42  70  94 110 130 169 235 300
#     4  10  18  29  48  68  90 112 142 188 239 290
#     4  10  18  29  43  65  89 121 164 176 212 258
#     4  10  19  33  47  67  91 116 151 185 233 275
#     4   8  16  28  47  66  88 116 140 181 227 276
#     4  10  17  24  41  63  92 122 148 175 217 264
#
# _framework density 23.293175000000002
#
# number of rings (size 3 to 8) (size 9 to 14) (size 15 to 20)
#    0.000    2.333    1.667    2.750    4.667    0.000 
#    0.000    5.000    0.000    3.000    0.000    0.000 
#    0.000    0.000    0.000   15.000    0.000    0.000 
#
# Total GULP energy -267430.063163 kJ/mol
# GULP energy per Si atom -5571.459649 kJ/mol
# Density = 2.324016 g / cm^3
# Si number density = 23.293175 Si / 1000 Ang^3
#
#
#
# Elastic Constant Matrix: (Units=GPa)
#
#
# Indices 1 2 3 4 5 6 
#
# 1 311.0097 39.1555 17.9300 0.0000 0.0000 0.0000
# 2 39.1555 73.4130 -0.7608 0.0000 0.0000 0.0000
# 3 17.9300 -0.7608 57.0899 0.0000 0.0000 0.0000
# 4 0.0000 0.0000 0.0000 3.3292 0.0000 0.0000
# 5 0.0000 0.0000 0.0000 0.0000 16.1704 0.0000
# 6 0.0000 0.0000 0.0000 0.0000 0.0000 39.2565
#
#
#
# Elastic Compliance Matrix: (Units=1/GPa)
#
#
# Indices 1 2 3 4 5 6 
#
# 1 0.003518 -0.001888 -0.001130 0.000000 0.000000 0.000000
# 2 -0.001888 0.014637 0.000788 0.000000 0.000000 0.000000
# 3 -0.001130 0.000788 0.017882 0.000000 0.000000 0.000000
# 4 0.000000 0.000000 0.000000 0.300375 0.000000 0.000000
# 5 0.000000 0.000000 0.000000 0.000000 0.061842 0.000000
# 6 0.000000 0.000000 0.000000 0.000000 0.000000 0.025474
#
#
# Mechanical properties :
#
#
# Convention : Reuss Voigt Hill
#
# Bulk Modulus (GPa) = 31.66937 61.57355 46.62146
# Shear Modulus (GPa) = 11.39698 37.43038 24.41368
#
# Velocity S-wave (km/s) = 2.21438 4.01300 3.24096
# Velocity P-wave (km/s) = 4.49037 6.92558 5.83640
#
# Compressibility (1/GPa) = 0.03157625
#
# Stress axis : x y z
#
# Youngs Moduli (GPa) = 284.23587 68.32086 55.92316
#
# Poissons Ratio (x) = 0.12900 0.06320
# Poissons Ratio (y) = 0.53669 -0.04407
# Poissons Ratio (z) = 0.32122 -0.05384
#
# Static dielectric constant tensor:
#      x y z
#    x 2.148080 0.000000 0.000000 
#    y 0.000000 1.852310 0.000000 
#    z 0.000000 0.000000 1.911900 
# 
# From -- ./inp_files/50419.got.cif
#   From: 2010.05.17/outbox.cif.g08.bks.cpg/sg72_26_cif.got.tgz:50419.got - 2010.06.03 17:03:01.
