data_PCOD9524973
_publ_section_title
;
Structure prediction by ZEFSAII (Michael W. Deem and Ramdas Pophale) SiO2 
 PCOD9524973
Probable space group: I B A M
;
_chemical_formula_sum "Si O2"
_cell_formula_units_Z 72
_cell_length_a 22.921523
_cell_length_b 7.837231
_cell_length_c 17.639480
_cell_angle_alpha 90.000000
_cell_angle_beta 90.000000
_cell_angle_gamma 90.000000
_cell_volume 3168.778600
_symmetry_space_group_name_H-M "I B A M"
_symmetry_group_IT_number 72
_symmetry_cell_setting 'orthorhombic'
loop_
_space_group_symop_operation_xyz
x,y,z
-x,-y,z
x,-y,1/2-z
-x,y,1/2-z
-x,-y,-z
x,y,-z
-x,y,1/2+z
x,-y,1/2+z
1/2+x,1/2+y,1/2+z
1/2-x,1/2-y,1/2+z
1/2+x,1/2-y,-z
1/2-x,1/2+y,-z
1/2-x,1/2-y,1/2-z
1/2+x,1/2+y,1/2-z
1/2-x,1/2+y,z
1/2+x,1/2-y,z
loop_
_atom_site_type_symbol
_atom_site_label
_atom_site_fract_x
_atom_site_fract_y
_atom_site_fract_z
Si Si1 0.593683 0.920570 0.631823
Si Si2 0.803160 0.683681 0.658763
Si Si3 0.061856 0.342079 0.500000
Si Si4 0.500000 0.500000 0.500000
Si Si5 0.500000 0.000000 0.250000
Si Si6 0.310488 0.671895 0.500000
Si Si7 0.702621 0.500000 0.750000
Si Si8 0.375152 0.340345 0.500000
O O1 0.649026 0.033546 0.658374
O O2 0.560460 0.044849 0.574262
O O3 0.545862 0.889711 0.698277
O O4 0.618597 0.770630 0.577382
O O5 0.784367 0.759639 0.577721
O O6 0.745618 0.604611 0.695270
O O7 0.828825 0.848760 0.704128
O O8 0.126775 0.265322 0.500000
O O9 0.011632 0.205313 0.500000
O O10 0.430375 0.465242 0.500000
O O11 0.320524 0.469251 0.500000
#
# Coordination Sequence:
#
# PCOD9524973 Si02
#       8
#    16  16   8   4   4   8   8   8
#     4  10  21  38  58  87 124 162 209 255 308 373
#     4  10  22  42  64  92 126 164 214 264 319 387
#     4   8  17  35  54  75 111 153 197 254 303 350
#     4  10  16  30  56  84 110 152 206 242 296 366
#     4  12  22  30  56  90 120 162 202 246 304 372
#     4   9  20  37  63  91 115 155 214 267 306 364
#     4  10  23  42  66  90 128 174 201 258 342 386
#     4  10  21  37  63  87 123 171 210 268 319 354
#
# _framework density 22.721689000000001
#
# number of rings (size 3 to 8) (size 9 to 14) (size 15 to 20)
#    0.000    2.222    0.000    2.667    0.000    8.000 
#    0.000    2.222    0.000   24.667    0.000    0.000 
#    0.000    0.000    0.000    0.000    0.000    0.000 
#
# Total GULP energy -200422.449240 kJ/mol
# GULP energy per Si atom -5567.290257 kJ/mol
# Density = 2.266997 g / cm^3
# Si number density = 22.721689 Si / 1000 Ang^3
#
#
#
# Elastic Constant Matrix: (Units=GPa)
#
#
# Indices 1 2 3 4 5 6 
#
# 1 45.6563 25.3353 23.9092 0.0000 0.0000 0.0000
# 2 25.3353 118.1930 50.8062 0.0000 0.0000 0.0000
# 3 23.9092 50.8062 126.7768 0.0000 0.0000 0.0000
# 4 0.0000 0.0000 0.0000 16.6860 0.0000 0.0000
# 5 0.0000 0.0000 0.0000 0.0000 11.7245 0.0000
# 6 0.0000 0.0000 0.0000 0.0000 0.0000 33.1309
#
#
#
# Elastic Compliance Matrix: (Units=1/GPa)
#
#
# Indices 1 2 3 4 5 6 
#
# 1 0.025900 -0.004171 -0.003213 0.000000 0.000000 0.000000
# 2 -0.004171 0.010893 -0.003579 0.000000 0.000000 0.000000
# 3 -0.003213 -0.003579 0.009928 0.000000 0.000000 0.000000
# 4 0.000000 0.000000 0.000000 0.059931 0.000000 0.000000
# 5 0.000000 0.000000 0.000000 0.000000 0.085292 0.000000
# 6 0.000000 0.000000 0.000000 0.000000 0.000000 0.030183
#
#
# Mechanical properties :
#
#
# Convention : Reuss Voigt Hill
#
# Bulk Modulus (GPa) = 40.32949 54.52528 47.42738
# Shear Modulus (GPa) = 19.81634 25.01330 22.41482
#
# Velocity S-wave (km/s) = 2.95639 3.32151 3.14426
# Velocity P-wave (km/s) = 5.42601 6.22568 5.83955
#
# Compressibility (1/GPa) = 0.02479575
#
# Stress axis : x y z
#
# Youngs Moduli (GPa) = 38.61043 91.80079 100.72398
#
# Poissons Ratio (x) = 0.38286 0.32364
# Poissons Ratio (y) = 0.16103 0.36048
# Poissons Ratio (z) = 0.12406 0.32855
#
# Static dielectric constant tensor:
#      x y z
#    x 1.819460 0.000000 0.000000 
#    y 0.000000 1.863190 0.000000 
#    z 0.000000 0.000000 2.223410 
# 
# From -- ./inp_files/35759.got.cif
#   From: 2010.05.17/outbox.cif.g08.bks.cpg/sg72_18_cif.got.tgz:35759.got - 2010.06.03 17:03:01.
