data_PCOD9524080
_publ_section_title
;
Structure prediction by ZEFSAII (Michael W. Deem and Ramdas Pophale) SiO2 
 PCOD9524080
Probable space group: I M M M
;
_chemical_formula_sum "Si O2"
_cell_formula_units_Z 92
_cell_length_a 15.378220
_cell_length_b 20.014323
_cell_length_c 16.143799
_cell_angle_alpha 90.000000
_cell_angle_beta 90.000000
_cell_angle_gamma 90.000000
_cell_volume 4968.813723
_symmetry_space_group_name_H-M "I M M M"
_symmetry_group_IT_number 71
_symmetry_cell_setting 'orthorhombic'
loop_
_space_group_symop_operation_xyz
x,y,z
-x,-y,z
x,-y,-z
-x,y,-z
-x,-y,-z
x,y,-z
-x,y,z
x,-y,z
1/2+x,1/2+y,1/2+z
1/2-x,1/2-y,1/2+z
1/2+x,1/2-y,1/2-z
1/2-x,1/2+y,1/2-z
1/2-x,1/2-y,1/2-z
1/2+x,1/2+y,1/2-z
1/2-x,1/2+y,1/2+z
1/2+x,1/2-y,1/2+z
loop_
_atom_site_type_symbol
_atom_site_label
_atom_site_fract_x
_atom_site_fract_y
_atom_site_fract_z
Si Si1 0.630723 0.798389 0.858331
Si Si2 0.097184 0.680316 0.164569
Si Si3 0.604316 0.422883 0.500000
Si Si4 0.263481 0.924728 0.401302
Si Si5 0.336116 0.325692 0.644183
Si Si6 0.398308 0.645819 0.169158
Si Si7 0.500000 0.840902 0.000000
O O1 0.601198 0.813133 0.764314
O O2 0.733008 0.813625 0.860980
O O3 0.614203 0.719204 0.871271
O O4 0.575724 0.836739 0.926916
O O5 0.170044 0.628356 0.136971
O O6 0.118975 0.753808 0.128970
O O7 0.000000 0.660225 0.139536
O O8 0.634314 0.500000 0.500000
O O9 0.500000 0.423086 0.500000
O O10 0.636214 0.381774 0.420454
O O11 0.271125 0.921826 0.500000
O O12 0.165966 0.904927 0.375576
O O13 0.283219 0.000000 0.373088
O O14 0.365508 0.346843 0.736255
O O15 0.500000 0.628516 0.166874
#
# Coordination Sequence:
#
# PCOD9524080 Si02
#       7
#    16  16   8  16  16  16   4
#     4  11  20  36  62 100 131 160 205 263 320 383
#     4  11  21  41  67  93 125 163 217 274 318 382
#     4  11  25  42  59  91 131 162 208 266 316 379
#     4  11  26  43  61  91 129 171 220 271 329 389
#     4  11  21  40  65  95 125 168 217 261 317 382
#     4  11  21  39  65  94 130 170 216 267 323 389
#     4  12  22  32  62 108 140 156 198 262 338 386
#
# _framework density 18.515485000000002
#
# number of rings (size 3 to 8) (size 9 to 14) (size 15 to 20)
#    0.000    0.957    5.217    4.174    2.435    2.087 
#    0.000    1.739    0.000    0.000    0.000    1.826 
#    0.000    0.000    0.000    0.000    0.000    0.000 
#
# Total GULP energy -256528.503289 kJ/mol
# GULP energy per Si atom -5576.706593 kJ/mol
# Density = 1.847334 g / cm^3
# Si number density = 18.515485 Si / 1000 Ang^3
#
#
#
# Elastic Constant Matrix: (Units=GPa)
#
#
# Indices 1 2 3 4 5 6 
#
# 1 148.9088 31.0239 29.0152 0.0000 0.0000 0.0000
# 2 31.0239 99.0681 37.4191 -0.0001 0.0000 0.0000
# 3 29.0152 37.4191 47.2276 -0.0002 0.0000 0.0000
# 4 0.0000 -0.0001 -0.0002 13.8605 0.0000 0.0000
# 5 0.0000 0.0000 0.0000 0.0000 33.3734 0.0000
# 6 0.0000 0.0000 0.0000 0.0000 0.0000 7.2151
#
#
#
# Elastic Compliance Matrix: (Units=1/GPa)
#
#
# Indices 1 2 3 4 5 6 
#
# 1 0.007683 -0.000889 -0.004016 0.000000 0.000000 0.000000
# 2 -0.000889 0.014508 -0.010948 0.000000 0.000000 0.000000
# 3 -0.004016 -0.010948 0.032316 0.000000 0.000000 0.000000
# 4 0.000000 0.000000 0.000000 0.072147 0.000000 0.000000
# 5 0.000000 0.000000 0.000000 0.000000 0.029964 0.000000
# 6 0.000000 0.000000 0.000000 0.000000 0.000000 0.138598
#
#
# Mechanical properties :
#
#
# Convention : Reuss Voigt Hill
#
# Bulk Modulus (GPa) = 43.85971 54.45788 49.15879
# Shear Modulus (GPa) = 14.94663 24.07290 19.50977
#
# Velocity S-wave (km/s) = 2.84430 3.60967 3.24960
# Velocity P-wave (km/s) = 5.87590 6.84462 6.37868
#
# Compressibility (1/GPa) = 0.02279997
#
# Stress axis : x y z
#
# Youngs Moduli (GPa) = 130.15288 68.92797 30.94460
#
# Poissons Ratio (x) = 0.06130 0.12427
# Poissons Ratio (y) = 0.11574 0.33880
# Poissons Ratio (z) = 0.52267 0.75465
#
# Static dielectric constant tensor:
#      x y z
#    x 1.634330 0.000000 0.000000 
#    y 0.000000 1.626240 0.000000 
#    z 0.000000 0.000000 1.634170 
# 
# From -- ./inp_files/34542.got.cif
#   From: 2010.05.17/outbox.cif.g08.bks.cpg/sg71_18_cif.got.tgz:34542.got - 2010.06.03 16:22:01.
