data_PCOD9524464
_publ_section_title
;
Structure prediction by ZEFSAII (Michael W. Deem and Ramdas Pophale) SiO2 
 PCOD9524464
Probable space group: I M M M
;
_chemical_formula_sum "Si O2"
_cell_formula_units_Z 68
_cell_length_a 14.072165
_cell_length_b 12.494854
_cell_length_c 20.121131
_cell_angle_alpha 90.000000
_cell_angle_beta 90.000000
_cell_angle_gamma 90.000000
_cell_volume 3537.891364
_symmetry_space_group_name_H-M "I M M M"
_symmetry_group_IT_number 71
_symmetry_cell_setting 'orthorhombic'
loop_
_space_group_symop_operation_xyz
x,y,z
-x,-y,z
x,-y,-z
-x,y,-z
-x,-y,-z
x,y,-z
-x,y,z
x,-y,z
1/2+x,1/2+y,1/2+z
1/2-x,1/2-y,1/2+z
1/2+x,1/2-y,1/2-z
1/2-x,1/2+y,1/2-z
1/2-x,1/2-y,1/2-z
1/2+x,1/2+y,1/2-z
1/2-x,1/2+y,1/2+z
1/2+x,1/2-y,1/2+z
loop_
_atom_site_type_symbol
_atom_site_label
_atom_site_fract_x
_atom_site_fract_y
_atom_site_fract_z
Si Si1 0.829817 0.719127 0.803691
Si Si2 0.392058 0.000000 0.239901
Si Si3 0.316083 0.000000 0.904470
Si Si4 0.500000 0.372875 0.270371
Si Si5 0.000000 0.500000 0.500000
Si Si6 0.500000 0.500000 0.000000
Si Si7 0.500000 0.313231 0.886139
Si Si8 0.793748 0.263651 0.575164
O O1 0.750000 0.750000 0.750000
O O2 0.873976 0.606797 0.781541
O O3 0.908623 0.811910 0.800170
O O4 0.776880 0.707731 0.873868
O O5 0.500000 0.000000 0.216305
O O6 0.327357 0.000000 0.174754
O O7 0.268106 0.111172 0.923827
O O8 0.416353 0.000000 0.942765
O O9 0.500000 0.500000 0.282208
O O10 0.500000 0.352681 0.190148
O O11 0.500000 0.406943 0.940957
O O12 0.402727 0.247695 0.899100
O O13 0.790362 0.222020 0.500000
#
# Coordination Sequence:
#
# PCOD9524464 Si02
#       8
#    16   8   8   8   2   2   8  16
#     4  12  26  43  70 100 131 183 227 276 332 397
#     4  12  24  45  68  96 137 172 231 282 329 393
#     4  12  22  34  65  97 139 168 203 270 340 415
#     4  12  26  44  69  99 137 173 230 280 334 394
#     4  12  20  30  56 108 136 184 190 250 380 408
#     4  12  24  38  60  98 148 174 206 262 368 402
#     4  12  23  41  66  96 136 177 210 274 338 411
#     4  12  25  42  65 101 137 173 223 269 342 403
#
# _framework density 19.220489000000001
#
# number of rings (size 3 to 8) (size 9 to 14) (size 15 to 20)
#    0.000    0.000    9.412    0.706    3.294    0.941 
#    0.000    0.588    0.000    1.412    0.000    0.000 
#    0.000    0.000    0.000    0.000    0.000    0.000 
#
# Total GULP energy -189547.616018 kJ/mol
# GULP energy per Si atom -5574.929883 kJ/mol
# Density = 1.917674 g / cm^3
# Si number density = 19.220489 Si / 1000 Ang^3
#
#
#
# Elastic Constant Matrix: (Units=GPa)
#
#
# Indices 1 2 3 4 5 6 
#
# 1 84.7217 20.4968 34.4449 0.0000 0.0000 0.0000
# 2 20.4968 106.2279 14.1486 0.0000 0.0000 0.0000
# 3 34.4449 14.1486 122.9999 0.0000 0.0000 0.0000
# 4 0.0000 0.0000 0.0000 7.3594 0.0000 0.0000
# 5 0.0000 0.0000 0.0000 0.0000 32.0607 0.0000
# 6 0.0000 0.0000 0.0000 0.0000 0.0000 20.1156
#
#
#
# Elastic Compliance Matrix: (Units=1/GPa)
#
#
# Indices 1 2 3 4 5 6 
#
# 1 0.013800 -0.002181 -0.003614 0.000000 0.000000 0.000000
# 2 -0.002181 0.009905 -0.000528 0.000000 0.000000 0.000000
# 3 -0.003614 -0.000528 0.009203 0.000000 0.000000 0.000000
# 4 0.000000 0.000000 0.000000 0.135881 0.000000 0.000000
# 5 0.000000 0.000000 0.000000 0.000000 0.031191 0.000000
# 6 0.000000 0.000000 0.000000 0.000000 0.000000 0.049713
#
#
# Mechanical properties :
#
#
# Convention : Reuss Voigt Hill
#
# Bulk Modulus (GPa) = 49.35614 50.23669 49.79641
# Shear Modulus (GPa) = 18.58092 28.23109 23.40601
#
# Velocity S-wave (km/s) = 3.11259 3.83665 3.49343
# Velocity P-wave (km/s) = 6.21710 6.76907 6.49895
#
# Compressibility (1/GPa) = 0.02026091
#
# Stress axis : x y z
#
# Youngs Moduli (GPa) = 72.46209 100.95886 108.66190
#
# Poissons Ratio (x) = 0.22024 0.39267
# Poissons Ratio (y) = 0.15807 0.05742
# Poissons Ratio (z) = 0.26186 0.05335
#
# Static dielectric constant tensor:
#      x y z
#    x 1.661640 0.000000 0.000000 
#    y 0.000000 1.687830 0.000000 
#    z 0.000000 0.000000 1.678610 
# 
# From -- ./inp_files/37574.got.cif
#   From: 2010.05.17/outbox.cif.g08.bks.cpg/sg71_19_cif.got.tgz:37574.got - 2010.06.03 16:22:01.
