data_PCOD9524821
_publ_section_title
;
Structure prediction by ZEFSAII (Michael W. Deem and Ramdas Pophale) SiO2 
 PCOD9524821
Probable space group: I M M M
;
_chemical_formula_sum "Si O2"
_cell_formula_units_Z 44
_cell_length_a 21.000000
_cell_length_b 15.000000
_cell_length_c 15.000000
_cell_angle_alpha 90.000000
_cell_angle_beta 90.000000
_cell_angle_gamma 90.000000
_cell_volume 4725.000000
_symmetry_space_group_name_H-M "I M M M"
_symmetry_group_IT_number 71
_symmetry_cell_setting 'orthorhombic'
loop_
_space_group_symop_operation_xyz
x,y,z
-x,-y,z
x,-y,-z
-x,y,-z
-x,-y,-z
x,y,-z
-x,y,z
x,-y,z
1/2+x,1/2+y,1/2+z
1/2-x,1/2-y,1/2+z
1/2+x,1/2-y,1/2-z
1/2-x,1/2+y,1/2-z
1/2-x,1/2-y,1/2-z
1/2+x,1/2+y,1/2-z
1/2-x,1/2+y,1/2+z
1/2+x,1/2-y,1/2+z
loop_
_atom_site_type_symbol
_atom_site_label
_atom_site_fract_x
_atom_site_fract_y
_atom_site_fract_z
Si Si1 0.336014 0.500000 0.892746
Si Si2 0.426212 0.000000 0.211243
Si Si3 0.872728 0.892516 0.101795
Si Si4 0.071995 0.860252 0.704777
Si Si5 0.604016 0.181270 0.895717
Si Si6 0.290525 0.000000 0.714855
Si Si7 0.742261 0.175444 0.826330
O O1 0.373662 0.417327 0.846471
O O2 0.260612 0.500000 0.866651
O O3 0.343414 0.500000 0.000000
O O4 0.415414 0.912536 0.149499
O O5 0.500000 0.000000 0.243397
O O6 0.368601 0.000000 0.285507
O O7 0.914136 0.865346 0.188755
O O8 0.805990 0.841677 0.117561
O O9 0.863358 0.000000 0.108045
O O10 0.896157 0.874758 0.000000
O O11 0.076176 0.761321 0.663895
O O12 0.000000 0.893867 0.688844
O O13 0.680509 0.191987 0.886601
O O14 0.585637 0.185589 0.000000
O O15 0.271897 0.914341 0.772212
O O16 0.750000 0.250000 0.750000
#
# Coordination Sequence:
#
# PCOD9524821 Si02
#       7
#     8   8  16  16  16   8  16
#     4  12  23  40  63  90 126 165 201 242 300 374
#     4  10  23  40  63  90 121 162 206 258 315 362
#     4  11  22  39  64  90 122 160 205 261 316 363
#     4  12  24  40  60  89 128 166 205 251 304 369
#     4  11  23  37  60  91 124 163 208 253 307 371
#     4  10  20  38  61  88 120 156 205 248 297 360
#     4  11  18  36  62  86 123 160 199 256 310 356
#
# _framework density 9.3121690000000008
#
# number of rings (size 3 to 8) (size 9 to 14) (size 15 to 20)
#    0.000    0.909    5.455    2.182    0.000    3.636 
#    0.000    1.818    0.000    0.273    0.000    0.000 
#    0.000    0.000    0.000    0.000    0.000    0.000 
#
# Total GULP energy -245591.414272 kJ/mol
# GULP energy per Si atom -5581.623052 kJ/mol
# Density = 0.929097 g / cm^3
# Si number density = 9.312169 Si / 1000 Ang^3
#
#
#
# Elastic Constant Matrix: (Units=GPa)
#
#
# Indices 1 2 3 4 5 6 
#
# 1 124.2561 17.4421 42.8631 0.0000 0.0000 0.0000
# 2 17.4421 126.1237 44.1280 0.0000 0.0000 0.0000
# 3 42.8631 44.1280 140.6491 0.0000 0.0000 0.0000
# 4 0.0000 0.0000 0.0000 24.3547 0.0000 0.0000
# 5 0.0000 0.0000 0.0000 0.0000 15.3270 0.0000
# 6 0.0000 0.0000 0.0000 0.0000 0.0000 20.1206
#
#
#
# Elastic Compliance Matrix: (Units=1/GPa)
#
#
# Indices 1 2 3 4 5 6 
#
# 1 0.009005 -0.000320 -0.002644 0.000000 0.000000 0.000000
# 2 -0.000320 0.008918 -0.002700 0.000000 0.000000 0.000000
# 3 -0.002644 -0.002700 0.008763 0.000000 0.000000 0.000000
# 4 0.000000 0.000000 0.000000 0.041060 0.000000 0.000000
# 5 0.000000 0.000000 0.000000 0.000000 0.065244 0.000000
# 6 0.000000 0.000000 0.000000 0.000000 0.000000 0.049700
#
#
# Mechanical properties :
#
#
# Convention : Reuss Voigt Hill
#
# Bulk Modulus (GPa) = 65.11818 66.65504 65.88661
# Shear Modulus (GPa) = 25.10826 31.06683 28.08755
#
# Velocity S-wave (km/s) = 3.67569 4.08864 3.88765
# Velocity P-wave (km/s) = 7.28383 7.62602 7.45689
#
# Compressibility (1/GPa) = 0.01535669
#
# Stress axis : x y z
#
# Youngs Moduli (GPa) = 111.05134 112.13532 114.11894
#
# Poissons Ratio (x) = 0.03592 0.30170
# Poissons Ratio (y) = 0.03557 0.30816
# Poissons Ratio (z) = 0.29359 0.30280
#
# Static dielectric constant tensor:
#      x y z
#    x 1.684600 0.000000 0.000000 
#    y 0.000000 1.644650 0.000000 
#    z 0.000000 0.000000 1.610890 
# 
# From -- ./inp_files/37792.got.cif
#   From: 2010.05.17/outbox.ucp.g08.bks.cvg/sg71_19_cif.got.tgz:37792.got - 2010.06.11 16:29:00.
