data_PCOD9524320
_publ_section_title
;
Structure prediction by ZEFSAII (Michael W. Deem and Ramdas Pophale) SiO2 
 PCOD9524320
Probable space group: I M M M
;
_chemical_formula_sum "Si O2"
_cell_formula_units_Z 64
_cell_length_a 8.551556
_cell_length_b 10.912201
_cell_length_c 33.608212
_cell_angle_alpha 90.000000
_cell_angle_beta 90.000000
_cell_angle_gamma 90.000000
_cell_volume 3136.193924
_symmetry_space_group_name_H-M "I M M M"
_symmetry_group_IT_number 71
_symmetry_cell_setting 'orthorhombic'
loop_
_space_group_symop_operation_xyz
x,y,z
-x,-y,z
x,-y,-z
-x,y,-z
-x,-y,-z
x,y,-z
-x,y,z
x,-y,z
1/2+x,1/2+y,1/2+z
1/2-x,1/2-y,1/2+z
1/2+x,1/2-y,1/2-z
1/2-x,1/2+y,1/2-z
1/2-x,1/2-y,1/2-z
1/2+x,1/2+y,1/2-z
1/2-x,1/2+y,1/2+z
1/2+x,1/2-y,1/2+z
loop_
_atom_site_type_symbol
_atom_site_label
_atom_site_fract_x
_atom_site_fract_y
_atom_site_fract_z
Si Si1 0.186066 0.235760 0.335089
Si Si2 0.186197 0.742605 0.919718
Si Si3 0.809475 0.000000 0.715457
Si Si4 0.674510 0.356445 0.000000
Si Si5 0.187423 0.000000 0.808029
Si Si6 0.809957 0.000000 0.046090
O O1 0.230098 0.198568 0.380029
O O2 0.242842 0.125767 0.306165
O O3 0.254802 0.371154 0.326519
O O4 0.000000 0.244366 0.330873
O O5 0.236549 0.881383 0.929468
O O6 0.000000 0.737876 0.913751
O O7 0.232701 0.676433 0.960281
O O8 0.764058 0.000000 0.761607
O O9 0.000000 0.000000 0.713734
O O10 0.656140 0.500000 0.000000
O O11 0.500000 0.298818 0.000000
O O12 0.000000 0.000000 0.810877
O O13 0.000000 0.000000 0.043917
O O14 0.755280 0.000000 0.000000
#
# Coordination Sequence:
#
# PCOD9524320 Si02
#       6
#    16  16   8   8   8   8
#     4  11  23  41  64  94 130 169 208 258 323 386
#     4  11  22  39  63  91 122 159 207 260 309 368
#     4   9  22  42  66  92 126 167 209 260 321 384
#     4  11  25  42  59  82 120 169 212 257 311 367
#     4  11  22  42  67  95 126 164 213 263 314 377
#     4   9  17  34  57  81 112 149 188 243 306 351
#
# _framework density 20.406901999999999
#
# number of rings (size 3 to 8) (size 9 to 14) (size 15 to 20)
#    0.000    1.500    1.250    3.750    1.750    2.000 
#    0.000    8.125    0.000    0.000    0.000    0.000 
#    0.000    0.000    0.000    0.000    0.000    0.000 
#
# Total GULP energy -178727.248090 kJ/mol
# GULP energy per Si atom -5585.226503 kJ/mol
# Density = 2.036046 g / cm^3
# Si number density = 20.406902 Si / 1000 Ang^3
#
#
#
# Elastic Constant Matrix: (Units=GPa)
#
#
# Indices 1 2 3 4 5 6 
#
# 1 45.5652 21.6547 11.6931 0.0000 0.0000 0.0000
# 2 21.6547 99.2716 32.0097 0.0000 0.0000 0.0000
# 3 11.6931 32.0097 123.0322 0.0000 0.0000 0.0000
# 4 0.0000 0.0000 0.0000 38.5292 0.0000 0.0000
# 5 0.0000 0.0000 0.0000 0.0000 43.3846 0.0000
# 6 0.0000 0.0000 0.0000 0.0000 0.0000 22.9483
#
#
#
# Elastic Compliance Matrix: (Units=1/GPa)
#
#
# Indices 1 2 3 4 5 6 
#
# 1 0.024603 -0.005035 -0.001028 0.000000 0.000000 0.000000
# 2 -0.005035 0.012026 -0.002650 0.000000 0.000000 0.000000
# 3 -0.001028 -0.002650 0.008915 0.000000 0.000000 0.000000
# 4 0.000000 0.000000 0.000000 0.025954 0.000000 0.000000
# 5 0.000000 0.000000 0.000000 0.000000 0.023050 0.000000
# 6 0.000000 0.000000 0.000000 0.000000 0.000000 0.043576
#
#
# Mechanical properties :
#
#
# Convention : Reuss Voigt Hill
#
# Bulk Modulus (GPa) = 35.56555 44.28710 39.92632
# Shear Modulus (GPa) = 30.31671 34.47320 32.39495
#
# Velocity S-wave (km/s) = 3.85854 4.11456 3.98860
# Velocity P-wave (km/s) = 6.10878 6.65747 6.38902
#
# Compressibility (1/GPa) = 0.02811710
#
# Stress axis : x y z
#
# Youngs Moduli (GPa) = 40.64468 83.15064 112.16749
#
# Poissons Ratio (x) = 0.41869 0.11534
# Poissons Ratio (y) = 0.20466 0.29729
# Poissons Ratio (z) = 0.04179 0.22038
#
# Static dielectric constant tensor:
#      x y z
#    x 1.719820 0.000000 0.000000 
#    y 0.000000 1.703510 0.000000 
#    z 0.000000 0.000000 1.848660 
# 
# From -- ./inp_files/67741.got.cif
#   From: 2010.05.17/outbox.cif.g08.bks.cpg/sg71_34_cif.got.tgz:67741.got - 2010.06.03 16:22:01.
