data_PCOD9524046
_publ_section_title
;
Structure prediction by ZEFSAII (Michael W. Deem and Ramdas Pophale) SiO2 
 PCOD9524046
Probable space group: I M M M
;
_chemical_formula_sum "Si O2"
_cell_formula_units_Z 88
_cell_length_a 7.868662
_cell_length_b 21.017752
_cell_length_c 30.943234
_cell_angle_alpha 90.000000
_cell_angle_beta 90.000000
_cell_angle_gamma 90.000000
_cell_volume 5117.441130
_symmetry_space_group_name_H-M "I M M M"
_symmetry_group_IT_number 71
_symmetry_cell_setting 'orthorhombic'
loop_
_space_group_symop_operation_xyz
x,y,z
-x,-y,z
x,-y,-z
-x,y,-z
-x,-y,-z
x,y,-z
-x,y,z
x,-y,z
1/2+x,1/2+y,1/2+z
1/2-x,1/2-y,1/2+z
1/2+x,1/2-y,1/2-z
1/2-x,1/2+y,1/2-z
1/2-x,1/2-y,1/2-z
1/2+x,1/2+y,1/2-z
1/2-x,1/2+y,1/2+z
1/2+x,1/2-y,1/2+z
loop_
_atom_site_type_symbol
_atom_site_label
_atom_site_fract_x
_atom_site_fract_y
_atom_site_fract_z
Si Si1 0.794833 0.860577 0.549339
Si Si2 0.294556 0.931719 0.328405
Si Si3 0.202035 0.301022 0.866988
Si Si4 0.697924 0.500000 0.052763
Si Si5 0.205795 0.430912 0.274307
Si Si6 0.299880 0.792025 0.208059
O O1 0.738866 0.849784 0.500000
O O2 0.744086 0.805643 0.582512
O O3 0.726994 0.930709 0.564269
O O4 0.000000 0.865125 0.548874
O O5 0.500000 0.931661 0.333645
O O6 0.224554 0.867680 0.348787
O O7 0.263036 0.929165 0.277173
O O8 0.230684 0.000000 0.345151
O O9 0.264136 0.245027 0.836223
O O10 0.000000 0.301971 0.862013
O O11 0.500000 0.500000 0.065810
O O12 0.699222 0.500000 0.000000
O O13 0.269326 0.500000 0.290460
O O14 0.273634 0.363766 0.291908
O O15 0.000000 0.431962 0.279951
O O16 0.500000 0.799528 0.212554
O O17 0.250000 0.750000 0.250000
#
# Coordination Sequence:
#
# PCOD9524046 Si02
#       6
#    16  16  16   8  16  16
#     4   9  18  33  49  65  89 121 157 198 244 288
#     4   8  14  25  40  60  87 119 156 194 229 264
#     4  11  21  31  46  68  93 124 160 197 237 281
#     4   7  12  26  47  65  85 117 153 195 247 289
#     4   8  14  27  47  66  86 118 157 193 228 267
#     4  11  20  32  49  69  96 125 156 194 236 281
#
# _framework density 17.196093000000001
#
# number of rings (size 3 to 8) (size 9 to 14) (size 15 to 20)
#    0.000    2.818    1.818    3.273    1.273    0.364 
#    0.000    0.000    0.000    4.909    0.000    0.000 
#    0.000    0.727    0.000    8.364    0.000    2.364 
#
# Total GULP energy -245127.469380 kJ/mol
# GULP energy per Si atom -5571.078850 kJ/mol
# Density = 1.715695 g / cm^3
# Si number density = 17.196093 Si / 1000 Ang^3
#
#
#
# Elastic Constant Matrix: (Units=GPa)
#
#
# Indices 1 2 3 4 5 6 
#
# 1 25.4663 11.1338 0.0684 0.0000 0.0000 0.0000
# 2 11.1338 145.4216 65.2252 0.0000 0.0000 0.0000
# 3 0.0684 65.2252 63.5993 0.0000 0.0000 0.0000
# 4 0.0000 0.0000 0.0000 25.3008 0.0000 0.0000
# 5 0.0000 0.0000 0.0000 0.0000 15.3015 0.0000
# 6 0.0000 0.0000 0.0000 0.0000 0.0000 10.9840
#
#
#
# Elastic Compliance Matrix: (Units=1/GPa)
#
#
# Indices 1 2 3 4 5 6 
#
# 1 0.041828 -0.005893 0.005999 0.000000 0.000000 0.000000
# 2 -0.005893 0.013564 -0.013905 0.000000 0.000000 0.000000
# 3 0.005999 -0.013905 0.029977 0.000000 0.000000 0.000000
# 4 0.000000 0.000000 0.000000 0.039524 0.000000 0.000000
# 5 0.000000 0.000000 0.000000 0.000000 0.065353 0.000000
# 6 0.000000 0.000000 0.000000 0.000000 0.000000 0.091041
#
#
# Mechanical properties :
#
#
# Convention : Reuss Voigt Hill
#
# Bulk Modulus (GPa) = 17.30968 43.03801 30.17385
# Shear Modulus (GPa) = 15.23721 20.85457 18.04589
#
# Velocity S-wave (km/s) = 2.97995 3.48623 3.24299
# Velocity P-wave (km/s) = 4.68274 6.42551 5.62207
#
# Compressibility (1/GPa) = 0.05777115
#
# Stress axis : x y z
#
# Youngs Moduli (GPa) = 23.90754 73.72239 33.35857
#
# Poissons Ratio (x) = 0.43444 -0.20010
# Poissons Ratio (y) = 0.14089 0.46385
# Poissons Ratio (z) = -0.14341 1.02510
#
# Static dielectric constant tensor:
#      x y z
#    x 1.639900 0.000000 0.000000 
#    y 0.000000 1.651480 0.000000 
#    z 0.000000 0.000000 1.612680 
# 
# From -- ./inp_files/10895.got.cif
#   From: 2010.05.17/outbox.cif.g08.bks.cpg/sg71_6_cif.got.tgz:10895.got - 2010.06.03 16:22:01.
