data_PCOD9524406
_publ_section_title
;
Structure prediction by ZEFSAII (Michael W. Deem and Ramdas Pophale) SiO2 
 PCOD9524406
Probable space group: I M M M
;
_chemical_formula_sum "Si O2"
_cell_formula_units_Z 64
_cell_length_a 7.361249
_cell_length_b 12.796853
_cell_length_c 32.287809
_cell_angle_alpha 90.000000
_cell_angle_beta 90.000000
_cell_angle_gamma 90.000000
_cell_volume 3041.538127
_symmetry_space_group_name_H-M "I M M M"
_symmetry_group_IT_number 71
_symmetry_cell_setting 'orthorhombic'
loop_
_space_group_symop_operation_xyz
x,y,z
-x,-y,z
x,-y,-z
-x,y,-z
-x,-y,-z
x,y,-z
-x,y,z
x,-y,z
1/2+x,1/2+y,1/2+z
1/2-x,1/2-y,1/2+z
1/2+x,1/2-y,1/2-z
1/2-x,1/2+y,1/2-z
1/2-x,1/2-y,1/2-z
1/2+x,1/2+y,1/2-z
1/2-x,1/2+y,1/2+z
1/2+x,1/2-y,1/2+z
loop_
_atom_site_type_symbol
_atom_site_label
_atom_site_fract_x
_atom_site_fract_y
_atom_site_fract_z
Si Si1 0.279913 0.612796 0.269312
Si Si2 0.500000 0.374456 0.449879
Si Si3 0.288542 0.280372 0.908757
Si Si4 0.296155 0.682382 0.817258
Si Si5 0.718464 0.000000 0.547592
O O1 0.500000 0.626467 0.268362
O O2 0.238511 0.500000 0.286657
O O3 0.215699 0.619950 0.221595
O O4 0.199702 0.702864 0.297114
O O5 0.500000 0.500000 0.439989
O O6 0.500000 0.365305 0.500000
O O7 0.329164 0.309374 0.431136
O O8 0.500000 0.247713 0.905482
O O9 0.214661 0.305403 0.862513
O O10 0.280432 0.391647 0.931983
O O11 0.500000 0.640343 0.823888
O O12 0.500000 0.000000 0.549566
O O13 0.775435 0.000000 0.500000
#
# Coordination Sequence:
#
# PCOD9524406 Si02
#       5
#    16   8  16  16   8
#     4   9  18  33  55  79 113 159 199 247 304 367
#     4  11  26  47  69  95 129 170 217 275 333 389
#     4  11  24  42  68  98 131 173 215 269 323 395
#     4   9  20  36  54  83 118 153 203 253 307 370
#     4  11  23  41  67 100 135 169 210 265 333 396
#
# _framework density 21.041983999999999
#
# number of rings (size 3 to 8) (size 9 to 14) (size 15 to 20)
#    0.000    2.000    1.250    1.125    3.500    4.500 
#    0.000    3.750    0.000    0.000    0.000    0.000 
#    0.000    0.000    0.000    0.000    0.000    0.000 
#
# Total GULP energy -178503.342443 kJ/mol
# GULP energy per Si atom -5578.229451 kJ/mol
# Density = 2.099409 g / cm^3
# Si number density = 21.041984 Si / 1000 Ang^3
#
#
#
# Elastic Constant Matrix: (Units=GPa)
#
#
# Indices 1 2 3 4 5 6 
#
# 1 106.0643 11.7224 10.5481 0.0000 0.0000 0.0000
# 2 11.7224 132.8818 36.4975 0.0000 0.0000 0.0000
# 3 10.5481 36.4975 142.8578 0.0000 0.0000 0.0000
# 4 0.0000 0.0000 0.0000 -34.5824 0.0000 0.0000
# 5 0.0000 0.0000 0.0000 0.0000 213.4326 0.0000
# 6 0.0000 0.0000 0.0000 0.0000 0.0000 21.5174
#
#
#
# Elastic Compliance Matrix: (Units=1/GPa)
#
#
# Indices 1 2 3 4 5 6 
#
# 1 0.009558 -0.000698 -0.000527 0.000000 0.000000 0.000000
# 2 -0.000698 0.008144 -0.002029 0.000000 0.000000 0.000000
# 3 -0.000527 -0.002029 0.007557 0.000000 0.000000 0.000000
# 4 0.000000 0.000000 0.000000 -0.028916 0.000000 0.000000
# 5 0.000000 0.000000 0.000000 0.000000 0.004685 0.000000
# 6 0.000000 0.000000 0.000000 0.000000 0.000000 0.046474
#
#
# Mechanical properties :
#
#
# Convention : Reuss Voigt Hill
#
# Bulk Modulus (GPa) = 53.33345 55.48221 54.40783
# Shear Modulus (GPa) = 82.97086 61.60925 72.29006
#
# Velocity S-wave (km/s) = 6.28623 5.41690 5.86769
# Velocity P-wave (km/s) = 8.83686 8.09619 8.47462
#
# Compressibility (1/GPa) = 0.01874996
#
# Stress axis : x y z
#
# Youngs Moduli (GPa) = 104.62589 122.78331 132.32200
#
# Poissons Ratio (x) = 0.08574 0.06977
# Poissons Ratio (y) = 0.07306 0.26851
# Poissons Ratio (z) = 0.05517 0.24915
#
# Static dielectric constant tensor:
#      x y z
#    x 1.810250 0.000000 0.000000 
#    y 0.000000 1.721920 0.000000 
#    z 0.000000 0.000000 1.746710 
# 
# From -- ./inp_files/67707.got.cif
#   From: 2010.05.17/outbox.cif.g08.bks.cpg/sg71_34_cif.got.tgz:67707.got - 2010.06.03 16:22:01.
