data_PCOD9524484
_publ_section_title
;
Structure prediction by ZEFSAII (Michael W. Deem and Ramdas Pophale) SiO2 
 PCOD9524484
Probable space group: I M M M
;
_chemical_formula_sum "Si O2"
_cell_formula_units_Z 120
_cell_length_a 23.110008
_cell_length_b 14.426868
_cell_length_c 12.900393
_cell_angle_alpha 90.000000
_cell_angle_beta 90.000000
_cell_angle_gamma 90.000000
_cell_volume 4301.055978
_symmetry_space_group_name_H-M "I M M M"
_symmetry_group_IT_number 71
_symmetry_cell_setting 'orthorhombic'
loop_
_space_group_symop_operation_xyz
x,y,z
-x,-y,z
x,-y,-z
-x,y,-z
-x,-y,-z
x,y,-z
-x,y,z
x,-y,z
1/2+x,1/2+y,1/2+z
1/2-x,1/2-y,1/2+z
1/2+x,1/2-y,1/2-z
1/2-x,1/2+y,1/2-z
1/2-x,1/2-y,1/2-z
1/2+x,1/2+y,1/2-z
1/2-x,1/2+y,1/2+z
1/2+x,1/2-y,1/2+z
loop_
_atom_site_type_symbol
_atom_site_label
_atom_site_fract_x
_atom_site_fract_y
_atom_site_fract_z
Si Si1 0.000000 0.112229 0.123690
Si Si2 0.869486 0.893160 0.126891
Si Si3 0.311316 0.681862 0.126243
Si Si4 0.438416 0.874153 0.846864
Si Si5 0.563119 0.145349 0.615736
Si Si6 0.808951 0.399191 0.616834
Si Si7 0.936615 0.848831 0.623996
Si Si8 0.192716 0.278299 0.878621
O O1 0.065362 0.138724 0.160259
O O2 0.000000 0.000000 0.132323
O O3 0.000000 0.130382 0.000000
O O4 0.817081 0.826641 0.162438
O O5 0.860971 0.000000 0.152553
O O6 0.871270 0.888217 0.000000
O O7 0.306785 0.792187 0.159182
O O8 0.370316 0.627986 0.157669
O O9 0.245162 0.653621 0.151945
O O10 0.317846 0.683338 0.000000
O O11 0.500000 0.902048 0.890948
O O12 0.439099 0.902605 0.726356
O O13 0.378490 0.906110 0.891224
O O14 0.437663 0.761972 0.857099
O O15 0.563267 0.102591 0.500000
O O16 0.500000 0.197646 0.616750
O O17 0.626876 0.187556 0.625189
O O18 0.784339 0.396450 0.500000
O O19 0.790176 0.500000 0.662380
O O20 0.938162 0.866497 0.500000
O O21 0.000000 0.885417 0.662144
O O22 0.204364 0.267183 0.000000
#
# Coordination Sequence:
#
# PCOD9524484 Si02
#       8
#     8  16  16  16  16  16  16  16
#     4   7  10  16  24  36  56  80 110 154 198 227
#     4   8  13  19  28  44  65  91 125 165 206 239
#     4   8  14  24  36  55  81 102 123 155 195 238
#     4   9  16  27  42  59  81 107 137 174 211 246
#     4   9  18  30  42  56  77 112 155 189 212 234
#     4   9  17  28  43  64  88 110 130 158 205 269
#     4   8  13  23  40  57  73  96 123 152 195 252
#     4   9  16  24  36  53  76 108 144 178 205 235
#
# _framework density 27.900124999999999
#
# number of rings (size 3 to 8) (size 9 to 14) (size 15 to 20)
#    0.000    3.533    0.000    2.000    0.933    1.600 
#    0.000    6.000    0.000    0.400    0.000    1.867 
#    0.000    0.000    0.000    0.000    0.000    2.667 
#
# Total GULP energy -334165.874209 kJ/mol
# GULP energy per Si atom -5569.431237 kJ/mol
# Density = 2.783662 g / cm^3
# Si number density = 27.900125 Si / 1000 Ang^3
#
#
#
# Elastic Constant Matrix: (Units=GPa)
#
#
# Indices 1 2 3 4 5 6 
#
# 1 257.8489 27.7110 31.4305 0.0000 0.0000 0.0000
# 2 27.7110 73.9015 1.6558 0.0000 0.0000 0.0000
# 3 31.4305 1.6558 119.0077 0.0000 0.0000 0.0000
# 4 0.0000 0.0000 0.0000 124.7323 0.0000 0.0000
# 5 0.0000 0.0000 0.0000 0.0000 51.3346 0.0000
# 6 0.0000 0.0000 0.0000 0.0000 0.0000 2.7096
#
#
#
# Elastic Compliance Matrix: (Units=1/GPa)
#
#
# Indices 1 2 3 4 5 6 
#
# 1 0.004176 -0.001542 -0.001081 0.000000 0.000000 0.000000
# 2 -0.001542 0.014105 0.000211 0.000000 0.000000 0.000000
# 3 -0.001081 0.000211 0.008685 0.000000 0.000000 0.000000
# 4 0.000000 0.000000 0.000000 0.008017 0.000000 0.000000
# 5 0.000000 0.000000 0.000000 0.000000 0.019480 0.000000
# 6 0.000000 0.000000 0.000000 0.000000 0.000000 0.369065
#
#
# Mechanical properties :
#
#
# Convention : Reuss Voigt Hill
#
# Bulk Modulus (GPa) = 45.16313 63.59473 54.37893
# Shear Modulus (GPa) = 11.47493 61.75269 36.61381
#
# Velocity S-wave (km/s) = 2.03022 4.70973 3.62652
# Velocity P-wave (km/s) = 4.66029 7.24007 6.08838
#
# Compressibility (1/GPa) = 0.02214196
#
# Stress axis : x y z
#
# Youngs Moduli (GPa) = 239.47930 70.89768 115.13466
#
# Poissons Ratio (x) = 0.10929 0.12450
# Poissons Ratio (y) = 0.36917 -0.02428
# Poissons Ratio (z) = 0.25897 -0.01495
#
# Static dielectric constant tensor:
#      x y z
#    x 2.185880 0.000000 0.000000 
#    y 0.000000 2.182730 0.000000 
#    z 0.000000 0.000000 2.251290 
# 
# From -- ./inp_files/38564.got.cif
#   From: 2010.05.17/outbox.cif.g08.bks.cpg/sg71_20_cif.got.tgz:38564.got - 2010.06.03 16:22:01.
