data_PCOD9524336
_publ_section_title
;
Structure prediction by ZEFSAII (Michael W. Deem and Ramdas Pophale) SiO2 
 PCOD9524336
Probable space group: I M M M
;
_chemical_formula_sum "Si O2"
_cell_formula_units_Z 64
_cell_length_a 9.872544
_cell_length_b 32.625151
_cell_length_c 10.288526
_cell_angle_alpha 90.000000
_cell_angle_beta 90.000000
_cell_angle_gamma 90.000000
_cell_volume 3313.864661
_symmetry_space_group_name_H-M "I M M M"
_symmetry_group_IT_number 71
_symmetry_cell_setting 'orthorhombic'
loop_
_space_group_symop_operation_xyz
x,y,z
-x,-y,z
x,-y,-z
-x,y,-z
-x,-y,-z
x,y,-z
-x,y,z
x,-y,z
1/2+x,1/2+y,1/2+z
1/2-x,1/2-y,1/2+z
1/2+x,1/2-y,1/2-z
1/2-x,1/2+y,1/2-z
1/2-x,1/2-y,1/2-z
1/2+x,1/2+y,1/2-z
1/2-x,1/2+y,1/2+z
1/2+x,1/2-y,1/2+z
loop_
_atom_site_type_symbol
_atom_site_label
_atom_site_fract_x
_atom_site_fract_y
_atom_site_fract_z
Si Si1 0.753481 0.164376 0.152860
Si Si2 0.338751 0.952746 0.500000
Si Si3 0.659331 0.075165 0.220141
Si Si4 0.000000 0.718863 0.345336
Si Si5 0.350342 0.500000 0.349269
Si Si6 0.500000 0.316373 0.841448
O O1 0.692255 0.118734 0.158644
O O2 0.636360 0.195977 0.197678
O O3 0.872170 0.167010 0.259225
O O4 0.792414 0.172754 0.000000
O O5 0.500000 0.958557 0.500000
O O6 0.310105 0.926220 0.373668
O O7 0.281748 0.000000 0.500000
O O8 0.500000 0.065284 0.199346
O O9 0.758579 0.039554 0.174792
O O10 0.000000 0.712959 0.500000
O O11 0.000000 0.767077 0.321009
O O12 0.500000 0.500000 0.283397
O O13 0.373645 0.500000 0.500000
O O14 0.500000 0.323974 0.000000
#
# Coordination Sequence:
#
# PCOD9524336 Si02
#       6
#    16   8  16   8   8   8
#     4  11  23  41  67  97 130 169 217 273 326 381
#     4   9  18  36  60  88 124 162 202 258 316 364
#     4  11  22  40  66  91 122 166 219 264 316 377
#     4   9  20  43  69  96 127 164 220 276 322 385
#     4  11  25  40  57  88 128 165 206 261 318 383
#     4  11  25  43  65  94 133 174 211 262 331 401
#
# _framework density 19.312798000000001
#
# number of rings (size 3 to 8) (size 9 to 14) (size 15 to 20)
#    0.000    1.500    2.500    2.250    3.500    2.000 
#    0.000    3.125    0.000    0.000    0.000    0.000 
#    0.000    0.000    0.000    0.000    0.000    0.000 
#
# Total GULP energy -178280.740966 kJ/mol
# GULP energy per Si atom -5571.273155 kJ/mol
# Density = 1.926884 g / cm^3
# Si number density = 19.312798 Si / 1000 Ang^3
#
#
#
# Elastic Constant Matrix: (Units=GPa)
#
#
# Indices 1 2 3 4 5 6 
#
# 1 141.5135 40.1887 46.5402 0.0012 -0.0003 0.0002
# 2 40.1887 64.6190 14.4706 0.0010 -0.0003 0.0000
# 3 46.5402 14.4706 111.9782 0.0058 0.0025 0.0004
# 4 0.0012 0.0010 0.0058 31.7268 0.0005 -0.0005
# 5 -0.0003 -0.0003 0.0025 0.0005 23.8262 0.0009
# 6 0.0002 0.0000 0.0004 -0.0005 0.0009 14.9089
#
#
#
# Elastic Compliance Matrix: (Units=1/GPa)
#
#
# Indices 1 2 3 4 5 6 
#
# 1 0.009656 -0.005259 -0.003334 0.000000 0.000000 0.000000
# 2 -0.005259 0.018801 -0.000244 0.000000 0.000000 0.000000
# 3 -0.003334 -0.000244 0.010347 -0.000002 -0.000001 0.000000
# 4 0.000000 0.000000 -0.000002 0.031519 -0.000001 0.000001
# 5 0.000000 0.000000 -0.000001 -0.000001 0.041971 -0.000002
# 6 0.000000 0.000000 0.000000 0.000001 -0.000002 0.067074
#
#
# Mechanical properties :
#
#
# Convention : Reuss Voigt Hill
#
# Bulk Modulus (GPa) = 47.32330 57.83441 52.57885
# Shear Modulus (GPa) = 24.49957 28.55313 26.52635
#
# Velocity S-wave (km/s) = 3.56556 3.84924 3.71011
# Velocity P-wave (km/s) = 6.44265 7.05455 6.75553
#
# Compressibility (1/GPa) = 0.02113124
#
# Stress axis : x y z
#
# Youngs Moduli (GPa) = 103.55837 53.18948 96.64281
#
# Poissons Ratio (x) = 0.27973 0.32218
# Poissons Ratio (y) = 0.54462 0.02356
# Poissons Ratio (z) = 0.34524 0.01297
#
# Static dielectric constant tensor:
#      x y z
#    x 1.719290 0.000000 0.000000 
#    y 0.000000 1.651100 0.000000 
#    z 0.000000 0.000000 2.673650 
# 
# From -- ./inp_files/18503.got.cif
#   From: 2010.05.17/outbox.cif.g08.bks.cpg/sg71_10_cif.got.tgz:18503.got - 2010.06.03 16:22:01.
