data_PCOD9524060
_publ_section_title
;
Structure prediction by ZEFSAII (Michael W. Deem and Ramdas Pophale) SiO2 
 PCOD9524060
Probable space group: I M M M
;
_chemical_formula_sum "Si O2"
_cell_formula_units_Z 84
_cell_length_a 25.194278
_cell_length_b 16.223519
_cell_length_c 10.623491
_cell_angle_alpha 90.000000
_cell_angle_beta 90.000000
_cell_angle_gamma 90.000000
_cell_volume 4342.244095
_symmetry_space_group_name_H-M "I M M M"
_symmetry_group_IT_number 71
_symmetry_cell_setting 'orthorhombic'
loop_
_space_group_symop_operation_xyz
x,y,z
-x,-y,z
x,-y,-z
-x,y,-z
-x,-y,-z
x,y,-z
-x,y,z
x,-y,z
1/2+x,1/2+y,1/2+z
1/2-x,1/2-y,1/2+z
1/2+x,1/2-y,1/2-z
1/2-x,1/2+y,1/2-z
1/2-x,1/2-y,1/2-z
1/2+x,1/2+y,1/2-z
1/2-x,1/2+y,1/2+z
1/2+x,1/2-y,1/2+z
loop_
_atom_site_type_symbol
_atom_site_label
_atom_site_fract_x
_atom_site_fract_y
_atom_site_fract_z
Si Si1 0.118515 0.500000 0.500000
Si Si2 0.237459 0.909118 0.143027
Si Si3 0.842972 0.182551 0.278425
Si Si4 0.148294 0.372600 0.279313
Si Si5 0.722432 0.401291 0.000000
Si Si6 0.438081 0.598599 0.645885
Si Si7 0.655464 0.098757 0.500000
O O1 0.120982 0.428205 0.386246
O O2 0.196842 0.835100 0.162052
O O3 0.290365 0.903119 0.224509
O O4 0.212009 0.000000 0.162862
O O5 0.257442 0.908408 0.000000
O O6 0.849170 0.276848 0.314994
O O7 0.811104 0.131765 0.382718
O O8 0.898924 0.144310 0.239723
O O9 0.129110 0.376816 0.133775
O O10 0.783241 0.370297 0.000000
O O11 0.723483 0.500000 0.000000
O O12 0.425189 0.619153 0.500000
O O13 0.500000 0.618195 0.666843
O O14 0.431989 0.500000 0.658635
O O15 0.657034 0.000000 0.500000
#
# Coordination Sequence:
#
# PCOD9524060 Si02
#       7
#     4  16  16  16   8  16   8
#     4  12  22  46  58  70 115 170 205 238 278 356
#     4  11  20  34  53  77 115 162 198 228 275 341
#     4  12  24  33  55  86 113 149 194 251 284 339
#     4  12  23  36  56  79 116 156 205 234 288 335
#     4  11  23  35  51  72 119 158 190 231 296 334
#     4   9  19  39  63  85 114 151 188 231 289 349
#     4  11  22  37  51  77 110 160 189 240 283 339
#
# _framework density 19.344835
#
# number of rings (size 3 to 8) (size 9 to 14) (size 15 to 20)
#    0.000    0.952    4.762    4.000    2.667    1.524 
#    0.000    0.476    0.000    1.714    0.000    1.333 
#    0.000    2.286    0.000    0.000    0.000    0.000 
#
# Total GULP energy -233850.830127 kJ/mol
# GULP energy per Si atom -5567.876908 kJ/mol
# Density = 1.930081 g / cm^3
# Si number density = 19.344835 Si / 1000 Ang^3
#
#
#
# Elastic Constant Matrix: (Units=GPa)
#
#
# Indices 1 2 3 4 5 6 
#
# 1 21.2578 -5.6124 1.6314 0.0000 0.0000 0.0000
# 2 -5.6124 84.4155 12.4868 0.0000 0.0000 0.0000
# 3 1.6314 12.4868 109.9749 0.0000 0.0000 0.0000
# 4 0.0000 0.0000 0.0000 19.9572 0.0000 0.0000
# 5 0.0000 0.0000 0.0000 0.0000 13.6347 0.0000
# 6 0.0000 0.0000 0.0000 0.0000 0.0000 25.5737
#
#
#
# Elastic Compliance Matrix: (Units=1/GPa)
#
#
# Indices 1 2 3 4 5 6 
#
# 1 0.048011 0.003354 -0.001093 0.000000 0.000000 0.000000
# 2 0.003354 0.012283 -0.001444 0.000000 0.000000 0.000000
# 3 -0.001093 -0.001444 0.009273 0.000000 0.000000 0.000000
# 4 0.000000 0.000000 0.000000 0.050107 0.000000 0.000000
# 5 0.000000 0.000000 0.000000 0.000000 0.073342 0.000000
# 6 0.000000 0.000000 0.000000 0.000000 0.000000 0.039103
#
#
# Mechanical properties :
#
#
# Convention : Reuss Voigt Hill
#
# Bulk Modulus (GPa) = 14.04506 25.85109 19.94807
# Shear Modulus (GPa) = 19.66806 25.64262 22.65534
#
# Velocity S-wave (km/s) = 3.19205 3.64477 3.42589
# Velocity P-wave (km/s) = 4.56746 5.57716 5.09737
#
# Compressibility (1/GPa) = 0.07119943
#
# Stress axis : x y z
#
# Youngs Moduli (GPa) = 20.82866 81.41476 107.83778
#
# Poissons Ratio (x) = -0.27304 0.11786
# Poissons Ratio (y) = -0.06985 0.15576
# Poissons Ratio (z) = 0.02277 0.11759
#
# Static dielectric constant tensor:
#      x y z
#    x 1.639310 0.000000 0.000000 
#    y 0.000000 1.692390 0.000000 
#    z 0.000000 0.000000 1.869860 
# 
# From -- ./inp_files/27232.got.cif
#   From: 2010.05.17/outbox.cif.g08.bks.cpg/sg71_14_cif.got.tgz:27232.got - 2010.06.03 16:22:01.
