data_PCOD9524898
_publ_section_title
;
Structure prediction by ZEFSAII (Michael W. Deem and Ramdas Pophale) SiO2 
 PCOD9524898
Probable space group: I M M M
;
_chemical_formula_sum "Si O2"
_cell_formula_units_Z 48
_cell_length_a 27.000000
_cell_length_b 15.000000
_cell_length_c 15.000000
_cell_angle_alpha 90.000000
_cell_angle_beta 90.000000
_cell_angle_gamma 90.000000
_cell_volume 6075.000000
_symmetry_space_group_name_H-M "I M M M"
_symmetry_group_IT_number 71
_symmetry_cell_setting 'orthorhombic'
loop_
_space_group_symop_operation_xyz
x,y,z
-x,-y,z
x,-y,-z
-x,y,-z
-x,-y,-z
x,y,-z
-x,y,z
x,-y,z
1/2+x,1/2+y,1/2+z
1/2-x,1/2-y,1/2+z
1/2+x,1/2-y,1/2-z
1/2-x,1/2+y,1/2-z
1/2-x,1/2-y,1/2-z
1/2+x,1/2+y,1/2-z
1/2-x,1/2+y,1/2+z
1/2+x,1/2-y,1/2+z
loop_
_atom_site_type_symbol
_atom_site_label
_atom_site_fract_x
_atom_site_fract_y
_atom_site_fract_z
Si Si1 0.799916 0.894038 0.104013
Si Si2 0.647503 0.755253 0.723552
Si Si3 0.059284 0.000000 0.100354
Si Si4 0.059103 0.144824 0.750624
Si Si5 0.201614 0.394462 0.894513
Si Si6 0.060202 0.000000 0.396649
Si Si7 0.786559 0.745849 0.398235
O O1 0.831704 0.830633 0.168588
O O2 0.746672 0.844173 0.107879
O O3 0.799496 0.000000 0.126389
O O4 0.815921 0.885973 0.000000
O O5 0.590165 0.734481 0.740503
O O6 0.661737 0.842891 0.666773
O O7 0.674694 0.757136 0.818661
O O8 0.070648 0.084665 0.162039
O O9 0.000000 0.000000 0.092102
O O10 0.080223 0.000000 0.000000
O O11 0.074282 0.086008 0.663584
O O12 0.000000 0.157208 0.746810
O O13 0.208280 0.500000 0.873308
O O14 0.250595 0.332093 0.883755
O O15 0.188675 0.388548 0.000000
O O16 0.077413 0.000000 0.500000
O O17 0.000000 0.000000 0.398665
O O18 0.805745 0.751902 0.500000
#
# Coordination Sequence:
#
# PCOD9524898 Si02
#       7
#    16  16   8  16  16   8  16
#     4   9  18  31  48  71  98 122 146 185 236 289
#     4  11  20  29  49  72  93 127 162 196 234 283
#     4   8  15  29  46  61  85 122 151 179 226 279
#     4   9  19  32  44  67  97 123 160 200 233 276
#     4   9  18  34  52  70  95 126 160 199 240 285
#     4   8  15  31  50  63  87 130 167 195 234 281
#     4   9  19  33  46  68  98 123 154 196 235 278
#
# _framework density 7.9012349999999998
#
# number of rings (size 3 to 8) (size 9 to 14) (size 15 to 20)
#    0.000    2.833    0.000    4.500    2.333    4.667 
#    0.000    0.000    0.000    0.500    0.000    1.167 
#    0.000    0.000    0.000    9.833    0.000    0.000 
#
# Total GULP energy -267315.960933 kJ/mol
# GULP energy per Si atom -5569.082519 kJ/mol
# Density = 0.788325 g / cm^3
# Si number density = 7.901235 Si / 1000 Ang^3
#
#
#
# Elastic Constant Matrix: (Units=GPa)
#
#
# Indices 1 2 3 4 5 6 
#
# 1 48.7411 20.8928 32.3528 0.0000 0.0000 0.0000
# 2 20.8928 100.1077 29.4673 0.0000 0.0000 0.0000
# 3 32.3528 29.4673 99.1429 0.0000 0.0000 0.0000
# 4 0.0000 0.0000 0.0000 20.5448 0.0000 0.0000
# 5 0.0000 0.0000 0.0000 0.0000 0.7658 0.0000
# 6 0.0000 0.0000 0.0000 0.0000 0.0000 16.9424
#
#
#
# Elastic Compliance Matrix: (Units=1/GPa)
#
#
# Indices 1 2 3 4 5 6 
#
# 1 0.027180 -0.003355 -0.007872 0.000000 0.000000 0.000000
# 2 -0.003355 0.011361 -0.002282 0.000000 0.000000 0.000000
# 3 -0.007872 -0.002282 0.013334 0.000000 0.000000 0.000000
# 4 0.000000 0.000000 0.000000 0.048674 0.000000 0.000000
# 5 0.000000 0.000000 0.000000 0.000000 1.305900 0.000000
# 6 0.000000 0.000000 0.000000 0.000000 0.000000 0.059024
#
#
# Mechanical properties :
#
#
# Convention : Reuss Voigt Hill
#
# Bulk Modulus (GPa) = 40.23170 45.93527 43.08349
# Shear Modulus (GPa) = 3.33161 18.66917 11.00039
#
# Velocity S-wave (km/s) = 1.45357 3.44089 2.64127
# Velocity P-wave (km/s) = 5.32274 6.70208 6.05183
#
# Compressibility (1/GPa) = 0.02485602
#
# Stress axis : x y z
#
# Youngs Moduli (GPa) = 36.79139 88.01896 74.99848
#
# Poissons Ratio (x) = 0.29533 0.59041
# Poissons Ratio (y) = 0.12345 0.17113
# Poissons Ratio (z) = 0.28963 0.20085
#
# Static dielectric constant tensor:
#      x y z
#    x 1.544220 0.000000 0.000000 
#    y 0.000000 1.515570 0.000000 
#    z 0.000000 0.000000 1.547320 
# 
# From -- ./inp_files/40295.got.cif
#   From: 2010.05.17/outbox.ucp.g08.bks.cvg/sg71_21_cif.got.tgz:40295.got - 2010.06.11 16:29:00.
