data_PCOD9524116
_publ_section_title
;
Structure prediction by ZEFSAII (Michael W. Deem and Ramdas Pophale) SiO2 
 PCOD9524116
Probable space group: I M M M
;
_chemical_formula_sum "Si O2"
_cell_formula_units_Z 104
_cell_length_a 8.890101
_cell_length_b 23.389930
_cell_length_c 30.623894
_cell_angle_alpha 90.000000
_cell_angle_beta 90.000000
_cell_angle_gamma 90.000000
_cell_volume 6367.896997
_symmetry_space_group_name_H-M "I M M M"
_symmetry_group_IT_number 71
_symmetry_cell_setting 'orthorhombic'
loop_
_space_group_symop_operation_xyz
x,y,z
-x,-y,z
x,-y,-z
-x,y,-z
-x,-y,-z
x,y,-z
-x,y,z
x,-y,z
1/2+x,1/2+y,1/2+z
1/2-x,1/2-y,1/2+z
1/2+x,1/2-y,1/2-z
1/2-x,1/2+y,1/2-z
1/2-x,1/2-y,1/2-z
1/2+x,1/2+y,1/2-z
1/2-x,1/2+y,1/2+z
1/2+x,1/2-y,1/2+z
loop_
_atom_site_type_symbol
_atom_site_label
_atom_site_fract_x
_atom_site_fract_y
_atom_site_fract_z
Si Si1 0.318316 0.567652 0.809447
Si Si2 0.679368 0.500000 0.051907
Si Si3 0.326278 0.430607 0.287400
Si Si4 0.180733 0.392366 0.897747
Si Si5 0.681643 0.156605 0.050264
Si Si6 0.819419 0.721181 0.949274
Si Si7 0.318959 0.065809 0.877848
O O1 0.500000 0.572203 0.811892
O O2 0.282048 0.500000 0.814349
O O3 0.271795 0.587191 0.760744
O O4 0.241528 0.600844 0.848758
O O5 0.500000 0.500000 0.059582
O O6 0.750431 0.444153 0.074133
O O7 0.706923 0.500000 0.000000
O O8 0.500000 0.413066 0.292315
O O9 0.323953 0.500000 0.285976
O O10 0.235288 0.413764 0.330254
O O11 0.225105 0.332130 0.919394
O O12 0.000000 0.396729 0.898421
O O13 0.500000 0.158306 0.051208
O O14 0.744192 0.218768 0.062691
O O15 0.732743 0.107777 0.083754
O O16 0.727543 0.145005 0.000000
O O17 0.000000 0.727326 0.946810
O O18 0.780589 0.708894 0.000000
O O19 0.500000 0.065150 0.878193
O O20 0.267468 0.000000 0.884214
#
# Coordination Sequence:
#
# PCOD9524116 Si02
#       7
#    16   8  16  16  16  16  16
#     4   9  17  30  47  68  97 128 159 197 242 291
#     4  11  23  35  47  67  97 131 163 199 246 295
#     4   8  15  28  46  68  95 129 161 191 231 283
#     4  11  21  32  49  72  96 124 160 204 250 293
#     4   9  18  32  50  72  97 127 163 197 232 282
#     4   9  19  35  51  67  91 125 163 201 241 284
#     4   9  17  29  47  74 104 129 154 191 238 284
#
# _framework density 16.331923
#
# number of rings (size 3 to 8) (size 9 to 14) (size 15 to 20)
#    0.000    2.692    0.769    2.077    0.000    4.000 
#    0.000    4.615    0.000    0.923    0.000    4.308 
#    0.000    0.000    0.000    0.000    0.000    0.000 
#
# Total GULP energy -289799.427738 kJ/mol
# GULP energy per Si atom -5573.065918 kJ/mol
# Density = 1.629475 g / cm^3
# Si number density = 16.331923 Si / 1000 Ang^3
#
#
#
# Elastic Constant Matrix: (Units=GPa)
#
#
# Indices 1 2 3 4 5 6 
#
# 1 19.0950 30.9286 40.4721 0.0000 0.0000 0.0000
# 2 30.9286 99.7768 93.3967 0.0000 0.0000 0.0000
# 3 40.4721 93.3967 147.8513 0.0000 0.0000 0.0000
# 4 0.0000 0.0000 0.0000 14.2678 0.0000 0.0000
# 5 0.0000 0.0000 0.0000 0.0000 27.8928 0.0000
# 6 0.0000 0.0000 0.0000 0.0000 0.0000 22.3580
#
#
#
# Elastic Compliance Matrix: (Units=1/GPa)
#
#
# Indices 1 2 3 4 5 6 
#
# 1 0.136778 -0.017987 -0.026079 0.000000 0.000000 0.000000
# 2 -0.017987 0.026888 -0.012061 0.000000 0.000000 0.000000
# 3 -0.026079 -0.012061 0.021521 0.000000 0.000000 0.000000
# 4 0.000000 0.000000 0.000000 0.070088 0.000000 0.000000
# 5 0.000000 0.000000 0.000000 0.000000 0.035852 0.000000
# 6 0.000000 0.000000 0.000000 0.000000 0.000000 0.044727
#
#
# Mechanical properties :
#
#
# Convention : Reuss Voigt Hill
#
# Bulk Modulus (GPa) = 13.71114 66.25755 39.98435
# Shear Modulus (GPa) = 10.58382 19.69877 15.14129
#
# Velocity S-wave (km/s) = 2.54843 3.47674 3.04813
# Velocity P-wave (km/s) = 4.13194 7.53488 6.07648
#
# Compressibility (1/GPa) = 0.07293339
#
# Stress axis : x y z
#
# Youngs Moduli (GPa) = 7.31109 37.19128 46.46582
#
# Poissons Ratio (x) = 0.66897 1.21177
# Poissons Ratio (y) = 0.13151 0.56044
# Poissons Ratio (z) = 0.19066 0.44857
#
# Static dielectric constant tensor:
#      x y z
#    x 1.551630 0.000000 0.000000 
#    y 0.000000 1.523050 0.000000 
#    z 0.000000 0.000000 1.558540 
# 
# From -- ./inp_files/68433.got.cif
#   From: 2010.05.17/outbox.cif.g08.bks.cpg/sg71_35_cif.got.tgz:68433.got - 2010.06.03 16:22:01.
