data_PCOD9524972
_publ_section_title
;
Structure prediction by ZEFSAII (Michael W. Deem and Ramdas Pophale) SiO2 
 PCOD9524972
Probable space group: I B A M
;
_chemical_formula_sum "Si O2"
_cell_formula_units_Z 48
_cell_length_a 24.842188
_cell_length_b 5.067153
_cell_length_c 19.004269
_cell_angle_alpha 90.000000
_cell_angle_beta 90.000000
_cell_angle_gamma 90.000000
_cell_volume 2392.241560
_symmetry_space_group_name_H-M "I B A M"
_symmetry_group_IT_number 72
_symmetry_cell_setting 'orthorhombic'
loop_
_space_group_symop_operation_xyz
x,y,z
-x,-y,z
x,-y,1/2-z
-x,y,1/2-z
-x,-y,-z
x,y,-z
-x,y,1/2+z
x,-y,1/2+z
1/2+x,1/2+y,1/2+z
1/2-x,1/2-y,1/2+z
1/2+x,1/2-y,-z
1/2-x,1/2+y,-z
1/2-x,1/2-y,1/2-z
1/2+x,1/2+y,1/2-z
1/2-x,1/2+y,z
1/2+x,1/2-y,z
loop_
_atom_site_type_symbol
_atom_site_label
_atom_site_fract_x
_atom_site_fract_y
_atom_site_fract_z
Si Si1 0.000000 0.000000 0.750000
Si Si2 0.384205 0.283082 0.079921
Si Si3 0.500000 0.500000 0.000000
Si Si4 0.715234 0.106755 0.500000
Si Si5 0.937573 0.728145 0.127513
O O1 0.964625 0.815591 0.800529
O O2 0.388026 0.570040 0.112749
O O3 0.324498 0.178707 0.064510
O O4 0.417001 0.068825 0.123203
O O5 0.410281 0.305050 0.000000
O O6 0.523188 0.299521 0.063149
O O7 0.734953 0.807781 0.500000
#
# Coordination Sequence:
#
# PCOD9524972 Si02
#       5
#     4  16   4   8  16
#     4  10  28  36  56  80 116 156 208 224 252 324
#     4  10  20  34  56  80 112 142 176 227 290 327
#     4  10  16  30  52  68 100 136 180 230 256 320
#     4  10  18  31  56  93 116 127 176 237 296 340
#     4  11  21  36  51  80 110 150 189 227 274 318
#
# _framework density 20.064864
#
# number of rings (size 3 to 8) (size 9 to 14) (size 15 to 20)
#    1.000    0.667    3.333    2.000    0.000    9.333 
#    0.000    0.000    0.000    0.000    0.000   23.333 
#    0.000    0.000    0.000    0.000    0.000    0.000 
#
# Total GULP energy -133661.601302 kJ/mol
# GULP energy per Si atom -5569.233388 kJ/mol
# Density = 2.001920 g / cm^3
# Si number density = 20.064864 Si / 1000 Ang^3
#
#
#
# Elastic Constant Matrix: (Units=GPa)
#
#
# Indices 1 2 3 4 5 6 
#
# 1 43.5641 -4.0704 15.9178 0.0000 0.0000 0.0000
# 2 -4.0704 69.2939 -2.6069 0.0000 0.0000 0.0000
# 3 15.9178 -2.6069 103.0261 0.0000 0.0000 0.0000
# 4 0.0000 0.0000 0.0000 14.0591 0.0000 0.0000
# 5 0.0000 0.0000 0.0000 0.0000 15.6540 0.0000
# 6 0.0000 0.0000 0.0000 0.0000 0.0000 38.0626
#
#
#
# Elastic Compliance Matrix: (Units=1/GPa)
#
#
# Indices 1 2 3 4 5 6 
#
# 1 0.024444 0.001295 -0.003744 0.000000 0.000000 0.000000
# 2 0.001295 0.014514 0.000167 0.000000 0.000000 0.000000
# 3 -0.003744 0.000167 0.010289 0.000000 0.000000 0.000000
# 4 0.000000 0.000000 0.000000 0.071128 0.000000 0.000000
# 5 0.000000 0.000000 0.000000 0.000000 0.063882 0.000000
# 6 0.000000 0.000000 0.000000 0.000000 0.000000 0.026273
#
#
# Mechanical properties :
#
#
# Convention : Reuss Voigt Hill
#
# Bulk Modulus (GPa) = 22.37992 26.04055 24.21024
# Shear Modulus (GPa) = 21.74043 27.33137 24.53590
#
# Velocity S-wave (km/s) = 3.29524 3.69474 3.50069
# Velocity P-wave (km/s) = 5.06519 5.58639 5.33216
#
# Compressibility (1/GPa) = 0.04468290
#
# Stress axis : x y z
#
# Youngs Moduli (GPa) = 40.91045 68.90070 97.19177
#
# Poissons Ratio (x) = -0.08923 0.36387
# Poissons Ratio (y) = -0.05298 -0.01625
# Poissons Ratio (z) = 0.15316 -0.01152
#
# Static dielectric constant tensor:
#      x y z
#    x 1.210840 0.000000 0.000000 
#    y 0.000000 1.653560 0.000000 
#    z 0.000000 0.000000 1.690350 
# 
# From -- ./inp_files/40526.got.cif
#   From: 2010.05.17/outbox.cif.g08.bks.cpg/sg72_21_cif.got.tgz:40526.got - 2010.06.03 17:03:01.
