data_PCOD9524029
_publ_section_title
;
Structure prediction by ZEFSAII (Michael W. Deem and Ramdas Pophale) SiO2 
 PCOD9524029
Probable space group: I M M M
;
_chemical_formula_sum "Si O2"
_cell_formula_units_Z 72
_cell_length_a 23.058083
_cell_length_b 9.053575
_cell_length_c 23.619404
_cell_angle_alpha 90.000000
_cell_angle_beta 90.000000
_cell_angle_gamma 90.000000
_cell_volume 4930.741519
_symmetry_space_group_name_H-M "I M M M"
_symmetry_group_IT_number 71
_symmetry_cell_setting 'orthorhombic'
loop_
_space_group_symop_operation_xyz
x,y,z
-x,-y,z
x,-y,-z
-x,y,-z
-x,-y,-z
x,y,-z
-x,y,z
x,-y,z
1/2+x,1/2+y,1/2+z
1/2-x,1/2-y,1/2+z
1/2+x,1/2-y,1/2-z
1/2-x,1/2+y,1/2-z
1/2-x,1/2-y,1/2-z
1/2+x,1/2+y,1/2-z
1/2-x,1/2+y,1/2+z
1/2+x,1/2-y,1/2+z
loop_
_atom_site_type_symbol
_atom_site_label
_atom_site_fract_x
_atom_site_fract_y
_atom_site_fract_z
Si Si1 0.732513 0.177260 0.563572
Si Si2 0.692540 0.830094 0.681358
Si Si3 0.069171 0.826536 0.500000
Si Si4 0.831171 0.169393 0.708002
Si Si5 0.854935 0.676305 0.594582
O O1 0.710858 0.204418 0.500000
O O2 0.690482 0.217453 0.615726
O O3 0.793011 0.262171 0.572244
O O4 0.743715 0.000000 0.569139
O O5 0.761762 0.827116 0.695124
O O6 0.662197 0.731545 0.728753
O O7 0.673467 0.000000 0.686773
O O8 0.096817 0.748360 0.445342
O O9 0.000000 0.814539 0.500000
O O10 0.085392 0.000000 0.500000
O O11 0.859638 0.268249 0.659253
O O12 0.850033 0.000000 0.703206
O O13 0.856024 0.500000 0.591308
#
# Coordination Sequence:
#
# PCOD9524029 Si02
#       5
#    16  16   8  16  16
#     4   9  16  26  40  55  77 106 133 160 193 234
#     4   8  14  23  35  54  75  97 126 160 191 221
#     4  11  23  37  49  59  75  99 127 161 203 249
#     4   9  16  26  39  53  72  98 124 155 193 233
#     4  11  20  29  43  60  75  94 123 162 200 236
#
# _framework density 14.602266
#
# number of rings (size 3 to 8) (size 9 to 14) (size 15 to 20)
#    0.000    2.556    1.111    4.333    0.000    6.222 
#    0.000    0.000    0.000    0.000    0.000    0.000 
#    0.000    0.000    0.000    0.000    0.000    1.111 
#
# Total GULP energy -200491.226075 kJ/mol
# GULP energy per Si atom -5569.200724 kJ/mol
# Density = 1.456903 g / cm^3
# Si number density = 14.602266 Si / 1000 Ang^3
#
#
#
# Elastic Constant Matrix: (Units=GPa)
#
#
# Indices 1 2 3 4 5 6 
#
# 1 17.0534 22.3808 20.4961 0.0000 0.0000 0.0000
# 2 22.3808 91.3358 58.3129 0.0000 0.0000 0.0000
# 3 20.4961 58.3129 150.6160 0.0000 0.0000 0.0000
# 4 0.0000 0.0000 0.0000 26.5711 0.0000 0.0000
# 5 0.0000 0.0000 0.0000 0.0000 8.7095 0.0000
# 6 0.0000 0.0000 0.0000 0.0000 0.0000 8.0714
#
#
#
# Elastic Compliance Matrix: (Units=1/GPa)
#
#
# Indices 1 2 3 4 5 6 
#
# 1 0.089052 -0.018709 -0.004875 0.000000 0.000000 0.000000
# 2 -0.018709 0.018474 -0.004607 0.000000 0.000000 0.000000
# 3 -0.004875 -0.004607 0.009086 0.000000 0.000000 0.000000
# 4 0.000000 0.000000 0.000000 0.037635 0.000000 0.000000
# 5 0.000000 0.000000 0.000000 0.000000 0.114817 0.000000
# 6 0.000000 0.000000 0.000000 0.000000 0.000000 0.123894
#
#
# Mechanical properties :
#
#
# Convention : Reuss Voigt Hill
#
# Bulk Modulus (GPa) = 16.60262 51.26496 33.93379
# Shear Modulus (GPa) = 10.65155 19.19143 14.92149
#
# Velocity S-wave (km/s) = 2.70375 3.62923 3.20012
# Velocity P-wave (km/s) = 4.59800 7.26261 6.07812
#
# Compressibility (1/GPa) = 0.06023147
#
# Stress axis : x y z
#
# Youngs Moduli (GPa) = 11.22944 54.13026 110.05608
#
# Poissons Ratio (x) = 1.01270 0.53653
# Poissons Ratio (y) = 0.21009 0.50698
# Poissons Ratio (z) = 0.05474 0.24935
#
# Static dielectric constant tensor:
#      x y z
#    x 1.434110 0.000000 0.000000 
#    y 0.000000 1.490150 0.000000 
#    z 0.000000 0.000000 1.531990 
# 
# From -- ./inp_files/10656.got.cif
#   From: 2010.05.17/outbox.cif.g08.bks.cpg/sg71_6_cif.got.tgz:10656.got - 2010.06.03 16:22:01.
