data_PCOD9524462
_publ_section_title
;
Structure prediction by ZEFSAII (Michael W. Deem and Ramdas Pophale) SiO2 
 PCOD9524462
Probable space group: I M M M
;
_chemical_formula_sum "Si O2"
_cell_formula_units_Z 88
_cell_length_a 14.148958
_cell_length_b 27.041748
_cell_length_c 13.737299
_cell_angle_alpha 90.000000
_cell_angle_beta 90.000000
_cell_angle_gamma 90.000000
_cell_volume 5256.063093
_symmetry_space_group_name_H-M "I M M M"
_symmetry_group_IT_number 71
_symmetry_cell_setting 'orthorhombic'
loop_
_space_group_symop_operation_xyz
x,y,z
-x,-y,z
x,-y,-z
-x,y,-z
-x,-y,-z
x,y,-z
-x,y,z
x,-y,z
1/2+x,1/2+y,1/2+z
1/2-x,1/2-y,1/2+z
1/2+x,1/2-y,1/2-z
1/2-x,1/2+y,1/2-z
1/2-x,1/2-y,1/2-z
1/2+x,1/2+y,1/2-z
1/2-x,1/2+y,1/2+z
1/2+x,1/2-y,1/2+z
loop_
_atom_site_type_symbol
_atom_site_label
_atom_site_fract_x
_atom_site_fract_y
_atom_site_fract_z
Si Si1 0.108864 0.811799 0.386767
Si Si2 0.737702 0.131483 0.739190
Si Si3 0.889826 0.443069 0.882679
Si Si4 0.110779 0.692811 0.612683
Si Si5 0.500000 0.056667 0.882533
Si Si6 0.713303 0.941300 0.114151
O O1 0.125622 0.824876 0.500000
O O2 0.182701 0.839137 0.318520
O O3 0.117434 0.752262 0.380031
O O4 0.000000 0.824232 0.363103
O O5 0.674980 0.098659 0.664931
O O6 0.676071 0.168968 0.805170
O O7 0.777376 0.091346 0.816412
O O8 0.863548 0.500000 0.855799
O O9 0.000000 0.436000 0.854115
O O10 0.885273 0.440138 0.000000
O O11 0.135748 0.679202 0.500000
O O12 0.000000 0.678981 0.625598
O O13 0.604885 0.074898 0.858758
O O14 0.500000 0.000000 0.849023
O O15 0.500000 0.056249 0.000000
O O16 0.720645 0.000000 0.129190
O O17 0.727527 0.932334 0.000000
#
# Coordination Sequence:
#
# PCOD9524462 Si02
#       6
#    16  16  16  16   8  16
#     4   9  20  39  56  69  93 128 166 215 268 302
#     4  12  19  28  52  81  95 124 172 213 236 291
#     4   9  19  33  45  65 103 141 167 197 244 301
#     4   9  19  34  51  76 108 134 156 192 249 311
#     4   7  12  24  38  56  93 139 165 177 208 268
#     4   9  18  29  42  68 107 139 160 189 233 287
#
# _framework density 16.742570000000001
#
# number of rings (size 3 to 8) (size 9 to 14) (size 15 to 20)
#    0.000    2.636    0.000    5.455    2.545    0.000 
#    0.000    0.000    0.000    4.364    0.000   17.818 
#    0.000    0.000    0.000    0.000    0.000    0.000 
#
# Total GULP energy -245331.235753 kJ/mol
# GULP energy per Si atom -5575.709903 kJ/mol
# Density = 1.670446 g / cm^3
# Si number density = 16.742570 Si / 1000 Ang^3
#
#
#
# Elastic Constant Matrix: (Units=GPa)
#
#
# Indices 1 2 3 4 5 6 
#
# 1 84.6935 64.2849 71.9364 0.0000 0.0000 0.0000
# 2 64.2849 90.2500 63.7486 -0.0002 0.0000 0.0000
# 3 71.9364 63.7486 107.8587 -0.0002 0.0000 0.0000
# 4 0.0000 -0.0002 -0.0002 37.9813 0.0000 0.0000
# 5 0.0000 0.0000 0.0000 0.0000 32.1472 0.0000
# 6 0.0000 0.0000 0.0000 0.0000 0.0000 25.9566
#
#
#
# Elastic Compliance Matrix: (Units=1/GPa)
#
#
# Indices 1 2 3 4 5 6 
#
# 1 0.036098 -0.014946 -0.015242 0.000000 0.000000 0.000000
# 2 -0.014946 0.025210 -0.004932 0.000000 0.000000 0.000000
# 3 -0.015242 -0.004932 0.022352 0.000000 0.000000 0.000000
# 4 0.000000 0.000000 0.000000 0.026329 0.000000 0.000000
# 5 0.000000 0.000000 0.000000 0.000000 0.031107 0.000000
# 6 0.000000 0.000000 0.000000 0.000000 0.000000 0.038526
#
#
# Mechanical properties :
#
#
# Convention : Reuss Voigt Hill
#
# Bulk Modulus (GPa) = 74.51416 75.86024 75.18720
# Shear Modulus (GPa) = 19.65921 24.73917 22.19919
#
# Velocity S-wave (km/s) = 3.43039 3.84815 3.64526
# Velocity P-wave (km/s) = 7.76482 8.07171 7.91975
#
# Compressibility (1/GPa) = 0.01342027
#
# Stress axis : x y z
#
# Youngs Moduli (GPa) = 27.70247 39.66660 44.73970
#
# Poissons Ratio (x) = 0.59288 0.68190
# Poissons Ratio (y) = 0.41405 0.22064
# Poissons Ratio (z) = 0.42223 0.19562
#
# Static dielectric constant tensor:
#      x y z
#    x 1.546130 0.000000 0.000000 
#    y 0.000000 1.592190 0.000000 
#    z 0.000000 0.000000 1.597040 
# 
# From -- ./inp_files/32983.got.cif
#   From: 2010.05.17/outbox.cif.g08.bks.cpg/sg71_17_cif.got.tgz:32983.got - 2010.06.03 16:22:01.
