data_PCOD9524411
_publ_section_title
;
Structure prediction by ZEFSAII (Michael W. Deem and Ramdas Pophale) SiO2 
 PCOD9524411
Probable space group: I M M M
;
_chemical_formula_sum "Si O2"
_cell_formula_units_Z 44
_cell_length_a 7.465788
_cell_length_b 18.738534
_cell_length_c 14.809180
_cell_angle_alpha 90.000000
_cell_angle_beta 90.000000
_cell_angle_gamma 90.000000
_cell_volume 2071.773513
_symmetry_space_group_name_H-M "I M M M"
_symmetry_group_IT_number 71
_symmetry_cell_setting 'orthorhombic'
loop_
_space_group_symop_operation_xyz
x,y,z
-x,-y,z
x,-y,-z
-x,y,-z
-x,-y,-z
x,y,-z
-x,y,z
x,-y,z
1/2+x,1/2+y,1/2+z
1/2-x,1/2-y,1/2+z
1/2+x,1/2-y,1/2-z
1/2-x,1/2+y,1/2-z
1/2-x,1/2-y,1/2-z
1/2+x,1/2+y,1/2-z
1/2-x,1/2+y,1/2+z
1/2+x,1/2-y,1/2+z
loop_
_atom_site_type_symbol
_atom_site_label
_atom_site_fract_x
_atom_site_fract_y
_atom_site_fract_z
Si Si1 0.790008 0.083017 0.750555
Si Si2 0.000000 0.413542 0.397785
Si Si3 0.790351 0.780325 0.650607
Si Si4 0.000000 0.245399 0.000000
O O1 0.671191 0.104899 0.836709
O O2 0.755829 0.134777 0.666378
O O3 0.000000 0.089318 0.773424
O O4 0.750860 0.000000 0.730836
O O5 0.000000 0.500000 0.404408
O O6 0.000000 0.385906 0.500000
O O7 0.750000 0.750000 0.750000
O O8 0.656409 0.749411 0.578372
O O9 0.000000 0.769598 0.629081
#
# Coordination Sequence:
#
# PCOD9524411 Si02
#       4
#    16   8  16   4
#     4   9  19  37  60  84 118 164 207 257 314 371
#     4   9  17  30  49  81 119 154 201 254 304 363
#     4  11  23  43  66  93 129 166 211 266 318 379
#     4  12  24  44  71  94 129 174 212 262 328 384
#
# _framework density 21.237843000000002
#
# number of rings (size 3 to 8) (size 9 to 14) (size 15 to 20)
#    0.000    2.000    1.818    1.636    0.000    0.727 
#    3.273    5.455    0.000    4.364    0.000    0.000 
#    0.000    0.000    0.000    0.000    0.000    0.000 
#
# Total GULP energy -122474.521308 kJ/mol
# GULP energy per Si atom -5567.023696 kJ/mol
# Density = 2.118950 g / cm^3
# Si number density = 21.237843 Si / 1000 Ang^3
#
#
#
# Elastic Constant Matrix: (Units=GPa)
#
#
# Indices 1 2 3 4 5 6 
#
# 1 123.7499 22.1489 54.3327 0.0000 0.0000 0.0000
# 2 22.1489 72.9626 16.2516 0.0000 0.0000 0.0000
# 3 54.3327 16.2516 116.1067 0.0000 0.0000 0.0000
# 4 0.0000 0.0000 0.0000 -2.3816 0.0000 0.0000
# 5 0.0000 0.0000 0.0000 0.0000 50.2966 0.0000
# 6 0.0000 0.0000 0.0000 0.0000 0.0000 13.4936
#
#
#
# Elastic Compliance Matrix: (Units=1/GPa)
#
#
# Indices 1 2 3 4 5 6 
#
# 1 0.010490 -0.002158 -0.004607 0.000000 0.000000 0.000000
# 2 -0.002158 0.014591 -0.001032 0.000000 0.000000 0.000000
# 3 -0.004607 -0.001032 0.010913 0.000000 0.000000 0.000000
# 4 0.000000 0.000000 0.000000 -0.419880 0.000000 0.000000
# 5 0.000000 0.000000 0.000000 0.000000 0.019882 0.000000
# 6 0.000000 0.000000 0.000000 0.000000 0.000000 0.074109
#
#
# Mechanical properties :
#
#
# Convention : Reuss Voigt Hill
#
# Bulk Modulus (GPa) = 49.02191 55.36506 52.19348
# Shear Modulus (GPa) = -18.69147 26.95413 4.13133
#
# Velocity S-wave (km/s) = -2.96987 3.56639 1.39624
# Velocity P-wave (km/s) = 3.37228 6.56388 5.21808
#
# Compressibility (1/GPa) = 0.02039904
#
# Stress axis : x y z
#
# Youngs Moduli (GPa) = 95.33228 68.53656 91.63434
#
# Poissons Ratio (x) = 0.14792 0.42212
# Poissons Ratio (y) = 0.20575 0.09460
# Poissons Ratio (z) = 0.43916 0.07075
#
# Static dielectric constant tensor:
#      x y z
#    x 1.756390 0.000000 0.000000 
#    y 0.000000 1.903910 0.000000 
#    z 0.000000 0.000000 1.687510 
# 
# From -- ./inp_files/30882.got.cif
#   From: 2010.05.17/outbox.cif.g08.bks.cpg/sg71_16_cif.got.tgz:30882.got - 2010.06.03 16:22:01.
