data_PCOD9524523
_publ_section_title
;
Structure prediction by ZEFSAII (Michael W. Deem and Ramdas Pophale) SiO2 
 PCOD9524523
Probable space group: I M M M
;
_chemical_formula_sum "Si O2"
_cell_formula_units_Z 104
_cell_length_a 23.584356
_cell_length_b 27.273807
_cell_length_c 7.266744
_cell_angle_alpha 90.000000
_cell_angle_beta 90.000000
_cell_angle_gamma 90.000000
_cell_volume 4674.225340
_symmetry_space_group_name_H-M "I M M M"
_symmetry_group_IT_number 71
_symmetry_cell_setting 'orthorhombic'
loop_
_space_group_symop_operation_xyz
x,y,z
-x,-y,z
x,-y,-z
-x,y,-z
-x,-y,-z
x,y,-z
-x,y,z
x,-y,z
1/2+x,1/2+y,1/2+z
1/2-x,1/2-y,1/2+z
1/2+x,1/2-y,1/2-z
1/2-x,1/2+y,1/2-z
1/2-x,1/2-y,1/2-z
1/2+x,1/2+y,1/2-z
1/2-x,1/2+y,1/2+z
1/2+x,1/2-y,1/2+z
loop_
_atom_site_type_symbol
_atom_site_label
_atom_site_fract_x
_atom_site_fract_y
_atom_site_fract_z
Si Si1 0.439393 0.656381 0.775917
Si Si2 0.769675 0.058688 0.290103
Si Si3 0.821126 0.802311 0.287223
Si Si4 0.893645 0.055490 0.275761
Si Si5 0.195050 0.311756 0.222225
Si Si6 0.934246 0.500000 0.224486
Si Si7 0.146653 0.411037 0.775631
O O1 0.500000 0.676923 0.714600
O O2 0.381261 0.680806 0.708931
O O3 0.435383 0.598926 0.727234
O O4 0.439011 0.659635 0.000000
O O5 0.768256 0.077646 0.500000
O O6 0.830762 0.072008 0.211756
O O7 0.708784 0.071351 0.211805
O O8 0.772150 0.000000 0.297529
O O9 0.821747 0.817718 0.500000
O O10 0.818914 0.743305 0.280137
O O11 0.760261 0.821369 0.213619
O O12 0.891029 0.053715 0.500000
O O13 0.906216 0.000000 0.215457
O O14 0.149920 0.353588 0.277024
O O15 0.196741 0.311537 0.000000
O O16 0.900432 0.450601 0.283080
O O17 0.000000 0.500000 0.281127
O O18 0.933578 0.500000 0.000000
O O19 0.144920 0.412807 0.000000
#
# Coordination Sequence:
#
# PCOD9524523 Si02
#       7
#    16  16  16  16  16   8  16
#     4   9  16  25  37  53  77 113 148 171 200 249
#     4   8  11  16  28  47  71  98 126 157 196 241
#     4   9  17  30  45  63  88 115 144 179 218 260
#     4   8  13  19  29  49  76 103 132 165 200 240
#     4   9  17  28  46  68  87 108 141 185 226 257
#     4   9  16  24  34  52  83 119 146 170 212 271
#     4   9  14  22  36  55  79 107 137 170 210 257
#
# _framework density 22.249676000000001
#
# number of rings (size 3 to 8) (size 9 to 14) (size 15 to 20)
#    0.000    3.308    0.769    1.846    0.000    4.000 
#    0.000    2.308    0.000    1.385    0.000    0.538 
#    0.000    1.231    0.000    1.385    0.000    1.846 
#
# Total GULP energy -289858.214067 kJ/mol
# GULP energy per Si atom -5574.196424 kJ/mol
# Density = 2.219904 g / cm^3
# Si number density = 22.249676 Si / 1000 Ang^3
#
#
#
# Elastic Constant Matrix: (Units=GPa)
#
#
# Indices 1 2 3 4 5 6 
#
# 1 162.5664 86.4671 4.2934 0.0000 0.0000 0.0000
# 2 86.4671 111.6725 -3.1498 0.0000 0.0000 0.0000
# 3 4.2934 -3.1498 95.0093 0.0000 0.0000 0.0000
# 4 0.0000 0.0000 0.0000 -11.3201 0.0000 0.0000
# 5 0.0000 0.0000 0.0000 0.0000 -21.3416 0.0000
# 6 0.0000 0.0000 0.0000 0.0000 0.0000 27.6152
#
#
#
# Elastic Compliance Matrix: (Units=1/GPa)
#
#
# Indices 1 2 3 4 5 6 
#
# 1 0.010511 -0.008160 -0.000745 0.000000 0.000000 0.000000
# 2 -0.008160 0.015297 0.000876 0.000000 0.000000 0.000000
# 3 -0.000745 0.000876 0.010588 0.000000 0.000000 0.000000
# 4 0.000000 0.000000 0.000000 -0.088338 0.000000 0.000000
# 5 0.000000 0.000000 0.000000 0.000000 -0.046857 0.000000
# 6 0.000000 0.000000 0.000000 0.000000 0.000000 0.036212
#
#
# Mechanical properties :
#
#
# Convention : Reuss Voigt Hill
#
# Bulk Modulus (GPa) = 49.16924 60.49664 54.83294
# Shear Modulus (GPa) = -125.78917 17.76653 -54.01132
#
# Velocity S-wave (km/s) = -7.52715 2.82885 -4.93232
# Velocity P-wave (km/s) = 7.30734 6.15782 2.78194
#
# Compressibility (1/GPa) = 0.02033792
#
# Stress axis : x y z
#
# Youngs Moduli (GPa) = 95.13826 65.37068 94.44649
#
# Poissons Ratio (x) = 0.53340 0.07041
# Poissons Ratio (y) = 0.77629 -0.08272
# Poissons Ratio (z) = 0.07093 -0.05726
#
# Static dielectric constant tensor:
#      x y z
#    x 1.803310 0.000000 0.000000 
#    y 0.000000 1.824030 0.000000 
#    z 0.000000 0.000000 1.989220 
# 
# From -- ./inp_files/28066.got.cif
#   From: 2010.05.17/outbox.cif.g08.bks.cpg/sg71_15_cif.got.tgz:28066.got - 2010.06.03 16:22:01.
