data_PCOD9524041
_publ_section_title
;
Structure prediction by ZEFSAII (Michael W. Deem and Ramdas Pophale) SiO2 
 PCOD9524041
Probable space group: I M M M
;
_chemical_formula_sum "Si O2"
_cell_formula_units_Z 88
_cell_length_a 30.622685
_cell_length_b 8.854189
_cell_length_c 18.861910
_cell_angle_alpha 90.000000
_cell_angle_beta 90.000000
_cell_angle_gamma 90.000000
_cell_volume 5114.200183
_symmetry_space_group_name_H-M "I M M M"
_symmetry_group_IT_number 71
_symmetry_cell_setting 'orthorhombic'
loop_
_space_group_symop_operation_xyz
x,y,z
-x,-y,z
x,-y,-z
-x,y,-z
-x,-y,-z
x,y,-z
-x,y,z
x,-y,z
1/2+x,1/2+y,1/2+z
1/2-x,1/2-y,1/2+z
1/2+x,1/2-y,1/2-z
1/2-x,1/2+y,1/2-z
1/2-x,1/2-y,1/2-z
1/2+x,1/2+y,1/2-z
1/2-x,1/2+y,1/2+z
1/2+x,1/2-y,1/2+z
loop_
_atom_site_type_symbol
_atom_site_label
_atom_site_fract_x
_atom_site_fract_y
_atom_site_fract_z
Si Si1 0.050973 0.182206 0.648690
Si Si2 0.747079 0.675377 0.583461
Si Si3 0.883251 0.184162 0.229591
Si Si4 0.354210 0.683996 0.579880
Si Si5 0.553070 0.824322 0.000000
Si Si6 0.709792 0.679098 0.207550
O O1 0.078908 0.233315 0.716651
O O2 0.067432 0.247660 0.573596
O O3 0.000000 0.223863 0.657113
O O4 0.053371 0.000000 0.644534
O O5 0.755063 0.682078 0.500000
O O6 0.749846 0.500000 0.606288
O O7 0.696575 0.724657 0.594380
O O8 0.781035 0.772312 0.627377
O O9 0.882965 0.233208 0.147134
O O10 0.836756 0.230514 0.262746
O O11 0.884494 0.000000 0.228641
O O12 0.365937 0.735148 0.500000
O O13 0.354827 0.500000 0.578199
O O14 0.500000 0.811997 0.000000
O O15 0.564842 0.000000 0.000000
O O16 0.711240 0.500000 0.215169
O O17 0.750000 0.750000 0.250000
#
# Coordination Sequence:
#
# PCOD9524041 Si02
#       6
#    16  16  16  16   8  16
#     4   9  17  31  52  73  93 122 160 198 233 277
#     4   9  17  31  49  66  89 124 162 196 232 280
#     4   9  17  29  46  69  94 122 158 195 234 282
#     4   8  13  24  45  68  89 119 156 187 221 272
#     4   9  17  31  51  73  97 123 153 193 239 285
#     4  11  20  31  47  67  95 127 159 197 239 282
#
# _framework density 17.206992
#
# number of rings (size 3 to 8) (size 9 to 14) (size 15 to 20)
#    0.000    2.818    1.818    1.909    0.000    1.455 
#    1.636    1.818    0.000    0.545    0.000    3.818 
#    0.000    0.000    0.000    4.545    0.000    4.727 
#
# Total GULP energy -245045.970919 kJ/mol
# GULP energy per Si atom -5569.226612 kJ/mol
# Density = 1.716783 g / cm^3
# Si number density = 17.206992 Si / 1000 Ang^3
#
#
#
# Elastic Constant Matrix: (Units=GPa)
#
#
# Indices 1 2 3 4 5 6 
#
# 1 61.9364 16.0033 62.8882 0.0000 0.0000 0.0000
# 2 16.0033 11.4253 20.7038 0.0000 0.0000 0.0000
# 3 62.8882 20.7038 159.6068 0.0000 0.0000 0.0000
# 4 0.0000 0.0000 0.0000 19.0063 0.0000 0.0000
# 5 0.0000 0.0000 0.0000 0.0000 31.4984 0.0000
# 6 0.0000 0.0000 0.0000 0.0000 0.0000 13.5369
#
#
#
# Elastic Compliance Matrix: (Units=1/GPa)
#
#
# Indices 1 2 3 4 5 6 
#
# 1 0.033207 -0.029810 -0.009217 0.000000 0.000000 0.000000
# 2 -0.029810 0.141181 -0.006568 0.000000 0.000000 0.000000
# 3 -0.009217 -0.006568 0.010749 0.000000 0.000000 0.000000
# 4 0.000000 0.000000 0.000000 0.052614 0.000000 0.000000
# 5 0.000000 0.000000 0.000000 0.000000 0.031748 0.000000
# 6 0.000000 0.000000 0.000000 0.000000 0.000000 0.073872
#
#
# Mechanical properties :
#
#
# Convention : Reuss Voigt Hill
#
# Bulk Modulus (GPa) = 10.64431 48.01768 29.33100
# Shear Modulus (GPa) = 10.73245 21.69986 16.21615
#
# Velocity S-wave (km/s) = 2.50016 3.55506 3.07321
# Velocity P-wave (km/s) = 3.81233 6.69461 5.44755
#
# Compressibility (1/GPa) = 0.09394691
#
# Stress axis : x y z
#
# Youngs Moduli (GPa) = 30.11426 7.08311 93.03020
#
# Poissons Ratio (x) = 0.21115 0.85749
# Poissons Ratio (y) = 0.89770 0.61103
# Poissons Ratio (z) = 0.27757 0.04652
#
# Static dielectric constant tensor:
#      x y z
#    x 1.570850 0.000000 0.000000 
#    y 0.000000 1.595150 0.000000 
#    z 0.000000 0.000000 1.639480 
# 
# From -- ./inp_files/12570.got.cif
#   From: 2010.05.17/outbox.cif.g08.bks.cpg/sg71_7_cif.got.tgz:12570.got - 2010.06.03 16:22:01.
