data_PCOD9524179
_publ_section_title
;
Structure prediction by ZEFSAII (Michael W. Deem and Ramdas Pophale) SiO2 
 PCOD9524179
Probable space group: I M M M
;
_chemical_formula_sum "Si O2"
_cell_formula_units_Z 72
_cell_length_a 23.387279
_cell_length_b 19.641513
_cell_length_c 8.275875
_cell_angle_alpha 90.000000
_cell_angle_beta 90.000000
_cell_angle_gamma 90.000000
_cell_volume 3801.618722
_symmetry_space_group_name_H-M "I M M M"
_symmetry_group_IT_number 71
_symmetry_cell_setting 'orthorhombic'
loop_
_space_group_symop_operation_xyz
x,y,z
-x,-y,z
x,-y,-z
-x,y,-z
-x,-y,-z
x,y,-z
-x,y,z
x,-y,z
1/2+x,1/2+y,1/2+z
1/2-x,1/2-y,1/2+z
1/2+x,1/2-y,1/2-z
1/2-x,1/2+y,1/2-z
1/2-x,1/2-y,1/2-z
1/2+x,1/2+y,1/2-z
1/2-x,1/2+y,1/2+z
1/2+x,1/2-y,1/2+z
loop_
_atom_site_type_symbol
_atom_site_label
_atom_site_fract_x
_atom_site_fract_y
_atom_site_fract_z
Si Si1 0.000000 0.577577 0.806950
Si Si2 0.398657 0.174095 0.193202
Si Si3 0.832079 0.921946 0.697665
Si Si4 0.064754 0.825595 0.697359
Si Si5 0.270196 0.175523 0.693485
O O1 0.055878 0.618963 0.752367
O O2 0.000000 0.500000 0.744755
O O3 0.000000 0.575363 0.000000
O O4 0.417254 0.249712 0.250104
O O5 0.334028 0.160914 0.247361
O O6 0.400480 0.175195 0.000000
O O7 0.832208 0.922179 0.500000
O O8 0.888249 0.880308 0.749672
O O9 0.776066 0.880148 0.749524
O O10 0.832024 0.000000 0.751367
O O11 0.065156 0.825332 0.500000
O O12 0.000000 0.840467 0.748971
O O13 0.270031 0.175349 0.500000
O O14 0.250000 0.250000 0.750000
#
# Coordination Sequence:
#
# PCOD9524179 Si02
#       5
#     8  16  16  16  16
#     4  11  25  43  61  87 122 157 196 242 296 360
#     4  11  21  37  61  88 116 149 196 248 297 350
#     4   9  18  32  51  79 115 150 186 236 293 342
#     4   9  16  29  52  82 111 141 182 234 285 342
#     4  11  21  35  57  85 117 156 202 247 295 353
#
# _framework density 18.939301
#
# number of rings (size 3 to 8) (size 9 to 14) (size 15 to 20)
#    0.000    1.889    3.333    1.667    0.000    2.222 
#    0.000    4.444    0.000    2.000    0.000    0.000 
#    0.000    2.667    0.000    0.000    0.000    0.000 
#
# Total GULP energy -201051.426430 kJ/mol
# GULP energy per Si atom -5584.761845 kJ/mol
# Density = 1.889619 g / cm^3
# Si number density = 18.939301 Si / 1000 Ang^3
#
#
#
# Elastic Constant Matrix: (Units=GPa)
#
#
# Indices 1 2 3 4 5 6 
#
# 1 233.6044 131.2342 22.8422 0.0000 0.0000 0.0000
# 2 131.2342 205.6762 22.1565 0.0000 0.0000 0.0000
# 3 22.8422 22.1565 26.0613 0.0000 0.0000 0.0000
# 4 0.0000 0.0000 0.0000 20.4224 0.0000 0.0000
# 5 0.0000 0.0000 0.0000 0.0000 28.5108 0.0000
# 6 0.0000 0.0000 0.0000 0.0000 0.0000 34.2295
#
#
#
# Elastic Compliance Matrix: (Units=1/GPa)
#
#
# Indices 1 2 3 4 5 6 
#
# 1 0.006818 -0.004080 -0.002507 0.000000 0.000000 0.000000
# 2 -0.004080 0.007794 -0.003050 0.000000 0.000000 0.000000
# 3 -0.002507 -0.003050 0.043161 0.000000 0.000000 0.000000
# 4 0.000000 0.000000 0.000000 0.048966 0.000000 0.000000
# 5 0.000000 0.000000 0.000000 0.000000 0.035074 0.000000
# 6 0.000000 0.000000 0.000000 0.000000 0.000000 0.029215
#
#
# Mechanical properties :
#
#
# Convention : Reuss Voigt Hill
#
# Bulk Modulus (GPa) = 25.97470 90.86751 58.42110
# Shear Modulus (GPa) = 24.61408 35.90648 30.26028
#
# Velocity S-wave (km/s) = 3.60895 4.35888 4.00152
# Velocity P-wave (km/s) = 5.57768 8.56829 7.22932
#
# Compressibility (1/GPa) = 0.03849900
#
# Stress axis : x y z
#
# Youngs Moduli (GPa) = 146.66808 128.30279 23.16890
#
# Poissons Ratio (x) = 0.52352 0.05808
# Poissons Ratio (y) = 0.59845 0.07066
# Poissons Ratio (z) = 0.36769 0.39132
#
# Static dielectric constant tensor:
#      x y z
#    x 1.627390 0.000000 0.000000 
#    y 0.000000 1.636670 0.000000 
#    z 0.000000 0.000000 1.673230 
# 
# From -- ./inp_files/7917.got.cif
#   From: 2010.05.17/outbox.cif.g08.bks.cpg/sg71_4_cif.got.tgz:7917.got - 2010.06.03 16:22:01.
