data_PCOD9524509
_publ_section_title
;
Structure prediction by ZEFSAII (Michael W. Deem and Ramdas Pophale) SiO2 
 PCOD9524509
Probable space group: I M M M
;
_chemical_formula_sum "Si O2"
_cell_formula_units_Z 72
_cell_length_a 29.241734
_cell_length_b 7.655878
_cell_length_c 17.041585
_cell_angle_alpha 90.000000
_cell_angle_beta 90.000000
_cell_angle_gamma 90.000000
_cell_volume 3815.119198
_symmetry_space_group_name_H-M "I M M M"
_symmetry_group_IT_number 71
_symmetry_cell_setting 'orthorhombic'
loop_
_space_group_symop_operation_xyz
x,y,z
-x,-y,z
x,-y,-z
-x,y,-z
-x,-y,-z
x,y,-z
-x,y,z
x,-y,z
1/2+x,1/2+y,1/2+z
1/2-x,1/2-y,1/2+z
1/2+x,1/2-y,1/2-z
1/2-x,1/2+y,1/2-z
1/2-x,1/2-y,1/2-z
1/2+x,1/2+y,1/2-z
1/2-x,1/2+y,1/2+z
1/2+x,1/2-y,1/2+z
loop_
_atom_site_type_symbol
_atom_site_label
_atom_site_fract_x
_atom_site_fract_y
_atom_site_fract_z
Si Si1 0.225186 0.792250 0.332826
Si Si2 0.448139 0.789738 0.670942
Si Si3 0.312854 0.295638 0.584880
Si Si4 0.141804 0.790642 0.243712
Si Si5 0.555757 0.201855 0.500000
O O1 0.250000 0.750000 0.250000
O O2 0.258477 0.715232 0.398221
O O3 0.173420 0.729091 0.315882
O O4 0.225066 0.000000 0.345263
O O5 0.500000 0.728745 0.685278
O O6 0.411656 0.746060 0.737491
O O7 0.431950 0.720279 0.584853
O O8 0.449895 0.000000 0.663803
O O9 0.324312 0.218199 0.500000
O O10 0.324861 0.500000 0.582554
O O11 0.337347 0.218110 0.661599
O O12 0.147957 0.000000 0.242561
O O13 0.500000 0.200725 0.500000
O O14 0.570997 0.000000 0.500000
#
# Coordination Sequence:
#
# PCOD9524509 Si02
#       5
#    16  16  16  16   8
#     4   9  17  30  45  61  83 111 142 175 213 255
#     4   9  17  28  41  57  79 108 143 180 211 242
#     4   9  18  31  45  63  88 113 139 176 216 253
#     4   9  18  29  42  60  84 113 141 173 212 251
#     4   7  12  24  37  49  71 101 131 169 209 233
#
# _framework density 18.87228
#
# number of rings (size 3 to 8) (size 9 to 14) (size 15 to 20)
#    0.000    3.222    0.000    3.333    1.556    5.333 
#    0.000    0.000    0.000    2.000    0.000    0.000 
#    0.000    0.889    0.000    9.778    0.000    7.111 
#
# Total GULP energy -200405.423332 kJ/mol
# GULP energy per Si atom -5566.817315 kJ/mol
# Density = 1.882933 g / cm^3
# Si number density = 18.872280 Si / 1000 Ang^3
#
#
#
# Elastic Constant Matrix: (Units=GPa)
#
#
# Indices 1 2 3 4 5 6 
#
# 1 93.7782 -5.3146 5.1058 0.0000 0.0000 0.0000
# 2 -5.3146 38.8960 -0.0780 0.0000 0.0000 0.0000
# 3 5.1058 -0.0780 14.2044 0.0000 0.0000 0.0000
# 4 0.0000 0.0000 0.0000 8.0249 0.0000 0.0000
# 5 0.0000 0.0000 0.0000 0.0000 25.7260 0.0000
# 6 0.0000 0.0000 0.0000 0.0000 0.0000 19.7904
#
#
#
# Elastic Compliance Matrix: (Units=1/GPa)
#
#
# Indices 1 2 3 4 5 6 
#
# 1 0.010962 0.001490 -0.003932 0.000000 0.000000 0.000000
# 2 0.001490 0.025912 -0.000393 0.000000 0.000000 0.000000
# 3 -0.003932 -0.000393 0.071812 0.000000 0.000000 0.000000
# 4 0.000000 0.000000 0.000000 0.124612 0.000000 0.000000
# 5 0.000000 0.000000 0.000000 0.000000 0.038871 0.000000
# 6 0.000000 0.000000 0.000000 0.000000 0.000000 0.050530
#
#
# Mechanical properties :
#
#
# Convention : Reuss Voigt Hill
#
# Bulk Modulus (GPa) = 9.70729 16.25611 12.98170
# Shear Modulus (GPa) = 13.78516 20.51929 17.15222
#
# Velocity S-wave (km/s) = 2.70561 3.30096 3.01800
# Velocity P-wave (km/s) = 3.86203 4.81257 4.36326
#
# Compressibility (1/GPa) = 0.10301535
#
# Stress axis : x y z
#
# Youngs Moduli (GPa) = 91.22438 38.59160 13.92525
#
# Poissons Ratio (x) = -0.05750 0.05476
# Poissons Ratio (y) = -0.13592 0.00548
# Poissons Ratio (z) = 0.35871 0.01518
#
# Static dielectric constant tensor:
#      x y z
#    x 1.744760 0.000000 0.000000 
#    y 0.000000 1.718500 0.000000 
#    z 0.000000 0.000000 1.666120 
# 
# From -- ./inp_files/8164.got.cif
#   From: 2010.05.17/outbox.cif.g08.bks.cpg/sg71_5_cif.got.tgz:8164.got - 2010.06.03 16:22:01.
