data_PCOD9524124
_publ_section_title
;
Structure prediction by ZEFSAII (Michael W. Deem and Ramdas Pophale) SiO2 
 PCOD9524124
Probable space group: I M M M
;
_chemical_formula_sum "Si O2"
_cell_formula_units_Z 88
_cell_length_a 18.812967
_cell_length_b 30.559520
_cell_length_c 8.532787
_cell_angle_alpha 90.000000
_cell_angle_beta 90.000000
_cell_angle_gamma 90.000000
_cell_volume 4905.629297
_symmetry_space_group_name_H-M "I M M M"
_symmetry_group_IT_number 71
_symmetry_cell_setting 'orthorhombic'
loop_
_space_group_symop_operation_xyz
x,y,z
-x,-y,z
x,-y,-z
-x,y,-z
-x,-y,-z
x,y,-z
-x,y,z
x,-y,z
1/2+x,1/2+y,1/2+z
1/2-x,1/2-y,1/2+z
1/2+x,1/2-y,1/2-z
1/2-x,1/2+y,1/2-z
1/2-x,1/2-y,1/2-z
1/2+x,1/2+y,1/2-z
1/2-x,1/2+y,1/2+z
1/2+x,1/2-y,1/2+z
loop_
_atom_site_type_symbol
_atom_site_label
_atom_site_fract_x
_atom_site_fract_y
_atom_site_fract_z
Si Si1 0.580400 0.351025 0.688735
Si Si2 0.083604 0.749701 0.184363
Si Si3 0.000000 0.446669 0.817774
Si Si4 0.344137 0.949225 0.308031
Si Si5 0.712397 0.206732 0.816782
Si Si6 0.775762 0.117791 0.313753
O O1 0.579825 0.351223 0.500000
O O2 0.500000 0.362121 0.741817
O O3 0.595416 0.300308 0.734755
O O4 0.644465 0.380995 0.746772
O O5 0.130065 0.716296 0.282738
O O6 0.000000 0.741528 0.196890
O O7 0.103365 0.746326 0.000000
O O8 0.077301 0.433749 0.751882
O O9 0.000000 0.500000 0.816948
O O10 0.000000 0.432703 0.000000
O O11 0.346313 0.947851 0.500000
O O12 0.278442 0.919558 0.255544
O O13 0.334838 0.000000 0.264043
O O14 0.750000 0.250000 0.750000
O O15 0.740393 0.164000 0.730441
O O16 0.727455 0.202298 0.000000
O O17 0.780885 0.113841 0.500000
#
# Coordination Sequence:
#
# PCOD9524124 Si02
#       6
#    16  16   8  16  16  16
#     4   9  18  33  53  74  98 132 173 216 259 305
#     4   9  18  34  54  73  96 131 174 217 258 299
#     4   7  10  22  46  72  99 133 169 203 241 287
#     4   8  15  29  50  76 105 134 169 213 254 299
#     4  12  23  35  51  72 104 140 175 212 254 302
#     4  11  21  32  51  80 107 134 171 212 263 311
#
# _framework density 17.938575
#
# number of rings (size 3 to 8) (size 9 to 14) (size 15 to 20)
#    0.000    2.455    1.818    4.364    0.000    0.727 
#    1.636    1.818    0.000    2.727    0.000    3.818 
#    0.000    8.727    0.000    0.000    0.000    0.000 
#
# Total GULP energy -245276.346517 kJ/mol
# GULP energy per Si atom -5574.462421 kJ/mol
# Density = 1.789775 g / cm^3
# Si number density = 17.938575 Si / 1000 Ang^3
#
#
#
# Elastic Constant Matrix: (Units=GPa)
#
#
# Indices 1 2 3 4 5 6 
#
# 1 157.3101 57.8003 15.7025 0.0000 0.0000 0.0000
# 2 57.8003 59.3561 -0.3658 -0.0001 0.0001 0.0001
# 3 15.7025 -0.3658 8.8195 0.0022 0.0014 0.0001
# 4 0.0000 -0.0001 0.0022 12.1346 0.0004 0.0001
# 5 0.0000 0.0001 0.0014 0.0004 27.7099 0.0000
# 6 0.0000 0.0001 0.0001 0.0001 0.0000 31.1265
#
#
#
# Elastic Compliance Matrix: (Units=1/GPa)
#
#
# Indices 1 2 3 4 5 6 
#
# 1 0.013932 -0.013723 -0.025374 0.000004 0.000001 0.000000
# 2 -0.013723 0.030369 0.025693 -0.000004 -0.000001 0.000000
# 3 -0.025374 0.025693 0.159627 -0.000028 -0.000008 -0.000001
# 4 0.000004 -0.000004 -0.000028 0.082409 -0.000001 0.000000
# 5 0.000001 -0.000001 -0.000008 -0.000001 0.036088 0.000000
# 6 0.000000 0.000000 -0.000001 0.000000 0.000000 0.032127
#
#
# Mechanical properties :
#
#
# Convention : Reuss Voigt Hill
#
# Bulk Modulus (GPa) = 5.64591 41.30664 23.47628
# Shear Modulus (GPa) = 11.35330 24.35079 17.85204
#
# Velocity S-wave (km/s) = 2.51848 3.68836 3.15806
# Velocity P-wave (km/s) = 3.40752 6.41992 5.13938
#
# Compressibility (1/GPa) = 0.17711921
#
# Stress axis : x y z
#
# Youngs Moduli (GPa) = 71.77736 32.92802 6.26461
#
# Poissons Ratio (x) = 0.45188 0.15896
# Poissons Ratio (y) = 0.98501 -0.16096
# Poissons Ratio (z) = 1.82128 -0.84601
#
# Static dielectric constant tensor:
#      x y z
#    x 1.694050 0.000000 0.000000 
#    y 0.000000 1.588760 0.000000 
#    z 0.000000 0.000000 1.618280 
# 
# From -- ./inp_files/8729.got.cif
#   From: 2010.05.17/outbox.cif.g08.bks.cpg/sg71_5_cif.got.tgz:8729.got - 2010.06.03 16:22:01.
