data_PCOD9524628
_publ_section_title
;
Structure prediction by ZEFSAII (Michael W. Deem and Ramdas Pophale) SiO2 
 PCOD9524628
Probable space group: I M M M
;
_chemical_formula_sum "Si O2"
_cell_formula_units_Z 56
_cell_length_a 22.884039
_cell_length_b 14.020333
_cell_length_c 7.295821
_cell_angle_alpha 90.000000
_cell_angle_beta 90.000000
_cell_angle_gamma 90.000000
_cell_volume 2340.804686
_symmetry_space_group_name_H-M "I M M M"
_symmetry_group_IT_number 71
_symmetry_cell_setting 'orthorhombic'
loop_
_space_group_symop_operation_xyz
x,y,z
-x,-y,z
x,-y,-z
-x,y,-z
-x,-y,-z
x,y,-z
-x,y,z
x,-y,z
1/2+x,1/2+y,1/2+z
1/2-x,1/2-y,1/2+z
1/2+x,1/2-y,1/2-z
1/2-x,1/2+y,1/2-z
1/2-x,1/2-y,1/2-z
1/2+x,1/2+y,1/2-z
1/2-x,1/2+y,1/2+z
1/2+x,1/2-y,1/2+z
loop_
_atom_site_type_symbol
_atom_site_label
_atom_site_fract_x
_atom_site_fract_y
_atom_site_fract_z
Si Si1 0.630260 0.193537 0.724665
Si Si2 0.248053 0.392182 0.780776
Si Si3 0.432807 0.000000 0.276891
Si Si4 0.116207 0.895763 0.208077
O O1 0.630421 0.196315 0.500000
O O2 0.697969 0.179979 0.782257
O O3 0.601448 0.292460 0.788706
O O4 0.597358 0.098065 0.781745
O O5 0.225592 0.500000 0.745662
O O6 0.312890 0.388820 0.701542
O O7 0.254328 0.383267 0.000000
O O8 0.500000 0.000000 0.223765
O O9 0.429500 0.000000 0.500000
O O10 0.102459 0.000000 0.290687
O O11 0.093697 0.897842 0.000000
#
# Coordination Sequence:
#
# PCOD9524628 Si02
#       4
#    16  16   8  16
#     4   9  15  25  39  55  79 108 135 168 208 239
#     4   9  15  24  39  58  82 110 137 165 197 235
#     4   9  16  26  42  62  79 101 141 183 212 239
#     4   9  17  26  37  57  86 114 135 156 192 247
#
# _framework density 23.923397000000001
#
# number of rings (size 3 to 8) (size 9 to 14) (size 15 to 20)
#    0.000    3.000    1.429    0.857    0.000    0.000 
#    0.000    0.000    0.000    0.857    0.000    6.000 
#    0.000    9.143    0.000    7.143    0.000    7.429 
#
# Total GULP energy -156244.052964 kJ/mol
# GULP energy per Si atom -5580.144749 kJ/mol
# Density = 2.386895 g / cm^3
# Si number density = 23.923397 Si / 1000 Ang^3
#
#
#
# Elastic Constant Matrix: (Units=GPa)
#
#
# Indices 1 2 3 4 5 6 
#
# 1 33.7517 21.6209 -8.2513 0.0000 0.0000 0.0000
# 2 21.6209 232.3141 9.2908 0.0000 0.0000 0.0000
# 3 -8.2513 9.2908 96.2481 0.0000 0.0000 0.0000
# 4 0.0000 0.0000 0.0000 -7.1809 0.0000 0.0000
# 5 0.0000 0.0000 0.0000 0.0000 0.8120 0.0000
# 6 0.0000 0.0000 0.0000 0.0000 0.0000 11.9922
#
#
#
# Elastic Compliance Matrix: (Units=1/GPa)
#
#
# Indices 1 2 3 4 5 6 
#
# 1 0.032391 -0.003138 0.003080 0.000000 0.000000 0.000000
# 2 -0.003138 0.004625 -0.000715 0.000000 0.000000 0.000000
# 3 0.003080 -0.000715 0.010723 0.000000 0.000000 0.000000
# 4 0.000000 0.000000 0.000000 -0.139258 0.000000 0.000000
# 5 0.000000 0.000000 0.000000 0.000000 1.231538 0.000000
# 6 0.000000 0.000000 0.000000 0.000000 0.000000 0.083388
#
#
# Mechanical properties :
#
#
# Convention : Reuss Voigt Hill
#
# Bulk Modulus (GPa) = 21.64867 45.29275 33.47071
# Shear Modulus (GPa) = 4.03111 23.76821 13.89966
#
# Velocity S-wave (km/s) = 1.29949 3.15542 2.41302
# Velocity P-wave (km/s) = 3.36457 5.67883 4.66741
#
# Compressibility (1/GPa) = 0.04619221
#
# Stress axis : x y z
#
# Youngs Moduli (GPa) = 30.87277 216.20914 93.25829
#
# Poissons Ratio (x) = 0.67840 -0.28721
# Poissons Ratio (y) = 0.09687 0.06672
# Poissons Ratio (z) = -0.09508 0.15469
#
# Static dielectric constant tensor:
#      x y z
#    x 1.839270 0.000000 0.000000 
#    y 0.000000 2.009670 0.000000 
#    z 0.000000 0.000000 1.867510 
# 
# From -- ./inp_files/5300.got.cif
#   From: 2010.05.17/outbox.cif.g08.bks.cpg/sg71_3_cif.got.tgz:5300.got - 2010.06.03 16:22:01.
