data_PCOD9524633
_publ_section_title
;
Structure prediction by ZEFSAII (Michael W. Deem and Ramdas Pophale) SiO2 
 PCOD9524633
Probable space group: I M M M
;
_chemical_formula_sum "Si O2"
_cell_formula_units_Z 80
_cell_length_a 7.360411
_cell_length_b 17.451984
_cell_length_c 28.363453
_cell_angle_alpha 90.000000
_cell_angle_beta 90.000000
_cell_angle_gamma 90.000000
_cell_volume 3643.392610
_symmetry_space_group_name_H-M "I M M M"
_symmetry_group_IT_number 71
_symmetry_cell_setting 'orthorhombic'
loop_
_space_group_symop_operation_xyz
x,y,z
-x,-y,z
x,-y,-z
-x,y,-z
-x,-y,-z
x,y,-z
-x,y,z
x,-y,z
1/2+x,1/2+y,1/2+z
1/2-x,1/2-y,1/2+z
1/2+x,1/2-y,1/2-z
1/2-x,1/2+y,1/2-z
1/2-x,1/2-y,1/2-z
1/2+x,1/2+y,1/2-z
1/2-x,1/2+y,1/2+z
1/2+x,1/2-y,1/2+z
loop_
_atom_site_type_symbol
_atom_site_label
_atom_site_fract_x
_atom_site_fract_y
_atom_site_fract_z
Si Si1 0.283995 0.912707 0.816837
Si Si2 0.721692 0.088346 0.000000
Si Si3 0.777829 0.680782 0.592626
Si Si4 0.721814 0.350908 0.112727
Si Si5 0.782804 0.087963 0.711722
Si Si6 0.278367 0.500000 0.945755
O O1 0.500000 0.917986 0.823364
O O2 0.216419 0.860758 0.859409
O O3 0.255675 0.881842 0.764028
O O4 0.211473 0.000000 0.818516
O O5 0.779097 0.133186 0.046894
O O6 0.500000 0.087752 0.000000
O O7 0.780011 0.000000 0.000000
O O8 0.719866 0.769068 0.592963
O O9 0.000000 0.680851 0.592549
O O10 0.500000 0.350647 0.112366
O O11 0.780931 0.364307 0.166774
O O12 0.779027 0.423677 0.081814
O O13 0.000000 0.083828 0.707592
O O14 0.713949 0.000000 0.709062
O O15 0.500000 0.500000 0.945307
O O16 0.220910 0.500000 0.000000
#
# Coordination Sequence:
#
# PCOD9524633 Si02
#       6
#    16   8  16  16  16   8
#     4   9  17  29  44  63  89 118 149 184 221 259
#     4   9  16  26  40  57  82 116 148 176 217 269
#     4   9  17  26  39  60  85 112 144 183 221 261
#     4   9  16  26  39  59  86 114 145 180 219 262
#     4   9  16  28  45  63  87 120 151 180 218 264
#     4   9  16  24  38  58  85 119 147 176 219 266
#
# _framework density 21.957557999999999
#
# number of rings (size 3 to 8) (size 9 to 14) (size 15 to 20)
#    0.000    3.000    1.000    0.600    1.400    3.200 
#    0.000    0.000    0.000    0.000    0.000    0.700 
#    0.000    5.600    0.000    0.000    0.000    0.000 
#
# Total GULP energy -223378.579084 kJ/mol
# GULP energy per Si atom -5584.464477 kJ/mol
# Density = 2.190758 g / cm^3
# Si number density = 21.957558 Si / 1000 Ang^3
#
#
#
# Elastic Constant Matrix: (Units=GPa)
#
#
# Indices 1 2 3 4 5 6 
#
# 1 79.7874 5.1002 0.1359 0.0000 0.0000 0.0000
# 2 5.1002 190.4190 143.1178 0.0000 0.0000 0.0000
# 3 0.1359 143.1178 227.6343 0.0000 0.0000 0.0000
# 4 0.0000 0.0000 0.0000 18.9205 0.0000 0.0000
# 5 0.0000 0.0000 0.0000 0.0000 13.7207 0.0000
# 6 0.0000 0.0000 0.0000 0.0000 0.0000 -9.9683
#
#
#
# Elastic Compliance Matrix: (Units=1/GPa)
#
#
# Indices 1 2 3 4 5 6 
#
# 1 0.012573 -0.000628 0.000387 0.000000 0.000000 0.000000
# 2 -0.000628 0.009988 -0.006279 0.000000 0.000000 0.000000
# 3 0.000387 -0.006279 0.008341 0.000000 0.000000 0.000000
# 4 0.000000 0.000000 0.000000 0.052853 0.000000 0.000000
# 5 0.000000 0.000000 0.000000 0.000000 0.072882 0.000000
# 6 0.000000 0.000000 0.000000 0.000000 0.000000 -0.100318
#
#
# Mechanical properties :
#
#
# Convention : Reuss Voigt Hill
#
# Bulk Modulus (GPa) = 55.98565 88.28318 72.13441
# Shear Modulus (GPa) = 66.39095 27.83371 47.11233
#
# Velocity S-wave (km/s) = 5.50470 3.56422 4.63710
# Velocity P-wave (km/s) = 8.12126 7.56517 7.84814
#
# Compressibility (1/GPa) = 0.01786172
#
# Stress axis : x y z
#
# Youngs Moduli (GPa) = 79.53697 100.12304 119.89614
#
# Poissons Ratio (x) = 0.06285 -0.04642
# Poissons Ratio (y) = 0.04993 0.75284
# Poissons Ratio (z) = -0.03079 0.62868
#
# Static dielectric constant tensor:
#      x y z
#    x 1.895280 0.000000 0.000000 
#    y 0.000000 1.760570 0.000000 
#    z 0.000000 0.000000 1.765340 
# 
# From -- ./inp_files/24384.got.cif
#   From: 2010.05.17/outbox.cif.g08.bks.cpg/sg71_13_cif.got.tgz:24384.got - 2010.06.03 16:22:01.
