data_PCOD9524495
_publ_section_title
;
Structure prediction by ZEFSAII (Michael W. Deem and Ramdas Pophale) SiO2 
 PCOD9524495
Probable space group: I M M M
;
_chemical_formula_sum "Si O2"
_cell_formula_units_Z 104
_cell_length_a 7.343240
_cell_length_b 19.773434
_cell_length_c 34.805121
_cell_angle_alpha 90.000000
_cell_angle_beta 90.000000
_cell_angle_gamma 90.000000
_cell_volume 5053.740862
_symmetry_space_group_name_H-M "I M M M"
_symmetry_group_IT_number 71
_symmetry_cell_setting 'orthorhombic'
loop_
_space_group_symop_operation_xyz
x,y,z
-x,-y,z
x,-y,-z
-x,y,-z
-x,-y,-z
x,y,-z
-x,y,z
x,-y,z
1/2+x,1/2+y,1/2+z
1/2-x,1/2-y,1/2+z
1/2+x,1/2-y,1/2-z
1/2-x,1/2+y,1/2-z
1/2-x,1/2-y,1/2-z
1/2+x,1/2+y,1/2-z
1/2-x,1/2+y,1/2+z
1/2+x,1/2-y,1/2+z
loop_
_atom_site_type_symbol
_atom_site_label
_atom_site_fract_x
_atom_site_fract_y
_atom_site_fract_z
Si Si1 0.721784 0.922723 0.500000
Si Si2 0.722798 0.577859 0.399166
Si Si3 0.722335 0.839116 0.425027
Si Si4 0.218678 0.922245 0.267376
Si Si5 0.722163 0.305128 0.455645
Si Si6 0.213654 0.082304 0.185197
Si Si7 0.284166 0.077555 0.352071
O O1 0.500000 0.922731 0.500000
O O2 0.777643 0.883816 0.461651
O O3 0.781806 0.000000 0.500000
O O4 0.500000 0.577764 0.398232
O O5 0.777839 0.500000 0.405188
O O6 0.779792 0.628584 0.432436
O O7 0.786271 0.601312 0.356685
O O8 0.500000 0.838431 0.424299
O O9 0.779324 0.762487 0.433267
O O10 0.785617 0.874514 0.385887
O O11 0.286447 0.893346 0.226564
O O12 0.259317 0.892940 0.309197
O O13 0.000000 0.924528 0.264348
O O14 0.285405 0.000000 0.269607
O O15 0.780738 0.303525 0.500000
O O16 0.500000 0.305035 0.456220
O O17 0.000000 0.100260 0.184453
O O18 0.224786 0.000000 0.186368
O O19 0.500000 0.071931 0.358102
O O20 0.211228 0.000000 0.353631
#
# Coordination Sequence:
#
# PCOD9524495 Si02
#       7
#     8  16  16  16  16  16  16
#     4   9  14  20  32  46  60  84 120 160 193 218
#     4   8  13  20  31  48  68  91 122 157 187 219
#     4   9  15  23  32  45  68  96 124 155 191 231
#     4   8  13  22  37  55  74  98 128 160 193 228
#     4   9  15  22  31  44  67  98 125 150 188 235
#     4   7  10  18  32  49  67  87 117 156 188 216
#     4   9  16  24  35  54  78 101 128 163 198 228
#
# _framework density 20.578814000000001
#
# number of rings (size 3 to 8) (size 9 to 14) (size 15 to 20)
#    0.000    3.615    0.769    2.308    0.000    2.154 
#    0.000    1.538    0.000    0.923    0.000    0.538 
#    0.000    3.077    0.000    0.308    0.000    1.385 
#
# Total GULP energy -289667.452280 kJ/mol
# GULP energy per Si atom -5570.527928 kJ/mol
# Density = 2.053198 g / cm^3
# Si number density = 20.578814 Si / 1000 Ang^3
#
#
#
# Elastic Constant Matrix: (Units=GPa)
#
#
# Indices 1 2 3 4 5 6 
#
# 1 76.8819 3.2117 5.8822 0.0000 0.0000 0.0000
# 2 3.2117 99.1800 86.9561 0.0000 0.0000 0.0000
# 3 5.8822 86.9561 186.1025 0.0000 0.0000 0.0000
# 4 0.0000 0.0000 0.0000 -37.1464 0.0000 0.0000
# 5 0.0000 0.0000 0.0000 0.0000 4.6940 0.0000
# 6 0.0000 0.0000 0.0000 0.0000 0.0000 -11.4984
#
#
#
# Elastic Compliance Matrix: (Units=1/GPa)
#
#
# Indices 1 2 3 4 5 6 
#
# 1 0.013039 -0.000103 -0.000364 0.000000 0.000000 0.000000
# 2 -0.000103 0.017080 -0.007977 0.000000 0.000000 0.000000
# 3 -0.000364 -0.007977 0.009112 0.000000 0.000000 0.000000
# 4 0.000000 0.000000 0.000000 -0.026920 0.000000 0.000000
# 5 0.000000 0.000000 0.000000 0.000000 0.213037 0.000000
# 6 0.000000 0.000000 0.000000 0.000000 0.000000 -0.086969
#
#
# Mechanical properties :
#
#
# Convention : Reuss Voigt Hill
#
# Bulk Modulus (GPa) = 44.75750 61.58493 53.17121
# Shear Modulus (GPa) = 30.72835 8.95080 19.83958
#
# Velocity S-wave (km/s) = 3.86839 2.08781 3.10833
# Velocity P-wave (km/s) = 6.46136 5.98359 6.22705
#
# Compressibility (1/GPa) = 0.02234262
#
# Stress axis : x y z
#
# Youngs Moduli (GPa) = 76.69226 58.54710 109.74127
#
# Poissons Ratio (x) = 0.00604 0.03994
# Poissons Ratio (y) = 0.00791 0.87546
# Poissons Ratio (z) = 0.02791 0.46706
#
# Static dielectric constant tensor:
#      x y z
#    x 1.865370 0.000000 0.000000 
#    y 0.000000 1.687310 0.000000 
#    z 0.000000 0.000000 1.762230 
# 
# From -- ./inp_files/69514.got.cif
#   From: 2010.05.17/outbox.cif.g08.bks.cpg/sg71_35_cif.got.tgz:69514.got - 2010.06.03 16:22:01.
