data_PCOD9524086
_publ_section_title
;
Structure prediction by ZEFSAII (Michael W. Deem and Ramdas Pophale) SiO2 
 PCOD9524086
Probable space group: I M M M
;
_chemical_formula_sum "Si O2"
_cell_formula_units_Z 64
_cell_length_a 25.450431
_cell_length_b 10.253879
_cell_length_c 14.010178
_cell_angle_alpha 90.000000
_cell_angle_beta 90.000000
_cell_angle_gamma 90.000000
_cell_volume 3656.175068
_symmetry_space_group_name_H-M "I M M M"
_symmetry_group_IT_number 71
_symmetry_cell_setting 'orthorhombic'
loop_
_space_group_symop_operation_xyz
x,y,z
-x,-y,z
x,-y,-z
-x,y,-z
-x,-y,-z
x,y,-z
-x,y,z
x,-y,z
1/2+x,1/2+y,1/2+z
1/2-x,1/2-y,1/2+z
1/2+x,1/2-y,1/2-z
1/2-x,1/2+y,1/2-z
1/2-x,1/2-y,1/2-z
1/2+x,1/2+y,1/2-z
1/2-x,1/2+y,1/2+z
1/2+x,1/2-y,1/2+z
loop_
_atom_site_type_symbol
_atom_site_label
_atom_site_fract_x
_atom_site_fract_y
_atom_site_fract_z
Si Si1 0.562537 0.000000 0.388976
Si Si2 0.732476 0.846798 0.333738
Si Si3 0.120803 0.254192 0.189666
Si Si4 0.848227 0.846902 0.604661
Si Si5 0.938659 0.000000 0.114519
O O1 0.583674 0.125604 0.334206
O O2 0.500000 0.000000 0.390649
O O3 0.580831 0.000000 0.500000
O O4 0.750000 0.750000 0.250000
O O5 0.676128 0.788911 0.362641
O O6 0.784528 0.843308 0.397729
O O7 0.724755 0.000000 0.306845
O O8 0.132595 0.232129 0.302509
O O9 0.092741 0.125516 0.151180
O O10 0.867823 0.804441 0.500000
O O11 0.862267 0.000000 0.618693
O O12 0.000000 0.000000 0.145905
O O13 0.938747 0.000000 0.000000
#
# Coordination Sequence:
#
# PCOD9524086 Si02
#       5
#     8  16  16  16   8
#     4  11  24  40  60  85 111 145 190 242 302 355
#     4   9  18  32  55  83 115 150 186 226 271 333
#     4  11  20  38  60  84 116 150 190 238 289 347
#     4   9  18  34  58  86 116 152 190 225 270 337
#     4  11  24  40  58  81 109 147 198 250 298 345
#
# _framework density 17.504632000000001
#
# number of rings (size 3 to 8) (size 9 to 14) (size 15 to 20)
#    0.000    2.000    2.500    1.500    1.750    4.000 
#    0.000    0.625    0.000    4.500    0.000    0.000 
#    0.000    0.000    0.000    0.000    0.000    0.000 
#
# Total GULP energy -178151.924833 kJ/mol
# GULP energy per Si atom -5567.247651 kJ/mol
# Density = 1.746479 g / cm^3
# Si number density = 17.504632 Si / 1000 Ang^3
#
#
#
# Elastic Constant Matrix: (Units=GPa)
#
#
# Indices 1 2 3 4 5 6 
#
# 1 100.6903 60.8086 37.1002 0.0000 0.0000 0.0000
# 2 60.8086 149.0168 55.2415 0.0000 0.0000 0.0000
# 3 37.1002 55.2415 119.2462 0.0000 0.0000 0.0000
# 4 0.0000 0.0000 0.0000 14.4203 0.0000 0.0000
# 5 0.0000 0.0000 0.0000 0.0000 15.9943 0.0000
# 6 0.0000 0.0000 0.0000 0.0000 0.0000 51.4977
#
#
#
# Elastic Compliance Matrix: (Units=1/GPa)
#
#
# Indices 1 2 3 4 5 6 
#
# 1 0.013563 -0.004793 -0.001999 0.000000 0.000000 0.000000
# 2 -0.004793 0.009796 -0.003047 0.000000 0.000000 0.000000
# 3 -0.001999 -0.003047 0.010419 0.000000 0.000000 0.000000
# 4 0.000000 0.000000 0.000000 0.069347 0.000000 0.000000
# 5 0.000000 0.000000 0.000000 0.000000 0.062522 0.000000
# 6 0.000000 0.000000 0.000000 0.000000 0.000000 0.019418
#
#
# Mechanical properties :
#
#
# Convention : Reuss Voigt Hill
#
# Bulk Modulus (GPa) = 70.92323 75.02822 72.97573
# Shear Modulus (GPa) = 23.87267 30.76931 27.32099
#
# Velocity S-wave (km/s) = 3.69696 4.19714 3.95496
# Velocity P-wave (km/s) = 7.66995 8.15125 7.91426
#
# Compressibility (1/GPa) = 0.01409975
#
# Stress axis : x y z
#
# Youngs Moduli (GPa) = 73.73053 102.08079 95.97464
#
# Poissons Ratio (x) = 0.48932 0.19187
# Poissons Ratio (y) = 0.35342 0.29241
# Poissons Ratio (z) = 0.14740 0.31102
#
# Static dielectric constant tensor:
#      x y z
#    x 1.629600 0.000000 0.000000 
#    y 0.000000 1.572420 0.000000 
#    z 0.000000 0.000000 1.604240 
# 
# From -- ./inp_files/5563.got.cif
#   From: 2010.05.17/outbox.cif.g08.bks.cpg/sg71_3_cif.got.tgz:5563.got - 2010.06.03 16:22:01.
