data_PCOD9524707
_publ_section_title
;
Structure prediction by ZEFSAII (Michael W. Deem and Ramdas Pophale) SiO2 
 PCOD9524707
Probable space group: I M M M
;
_chemical_formula_sum "Si O2"
_cell_formula_units_Z 40
_cell_length_a 18.000000
_cell_length_b 9.000000
_cell_length_c 27.000000
_cell_angle_alpha 90.000000
_cell_angle_beta 90.000000
_cell_angle_gamma 90.000000
_cell_volume 4374.000000
_symmetry_space_group_name_H-M "I M M M"
_symmetry_group_IT_number 71
_symmetry_cell_setting 'orthorhombic'
loop_
_space_group_symop_operation_xyz
x,y,z
-x,-y,z
x,-y,-z
-x,y,-z
-x,-y,-z
x,y,-z
-x,y,z
x,-y,z
1/2+x,1/2+y,1/2+z
1/2-x,1/2-y,1/2+z
1/2+x,1/2-y,1/2-z
1/2-x,1/2+y,1/2-z
1/2-x,1/2-y,1/2-z
1/2+x,1/2+y,1/2-z
1/2-x,1/2+y,1/2+z
1/2+x,1/2-y,1/2+z
loop_
_atom_site_type_symbol
_atom_site_label
_atom_site_fract_x
_atom_site_fract_y
_atom_site_fract_z
Si Si1 0.674944 0.672380 0.500000
Si Si2 0.087997 0.323938 0.800946
Si Si3 0.819382 0.678115 0.898586
Si Si4 0.342838 0.820824 0.106578
Si Si5 0.143491 0.328426 0.500000
Si Si6 0.410662 0.331250 0.799446
O O1 0.653260 0.500000 0.500000
O O2 0.650771 0.754425 0.450013
O O3 0.765894 0.675703 0.500000
O O4 0.097883 0.500000 0.791697
O O5 0.130012 0.285833 0.851382
O O6 0.115432 0.234946 0.752959
O O7 0.000000 0.296735 0.806958
O O8 0.813135 0.500000 0.902947
O O9 0.738864 0.750426 0.890280
O O10 0.386715 0.768074 0.154420
O O11 0.337400 0.000000 0.104625
O O12 0.377739 0.766936 0.053897
O O13 0.119155 0.500000 0.500000
O O14 0.500000 0.332850 0.797538
O O15 0.383715 0.500000 0.806156
#
# Coordination Sequence:
#
# PCOD9524707 Si02
#       6
#     8  16  16  16   8  16
#     4   9  17  31  50  73 104 138 169 202 248 306
#     4   9  19  36  55  74  99 134 173 211 256 308
#     4  10  19  32  53  79 104 131 168 214 257 297
#     4  10  19  33  54  77 103 134 168 208 253 304
#     4   7  14  29  48  71  96 126 163 199 238 285
#     4  10  21  36  53  74 101 133 170 212 257 304
#
# _framework density 9.1449470000000002
#
# number of rings (size 3 to 8) (size 9 to 14) (size 15 to 20)
#    0.000    2.600    0.000    3.300    0.000    3.600 
#    0.000    2.500    0.000    6.000    0.000    0.000 
#    0.000    0.000    0.000    0.000    0.000    0.000 
#
# Total GULP energy -222961.205713 kJ/mol
# GULP energy per Si atom -5574.030143 kJ/mol
# Density = 0.912413 g / cm^3
# Si number density = 9.144947 Si / 1000 Ang^3
#
#
#
# Elastic Constant Matrix: (Units=GPa)
#
#
# Indices 1 2 3 4 5 6 
#
# 1 8.1532 19.7583 29.7692 0.0000 0.0000 0.0000
# 2 19.7583 78.5829 73.2231 0.0000 0.0000 0.0000
# 3 29.7692 73.2231 180.3641 0.0000 0.0000 0.0000
# 4 0.0000 0.0000 0.0000 32.9749 0.0000 0.0000
# 5 0.0000 0.0000 0.0000 0.0000 50.2071 0.0000
# 6 0.0000 0.0000 0.0000 0.0000 0.0000 16.7026
#
#
#
# Elastic Compliance Matrix: (Units=1/GPa)
#
#
# Indices 1 2 3 4 5 6 
#
# 1 0.491451 -0.077181 -0.049781 0.000000 0.000000 0.000000
# 2 -0.077181 0.032589 -0.000492 0.000000 0.000000 0.000000
# 3 -0.049781 -0.000492 0.013960 0.000000 0.000000 0.000000
# 4 0.000000 0.000000 0.000000 0.030326 0.000000 0.000000
# 5 0.000000 0.000000 0.000000 0.000000 0.019918 0.000000
# 6 0.000000 0.000000 0.000000 0.000000 0.000000 0.059871
#
#
# Mechanical properties :
#
#
# Convention : Reuss Voigt Hill
#
# Bulk Modulus (GPa) = 3.53240 56.95570 30.24405
# Shear Modulus (GPa) = 5.01310 29.60023 17.30667
#
# Velocity S-wave (km/s) = 1.65737 4.02729 3.07944
# Velocity P-wave (km/s) = 2.36601 7.26867 5.40516
#
# Compressibility (1/GPa) = 0.28309353
#
# Stress axis : x y z
#
# Youngs Moduli (GPa) = 2.03479 30.68487 71.63198
#
# Poissons Ratio (x) = 2.36829 3.56588
# Poissons Ratio (y) = 0.15705 0.03522
# Poissons Ratio (z) = 0.10129 0.01509
#
# Static dielectric constant tensor:
#      x y z
#    x 1.614280 0.000000 0.000000 
#    y 0.000000 1.620610 0.000000 
#    z 0.000000 0.000000 1.645220 
# 
# From -- ./inp_files/10227.got.cif
#   From: 2010.05.17/outbox.ucp.g08.bks.cvg/sg71_6_cif.got.tgz:10227.got - 2010.06.11 16:29:00.
