data_PCOD9524003
_publ_section_title
;
Structure prediction by ZEFSAII (Michael W. Deem and Ramdas Pophale) SiO2 
 PCOD9524003
Probable space group: I M M M
;
_chemical_formula_sum "Si O2"
_cell_formula_units_Z 104
_cell_length_a 28.365591
_cell_length_b 23.528636
_cell_length_c 7.825773
_cell_angle_alpha 90.000000
_cell_angle_beta 90.000000
_cell_angle_gamma 90.000000
_cell_volume 5222.949586
_symmetry_space_group_name_H-M "I M M M"
_symmetry_group_IT_number 71
_symmetry_cell_setting 'orthorhombic'
loop_
_space_group_symop_operation_xyz
x,y,z
-x,-y,z
x,-y,-z
-x,y,-z
-x,-y,-z
x,y,-z
-x,y,z
x,-y,z
1/2+x,1/2+y,1/2+z
1/2-x,1/2-y,1/2+z
1/2+x,1/2-y,1/2-z
1/2-x,1/2+y,1/2-z
1/2-x,1/2-y,1/2-z
1/2+x,1/2+y,1/2-z
1/2-x,1/2+y,1/2+z
1/2+x,1/2-y,1/2+z
loop_
_atom_site_type_symbol
_atom_site_label
_atom_site_fract_x
_atom_site_fract_y
_atom_site_fract_z
Si Si1 0.445586 0.745275 0.793107
Si Si2 0.703583 0.434188 0.791267
Si Si3 0.631387 0.662030 0.204756
Si Si4 0.198580 0.269386 0.298684
Si Si5 0.093195 0.369734 0.690965
Si Si6 0.945176 0.438742 0.000000
Si Si7 0.692365 0.106695 0.693187
O O1 0.500000 0.751063 0.733469
O O2 0.418362 0.688195 0.730728
O O3 0.414359 0.802526 0.762339
O O4 0.447137 0.740890 0.000000
O O5 0.696706 0.500000 0.743057
O O6 0.661241 0.392541 0.730949
O O7 0.756551 0.413836 0.740398
O O8 0.703896 0.430816 0.000000
O O9 0.665487 0.715827 0.230446
O O10 0.625896 0.652861 0.000000
O O11 0.194005 0.284867 0.500000
O O12 0.250000 0.250000 0.250000
O O13 0.192109 0.325081 0.187877
O O14 0.074312 0.374957 0.500000
O O15 0.066483 0.403608 0.833499
O O16 0.145077 0.398882 0.697338
O O17 0.920647 0.500000 0.000000
O O18 0.000000 0.446393 0.000000
O O19 0.686057 0.083888 0.500000
#
# Coordination Sequence:
#
# PCOD9524003 Si02
#       7
#    16  16  16  16  16   8  16
#     4   9  17  30  52  81 110 141 180 234 298 353
#     4   9  18  31  48  72 105 149 195 234 277 337
#     4   9  16  28  47  72 103 138 180 229 283 346
#     4  11  19  30  49  76 109 142 181 229 286 351
#     4  11  22  39  62  88 119 152 191 241 300 351
#     4  11  26  46  64  84 114 156 203 245 286 340
#     4  11  20  33  53  82 113 150 190 234 287 348
#
# _framework density 19.912120000000002
#
# number of rings (size 3 to 8) (size 9 to 14) (size 15 to 20)
#    0.000    1.923    3.846    1.385    0.000    1.846 
#    0.000    0.769    0.000    1.846    0.000    3.231 
#    0.000    0.000    0.000    0.000    0.000    7.846 
#
# Total GULP energy -289515.875788 kJ/mol
# GULP energy per Si atom -5567.612996 kJ/mol
# Density = 1.986680 g / cm^3
# Si number density = 19.912120 Si / 1000 Ang^3
#
#
#
# Elastic Constant Matrix: (Units=GPa)
#
#
# Indices 1 2 3 4 5 6 
#
# 1 109.8533 53.2498 22.2790 0.0000 0.0000 0.0000
# 2 53.2498 118.2634 40.5901 0.0000 0.0000 0.0000
# 3 22.2790 40.5901 43.5103 0.0000 0.0000 0.0000
# 4 0.0000 0.0000 0.0000 13.0945 0.0000 0.0000
# 5 0.0000 0.0000 0.0000 0.0000 25.7346 0.0000
# 6 0.0000 0.0000 0.0000 0.0000 0.0000 21.3814
#
#
#
# Elastic Compliance Matrix: (Units=1/GPa)
#
#
# Indices 1 2 3 4 5 6 
#
# 1 0.011718 -0.004732 -0.001586 0.000000 0.000000 0.000000
# 2 -0.004732 0.014349 -0.010963 0.000000 0.000000 0.000000
# 3 -0.001586 -0.010963 0.034022 0.000000 0.000000 0.000000
# 4 0.000000 0.000000 0.000000 0.076368 0.000000 0.000000
# 5 0.000000 0.000000 0.000000 0.000000 0.038858 0.000000
# 6 0.000000 0.000000 0.000000 0.000000 0.000000 0.046770
#
#
# Mechanical properties :
#
#
# Convention : Reuss Voigt Hill
#
# Bulk Modulus (GPa) = 39.17268 55.98496 47.57882
# Shear Modulus (GPa) = 18.85674 22.40931 20.63303
#
# Velocity S-wave (km/s) = 3.08067 3.35835 3.22251
# Velocity P-wave (km/s) = 5.68942 6.57382 6.14755
#
# Compressibility (1/GPa) = 0.02552800
#
# Stress axis : x y z
#
# Youngs Moduli (GPa) = 85.33517 69.69056 29.39246
#
# Poissons Ratio (x) = 0.32979 0.04661
# Poissons Ratio (y) = 0.40382 0.32223
# Poissons Ratio (z) = 0.13532 0.76402
#
# Static dielectric constant tensor:
#      x y z
#    x 1.391390 0.000000 0.000000 
#    y 0.000000 1.944130 0.000000 
#    z 0.000000 0.000000 1.714540 
# 
# From -- ./inp_files/17249.got.cif
#   From: 2010.05.17/outbox.cif.g08.bks.cpg/sg71_9_cif.got.tgz:17249.got - 2010.06.03 16:22:01.
