data_PCOD9524717
_publ_section_title
;
Structure prediction by ZEFSAII (Michael W. Deem and Ramdas Pophale) SiO2 
 PCOD9524717
Probable space group: I M M M
;
_chemical_formula_sum "Si O2"
_cell_formula_units_Z 52
_cell_length_a 18.000000
_cell_length_b 15.000000
_cell_length_c 24.000000
_cell_angle_alpha 90.000000
_cell_angle_beta 90.000000
_cell_angle_gamma 90.000000
_cell_volume 6480.000000
_symmetry_space_group_name_H-M "I M M M"
_symmetry_group_IT_number 71
_symmetry_cell_setting 'orthorhombic'
loop_
_space_group_symop_operation_xyz
x,y,z
-x,-y,z
x,-y,-z
-x,y,-z
-x,-y,-z
x,y,-z
-x,y,z
x,-y,z
1/2+x,1/2+y,1/2+z
1/2-x,1/2-y,1/2+z
1/2+x,1/2-y,1/2-z
1/2-x,1/2+y,1/2-z
1/2-x,1/2-y,1/2-z
1/2+x,1/2+y,1/2-z
1/2-x,1/2+y,1/2+z
1/2+x,1/2-y,1/2+z
loop_
_atom_site_type_symbol
_atom_site_label
_atom_site_fract_x
_atom_site_fract_y
_atom_site_fract_z
Si Si1 0.589400 0.783790 0.062335
Si Si2 0.171874 0.605214 0.883893
Si Si3 0.833500 0.722691 0.770203
Si Si4 0.089108 0.102006 0.733782
Si Si5 0.349350 0.600588 0.107532
Si Si6 0.587136 0.107851 0.500000
Si Si7 0.910251 0.393824 0.672814
O O1 0.500000 0.783809 0.062532
O O2 0.616430 0.683351 0.074555
O O3 0.611901 0.847878 0.113792
O O4 0.614034 0.811609 0.000000
O O5 0.152409 0.500000 0.871484
O O6 0.161828 0.669121 0.829344
O O7 0.260214 0.606385 0.895649
O O8 0.128173 0.632627 0.941130
O O9 0.750000 0.750000 0.750000
O O10 0.878134 0.816724 0.769786
O O11 0.869706 0.658919 0.722740
O O12 0.124285 0.110175 0.671861
O O13 0.000000 0.110820 0.729366
O O14 0.105543 0.000000 0.753127
O O15 0.371558 0.500000 0.089373
O O16 0.500000 0.135774 0.500000
O O17 0.588661 0.000000 0.500000
O O18 0.894107 0.500000 0.673379
O O19 0.000000 0.383560 0.678931
#
# Coordination Sequence:
#
# PCOD9524717 Si02
#       7
#    16  16  16  16  16   8  16
#     4  10  20  33  49  73 106 142 182 223 265 318
#     4  10  21  36  56  82 110 143 182 225 283 342
#     4  12  21  34  56  83 112 141 180 233 286 337
#     4  10  20  34  53  77 110 147 179 218 273 335
#     4  10  19  33  52  75 105 143 180 223 274 326
#     4   9  20  38  56  78 112 148 184 229 278 336
#     4  10  21  36  53  75 105 142 183 225 270 323
#
# _framework density 8.0246910000000007
#
# number of rings (size 3 to 8) (size 9 to 14) (size 15 to 20)
#    0.000    1.769    3.077    1.385    1.077    3.385 
#    0.000    3.846    0.000    0.000    0.000    0.538 
#    0.000    1.846    0.000    0.000    0.000    0.000 
#
# Total GULP energy -289942.218851 kJ/mol
# GULP energy per Si atom -5575.811901 kJ/mol
# Density = 0.800643 g / cm^3
# Si number density = 8.024691 Si / 1000 Ang^3
#
#
#
# Elastic Constant Matrix: (Units=GPa)
#
#
# Indices 1 2 3 4 5 6 
#
# 1 66.2417 35.2834 37.5186 0.0000 0.0000 0.0000
# 2 35.2834 114.9749 59.0515 0.0000 0.0000 0.0000
# 3 37.5186 59.0515 129.5375 0.0000 0.0000 0.0000
# 4 0.0000 0.0000 0.0000 31.7011 0.0000 0.0000
# 5 0.0000 0.0000 0.0000 0.0000 25.3543 0.0000
# 6 0.0000 0.0000 0.0000 0.0000 0.0000 29.0836
#
#
#
# Elastic Compliance Matrix: (Units=1/GPa)
#
#
# Indices 1 2 3 4 5 6 
#
# 1 0.019372 -0.004000 -0.003788 0.000000 0.000000 0.000000
# 2 -0.004000 0.012182 -0.004395 0.000000 0.000000 0.000000
# 3 -0.003788 -0.004395 0.010820 0.000000 0.000000 0.000000
# 4 0.000000 0.000000 0.000000 0.031545 0.000000 0.000000
# 5 0.000000 0.000000 0.000000 0.000000 0.039441 0.000000
# 6 0.000000 0.000000 0.000000 0.000000 0.000000 0.034384
#
#
# Mechanical properties :
#
#
# Convention : Reuss Voigt Hill
#
# Bulk Modulus (GPa) = 55.52419 63.82902 59.67660
# Shear Modulus (GPa) = 28.07236 29.15451 28.61343
#
# Velocity S-wave (km/s) = 4.18679 4.26672 4.22695
# Velocity P-wave (km/s) = 7.61861 8.00812 7.81579
#
# Compressibility (1/GPa) = 0.01801017
#
# Stress axis : x y z
#
# Youngs Moduli (GPa) = 51.62151 82.08678 92.41883
#
# Poissons Ratio (x) = 0.32831 0.35004
# Poissons Ratio (y) = 0.20646 0.40618
# Poissons Ratio (z) = 0.19552 0.36077
#
# Static dielectric constant tensor:
#      x y z
#    x 1.542310 0.000000 0.000000 
#    y 0.000000 1.543550 0.000000 
#    z 0.000000 0.000000 1.541960 
# 
# From -- ./inp_files/36712.got.cif
#   From: 2010.05.17/outbox.ucp.g08.bks.cvg/sg71_19_cif.got.tgz:36712.got - 2010.06.11 16:29:00.
