data_PCOD9524126
_publ_section_title
;
Structure prediction by ZEFSAII (Michael W. Deem and Ramdas Pophale) SiO2 
 PCOD9524126
Probable space group: I M M M
;
_chemical_formula_sum "Si O2"
_cell_formula_units_Z 104
_cell_length_a 8.319356
_cell_length_b 22.703100
_cell_length_c 28.226482
_cell_angle_alpha 90.000000
_cell_angle_beta 90.000000
_cell_angle_gamma 90.000000
_cell_volume 5331.281620
_symmetry_space_group_name_H-M "I M M M"
_symmetry_group_IT_number 71
_symmetry_cell_setting 'orthorhombic'
loop_
_space_group_symop_operation_xyz
x,y,z
-x,-y,z
x,-y,-z
-x,y,-z
-x,-y,-z
x,y,-z
-x,y,z
x,-y,z
1/2+x,1/2+y,1/2+z
1/2-x,1/2-y,1/2+z
1/2+x,1/2-y,1/2-z
1/2-x,1/2+y,1/2-z
1/2-x,1/2-y,1/2-z
1/2+x,1/2+y,1/2-z
1/2-x,1/2+y,1/2+z
1/2+x,1/2-y,1/2+z
loop_
_atom_site_type_symbol
_atom_site_label
_atom_site_fract_x
_atom_site_fract_y
_atom_site_fract_z
Si Si1 0.000000 0.069681 0.551942
Si Si2 0.819839 0.892369 0.304042
Si Si3 0.308569 0.931912 0.201506
Si Si4 0.685919 0.662524 0.371987
Si Si5 0.317137 0.881170 0.599569
Si Si6 0.819388 0.246838 0.301998
Si Si7 0.693532 0.246735 0.445680
O O1 0.834054 0.087883 0.575829
O O2 0.000000 0.097210 0.500000
O O3 0.000000 0.000000 0.549211
O O4 0.767671 0.907956 0.250700
O O5 0.695747 0.904718 0.346221
O O6 0.830690 0.822128 0.310772
O O7 0.000000 0.916955 0.312397
O O8 0.500000 0.930115 0.207524
O O9 0.263968 0.891863 0.156166
O O10 0.258496 0.000000 0.195017
O O11 0.500000 0.647495 0.379962
O O12 0.702596 0.716602 0.335205
O O13 0.755464 0.693973 0.419309
O O14 0.500000 0.892213 0.582534
O O15 0.282885 0.811958 0.586329
O O16 0.750000 0.250000 0.250000
O O17 0.000000 0.272408 0.305660
O O18 0.751213 0.239496 0.500000
O O19 0.500000 0.253350 0.447739
#
# Coordination Sequence:
#
# PCOD9524126 Si02
#       7
#     8  16  16  16  16  16  16
#     4  11  26  46  64  86 120 164 215 265 310 364
#     4  11  22  37  59  88 121 157 198 246 300 363
#     4  11  25  42  59  82 117 162 209 254 301 364
#     4  11  21  35  59  87 118 156 195 245 308 371
#     4  11  22  40  66  93 126 165 207 257 319 372
#     4  11  21  32  53  83 117 152 188 232 288 353
#     4   9  19  36  61  93 124 154 195 252 315 377
#
# _framework density 19.507504999999998
#
# number of rings (size 3 to 8) (size 9 to 14) (size 15 to 20)
#    0.000    1.308    3.846    2.308    0.000    4.308 
#    1.385    0.769    0.000    0.462    0.000    3.231 
#    0.000    0.000    0.000    0.000    0.000    0.000 
#
# Total GULP energy -289694.104497 kJ/mol
# GULP energy per Si atom -5571.040471 kJ/mol
# Density = 1.946311 g / cm^3
# Si number density = 19.507505 Si / 1000 Ang^3
#
#
#
# Elastic Constant Matrix: (Units=GPa)
#
#
# Indices 1 2 3 4 5 6 
#
# 1 89.5704 26.6766 25.2610 0.0000 0.0000 0.0000
# 2 26.6766 92.9005 30.3376 0.0000 0.0000 0.0000
# 3 25.2610 30.3376 96.9854 0.0000 0.0000 0.0000
# 4 0.0000 0.0000 0.0000 16.7390 0.0000 0.0000
# 5 0.0000 0.0000 0.0000 0.0000 75.0742 0.0000
# 6 0.0000 0.0000 0.0000 0.0000 0.0000 148.3652
#
#
#
# Elastic Compliance Matrix: (Units=1/GPa)
#
#
# Indices 1 2 3 4 5 6 
#
# 1 0.012696 -0.002858 -0.002413 0.000000 0.000000 0.000000
# 2 -0.002858 0.012632 -0.003207 0.000000 0.000000 0.000000
# 3 -0.002413 -0.003207 0.011942 0.000000 0.000000 0.000000
# 4 0.000000 0.000000 0.000000 0.059741 0.000000 0.000000
# 5 0.000000 0.000000 0.000000 0.000000 0.013320 0.000000
# 6 0.000000 0.000000 0.000000 0.000000 0.000000 0.006740
#
#
# Mechanical properties :
#
#
# Convention : Reuss Voigt Hill
#
# Bulk Modulus (GPa) = 49.22425 49.33409 49.27917
# Shear Modulus (GPa) = 35.51166 61.18109 48.34637
#
# Velocity S-wave (km/s) = 4.27125 5.60633 4.98370
# Velocity P-wave (km/s) = 7.04366 8.20077 7.64414
#
# Compressibility (1/GPa) = 0.02031519
#
# Stress axis : x y z
#
# Youngs Moduli (GPa) = 78.76489 79.16331 83.73465
#
# Poissons Ratio (x) = 0.22623 0.20204
# Poissons Ratio (y) = 0.22509 0.26854
# Poissons Ratio (z) = 0.19005 0.25388
#
# Static dielectric constant tensor:
#      x y z
#    x 2.007850 0.000000 0.000000 
#    y 0.000000 1.696130 0.000000 
#    z 0.000000 0.000000 1.728710 
# 
# From -- ./inp_files/63288.got.cif
#   From: 2010.05.17/outbox.cif.g08.bks.cpg/sg71_32_cif.got.tgz:63288.got - 2010.06.03 16:22:01.
