data_PCOD9524613
_publ_section_title
;
Structure prediction by ZEFSAII (Michael W. Deem and Ramdas Pophale) SiO2 
 PCOD9524613
Probable space group: I M M M
;
_chemical_formula_sum "Si O2"
_cell_formula_units_Z 96
_cell_length_a 22.900136
_cell_length_b 7.329398
_cell_length_c 27.870408
_cell_angle_alpha 90.000000
_cell_angle_beta 90.000000
_cell_angle_gamma 90.000000
_cell_volume 4677.886641
_symmetry_space_group_name_H-M "I M M M"
_symmetry_group_IT_number 71
_symmetry_cell_setting 'orthorhombic'
loop_
_space_group_symop_operation_xyz
x,y,z
-x,-y,z
x,-y,-z
-x,y,-z
-x,-y,-z
x,y,-z
-x,y,z
x,-y,z
1/2+x,1/2+y,1/2+z
1/2-x,1/2-y,1/2+z
1/2+x,1/2-y,1/2-z
1/2-x,1/2+y,1/2-z
1/2-x,1/2-y,1/2-z
1/2+x,1/2+y,1/2-z
1/2-x,1/2+y,1/2+z
1/2+x,1/2-y,1/2+z
loop_
_atom_site_type_symbol
_atom_site_label
_atom_site_fract_x
_atom_site_fract_y
_atom_site_fract_z
Si Si1 0.732263 0.277303 0.555795
Si Si2 0.641835 0.777327 0.907834
Si Si3 0.933490 0.716352 0.680945
Si Si4 0.383494 0.722620 0.388689
Si Si5 0.000000 0.777788 0.944906
Si Si6 0.566793 0.222126 0.000000
Si Si7 0.433163 0.281574 0.709884
O O1 0.731221 0.221002 0.500000
O O2 0.732044 0.500000 0.555372
O O3 0.792169 0.219282 0.581312
O O4 0.675090 0.217435 0.584744
O O5 0.611609 0.714415 0.858700
O O6 0.601342 0.722316 0.952499
O O7 0.643006 0.000000 0.907239
O O8 0.937710 0.500000 0.672847
O O9 0.914291 0.741573 0.735918
O O10 0.000000 0.789296 0.676180
O O11 0.382249 0.500000 0.389180
O O12 0.441381 0.778548 0.417648
O O13 0.392733 0.781899 0.333681
O O14 0.000000 0.000000 0.944559
O O15 0.000000 0.719393 0.000000
O O16 0.500000 0.282884 0.000000
O O17 0.566265 0.000000 0.000000
O O18 0.500000 0.213612 0.704083
O O19 0.436066 0.500000 0.705764
#
# Coordination Sequence:
#
# PCOD9524613 Si02
#       7
#    16  16  16  16   8   8  16
#     4   9  15  23  35  54  83 116 139 162 209 266
#     4   9  15  24  36  55  83 110 136 169 210 256
#     4   9  17  28  43  63  86 111 142 179 217 251
#     4   9  15  23  36  55  80 110 142 172 207 251
#     4   9  14  20  32  54  81 105 133 174 215 250
#     4   9  14  20  34  54  77 104 134 168 210 256
#     4   9  16  28  44  61  84 114 145 177 213 252
#
# _framework density 20.522086999999999
#
# number of rings (size 3 to 8) (size 9 to 14) (size 15 to 20)
#    0.000    3.000    1.667    1.000    0.000    4.000 
#    0.000    0.833    0.000    0.000    0.000    0.583 
#    0.000    8.000    0.000    0.000    0.000    0.000 
#
# Total GULP energy -267948.894718 kJ/mol
# GULP energy per Si atom -5582.268640 kJ/mol
# Density = 2.047538 g / cm^3
# Si number density = 20.522087 Si / 1000 Ang^3
#
#
#
# Elastic Constant Matrix: (Units=GPa)
#
#
# Indices 1 2 3 4 5 6 
#
# 1 203.3893 6.1058 142.3713 0.0000 0.0000 0.0000
# 2 6.1058 79.2796 2.1537 0.0000 0.0000 0.0000
# 3 142.3713 2.1537 227.1816 0.0000 0.0000 0.0000
# 4 0.0000 0.0000 0.0000 10.4124 0.0000 0.0000
# 5 0.0000 0.0000 0.0000 0.0000 26.7887 0.0000
# 6 0.0000 0.0000 0.0000 0.0000 0.0000 -12.2162
#
#
#
# Elastic Compliance Matrix: (Units=1/GPa)
#
#
# Indices 1 2 3 4 5 6 
#
# 1 0.008781 -0.000527 -0.005498 0.000000 0.000000 0.000000
# 2 -0.000527 0.012648 0.000210 0.000000 0.000000 0.000000
# 3 -0.005498 0.000210 0.007845 0.000000 0.000000 0.000000
# 4 0.000000 0.000000 0.000000 0.096039 0.000000 0.000000
# 5 0.000000 0.000000 0.000000 0.000000 0.037329 0.000000
# 6 0.000000 0.000000 0.000000 0.000000 0.000000 -0.081859
#
#
# Mechanical properties :
#
#
# Convention : Reuss Voigt Hill
#
# Bulk Modulus (GPa) = 56.67132 90.12357 73.39744
# Shear Modulus (GPa) = 50.86718 28.94499 39.90608
#
# Velocity S-wave (km/s) = 4.98401 3.75964 4.41448
# Velocity P-wave (km/s) = 7.79713 7.92826 7.86297
#
# Compressibility (1/GPa) = 0.01764561
#
# Stress axis : x y z
#
# Youngs Moduli (GPa) = 113.88200 79.06106 127.46576
#
# Poissons Ratio (x) = 0.04166 0.70080
# Poissons Ratio (y) = 0.06001 -0.02681
# Poissons Ratio (z) = 0.62612 -0.01663
#
# Static dielectric constant tensor:
#      x y z
#    x 1.687990 0.000000 0.000000 
#    y 0.000000 1.834110 0.000000 
#    z 0.000000 0.000000 1.704130 
# 
# From -- ./inp_files/52145.got.cif
#   From: 2010.05.17/outbox.cif.g08.bks.cpg/sg71_27_cif.got.tgz:52145.got - 2010.06.03 16:22:01.
