data_PCOD9524650
_publ_section_title
;
Structure prediction by ZEFSAII (Michael W. Deem and Ramdas Pophale) SiO2 
 PCOD9524650
Probable space group: I M M M
;
_chemical_formula_sum "Si O2"
_cell_formula_units_Z 96
_cell_length_a 17.703999
_cell_length_b 7.436442
_cell_length_c 34.152283
_cell_angle_alpha 90.000000
_cell_angle_beta 90.000000
_cell_angle_gamma 90.000000
_cell_volume 4496.310681
_symmetry_space_group_name_H-M "I M M M"
_symmetry_group_IT_number 71
_symmetry_cell_setting 'orthorhombic'
loop_
_space_group_symop_operation_xyz
x,y,z
-x,-y,z
x,-y,-z
-x,y,-z
-x,-y,-z
x,y,-z
-x,y,z
x,-y,z
1/2+x,1/2+y,1/2+z
1/2-x,1/2-y,1/2+z
1/2+x,1/2-y,1/2-z
1/2-x,1/2+y,1/2-z
1/2-x,1/2-y,1/2-z
1/2+x,1/2+y,1/2-z
1/2-x,1/2+y,1/2+z
1/2+x,1/2-y,1/2+z
loop_
_atom_site_type_symbol
_atom_site_label
_atom_site_fract_x
_atom_site_fract_y
_atom_site_fract_z
Si Si1 0.000000 0.780277 0.820061
Si Si2 0.500000 0.720069 0.409654
Si Si3 0.851358 0.783232 0.044790
Si Si4 0.087620 0.779624 0.380773
Si Si5 0.316074 0.288474 0.806519
Si Si6 0.820013 0.212238 0.455417
Si Si7 0.154344 0.782714 0.781256
O O1 0.000000 0.724413 0.864874
O O2 0.075706 0.720846 0.798750
O O3 0.000000 0.000000 0.819399
O O4 0.500000 0.500000 0.410955
O O5 0.422983 0.779750 0.430569
O O6 0.767132 0.732640 0.057908
O O7 0.853696 0.000000 0.044715
O O8 0.859120 0.720857 0.000000
O O9 0.137519 0.717809 0.343571
O O10 0.124987 0.717392 0.421603
O O11 0.000000 0.727751 0.377251
O O12 0.089902 0.000000 0.381100
O O13 0.333723 0.500000 0.805125
O O14 0.225730 0.268426 0.807979
O O15 0.335918 0.214837 0.763295
O O16 0.826715 0.286194 0.500000
O O17 0.835227 0.000000 0.458393
O O18 0.154251 0.000000 0.779911
#
# Coordination Sequence:
#
# PCOD9524650 Si02
#       7
#     8   8  16  16  16  16  16
#     4   9  18  29  45  72  98 124 159 194 229 271
#     4   9  17  28  44  68  96 124 158 197 228 265
#     4   9  17  30  49  70  92 123 160 194 230 273
#     4   9  18  31  50  74  95 120 156 196 234 276
#     4   9  18  32  51  72  95 123 158 196 235 278
#     4   9  18  32  49  70  96 123 152 191 238 283
#     4   9  18  32  50  71  96 127 159 193 233 277
#
# _framework density 21.350839000000001
#
# number of rings (size 3 to 8) (size 9 to 14) (size 15 to 20)
#    0.000    3.000    0.000    0.250    3.500    1.333 
#    0.000    2.500    0.000    5.000    0.000    2.333 
#    0.000    0.000    0.000    0.000    0.000    0.000 
#
# Total GULP energy -267867.384162 kJ/mol
# GULP energy per Si atom -5580.570503 kJ/mol
# Density = 2.130224 g / cm^3
# Si number density = 21.350839 Si / 1000 Ang^3
#
#
#
# Elastic Constant Matrix: (Units=GPa)
#
#
# Indices 1 2 3 4 5 6 
#
# 1 202.8205 -7.7241 128.9314 0.0000 0.0000 0.0000
# 2 -7.7241 64.9989 5.4846 0.0000 0.0000 0.0000
# 3 128.9314 5.4846 130.7146 0.0000 0.0000 0.0000
# 4 0.0000 0.0000 0.0000 -0.1288 0.0000 0.0000
# 5 0.0000 0.0000 0.0000 0.0000 40.4534 0.0000
# 6 0.0000 0.0000 0.0000 0.0000 0.0000 17.5196
#
#
#
# Elastic Compliance Matrix: (Units=1/GPa)
#
#
# Indices 1 2 3 4 5 6 
#
# 1 0.013702 0.002778 -0.013631 0.000000 0.000000 0.000000
# 2 0.002778 0.016003 -0.003412 0.000000 0.000000 0.000000
# 3 -0.013631 -0.003412 0.021239 0.000000 0.000000 0.000000
# 4 0.000000 0.000000 0.000000 -7.762316 0.000000 0.000000
# 5 0.000000 0.000000 0.000000 0.000000 0.024720 0.000000
# 6 0.000000 0.000000 0.000000 0.000000 0.000000 0.057079
#
#
# Mechanical properties :
#
#
# Convention : Reuss Voigt Hill
#
# Bulk Modulus (GPa) = 44.61570 72.43531 58.52551
# Shear Modulus (GPa) = -0.65845 29.69164 14.51660
#
# Velocity S-wave (km/s) = -0.55594 3.73319 2.61033
# Velocity P-wave (km/s) = 4.53098 7.25136 6.04615
#
# Compressibility (1/GPa) = 0.02241363
#
# Stress axis : x y z
#
# Youngs Moduli (GPa) = 72.98460 62.48850 47.08398
#
# Poissons Ratio (x) = -0.17362 0.64181
# Poissons Ratio (y) = -0.20278 0.16065
# Poissons Ratio (z) = 0.99487 0.21321
#
# Static dielectric constant tensor:
#      x y z
#    x 1.730850 0.000000 0.000000 
#    y 0.000000 1.827280 0.000000 
#    z 0.000000 0.000000 1.753650 
# 
# From -- ./inp_files/69892.got.cif
#   From: 2010.05.17/outbox.cif.g08.bks.cpg/sg71_35_cif.got.tgz:69892.got - 2010.06.03 16:22:01.
