data_PCOD9524528
_publ_section_title
;
Structure prediction by ZEFSAII (Michael W. Deem and Ramdas Pophale) SiO2 
 PCOD9524528
Probable space group: I M M M
;
_chemical_formula_sum "Si O2"
_cell_formula_units_Z 80
_cell_length_a 27.833909
_cell_length_b 7.304121
_cell_length_c 19.508314
_cell_angle_alpha 90.000000
_cell_angle_beta 90.000000
_cell_angle_gamma 90.000000
_cell_volume 3966.083920
_symmetry_space_group_name_H-M "I M M M"
_symmetry_group_IT_number 71
_symmetry_cell_setting 'orthorhombic'
loop_
_space_group_symop_operation_xyz
x,y,z
-x,-y,z
x,-y,-z
-x,y,-z
-x,-y,-z
x,y,-z
-x,y,z
x,-y,z
1/2+x,1/2+y,1/2+z
1/2-x,1/2-y,1/2+z
1/2+x,1/2-y,1/2-z
1/2-x,1/2+y,1/2-z
1/2-x,1/2-y,1/2-z
1/2+x,1/2+y,1/2-z
1/2-x,1/2+y,1/2+z
1/2+x,1/2-y,1/2+z
loop_
_atom_site_type_symbol
_atom_site_label
_atom_site_fract_x
_atom_site_fract_y
_atom_site_fract_z
Si Si1 0.898422 0.776893 0.715685
Si Si2 0.301164 0.717853 0.715736
Si Si3 0.555882 0.277269 0.924565
Si Si4 0.653305 0.276757 0.423352
Si Si5 0.946609 0.777559 0.143712
O O1 0.845315 0.715795 0.737499
O O2 0.915119 0.713746 0.641430
O O3 0.933823 0.725446 0.777985
O O4 0.898703 0.000000 0.714160
O O5 0.306771 0.500000 0.712017
O O6 0.250000 0.750000 0.750000
O O7 0.311397 0.783579 0.638104
O O8 0.500000 0.225475 0.917748
O O9 0.557021 0.500000 0.924146
O O10 0.573055 0.219042 0.000000
O O11 0.665298 0.215793 0.500000
O O12 0.653689 0.500000 0.424096
O O13 0.598990 0.221628 0.402056
O O14 0.000000 0.715906 0.123961
O O15 0.947015 0.000000 0.141594
#
# Coordination Sequence:
#
# PCOD9524528 Si02
#       5
#    16  16  16  16  16
#     4   8  13  21  32  47  70  98 126 156 190 228
#     4   9  17  29  44  59  76 102 134 166 200 234
#     4   8  12  17  27  45  71 103 130 148 177 228
#     4   8  14  24  37  54  77 104 131 158 192 235
#     4   8  12  17  28  48  73 100 125 149 183 228
#
# _framework density 20.171030999999999
#
# number of rings (size 3 to 8) (size 9 to 14) (size 15 to 20)
#    0.000    3.800    0.000    3.600    0.000    2.800 
#    0.000    3.000    0.000    1.800    0.000    0.000 
#    0.000   20.000    0.000    9.400    0.000   10.000 
#
# Total GULP energy -222946.976619 kJ/mol
# GULP energy per Si atom -5573.674415 kJ/mol
# Density = 2.012512 g / cm^3
# Si number density = 20.171031 Si / 1000 Ang^3
#
#
#
# Elastic Constant Matrix: (Units=GPa)
#
#
# Indices 1 2 3 4 5 6 
#
# 1 117.2975 0.3635 82.6582 0.0000 0.0000 0.0000
# 2 0.3635 80.5667 7.0326 0.0000 0.0000 0.0000
# 3 82.6582 7.0326 202.4526 0.0000 0.0000 0.0000
# 4 0.0000 0.0000 0.0000 -12.4874 0.0000 0.0000
# 5 0.0000 0.0000 0.0000 0.0000 15.9751 0.0000
# 6 0.0000 0.0000 0.0000 0.0000 0.0000 0.9229
#
#
#
# Elastic Compliance Matrix: (Units=1/GPa)
#
#
# Indices 1 2 3 4 5 6 
#
# 1 0.011980 0.000374 -0.004904 0.000000 0.000000 0.000000
# 2 0.000374 0.012461 -0.000586 0.000000 0.000000 0.000000
# 3 -0.004904 -0.000586 0.006962 0.000000 0.000000 0.000000
# 4 0.000000 0.000000 0.000000 -0.080080 0.000000 0.000000
# 5 0.000000 0.000000 0.000000 0.000000 0.062598 0.000000
# 6 0.000000 0.000000 0.000000 0.000000 0.000000 1.083532
#
#
# Mechanical properties :
#
#
# Convention : Reuss Voigt Hill
#
# Bulk Modulus (GPa) = 47.23199 64.49171 55.86185
# Shear Modulus (GPa) = 4.48534 21.56628 13.02581
#
# Velocity S-wave (km/s) = 1.49281 3.27337 2.54395
# Velocity P-wave (km/s) = 5.14178 6.80650 6.03185
#
# Compressibility (1/GPa) = 0.02117209
#
# Stress axis : x y z
#
# Youngs Moduli (GPa) = 83.47116 80.24717 143.63435
#
# Poissons Ratio (x) = -0.03002 0.70443
# Poissons Ratio (y) = -0.03122 0.08411
# Poissons Ratio (z) = 0.40937 0.04699
#
# Static dielectric constant tensor:
#      x y z
#    x 1.691570 0.000000 0.000000 
#    y 0.000000 1.832770 0.000000 
#    z 0.000000 0.000000 1.712600 
# 
# From -- ./inp_files/42370.got.cif
#   From: 2010.05.17/outbox.cif.g08.bks.cpg/sg71_22_cif.got.tgz:42370.got - 2010.06.03 16:22:01.
