data_PCOD9524260
_publ_section_title
;
Structure prediction by ZEFSAII (Michael W. Deem and Ramdas Pophale) SiO2 
 PCOD9524260
Probable space group: I M M M
;
_chemical_formula_sum "Si O2"
_cell_formula_units_Z 88
_cell_length_a 22.292902
_cell_length_b 8.760721
_cell_length_c 24.102471
_cell_angle_alpha 90.000000
_cell_angle_beta 90.000000
_cell_angle_gamma 90.000000
_cell_volume 4707.258253
_symmetry_space_group_name_H-M "I M M M"
_symmetry_group_IT_number 71
_symmetry_cell_setting 'orthorhombic'
loop_
_space_group_symop_operation_xyz
x,y,z
-x,-y,z
x,-y,-z
-x,y,-z
-x,-y,-z
x,y,-z
-x,y,z
x,-y,z
1/2+x,1/2+y,1/2+z
1/2-x,1/2-y,1/2+z
1/2+x,1/2-y,1/2-z
1/2-x,1/2+y,1/2-z
1/2-x,1/2-y,1/2-z
1/2+x,1/2+y,1/2-z
1/2-x,1/2+y,1/2+z
1/2+x,1/2-y,1/2+z
loop_
_atom_site_type_symbol
_atom_site_label
_atom_site_fract_x
_atom_site_fract_y
_atom_site_fract_z
Si Si1 0.843547 0.322306 0.852757
Si Si2 0.066760 0.179344 0.765684
Si Si3 0.903651 0.683985 0.649747
Si Si4 0.431443 0.324615 0.433866
Si Si5 0.270563 0.819280 0.190260
Si Si6 0.000000 0.183725 0.565913
O O1 0.830017 0.500000 0.848010
O O2 0.884663 0.268193 0.801479
O O3 0.883527 0.283181 0.905742
O O4 0.782794 0.226908 0.850750
O O5 0.065522 0.250650 0.704880
O O6 0.000000 0.192749 0.790312
O O7 0.082030 0.000000 0.762903
O O8 0.907008 0.500000 0.647361
O O9 0.833923 0.728380 0.662391
O O10 0.940877 0.750969 0.597715
O O11 0.425359 0.325550 0.500000
O O12 0.500000 0.280049 0.421385
O O13 0.422925 0.500000 0.413766
O O14 0.250000 0.750000 0.250000
O O15 0.274035 0.000000 0.198538
O O16 0.000000 0.221174 0.500000
O O17 0.000000 0.000000 0.571517
#
# Coordination Sequence:
#
# PCOD9524260 Si02
#       6
#    16  16  16  16  16   8
#     4  12  24  36  55  86 123 161 201 245 295 357
#     4  11  22  35  56  85 120 160 199 244 301 361
#     4  11  23  39  63  92 120 152 199 254 308 363
#     4   9  19  38  62  85 113 153 200 248 298 351
#     4  11  23  39  60  87 121 162 202 246 303 367
#     4  11  25  45  69  95 125 165 208 251 310 377
#
# _framework density 18.694534000000001
#
# number of rings (size 3 to 8) (size 9 to 14) (size 15 to 20)
#    0.000    1.182    2.727    4.636    0.000    6.909 
#    0.000    1.818    0.000    1.091    0.000    0.000 
#    0.000    0.000    0.000    0.000    0.000    0.000 
#
# Total GULP energy -245682.962609 kJ/mol
# GULP energy per Si atom -5583.703696 kJ/mol
# Density = 1.865198 g / cm^3
# Si number density = 18.694534 Si / 1000 Ang^3
#
#
#
# Elastic Constant Matrix: (Units=GPa)
#
#
# Indices 1 2 3 4 5 6 
#
# 1 131.1600 34.3409 47.0537 0.0000 0.0000 0.0000
# 2 34.3409 50.6334 28.3152 0.0000 0.0000 0.0000
# 3 47.0537 28.3152 100.9572 0.0000 0.0000 0.0000
# 4 0.0000 0.0000 0.0000 31.0914 0.0000 0.0000
# 5 0.0000 0.0000 0.0000 0.0000 172.1890 0.0000
# 6 0.0000 0.0000 0.0000 0.0000 0.0000 26.5446
#
#
#
# Elastic Compliance Matrix: (Units=1/GPa)
#
#
# Indices 1 2 3 4 5 6 
#
# 1 0.010126 -0.005015 -0.003313 0.000000 0.000000 0.000000
# 2 -0.005015 0.025907 -0.004929 0.000000 0.000000 0.000000
# 3 -0.003313 -0.004929 0.012832 0.000000 0.000000 0.000000
# 4 0.000000 0.000000 0.000000 0.032163 0.000000 0.000000
# 5 0.000000 0.000000 0.000000 0.000000 0.005808 0.000000
# 6 0.000000 0.000000 0.000000 0.000000 0.000000 0.037673
#
#
# Mechanical properties :
#
#
# Convention : Reuss Voigt Hill
#
# Bulk Modulus (GPa) = 44.73971 55.79668 50.26819
# Shear Modulus (GPa) = 31.55133 57.50104 44.52619
#
# Velocity S-wave (km/s) = 4.11266 5.55203 4.88564
# Velocity P-wave (km/s) = 6.82172 8.42682 7.66639
#
# Compressibility (1/GPa) = 0.02235151
#
# Stress axis : x y z
#
# Youngs Moduli (GPa) = 98.75761 38.59900 77.93260
#
# Poissons Ratio (x) = 0.19357 0.25818
# Poissons Ratio (y) = 0.49527 0.38412
# Poissons Ratio (z) = 0.32717 0.19025
#
# Static dielectric constant tensor:
#      x y z
#    x 1.684520 0.000000 0.000000 
#    y 0.000000 1.635760 0.000000 
#    z 0.000000 0.000000 1.659620 
# 
# From -- ./inp_files/55568.got.cif
#   From: 2010.05.17/outbox.cif.g08.bks.cpg/sg71_28_cif.got.tgz:55568.got - 2010.06.03 16:22:01.
