data_PCOD9524472
_publ_section_title
;
Structure prediction by ZEFSAII (Michael W. Deem and Ramdas Pophale) SiO2 
 PCOD9524472
Probable space group: I M M M
;
_chemical_formula_sum "Si O2"
_cell_formula_units_Z 80
_cell_length_a 16.633458
_cell_length_b 28.978673
_cell_length_c 8.816636
_cell_angle_alpha 90.000000
_cell_angle_beta 90.000000
_cell_angle_gamma 90.000000
_cell_volume 4249.755565
_symmetry_space_group_name_H-M "I M M M"
_symmetry_group_IT_number 71
_symmetry_cell_setting 'orthorhombic'
loop_
_space_group_symop_operation_xyz
x,y,z
-x,-y,z
x,-y,-z
-x,y,-z
-x,-y,-z
x,y,-z
-x,y,z
x,-y,z
1/2+x,1/2+y,1/2+z
1/2-x,1/2-y,1/2+z
1/2+x,1/2-y,1/2-z
1/2-x,1/2+y,1/2-z
1/2-x,1/2-y,1/2-z
1/2+x,1/2+y,1/2-z
1/2-x,1/2+y,1/2+z
1/2+x,1/2-y,1/2+z
loop_
_atom_site_type_symbol
_atom_site_label
_atom_site_fract_x
_atom_site_fract_y
_atom_site_fract_z
Si Si1 0.905948 0.765888 0.829877
Si Si2 0.406316 0.372398 0.317405
Si Si3 0.202260 0.293668 0.322494
Si Si4 0.590439 0.055431 0.820438
Si Si5 0.241683 0.608137 0.180235
O O1 0.885182 0.818486 0.784005
O O2 0.885439 0.726133 0.712249
O O3 0.000000 0.768203 0.845119
O O4 0.873387 0.755829 0.000000
O O5 0.404840 0.376881 0.500000
O O6 0.500000 0.381396 0.269459
O O7 0.331694 0.400716 0.247623
O O8 0.216283 0.300333 0.500000
O O9 0.250000 0.250000 0.250000
O O10 0.217889 0.340544 0.234871
O O11 0.500000 0.070389 0.768596
O O12 0.668199 0.076673 0.739331
O O13 0.592857 0.000000 0.805229
O O14 0.595987 0.066436 0.000000
O O15 0.246544 0.605749 0.000000
#
# Coordination Sequence:
#
# PCOD9524472 Si02
#       5
#    16  16  16  16  16
#     4   9  18  33  52  73 101 141 188 237 288 340
#     4   9  18  34  56  80 110 151 196 241 285 334
#     4  12  23  35  51  74 109 150 194 242 290 341
#     4   9  20  42  70  95 119 151 194 245 301 361
#     4  12  24  36  57  88 120 157 195 238 296 359
#
# _framework density 18.824612999999999
#
# number of rings (size 3 to 8) (size 9 to 14) (size 15 to 20)
#    0.000    1.800    2.000    5.400    0.000    2.400 
#    0.000    3.000    0.000    0.600    0.000    4.200 
#    0.000    0.000    0.000    0.000    0.000    0.000 
#
# Total GULP energy -222769.125989 kJ/mol
# GULP energy per Si atom -5569.228150 kJ/mol
# Density = 1.878177 g / cm^3
# Si number density = 18.824613 Si / 1000 Ang^3
#
#
#
# Elastic Constant Matrix: (Units=GPa)
#
#
# Indices 1 2 3 4 5 6 
#
# 1 149.5726 42.0998 59.4966 -0.0002 -0.0002 0.0000
# 2 42.0998 33.7908 25.5603 -0.0004 0.0000 0.0001
# 3 59.4966 25.5603 76.9395 -0.0025 -0.0014 -0.0003
# 4 -0.0002 -0.0004 -0.0025 20.6208 -0.0004 -0.0001
# 5 -0.0002 0.0000 -0.0014 -0.0004 29.6058 0.0003
# 6 0.0000 0.0001 -0.0003 -0.0001 0.0003 29.4255
#
#
#
# Elastic Compliance Matrix: (Units=1/GPa)
#
#
# Indices 1 2 3 4 5 6 
#
# 1 0.011926 -0.010529 -0.005725 -0.000001 0.000000 0.000000
# 2 -0.010529 0.048821 -0.008077 0.000000 0.000000 0.000000
# 3 -0.005725 -0.008077 0.020108 0.000002 0.000001 0.000000
# 4 -0.000001 0.000000 0.000002 0.048495 0.000001 0.000000
# 5 0.000000 0.000000 0.000001 0.000001 0.033777 0.000000
# 6 0.000000 0.000000 0.000000 0.000000 0.000000 0.033984
#
#
# Mechanical properties :
#
#
# Convention : Reuss Voigt Hill
#
# Bulk Modulus (GPa) = 31.06202 57.17959 44.12080
# Shear Modulus (GPa) = 19.49285 24.80684 22.14984
#
# Velocity S-wave (km/s) = 3.22141 3.63407 3.43394
# Velocity P-wave (km/s) = 5.51119 6.93177 6.26190
#
# Compressibility (1/GPa) = 0.03219366
#
# Stress axis : x y z
#
# Youngs Moduli (GPa) = 83.84778 20.48284 49.73246
#
# Poissons Ratio (x) = 0.21566 0.28471
# Poissons Ratio (y) = 0.88280 0.40171
# Poissons Ratio (z) = 0.48001 0.16545
#
# Static dielectric constant tensor:
#      x y z
#    x 1.918220 0.000000 0.000000 
#    y 0.000000 1.647640 0.000000 
#    z 0.000000 0.000000 1.707920 
# 
# From -- ./inp_files/8372.got.cif
#   From: 2010.05.17/outbox.cif.g08.bks.cpg/sg71_5_cif.got.tgz:8372.got - 2010.06.03 16:22:01.
