data_PCOD9524552
_publ_section_title
;
Structure prediction by ZEFSAII (Michael W. Deem and Ramdas Pophale) SiO2 
 PCOD9524552
Probable space group: I M M M
;
_chemical_formula_sum "Si O2"
_cell_formula_units_Z 88
_cell_length_a 17.998320
_cell_length_b 7.361581
_cell_length_c 30.731633
_cell_angle_alpha 90.000000
_cell_angle_beta 90.000000
_cell_angle_gamma 90.000000
_cell_volume 4071.821229
_symmetry_space_group_name_H-M "I M M M"
_symmetry_group_IT_number 71
_symmetry_cell_setting 'orthorhombic'
loop_
_space_group_symop_operation_xyz
x,y,z
-x,-y,z
x,-y,-z
-x,y,-z
-x,-y,-z
x,y,-z
-x,y,z
x,-y,z
1/2+x,1/2+y,1/2+z
1/2-x,1/2-y,1/2+z
1/2+x,1/2-y,1/2-z
1/2-x,1/2+y,1/2-z
1/2-x,1/2-y,1/2-z
1/2+x,1/2+y,1/2-z
1/2-x,1/2+y,1/2+z
1/2+x,1/2-y,1/2+z
loop_
_atom_site_type_symbol
_atom_site_label
_atom_site_fract_x
_atom_site_fract_y
_atom_site_fract_z
Si Si1 0.131562 0.777637 0.883630
Si Si2 0.500000 0.278436 0.449050
Si Si3 0.588988 0.294342 0.288406
Si Si4 0.801132 0.278317 0.380837
Si Si5 0.915159 0.290484 0.309107
Si Si6 0.080809 0.279303 0.450236
O O1 0.072593 0.721942 0.920745
O O2 0.111104 0.714972 0.834822
O O3 0.216828 0.720951 0.888744
O O4 0.127426 0.000000 0.883384
O O5 0.500000 0.500000 0.449792
O O6 0.500000 0.220997 0.500000
O O7 0.500000 0.299576 0.289446
O O8 0.618684 0.500000 0.287151
O O9 0.607353 0.212139 0.241630
O O10 0.797548 0.500000 0.379067
O O11 0.848183 0.216103 0.338563
O O12 0.852071 0.220482 0.420862
O O13 0.922419 0.500000 0.322751
O O14 0.000000 0.213020 0.313088
O O15 0.086746 0.220735 0.500000
O O16 0.081426 0.500000 0.450323
O O17 0.000000 0.223997 0.432712
#
# Coordination Sequence:
#
# PCOD9524552 Si02
#       6
#    16   8  16  16  16  16
#     4   9  16  26  39  56  78 107 141 175 214 258
#     4   9  16  26  40  58  81 109 143 183 222 259
#     4   9  16  28  45  60  81 115 149 176 208 255
#     4   9  16  24  36  55  81 109 137 174 216 254
#     4   9  17  28  42  62  87 114 144 178 214 249
#     4   8  13  21  33  49  72 105 139 165 197 249
#
# _framework density 21.611951999999999
#
# number of rings (size 3 to 8) (size 9 to 14) (size 15 to 20)
#    0.000    3.182    0.909    1.091    0.000    3.636 
#    0.000    3.636    0.000    0.000    0.000    0.000 
#    0.000    2.182    0.000   10.000    0.000   12.545 
#
# Total GULP energy -245201.846638 kJ/mol
# GULP energy per Si atom -5572.769242 kJ/mol
# Density = 2.156276 g / cm^3
# Si number density = 21.611952 Si / 1000 Ang^3
#
#
#
# Elastic Constant Matrix: (Units=GPa)
#
#
# Indices 1 2 3 4 5 6 
#
# 1 187.9811 7.5690 128.0943 0.0000 0.0000 0.0000
# 2 7.5690 72.5763 0.3622 0.0000 0.0000 0.0000
# 3 128.0943 0.3622 160.1491 0.0000 0.0000 0.0000
# 4 0.0000 0.0000 0.0000 174.9289 0.0000 0.0000
# 5 0.0000 0.0000 0.0000 0.0000 -12.7914 0.0000
# 6 0.0000 0.0000 0.0000 0.0000 0.0000 -10.2157
#
#
#
# Elastic Compliance Matrix: (Units=1/GPa)
#
#
# Indices 1 2 3 4 5 6 
#
# 1 0.011793 -0.001183 -0.009430 0.000000 0.000000 0.000000
# 2 -0.001183 0.013897 0.000915 0.000000 0.000000 0.000000
# 3 -0.009430 0.000915 0.013785 0.000000 0.000000 0.000000
# 4 0.000000 0.000000 0.000000 0.005717 0.000000 0.000000
# 5 0.000000 0.000000 0.000000 0.000000 -0.078178 0.000000
# 6 0.000000 0.000000 0.000000 0.000000 0.000000 -0.097889
#
#
# Mechanical properties :
#
#
# Convention : Reuss Voigt Hill
#
# Bulk Modulus (GPa) = 49.80373 76.97304 63.38839
# Shear Modulus (GPa) = -47.71635 49.36312 0.82338
#
# Velocity S-wave (km/s) = -4.70389 4.78437 0.61791
# Velocity P-wave (km/s) = 2.53132 8.13717 5.46836
#
# Compressibility (1/GPa) = 0.02007882
#
# Stress axis : x y z
#
# Youngs Moduli (GPa) = 84.79564 71.95592 72.54481
#
# Poissons Ratio (x) = 0.08511 0.68409
# Poissons Ratio (y) = 0.10030 -0.06635
# Poissons Ratio (z) = 0.79962 -0.06581
#
# Static dielectric constant tensor:
#      x y z
#    x 1.756090 0.000000 0.000000 
#    y 0.000000 6.600250 0.000000 
#    z 0.000000 0.000000 1.765610 
# 
# From -- ./inp_files/22509.got.cif
#   From: 2010.05.17/outbox.cif.g08.bks.cpg/sg71_12_cif.got.tgz:22509.got - 2010.06.03 16:22:01.
