data_PCOD9524678
_publ_section_title
;
Structure prediction by ZEFSAII (Michael W. Deem and Ramdas Pophale) SiO2 
 PCOD9524678
Probable space group: I M M M
;
_chemical_formula_sum "Si O2"
_cell_formula_units_Z 48
_cell_length_a 15.000000
_cell_length_b 12.000000
_cell_length_c 30.000000
_cell_angle_alpha 90.000000
_cell_angle_beta 90.000000
_cell_angle_gamma 90.000000
_cell_volume 5400.000000
_symmetry_space_group_name_H-M "I M M M"
_symmetry_group_IT_number 71
_symmetry_cell_setting 'orthorhombic'
loop_
_space_group_symop_operation_xyz
x,y,z
-x,-y,z
x,-y,-z
-x,y,-z
-x,-y,-z
x,y,-z
-x,y,z
x,-y,z
1/2+x,1/2+y,1/2+z
1/2-x,1/2-y,1/2+z
1/2+x,1/2-y,1/2-z
1/2-x,1/2+y,1/2-z
1/2-x,1/2-y,1/2-z
1/2+x,1/2+y,1/2-z
1/2-x,1/2+y,1/2+z
1/2+x,1/2-y,1/2+z
loop_
_atom_site_type_symbol
_atom_site_label
_atom_site_fract_x
_atom_site_fract_y
_atom_site_fract_z
Si Si1 0.609339 0.000000 0.719865
Si Si2 0.391093 0.244861 0.295883
Si Si3 0.268464 0.866531 0.947438
Si Si4 0.892266 0.500000 0.678396
Si Si5 0.108986 0.127269 0.706691
Si Si6 0.102559 0.867190 0.114049
Si Si7 0.892481 0.722085 0.625001
O O1 0.638485 0.882939 0.699622
O O2 0.500000 0.000000 0.719181
O O3 0.639356 0.000000 0.771176
O O4 0.500000 0.245944 0.294265
O O5 0.361432 0.299080 0.249087
O O6 0.366057 0.313392 0.339568
O O7 0.172538 0.843310 0.924963
O O8 0.340605 0.792554 0.921081
O O9 0.287243 0.000000 0.941295
O O10 0.268009 0.845253 0.000000
O O11 0.867419 0.610394 0.652251
O O12 0.000000 0.500000 0.680822
O O13 0.133150 0.179082 0.658832
O O14 0.000000 0.129120 0.707771
O O15 0.138082 0.000000 0.711765
O O16 0.000000 0.831563 0.104862
O O17 0.101069 0.000000 0.120249
O O18 0.000000 0.724263 0.618636
#
# Coordination Sequence:
#
# PCOD9524678 Si02
#       7
#     8  16  16   8  16  16  16
#     4   9  14  22  42  73 105 136 167 197 237 287
#     4   9  15  25  45  73 103 134 166 201 241 287
#     4  10  21  35  52  75  99 124 161 211 260 302
#     4   9  14  24  43  70 100 135 166 189 232 286
#     4   9  16  26  45  73 104 139 173 199 230 283
#     4   9  18  33  52  73  99 131 164 201 248 297
#     4  10  18  30  50  74 104 136 164 198 242 293
#
# _framework density 8.8888890000000007
#
# number of rings (size 3 to 8) (size 9 to 14) (size 15 to 20)
#    0.000    2.667    2.500    0.500    0.000    2.667 
#    0.000    3.333    1.833    0.500    0.000    2.333 
#    0.000    3.333    0.000    0.000    0.000    0.000 
#
# Total GULP energy -267752.257799 kJ/mol
# GULP energy per Si atom -5578.172037 kJ/mol
# Density = 0.886866 g / cm^3
# Si number density = 8.888889 Si / 1000 Ang^3
#
#
#
# Elastic Constant Matrix: (Units=GPa)
#
#
# Indices 1 2 3 4 5 6 
#
# 1 41.8442 24.1758 38.0337 0.0000 0.0000 0.0000
# 2 24.1758 75.8503 36.1016 0.0000 0.0000 0.0000
# 3 38.0337 36.1016 109.4992 0.0000 0.0000 0.0000
# 4 0.0000 0.0000 0.0000 21.9097 0.0000 0.0000
# 5 0.0000 0.0000 0.0000 0.0000 198.1458 0.0000
# 6 0.0000 0.0000 0.0000 0.0000 0.0000 9.4042
#
#
#
# Elastic Compliance Matrix: (Units=1/GPa)
#
#
# Indices 1 2 3 4 5 6 
#
# 1 0.037713 -0.006862 -0.010837 0.000000 0.000000 0.000000
# 2 -0.006862 0.016886 -0.003184 0.000000 0.000000 0.000000
# 3 -0.010837 -0.003184 0.013946 0.000000 0.000000 0.000000
# 4 0.000000 0.000000 0.000000 0.045642 0.000000 0.000000
# 5 0.000000 0.000000 0.000000 0.000000 0.005047 0.000000
# 6 0.000000 0.000000 0.000000 0.000000 0.000000 0.106335
#
#
# Mechanical properties :
#
#
# Convention : Reuss Voigt Hill
#
# Bulk Modulus (GPa) = 37.34175 47.09063 42.21619
# Shear Modulus (GPa) = 18.09874 54.48411 36.29142
#
# Velocity S-wave (km/s) = 3.19416 5.54201 4.52308
# Velocity P-wave (km/s) = 5.88675 8.21570 7.14673
#
# Compressibility (1/GPa) = 0.02677967
#
# Stress axis : x y z
#
# Youngs Moduli (GPa) = 26.51609 59.21895 71.70382
#
# Poissons Ratio (x) = 0.40638 0.77704
# Poissons Ratio (y) = 0.18196 0.22829
# Poissons Ratio (z) = 0.28735 0.18854
#
# Static dielectric constant tensor:
#      x y z
#    x 1.660930 0.000000 0.000000 
#    y 0.000000 1.610800 0.000000 
#    z 0.000000 0.000000 1.573680 
# 
# From -- ./inp_files/33248.got.cif
#   From: 2010.05.17/outbox.ucp.g08.bks.cvg/sg71_17_cif.got.tgz:33248.got - 2010.06.11 16:29:00.
