data_PCOD9524431
_publ_section_title
;
Structure prediction by ZEFSAII (Michael W. Deem and Ramdas Pophale) SiO2 
 PCOD9524431
Probable space group: I M M M
;
_chemical_formula_sum "Si O2"
_cell_formula_units_Z 72
_cell_length_a 8.161781
_cell_length_b 20.957433
_cell_length_c 19.955287
_cell_angle_alpha 90.000000
_cell_angle_beta 90.000000
_cell_angle_gamma 90.000000
_cell_volume 3413.351412
_symmetry_space_group_name_H-M "I M M M"
_symmetry_group_IT_number 71
_symmetry_cell_setting 'orthorhombic'
loop_
_space_group_symop_operation_xyz
x,y,z
-x,-y,z
x,-y,-z
-x,y,-z
-x,-y,-z
x,y,-z
-x,y,z
x,-y,z
1/2+x,1/2+y,1/2+z
1/2-x,1/2-y,1/2+z
1/2+x,1/2-y,1/2-z
1/2-x,1/2+y,1/2-z
1/2-x,1/2-y,1/2-z
1/2+x,1/2+y,1/2-z
1/2-x,1/2+y,1/2+z
1/2+x,1/2-y,1/2+z
loop_
_atom_site_type_symbol
_atom_site_label
_atom_site_fract_x
_atom_site_fract_y
_atom_site_fract_z
Si Si1 0.698682 0.708064 0.077574
Si Si2 0.315802 0.076984 0.000000
Si Si3 0.305593 0.431379 0.918629
Si Si4 0.195843 0.071749 0.852812
Si Si5 0.306315 0.701892 0.693088
O O1 0.500000 0.707440 0.080102
O O2 0.757750 0.637942 0.102842
O O3 0.762962 0.763916 0.123596
O O4 0.746307 0.715832 0.000000
O O5 0.228479 0.091533 0.930109
O O6 0.500000 0.104054 0.000000
O O7 0.326369 0.000000 0.000000
O O8 0.500000 0.432222 0.902666
O O9 0.236221 0.500000 0.895697
O O10 0.294430 0.430602 0.000000
O O11 0.261921 0.129639 0.807706
O O12 0.000000 0.067836 0.843887
O O13 0.262739 0.000000 0.841738
O O14 0.500000 0.696013 0.699529
O O15 0.250000 0.750000 0.750000
#
# Coordination Sequence:
#
# PCOD9524431 Si02
#       5
#    16   8  16  16  16
#     4   9  18  33  55  83 112 143 180 225 277 331
#     4   9  17  29  51  87 121 145 174 221 282 337
#     4   7  10  20  42  72 103 134 172 216 256 298
#     4   9  19  37  59  81 108 145 190 235 278 332
#     4  11  24  40  58  79 109 148 187 230 282 337
#
# _framework density 21.093637999999999
#
# number of rings (size 3 to 8) (size 9 to 14) (size 15 to 20)
#    0.000    3.000    0.000    3.000    1.556    3.556 
#    0.000    1.111    0.000    7.333    0.000    3.111 
#    0.000    0.000    0.000    0.000    0.000    0.000 
#
# Total GULP energy -200565.524915 kJ/mol
# GULP energy per Si atom -5571.264581 kJ/mol
# Density = 2.104563 g / cm^3
# Si number density = 21.093638 Si / 1000 Ang^3
#
#
#
# Elastic Constant Matrix: (Units=GPa)
#
#
# Indices 1 2 3 4 5 6 
#
# 1 10.5435 20.4165 6.3776 0.0000 0.0000 0.0000
# 2 20.4165 195.5910 59.6460 0.0000 0.0000 0.0000
# 3 6.3776 59.6460 48.7798 0.0000 0.0000 0.0000
# 4 0.0000 0.0000 0.0000 13.1956 0.0000 0.0000
# 5 0.0000 0.0000 0.0000 0.0000 20.8436 0.0000
# 6 0.0000 0.0000 0.0000 0.0000 0.0000 17.4439
#
#
#
# Elastic Compliance Matrix: (Units=1/GPa)
#
#
# Indices 1 2 3 4 5 6 
#
# 1 0.118883 -0.012230 -0.000589 0.000000 0.000000 0.000000
# 2 -0.012230 0.009411 -0.009908 0.000000 0.000000 0.000000
# 3 -0.000589 -0.009908 0.032693 0.000000 0.000000 0.000000
# 4 0.000000 0.000000 0.000000 0.075783 0.000000 0.000000
# 5 0.000000 0.000000 0.000000 0.000000 0.047976 0.000000
# 6 0.000000 0.000000 0.000000 0.000000 0.000000 0.057327
#
#
# Mechanical properties :
#
#
# Convention : Reuss Voigt Hill
#
# Bulk Modulus (GPa) = 8.65558 47.53273 28.09416
# Shear Modulus (GPa) = 11.73605 21.52822 16.63213
#
# Velocity S-wave (km/s) = 2.36133 3.19815 2.81105
# Velocity P-wave (km/s) = 3.39806 6.01836 4.88710
#
# Compressibility (1/GPa) = 0.11553240
#
# Stress axis : x y z
#
# Youngs Moduli (GPa) = 8.41163 106.26041 30.58789
#
# Poissons Ratio (x) = 1.29955 0.01802
# Poissons Ratio (y) = 0.10287 0.30307
# Poissons Ratio (z) = 0.00495 1.05285
#
# Static dielectric constant tensor:
#      x y z
#    x 1.762710 0.000000 0.000000 
#    y 0.000000 1.846160 0.000000 
#    z 0.000000 0.000000 1.744240 
# 
# From -- ./inp_files/50214.got.cif
#   From: 2010.05.17/outbox.cif.g08.bks.cpg/sg71_26_cif.got.tgz:50214.got - 2010.06.03 16:22:01.
