data_PCOD9524883
_publ_section_title
;
Structure prediction by ZEFSAII (Michael W. Deem and Ramdas Pophale) SiO2 
 PCOD9524883
Probable space group: I M M M
;
_chemical_formula_sum "Si O2"
_cell_formula_units_Z 36
_cell_length_a 15.000000
_cell_length_b 27.000000
_cell_length_c 9.000000
_cell_angle_alpha 90.000000
_cell_angle_beta 90.000000
_cell_angle_gamma 90.000000
_cell_volume 3645.000000
_symmetry_space_group_name_H-M "I M M M"
_symmetry_group_IT_number 71
_symmetry_cell_setting 'orthorhombic'
loop_
_space_group_symop_operation_xyz
x,y,z
-x,-y,z
x,-y,-z
-x,y,-z
-x,-y,-z
x,y,-z
-x,y,z
x,-y,z
1/2+x,1/2+y,1/2+z
1/2-x,1/2-y,1/2+z
1/2+x,1/2-y,1/2-z
1/2-x,1/2+y,1/2-z
1/2-x,1/2-y,1/2-z
1/2+x,1/2+y,1/2-z
1/2-x,1/2+y,1/2+z
1/2+x,1/2-y,1/2+z
loop_
_atom_site_type_symbol
_atom_site_label
_atom_site_fract_x
_atom_site_fract_y
_atom_site_fract_z
Si Si1 0.000000 0.335057 0.674513
Si Si2 0.677496 0.558279 0.828036
Si Si3 0.000000 0.773337 0.178644
Si Si4 0.166854 0.621610 0.831531
Si Si5 0.103971 0.059845 0.000000
Si Si6 0.688423 0.707905 0.175241
O O1 0.000000 0.284086 0.768168
O O2 0.088411 0.365175 0.719987
O O3 0.000000 0.323567 0.500000
O O4 0.657326 0.500000 0.831740
O O5 0.783273 0.569366 0.818331
O O6 0.639919 0.576325 0.665248
O O7 0.651108 0.576759 0.000000
O O8 0.092183 0.795214 0.245568
O O9 0.000000 0.776791 0.000000
O O10 0.250393 0.659188 0.813151
O O11 0.132417 0.628103 0.000000
O O12 0.000000 0.072284 0.000000
O O13 0.115435 0.000000 0.000000
O O14 0.750000 0.750000 0.250000
O O15 0.674825 0.718778 0.000000
#
# Coordination Sequence:
#
# PCOD9524883 Si02
#       6
#     8  16   8  16   8  16
#     4  12  24  36  61  89 114 152 200 245 296 361
#     4   9  19  38  62  86 118 160 201 246 303 357
#     4  12  24  40  58  83 120 159 198 244 292 347
#     4  10  22  40  61  86 117 154 195 245 300 352
#     4   9  18  34  58  87 117 153 197 248 298 353
#     4  11  22  38  60  84 115 151 192 239 291 348
#
# _framework density 9.8765429999999999
#
# number of rings (size 3 to 8) (size 9 to 14) (size 15 to 20)
#    0.000    1.667    2.222    2.667    1.556    1.333 
#    2.000    2.778    0.000    3.333    0.000    0.000 
#    0.000    0.000    0.000    0.000    0.000    0.000 
#
# Total GULP energy -200664.881043 kJ/mol
# GULP energy per Si atom -5574.024473 kJ/mol
# Density = 0.985406 g / cm^3
# Si number density = 9.876543 Si / 1000 Ang^3
#
#
#
# Elastic Constant Matrix: (Units=GPa)
#
#
# Indices 1 2 3 4 5 6 
#
# 1 117.8370 0.1766 75.6772 0.0000 -0.0006 -0.0002
# 2 0.1766 14.2937 18.6445 0.0004 -0.0005 -0.0003
# 3 75.6772 18.6445 202.4366 0.0003 0.0001 0.0001
# 4 0.0000 0.0004 0.0003 20.9517 -0.0005 -0.0004
# 5 -0.0006 -0.0005 0.0001 -0.0005 45.1071 0.0003
# 6 -0.0002 -0.0003 0.0001 -0.0004 0.0003 21.8835
#
#
#
# Elastic Compliance Matrix: (Units=1/GPa)
#
#
# Indices 1 2 3 4 5 6 
#
# 1 0.011645 0.006290 -0.004932 0.000000 0.000000 0.000000
# 2 0.006290 0.082911 -0.009988 -0.000002 0.000001 0.000001
# 3 -0.004932 -0.009988 0.007704 0.000000 0.000000 0.000000
# 4 0.000000 -0.000002 0.000000 0.047729 0.000001 0.000001
# 5 0.000000 0.000001 0.000000 0.000001 0.022169 0.000000
# 6 0.000000 0.000001 0.000000 0.000001 0.000000 0.045697
#
#
# Mechanical properties :
#
#
# Convention : Reuss Voigt Hill
#
# Bulk Modulus (GPa) = 11.76485 58.17378 34.96931
# Shear Modulus (GPa) = 18.97917 33.59306 26.28611
#
# Velocity S-wave (km/s) = 3.10307 4.12837 3.65188
# Velocity P-wave (km/s) = 4.33678 7.22765 5.96014
#
# Compressibility (1/GPa) = 0.08499899
#
# Stress axis : x y z
#
# Youngs Moduli (GPa) = 85.87696 12.06115 129.80997
#
# Poissons Ratio (x) = -0.07586 0.64028
# Poissons Ratio (y) = -0.54016 1.29648
# Poissons Ratio (z) = 0.42358 0.12046
#
# Static dielectric constant tensor:
#      x y z
#    x 1.673240 0.000000 0.000000 
#    y 0.000000 1.788240 0.000000 
#    z 0.000000 0.000000 1.730870 
# 
# From -- ./inp_files/6221.got.cif
#   From: 2010.05.17/outbox.ucp.g08.bks.cvg/sg71_4_cif.got.tgz:6221.got - 2010.06.11 16:29:00.
