data_PCOD9524895
_publ_section_title
;
Structure prediction by ZEFSAII (Michael W. Deem and Ramdas Pophale) SiO2 
 PCOD9524895
Probable space group: I M M M
;
_chemical_formula_sum "Si O2"
_cell_formula_units_Z 33
_cell_length_a 24.000000
_cell_length_b 15.000000
_cell_length_c 9.000000
_cell_angle_alpha 90.000000
_cell_angle_beta 90.000000
_cell_angle_gamma 90.000000
_cell_volume 3240.000000
_symmetry_space_group_name_H-M "I M M M"
_symmetry_group_IT_number 71
_symmetry_cell_setting 'orthorhombic'
loop_
_space_group_symop_operation_xyz
x,y,z
-x,-y,z
x,-y,-z
-x,y,-z
-x,-y,-z
x,y,-z
-x,y,z
x,-y,z
1/2+x,1/2+y,1/2+z
1/2-x,1/2-y,1/2+z
1/2+x,1/2-y,1/2-z
1/2-x,1/2+y,1/2-z
1/2-x,1/2-y,1/2-z
1/2+x,1/2+y,1/2-z
1/2-x,1/2+y,1/2+z
1/2+x,1/2-y,1/2+z
loop_
_atom_site_type_symbol
_atom_site_label
_atom_site_fract_x
_atom_site_fract_y
_atom_site_fract_z
Si Si1 0.690781 0.746640 0.825514
Si Si2 0.124204 0.895225 0.161466
Si Si3 0.890382 0.401738 0.325332
Si Si4 0.500000 0.500000 0.000000
Si Si5 0.500000 0.844068 0.323696
Si Si6 0.000000 0.145401 0.238426
O O1 0.750000 0.750000 0.750000
O O2 0.656210 0.658767 0.785780
O O3 0.652549 0.828027 0.772870
O O4 0.697872 0.755169 0.000000
O O5 0.058736 0.873481 0.160450
O O6 0.130340 0.000000 0.183095
O O7 0.147829 0.869946 0.000000
O O8 0.904424 0.385672 0.500000
O O9 0.865598 0.500000 0.315677
O O10 0.945339 0.395157 0.227470
O O11 0.500000 0.578098 0.873791
O O12 0.500000 0.826201 0.500000
O O13 0.500000 0.750761 0.234474
#
# Coordination Sequence:
#
# PCOD9524895 Si02
#       6
#    16  16  16   2   8   8
#     4  11  25  43  66  92 124 167 220 271 324 382
#     4  11  23  41  65  94 131 170 209 258 322 388
#     4  10  23  43  66  92 127 170 216 264 321 389
#     4  12  28  36  62 104 142 172 226 260 316 398
#     4  12  24  38  64 100 133 168 208 261 328 389
#     4  12  24  38  62  96 138 170 207 261 316 389
#
# _framework density 10.185185000000001
#
# number of rings (size 3 to 8) (size 9 to 14) (size 15 to 20)
#    0.000    0.970    3.636    2.545    3.394    5.333 
#    0.000    2.424    0.000    0.000    0.000    0.000 
#    0.000    0.000    0.000    0.000    0.000    0.000 
#
# Total GULP energy -183960.707617 kJ/mol
# GULP energy per Si atom -5574.566897 kJ/mol
# Density = 1.016200 g / cm^3
# Si number density = 10.185185 Si / 1000 Ang^3
#
#
#
# Elastic Constant Matrix: (Units=GPa)
#
#
# Indices 1 2 3 4 5 6 
#
# 1 115.0178 17.7546 38.8683 0.0000 0.0000 0.0000
# 2 17.7546 73.3607 17.7156 0.0000 0.0000 0.0000
# 3 38.8683 17.7156 10.5800 0.0000 0.0000 0.0000
# 4 0.0000 0.0000 0.0000 26.3069 0.0000 0.0000
# 5 0.0000 0.0000 0.0000 0.0000 64.2193 0.0000
# 6 0.0000 0.0000 0.0000 0.0000 0.0000 -137.9258
#
#
#
# Elastic Compliance Matrix: (Units=1/GPa)
#
#
# Indices 1 2 3 4 5 6 
#
# 1 -0.012653 -0.013704 0.069429 0.000000 0.000000 0.000000
# 2 -0.013704 0.008042 0.036879 0.000000 0.000000 0.000000
# 3 0.069429 0.036879 -0.222297 0.000000 0.000000 0.000000
# 4 0.000000 0.000000 0.000000 0.038013 0.000000 0.000000
# 5 0.000000 0.000000 0.000000 0.000000 0.015572 0.000000
# 6 0.000000 0.000000 0.000000 0.000000 0.000000 -0.007250
#
#
# Mechanical properties :
#
#
# Convention : Reuss Voigt Hill
#
# Bulk Modulus (GPa) = -23.98056 38.62617 7.32280
# Shear Modulus (GPa) = -13.16895 -1.17191 -7.17043
#
# Velocity S-wave (km/s) = -2.54535 -0.75931 -1.87821
# Velocity P-wave (km/s) = 4.52064 4.27017 1.04925
#
# Compressibility (1/GPa) = -0.04170044
#
# Stress axis : x y z
#
# Youngs Moduli (GPa) = -79.03480 124.34424 -4.49848
#
# Poissons Ratio (x) = 1.70401 0.31232
# Poissons Ratio (y) = -1.08309 0.16590
# Poissons Ratio (z) = 5.48730 -4.58565
#
# Static dielectric constant tensor:
#      x y z
#    x 1.694400 0.000000 0.000000 
#    y 0.000000 1.707140 0.000000 
#    z 0.000000 0.000000 1.708000 
# 
# From -- ./inp_files/5934.got.cif
#   From: 2010.05.17/outbox.ucp.g08.bks.cvg/sg71_3_cif.got.tgz:5934.got - 2010.06.11 16:29:00.
