data_PCOD9524926
_publ_section_title
;
Structure prediction by ZEFSAII (Michael W. Deem and Ramdas Pophale) SiO2 
 PCOD9524926
Probable space group: I B A M
;
_chemical_formula_sum "Si O2"
_cell_formula_units_Z 112
_cell_length_a 19.118869
_cell_length_b 17.162737
_cell_length_c 17.984815
_cell_angle_alpha 90.000000
_cell_angle_beta 90.000000
_cell_angle_gamma 90.000000
_cell_volume 5901.395481
_symmetry_space_group_name_H-M "I B A M"
_symmetry_group_IT_number 72
_symmetry_cell_setting 'orthorhombic'
loop_
_space_group_symop_operation_xyz
x,y,z
-x,-y,z
x,-y,1/2-z
-x,y,1/2-z
-x,-y,-z
x,y,-z
-x,y,1/2+z
x,-y,1/2+z
1/2+x,1/2+y,1/2+z
1/2-x,1/2-y,1/2+z
1/2+x,1/2-y,-z
1/2-x,1/2+y,-z
1/2-x,1/2-y,1/2-z
1/2+x,1/2+y,1/2-z
1/2-x,1/2+y,z
1/2+x,1/2-y,z
loop_
_atom_site_type_symbol
_atom_site_label
_atom_site_fract_x
_atom_site_fract_y
_atom_site_fract_z
Si Si1 0.373280 0.430489 0.301433
Si Si2 0.234923 0.786751 0.137557
Si Si3 0.077711 0.630888 0.257141
Si Si4 0.587103 0.697515 0.182844
Si Si5 0.619033 0.185981 0.919582
Si Si6 0.274389 0.876219 0.290904
Si Si7 0.456800 0.647219 0.915253
O O1 0.398803 0.500000 0.250000
O O2 0.393004 0.353124 0.254933
O O3 0.289158 0.434058 0.307555
O O4 0.411292 0.421847 0.379554
O O5 0.154033 0.807797 0.128276
O O6 0.296833 0.809583 0.083290
O O7 0.257776 0.830649 0.213794
O O8 0.232838 0.693731 0.149877
O O9 0.075931 0.715236 0.214445
O O10 0.092767 0.643901 0.344798
O O11 0.146755 0.592588 0.219420
O O12 0.000000 0.596432 0.250000
O O13 0.521141 0.665215 0.139196
O O14 0.590013 0.274166 0.915081
O O15 0.596290 0.153436 0.000000
O O16 0.478066 0.632091 0.000000
#
# Coordination Sequence:
#
# PCOD9524926 Si02
#       7
#    16  16  16  16  16  16  16
#     4  11  20  34  52  66  85 129 176 202 228 275
#     4   8  14  27  46  63  91 119 148 190 233 285
#     4  10  15  28  50  71  97 122 151 189 237 301
#     4  10  18  31  48  70  94 124 158 193 231 284
#     4  10  17  26  43  68  98 126 149 185 235 286
#     4   8  15  27  45  69  87 110 156 200 231 267
#     4  11  21  32  46  69 102 125 150 198 248 283
#
# _framework density 18.978560999999999
#
# number of rings (size 3 to 8) (size 9 to 14) (size 15 to 20)
#    0.000    2.286    4.286    2.143    0.000    1.714 
#    0.000    1.429    0.000    4.714    0.000    0.000 
#    0.000    0.000    0.000   12.857    0.000    0.000 
#
# Total GULP energy -311893.861733 kJ/mol
# GULP energy per Si atom -5569.533245 kJ/mol
# Density = 1.893537 g / cm^3
# Si number density = 18.978561 Si / 1000 Ang^3
#
#
#
# Elastic Constant Matrix: (Units=GPa)
#
#
# Indices 1 2 3 4 5 6 
#
# 1 143.3837 -0.2091 38.8211 0.0000 0.0000 0.0000
# 2 -0.2091 8.6294 -8.7514 0.0000 0.0000 0.0000
# 3 38.8211 -8.7514 87.4024 0.0000 0.0000 0.0000
# 4 0.0000 0.0000 0.0000 11.5152 0.0000 0.0000
# 5 0.0000 0.0000 0.0000 0.0000 15.8287 0.0000
# 6 0.0000 0.0000 0.0000 0.0000 0.0000 -3.7477
#
#
#
# Elastic Compliance Matrix: (Units=1/GPa)
#
#
# Indices 1 2 3 4 5 6 
#
# 1 0.008039 -0.003814 -0.003952 0.000000 0.000000 0.000000
# 2 -0.003814 0.130790 0.014790 0.000000 0.000000 0.000000
# 3 -0.003952 0.014790 0.014678 0.000000 0.000000 0.000000
# 4 0.000000 0.000000 0.000000 0.086842 0.000000 0.000000
# 5 0.000000 0.000000 0.000000 0.000000 0.063176 0.000000
# 6 0.000000 0.000000 0.000000 0.000000 0.000000 -0.266830
#
#
# Mechanical properties :
#
#
# Convention : Reuss Voigt Hill
#
# Bulk Modulus (GPa) = 5.96825 33.23743 19.60284
# Shear Modulus (GPa) = 63.69536 18.68955 41.19246
#
# Velocity S-wave (km/s) = 5.79953 3.14151 4.66389
# Velocity P-wave (km/s) = 6.92804 5.54166 6.27326
#
# Compressibility (1/GPa) = 0.16755327
#
# Stress axis : x y z
#
# Youngs Moduli (GPa) = 124.39584 7.64587 68.13056
#
# Poissons Ratio (x) = 0.02916 0.26928
# Poissons Ratio (y) = 0.47439 -1.00762
# Poissons Ratio (z) = 0.49167 -0.11308
#
# Static dielectric constant tensor:
#      x y z
#    x 1.730540 0.000000 0.000000 
#    y 0.000000 1.658470 0.000000 
#    z 0.000000 0.000000 1.659990 
# 
# From -- ./inp_files/32750.got.cif
#   From: 2010.05.17/outbox.cif.g08.bks.cpg/sg72_17_cif.got.tgz:32750.got - 2010.06.03 17:03:01.
