data_PCOD9524114
_publ_section_title
;
Structure prediction by ZEFSAII (Michael W. Deem and Ramdas Pophale) SiO2 
 PCOD9524114
Probable space group: I M M M
;
_chemical_formula_sum "Si O2"
_cell_formula_units_Z 96
_cell_length_a 22.793902
_cell_length_b 22.434540
_cell_length_c 8.488509
_cell_angle_alpha 90.000000
_cell_angle_beta 90.000000
_cell_angle_gamma 90.000000
_cell_volume 4340.774842
_symmetry_space_group_name_H-M "I M M M"
_symmetry_group_IT_number 71
_symmetry_cell_setting 'orthorhombic'
loop_
_space_group_symop_operation_xyz
x,y,z
-x,-y,z
x,-y,-z
-x,y,-z
-x,-y,-z
x,y,-z
-x,y,z
x,-y,z
1/2+x,1/2+y,1/2+z
1/2-x,1/2-y,1/2+z
1/2+x,1/2-y,1/2-z
1/2-x,1/2+y,1/2-z
1/2-x,1/2-y,1/2-z
1/2+x,1/2+y,1/2-z
1/2-x,1/2+y,1/2+z
1/2+x,1/2-y,1/2+z
loop_
_atom_site_type_symbol
_atom_site_label
_atom_site_fract_x
_atom_site_fract_y
_atom_site_fract_z
Si Si1 0.270994 0.064113 0.812239
Si Si2 0.429957 0.692745 0.320199
Si Si3 0.569690 0.435727 0.308477
Si Si4 0.392438 0.184807 0.817127
Si Si5 0.234490 0.686079 0.819233
Si Si6 0.594934 0.065272 0.688153
O O1 0.241477 0.125876 0.761217
O O2 0.335875 0.062966 0.734864
O O3 0.242772 0.000000 0.771682
O O4 0.278085 0.065984 0.000000
O O5 0.407579 0.702397 0.500000
O O6 0.500000 0.685841 0.332308
O O7 0.407092 0.628986 0.256108
O O8 0.419537 0.750960 0.216772
O O9 0.574326 0.434322 0.500000
O O10 0.500000 0.437246 0.271432
O O11 0.594258 0.500000 0.255384
O O12 0.335248 0.183178 0.707389
O O13 0.428111 0.125415 0.769793
O O14 0.375542 0.180042 0.000000
O O15 0.250000 0.750000 0.750000
O O16 0.250871 0.684638 0.000000
O O17 0.588862 0.070682 0.500000
O O18 0.570970 0.000000 0.735229
#
# Coordination Sequence:
#
# PCOD9524114 Si02
#       6
#    16  16  16  16  16  16
#     4   9  16  27  45  70  98 125 156 194 235 281
#     4   9  17  30  49  72  98 128 161 198 240 285
#     4   7  10  19  39  67  93 116 149 194 237 275
#     4  11  21  32  48  71 100 131 162 196 237 286
#     4  11  21  34  52  73  99 128 162 202 245 291
#     4   9  16  27  45  68  92 119 155 198 240 280
#
# _framework density 22.115867000000001
#
# number of rings (size 3 to 8) (size 9 to 14) (size 15 to 20)
#    0.000    2.667    0.000    7.500    0.000    2.333 
#    0.000    0.000    0.000    2.000    0.000    8.167 
#    0.000    0.000    0.000    0.000    0.000    0.000 
#
# Total GULP energy -267409.571844 kJ/mol
# GULP energy per Si atom -5571.032747 kJ/mol
# Density = 2.206553 g / cm^3
# Si number density = 22.115867 Si / 1000 Ang^3
#
#
#
# Elastic Constant Matrix: (Units=GPa)
#
#
# Indices 1 2 3 4 5 6 
#
# 1 27.3551 13.0446 -12.3302 0.0000 0.0000 0.0000
# 2 13.0446 282.7899 46.3676 0.0000 0.0000 0.0000
# 3 -12.3302 46.3676 49.4268 0.0000 0.0000 0.0000
# 4 0.0000 0.0000 0.0000 25.2300 0.0000 0.0000
# 5 0.0000 0.0000 0.0000 0.0000 5.4258 0.0000
# 6 0.0000 0.0000 0.0000 0.0000 0.0000 11.1188
#
#
#
# Elastic Compliance Matrix: (Units=1/GPa)
#
#
# Indices 1 2 3 4 5 6 
#
# 1 0.045982 -0.004729 0.015907 0.000000 0.000000 0.000000
# 2 -0.004729 0.004665 -0.005556 0.000000 0.000000 0.000000
# 3 0.015907 -0.005556 0.029413 0.000000 0.000000 0.000000
# 4 0.000000 0.000000 0.000000 0.039635 0.000000 0.000000
# 5 0.000000 0.000000 0.000000 0.000000 0.184306 0.000000
# 6 0.000000 0.000000 0.000000 0.000000 0.000000 0.089938
#
#
# Mechanical properties :
#
#
# Convention : Reuss Voigt Hill
#
# Bulk Modulus (GPa) = 10.95253 50.41510 30.68382
# Shear Modulus (GPa) = 12.10271 29.18754 20.64513
#
# Velocity S-wave (km/s) = 2.34186 3.63679 3.05864
# Velocity P-wave (km/s) = 3.50364 6.36242 5.13594
#
# Compressibility (1/GPa) = 0.09130309
#
# Stress axis : x y z
#
# Youngs Moduli (GPa) = 21.74780 214.34340 33.99879
#
# Poissons Ratio (x) = 1.01369 -0.54083
# Poissons Ratio (y) = 0.10285 0.18891
# Poissons Ratio (z) = -0.34595 1.19099
#
# Static dielectric constant tensor:
#      x y z
#    x 2.088120 0.000000 0.000000 
#    y 0.000000 1.956460 0.000000 
#    z 0.000000 0.000000 1.746710 
# 
# From -- ./inp_files/15171.got.cif
#   From: 2010.05.17/outbox.cif.g08.bks.cpg/sg71_8_cif.got.tgz:15171.got - 2010.06.03 16:22:01.
