data_PCOD9524736
_publ_section_title
;
Structure prediction by ZEFSAII (Michael W. Deem and Ramdas Pophale) SiO2 
 PCOD9524736
Probable space group: I M M M
;
_chemical_formula_sum "Si O2"
_cell_formula_units_Z 52
_cell_length_a 9.000000
_cell_length_b 30.000000
_cell_length_c 21.000000
_cell_angle_alpha 90.000000
_cell_angle_beta 90.000000
_cell_angle_gamma 90.000000
_cell_volume 5670.000000
_symmetry_space_group_name_H-M "I M M M"
_symmetry_group_IT_number 71
_symmetry_cell_setting 'orthorhombic'
loop_
_space_group_symop_operation_xyz
x,y,z
-x,-y,z
x,-y,-z
-x,y,-z
-x,-y,-z
x,y,-z
-x,y,z
x,-y,z
1/2+x,1/2+y,1/2+z
1/2-x,1/2-y,1/2+z
1/2+x,1/2-y,1/2-z
1/2-x,1/2+y,1/2-z
1/2-x,1/2-y,1/2-z
1/2+x,1/2+y,1/2-z
1/2-x,1/2+y,1/2+z
1/2+x,1/2-y,1/2+z
loop_
_atom_site_type_symbol
_atom_site_label
_atom_site_fract_x
_atom_site_fract_y
_atom_site_fract_z
Si Si1 0.818973 0.719895 0.070326
Si Si2 0.666490 0.550678 0.923595
Si Si3 0.674067 0.870423 0.364078
Si Si4 0.329482 0.054194 0.000000
Si Si5 0.679034 0.724306 0.309340
Si Si6 0.820808 0.051601 0.131253
Si Si7 0.678056 0.373584 0.727509
O O1 0.774770 0.670322 0.091643
O O2 0.770746 0.753121 0.125409
O O3 0.000000 0.720941 0.068762
O O4 0.764604 0.730589 0.000000
O O5 0.500000 0.565075 0.903304
O O6 0.687948 0.500000 0.901825
O O7 0.788416 0.583600 0.897849
O O8 0.668571 0.550662 0.000000
O O9 0.500000 0.864750 0.353316
O O10 0.755336 0.870269 0.297129
O O11 0.246439 0.067557 0.935611
O O12 0.500000 0.068700 0.000000
O O13 0.326977 0.000000 0.000000
O O14 0.500000 0.728610 0.304560
O O15 0.750000 0.750000 0.250000
O O16 0.716648 0.672365 0.307528
O O17 0.770865 0.083575 0.188015
O O18 0.000000 0.053289 0.126906
O O19 0.778379 0.000000 0.141838
O O20 0.500000 0.376077 0.732294
#
# Coordination Sequence:
#
# PCOD9524736 Si02
#       7
#    16  16  16   8  16  16  16
#     4   9  18  33  53  78 106 137 175 221 273 323
#     4   9  19  36  55  75 104 142 179 218 267 318
#     4  11  21  33  53  79 107 142 180 222 269 320
#     4   9  17  31  53  79 105 137 175 215 265 321
#     4  10  19  35  57  79 106 141 180 224 271 323
#     4   9  18  34  54  76 105 140 178 221 267 316
#     4  10  21  35  53  79 106 141 186 225 265 320
#
# _framework density 9.1710759999999993
#
# number of rings (size 3 to 8) (size 9 to 14) (size 15 to 20)
#    0.000    2.385    1.538    1.615    0.000    3.385 
#    1.385    2.308    0.000    1.385    0.000    0.000 
#    0.000    0.000    0.000    0.000    0.000    0.000 
#
# Total GULP energy -289899.139751 kJ/mol
# GULP energy per Si atom -5574.983457 kJ/mol
# Density = 0.915020 g / cm^3
# Si number density = 9.171076 Si / 1000 Ang^3
#
#
#
# Elastic Constant Matrix: (Units=GPa)
#
#
# Indices 1 2 3 4 5 6 
#
# 1 -3.7016 24.7407 18.7517 0.0000 0.0000 0.0000
# 2 24.7407 78.9652 57.5347 0.0000 0.0000 0.0000
# 3 18.7517 57.5347 127.0210 -0.0001 0.0001 0.0000
# 4 0.0000 0.0000 -0.0001 30.0280 0.0000 0.0000
# 5 0.0000 0.0000 0.0001 0.0000 38.7591 0.0000
# 6 0.0000 0.0000 0.0000 0.0000 0.0000 9.3470
#
#
#
# Elastic Compliance Matrix: (Units=1/GPa)
#
#
# Indices 1 2 3 4 5 6 
#
# 1 -0.087265 0.026799 0.000744 0.000000 0.000000 0.000000
# 2 0.026799 0.010672 -0.008790 0.000000 0.000000 0.000000
# 3 0.000744 -0.008790 0.011744 0.000000 0.000000 0.000000
# 4 0.000000 0.000000 0.000000 0.033302 0.000000 0.000000
# 5 0.000000 0.000000 0.000000 0.000000 0.025800 0.000000
# 6 0.000000 0.000000 0.000000 0.000000 0.000000 0.106987
#
#
# Mechanical properties :
#
#
# Convention : Reuss Voigt Hill
#
# Bulk Modulus (GPa) = -36.57251 44.92653 4.17701
# Shear Modulus (GPa) = 91.54083 22.37731 56.95907
#
# Velocity S-wave (km/s) = 7.07218 3.49663 5.57863
# Velocity P-wave (km/s) = 6.83413 6.39130 6.61642
#
# Compressibility (1/GPa) = -0.02734294
#
# Stress axis : x y z
#
# Youngs Moduli (GPa) = -11.45934 93.70399 85.14655
#
# Poissons Ratio (x) = -2.51119 -0.06333
# Poissons Ratio (y) = 0.30710 0.74845
# Poissons Ratio (z) = 0.00852 0.82367
#
# Static dielectric constant tensor:
#      x y z
#    x 1.628830 0.000000 0.000000 
#    y 0.000000 1.640880 0.000000 
#    z 0.000000 0.000000 1.637350 
# 
# From -- ./inp_files/16971.got.cif
#   From: 2010.05.17/outbox.ucp.g08.bks.cvg/sg71_9_cif.got.tgz:16971.got - 2010.06.11 16:29:00.
