data_PCOD9524071
_publ_section_title
;
Structure prediction by ZEFSAII (Michael W. Deem and Ramdas Pophale) SiO2 
 PCOD9524071
Probable space group: I M M M
;
_chemical_formula_sum "Si O2"
_cell_formula_units_Z 72
_cell_length_a 18.178060
_cell_length_b 15.482843
_cell_length_c 16.831794
_cell_angle_alpha 90.000000
_cell_angle_beta 90.000000
_cell_angle_gamma 90.000000
_cell_volume 4737.275583
_symmetry_space_group_name_H-M "I M M M"
_symmetry_group_IT_number 71
_symmetry_cell_setting 'orthorhombic'
loop_
_space_group_symop_operation_xyz
x,y,z
-x,-y,z
x,-y,-z
-x,y,-z
-x,-y,-z
x,y,-z
-x,y,z
x,-y,z
1/2+x,1/2+y,1/2+z
1/2-x,1/2-y,1/2+z
1/2+x,1/2-y,1/2-z
1/2-x,1/2+y,1/2-z
1/2-x,1/2-y,1/2-z
1/2+x,1/2+y,1/2-z
1/2-x,1/2+y,1/2+z
1/2+x,1/2-y,1/2+z
loop_
_atom_site_type_symbol
_atom_site_label
_atom_site_fract_x
_atom_site_fract_y
_atom_site_fract_z
Si Si1 0.918869 0.500000 0.904665
Si Si2 0.911713 0.000000 0.912466
Si Si3 0.827796 0.106141 0.342079
Si Si4 0.418783 0.603657 0.000000
Si Si5 0.089685 0.828478 0.185594
Si Si6 0.328176 0.171781 0.402770
O O1 0.875388 0.586156 0.885888
O O2 0.000000 0.500000 0.869181
O O3 0.925070 0.500000 0.000000
O O4 0.894062 0.086180 0.865740
O O5 0.000000 0.000000 0.919069
O O6 0.878777 0.000000 0.000000
O O7 0.875255 0.123918 0.420678
O O8 0.870940 0.149958 0.269088
O O9 0.749790 0.150843 0.361358
O O10 0.821226 0.000000 0.332371
O O11 0.425006 0.500000 0.000000
O O12 0.500000 0.642006 0.000000
O O13 0.128205 0.750092 0.138589
O O14 0.000000 0.817961 0.192593
O O15 0.321314 0.182092 0.500000
#
# Coordination Sequence:
#
# PCOD9524071 Si02
#       6
#     8   8  16   8  16  16
#     4   9  18  31  50  74 104 142 181 218 260 317
#     4   9  18  33  50  71 103 142 177 217 263 315
#     4  11  20  35  55  78 111 146 182 227 281 327
#     4   9  18  30  52  78 104 141 184 225 271 330
#     4  11  22  35  54  80 111 144 185 230 274 327
#     4  11  21  35  55  79 111 147 183 226 277 329
#
# _framework density 15.198608999999999
#
# number of rings (size 3 to 8) (size 9 to 14) (size 15 to 20)
#    0.000    1.667    3.333    2.667    0.000    3.111 
#    0.000    0.000    0.000    0.000    0.000    0.000 
#    0.000    0.000    0.000    7.444    0.000    0.000 
#
# Total GULP energy -200465.631838 kJ/mol
# GULP energy per Si atom -5568.489773 kJ/mol
# Density = 1.516402 g / cm^3
# Si number density = 15.198609 Si / 1000 Ang^3
#
#
#
# Elastic Constant Matrix: (Units=GPa)
#
#
# Indices 1 2 3 4 5 6 
#
# 1 143.1076 69.1626 70.6160 0.0000 0.0000 0.0000
# 2 69.1626 128.5731 66.5891 0.0000 0.0000 0.0000
# 3 70.6160 66.5891 132.0059 0.0000 0.0000 0.0000
# 4 0.0000 0.0000 0.0000 29.1625 0.0000 0.0000
# 5 0.0000 0.0000 0.0000 0.0000 27.0318 0.0000
# 6 0.0000 0.0000 0.0000 0.0000 0.0000 27.6044
#
#
#
# Elastic Compliance Matrix: (Units=1/GPa)
#
#
# Indices 1 2 3 4 5 6 
#
# 1 0.010697 -0.003777 -0.003817 0.000000 0.000000 0.000000
# 2 -0.003777 0.011862 -0.003963 0.000000 0.000000 0.000000
# 3 -0.003817 -0.003963 0.011616 0.000000 0.000000 0.000000
# 4 0.000000 0.000000 0.000000 0.034291 0.000000 0.000000
# 5 0.000000 0.000000 0.000000 0.000000 0.036993 0.000000
# 6 0.000000 0.000000 0.000000 0.000000 0.000000 0.036226
#
#
# Mechanical properties :
#
#
# Convention : Reuss Voigt Hill
#
# Bulk Modulus (GPa) = 90.40874 90.71357 90.56115
# Shear Modulus (GPa) = 29.67602 29.91433 29.79518
#
# Velocity S-wave (km/s) = 4.42356 4.44128 4.43243
# Velocity P-wave (km/s) = 9.25767 9.27982 9.26875
#
# Compressibility (1/GPa) = 0.01106088
#
# Stress axis : x y z
#
# Youngs Moduli (GPa) = 93.48762 84.30238 86.08605
#
# Poissons Ratio (x) = 0.31843 0.32857
# Poissons Ratio (y) = 0.35313 0.34117
# Poissons Ratio (z) = 0.35681 0.33410
#
# Static dielectric constant tensor:
#      x y z
#    x 1.530980 0.000000 0.000000 
#    y 0.000000 1.499140 0.000000 
#    z 0.000000 0.000000 1.514320 
# 
# From -- ./inp_files/34110.got.cif
#   From: 2010.05.17/outbox.cif.g08.bks.cpg/sg71_18_cif.got.tgz:34110.got - 2010.06.03 16:22:01.
