data_PCOD9524590
_publ_section_title
;
Structure prediction by ZEFSAII (Michael W. Deem and Ramdas Pophale) SiO2 
 PCOD9524590
Probable space group: I M M M
;
_chemical_formula_sum "Si O2"
_cell_formula_units_Z 96
_cell_length_a 32.081190
_cell_length_b 9.530386
_cell_length_c 19.022640
_cell_angle_alpha 90.000000
_cell_angle_beta 90.000000
_cell_angle_gamma 90.000000
_cell_volume 5816.098449
_symmetry_space_group_name_H-M "I M M M"
_symmetry_group_IT_number 71
_symmetry_cell_setting 'orthorhombic'
loop_
_space_group_symop_operation_xyz
x,y,z
-x,-y,z
x,-y,-z
-x,y,-z
-x,-y,-z
x,y,-z
-x,y,z
x,-y,z
1/2+x,1/2+y,1/2+z
1/2-x,1/2-y,1/2+z
1/2+x,1/2-y,1/2-z
1/2-x,1/2+y,1/2-z
1/2-x,1/2-y,1/2-z
1/2+x,1/2+y,1/2-z
1/2-x,1/2+y,1/2+z
1/2+x,1/2-y,1/2+z
loop_
_atom_site_type_symbol
_atom_site_label
_atom_site_fract_x
_atom_site_fract_y
_atom_site_fract_z
Si Si1 0.789304 0.661655 0.414378
Si Si2 0.371760 0.334257 0.584261
Si Si3 0.952294 0.167801 0.669628
Si Si4 0.453911 0.330074 0.664965
Si Si5 0.290233 0.161269 0.585763
Si Si6 0.116758 0.668160 0.583144
O O1 0.789301 0.661775 0.500000
O O2 0.782162 0.500000 0.392933
O O3 0.751910 0.760986 0.390735
O O4 0.836035 0.705572 0.393585
O O5 0.375881 0.322223 0.500000
O O6 0.365787 0.500000 0.600149
O O7 0.414207 0.282733 0.620621
O O8 0.331321 0.247001 0.607007
O O9 0.948555 0.201351 0.752555
O O10 0.918290 0.250807 0.625691
O O11 0.000000 0.200973 0.648307
O O12 0.946702 0.000000 0.661922
O O13 0.500000 0.279579 0.642439
O O14 0.454724 0.500000 0.658888
O O15 0.289720 0.162469 0.500000
O O16 0.291670 0.000000 0.608520
O O17 0.113058 0.699158 0.500000
O O18 0.112657 0.500000 0.591314
#
# Coordination Sequence:
#
# PCOD9524590 Si02
#       6
#    16  16  16  16  16  16
#     4   8  14  26  43  62  86 115 145 177 216 262
#     4   9  16  26  44  69  92 116 148 185 224 263
#     4   9  18  32  48  65  88 120 153 183 219 265
#     4   8  15  29  47  66  89 117 150 187 224 262
#     4   9  16  25  39  62  92 121 146 176 216 261
#     4   9  18  31  47  69  94 117 144 184 229 264
#
# _framework density 16.50591
#
# number of rings (size 3 to 8) (size 9 to 14) (size 15 to 20)
#    0.000    3.333    0.000    2.500    0.000    4.000 
#    0.000    5.833    0.000    2.500    0.000    2.333 
#    0.000    0.000    0.000    0.000    0.000    0.000 
#
# Total GULP energy -267225.166894 kJ/mol
# GULP energy per Si atom -5567.190977 kJ/mol
# Density = 1.646834 g / cm^3
# Si number density = 16.505910 Si / 1000 Ang^3
#
#
#
# Elastic Constant Matrix: (Units=GPa)
#
#
# Indices 1 2 3 4 5 6 
#
# 1 201.0786 87.8892 53.1147 0.0000 0.0000 0.0000
# 2 87.8892 62.3307 27.7126 0.0000 0.0000 0.0000
# 3 53.1147 27.7126 17.2682 0.0000 0.0000 0.0000
# 4 0.0000 0.0000 0.0000 11.3049 0.0000 0.0000
# 5 0.0000 0.0000 0.0000 0.0000 -14.9233 0.0000
# 6 0.0000 0.0000 0.0000 0.0000 0.0000 23.8879
#
#
#
# Elastic Compliance Matrix: (Units=1/GPa)
#
#
# Indices 1 2 3 4 5 6 
#
# 1 0.026801 -0.003976 -0.076054 0.000000 0.000000 0.000000
# 2 -0.003976 0.056591 -0.078589 0.000000 0.000000 0.000000
# 3 -0.076054 -0.078589 0.417964 0.000000 0.000000 0.000000
# 4 0.000000 0.000000 0.000000 0.088457 0.000000 0.000000
# 5 0.000000 0.000000 0.000000 0.000000 -0.067009 0.000000
# 6 0.000000 0.000000 0.000000 0.000000 0.000000 0.041862
#
#
# Mechanical properties :
#
#
# Convention : Reuss Voigt Hill
#
# Bulk Modulus (GPa) = 5.43133 68.67893 37.05513
# Shear Modulus (GPa) = 5.30067 11.51796 8.40932
#
# Velocity S-wave (km/s) = 1.79398 2.64447 2.25960
# Velocity P-wave (km/s) = 2.75478 7.14306 5.41351
#
# Compressibility (1/GPa) = 0.18411704
#
# Stress axis : x y z
#
# Youngs Moduli (GPa) = 37.31230 17.67067 2.39255
#
# Poissons Ratio (x) = 0.07026 0.18196
# Poissons Ratio (y) = 0.14836 0.18803
# Poissons Ratio (z) = 2.83777 1.38871
#
# Static dielectric constant tensor:
#      x y z
#    x 1.562810 0.000000 0.000000 
#    y 0.000000 1.545500 0.000000 
#    z 0.000000 0.000000 1.537980 
# 
# From -- ./inp_files/57886.got.cif
#   From: 2010.05.17/outbox.cif.g08.bks.cpg/sg71_29_cif.got.tgz:57886.got - 2010.06.03 16:22:01.
