data_PCOD9524542
_publ_section_title
;
Structure prediction by ZEFSAII (Michael W. Deem and Ramdas Pophale) SiO2 
 PCOD9524542
Probable space group: I M M M
;
_chemical_formula_sum "Si O2"
_cell_formula_units_Z 112
_cell_length_a 33.331519
_cell_length_b 7.308119
_cell_length_c 21.654246
_cell_angle_alpha 90.000000
_cell_angle_beta 90.000000
_cell_angle_gamma 90.000000
_cell_volume 5274.773099
_symmetry_space_group_name_H-M "I M M M"
_symmetry_group_IT_number 71
_symmetry_cell_setting 'orthorhombic'
loop_
_space_group_symop_operation_xyz
x,y,z
-x,-y,z
x,-y,-z
-x,y,-z
-x,-y,-z
x,y,-z
-x,y,z
x,-y,z
1/2+x,1/2+y,1/2+z
1/2-x,1/2-y,1/2+z
1/2+x,1/2-y,1/2-z
1/2-x,1/2+y,1/2-z
1/2-x,1/2-y,1/2-z
1/2+x,1/2+y,1/2-z
1/2-x,1/2+y,1/2+z
1/2+x,1/2-y,1/2+z
loop_
_atom_site_type_symbol
_atom_site_label
_atom_site_fract_x
_atom_site_fract_y
_atom_site_fract_z
Si Si1 0.838875 0.722256 0.931945
Si Si2 0.808667 0.284222 0.700971
Si Si3 0.276185 0.219908 0.332056
Si Si4 0.431918 0.222634 0.430978
Si Si5 0.544161 0.777531 0.704596
Si Si6 0.046212 0.277370 0.429842
Si Si7 0.101157 0.276196 0.684420
O O1 0.839415 0.500000 0.929432
O O2 0.807595 0.787536 0.882025
O O3 0.885161 0.775019 0.924151
O O4 0.825910 0.776896 0.000000
O O5 0.814433 0.500000 0.709895
O O6 0.770426 0.262838 0.656495
O O7 0.791756 0.209602 0.765880
O O8 0.852533 0.214366 0.683337
O O9 0.278501 0.000000 0.330783
O O10 0.445676 0.281603 0.500000
O O11 0.451762 0.282353 0.366806
O O12 0.434608 0.000000 0.431998
O O13 0.500000 0.726393 0.728124
O O14 0.578633 0.719626 0.752307
O O15 0.545973 0.000000 0.703217
O O16 0.057016 0.221516 0.500000
O O17 0.046596 0.500000 0.429407
O O18 0.075853 0.217468 0.375505
O O19 0.000000 0.222733 0.418133
O O20 0.100668 0.500000 0.683984
#
# Coordination Sequence:
#
# PCOD9524542 Si02
#       7
#    16  16  16  16  16  16  16
#     4   8  13  22  37  54  70  93 128 164 191 219
#     4   9  17  27  40  58  79 103 128 156 194 235
#     4   9  16  27  42  58  76  99 130 164 193 225
#     4   8  13  20  29  43  65  92 121 151 182 218
#     4   9  15  20  28  44  66  93 122 151 184 219
#     4   8  13  21  33  48  67  94 125 152 180 219
#     4   9  15  23  34  48  69  95 122 152 185 223
#
# _framework density 21.233141
#
# number of rings (size 3 to 8) (size 9 to 14) (size 15 to 20)
#    0.000    3.429    0.000    2.571    0.000    5.429 
#    0.000    2.143    0.000    1.286    0.000    0.000 
#    0.000    2.286    0.000    1.857    0.000    2.429 
#
# Total GULP energy -312240.306217 kJ/mol
# GULP energy per Si atom -5575.719754 kJ/mol
# Density = 2.118481 g / cm^3
# Si number density = 21.233141 Si / 1000 Ang^3
#
#
#
# Elastic Constant Matrix: (Units=GPa)
#
#
# Indices 1 2 3 4 5 6 
#
# 1 117.9164 5.9975 56.7520 0.0000 0.0000 0.0000
# 2 5.9975 84.6265 3.8740 0.0000 0.0000 0.0000
# 3 56.7520 3.8740 95.9217 0.0000 0.0000 0.0000
# 4 0.0000 0.0000 0.0000 -14.7437 0.0000 0.0000
# 5 0.0000 0.0000 0.0000 0.0000 35.6294 0.0000
# 6 0.0000 0.0000 0.0000 0.0000 0.0000 -2.6814
#
#
#
# Elastic Compliance Matrix: (Units=1/GPa)
#
#
# Indices 1 2 3 4 5 6 
#
# 1 0.011880 -0.000521 -0.007008 0.000000 0.000000 0.000000
# 2 -0.000521 0.011861 -0.000171 0.000000 0.000000 0.000000
# 3 -0.007008 -0.000171 0.014578 0.000000 0.000000 0.000000
# 4 0.000000 0.000000 0.000000 -0.067826 0.000000 0.000000
# 5 0.000000 0.000000 0.000000 0.000000 0.028067 0.000000
# 6 0.000000 0.000000 0.000000 0.000000 0.000000 -0.372946
#
#
# Mechanical properties :
#
#
# Convention : Reuss Voigt Hill
#
# Bulk Modulus (GPa) = 43.62936 47.96794 45.79865
# Shear Modulus (GPa) = -14.23098 19.09695 2.43299
#
# Velocity S-wave (km/s) = -2.59168 3.00224 1.07160
# Velocity P-wave (km/s) = 3.41125 5.88711 4.81117
#
# Compressibility (1/GPa) = 0.02292035
#
# Stress axis : x y z
#
# Youngs Moduli (GPa) = 84.17668 84.30725 68.59605
#
# Poissons Ratio (x) = 0.04394 0.48069
# Poissons Ratio (y) = 0.04387 0.01171
# Poissons Ratio (z) = 0.58988 0.01439
#
# Static dielectric constant tensor:
#      x y z
#    x 1.747130 0.000000 0.000000 
#    y 0.000000 2.302010 0.000000 
#    z 0.000000 0.000000 1.752900 
# 
# From -- ./inp_files/62132.got.cif
#   From: 2010.05.17/outbox.cif.g08.bks.cpg/sg71_32_cif.got.tgz:62132.got - 2010.06.03 16:22:01.
