data_PCOD9524760
_publ_section_title
;
Structure prediction by ZEFSAII (Michael W. Deem and Ramdas Pophale) SiO2 
 PCOD9524760
Probable space group: I M M M
;
_chemical_formula_sum "Si O2"
_cell_formula_units_Z 48
_cell_length_a 24.000000
_cell_length_b 24.000000
_cell_length_c 9.000000
_cell_angle_alpha 90.000000
_cell_angle_beta 90.000000
_cell_angle_gamma 90.000000
_cell_volume 5184.000000
_symmetry_space_group_name_H-M "I M M M"
_symmetry_group_IT_number 71
_symmetry_cell_setting 'orthorhombic'
loop_
_space_group_symop_operation_xyz
x,y,z
-x,-y,z
x,-y,-z
-x,y,-z
-x,-y,-z
x,y,-z
-x,y,z
x,-y,z
1/2+x,1/2+y,1/2+z
1/2-x,1/2-y,1/2+z
1/2+x,1/2-y,1/2-z
1/2-x,1/2+y,1/2-z
1/2-x,1/2-y,1/2-z
1/2+x,1/2+y,1/2-z
1/2-x,1/2+y,1/2+z
1/2+x,1/2-y,1/2+z
loop_
_atom_site_type_symbol
_atom_site_label
_atom_site_fract_x
_atom_site_fract_y
_atom_site_fract_z
Si Si1 0.676292 0.934514 0.823755
Si Si2 0.432308 0.560975 0.173622
Si Si3 0.438307 0.067699 0.672646
Si Si4 0.240672 0.660027 0.176995
Si Si5 0.937183 0.174398 0.821635
Si Si6 0.167457 0.764408 0.821864
O O1 0.615527 0.915338 0.765172
O O2 0.723671 0.898369 0.746195
O O3 0.681861 0.000000 0.787645
O O4 0.678989 0.927973 0.000000
O O5 0.500000 0.560126 0.182191
O O6 0.412884 0.500000 0.227227
O O7 0.414569 0.615356 0.262279
O O8 0.417641 0.566326 0.000000
O O9 0.431231 0.084163 0.500000
O O10 0.500000 0.086463 0.722885
O O11 0.439374 0.000000 0.676262
O O12 0.191690 0.704223 0.216216
O O13 0.295042 0.688732 0.244498
O O14 0.245207 0.656072 0.000000
O O15 0.895897 0.223798 0.779365
O O16 0.000000 0.182294 0.765857
O O17 0.939031 0.171337 0.000000
O O18 0.172989 0.770503 0.000000
#
# Coordination Sequence:
#
# PCOD9524760 Si02
#       6
#    16  16  16  16  16  16
#     4  10  20  33  51  76 106 137 167 207 260 309
#     4   8  14  25  41  63  94 130 163 194 231 278
#     4   8  14  26  45  69  98 133 171 207 244 293
#     4  10  20  35  56  77  97 129 173 214 251 296
#     4   9  17  30  50  75 101 128 159 198 245 297
#     4   9  19  36  55  75 100 130 166 207 251 299
#
# _framework density 9.2592590000000001
#
# number of rings (size 3 to 8) (size 9 to 14) (size 15 to 20)
#    0.000    3.000    0.000    2.000    0.000    3.000 
#    0.000    5.000    0.000    4.000    0.000    0.000 
#    0.000    0.000    0.000    0.000    0.000    0.000 
#
# Total GULP energy -267340.683848 kJ/mol
# GULP energy per Si atom -5569.597580 kJ/mol
# Density = 0.923818 g / cm^3
# Si number density = 9.259259 Si / 1000 Ang^3
#
#
#
# Elastic Constant Matrix: (Units=GPa)
#
#
# Indices 1 2 3 4 5 6 
#
# 1 44.1665 37.4516 23.1038 0.0000 0.0000 0.0000
# 2 37.4516 34.3834 24.6567 0.0000 0.0000 0.0000
# 3 23.1038 24.6567 13.3866 0.0000 0.0000 0.0000
# 4 0.0000 0.0000 0.0000 12.1757 0.0000 0.0000
# 5 0.0000 0.0000 0.0000 0.0000 21.9769 0.0000
# 6 0.0000 0.0000 0.0000 0.0000 0.0000 19.1608
#
#
#
# Elastic Compliance Matrix: (Units=1/GPa)
#
#
# Indices 1 2 3 4 5 6 
#
# 1 0.150320 -0.069538 -0.131355 0.000000 0.000000 0.000000
# 2 -0.069538 -0.058479 0.227728 0.000000 0.000000 0.000000
# 3 -0.131355 0.227728 -0.118045 0.000000 0.000000 0.000000
# 4 0.000000 0.000000 0.000000 0.082131 0.000000 0.000000
# 5 0.000000 0.000000 0.000000 0.000000 0.045502 0.000000
# 6 0.000000 0.000000 0.000000 0.000000 0.000000 0.052190
#
#
# Mechanical properties :
#
#
# Convention : Reuss Voigt Hill
#
# Bulk Modulus (GPa) = 36.40884 29.15119 32.78002
# Shear Modulus (GPa) = 45.82776 11.11096 28.46936
#
# Velocity S-wave (km/s) = 4.98003 2.45213 3.92515
# Velocity P-wave (km/s) = 7.26437 4.87781 6.18725
#
# Compressibility (1/GPa) = 0.02746585
#
# Stress axis : x y z
#
# Youngs Moduli (GPa) = 6.65247 -17.10005 -8.47134
#
# Poissons Ratio (x) = -1.18910 -1.11275
# Poissons Ratio (y) = 0.46260 1.92916
# Poissons Ratio (z) = 0.87384 3.89416
#
# Static dielectric constant tensor:
#      x y z
#    x 1.680850 0.000000 0.000000 
#    y 0.000000 1.648280 0.000000 
#    z 0.000000 0.000000 1.615060 
# 
# From -- ./inp_files/12853.got.cif
#   From: 2010.05.17/outbox.ucp.g08.bks.cvg/sg71_7_cif.got.tgz:12853.got - 2010.06.11 16:29:00.
