data_PCOD9524858
_publ_section_title
;
Structure prediction by ZEFSAII (Michael W. Deem and Ramdas Pophale) SiO2 
 PCOD9524858
Probable space group: I M M M
;
_chemical_formula_sum "Si O2"
_cell_formula_units_Z 45
_cell_length_a 9.000000
_cell_length_b 21.000000
_cell_length_c 24.000000
_cell_angle_alpha 90.000000
_cell_angle_beta 90.000000
_cell_angle_gamma 90.000000
_cell_volume 4536.000000
_symmetry_space_group_name_H-M "I M M M"
_symmetry_group_IT_number 71
_symmetry_cell_setting 'orthorhombic'
loop_
_space_group_symop_operation_xyz
x,y,z
-x,-y,z
x,-y,-z
-x,y,-z
-x,-y,-z
x,y,-z
-x,y,z
x,-y,z
1/2+x,1/2+y,1/2+z
1/2-x,1/2-y,1/2+z
1/2+x,1/2-y,1/2-z
1/2-x,1/2+y,1/2-z
1/2-x,1/2-y,1/2-z
1/2+x,1/2+y,1/2-z
1/2-x,1/2+y,1/2+z
1/2+x,1/2-y,1/2+z
loop_
_atom_site_type_symbol
_atom_site_label
_atom_site_fract_x
_atom_site_fract_y
_atom_site_fract_z
Si Si1 0.320734 0.872245 0.384183
Si Si2 0.676121 0.306599 0.215231
Si Si3 0.172526 0.928764 0.792558
Si Si4 0.500000 0.000000 0.500000
Si Si5 0.176008 0.427018 0.590115
Si Si6 0.678182 0.338385 0.500000
Si Si7 0.678858 0.193378 0.500000
Si Si8 0.189076 0.000000 0.412253
O O1 0.500000 0.881872 0.379601
O O2 0.265834 0.819107 0.341197
O O3 0.282803 0.846273 0.445563
O O4 0.222651 0.936000 0.378400
O O5 0.500000 0.295312 0.206227
O O6 0.750000 0.250000 0.250000
O O7 0.693430 0.372179 0.249576
O O8 0.277061 0.920103 0.845801
O O9 0.000000 0.926364 0.811528
O O10 0.198308 0.000000 0.769450
O O11 0.647039 0.000000 0.452308
O O12 0.213665 0.500000 0.573622
O O13 0.262123 0.376512 0.553078
O O14 0.000000 0.418932 0.583099
O O15 0.500000 0.338127 0.500000
O O16 0.734092 0.265570 0.500000
O O17 0.500000 0.197090 0.500000
O O18 0.000000 0.000000 0.427942
#
# Coordination Sequence:
#
# PCOD9524858 Si02
#       8
#    16  16  16   2  16   8   8   8
#     4  11  23  45  72  99 136 176 227 283 349 415
#     4  11  25  43  66  98 134 177 224 280 345 412
#     4   9  20  40  65  89 120 163 213 266 321 385
#     4  12  22  44  68 110 148 188 238 280 370 408
#     4  10  21  37  58  88 123 156 201 258 316 375
#     4  11  22  37  59  88 121 164 210 253 313 384
#     4   9  23  42  64  89 126 172 213 265 328 397
#     4  12  25  43  73 108 143 185 236 296 350 423
#
# _framework density 9.9206350000000008
#
# number of rings (size 3 to 8) (size 9 to 14) (size 15 to 20)
#    0.000    1.600    0.889    2.800    4.978    3.556 
#    0.000    4.000    0.000    0.000    0.000    0.000 
#    0.000    0.000    0.000    0.000    0.000    0.000 
#
# Total GULP energy -250596.499219 kJ/mol
# GULP energy per Si atom -5568.811094 kJ/mol
# Density = 0.989806 g / cm^3
# Si number density = 9.920635 Si / 1000 Ang^3
#
#
#
# Elastic Constant Matrix: (Units=GPa)
#
#
# Indices 1 2 3 4 5 6 
#
# 1 88.0665 41.5234 32.9157 0.0000 0.0000 0.0000
# 2 41.5234 105.6707 44.8523 0.0000 0.0000 0.0000
# 3 32.9157 44.8523 82.2591 0.0000 0.0000 0.0000
# 4 0.0000 0.0000 0.0000 19.2536 0.0000 0.0000
# 5 0.0000 0.0000 0.0000 0.0000 -1.8780 0.0000
# 6 0.0000 0.0000 0.0000 0.0000 0.0000 28.9098
#
#
#
# Elastic Compliance Matrix: (Units=1/GPa)
#
#
# Indices 1 2 3 4 5 6 
#
# 1 0.014695 -0.004266 -0.003554 0.000000 0.000000 0.000000
# 2 -0.004266 0.013551 -0.005682 0.000000 0.000000 0.000000
# 3 -0.003554 -0.005682 0.016677 0.000000 0.000000 0.000000
# 4 0.000000 0.000000 0.000000 0.051938 0.000000 0.000000
# 5 0.000000 0.000000 0.000000 0.000000 -0.532480 0.000000
# 6 0.000000 0.000000 0.000000 0.000000 0.000000 0.034590
#
#
# Mechanical properties :
#
#
# Convention : Reuss Voigt Hill
#
# Bulk Modulus (GPa) = 55.80568 57.17545 56.49057
# Shear Modulus (GPa) = -13.58506 19.70408 3.05951
#
# Velocity S-wave (km/s) = -2.61949 3.15474 1.24312
# Velocity P-wave (km/s) = 4.36327 6.49222 5.53114
#
# Compressibility (1/GPa) = 0.01791932
#
# Stress axis : x y z
#
# Youngs Moduli (GPa) = 68.05152 73.79334 59.96268
#
# Poissons Ratio (x) = 0.31478 0.21311
# Poissons Ratio (y) = 0.29029 0.34071
# Poissons Ratio (z) = 0.24186 0.41930
#
# Static dielectric constant tensor:
#      x y z
#    x 1.726020 0.000000 0.000000 
#    y 0.000000 1.717160 0.000000 
#    z 0.000000 0.000000 1.755590 
# 
# From -- ./inp_files/57649.got.cif
#   From: 2010.05.17/outbox.ucp.g08.bks.cvg/sg71_29_cif.got.tgz:57649.got - 2010.06.11 16:29:00.
