data_PCOD9524575
_publ_section_title
;
Structure prediction by ZEFSAII (Michael W. Deem and Ramdas Pophale) SiO2 
 PCOD9524575
Probable space group: I M M M
;
_chemical_formula_sum "Si O2"
_cell_formula_units_Z 88
_cell_length_a 7.359492
_cell_length_b 29.049022
_cell_length_c 19.786602
_cell_angle_alpha 90.000000
_cell_angle_beta 90.000000
_cell_angle_gamma 90.000000
_cell_volume 4230.099386
_symmetry_space_group_name_H-M "I M M M"
_symmetry_group_IT_number 71
_symmetry_cell_setting 'orthorhombic'
loop_
_space_group_symop_operation_xyz
x,y,z
-x,-y,z
x,-y,-z
-x,y,-z
-x,-y,-z
x,y,-z
-x,y,z
x,-y,z
1/2+x,1/2+y,1/2+z
1/2-x,1/2-y,1/2+z
1/2+x,1/2-y,1/2-z
1/2-x,1/2+y,1/2-z
1/2-x,1/2-y,1/2-z
1/2+x,1/2+y,1/2-z
1/2-x,1/2+y,1/2+z
1/2+x,1/2-y,1/2+z
loop_
_atom_site_type_symbol
_atom_site_label
_atom_site_fract_x
_atom_site_fract_y
_atom_site_fract_z
Si Si1 0.278418 0.121703 0.078306
Si Si2 0.785795 0.323856 0.922592
Si Si3 0.217829 0.277438 0.421973
Si Si4 0.278725 0.000000 0.422764
Si Si5 0.221898 0.410527 0.838280
Si Si6 0.221892 0.553196 0.306369
O O1 0.500000 0.121214 0.077963
O O2 0.222198 0.172670 0.104281
O O3 0.218845 0.081383 0.127833
O O4 0.222598 0.116449 0.000000
O O5 0.767073 0.272294 0.893175
O O6 0.714403 0.363681 0.873798
O O7 0.000000 0.332515 0.928904
O O8 0.711533 0.325248 0.000000
O O9 0.281274 0.275980 0.500000
O O10 0.000000 0.278607 0.422448
O O11 0.223220 0.045830 0.383515
O O12 0.500000 0.000000 0.423012
O O13 0.218383 0.000000 0.500000
O O14 0.278915 0.420547 0.761723
O O15 0.000000 0.409668 0.837171
O O16 0.279734 0.500000 0.305382
O O17 0.000000 0.552657 0.306497
#
# Coordination Sequence:
#
# PCOD9524575 Si02
#       6
#    16  16  16   8  16  16
#     4   8  14  24  38  55  74 100 135 168 198 240
#     4   9  16  25  39  60  84 108 136 171 205 235
#     4   8  14  26  42  58  79 108 138 167 202 243
#     4   9  14  20  32  48  70 102 134 160 191 238
#     4   9  15  23  33  51  79 106 130 160 202 245
#     4   9  15  23  35  52  78 108 131 159 205 250
#
# _framework density 20.803293
#
# number of rings (size 3 to 8) (size 9 to 14) (size 15 to 20)
#    0.000    3.364    0.909    1.636    0.000    2.545 
#    0.000    2.727    0.000    0.000    0.000    0.636 
#    0.000    5.818    0.000    7.091    0.000    7.273 
#
# Total GULP energy -245276.796672 kJ/mol
# GULP energy per Si atom -5574.472652 kJ/mol
# Density = 2.075594 g / cm^3
# Si number density = 20.803293 Si / 1000 Ang^3
#
#
#
# Elastic Constant Matrix: (Units=GPa)
#
#
# Indices 1 2 3 4 5 6 
#
# 1 73.6711 4.0722 4.0277 0.0000 0.0000 0.0000
# 2 4.0722 181.5275 97.6908 0.0001 0.0000 0.0000
# 3 4.0277 97.6908 126.6956 0.0001 0.0000 0.0000
# 4 0.0000 0.0001 0.0001 -67.0479 0.0000 0.0000
# 5 0.0000 0.0000 0.0000 0.0000 -10.6759 0.0000
# 6 0.0000 0.0000 0.0000 0.0000 0.0000 8.2579
#
#
#
# Elastic Compliance Matrix: (Units=1/GPa)
#
#
# Indices 1 2 3 4 5 6 
#
# 1 0.013599 -0.000124 -0.000337 0.000000 0.000000 0.000000
# 2 -0.000124 0.009417 -0.007257 0.000000 0.000000 0.000000
# 3 -0.000337 -0.007257 0.013500 0.000000 0.000000 0.000000
# 4 0.000000 0.000000 0.000000 -0.014915 0.000000 0.000000
# 5 0.000000 0.000000 0.000000 0.000000 -0.093669 0.000000
# 6 0.000000 0.000000 0.000000 0.000000 0.000000 0.121096
#
#
# Mechanical properties :
#
#
# Convention : Reuss Voigt Hill
#
# Bulk Modulus (GPa) = 47.43870 65.94174 56.69022
# Shear Modulus (GPa) = 69.93859 4.51372 37.22615
#
# Velocity S-wave (km/s) = 5.80448 1.47459 4.23476
# Velocity P-wave (km/s) = 8.23259 5.88777 7.15686
#
# Compressibility (1/GPa) = 0.02107984
#
# Stress axis : x y z
#
# Youngs Moduli (GPa) = 73.53422 106.18862 74.07649
#
# Poissons Ratio (x) = 0.01314 0.02495
# Poissons Ratio (y) = 0.00910 0.53760
# Poissons Ratio (z) = 0.02477 0.77065
#
# Static dielectric constant tensor:
#      x y z
#    x 1.843030 0.000000 0.000000 
#    y 0.000000 1.743050 0.000000 
#    z 0.000000 0.000000 1.708740 
# 
# From -- ./inp_files/24701.got.cif
#   From: 2010.05.17/outbox.cif.g08.bks.cpg/sg71_13_cif.got.tgz:24701.got - 2010.06.03 16:22:01.
