data_PCOD9524122
_publ_section_title
;
Structure prediction by ZEFSAII (Michael W. Deem and Ramdas Pophale) SiO2 
 PCOD9524122
Probable space group: I M M M
;
_chemical_formula_sum "Si O2"
_cell_formula_units_Z 72
_cell_length_a 8.037057
_cell_length_b 29.637798
_cell_length_c 15.362379
_cell_angle_alpha 90.000000
_cell_angle_beta 90.000000
_cell_angle_gamma 90.000000
_cell_volume 3659.328999
_symmetry_space_group_name_H-M "I M M M"
_symmetry_group_IT_number 71
_symmetry_cell_setting 'orthorhombic'
loop_
_space_group_symop_operation_xyz
x,y,z
-x,-y,z
x,-y,-z
-x,y,-z
-x,-y,-z
x,y,-z
-x,y,z
x,-y,z
1/2+x,1/2+y,1/2+z
1/2-x,1/2-y,1/2+z
1/2+x,1/2-y,1/2-z
1/2-x,1/2+y,1/2-z
1/2-x,1/2-y,1/2-z
1/2+x,1/2+y,1/2-z
1/2-x,1/2+y,1/2+z
1/2+x,1/2-y,1/2+z
loop_
_atom_site_type_symbol
_atom_site_label
_atom_site_fract_x
_atom_site_fract_y
_atom_site_fract_z
Si Si1 0.202600 0.702481 0.000000
Si Si2 0.696558 0.695910 0.500000
Si Si3 0.296453 0.128310 0.638524
Si Si4 0.193463 0.049817 0.104582
Si Si5 0.312768 0.859218 0.168428
Si Si6 0.796884 0.447198 0.000000
O O1 0.267821 0.753344 0.000000
O O2 0.250132 0.671953 0.917934
O O3 0.000000 0.704122 0.000000
O O4 0.500000 0.699954 0.500000
O O5 0.740302 0.669132 0.411778
O O6 0.500000 0.125667 0.642262
O O7 0.232822 0.137391 0.735904
O O8 0.245762 0.083157 0.584585
O O9 0.307987 0.089088 0.138026
O O10 0.000000 0.058931 0.127767
O O11 0.238384 0.000000 0.136442
O O12 0.200040 0.049430 0.000000
O O13 0.500000 0.842310 0.179839
O O14 0.742966 0.500000 0.000000
O O15 0.000000 0.447769 0.000000
#
# Coordination Sequence:
#
# PCOD9524122 Si02
#       6
#     8   8  16  16  16   8
#     4   8  16  34  54  70  94 135 176 210 255 310
#     4  11  22  35  53  72  96 136 182 214 247 310
#     4   8  16  30  48  73 105 134 164 206 255 305
#     4   9  18  33  51  69  96 137 176 203 234 289
#     4  11  21  32  50  79 109 132 162 213 267 304
#     4   8  13  25  47  73 103 136 163 194 244 305
#
# _framework density 19.675737999999999
#
# number of rings (size 3 to 8) (size 9 to 14) (size 15 to 20)
#    0.000    2.778    1.111    3.000    0.000    2.222 
#    0.000    3.333    0.000    4.000    0.000    9.333 
#    0.000   10.667    0.000    0.000    0.000    0.000 
#
# Total GULP energy -200443.396963 kJ/mol
# GULP energy per Si atom -5567.872138 kJ/mol
# Density = 1.963096 g / cm^3
# Si number density = 19.675738 Si / 1000 Ang^3
#
#
#
# Elastic Constant Matrix: (Units=GPa)
#
#
# Indices 1 2 3 4 5 6 
#
# 1 10.3562 16.2288 16.4243 0.0000 0.0000 0.0000
# 2 16.2288 156.1800 90.1630 -0.0002 0.0000 0.0000
# 3 16.4243 90.1630 158.4525 -0.0007 -0.0002 0.0001
# 4 0.0000 -0.0002 -0.0007 -3.5556 -0.0001 0.0000
# 5 0.0000 0.0000 -0.0002 -0.0001 -6.7437 0.0000
# 6 0.0000 0.0000 0.0001 0.0000 0.0000 2.0394
#
#
#
# Elastic Compliance Matrix: (Units=1/GPa)
#
#
# Indices 1 2 3 4 5 6 
#
# 1 0.121922 -0.008002 -0.008085 0.000002 0.000001 0.000000
# 2 -0.008002 0.010060 -0.004895 0.000000 0.000000 0.000000
# 3 -0.008085 -0.004895 0.009934 -0.000002 0.000000 0.000000
# 4 0.000002 0.000000 -0.000002 -0.281247 0.000004 0.000005
# 5 0.000001 0.000000 0.000000 0.000004 -0.148286 -0.000002
# 6 0.000000 0.000000 0.000000 0.000005 -0.000002 0.490342
#
#
# Mechanical properties :
#
#
# Convention : Reuss Voigt Hill
#
# Bulk Modulus (GPa) = 10.00464 63.40234 36.70349
# Shear Modulus (GPa) = 17.98526 11.82618 14.90572
#
# Velocity S-wave (km/s) = 3.02666 2.45430 2.75538
# Velocity P-wave (km/s) = 4.16053 6.35020 5.36820
#
# Compressibility (1/GPa) = 0.09995362
#
# Stress axis : x y z
#
# Youngs Moduli (GPa) = 8.20198 99.40057 100.65957
#
# Poissons Ratio (x) = 0.79538 0.81379
# Poissons Ratio (y) = 0.06563 0.49274
# Poissons Ratio (z) = 0.06631 0.48658
#
# Static dielectric constant tensor:
#      x y z
#    x 1.723040 0.000000 0.000000 
#    y 0.000000 1.684250 0.000000 
#    z 0.000000 0.000000 1.792380 
# 
# From -- ./inp_files/16395.got.cif
#   From: 2010.05.17/outbox.cif.g08.bks.cpg/sg71_9_cif.got.tgz:16395.got - 2010.06.03 16:22:01.
