data_PCOD9524954
_publ_section_title
;
Structure prediction by ZEFSAII (Michael W. Deem and Ramdas Pophale) SiO2 
 PCOD9524954
Probable space group: I B A M
;
_chemical_formula_sum "Si O2"
_cell_formula_units_Z 80
_cell_length_a 7.861065
_cell_length_b 20.632948
_cell_length_c 21.969249
_cell_angle_alpha 90.000000
_cell_angle_beta 90.000000
_cell_angle_gamma 90.000000
_cell_volume 3563.345080
_symmetry_space_group_name_H-M "I B A M"
_symmetry_group_IT_number 72
_symmetry_cell_setting 'orthorhombic'
loop_
_space_group_symop_operation_xyz
x,y,z
-x,-y,z
x,-y,1/2-z
-x,y,1/2-z
-x,-y,-z
x,y,-z
-x,y,1/2+z
x,-y,1/2+z
1/2+x,1/2+y,1/2+z
1/2-x,1/2-y,1/2+z
1/2+x,1/2-y,-z
1/2-x,1/2+y,-z
1/2-x,1/2-y,1/2-z
1/2+x,1/2+y,1/2-z
1/2-x,1/2+y,z
1/2+x,1/2-y,z
loop_
_atom_site_type_symbol
_atom_site_label
_atom_site_fract_x
_atom_site_fract_y
_atom_site_fract_z
Si Si1 0.501178 0.204237 0.319946
Si Si2 0.672574 0.320877 0.113848
Si Si3 0.649967 0.913574 0.612058
Si Si4 0.595697 0.219539 0.500000
Si Si5 0.769936 0.548517 0.573063
Si Si6 0.225904 0.153803 0.500000
O O1 0.500000 0.224122 0.250000
O O2 0.458215 0.265575 0.363974
O O3 0.690966 0.179227 0.331642
O O4 0.380513 0.142461 0.337628
O O5 0.788142 0.297086 0.057454
O O6 0.642302 0.395823 0.096353
O O7 0.463311 0.924055 0.580889
O O8 0.772270 0.884763 0.561363
O O9 0.723241 0.986206 0.617781
O O10 0.412114 0.187915 0.500000
O O11 0.573722 0.296297 0.500000
O O12 0.745822 0.534753 0.500000
#
# Coordination Sequence:
#
# PCOD9524954 Si02
#       6
#    16  16  16   8  16   8
#     4  11  23  37  54  79 115 158 196 229 279 347
#     4  11  20  35  56  85 111 145 190 244 296 346
#     4  10  17  30  51  80 111 145 181 236 293 337
#     4  12  18  31  52  89 112 139 187 243 309 345
#     4  10  16  28  53  84 115 134 180 241 306 344
#     4  12  18  30  53  84 119 143 181 243 303 351
#
# _framework density 22.450814000000001
#
# number of rings (size 3 to 8) (size 9 to 14) (size 15 to 20)
#    0.000    1.200    9.000    1.200    0.000    0.000 
#    0.000    8.000    0.000    1.200    0.000    5.600 
#    0.000    0.000    0.000    0.000    0.000    0.000 
#
# Total GULP energy -223004.366301 kJ/mol
# GULP energy per Si atom -5575.109158 kJ/mol
# Density = 2.239971 g / cm^3
# Si number density = 22.450814 Si / 1000 Ang^3
#
#
#
# Elastic Constant Matrix: (Units=GPa)
#
#
# Indices 1 2 3 4 5 6 
#
# 1 69.5731 34.6158 14.9225 0.0000 0.0000 0.0000
# 2 34.6158 168.1652 20.8281 0.0000 0.0000 0.0000
# 3 14.9225 20.8281 81.7963 0.0000 0.0000 0.0000
# 4 0.0000 0.0000 0.0000 18.2593 0.0000 0.0000
# 5 0.0000 0.0000 0.0000 0.0000 1.3972 0.0000
# 6 0.0000 0.0000 0.0000 0.0000 0.0000 22.7916
#
#
#
# Elastic Compliance Matrix: (Units=1/GPa)
#
#
# Indices 1 2 3 4 5 6 
#
# 1 0.016388 -0.003101 -0.002200 0.000000 0.000000 0.000000
# 2 -0.003101 0.006727 -0.001147 0.000000 0.000000 0.000000
# 3 -0.002200 -0.001147 0.012919 0.000000 0.000000 0.000000
# 4 0.000000 0.000000 0.000000 0.054767 0.000000 0.000000
# 5 0.000000 0.000000 0.000000 0.000000 0.715712 0.000000
# 6 0.000000 0.000000 0.000000 0.000000 0.000000 0.043876
#
#
# Mechanical properties :
#
#
# Convention : Reuss Voigt Hill
#
# Bulk Modulus (GPa) = 43.21986 51.14083 47.18034
# Shear Modulus (GPa) = 5.74055 25.10082 15.42069
#
# Velocity S-wave (km/s) = 1.60078 3.34733 2.62365
# Velocity P-wave (km/s) = 4.76543 6.14557 5.49897
#
# Compressibility (1/GPa) = 0.02313751
#
# Stress axis : x y z
#
# Youngs Moduli (GPa) = 61.01984 148.65644 77.40536
#
# Poissons Ratio (x) = 0.46097 0.17031
# Poissons Ratio (y) = 0.18922 0.08880
# Poissons Ratio (z) = 0.13425 0.17054
#
# Static dielectric constant tensor:
#      x y z
#    x 1.882200 0.000000 0.000000 
#    y 0.000000 1.993830 0.000000 
#    z 0.000000 0.000000 1.817780 
# 
# From -- ./inp_files/42220.got.cif
#   From: 2010.05.17/outbox.cif.g08.bks.cpg/sg72_22_cif.got.tgz:42220.got - 2010.06.03 17:03:01.
