data_PCOD9524989
_publ_section_title
;
Structure prediction by ZEFSAII (Michael W. Deem and Ramdas Pophale) SiO2 
 PCOD9524989
Probable space group: I B A M
;
_chemical_formula_sum "Si O2"
_cell_formula_units_Z 80
_cell_length_a 24.188683
_cell_length_b 7.900623
_cell_length_c 14.628540
_cell_angle_alpha 90.000000
_cell_angle_beta 90.000000
_cell_angle_gamma 90.000000
_cell_volume 2795.596868
_symmetry_space_group_name_H-M "I B A M"
_symmetry_group_IT_number 72
_symmetry_cell_setting 'orthorhombic'
loop_
_space_group_symop_operation_xyz
x,y,z
-x,-y,z
x,-y,1/2-z
-x,y,1/2-z
-x,-y,-z
x,y,-z
-x,y,1/2+z
x,-y,1/2+z
1/2+x,1/2+y,1/2+z
1/2-x,1/2-y,1/2+z
1/2+x,1/2-y,-z
1/2-x,1/2+y,-z
1/2-x,1/2-y,1/2-z
1/2+x,1/2+y,1/2-z
1/2-x,1/2+y,z
1/2+x,1/2-y,z
loop_
_atom_site_type_symbol
_atom_site_label
_atom_site_fract_x
_atom_site_fract_y
_atom_site_fract_z
Si Si1 0.234701 0.260753 0.106982
Si Si2 0.532301 0.336426 0.607158
Si Si3 0.336475 0.920368 0.387408
Si Si4 0.366196 0.457746 0.355622
Si Si5 0.561880 0.885169 0.391088
O O1 0.198977 0.414980 0.142982
O O2 0.194738 0.096027 0.112515
O O3 0.295581 0.226929 0.146375
O O4 0.242429 0.294479 0.000000
O O5 0.500000 0.500000 0.646680
O O6 0.519156 0.330035 0.500000
O O7 0.597024 0.384762 0.608080
O O8 0.498523 0.173659 0.643062
O O9 0.337399 0.915786 0.500000
O O10 0.397962 0.966100 0.355033
O O11 0.364989 0.500000 0.250000
O O12 0.402251 0.289032 0.379601
O O13 0.558265 0.921821 0.500000
#
# Coordination Sequence:
#
# PCOD9524989 Si02
#       5
#    16  16  16  16  16
#     4   9  16  28  43  59  81 110 143 174 206 247
#     4   8  13  22  36  52  74 104 133 164 208 255
#     4   8  14  25  43  62  79 105 142 177 206 244
#     4  10  17  23  34  57  83 108 132 166 207 247
#     4   8  14  25  38  53  75 104 136 169 208 250
#
# _framework density 28.616427999999999
#
# number of rings (size 3 to 8) (size 9 to 14) (size 15 to 20)
#    0.000    3.400    0.000    4.200    0.000    3.600 
#    0.000    4.000    0.000    0.000    0.000    1.400 
#    0.000    9.600    0.000   29.600    0.000   45.800 
#
# Total GULP energy -223562.505086 kJ/mol
# GULP energy per Si atom -5589.062627 kJ/mol
# Density = 2.855130 g / cm^3
# Si number density = 28.616428 Si / 1000 Ang^3
#
#
#
# Elastic Constant Matrix: (Units=GPa)
#
#
# Indices 1 2 3 4 5 6 
#
# 1 266.0740 37.5276 -11.4239 0.0000 0.0000 0.0000
# 2 37.5276 134.4178 -7.1598 0.0000 0.0000 0.0000
# 3 -11.4239 -7.1598 103.2939 0.0000 0.0000 0.0000
# 4 0.0000 0.0000 0.0000 -8.5284 0.0000 0.0000
# 5 0.0000 0.0000 0.0000 0.0000 -95.8231 0.0000
# 6 0.0000 0.0000 0.0000 0.0000 0.0000 60.3360
#
#
#
# Elastic Compliance Matrix: (Units=1/GPa)
#
#
# Indices 1 2 3 4 5 6 
#
# 1 0.003926 -0.001077 0.000360 0.000000 0.000000 0.000000
# 2 -0.001077 0.007762 0.000419 0.000000 0.000000 0.000000
# 3 0.000360 0.000419 0.009750 0.000000 0.000000 0.000000
# 4 0.000000 0.000000 0.000000 -0.117255 0.000000 0.000000
# 5 0.000000 0.000000 0.000000 0.000000 -0.010436 0.000000
# 6 0.000000 0.000000 0.000000 0.000000 0.000000 0.016574
#
#
# Mechanical properties :
#
#
# Convention : Reuss Voigt Hill
#
# Bulk Modulus (GPa) = 47.98164 60.18594 54.08379
# Shear Modulus (GPa) = -60.87529 23.51968 -18.67780
#
# Velocity S-wave (km/s) = -4.61725 2.86998 -2.55756
# Velocity P-wave (km/s) = 3.40908 5.66215 3.19673
#
# Compressibility (1/GPa) = 0.02084130
#
# Stress axis : x y z
#
# Youngs Moduli (GPa) = 254.73362 128.82532 102.56502
#
# Poissons Ratio (x) = 0.13872 -0.03687
# Poissons Ratio (y) = 0.27431 -0.04297
# Poissons Ratio (z) = -0.09158 -0.05397
#
# Static dielectric constant tensor:
#      x y z
#    x 2.252960 0.000000 0.000000 
#    y 0.000000 2.346510 0.000000 
#    z 0.000000 0.000000 2.138230 
# 
# From -- ./inp_files/20180.got.cif
#   From: 2010.05.17/outbox.cif.g08.bks.cpg/sg72_11_cif.got.tgz:20180.got - 2010.06.03 17:03:01.
