data_PCOD9524393
_publ_section_title
;
Structure prediction by ZEFSAII (Michael W. Deem and Ramdas Pophale) SiO2 
 PCOD9524393
Probable space group: I M M M
;
_chemical_formula_sum "Si O2"
_cell_formula_units_Z 72
_cell_length_a 7.631914
_cell_length_b 33.217556
_cell_length_c 14.575827
_cell_angle_alpha 90.000000
_cell_angle_beta 90.000000
_cell_angle_gamma 90.000000
_cell_volume 3695.169365
_symmetry_space_group_name_H-M "I M M M"
_symmetry_group_IT_number 71
_symmetry_cell_setting 'orthorhombic'
loop_
_space_group_symop_operation_xyz
x,y,z
-x,-y,z
x,-y,-z
-x,y,-z
-x,-y,-z
x,y,-z
-x,y,z
x,-y,z
1/2+x,1/2+y,1/2+z
1/2-x,1/2-y,1/2+z
1/2+x,1/2-y,1/2-z
1/2-x,1/2+y,1/2-z
1/2-x,1/2-y,1/2-z
1/2+x,1/2+y,1/2-z
1/2-x,1/2+y,1/2+z
1/2+x,1/2-y,1/2+z
loop_
_atom_site_type_symbol
_atom_site_label
_atom_site_fract_x
_atom_site_fract_y
_atom_site_fract_z
Si Si1 0.000000 0.452905 0.890392
Si Si2 0.289958 0.685853 0.765597
Si Si3 0.710407 0.757082 0.896408
Si Si4 0.297323 0.405762 0.783932
Si Si5 0.787833 0.546732 0.604487
O O1 0.170270 0.431783 0.847513
O O2 0.000000 0.500000 0.864807
O O3 0.000000 0.449437 0.000000
O O4 0.500000 0.685079 0.773318
O O5 0.222280 0.718134 0.840234
O O6 0.248110 0.704233 0.666208
O O7 0.231416 0.640311 0.780362
O O8 0.500000 0.753318 0.900963
O O9 0.777685 0.759516 0.000000
O O10 0.500000 0.406584 0.814738
O O11 0.287184 0.424661 0.682225
O O12 0.737056 0.557079 0.500000
O O13 0.738692 0.500000 0.620954
O O14 0.000000 0.548759 0.609645
#
# Coordination Sequence:
#
# PCOD9524393 Si02
#       5
#     8  16  16  16  16
#     4  11  26  46  65  89 121 157 206 264 313 363
#     4   9  20  36  54  82 118 150 190 242 290 350
#     4   9  18  34  57  81 111 154 194 235 290 348
#     4  11  23  39  63  91 122 162 201 251 309 364
#     4   9  18  34  57  85 118 155 195 241 296 359
#
# _framework density 19.484898999999999
#
# number of rings (size 3 to 8) (size 9 to 14) (size 15 to 20)
#    0.000    2.333    1.111    1.333    1.556    4.889 
#    0.000    8.889    0.000    0.000    0.000    0.000 
#    0.000    0.000    0.000    0.000    0.000    0.000 
#
# Total GULP energy -201007.758485 kJ/mol
# GULP energy per Si atom -5583.548847 kJ/mol
# Density = 1.944055 g / cm^3
# Si number density = 19.484899 Si / 1000 Ang^3
#
#
#
# Elastic Constant Matrix: (Units=GPa)
#
#
# Indices 1 2 3 4 5 6 
#
# 1 71.4631 43.9492 29.8850 0.0000 0.0000 0.0000
# 2 43.9492 160.5920 80.1519 0.0000 0.0000 0.0000
# 3 29.8850 80.1519 119.0239 -0.0001 0.0000 0.0000
# 4 0.0000 0.0000 -0.0001 -18.8594 0.0000 0.0000
# 5 0.0000 0.0000 0.0000 0.0000 10.3914 0.0000
# 6 0.0000 0.0000 0.0000 0.0000 0.0000 30.0346
#
#
#
# Elastic Compliance Matrix: (Units=1/GPa)
#
#
# Indices 1 2 3 4 5 6 
#
# 1 0.017054 -0.003811 -0.001716 0.000000 0.000000 0.000000
# 2 -0.003811 0.010231 -0.005933 0.000000 0.000000 0.000000
# 3 -0.001716 -0.005933 0.012828 0.000000 0.000000 0.000000
# 4 0.000000 0.000000 0.000000 -0.053024 0.000000 0.000000
# 5 0.000000 0.000000 0.000000 0.000000 0.096234 0.000000
# 6 0.000000 0.000000 0.000000 0.000000 0.000000 0.033295
#
#
# Mechanical properties :
#
#
# Convention : Reuss Voigt Hill
#
# Bulk Modulus (GPa) = 58.15949 73.22792 65.69370
# Shear Modulus (GPa) = 34.41916 17.45286 25.93601
#
# Velocity S-wave (km/s) = 4.20748 2.99609 3.65236
# Velocity P-wave (km/s) = 7.31554 7.04501 7.18155
#
# Compressibility (1/GPa) = 0.01719410
#
# Stress axis : x y z
#
# Youngs Moduli (GPa) = 58.63575 97.74269 77.95662
#
# Poissons Ratio (x) = 0.37249 0.13376
# Poissons Ratio (y) = 0.22346 0.46250
# Poissons Ratio (z) = 0.10061 0.57988
#
# Static dielectric constant tensor:
#      x y z
#    x 1.713970 0.000000 0.000000 
#    y 0.000000 1.664030 0.000000 
#    z 0.000000 0.000000 1.666340 
# 
# From -- ./inp_files/31669.got.cif
#   From: 2010.05.17/outbox.cif.g08.bks.cpg/sg71_16_cif.got.tgz:31669.got - 2010.06.03 16:22:01.
