data_PCOD9524468
_publ_section_title
;
Structure prediction by ZEFSAII (Michael W. Deem and Ramdas Pophale) SiO2 
 PCOD9524468
Probable space group: I M M M
;
_chemical_formula_sum "Si O2"
_cell_formula_units_Z 68
_cell_length_a 19.612019
_cell_length_b 7.803783
_cell_length_c 24.660907
_cell_angle_alpha 90.000000
_cell_angle_beta 90.000000
_cell_angle_gamma 90.000000
_cell_volume 3774.301026
_symmetry_space_group_name_H-M "I M M M"
_symmetry_group_IT_number 71
_symmetry_cell_setting 'orthorhombic'
loop_
_space_group_symop_operation_xyz
x,y,z
-x,-y,z
x,-y,-z
-x,y,-z
-x,-y,-z
x,y,-z
-x,y,z
x,-y,z
1/2+x,1/2+y,1/2+z
1/2-x,1/2-y,1/2+z
1/2+x,1/2-y,1/2-z
1/2-x,1/2+y,1/2-z
1/2-x,1/2-y,1/2-z
1/2+x,1/2+y,1/2-z
1/2-x,1/2+y,1/2+z
1/2+x,1/2-y,1/2+z
loop_
_atom_site_type_symbol
_atom_site_label
_atom_site_fract_x
_atom_site_fract_y
_atom_site_fract_z
Si Si1 0.577658 0.792496 0.865952
Si Si2 0.077334 0.707126 0.239619
Si Si3 0.216546 0.196277 0.193133
Si Si4 0.742528 0.000000 0.000000
Si Si5 0.283230 0.690419 0.915767
O O1 0.500000 0.744005 0.880245
O O2 0.589057 0.744735 0.802750
O O3 0.636419 0.715597 0.902775
O O4 0.581925 0.000000 0.868970
O O5 0.081437 0.500000 0.237318
O O6 0.135899 0.782054 0.202105
O O7 0.000000 0.757248 0.225457
O O8 0.250000 0.250000 0.250000
O O9 0.245163 0.297676 0.142165
O O10 0.235213 0.000000 0.183564
O O11 0.739754 0.152648 0.046898
O O12 0.271713 0.500000 0.937922
#
# Coordination Sequence:
#
# PCOD9524468 Si02
#       5
#    16  16  16   4  16
#     4   9  17  33  56  83 120 160 199 250 305 352
#     4   9  18  32  53  85 124 161 194 237 302 371
#     4  12  22  35  57  90 126 156 200 251 307 370
#     4  12  26  48  61  84 121 160 218 258 306 352
#     4  12  24  41  63  87 115 160 209 256 307 361
#
# _framework density 18.016582
#
# number of rings (size 3 to 8) (size 9 to 14) (size 15 to 20)
#    0.000    1.412    4.706    3.882    0.000    0.941 
#    0.000    3.529    0.000    1.412    0.000    1.647 
#    0.000    3.765    0.000    0.000    0.000    0.000 
#
# Total GULP energy -189360.650352 kJ/mol
# GULP energy per Si atom -5569.430893 kJ/mol
# Density = 1.797558 g / cm^3
# Si number density = 18.016582 Si / 1000 Ang^3
#
#
#
# Elastic Constant Matrix: (Units=GPa)
#
#
# Indices 1 2 3 4 5 6 
#
# 1 56.1142 10.9128 22.5505 0.0000 0.0000 0.0000
# 2 10.9128 119.7863 38.3280 0.0000 0.0000 0.0000
# 3 22.5505 38.3280 91.2938 0.0000 0.0000 0.0000
# 4 0.0000 0.0000 0.0000 24.5543 0.0000 0.0000
# 5 0.0000 0.0000 0.0000 0.0000 -6.6454 0.0000
# 6 0.0000 0.0000 0.0000 0.0000 0.0000 24.7178
#
#
#
# Elastic Compliance Matrix: (Units=1/GPa)
#
#
# Indices 1 2 3 4 5 6 
#
# 1 0.019793 -0.000276 -0.004773 0.000000 0.000000 0.000000
# 2 -0.000276 0.009648 -0.003982 0.000000 0.000000 0.000000
# 3 -0.004773 -0.003982 0.013805 0.000000 0.000000 0.000000
# 4 0.000000 0.000000 0.000000 0.040726 0.000000 0.000000
# 5 0.000000 0.000000 0.000000 0.000000 -0.150480 0.000000
# 6 0.000000 0.000000 0.000000 0.000000 0.000000 0.040457
#
#
# Mechanical properties :
#
#
# Convention : Reuss Voigt Hill
#
# Bulk Modulus (GPa) = 39.71058 45.64188 42.67623
# Shear Modulus (GPa) = 12365.57494 21.55218 6193.56356
#
# Velocity S-wave (km/s) = 82.93576 3.46242 58.69553
# Velocity P-wave (km/s) = 95.88123 6.43217 67.95066
#
# Compressibility (1/GPa) = 0.02518221
#
# Stress axis : x y z
#
# Youngs Moduli (GPa) = 50.52379 103.65366 72.44002
#
# Poissons Ratio (x) = 0.02860 0.34577
# Poissons Ratio (y) = 0.01394 0.28847
# Poissons Ratio (z) = 0.24116 0.41277
#
# Static dielectric constant tensor:
#      x y z
#    x 1.636720 0.000000 0.000000 
#    y 0.000000 1.654940 0.000000 
#    z 0.000000 0.000000 1.605540 
# 
# From -- ./inp_files/57302.got.cif
#   From: 2010.05.17/outbox.cif.g08.bks.cpg/sg71_29_cif.got.tgz:57302.got - 2010.06.03 16:22:01.
