data_PCOD9524192
_publ_section_title
;
Structure prediction by ZEFSAII (Michael W. Deem and Ramdas Pophale) SiO2 
 PCOD9524192
Probable space group: I M M M
;
_chemical_formula_sum "Si O2"
_cell_formula_units_Z 58
_cell_length_a 26.492305
_cell_length_b 7.805730
_cell_length_c 14.980091
_cell_angle_alpha 90.000000
_cell_angle_beta 90.000000
_cell_angle_gamma 90.000000
_cell_volume 3097.759681
_symmetry_space_group_name_H-M "I M M M"
_symmetry_group_IT_number 71
_symmetry_cell_setting 'orthorhombic'
loop_
_space_group_symop_operation_xyz
x,y,z
-x,-y,z
x,-y,-z
-x,y,-z
-x,-y,-z
x,y,-z
-x,y,z
x,-y,z
1/2+x,1/2+y,1/2+z
1/2-x,1/2-y,1/2+z
1/2+x,1/2-y,1/2-z
1/2-x,1/2+y,1/2-z
1/2-x,1/2-y,1/2-z
1/2+x,1/2+y,1/2-z
1/2-x,1/2+y,1/2+z
1/2+x,1/2-y,1/2+z
loop_
_atom_site_type_symbol
_atom_site_label
_atom_site_fract_x
_atom_site_fract_y
_atom_site_fract_z
Si Si1 0.000000 0.308714 0.648758
Si Si2 0.268394 0.790332 0.500000
Si Si3 0.604978 0.702921 0.812330
Si Si4 0.699937 0.204463 0.693663
Si Si5 0.651161 0.709382 0.000000
Si Si6 0.000000 0.000000 0.500000
O O1 0.051245 0.287488 0.705383
O O2 0.000000 0.500000 0.609229
O O3 0.000000 0.153429 0.577261
O O4 0.293392 0.731767 0.592231
O O5 0.209544 0.739388 0.500000
O O6 0.268872 0.000000 0.500000
O O7 0.597322 0.500000 0.819653
O O8 0.649954 0.732512 0.743088
O O9 0.623933 0.766044 0.909776
O O10 0.750000 0.250000 0.750000
O O11 0.697374 0.000000 0.690448
O O12 0.649642 0.500000 0.000000
#
# Coordination Sequence:
#
# PCOD9524192 Si02
#       6
#     8   8  16  16   8   2
#     4  12  25  41  61  89 124 170 212 252 308 379
#     4   9  18  35  54  79 117 156 196 241 304 367
#     4  11  21  38  61  84 120 162 202 255 308 360
#     4  11  21  36  57  85 115 158 204 253 309 372
#     4   9  17  30  54  80 115 159 192 227 296 365
#     4  12  22  44  60  94 132 162 206 260 312 360
#
# _framework density 18.723209000000001
#
# number of rings (size 3 to 8) (size 9 to 14) (size 15 to 20)
#    0.000    1.379    4.138    2.690    1.931    0.000 
#    0.000    6.207    0.000    0.828    0.000    5.793 
#    0.000    0.000    0.000    0.000    0.000    0.000 
#
# Total GULP energy -161720.690049 kJ/mol
# GULP energy per Si atom -5576.575519 kJ/mol
# Density = 1.868059 g / cm^3
# Si number density = 18.723209 Si / 1000 Ang^3
#
#
#
# Elastic Constant Matrix: (Units=GPa)
#
#
# Indices 1 2 3 4 5 6 
#
# 1 178.0099 21.4653 79.8074 0.0000 0.0000 0.0000
# 2 21.4653 81.5625 11.9033 0.0000 0.0000 0.0000
# 3 79.8074 11.9033 131.8336 0.0000 0.0000 0.0000
# 4 0.0000 0.0000 0.0000 19.9550 0.0000 0.0000
# 5 0.0000 0.0000 0.0000 0.0000 -46.7158 0.0000
# 6 0.0000 0.0000 0.0000 0.0000 0.0000 25.9785
#
#
#
# Elastic Compliance Matrix: (Units=1/GPa)
#
#
# Indices 1 2 3 4 5 6 
#
# 1 0.007863 -0.001393 -0.004634 0.000000 0.000000 0.000000
# 2 -0.001393 0.012671 -0.000301 0.000000 0.000000 0.000000
# 3 -0.004634 -0.000301 0.010418 0.000000 0.000000 0.000000
# 4 0.000000 0.000000 0.000000 0.050113 0.000000 0.000000
# 5 0.000000 0.000000 0.000000 0.000000 -0.021406 0.000000
# 6 0.000000 0.000000 0.000000 0.000000 0.000000 0.038493
#
#
# Mechanical properties :
#
#
# Convention : Reuss Voigt Hill
#
# Bulk Modulus (GPa) = 54.65709 68.63979 61.64844
# Shear Modulus (GPa) = 42.76870 18.39220 30.58045
#
# Velocity S-wave (km/s) = 4.78458 3.13760 4.04578
# Velocity P-wave (km/s) = 7.73165 7.06158 7.40420
#
# Compressibility (1/GPa) = 0.01829589
#
# Stress axis : x y z
#
# Youngs Moduli (GPa) = 127.17103 78.92001 95.98763
#
# Poissons Ratio (x) = 0.10994 0.44485
# Poissons Ratio (y) = 0.17716 0.02887
# Poissons Ratio (z) = 0.58937 0.02373
#
# Static dielectric constant tensor:
#      x y z
#    x 1.539150 0.000000 0.000000 
#    y 0.000000 1.684410 0.000000 
#    z 0.000000 0.000000 1.616070 
# 
# From -- ./inp_files/5395.got.cif
#   From: 2010.05.17/outbox.cif.g08.bks.cpg/sg71_3_cif.got.tgz:5395.got - 2010.06.03 16:22:01.
