data_PCOD9524593
_publ_section_title
;
Structure prediction by ZEFSAII (Michael W. Deem and Ramdas Pophale) SiO2 
 PCOD9524593
Probable space group: I M M M
;
_chemical_formula_sum "Si O2"
_cell_formula_units_Z 80
_cell_length_a 14.464502
_cell_length_b 7.469338
_cell_length_c 34.868596
_cell_angle_alpha 90.000000
_cell_angle_beta 90.000000
_cell_angle_gamma 90.000000
_cell_volume 3767.211984
_symmetry_space_group_name_H-M "I M M M"
_symmetry_group_IT_number 71
_symmetry_cell_setting 'orthorhombic'
loop_
_space_group_symop_operation_xyz
x,y,z
-x,-y,z
x,-y,-z
-x,y,-z
-x,-y,-z
x,y,-z
-x,y,z
x,-y,z
1/2+x,1/2+y,1/2+z
1/2-x,1/2-y,1/2+z
1/2+x,1/2-y,1/2-z
1/2-x,1/2+y,1/2-z
1/2-x,1/2-y,1/2-z
1/2+x,1/2+y,1/2-z
1/2-x,1/2+y,1/2+z
1/2+x,1/2-y,1/2+z
loop_
_atom_site_type_symbol
_atom_site_label
_atom_site_fract_x
_atom_site_fract_y
_atom_site_fract_z
Si Si1 0.603982 0.719727 0.381295
Si Si2 0.099072 0.784620 0.454869
Si Si3 0.277036 0.287965 0.688809
Si Si4 0.394944 0.783644 0.235629
Si Si5 0.303551 0.290933 0.543327
O O1 0.500000 0.771725 0.370765
O O2 0.606472 0.500000 0.381456
O O3 0.677770 0.783332 0.349954
O O4 0.630485 0.782954 0.423862
O O5 0.097905 0.734529 0.500000
O O6 0.198205 0.720069 0.440958
O O7 0.000000 0.723615 0.438257
O O8 0.100371 0.000000 0.452865
O O9 0.264536 0.500000 0.683274
O O10 0.350062 0.263088 0.723386
O O11 0.178693 0.216944 0.703961
O O12 0.500000 0.719185 0.231774
O O13 0.396765 0.000000 0.233511
O O14 0.307146 0.213732 0.500000
O O15 0.326091 0.500000 0.539622
#
# Coordination Sequence:
#
# PCOD9524593 Si02
#       5
#    16  16  16  16  16
#     4   9  17  29  45  65  89 117 150 186 222 263
#     4   8  14  26  44  63  83 110 142 175 217 269
#     4   9  17  30  48  68  90 119 153 182 212 260
#     4   9  17  29  46  69  95 118 142 178 222 263
#     4   9  17  28  43  65  90 115 148 190 228 258
#
# _framework density 21.235863999999999
#
# number of rings (size 3 to 8) (size 9 to 14) (size 15 to 20)
#    0.000    3.200    0.000    1.200    0.000    2.000 
#    0.000    6.000    0.000    5.400    0.000    2.800 
#    0.000    0.000    0.000    0.000    0.000    0.000 
#
# Total GULP energy -222908.625594 kJ/mol
# GULP energy per Si atom -5572.715640 kJ/mol
# Density = 2.118753 g / cm^3
# Si number density = 21.235864 Si / 1000 Ang^3
#
#
#
# Elastic Constant Matrix: (Units=GPa)
#
#
# Indices 1 2 3 4 5 6 
#
# 1 93.6566 -17.1680 41.8701 0.0000 0.0000 0.0000
# 2 -17.1680 55.4374 -5.1414 0.0000 0.0000 0.0000
# 3 41.8701 -5.1414 91.5873 0.0000 0.0000 0.0000
# 4 0.0000 0.0000 0.0000 5.7077 0.0000 0.0000
# 5 0.0000 0.0000 0.0000 0.0000 25.3122 0.0000
# 6 0.0000 0.0000 0.0000 0.0000 0.0000 43.3919
#
#
#
# Elastic Compliance Matrix: (Units=1/GPa)
#
#
# Indices 1 2 3 4 5 6 
#
# 1 0.014178 0.003809 -0.006268 0.000000 0.000000 0.000000
# 2 0.003809 0.019156 -0.000666 0.000000 0.000000 0.000000
# 3 -0.006268 -0.000666 0.013746 0.000000 0.000000 0.000000
# 4 0.000000 0.000000 0.000000 0.175203 0.000000 0.000000
# 5 0.000000 0.000000 0.000000 0.000000 0.039507 0.000000
# 6 0.000000 0.000000 0.000000 0.000000 0.000000 0.023046
#
#
# Mechanical properties :
#
#
# Convention : Reuss Voigt Hill
#
# Bulk Modulus (GPa) = 24.49090 31.08918 27.79004
# Shear Modulus (GPa) = 16.40986 29.62372 23.01679
#
# Velocity S-wave (km/s) = 2.78284 3.73900 3.29578
# Velocity P-wave (km/s) = 4.67797 5.77165 5.25335
#
# Compressibility (1/GPa) = 0.04083149
#
# Stress axis : x y z
#
# Youngs Moduli (GPa) = 70.53398 52.20226 72.74603
#
# Poissons Ratio (x) = -0.19885 0.45594
# Poissons Ratio (y) = -0.26868 0.04846
# Poissons Ratio (z) = 0.44208 0.03477
#
# Static dielectric constant tensor:
#      x y z
#    x 1.795640 0.000000 0.000000 
#    y 0.000000 1.992600 0.000000 
#    z 0.000000 0.000000 1.750630 
# 
# From -- ./inp_files/22434.got.cif
#   From: 2010.05.17/outbox.cif.g08.bks.cpg/sg71_12_cif.got.tgz:22434.got - 2010.06.03 16:22:01.
