data_PCOD9524597
_publ_section_title
;
Structure prediction by ZEFSAII (Michael W. Deem and Ramdas Pophale) SiO2 
 PCOD9524597
Probable space group: I M M M
;
_chemical_formula_sum "Si O2"
_cell_formula_units_Z 72
_cell_length_a 23.322393
_cell_length_b 14.871130
_cell_length_c 10.294049
_cell_angle_alpha 90.000000
_cell_angle_beta 90.000000
_cell_angle_gamma 90.000000
_cell_volume 3570.288496
_symmetry_space_group_name_H-M "I M M M"
_symmetry_group_IT_number 71
_symmetry_cell_setting 'orthorhombic'
loop_
_space_group_symop_operation_xyz
x,y,z
-x,-y,z
x,-y,-z
-x,y,-z
-x,-y,-z
x,y,-z
-x,y,z
x,-y,z
1/2+x,1/2+y,1/2+z
1/2-x,1/2-y,1/2+z
1/2+x,1/2-y,1/2-z
1/2-x,1/2+y,1/2-z
1/2-x,1/2-y,1/2-z
1/2+x,1/2+y,1/2-z
1/2-x,1/2+y,1/2+z
1/2+x,1/2-y,1/2+z
loop_
_atom_site_type_symbol
_atom_site_label
_atom_site_fract_x
_atom_site_fract_y
_atom_site_fract_z
Si Si1 0.089552 0.896703 0.856048
Si Si2 0.779011 0.865286 0.854777
Si Si3 0.562689 0.893173 0.343461
Si Si4 0.311131 0.844872 0.648026
Si Si5 0.500000 0.610451 0.148374
O O1 0.156929 0.899143 0.829087
O O2 0.054067 0.859333 0.735676
O O3 0.070263 0.000000 0.867900
O O4 0.080719 0.853699 0.000000
O O5 0.732380 0.890594 0.748052
O O6 0.789344 0.757701 0.857532
O O7 0.761731 0.893062 0.000000
O O8 0.560922 0.884178 0.500000
O O9 0.500000 0.861363 0.294395
O O10 0.622898 0.848519 0.304348
O O11 0.566957 0.000000 0.315135
O O12 0.309154 0.881054 0.500000
O O13 0.500000 0.500000 0.140258
O O14 0.500000 0.642606 0.000000
#
# Coordination Sequence:
#
# PCOD9524597 Si02
#       5
#    16  16  16  16   8
#     4   9  17  30  46  63  87 120 155 186 218 261
#     4   9  18  31  45  65  91 121 153 186 223 264
#     4   8  14  26  45  69  94 116 143 186 234 274
#     4   9  17  30  47  67  90 118 149 184 227 271
#     4   9  17  29  45  65  89 115 144 183 228 264
#
# _framework density 20.166436000000001
#
# number of rings (size 3 to 8) (size 9 to 14) (size 15 to 20)
#    0.000    3.222    0.000    1.000    0.000    3.111 
#    2.000    0.000    0.000    0.667    0.000    1.556 
#    0.000    0.000    0.000    0.000    0.000    0.000 
#
# Total GULP energy -200473.767762 kJ/mol
# GULP energy per Si atom -5568.715771 kJ/mol
# Density = 2.012054 g / cm^3
# Si number density = 20.166436 Si / 1000 Ang^3
#
#
#
# Elastic Constant Matrix: (Units=GPa)
#
#
# Indices 1 2 3 4 5 6 
#
# 1 163.8477 6.2806 111.9293 0.0000 0.0000 0.0000
# 2 6.2806 36.3160 11.1805 0.0000 0.0000 0.0000
# 3 111.9293 11.1805 139.4792 0.0000 0.0000 0.0000
# 4 0.0000 0.0000 0.0000 4.3868 0.0000 0.0000
# 5 0.0000 0.0000 0.0000 0.0000 34.3941 0.0000
# 6 0.0000 0.0000 0.0000 0.0000 0.0000 22.0031
#
#
#
# Elastic Compliance Matrix: (Units=1/GPa)
#
#
# Indices 1 2 3 4 5 6 
#
# 1 0.013546 0.001029 -0.010953 0.000000 0.000000 0.000000
# 2 0.001029 0.028311 -0.003095 0.000000 0.000000 0.000000
# 3 -0.010953 -0.003095 0.016207 0.000000 0.000000 0.000000
# 4 0.000000 0.000000 0.000000 0.227957 0.000000 0.000000
# 5 0.000000 0.000000 0.000000 0.000000 0.029075 0.000000
# 6 0.000000 0.000000 0.000000 0.000000 0.000000 0.045448
#
#
# Mechanical properties :
#
#
# Convention : Reuss Voigt Hill
#
# Bulk Modulus (GPa) = 31.22438 66.49151 48.85794
# Shear Modulus (GPa) = 12.58628 26.17364 19.37996
#
# Velocity S-wave (km/s) = 2.50095 3.60652 3.10336
# Velocity P-wave (km/s) = 4.88432 7.09828 6.09271
#
# Compressibility (1/GPa) = 0.03202626
#
# Stress axis : x y z
#
# Youngs Moduli (GPa) = 73.82218 35.32189 61.70102
#
# Poissons Ratio (x) = -0.03636 0.67581
# Poissons Ratio (y) = -0.07599 0.19099
# Poissons Ratio (z) = 0.80857 0.10934
#
# Static dielectric constant tensor:
#      x y z
#    x 1.716970 0.000000 0.000000 
#    y 0.000000 1.799140 0.000000 
#    z 0.000000 0.000000 1.713620 
# 
# From -- ./inp_files/9892.got.cif
#   From: 2010.05.17/outbox.cif.g08.bks.cpg/sg71_5_cif.got.tgz:9892.got - 2010.06.03 16:22:01.
