data_PCOD9524675
_publ_section_title
;
Structure prediction by ZEFSAII (Michael W. Deem and Ramdas Pophale) SiO2 
 PCOD9524675
Probable space group: I M M M
;
_chemical_formula_sum "Si O2"
_cell_formula_units_Z 60
_cell_length_a 18.000000
_cell_length_b 21.000000
_cell_length_c 18.000000
_cell_angle_alpha 90.000000
_cell_angle_beta 90.000000
_cell_angle_gamma 90.000000
_cell_volume 6804.000000
_symmetry_space_group_name_H-M "I M M M"
_symmetry_group_IT_number 71
_symmetry_cell_setting 'orthorhombic'
loop_
_space_group_symop_operation_xyz
x,y,z
-x,-y,z
x,-y,-z
-x,y,-z
-x,-y,-z
x,y,-z
-x,y,z
x,-y,z
1/2+x,1/2+y,1/2+z
1/2-x,1/2-y,1/2+z
1/2+x,1/2-y,1/2-z
1/2-x,1/2+y,1/2-z
1/2-x,1/2-y,1/2-z
1/2+x,1/2+y,1/2-z
1/2-x,1/2+y,1/2+z
1/2+x,1/2-y,1/2+z
loop_
_atom_site_type_symbol
_atom_site_label
_atom_site_fract_x
_atom_site_fract_y
_atom_site_fract_z
Si Si1 0.587071 0.071026 0.866821
Si Si2 0.798815 0.631446 0.916858
Si Si3 0.914166 0.774731 0.222155
Si Si4 0.362852 0.338100 0.140795
Si Si5 0.500000 0.575051 0.089429
Si Si6 0.830899 0.782309 0.917179
Si Si7 0.169050 0.301145 0.412910
Si Si8 0.913585 0.625548 0.205910
O O1 0.500000 0.073887 0.887142
O O2 0.626610 0.133266 0.899380
O O3 0.591932 0.081624 0.778102
O O4 0.614723 0.000000 0.887067
O O5 0.714850 0.633144 0.886714
O O6 0.820781 0.706069 0.922441
O O7 0.857527 0.604349 0.858233
O O8 0.801985 0.604097 0.000000
O O9 0.866233 0.821871 0.272371
O O10 0.898849 0.792902 0.137439
O O11 0.894857 0.699185 0.229620
O O12 0.000000 0.781154 0.243736
O O13 0.428436 0.385303 0.117273
O O14 0.370247 0.265106 0.109986
O O15 0.500000 0.500000 0.112100
O O16 0.500000 0.576369 0.000000
O O17 0.752826 0.804597 0.881128
O O18 0.841742 0.808144 0.000000
O O19 0.181549 0.293392 0.500000
O O20 0.000000 0.627057 0.181200
#
# Coordination Sequence:
#
# PCOD9524675 Si02
#       8
#    16  16  16  16   8  16  16  16
#     4  10  21  35  49  71 107 143 176 217 264 314
#     4   9  18  31  51  79 107 139 178 221 272 320
#     4  10  18  29  51  81 105 136 180 221 262 315
#     4  11  20  34  55  81 109 138 179 224 263 319
#     4  11  24  40  56  76 110 150 178 216 273 316
#     4   8  17  31  48  77 112 138 167 218 274 316
#     4  10  20  33  54  79 103 137 180 219 261 318
#     4   9  18  32  51  76 105 139 179 222 268 318
#
# _framework density 8.8183419999999995
#
# number of rings (size 3 to 8) (size 9 to 14) (size 15 to 20)
#    0.000    2.333    2.000    2.000    2.800    2.667 
#    0.000    4.000    0.000    1.200    0.000    1.867 
#    0.000    0.533    0.000    0.000    0.000    0.000 
#
# Total GULP energy -334078.741134 kJ/mol
# GULP energy per Si atom -5567.979019 kJ/mol
# Density = 0.879827 g / cm^3
# Si number density = 8.818342 Si / 1000 Ang^3
#
#
#
# Elastic Constant Matrix: (Units=GPa)
#
#
# Indices 1 2 3 4 5 6 
#
# 1 32.7206 10.5453 13.8355 0.0000 0.0000 0.0000
# 2 10.5453 65.3462 2.1723 0.0000 0.0000 0.0000
# 3 13.8355 2.1723 47.7674 0.0000 0.0000 0.0000
# 4 0.0000 0.0000 0.0000 6.8777 0.0000 0.0000
# 5 0.0000 0.0000 0.0000 0.0000 18.5907 0.0000
# 6 0.0000 0.0000 0.0000 0.0000 0.0000 10.7064
#
#
#
# Elastic Compliance Matrix: (Units=1/GPa)
#
#
# Indices 1 2 3 4 5 6 
#
# 1 0.036756 -0.005586 -0.010392 0.000000 0.000000 0.000000
# 2 -0.005586 0.016175 0.000882 0.000000 0.000000 0.000000
# 3 -0.010392 0.000882 0.023905 0.000000 0.000000 0.000000
# 4 0.000000 0.000000 0.000000 0.145397 0.000000 0.000000
# 5 0.000000 0.000000 0.000000 0.000000 0.053790 0.000000
# 6 0.000000 0.000000 0.000000 0.000000 0.000000 0.093402
#
#
# Mechanical properties :
#
#
# Convention : Reuss Voigt Hill
#
# Bulk Modulus (GPa) = 21.43880 22.10449 21.77164
# Shear Modulus (GPa) = 12.04338 15.18703 13.61520
#
# Velocity S-wave (km/s) = 2.61599 2.93764 2.78147
# Velocity P-wave (km/s) = 4.61592 4.90579 4.76306
#
# Compressibility (1/GPa) = 0.04664441
#
# Stress axis : x y z
#
# Youngs Moduli (GPa) = 27.20622 61.82292 41.83288
#
# Poissons Ratio (x) = 0.34535 0.43473
# Poissons Ratio (y) = 0.15198 -0.03691
# Poissons Ratio (z) = 0.28273 -0.05455
#
# Static dielectric constant tensor:
#      x y z
#    x 1.626290 0.000000 0.000000 
#    y 0.000000 1.584950 0.000000 
#    z 0.000000 0.000000 1.654320 
# 
# From -- ./inp_files/46508.got.cif
#   From: 2010.05.17/outbox.ucp.g08.bks.cvg/sg71_24_cif.got.tgz:46508.got - 2010.06.11 16:29:00.
