data_PCOD9524836
_publ_section_title
;
Structure prediction by ZEFSAII (Michael W. Deem and Ramdas Pophale) SiO2 
 PCOD9524836
Probable space group: I M M M
;
_chemical_formula_sum "Si O2"
_cell_formula_units_Z 44
_cell_length_a 30.000000
_cell_length_b 9.000000
_cell_length_c 18.000000
_cell_angle_alpha 90.000000
_cell_angle_beta 90.000000
_cell_angle_gamma 90.000000
_cell_volume 4860.000000
_symmetry_space_group_name_H-M "I M M M"
_symmetry_group_IT_number 71
_symmetry_cell_setting 'orthorhombic'
loop_
_space_group_symop_operation_xyz
x,y,z
-x,-y,z
x,-y,-z
-x,y,-z
-x,-y,-z
x,y,-z
-x,y,z
x,-y,z
1/2+x,1/2+y,1/2+z
1/2-x,1/2-y,1/2+z
1/2+x,1/2-y,1/2-z
1/2-x,1/2+y,1/2-z
1/2-x,1/2-y,1/2-z
1/2+x,1/2+y,1/2-z
1/2-x,1/2+y,1/2+z
1/2+x,1/2-y,1/2+z
loop_
_atom_site_type_symbol
_atom_site_label
_atom_site_fract_x
_atom_site_fract_y
_atom_site_fract_z
Si Si1 0.855809 0.179509 0.654745
Si Si2 0.552302 0.820928 0.911192
Si Si3 0.500000 0.826816 0.590319
Si Si4 0.260532 0.320608 0.086111
Si Si5 0.408478 0.322268 0.587314
Si Si6 0.820475 0.179383 0.821235
O O1 0.903929 0.250315 0.630527
O O2 0.812482 0.218584 0.603731
O O3 0.837058 0.218040 0.737626
O O4 0.861647 0.000000 0.652152
O O5 0.500000 0.777970 0.890412
O O6 0.554660 0.000000 0.901909
O O7 0.556650 0.788571 0.000000
O O8 0.500000 0.811451 0.500000
O O9 0.546016 0.752116 0.616443
O O10 0.500000 0.000000 0.608673
O O11 0.257450 0.500000 0.092648
O O12 0.224538 0.251055 0.143984
O O13 0.250134 0.279491 0.000000
O O14 0.404439 0.286445 0.500000
O O15 0.413433 0.500000 0.594543
O O16 0.362916 0.278823 0.627660
O O17 0.814667 0.000000 0.823204
#
# Coordination Sequence:
#
# PCOD9524836 Si02
#       6
#    16  16   8  16  16  16
#     4  10  21  37  56  82 115 148 182 224 277 332
#     4   9  19  37  60  85 113 146 186 230 273 321
#     4   9  17  29  47  71  95 123 166 217 264 313
#     4  10  21  36  55  80 110 144 183 229 279 329
#     4   9  17  31  50  70  96 133 176 221 267 313
#     4  10  21  36  54  79 109 144 184 224 269 326
#
# _framework density 9.0534979999999994
#
# number of rings (size 3 to 8) (size 9 to 14) (size 15 to 20)
#    0.000    2.455    0.000    2.455    0.000    5.818 
#    1.636    2.727    0.000    0.000    0.000    0.000 
#    0.000    0.000    0.000    0.000    0.000    0.000 
#
# Total GULP energy -245179.029194 kJ/mol
# GULP energy per Si atom -5572.250664 kJ/mol
# Density = 0.903289 g / cm^3
# Si number density = 9.053498 Si / 1000 Ang^3
#
#
#
# Elastic Constant Matrix: (Units=GPa)
#
#
# Indices 1 2 3 4 5 6 
#
# 1 187.8434 43.4061 62.6015 0.0000 0.0000 0.0000
# 2 43.4061 30.9564 28.0552 0.0000 0.0000 0.0000
# 3 62.6015 28.0552 85.8858 0.0000 0.0000 0.0000
# 4 0.0000 0.0000 0.0000 21.5610 0.0000 0.0000
# 5 0.0000 0.0000 0.0000 0.0000 29.7889 0.0000
# 6 0.0000 0.0000 0.0000 0.0000 0.0000 40.4048
#
#
#
# Elastic Compliance Matrix: (Units=1/GPa)
#
#
# Indices 1 2 3 4 5 6 
#
# 1 0.008472 -0.008925 -0.003260 0.000000 0.000000 0.000000
# 2 -0.008925 0.055291 -0.011556 0.000000 0.000000 0.000000
# 3 -0.003260 -0.011556 0.017794 0.000000 0.000000 0.000000
# 4 0.000000 0.000000 0.000000 0.046380 0.000000 0.000000
# 5 0.000000 0.000000 0.000000 0.000000 0.033570 0.000000
# 6 0.000000 0.000000 0.000000 0.000000 0.000000 0.024750
#
#
# Mechanical properties :
#
#
# Convention : Reuss Voigt Hill
#
# Bulk Modulus (GPa) = 29.34633 63.64569 46.49601
# Shear Modulus (GPa) = 20.40007 29.72578 25.06292
#
# Velocity S-wave (km/s) = 3.36019 4.05615 3.72446
# Velocity P-wave (km/s) = 5.59436 7.56059 6.65054
#
# Compressibility (1/GPa) = 0.03407581
#
# Stress axis : x y z
#
# Youngs Moduli (GPa) = 118.02969 18.08617 56.19794
#
# Poissons Ratio (x) = 0.16142 0.18320
# Poissons Ratio (y) = 1.05345 0.64940
# Poissons Ratio (z) = 0.38477 0.20900
#
# Static dielectric constant tensor:
#      x y z
#    x 1.615680 0.000000 0.000000 
#    y 0.000000 1.615780 0.000000 
#    z 0.000000 0.000000 1.654620 
# 
# From -- ./inp_files/49257.got.cif
#   From: 2010.05.17/outbox.ucp.g08.bks.cvg/sg71_25_cif.got.tgz:49257.got - 2010.06.11 16:29:00.
