data_PCOD9524865
_publ_section_title
;
Structure prediction by ZEFSAII (Michael W. Deem and Ramdas Pophale) SiO2 
 PCOD9524865
Probable space group: I M M M
;
_chemical_formula_sum "Si O2"
_cell_formula_units_Z 44
_cell_length_a 21.000000
_cell_length_b 9.000000
_cell_length_c 24.000000
_cell_angle_alpha 90.000000
_cell_angle_beta 90.000000
_cell_angle_gamma 90.000000
_cell_volume 4536.000000
_symmetry_space_group_name_H-M "I M M M"
_symmetry_group_IT_number 71
_symmetry_cell_setting 'orthorhombic'
loop_
_space_group_symop_operation_xyz
x,y,z
-x,-y,z
x,-y,-z
-x,y,-z
-x,-y,-z
x,y,-z
-x,y,z
x,-y,z
1/2+x,1/2+y,1/2+z
1/2-x,1/2-y,1/2+z
1/2+x,1/2-y,1/2-z
1/2-x,1/2+y,1/2-z
1/2-x,1/2-y,1/2-z
1/2+x,1/2+y,1/2-z
1/2-x,1/2+y,1/2+z
1/2+x,1/2-y,1/2+z
loop_
_atom_site_type_symbol
_atom_site_label
_atom_site_fract_x
_atom_site_fract_y
_atom_site_fract_z
Si Si1 0.772075 0.824128 0.000000
Si Si2 0.315696 0.333801 0.687618
Si Si3 0.668202 0.168706 0.799291
Si Si4 0.000000 0.332491 0.065973
Si Si5 0.637658 0.826194 0.411518
Si Si6 0.636459 0.672976 0.000000
Si Si7 0.074618 0.825810 0.618581
O O1 0.810172 0.757634 0.947752
O O2 0.699615 0.770875 0.000000
O O3 0.775493 0.000000 0.000000
O O4 0.339020 0.500000 0.674102
O O5 0.329793 0.290693 0.750801
O O6 0.240035 0.332100 0.677470
O O7 0.345334 0.203656 0.651589
O O8 0.617332 0.219621 0.844107
O O9 0.655737 0.000000 0.779488
O O10 0.067064 0.261558 0.080308
O O11 0.000000 0.500000 0.091187
O O12 0.000000 0.347242 0.000000
O O13 0.637290 0.000000 0.426975
O O14 0.594707 0.697151 0.054738
O O15 0.657361 0.500000 0.000000
O O16 0.000000 0.799415 0.626469
O O17 0.087653 0.000000 0.631808
#
# Coordination Sequence:
#
# PCOD9524865 Si02
#       7
#     8  16  16   8  16   8  16
#     4  12  24  36  54  85 121 151 188 239 288 335
#     4  10  21  38  60  87 117 147 188 241 289 335
#     4  10  21  38  60  85 114 152 193 234 283 340
#     4   9  18  36  58  80 110 148 190 231 274 333
#     4  11  21  37  60  84 112 150 193 235 285 344
#     4  10  21  38  61  87 114 151 193 231 282 344
#     4  10  21  38  60  86 117 151 189 236 286 339
#
# _framework density 9.7001760000000008
#
# number of rings (size 3 to 8) (size 9 to 14) (size 15 to 20)
#    0.000    1.727    0.909    3.818    0.000    7.273 
#    1.636    2.273    0.000    1.636    0.000    0.000 
#    0.000    0.000    0.000    0.000    0.000    0.000 
#
# Total GULP energy -245379.130387 kJ/mol
# GULP energy per Si atom -5576.798418 kJ/mol
# Density = 0.967810 g / cm^3
# Si number density = 9.700176 Si / 1000 Ang^3
#
#
#
# Elastic Constant Matrix: (Units=GPa)
#
#
# Indices 1 2 3 4 5 6 
#
# 1 18.7603 42.9830 60.2031 0.0000 0.0000 0.0000
# 2 42.9830 67.5888 21.0716 0.0000 0.0000 0.0000
# 3 60.2031 21.0716 30.0504 0.0000 0.0000 0.0000
# 4 0.0000 0.0000 0.0000 26.5935 0.0000 0.0000
# 5 0.0000 0.0000 0.0000 0.0000 162.9180 0.0000
# 6 0.0000 0.0000 0.0000 0.0000 0.0000 11.7579
#
#
#
# Elastic Compliance Matrix: (Units=1/GPa)
#
#
# Indices 1 2 3 4 5 6 
#
# 1 -0.009817 0.000143 0.019568 0.000000 0.000000 0.000000
# 2 0.000143 0.018933 -0.013562 0.000000 0.000000 0.000000
# 3 0.019568 -0.013562 0.003585 0.000000 0.000000 0.000000
# 4 0.000000 0.000000 0.000000 0.037603 0.000000 0.000000
# 5 0.000000 0.000000 0.000000 0.000000 0.006138 0.000000
# 6 0.000000 0.000000 0.000000 0.000000 0.000000 0.085049
#
#
# Mechanical properties :
#
#
# Convention : Reuss Voigt Hill
#
# Bulk Modulus (GPa) = 40.00336 40.54609 40.27473
# Shear Modulus (GPa) = 36.35677 39.73000 38.04338
#
# Velocity S-wave (km/s) = 4.33370 4.53028 4.43308
# Velocity P-wave (km/s) = 6.76062 6.95052 6.85622
#
# Compressibility (1/GPa) = 0.02499790
#
# Stress axis : x y z
#
# Youngs Moduli (GPa) = -101.86226 52.81894 278.94001
#
# Poissons Ratio (x) = -0.00754 -5.45822
# Poissons Ratio (y) = 0.01454 3.78291
# Poissons Ratio (z) = 1.99321 0.71632
#
# Static dielectric constant tensor:
#      x y z
#    x 1.626630 0.000000 0.000000 
#    y 0.000000 1.685180 0.000000 
#    z 0.000000 0.000000 1.718000 
# 
# From -- ./inp_files/61156.got.cif
#   From: 2010.05.17/outbox.ucp.g08.bks.cvg/sg71_31_cif.got.tgz:61156.got - 2010.06.11 16:29:00.
