data_PCOD9524096
_publ_section_title
;
Structure prediction by ZEFSAII (Michael W. Deem and Ramdas Pophale) SiO2 
 PCOD9524096
Probable space group: I M M M
;
_chemical_formula_sum "Si O2"
_cell_formula_units_Z 80
_cell_length_a 19.875357
_cell_length_b 7.509211
_cell_length_c 22.225641
_cell_angle_alpha 90.000000
_cell_angle_beta 90.000000
_cell_angle_gamma 90.000000
_cell_volume 3317.138011
_symmetry_space_group_name_H-M "I M M M"
_symmetry_group_IT_number 71
_symmetry_cell_setting 'orthorhombic'
loop_
_space_group_symop_operation_xyz
x,y,z
-x,-y,z
x,-y,-z
-x,y,-z
-x,-y,-z
x,y,-z
-x,y,z
x,-y,z
1/2+x,1/2+y,1/2+z
1/2-x,1/2-y,1/2+z
1/2+x,1/2-y,1/2-z
1/2-x,1/2+y,1/2-z
1/2-x,1/2-y,1/2-z
1/2+x,1/2+y,1/2-z
1/2-x,1/2+y,1/2+z
1/2+x,1/2-y,1/2+z
loop_
_atom_site_type_symbol
_atom_site_label
_atom_site_fract_x
_atom_site_fract_y
_atom_site_fract_z
Si Si1 0.573920 0.712257 0.240402
Si Si2 0.184892 0.693794 0.835375
Si Si3 0.281101 0.718594 0.934574
Si Si4 0.926586 0.217125 0.601610
Si Si5 0.422705 0.285984 0.569602
O O1 0.500000 0.777038 0.263946
O O2 0.568881 0.500000 0.239206
O O3 0.641084 0.746237 0.278551
O O4 0.579492 0.772559 0.171497
O O5 0.211771 0.500000 0.818380
O O6 0.243894 0.785489 0.874155
O O7 0.127805 0.690085 0.886803
O O8 0.276838 0.500000 0.933116
O O9 0.359007 0.771074 0.931465
O O10 0.252825 0.774279 0.000000
O O11 0.000000 0.274829 0.579020
O O12 0.926852 0.000000 0.600240
O O13 0.411118 0.242975 0.500000
O O14 0.500000 0.244209 0.583488
O O15 0.414570 0.500000 0.577383
#
# Coordination Sequence:
#
# PCOD9524096 Si02
#       5
#    16  16  16  16  16
#     4   9  18  33  52  73  98 129 167 210 248 282
#     4  11  21  30  44  70 104 137 164 193 238 295
#     4   9  18  31  46  69 102 132 158 198 251 298
#     4   8  15  30  52  74  94 122 163 206 248 297
#     4   9  18  32  48  65  88 124 171 216 250 281
#
# _framework density 24.117173999999999
#
# number of rings (size 3 to 8) (size 9 to 14) (size 15 to 20)
#    0.000    2.800    0.000    3.600    0.000    5.600 
#    0.000    3.000    0.000    1.200    0.000    0.000 
#    0.000    0.000    0.000   14.200    0.000   14.800 
#
# Total GULP energy -223112.748803 kJ/mol
# GULP energy per Si atom -5577.818720 kJ/mol
# Density = 2.406228 g / cm^3
# Si number density = 24.117174 Si / 1000 Ang^3
#
#
#
# Elastic Constant Matrix: (Units=GPa)
#
#
# Indices 1 2 3 4 5 6 
#
# 1 127.2749 -3.3964 36.9508 0.0000 0.0000 0.0000
# 2 -3.3964 48.0562 0.5425 0.0000 0.0000 0.0000
# 3 36.9508 0.5425 72.7170 0.0000 0.0000 0.0000
# 4 0.0000 0.0000 0.0000 6.1167 0.0000 0.0000
# 5 0.0000 0.0000 0.0000 0.0000 32.5526 0.0000
# 6 0.0000 0.0000 0.0000 0.0000 0.0000 -19.3951
#
#
#
# Elastic Compliance Matrix: (Units=1/GPa)
#
#
# Indices 1 2 3 4 5 6 
#
# 1 0.009241 0.000706 -0.004701 0.000000 0.000000 0.000000
# 2 0.000706 0.020865 -0.000514 0.000000 0.000000 0.000000
# 3 -0.004701 -0.000514 0.016144 0.000000 0.000000 0.000000
# 4 0.000000 0.000000 0.000000 0.163487 0.000000 0.000000
# 5 0.000000 0.000000 0.000000 0.000000 0.030719 0.000000
# 6 0.000000 0.000000 0.000000 0.000000 0.000000 -0.051559
#
#
# Mechanical properties :
#
#
# Convention : Reuss Voigt Hill
#
# Bulk Modulus (GPa) = 26.85902 35.13798 30.99850
# Shear Modulus (GPa) = 23.77268 18.11826 20.94547
#
# Velocity S-wave (km/s) = 3.14302 2.74388 2.95021
# Velocity P-wave (km/s) = 4.93280 4.96386 4.94835
#
# Compressibility (1/GPa) = 0.03723144
#
# Stress axis : x y z
#
# Youngs Moduli (GPa) = 108.21791 47.92790 61.94060
#
# Poissons Ratio (x) = -0.03384 0.29117
# Poissons Ratio (y) = -0.07642 0.03187
# Poissons Ratio (z) = 0.50872 0.02466
#
# Static dielectric constant tensor:
#      x y z
#    x 1.947190 0.000000 0.000000 
#    y 0.000000 1.991660 0.000000 
#    z 0.000000 0.000000 1.914590 
# 
# From -- ./inp_files/48588.got.cif
#   From: 2010.05.17/outbox.cif.g08.bks.cpg/sg71_25_cif.got.tgz:48588.got - 2010.06.03 16:22:01.
