data_PCOD9524583
_publ_section_title
;
Structure prediction by ZEFSAII (Michael W. Deem and Ramdas Pophale) SiO2 
 PCOD9524583
Probable space group: I M M M
;
_chemical_formula_sum "Si O2"
_cell_formula_units_Z 88
_cell_length_a 27.344632
_cell_length_b 18.766322
_cell_length_c 7.477147
_cell_angle_alpha 90.000000
_cell_angle_beta 90.000000
_cell_angle_gamma 90.000000
_cell_volume 3836.959064
_symmetry_space_group_name_H-M "I M M M"
_symmetry_group_IT_number 71
_symmetry_cell_setting 'orthorhombic'
loop_
_space_group_symop_operation_xyz
x,y,z
-x,-y,z
x,-y,-z
-x,y,-z
-x,-y,-z
x,y,-z
-x,y,z
x,-y,z
1/2+x,1/2+y,1/2+z
1/2-x,1/2-y,1/2+z
1/2+x,1/2-y,1/2-z
1/2-x,1/2+y,1/2-z
1/2-x,1/2-y,1/2-z
1/2+x,1/2+y,1/2-z
1/2-x,1/2+y,1/2+z
1/2+x,1/2-y,1/2+z
loop_
_atom_site_type_symbol
_atom_site_label
_atom_site_fract_x
_atom_site_fract_y
_atom_site_fract_z
Si Si1 0.766188 0.922690 0.787484
Si Si2 0.939625 0.916962 0.500000
Si Si3 0.557705 0.690787 0.300534
Si Si4 0.803948 0.779754 0.213124
Si Si5 0.842095 0.633432 0.216446
Si Si6 0.946399 0.357230 0.782093
O O1 0.799889 0.859304 0.713596
O O2 0.708190 0.904928 0.768652
O O3 0.775954 0.000000 0.710534
O O4 0.774968 0.924652 0.000000
O O5 0.922781 0.869644 0.669346
O O6 0.000000 0.916658 0.500000
O O7 0.925026 0.000000 0.500000
O O8 0.579568 0.687589 0.500000
O O9 0.500000 0.675368 0.316197
O O10 0.558340 0.772935 0.237661
O O11 0.750000 0.750000 0.250000
O O12 0.837749 0.715963 0.279466
O O13 0.810618 0.783338 0.000000
O O14 0.895537 0.606353 0.274971
O O15 0.841861 0.633173 0.000000
O O16 0.000000 0.382405 0.719983
O O17 0.947560 0.360244 0.000000
#
# Coordination Sequence:
#
# PCOD9524583 Si02
#       6
#    16   8  16  16  16  16
#     4   9  17  29  44  64  94 125 148 176 223 281
#     4   9  16  24  36  56  78 102 139 185 229 277
#     4   8  14  25  39  55  79 110 143 183 232 277
#     4   8  14  25  42  64  89 115 144 180 222 266
#     4   9  16  27  46  70  92 114 151 195 226 266
#     4   8  14  26  44  64  88 116 145 187 240 277
#
# _framework density 22.934830999999999
#
# number of rings (size 3 to 8) (size 9 to 14) (size 15 to 20)
#    0.000    3.545    0.000    1.091    0.000    0.727 
#    1.636    1.818    0.000    1.636    0.000    8.909 
#    0.000    0.000    0.000    0.000    0.000    0.000 
#
# Total GULP energy -245058.687494 kJ/mol
# GULP energy per Si atom -5569.515625 kJ/mol
# Density = 2.288263 g / cm^3
# Si number density = 22.934831 Si / 1000 Ang^3
#
#
#
# Elastic Constant Matrix: (Units=GPa)
#
#
# Indices 1 2 3 4 5 6 
#
# 1 84.7946 -17.4786 -9.2865 0.0000 0.0000 0.0000
# 2 -17.4786 45.4129 -3.8307 0.0000 0.0000 0.0000
# 3 -9.2865 -3.8307 70.1033 0.0000 0.0000 0.0000
# 4 0.0000 0.0000 0.0000 17.8059 0.0000 0.0000
# 5 0.0000 0.0000 0.0000 0.0000 -1.3038 0.0000
# 6 0.0000 0.0000 0.0000 0.0000 0.0000 6.0064
#
#
#
# Elastic Compliance Matrix: (Units=1/GPa)
#
#
# Indices 1 2 3 4 5 6 
#
# 1 0.013088 0.005207 0.002018 0.000000 0.000000 0.000000
# 2 0.005207 0.024194 0.002012 0.000000 0.000000 0.000000
# 3 0.002018 0.002012 0.014642 0.000000 0.000000 0.000000
# 4 0.000000 0.000000 0.000000 0.056161 0.000000 0.000000
# 5 0.000000 0.000000 0.000000 0.000000 -0.766989 0.000000
# 6 0.000000 0.000000 0.000000 0.000000 0.000000 0.166488
#
#
# Mechanical properties :
#
#
# Convention : Reuss Voigt Hill
#
# Bulk Modulus (GPa) = 14.20478 15.45770 14.83124
# Shear Modulus (GPa) = -10.25800 19.89547 4.81873
#
# Velocity S-wave (km/s) = -2.11716 2.94849 1.45107
# Velocity P-wave (km/s) = 0.48008 4.28322 3.04766
#
# Compressibility (1/GPa) = 0.07039883
#
# Stress axis : x y z
#
# Youngs Moduli (GPa) = 76.40798 41.33231 68.29694
#
# Poissons Ratio (x) = -0.21524 -0.13784
# Poissons Ratio (y) = -0.39789 -0.13740
# Poissons Ratio (z) = -0.15421 -0.08316
#
# Static dielectric constant tensor:
#      x y z
#    x 1.881760 0.000000 0.000000 
#    y 0.000000 1.859140 0.000000 
#    z 0.000000 0.000000 1.897520 
# 
# From -- ./inp_files/16864.got.cif
#   From: 2010.05.17/outbox.cif.g08.bks.cpg/sg71_9_cif.got.tgz:16864.got - 2010.06.03 16:22:01.
