data_PCOD9524581
_publ_section_title
;
Structure prediction by ZEFSAII (Michael W. Deem and Ramdas Pophale) SiO2 
 PCOD9524581
Probable space group: I M M M
;
_chemical_formula_sum "Si O2"
_cell_formula_units_Z 80
_cell_length_a 7.448128
_cell_length_b 30.539813
_cell_length_c 15.114932
_cell_angle_alpha 90.000000
_cell_angle_beta 90.000000
_cell_angle_gamma 90.000000
_cell_volume 3438.109487
_symmetry_space_group_name_H-M "I M M M"
_symmetry_group_IT_number 71
_symmetry_cell_setting 'orthorhombic'
loop_
_space_group_symop_operation_xyz
x,y,z
-x,-y,z
x,-y,-z
-x,y,-z
-x,-y,-z
x,y,-z
-x,y,z
x,-y,z
1/2+x,1/2+y,1/2+z
1/2-x,1/2-y,1/2+z
1/2+x,1/2-y,1/2-z
1/2-x,1/2+y,1/2-z
1/2-x,1/2-y,1/2-z
1/2+x,1/2+y,1/2-z
1/2-x,1/2+y,1/2+z
1/2+x,1/2-y,1/2+z
loop_
_atom_site_type_symbol
_atom_site_label
_atom_site_fract_x
_atom_site_fract_y
_atom_site_fract_z
Si Si1 0.209779 0.823041 0.900903
Si Si2 0.716577 0.276750 0.101469
Si Si3 0.708290 0.947436 0.094396
Si Si4 0.703281 0.548903 0.206533
Si Si5 0.278729 0.641356 0.781504
O O1 0.221726 0.771958 0.873906
O O2 0.283565 0.851010 0.819645
O O3 0.000000 0.834143 0.907116
O O4 0.288322 0.827172 0.000000
O O5 0.500000 0.275912 0.104006
O O6 0.777206 0.316225 0.163153
O O7 0.772547 0.284150 0.000000
O O8 0.500000 0.934217 0.101994
O O9 0.803835 0.941884 0.187635
O O10 0.708633 0.000000 0.086280
O O11 0.780024 0.929849 0.000000
O O12 0.500000 0.546388 0.172419
O O13 0.784001 0.500000 0.194029
O O14 0.783634 0.595216 0.176448
O O15 0.500000 0.640534 0.781798
#
# Coordination Sequence:
#
# PCOD9524581 Si02
#       5
#    16  16  16  16  16
#     4   9  17  29  45  65  90 117 141 169 210 259
#     4   9  17  30  48  67  87 112 142 177 217 261
#     4   8  14  25  39  54  76 107 140 175 215 253
#     4   9  17  28  42  60  82 111 148 185 214 244
#     4   9  17  29  45  65  89 116 144 176 217 259
#
# _framework density 23.268601
#
# number of rings (size 3 to 8) (size 9 to 14) (size 15 to 20)
#    0.000    3.200    0.000    1.200    0.000    1.200 
#    0.000    6.000    0.000    3.000    0.000    4.200 
#    0.000    0.000    0.000   10.000    0.000   10.400 
#
# Total GULP energy -222967.332388 kJ/mol
# GULP energy per Si atom -5574.183310 kJ/mol
# Density = 2.321564 g / cm^3
# Si number density = 23.268601 Si / 1000 Ang^3
#
#
#
# Elastic Constant Matrix: (Units=GPa)
#
#
# Indices 1 2 3 4 5 6 
#
# 1 70.7212 -0.7256 0.5189 0.0000 0.0000 0.0000
# 2 -0.7256 202.6566 44.1071 0.0000 0.0000 0.0000
# 3 0.5189 44.1071 24.0754 0.0000 0.0000 0.0000
# 4 0.0000 0.0000 0.0000 2.1220 0.0000 0.0000
# 5 0.0000 0.0000 0.0000 0.0000 4.7216 0.0000
# 6 0.0000 0.0000 0.0000 0.0000 0.0000 12.5511
#
#
#
# Elastic Compliance Matrix: (Units=1/GPa)
#
#
# Indices 1 2 3 4 5 6 
#
# 1 0.014147 0.000195 -0.000661 0.000000 0.000000 0.000000
# 2 0.000195 0.008209 -0.015044 0.000000 0.000000 0.000000
# 3 -0.000661 -0.015044 0.069112 0.000000 0.000000 0.000000
# 4 0.000000 0.000000 0.000000 0.471245 0.000000 0.000000
# 5 0.000000 0.000000 0.000000 0.000000 0.211791 0.000000
# 6 0.000000 0.000000 0.000000 0.000000 0.000000 0.079674
#
#
# Mechanical properties :
#
#
# Convention : Reuss Voigt Hill
#
# Bulk Modulus (GPa) = 16.54363 42.80600 29.67482
# Shear Modulus (GPa) = 5.52273 20.78247 13.15260
#
# Velocity S-wave (km/s) = 1.54228 2.99181 2.38008
# Velocity P-wave (km/s) = 3.20886 5.51099 4.50931
#
# Compressibility (1/GPa) = 0.06044624
#
# Stress axis : x y z
#
# Youngs Moduli (GPa) = 70.68692 121.81093 14.46926
#
# Poissons Ratio (x) = -0.02371 0.00957
# Poissons Ratio (y) = -0.01376 0.21768
# Poissons Ratio (z) = 0.04676 1.83255
#
# Static dielectric constant tensor:
#      x y z
#    x 1.911340 0.000000 0.000000 
#    y 0.000000 1.928580 0.000000 
#    z 0.000000 0.000000 1.887510 
# 
# From -- ./inp_files/8359.got.cif
#   From: 2010.05.17/outbox.cif.g08.bks.cpg/sg71_5_cif.got.tgz:8359.got - 2010.06.03 16:22:01.
