data_PCOD9524291
_publ_section_title
;
Structure prediction by ZEFSAII (Michael W. Deem and Ramdas Pophale) SiO2 
 PCOD9524291
Probable space group: I M M M
;
_chemical_formula_sum "Si O2"
_cell_formula_units_Z 84
_cell_length_a 21.341699
_cell_length_b 15.894441
_cell_length_c 14.627922
_cell_angle_alpha 90.000000
_cell_angle_beta 90.000000
_cell_angle_gamma 90.000000
_cell_volume 4962.001427
_symmetry_space_group_name_H-M "I M M M"
_symmetry_group_IT_number 71
_symmetry_cell_setting 'orthorhombic'
loop_
_space_group_symop_operation_xyz
x,y,z
-x,-y,z
x,-y,-z
-x,y,-z
-x,-y,-z
x,y,-z
-x,y,z
x,-y,z
1/2+x,1/2+y,1/2+z
1/2-x,1/2-y,1/2+z
1/2+x,1/2-y,1/2-z
1/2-x,1/2+y,1/2-z
1/2-x,1/2-y,1/2-z
1/2+x,1/2+y,1/2-z
1/2-x,1/2+y,1/2+z
1/2+x,1/2-y,1/2+z
loop_
_atom_site_type_symbol
_atom_site_label
_atom_site_fract_x
_atom_site_fract_y
_atom_site_fract_z
Si Si1 0.571276 0.309440 0.500000
Si Si2 0.575403 0.500000 0.694004
Si Si3 0.759038 0.600068 0.109050
Si Si4 0.127181 0.846594 0.688094
Si Si5 0.619611 0.794147 0.665973
Si Si6 0.597873 0.500000 0.500000
Si Si7 0.500000 0.098090 0.611699
Si Si8 0.925730 0.097387 0.500000
O O1 0.500000 0.277201 0.500000
O O2 0.607482 0.275801 0.412132
O O3 0.566438 0.409064 0.500000
O O4 0.500000 0.500000 0.671865
O O5 0.592017 0.582441 0.751940
O O6 0.620808 0.500000 0.604947
O O7 0.769943 0.500000 0.119072
O O8 0.698696 0.626638 0.167946
O O9 0.818280 0.653603 0.142810
O O10 0.748591 0.615682 0.000000
O O11 0.122775 0.757673 0.739812
O O12 0.095490 0.853218 0.589353
O O13 0.560805 0.856207 0.652866
O O14 0.500000 0.101787 0.500000
O O15 0.500000 0.000000 0.635364
O O16 0.000000 0.089894 0.500000
O O17 0.899767 0.000000 0.500000
#
# Coordination Sequence:
#
# PCOD9524291 Si02
#       8
#     8   8  16  16  16   4   8   8
#     4  12  21  35  53  88 126 153 197 237 295 369
#     4  12  23  35  58  89 123 161 195 240 296 362
#     4  11  22  41  62  85 118 160 203 256 308 355
#     4  12  24  38  59  87 121 160 201 247 301 357
#     4  12  23  37  60  90 121 153 199 251 302 364
#     4  12  25  36  56  86 130 176 194 223 304 403
#     4  11  22  40  64  95 124 155 195 250 309 356
#     4  11  22  37  58  89 123 157 202 252 291 346
#
# _framework density 16.928653000000001
#
# number of rings (size 3 to 8) (size 9 to 14) (size 15 to 20)
#    0.000    0.381    7.619    2.571    2.667    1.524 
#    0.000    0.000    0.000    0.000    0.000    2.667 
#    0.000    0.000    0.000    0.000    0.000    0.000 
#
# Total GULP energy -234309.596046 kJ/mol
# GULP energy per Si atom -5578.799906 kJ/mol
# Density = 1.689012 g / cm^3
# Si number density = 16.928653 Si / 1000 Ang^3
#
#
#
# Elastic Constant Matrix: (Units=GPa)
#
#
# Indices 1 2 3 4 5 6 
#
# 1 110.3392 52.6125 34.2399 0.0000 0.0000 0.0000
# 2 52.6125 136.8456 54.5759 0.0000 0.0000 0.0000
# 3 34.2399 54.5759 127.8810 0.0000 0.0000 0.0000
# 4 0.0000 0.0000 0.0000 14.3950 0.0000 0.0000
# 5 0.0000 0.0000 0.0000 0.0000 2.0935 0.0000
# 6 0.0000 0.0000 0.0000 0.0000 0.0000 5.6624
#
#
#
# Elastic Compliance Matrix: (Units=1/GPa)
#
#
# Indices 1 2 3 4 5 6 
#
# 1 0.011305 -0.003783 -0.001412 0.000000 0.000000 0.000000
# 2 -0.003783 0.010072 -0.003286 0.000000 0.000000 0.000000
# 3 -0.001412 -0.003286 0.009600 0.000000 0.000000 0.000000
# 4 0.000000 0.000000 0.000000 0.069469 0.000000 0.000000
# 5 0.000000 0.000000 0.000000 0.000000 0.477658 0.000000
# 6 0.000000 0.000000 0.000000 0.000000 0.000000 0.176603
#
#
# Mechanical properties :
#
#
# Convention : Reuss Voigt Hill
#
# Bulk Modulus (GPa) = 71.35083 73.10248 72.22665
# Shear Modulus (GPa) = 6.44047 20.00603 13.22325
#
# Velocity S-wave (km/s) = 1.95262 3.44144 2.79788
# Velocity P-wave (km/s) = 6.87918 7.68556 7.29352
#
# Compressibility (1/GPa) = 0.01401525
#
# Stress axis : x y z
#
# Youngs Moduli (GPa) = 88.45518 99.28144 104.16497
#
# Poissons Ratio (x) = 0.37560 0.14712
# Poissons Ratio (y) = 0.33464 0.34225
# Poissons Ratio (z) = 0.12493 0.32620
#
# Static dielectric constant tensor:
#      x y z
#    x 1.574030 0.000000 0.000000 
#    y 0.000000 1.557610 0.000000 
#    z 0.000000 0.000000 1.593370 
# 
# From -- ./inp_files/37803.got.cif
#   From: 2010.05.17/outbox.cif.g08.bks.cpg/sg71_19_cif.got.tgz:37803.got - 2010.06.03 16:22:01.
