data_PCOD9524401
_publ_section_title
;
Structure prediction by ZEFSAII (Michael W. Deem and Ramdas Pophale) SiO2 
 PCOD9524401
Probable space group: I M M M
;
_chemical_formula_sum "Si O2"
_cell_formula_units_Z 72
_cell_length_a 18.008628
_cell_length_b 8.940435
_cell_length_c 23.847496
_cell_angle_alpha 90.000000
_cell_angle_beta 90.000000
_cell_angle_gamma 90.000000
_cell_volume 3839.565332
_symmetry_space_group_name_H-M "I M M M"
_symmetry_group_IT_number 71
_symmetry_cell_setting 'orthorhombic'
loop_
_space_group_symop_operation_xyz
x,y,z
-x,-y,z
x,-y,-z
-x,y,-z
-x,-y,-z
x,y,-z
-x,y,z
x,-y,z
1/2+x,1/2+y,1/2+z
1/2-x,1/2-y,1/2+z
1/2+x,1/2-y,1/2-z
1/2-x,1/2+y,1/2-z
1/2-x,1/2-y,1/2-z
1/2+x,1/2+y,1/2-z
1/2-x,1/2+y,1/2+z
1/2+x,1/2-y,1/2+z
loop_
_atom_site_type_symbol
_atom_site_label
_atom_site_fract_x
_atom_site_fract_y
_atom_site_fract_z
Si Si1 0.000000 0.173673 0.932911
Si Si2 0.644960 0.822909 0.618823
Si Si3 0.168529 0.677389 0.751243
Si Si4 0.587212 0.678922 0.146181
Si Si5 0.792488 0.320927 0.566262
O O1 0.073219 0.253833 0.910263
O O2 0.000000 0.000000 0.915477
O O3 0.000000 0.179310 0.000000
O O4 0.639080 0.801653 0.685728
O O5 0.719015 0.744714 0.595577
O O6 0.650092 0.000000 0.607891
O O7 0.173878 0.500000 0.739968
O O8 0.250000 0.750000 0.750000
O O9 0.117921 0.753887 0.704331
O O10 0.500000 0.711509 0.139635
O O11 0.597551 0.500000 0.146511
O O12 0.636674 0.750055 0.097041
O O13 0.791443 0.286741 0.500000
O O14 0.793430 0.500000 0.573024
#
# Coordination Sequence:
#
# PCOD9524401 Si02
#       5
#     8  16  16  16  16
#     4  11  25  43  63  91 129 171 214 261 314 373
#     4  11  24  41  64  95 127 165 212 260 316 378
#     4  11  23  40  65  94 126 162 206 256 312 374
#     4  11  25  43  64  94 129 167 212 261 317 375
#     4  11  24  42  66  94 124 164 212 260 316 380
#
# _framework density 18.752123999999998
#
# number of rings (size 3 to 8) (size 9 to 14) (size 15 to 20)
#    0.000    1.000    2.222    3.667    1.556   10.222 
#    0.000    2.222    0.000    0.000    0.000    0.000 
#    0.000    0.000    0.000    0.000    0.000    0.000 
#
# Total GULP energy -201415.409910 kJ/mol
# GULP energy per Si atom -5594.872498 kJ/mol
# Density = 1.870944 g / cm^3
# Si number density = 18.752124 Si / 1000 Ang^3
#
#
#
# Elastic Constant Matrix: (Units=GPa)
#
#
# Indices 1 2 3 4 5 6 
#
# 1 125.3356 54.4845 52.1279 0.0000 0.0000 0.0000
# 2 54.4845 90.2921 65.6971 0.0000 0.0000 0.0000
# 3 52.1279 65.6971 105.4371 0.0000 0.0000 0.0000
# 4 0.0000 0.0000 0.0000 35.7661 0.0000 0.0000
# 5 0.0000 0.0000 0.0000 0.0000 24.6754 0.0000
# 6 0.0000 0.0000 0.0000 0.0000 0.0000 33.0472
#
#
#
# Elastic Compliance Matrix: (Units=1/GPa)
#
#
# Indices 1 2 3 4 5 6 
#
# 1 0.011142 -0.004967 -0.002413 0.000000 0.000000 0.000000
# 2 -0.004967 0.022475 -0.011548 0.000000 0.000000 0.000000
# 3 -0.002413 -0.011548 0.017873 0.000000 0.000000 0.000000
# 4 0.000000 0.000000 0.000000 0.027959 0.000000 0.000000
# 5 0.000000 0.000000 0.000000 0.000000 0.040526 0.000000
# 6 0.000000 0.000000 0.000000 0.000000 0.000000 0.030260
#
#
# Mechanical properties :
#
#
# Convention : Reuss Voigt Hill
#
# Bulk Modulus (GPa) = 73.35594 73.96489 73.66042
# Shear Modulus (GPa) = 25.95555 28.61475 27.28515
#
# Velocity S-wave (km/s) = 3.72444 3.91058 3.81864
# Velocity P-wave (km/s) = 7.59598 7.74075 7.66871
#
# Compressibility (1/GPa) = 0.01363216
#
# Stress axis : x y z
#
# Youngs Moduli (GPa) = 89.75398 44.49370 55.94957
#
# Poissons Ratio (x) = 0.22100 0.13503
# Poissons Ratio (y) = 0.44581 0.64613
# Poissons Ratio (z) = 0.21661 0.51383
#
# Static dielectric constant tensor:
#      x y z
#    x 1.602780 0.000000 0.000000 
#    y 0.000000 1.629060 0.000000 
#    z 0.000000 0.000000 1.637390 
# 
# From -- ./inp_files/47904.got.cif
#   From: 2010.05.17/outbox.cif.g08.bks.cpg/sg71_24_cif.got.tgz:47904.got - 2010.06.03 16:22:01.
