data_PCOD9524309
_publ_section_title
;
Structure prediction by ZEFSAII (Michael W. Deem and Ramdas Pophale) SiO2 
 PCOD9524309
Probable space group: I M M M
;
_chemical_formula_sum "Si O2"
_cell_formula_units_Z 64
_cell_length_a 8.730372
_cell_length_b 15.747907
_cell_length_c 24.253380
_cell_angle_alpha 90.000000
_cell_angle_beta 90.000000
_cell_angle_gamma 90.000000
_cell_volume 3334.478043
_symmetry_space_group_name_H-M "I M M M"
_symmetry_group_IT_number 71
_symmetry_cell_setting 'orthorhombic'
loop_
_space_group_symop_operation_xyz
x,y,z
-x,-y,z
x,-y,-z
-x,y,-z
-x,-y,-z
x,y,-z
-x,y,z
x,-y,z
1/2+x,1/2+y,1/2+z
1/2-x,1/2-y,1/2+z
1/2+x,1/2-y,1/2-z
1/2-x,1/2+y,1/2-z
1/2-x,1/2-y,1/2-z
1/2+x,1/2+y,1/2-z
1/2-x,1/2+y,1/2+z
1/2+x,1/2-y,1/2+z
loop_
_atom_site_type_symbol
_atom_site_label
_atom_site_fract_x
_atom_site_fract_y
_atom_site_fract_z
Si Si1 0.318416 0.101898 0.251106
Si Si2 0.318440 0.000000 0.565563
Si Si3 0.317389 0.657284 0.867966
Si Si4 0.815860 0.161870 0.135535
Si Si5 0.313547 0.500000 0.563090
O O1 0.500000 0.119496 0.252866
O O2 0.240718 0.136763 0.306236
O O3 0.245902 0.142508 0.196693
O O4 0.296927 0.000000 0.249015
O O5 0.244959 0.917083 0.593051
O O6 0.500000 0.000000 0.577589
O O7 0.296349 0.000000 0.500000
O O8 0.500000 0.658830 0.868894
O O9 0.250153 0.748592 0.884084
O O10 0.000000 0.165338 0.136723
O O11 0.766964 0.084060 0.096330
O O12 0.500000 0.500000 0.562389
O O13 0.260413 0.500000 0.500000
#
# Coordination Sequence:
#
# PCOD9524309 Si02
#       5
#    16   8  16  16   8
#     4  11  22  38  63  92 127 164 205 254 314 377
#     4  11  25  46  69  92 121 162 212 261 310 367
#     4  12  25  41  64  94 129 164 205 253 312 376
#     4  11  22  39  64  93 127 164 209 258 312 371
#     4   9  20  39  63  90 119 158 208 257 302 355
#
# _framework density 19.193408999999999
#
# number of rings (size 3 to 8) (size 9 to 14) (size 15 to 20)
#    0.000    1.000    2.500    4.875    0.000    3.000 
#    0.000    2.500    0.000    5.250    0.000    0.000 
#    0.000    0.000    0.000    0.000    0.000    0.000 
#
# Total GULP energy -179076.684312 kJ/mol
# GULP energy per Si atom -5596.146385 kJ/mol
# Density = 1.914972 g / cm^3
# Si number density = 19.193409 Si / 1000 Ang^3
#
#
#
# Elastic Constant Matrix: (Units=GPa)
#
#
# Indices 1 2 3 4 5 6 
#
# 1 119.5764 84.7964 57.2925 0.0000 0.0000 0.0000
# 2 84.7964 192.2325 74.1631 0.0000 0.0000 0.0000
# 3 57.2925 74.1631 95.9242 0.0000 0.0000 0.0000
# 4 0.0000 0.0000 0.0000 -10.0975 0.0000 0.0000
# 5 0.0000 0.0000 0.0000 0.0000 26.6141 0.0000
# 6 0.0000 0.0000 0.0000 0.0000 0.0000 31.4745
#
#
#
# Elastic Compliance Matrix: (Units=1/GPa)
#
#
# Indices 1 2 3 4 5 6 
#
# 1 0.013662 -0.004102 -0.004988 0.000000 0.000000 0.000000
# 2 -0.004102 0.008645 -0.004234 0.000000 0.000000 0.000000
# 3 -0.004988 -0.004234 0.016678 0.000000 0.000000 0.000000
# 4 0.000000 0.000000 0.000000 -0.099035 0.000000 0.000000
# 5 0.000000 0.000000 0.000000 0.000000 0.037574 0.000000
# 6 0.000000 0.000000 0.000000 0.000000 0.000000 0.031772
#
#
# Mechanical properties :
#
#
# Convention : Reuss Voigt Hill
#
# Bulk Modulus (GPa) = 81.06282 93.35968 87.21125
# Shear Modulus (GPa) = 124.82689 22.36363 73.59526
#
# Velocity S-wave (km/s) = 8.07326 3.41717 6.19897
# Velocity P-wave (km/s) = 11.36793 8.01976 9.83733
#
# Compressibility (1/GPa) = 0.01233611
#
# Stress axis : x y z
#
# Youngs Moduli (GPa) = 73.19715 115.67652 59.96064
#
# Poissons Ratio (x) = 0.47449 0.29911
# Poissons Ratio (y) = 0.30024 0.25386
# Poissons Ratio (z) = 0.36514 0.48975
#
# Static dielectric constant tensor:
#      x y z
#    x 1.641390 0.000000 0.000000 
#    y 0.000000 1.663370 0.000000 
#    z 0.000000 0.000000 1.631690 
# 
# From -- ./inp_files/5491.got.cif
#   From: 2010.05.17/outbox.cif.g08.bks.cpg/sg71_3_cif.got.tgz:5491.got - 2010.06.03 16:22:01.
