data_PCOD9524732
_publ_section_title
;
Structure prediction by ZEFSAII (Michael W. Deem and Ramdas Pophale) SiO2 
 PCOD9524732
Probable space group: I M M M
;
_chemical_formula_sum "Si O2"
_cell_formula_units_Z 48
_cell_length_a 21.000000
_cell_length_b 9.000000
_cell_length_c 27.000000
_cell_angle_alpha 90.000000
_cell_angle_beta 90.000000
_cell_angle_gamma 90.000000
_cell_volume 5103.000000
_symmetry_space_group_name_H-M "I M M M"
_symmetry_group_IT_number 71
_symmetry_cell_setting 'orthorhombic'
loop_
_space_group_symop_operation_xyz
x,y,z
-x,-y,z
x,-y,-z
-x,y,-z
-x,-y,-z
x,y,-z
-x,y,z
x,-y,z
1/2+x,1/2+y,1/2+z
1/2-x,1/2-y,1/2+z
1/2+x,1/2-y,1/2-z
1/2-x,1/2+y,1/2-z
1/2-x,1/2-y,1/2-z
1/2+x,1/2+y,1/2-z
1/2-x,1/2+y,1/2+z
1/2+x,1/2-y,1/2+z
loop_
_atom_site_type_symbol
_atom_site_label
_atom_site_fract_x
_atom_site_fract_y
_atom_site_fract_z
Si Si1 0.697973 0.332977 0.922310
Si Si2 0.147565 0.675998 0.224739
Si Si3 0.290793 0.667361 0.805341
Si Si4 0.067807 0.332205 0.440826
Si Si5 0.426438 0.322699 0.361110
Si Si6 0.338062 0.178190 0.555806
O O1 0.693437 0.500000 0.942464
O O2 0.703524 0.339472 0.863502
O O3 0.632892 0.250625 0.931864
O O4 0.764808 0.267866 0.941149
O O5 0.139323 0.500000 0.220767
O O6 0.218229 0.717107 0.204452
O O7 0.155699 0.730457 0.280802
O O8 0.096371 0.758309 0.191466
O O9 0.297067 0.500000 0.784422
O O10 0.063574 0.341142 0.500000
O O11 0.071977 0.500000 0.421089
O O12 0.000000 0.265706 0.423123
O O13 0.500000 0.283777 0.370301
O O14 0.420127 0.500000 0.361059
O O15 0.381493 0.253652 0.403187
O O16 0.361916 0.202370 0.500000
O O17 0.336528 0.000000 0.565425
#
# Coordination Sequence:
#
# PCOD9524732 Si02
#       6
#    16  16  16  16  16  16
#     4  10  19  34  56  84 114 144 180 227 278 329
#     4  10  19  35  58  83 109 141 182 224 270 328
#     4   9  18  33  55  83 114 141 173 220 274 328
#     4   9  19  35  52  73 106 146 185 225 270 322
#     4  11  24  40  58  81 113 152 193 239 289 340
#     4  10  21  38  59  84 114 147 189 240 289 340
#
# _framework density 9.4062319999999993
#
# number of rings (size 3 to 8) (size 9 to 14) (size 15 to 20)
#    0.000    2.167    1.667    2.000    0.000    5.333 
#    0.000    3.333    0.000    1.000    0.000    0.000 
#    0.000    0.000    0.000    0.000    0.000    0.000 
#
# Total GULP energy -267370.637237 kJ/mol
# GULP energy per Si atom -5570.221609 kJ/mol
# Density = 0.938482 g / cm^3
# Si number density = 9.406232 Si / 1000 Ang^3
#
#
#
# Elastic Constant Matrix: (Units=GPa)
#
#
# Indices 1 2 3 4 5 6 
#
# 1 99.1179 37.3774 17.3329 0.0000 0.0000 0.0000
# 2 37.3774 27.3544 16.2911 0.0000 0.0000 0.0000
# 3 17.3329 16.2911 64.6831 0.0000 0.0000 0.0000
# 4 0.0000 0.0000 0.0000 31.7762 0.0000 0.0000
# 5 0.0000 0.0000 0.0000 0.0000 58.1160 0.0000
# 6 0.0000 0.0000 0.0000 0.0000 0.0000 72.5106
#
#
#
# Elastic Compliance Matrix: (Units=1/GPa)
#
#
# Indices 1 2 3 4 5 6 
#
# 1 0.021007 -0.029826 0.001883 0.000000 0.000000 0.000000
# 2 -0.029826 0.085354 -0.013505 0.000000 0.000000 0.000000
# 3 0.001883 -0.013505 0.018357 0.000000 0.000000 0.000000
# 4 0.000000 0.000000 0.000000 0.031470 0.000000 0.000000
# 5 0.000000 0.000000 0.000000 0.000000 0.017207 0.000000
# 6 0.000000 0.000000 0.000000 0.000000 0.000000 0.013791
#
#
# Mechanical properties :
#
#
# Convention : Reuss Voigt Hill
#
# Bulk Modulus (GPa) = 23.91069 37.01759 30.46414
# Shear Modulus (GPa) = 17.60419 40.49081 29.04750
#
# Velocity S-wave (km/s) = 3.06236 4.64436 3.93371
# Velocity P-wave (km/s) = 5.02411 6.96276 6.07131
#
# Compressibility (1/GPa) = 0.04182230
#
# Stress axis : x y z
#
# Youngs Moduli (GPa) = 47.60316 11.71585 54.47541
#
# Poissons Ratio (x) = 0.34943 -0.10256
# Poissons Ratio (y) = 1.41979 0.73570
# Poissons Ratio (z) = -0.08962 0.15822
#
# Static dielectric constant tensor:
#      x y z
#    x 1.676050 0.000000 0.000000 
#    y 0.000000 1.682380 0.000000 
#    z 0.000000 0.000000 1.686030 
# 
# From -- ./inp_files/10869.got.cif
#   From: 2010.05.17/outbox.ucp.g08.bks.cvg/sg71_6_cif.got.tgz:10869.got - 2010.06.11 16:29:00.
