data_PCOD9524285
_publ_section_title
;
Structure prediction by ZEFSAII (Michael W. Deem and Ramdas Pophale) SiO2 
 PCOD9524285
Probable space group: I M M M
;
_chemical_formula_sum "Si O2"
_cell_formula_units_Z 88
_cell_length_a 9.134913
_cell_length_b 30.864589
_cell_length_c 18.128722
_cell_angle_alpha 90.000000
_cell_angle_beta 90.000000
_cell_angle_gamma 90.000000
_cell_volume 5111.308603
_symmetry_space_group_name_H-M "I M M M"
_symmetry_group_IT_number 71
_symmetry_cell_setting 'orthorhombic'
loop_
_space_group_symop_operation_xyz
x,y,z
-x,-y,z
x,-y,-z
-x,y,-z
-x,-y,-z
x,y,-z
-x,y,z
x,-y,z
1/2+x,1/2+y,1/2+z
1/2-x,1/2-y,1/2+z
1/2+x,1/2-y,1/2-z
1/2-x,1/2+y,1/2-z
1/2-x,1/2-y,1/2-z
1/2+x,1/2+y,1/2-z
1/2-x,1/2+y,1/2+z
1/2+x,1/2-y,1/2+z
loop_
_atom_site_type_symbol
_atom_site_label
_atom_site_fract_x
_atom_site_fract_y
_atom_site_fract_z
Si Si1 0.322029 0.048929 0.413881
Si Si2 0.328458 0.876890 0.301237
Si Si3 0.827375 0.000000 0.917005
Si Si4 0.172811 0.674381 0.583298
Si Si5 0.835397 0.580379 0.640465
Si Si6 0.175206 0.795493 0.231210
O O1 0.282446 0.054497 0.500000
O O2 0.500000 0.048803 0.409815
O O3 0.274514 0.089376 0.363551
O O4 0.274977 0.000000 0.390680
O O5 0.500000 0.865729 0.315765
O O6 0.325499 0.902821 0.224043
O O7 0.237292 0.833383 0.285052
O O8 0.774940 0.042637 0.876013
O O9 0.000000 0.000000 0.921385
O O10 0.765110 0.000000 0.000000
O O11 0.207125 0.688534 0.500000
O O12 0.188090 0.622474 0.589960
O O13 0.271784 0.693263 0.648145
O O14 0.000000 0.683723 0.598378
O O15 0.000000 0.564093 0.627815
O O16 0.250000 0.750000 0.250000
O O17 0.000000 0.793473 0.235747
#
# Coordination Sequence:
#
# PCOD9524285 Si02
#       6
#    16  16   8  16  16  16
#     4   8  14  26  49  81 111 139 175 222 271 317
#     4   9  18  33  54  78 105 136 174 218 267 321
#     4  11  23  33  41  61  96 133 168 210 253 287
#     4   9  18  35  58  81 104 131 167 212 264 320
#     4   9  18  31  49  71  96 131 171 206 246 302
#     4  11  22  37  57  79 107 140 179 222 270 323
#
# _framework density 17.216726000000001
#
# number of rings (size 3 to 8) (size 9 to 14) (size 15 to 20)
#    0.000    2.636    0.000    4.091    1.273    4.727 
#    0.000    0.909    0.000    3.818    0.000    1.273 
#    0.000    0.000    0.000    0.000    0.000    0.000 
#
# Total GULP energy -245193.284066 kJ/mol
# GULP energy per Si atom -5572.574638 kJ/mol
# Density = 1.717754 g / cm^3
# Si number density = 17.216726 Si / 1000 Ang^3
#
#
#
# Elastic Constant Matrix: (Units=GPa)
#
#
# Indices 1 2 3 4 5 6 
#
# 1 87.5093 70.0548 35.7074 0.0000 0.0000 0.0000
# 2 70.0548 121.4510 58.3712 -0.0001 0.0000 0.0000
# 3 35.7074 58.3712 76.2765 -0.0002 0.0000 0.0000
# 4 0.0000 -0.0001 -0.0002 15.5387 0.0000 0.0000
# 5 0.0000 0.0000 0.0000 0.0000 19.3526 0.0000
# 6 0.0000 0.0000 0.0000 0.0000 0.0000 26.0718
#
#
#
# Elastic Compliance Matrix: (Units=1/GPa)
#
#
# Indices 1 2 3 4 5 6 
#
# 1 0.021270 -0.011837 -0.000899 0.000000 0.000000 0.000000
# 2 -0.011837 0.019611 -0.009466 0.000000 0.000000 0.000000
# 3 -0.000899 -0.009466 0.020775 0.000000 0.000000 0.000000
# 4 0.000000 0.000000 0.000000 0.064355 0.000000 0.000000
# 5 0.000000 0.000000 0.000000 0.000000 0.051673 0.000000
# 6 0.000000 0.000000 0.000000 0.000000 0.000000 0.038356
#
#
# Mechanical properties :
#
#
# Convention : Reuss Voigt Hill
#
# Bulk Modulus (GPa) = 57.96396 68.16705 63.06551
# Shear Modulus (GPa) = 18.78323 20.26620 19.52471
#
# Velocity S-wave (km/s) = 3.30659 3.43464 3.37123
# Velocity P-wave (km/s) = 6.95114 7.44369 7.20163
#
# Compressibility (1/GPa) = 0.01725210
#
# Stress axis : x y z
#
# Youngs Moduli (GPa) = 47.01454 50.99151 48.13429
#
# Poissons Ratio (x) = 0.60358 0.04327
# Poissons Ratio (y) = 0.55650 0.45566
# Poissons Ratio (z) = 0.04226 0.48270
#
# Static dielectric constant tensor:
#      x y z
#    x 1.576270 0.000000 0.000000 
#    y 0.000000 1.574550 0.000000 
#    z 0.000000 0.000000 1.591970 
# 
# From -- ./inp_files/8836.got.cif
#   From: 2010.05.17/outbox.cif.g08.bks.cpg/sg71_5_cif.got.tgz:8836.got - 2010.06.03 16:22:01.
