data_PCOD9524119
_publ_section_title
;
Structure prediction by ZEFSAII (Michael W. Deem and Ramdas Pophale) SiO2 
 PCOD9524119
Probable space group: I M M M
;
_chemical_formula_sum "Si O2"
_cell_formula_units_Z 112
_cell_length_a 16.830651
_cell_length_b 14.375926
_cell_length_c 24.467292
_cell_angle_alpha 90.000000
_cell_angle_beta 90.000000
_cell_angle_gamma 90.000000
_cell_volume 5920.012833
_symmetry_space_group_name_H-M "I M M M"
_symmetry_group_IT_number 71
_symmetry_cell_setting 'orthorhombic'
loop_
_space_group_symop_operation_xyz
x,y,z
-x,-y,z
x,-y,-z
-x,y,-z
-x,-y,-z
x,y,-z
-x,y,z
x,-y,z
1/2+x,1/2+y,1/2+z
1/2-x,1/2-y,1/2+z
1/2+x,1/2-y,1/2-z
1/2-x,1/2+y,1/2-z
1/2-x,1/2-y,1/2-z
1/2+x,1/2+y,1/2-z
1/2-x,1/2+y,1/2+z
1/2+x,1/2-y,1/2+z
loop_
_atom_site_type_symbol
_atom_site_label
_atom_site_fract_x
_atom_site_fract_y
_atom_site_fract_z
Si Si1 0.167318 0.111133 0.562221
Si Si2 0.167065 0.396542 0.337744
Si Si3 0.777273 0.889655 0.938543
Si Si4 0.192126 0.832123 0.768625
Si Si5 0.857377 0.609408 0.063035
Si Si6 0.591212 0.719648 0.373089
Si Si7 0.906964 0.802459 0.669114
O O1 0.145407 0.137582 0.500000
O O2 0.262392 0.125786 0.568297
O O3 0.121900 0.165058 0.609558
O O4 0.153741 0.000000 0.567610
O O5 0.130488 0.500000 0.336899
O O6 0.203951 0.375656 0.397552
O O7 0.245317 0.398565 0.298868
O O8 0.113408 0.307628 0.323267
O O9 0.853718 0.837950 0.914756
O O10 0.792749 0.000000 0.938759
O O11 0.760081 0.858262 0.000000
O O12 0.250000 0.750000 0.750000
O O13 0.130294 0.796257 0.814023
O O14 0.143364 0.858779 0.714759
O O15 0.871947 0.500000 0.071511
O O16 0.900703 0.674730 0.106045
O O17 0.879632 0.631482 0.000000
O O18 0.500000 0.690333 0.373550
O O19 0.000000 0.817793 0.675858
#
# Coordination Sequence:
#
# PCOD9524119 Si02
#       7
#    16  16  16  16  16  16  16
#     4   9  19  37  59  81 106 139 182 227 266 313
#     4   9  19  36  57  79 104 140 183 223 261 307
#     4   9  18  33  53  75  99 134 180 218 248 296
#     4   9  19  37  56  73  97 135 182 222 253 304
#     4   9  18  33  53  76 103 140 184 220 252 304
#     4  11  21  32  49  75 108 138 165 211 272 319
#     4  11  22  35  55  83 113 141 170 216 278 334
#
# _framework density 18.918877999999999
#
# number of rings (size 3 to 8) (size 9 to 14) (size 15 to 20)
#    0.000    2.429    0.000    4.286    0.000    4.857 
#    0.000    6.429    0.000    6.000    0.000    3.000 
#    0.000    0.000    0.000    0.000    0.000    0.000 
#
# Total GULP energy -312349.159502 kJ/mol
# GULP energy per Si atom -5577.663563 kJ/mol
# Density = 1.887582 g / cm^3
# Si number density = 18.918878 Si / 1000 Ang^3
#
#
#
# Elastic Constant Matrix: (Units=GPa)
#
#
# Indices 1 2 3 4 5 6 
#
# 1 31.5172 4.8877 15.8212 0.0000 0.0000 0.0000
# 2 4.8877 32.2210 10.5703 0.0000 0.0000 0.0000
# 3 15.8212 10.5703 95.7105 0.0000 0.0000 0.0000
# 4 0.0000 0.0000 0.0000 -22.9402 0.0000 0.0000
# 5 0.0000 0.0000 0.0000 0.0000 -2.8748 0.0000
# 6 0.0000 0.0000 0.0000 0.0000 0.0000 12.9946
#
#
#
# Elastic Compliance Matrix: (Units=1/GPa)
#
#
# Indices 1 2 3 4 5 6 
#
# 1 0.034984 -0.003538 -0.005392 0.000000 0.000000 0.000000
# 2 -0.003538 0.032560 -0.003011 0.000000 0.000000 0.000000
# 3 -0.005392 -0.003011 0.011672 0.000000 0.000000 0.000000
# 4 0.000000 0.000000 0.000000 -0.043592 0.000000 0.000000
# 5 0.000000 0.000000 0.000000 0.000000 -0.347846 0.000000
# 6 0.000000 0.000000 0.000000 0.000000 0.000000 0.076955
#
#
# Mechanical properties :
#
#
# Convention : Reuss Voigt Hill
#
# Bulk Modulus (GPa) = 18.07212 24.66745 21.36978
# Shear Modulus (GPa) = -25.91497 5.98055 -9.96721
#
# Velocity S-wave (km/s) = -3.70509 1.77989 -2.29779
# Velocity P-wave (km/s) = 2.95473 4.15823 2.06887
#
# Compressibility (1/GPa) = 0.05533385
#
# Stress axis : x y z
#
# Youngs Moduli (GPa) = 28.58431 30.71238 85.67457
#
# Poissons Ratio (x) = 0.10866 0.46198
# Poissons Ratio (y) = 0.10113 0.25798
# Poissons Ratio (z) = 0.15413 0.09248
#
# Static dielectric constant tensor:
#      x y z
#    x 1.628300 0.000000 0.000000 
#    y 0.000000 1.677770 0.000000 
#    z 0.000000 0.000000 1.667040 
# 
# From -- ./inp_files/59916.got.cif
#   From: 2010.05.17/outbox.cif.g08.bks.cpg/sg71_30_cif.got.tgz:59916.got - 2010.06.03 16:22:01.
