data_PCOD9524918
_publ_section_title
;
Structure prediction by ZEFSAII (Michael W. Deem and Ramdas Pophale) SiO2 
 PCOD9524918
Probable space group: I B A M
;
_chemical_formula_sum "Si O2"
_cell_formula_units_Z 120
_cell_length_a 26.832703
_cell_length_b 7.695251
_cell_length_c 25.509284
_cell_angle_alpha 90.000000
_cell_angle_beta 90.000000
_cell_angle_gamma 90.000000
_cell_volume 5267.268808
_symmetry_space_group_name_H-M "I B A M"
_symmetry_group_IT_number 72
_symmetry_cell_setting 'orthorhombic'
loop_
_space_group_symop_operation_xyz
x,y,z
-x,-y,z
x,-y,1/2-z
-x,y,1/2-z
-x,-y,-z
x,y,-z
-x,y,1/2+z
x,-y,1/2+z
1/2+x,1/2+y,1/2+z
1/2-x,1/2-y,1/2+z
1/2+x,1/2-y,-z
1/2-x,1/2+y,-z
1/2-x,1/2-y,1/2-z
1/2+x,1/2+y,1/2-z
1/2-x,1/2+y,z
1/2+x,1/2-y,z
loop_
_atom_site_type_symbol
_atom_site_label
_atom_site_fract_x
_atom_site_fract_y
_atom_site_fract_z
Si Si1 0.431811 0.866340 0.938318
Si Si2 0.171502 0.017020 0.581746
Si Si3 0.036647 0.755056 0.909304
Si Si4 0.307827 0.203527 0.737222
Si Si5 0.081590 0.976966 0.000000
Si Si6 0.378248 0.721509 0.328718
Si Si7 0.767814 0.365378 0.940621
Si Si8 0.838309 0.589566 0.870563
O O1 0.477742 0.782381 0.907070
O O2 0.380166 0.835987 0.909236
O O3 0.440909 0.075168 0.935264
O O4 0.432599 0.801862 0.000000
O O5 0.124966 0.996134 0.544814
O O6 0.152491 0.081301 0.637717
O O7 0.203297 0.184890 0.562482
O O8 0.210358 0.861420 0.575595
O O9 0.065526 0.792679 0.854222
O O10 0.045935 0.898431 0.953066
O O11 0.250000 0.250000 0.750000
O O12 0.352623 0.291122 0.771117
O O13 0.319848 0.213032 0.675774
O O14 0.309879 0.000000 0.750000
O O15 0.365273 0.920108 0.344509
O O16 0.794124 0.496193 0.901218
O O17 0.772183 0.429658 0.000000
#
# Coordination Sequence:
#
# PCOD9524918 Si02
#       8
#    16  16  16  16   8  16  16  16
#     4  10  15  24  40  68  93 129 153 191 225 291
#     4  10  19  27  43  62  90 119 153 184 229 272
#     4   9  15  23  41  63  92 120 159 181 230 276
#     4  10  19  35  50  68  93 131 160 194 233 278
#     4  10  14  25  36  60  84 119 144 181 214 268
#     4   8  17  29  44  62  89 122 156 193 230 273
#     4  11  18  29  40  63  89 123 144 189 230 275
#     4   9  19  27  44  62  92 120 160 186 237 275
#
# _framework density 22.782205999999999
#
# number of rings (size 3 to 8) (size 9 to 14) (size 15 to 20)
#    0.000    2.400    2.667    2.400    0.000    0.000 
#    0.000    0.667    0.000    4.000    0.000    0.000 
#    0.000   11.733    0.000    0.400    0.000    0.000 
#
# Total GULP energy -334020.581862 kJ/mol
# GULP energy per Si atom -5567.009698 kJ/mol
# Density = 2.273035 g / cm^3
# Si number density = 22.782206 Si / 1000 Ang^3
#
#
#
# Elastic Constant Matrix: (Units=GPa)
#
#
# Indices 1 2 3 4 5 6 
#
# 1 144.7709 23.4771 33.6023 0.0000 0.0000 0.0000
# 2 23.4771 47.7872 14.0655 0.0000 0.0000 0.0000
# 3 33.6023 14.0655 108.0664 0.0000 0.0000 0.0000
# 4 0.0000 0.0000 0.0000 43.8318 0.0000 0.0000
# 5 0.0000 0.0000 0.0000 0.0000 76.6296 0.0000
# 6 0.0000 0.0000 0.0000 0.0000 0.0000 19.1016
#
#
#
# Elastic Compliance Matrix: (Units=1/GPa)
#
#
# Indices 1 2 3 4 5 6 
#
# 1 0.007913 -0.003289 -0.002032 0.000000 0.000000 0.000000
# 2 -0.003289 0.023127 -0.001987 0.000000 0.000000 0.000000
# 3 -0.002032 -0.001987 0.010144 0.000000 0.000000 0.000000
# 4 0.000000 0.000000 0.000000 0.022814 0.000000 0.000000
# 5 0.000000 0.000000 0.000000 0.000000 0.013050 0.000000
# 6 0.000000 0.000000 0.000000 0.000000 0.000000 0.052352
#
#
# Mechanical properties :
#
#
# Convention : Reuss Voigt Hill
#
# Bulk Modulus (GPa) = 37.64190 49.21269 43.42729
# Shear Modulus (GPa) = 32.70699 43.21125 37.95912
#
# Velocity S-wave (km/s) = 3.79309 4.35985 4.08631
# Velocity P-wave (km/s) = 5.97844 6.85512 6.43173
#
# Compressibility (1/GPa) = 0.02656614
#
# Stress axis : x y z
#
# Youngs Moduli (GPa) = 126.38150 43.23953 98.57903
#
# Poissons Ratio (x) = 0.14222 0.20034
# Poissons Ratio (y) = 0.41569 0.19591
# Poissons Ratio (z) = 0.25684 0.08593
#
# Static dielectric constant tensor:
#      x y z
#    x 1.828270 0.000000 0.000000 
#    y 0.000000 2.104030 0.000000 
#    z 0.000000 0.000000 1.881140 
# 
# From -- ./inp_files/49896.got.cif
#   From: 2010.05.17/outbox.cif.g08.bks.cpg/sg72_25_cif.got.tgz:49896.got - 2010.06.03 17:03:01.
