data_PCOD9524912
_publ_section_title
;
Structure prediction by ZEFSAII (Michael W. Deem and Ramdas Pophale) SiO2 
 PCOD9524912
Probable space group: I M M M
;
_chemical_formula_sum "Si O2"
_cell_formula_units_Z 36
_cell_length_a 18.000000
_cell_length_b 15.000000
_cell_length_c 15.000000
_cell_angle_alpha 90.000000
_cell_angle_beta 90.000000
_cell_angle_gamma 90.000000
_cell_volume 4050.000000
_symmetry_space_group_name_H-M "I M M M"
_symmetry_group_IT_number 71
_symmetry_cell_setting 'orthorhombic'
loop_
_space_group_symop_operation_xyz
x,y,z
-x,-y,z
x,-y,-z
-x,y,-z
-x,-y,-z
x,y,-z
-x,y,z
x,-y,z
1/2+x,1/2+y,1/2+z
1/2-x,1/2-y,1/2+z
1/2+x,1/2-y,1/2-z
1/2-x,1/2+y,1/2-z
1/2-x,1/2-y,1/2-z
1/2+x,1/2+y,1/2-z
1/2-x,1/2+y,1/2+z
1/2+x,1/2-y,1/2+z
loop_
_atom_site_type_symbol
_atom_site_label
_atom_site_fract_x
_atom_site_fract_y
_atom_site_fract_z
Si Si1 0.336414 0.773454 0.255373
Si Si2 0.911709 0.393968 0.604959
Si Si3 0.589940 0.397411 0.804382
Si Si4 0.916150 0.892124 0.500000
Si Si5 0.913702 0.604138 0.106472
O O1 0.250000 0.750000 0.250000
O O2 0.365313 0.831551 0.170855
O O3 0.379854 0.679371 0.258228
O O4 0.358915 0.832724 0.340082
O O5 0.897232 0.375805 0.500000
O O6 0.898010 0.500000 0.620349
O O7 0.000000 0.378750 0.620357
O O8 0.500000 0.396188 0.807157
O O9 0.611814 0.500000 0.784853
O O10 0.618013 0.371654 0.904380
O O11 0.000000 0.854073 0.500000
O O12 0.922549 0.000000 0.500000
O O13 0.900493 0.500000 0.128167
O O14 0.000000 0.623713 0.130717
O O15 0.906850 0.613937 0.000000
#
# Coordination Sequence:
#
# PCOD9524912 Si02
#       5
#    16  16  16   8  16
#     4  12  24  33  51  81 120 153 178 214 278 346
#     4   9  19  37  61  86 109 138 182 233 282 334
#     4   9  18  33  52  75 104 142 187 224 255 305
#     4   7  12  26  48  72  97 127 168 215 253 289
#     4   9  19  39  65  85 102 136 193 251 287 314
#
# _framework density 8.8888890000000007
#
# number of rings (size 3 to 8) (size 9 to 14) (size 15 to 20)
#    0.000    2.556    0.000    5.333    1.556    4.444 
#    0.000    0.000    0.000    0.667    0.000    3.111 
#    0.000    0.000    0.000    0.000    0.000    0.000 
#
# Total GULP energy -200793.013273 kJ/mol
# GULP energy per Si atom -5577.583702 kJ/mol
# Density = 0.886866 g / cm^3
# Si number density = 8.888889 Si / 1000 Ang^3
#
#
#
# Elastic Constant Matrix: (Units=GPa)
#
#
# Indices 1 2 3 4 5 6 
#
# 1 80.9736 61.5520 40.4419 0.0000 0.0000 0.0000
# 2 61.5520 106.4571 47.6413 0.0000 0.0000 0.0000
# 3 40.4419 47.6413 57.0314 0.0000 0.0000 0.0000
# 4 0.0000 0.0000 0.0000 33.7266 0.0000 0.0000
# 5 0.0000 0.0000 0.0000 0.0000 11.2981 0.0000
# 6 0.0000 0.0000 0.0000 0.0000 0.0000 2.2440
#
#
#
# Elastic Compliance Matrix: (Units=1/GPa)
#
#
# Indices 1 2 3 4 5 6 
#
# 1 0.024553 -0.010228 -0.008867 0.000000 0.000000 0.000000
# 2 -0.010228 0.019262 -0.008838 0.000000 0.000000 0.000000
# 3 -0.008867 -0.008838 0.031205 0.000000 0.000000 0.000000
# 4 0.000000 0.000000 0.000000 0.029650 0.000000 0.000000
# 5 0.000000 0.000000 0.000000 0.000000 0.088510 0.000000
# 6 0.000000 0.000000 0.000000 0.000000 0.000000 0.445632
#
#
# Mechanical properties :
#
#
# Convention : Reuss Voigt Hill
#
# Bulk Modulus (GPa) = 52.20792 60.41472 56.31132
# Shear Modulus (GPa) = 7.13202 15.77553 11.45378
#
# Velocity S-wave (km/s) = 2.00511 2.98211 2.54101
# Velocity P-wave (km/s) = 5.89842 6.77602 6.35239
#
# Compressibility (1/GPa) = 0.01915418
#
# Stress axis : x y z
#
# Youngs Moduli (GPa) = 40.72785 51.91474 32.04651
#
# Poissons Ratio (x) = 0.53100 0.28415
# Poissons Ratio (y) = 0.41657 0.28322
# Poissons Ratio (z) = 0.36113 0.45881
#
# Static dielectric constant tensor:
#      x y z
#    x 1.592620 0.000000 0.000000 
#    y 0.000000 1.612480 0.000000 
#    z 0.000000 0.000000 1.639700 
# 
# From -- ./inp_files/34069.got.cif
#   From: 2010.05.17/outbox.ucp.g08.bks.cvg/sg71_18_cif.got.tgz:34069.got - 2010.06.11 16:29:00.
