data_PCOD9524568
_publ_section_title
;
Structure prediction by ZEFSAII (Michael W. Deem and Ramdas Pophale) SiO2 
 PCOD9524568
Probable space group: I M M M
;
_chemical_formula_sum "Si O2"
_cell_formula_units_Z 104
_cell_length_a 7.317102
_cell_length_b 20.456795
_cell_length_c 33.126908
_cell_angle_alpha 90.000000
_cell_angle_beta 90.000000
_cell_angle_gamma 90.000000
_cell_volume 4958.583190
_symmetry_space_group_name_H-M "I M M M"
_symmetry_group_IT_number 71
_symmetry_cell_setting 'orthorhombic'
loop_
_space_group_symop_operation_xyz
x,y,z
-x,-y,z
x,-y,-z
-x,y,-z
-x,-y,-z
x,y,-z
-x,y,z
x,-y,z
1/2+x,1/2+y,1/2+z
1/2-x,1/2-y,1/2+z
1/2+x,1/2-y,1/2-z
1/2-x,1/2+y,1/2-z
1/2-x,1/2-y,1/2-z
1/2+x,1/2+y,1/2-z
1/2-x,1/2+y,1/2+z
1/2+x,1/2-y,1/2+z
loop_
_atom_site_type_symbol
_atom_site_label
_atom_site_fract_x
_atom_site_fract_y
_atom_site_fract_z
Si Si1 0.722456 0.427109 0.046671
Si Si2 0.223483 0.803717 0.401650
Si Si3 0.276986 0.924042 0.000000
Si Si4 0.779965 0.345105 0.270879
Si Si5 0.213588 0.789282 0.310767
Si Si6 0.777299 0.426447 0.345274
Si Si7 0.777532 0.341458 0.421744
O O1 0.500000 0.426689 0.047307
O O2 0.779161 0.500000 0.059824
O O3 0.784814 0.367093 0.073893
O O4 0.776318 0.418292 0.000000
O O5 0.285105 0.805144 0.354995
O O6 0.278532 0.734271 0.420968
O O7 0.000000 0.804817 0.402229
O O8 0.219728 0.884168 0.039824
O O9 0.500000 0.924954 0.000000
O O10 0.219219 0.000000 0.000000
O O11 0.710959 0.277353 0.291059
O O12 0.728530 0.343781 0.223962
O O13 0.720381 0.401951 0.301048
O O14 0.000000 0.344301 0.271292
O O15 0.000000 0.775723 0.317062
O O16 0.718142 0.500000 0.353901
O O17 0.720274 0.376620 0.380264
O O18 0.000000 0.426154 0.345720
O O19 0.000000 0.341604 0.422056
#
# Coordination Sequence:
#
# PCOD9524568 Si02
#       7
#    16  16   8  16  16  16  16
#     4   8  14  23  34  49  71 102 136 164 194 238
#     4   9  15  23  36  53  74 101 132 165 200 242
#     4   9  16  22  28  44  73 105 132 160 197 240
#     4   9  16  27  42  60  80 105 140 173 203 242
#     4   9  16  27  42  60  82 107 135 170 210 247
#     4   9  15  24  38  54  75 104 137 170 200 236
#     4   9  15  22  32  49  72 101 135 164 195 239
#
# _framework density 20.973731999999998
#
# number of rings (size 3 to 8) (size 9 to 14) (size 15 to 20)
#    0.000    3.154    1.538    0.923    1.077    1.846 
#    0.000    0.769    0.000    1.385    0.000    0.000 
#    0.000    0.615    0.000    3.769    0.000   10.692 
#
# Total GULP energy -290125.703249 kJ/mol
# GULP energy per Si atom -5579.340447 kJ/mol
# Density = 2.092599 g / cm^3
# Si number density = 20.973732 Si / 1000 Ang^3
#
#
#
# Elastic Constant Matrix: (Units=GPa)
#
#
# Indices 1 2 3 4 5 6 
#
# 1 81.2355 1.3277 -1.5855 0.0000 0.0000 0.0000
# 2 1.3277 179.2949 103.6556 0.0000 0.0000 0.0000
# 3 -1.5855 103.6556 145.2120 0.0000 0.0000 0.0000
# 4 0.0000 0.0000 0.0000 31.7047 0.0000 0.0000
# 5 0.0000 0.0000 0.0000 0.0000 -7.4978 0.0000
# 6 0.0000 0.0000 0.0000 0.0000 0.0000 -10.5502
#
#
#
# Elastic Compliance Matrix: (Units=1/GPa)
#
#
# Indices 1 2 3 4 5 6 
#
# 1 0.012321 -0.000288 0.000340 0.000000 0.000000 0.000000
# 2 -0.000288 0.009503 -0.006787 0.000000 0.000000 0.000000
# 3 0.000340 -0.006787 0.011735 0.000000 0.000000 0.000000
# 4 0.000000 0.000000 0.000000 0.031541 0.000000 0.000000
# 5 0.000000 0.000000 0.000000 0.000000 -0.133372 0.000000
# 6 0.000000 0.000000 0.000000 0.000000 0.000000 -0.094784
#
#
# Mechanical properties :
#
#
# Convention : Reuss Voigt Hill
#
# Bulk Modulus (GPa) = 49.77597 68.05978 58.91788
# Shear Modulus (GPa) = -34.99171 22.88763 -6.05204
#
# Velocity S-wave (km/s) = -4.08899 3.30699 -1.70053
# Velocity P-wave (km/s) = 1.22105 6.86310 4.92915
#
# Compressibility (1/GPa) = 0.02009002
#
# Stress axis : x y z
#
# Youngs Moduli (GPa) = 81.16071 105.22870 85.21749
#
# Poissons Ratio (x) = 0.03028 -0.02897
# Poissons Ratio (y) = 0.02336 0.57834
# Poissons Ratio (z) = -0.02759 0.71415
#
# Static dielectric constant tensor:
#      x y z
#    x 1.715330 0.000000 0.000000 
#    y 0.000000 1.720320 0.000000 
#    z 0.000000 0.000000 1.730250 
# 
# From -- ./inp_files/26585.got.cif
#   From: 2010.05.17/outbox.cif.g08.bks.cpg/sg71_14_cif.got.tgz:26585.got - 2010.06.03 16:22:01.
