data_PCOD9524864
_publ_section_title
;
Structure prediction by ZEFSAII (Michael W. Deem and Ramdas Pophale) SiO2 
 PCOD9524864
Probable space group: I M M M
;
_chemical_formula_sum "Si O2"
_cell_formula_units_Z 48
_cell_length_a 21.000000
_cell_length_b 27.000000
_cell_length_c 9.000000
_cell_angle_alpha 90.000000
_cell_angle_beta 90.000000
_cell_angle_gamma 90.000000
_cell_volume 5103.000000
_symmetry_space_group_name_H-M "I M M M"
_symmetry_group_IT_number 71
_symmetry_cell_setting 'orthorhombic'
loop_
_space_group_symop_operation_xyz
x,y,z
-x,-y,z
x,-y,-z
-x,y,-z
-x,-y,-z
x,y,-z
-x,y,z
x,-y,z
1/2+x,1/2+y,1/2+z
1/2-x,1/2-y,1/2+z
1/2+x,1/2-y,1/2-z
1/2-x,1/2+y,1/2-z
1/2-x,1/2-y,1/2-z
1/2+x,1/2+y,1/2-z
1/2-x,1/2+y,1/2+z
1/2+x,1/2-y,1/2+z
loop_
_atom_site_type_symbol
_atom_site_label
_atom_site_fract_x
_atom_site_fract_y
_atom_site_fract_z
Si Si1 0.927413 0.440630 0.323340
Si Si2 0.325463 0.445117 0.180059
Si Si3 0.801607 0.287050 0.678094
Si Si4 0.426815 0.743983 0.677334
Si Si5 0.426897 0.363186 0.823479
Si Si6 0.804715 0.392722 0.822061
O O1 0.919839 0.430981 0.500000
O O2 0.922027 0.500000 0.302041
O O3 0.872231 0.413426 0.233603
O O4 0.000000 0.426309 0.281726
O O5 0.340102 0.500000 0.236472
O O6 0.375866 0.403639 0.227623
O O7 0.253035 0.430049 0.214038
O O8 0.330055 0.446184 0.000000
O O9 0.798379 0.284519 0.500000
O O10 0.750000 0.250000 0.750000
O O11 0.872241 0.273149 0.735734
O O12 0.788896 0.341810 0.739239
O O13 0.416907 0.747844 0.500000
O O14 0.500000 0.759691 0.709828
O O15 0.420959 0.687202 0.731230
O O16 0.500000 0.381049 0.809551
O O17 0.416261 0.352452 0.000000
O O18 0.805959 0.385095 0.000000
#
# Coordination Sequence:
#
# PCOD9524864 Si02
#       6
#    16  16  16  16  16  16
#     4   9  19  37  59  82 111 148 189 234 285 339
#     4   9  18  32  51  78 111 144 180 225 272 317
#     4  12  25  41  61  84 113 148 188 235 286 342
#     4  10  21  38  60  85 114 148 187 231 279 334
#     4   9  17  31  54  82 111 146 186 226 271 323
#     4  11  22  36  56  82 112 147 187 232 283 338
#
# _framework density 9.4062319999999993
#
# number of rings (size 3 to 8) (size 9 to 14) (size 15 to 20)
#    0.000    2.000    0.000    4.500    0.000    4.667 
#    0.000    3.333    0.000    2.500    0.000    2.333 
#    0.000    0.000    0.000    0.000    0.000    0.000 
#
# Total GULP energy -268073.692261 kJ/mol
# GULP energy per Si atom -5584.868589 kJ/mol
# Density = 0.938482 g / cm^3
# Si number density = 9.406232 Si / 1000 Ang^3
#
#
#
# Elastic Constant Matrix: (Units=GPa)
#
#
# Indices 1 2 3 4 5 6 
#
# 1 39.8107 -5.3560 19.3573 0.0000 0.0000 0.0000
# 2 -5.3560 31.0011 11.1390 0.0000 0.0000 0.0000
# 3 19.3573 11.1390 75.8693 0.0000 0.0000 0.0000
# 4 0.0000 0.0000 0.0000 25.2633 0.0000 0.0000
# 5 0.0000 0.0000 0.0000 0.0000 29.9426 0.0000
# 6 0.0000 0.0000 0.0000 0.0000 0.0000 37.3159
#
#
#
# Elastic Compliance Matrix: (Units=1/GPa)
#
#
# Indices 1 2 3 4 5 6 
#
# 1 0.030691 0.008568 -0.009088 0.000000 0.000000 0.000000
# 2 0.008568 0.036445 -0.007537 0.000000 0.000000 0.000000
# 3 -0.009088 -0.007537 0.016606 0.000000 0.000000 0.000000
# 4 0.000000 0.000000 0.000000 0.039583 0.000000 0.000000
# 5 0.000000 0.000000 0.000000 0.000000 0.033397 0.000000
# 6 0.000000 0.000000 0.000000 0.000000 0.000000 0.026798
#
#
# Mechanical properties :
#
#
# Convention : Reuss Voigt Hill
#
# Bulk Modulus (GPa) = 14.78692 21.88461 18.33577
# Shear Modulus (GPa) = 22.50455 26.60710 24.55583
#
# Velocity S-wave (km/s) = 3.46245 3.76484 3.61681
# Velocity P-wave (km/s) = 4.88487 5.52784 5.21627
#
# Compressibility (1/GPa) = 0.06762731
#
# Stress axis : x y z
#
# Youngs Moduli (GPa) = 32.58321 27.43838 60.21949
#
# Poissons Ratio (x) = -0.23509 0.54729
# Poissons Ratio (y) = -0.27917 0.45387
# Poissons Ratio (z) = 0.29613 0.20680
#
# Static dielectric constant tensor:
#      x y z
#    x 1.650290 0.000000 0.000000 
#    y 0.000000 1.647160 0.000000 
#    z 0.000000 0.000000 1.628860 
# 
# From -- ./inp_files/10976.got.cif
#   From: 2010.05.17/outbox.ucp.g08.bks.cvg/sg71_6_cif.got.tgz:10976.got - 2010.06.11 16:29:00.
