data_PCOD9524426
_publ_section_title
;
Structure prediction by ZEFSAII (Michael W. Deem and Ramdas Pophale) SiO2 
 PCOD9524426
Probable space group: I M M M
;
_chemical_formula_sum "Si O2"
_cell_formula_units_Z 88
_cell_length_a 19.777820
_cell_length_b 9.059954
_cell_length_c 24.482382
_cell_angle_alpha 90.000000
_cell_angle_beta 90.000000
_cell_angle_gamma 90.000000
_cell_volume 4386.903514
_symmetry_space_group_name_H-M "I M M M"
_symmetry_group_IT_number 71
_symmetry_cell_setting 'orthorhombic'
loop_
_space_group_symop_operation_xyz
x,y,z
-x,-y,z
x,-y,-z
-x,y,-z
-x,-y,-z
x,y,-z
-x,y,z
x,-y,z
1/2+x,1/2+y,1/2+z
1/2-x,1/2-y,1/2+z
1/2+x,1/2-y,1/2-z
1/2-x,1/2+y,1/2-z
1/2-x,1/2-y,1/2-z
1/2+x,1/2+y,1/2-z
1/2-x,1/2+y,1/2+z
1/2+x,1/2-y,1/2+z
loop_
_atom_site_type_symbol
_atom_site_label
_atom_site_fract_x
_atom_site_fract_y
_atom_site_fract_z
Si Si1 0.732902 0.833426 0.936493
Si Si2 0.123886 0.825909 0.628450
Si Si3 0.604704 0.328425 0.437809
Si Si4 0.000000 0.322749 0.564566
Si Si5 0.424482 0.826603 0.671047
Si Si6 0.676287 0.323543 0.247446
O O1 0.693870 0.714200 0.901497
O O2 0.813618 0.819818 0.934340
O O3 0.715076 0.000000 0.917732
O O4 0.712707 0.821263 0.000000
O O5 0.136461 0.784276 0.691557
O O6 0.065275 0.739579 0.596459
O O7 0.109642 0.000000 0.625748
O O8 0.585304 0.292472 0.500000
O O9 0.586177 0.500000 0.427561
O O10 0.576377 0.223062 0.391800
O O11 0.000000 0.500000 0.566529
O O12 0.000000 0.279568 0.500000
O O13 0.500000 0.798791 0.693234
O O14 0.368830 0.732977 0.702701
O O15 0.409773 0.000000 0.675948
O O16 0.683968 0.500000 0.249022
O O17 0.750000 0.250000 0.250000
#
# Coordination Sequence:
#
# PCOD9524426 Si02
#       6
#    16  16  16   8  16  16
#     4   9  18  34  57  86 119 155 198 246 298 361
#     4  11  24  39  59  89 122 157 202 257 313 369
#     4   9  19  37  62  91 122 160 205 252 306 367
#     4  11  25  43  63  89 123 167 214 257 310 381
#     4  11  25  42  61  89 125 164 207 255 310 369
#     4  11  25  44  67  94 125 162 209 263 319 381
#
# _framework density 20.059707
#
# number of rings (size 3 to 8) (size 9 to 14) (size 15 to 20)
#    0.000    1.727    0.000    4.636    1.273   12.000 
#    0.000    3.636    0.000    0.000    0.000    0.000 
#    0.000    0.000    0.000    0.000    0.000    0.000 
#
# Total GULP energy -245951.746850 kJ/mol
# GULP energy per Si atom -5589.812428 kJ/mol
# Density = 2.001405 g / cm^3
# Si number density = 20.059707 Si / 1000 Ang^3
#
#
#
# Elastic Constant Matrix: (Units=GPa)
#
#
# Indices 1 2 3 4 5 6 
#
# 1 84.3566 39.3280 47.2229 0.0000 0.0000 0.0000
# 2 39.3280 53.0661 45.9646 0.0000 0.0000 0.0000
# 3 47.2229 45.9646 100.9160 0.0000 0.0000 0.0000
# 4 0.0000 0.0000 0.0000 31.0360 0.0000 0.0000
# 5 0.0000 0.0000 0.0000 0.0000 27.3353 0.0000
# 6 0.0000 0.0000 0.0000 0.0000 0.0000 28.0951
#
#
#
# Elastic Compliance Matrix: (Units=1/GPa)
#
#
# Indices 1 2 3 4 5 6 
#
# 1 0.019092 -0.010588 -0.004111 0.000000 0.000000 0.000000
# 2 -0.010588 0.036995 -0.011896 0.000000 0.000000 0.000000
# 3 -0.004111 -0.011896 0.017251 0.000000 0.000000 0.000000
# 4 0.000000 0.000000 0.000000 0.032221 0.000000 0.000000
# 5 0.000000 0.000000 0.000000 0.000000 0.036583 0.000000
# 6 0.000000 0.000000 0.000000 0.000000 0.000000 0.035593
#
#
# Mechanical properties :
#
#
# Convention : Reuss Voigt Hill
#
# Bulk Modulus (GPa) = 49.63244 55.92996 52.78120
# Shear Modulus (GPa) = 21.03996 24.34817 22.69406
#
# Velocity S-wave (km/s) = 3.24213 3.48772 3.36717
# Velocity P-wave (km/s) = 6.22987 6.64539 6.44098
#
# Compressibility (1/GPa) = 0.02014811
#
# Stress axis : x y z
#
# Youngs Moduli (GPa) = 52.37665 27.03037 57.96666
#
# Poissons Ratio (x) = 0.28621 0.23832
# Poissons Ratio (y) = 0.55459 0.68955
# Poissons Ratio (z) = 0.21534 0.32154
#
# Static dielectric constant tensor:
#      x y z
#    x 1.715260 0.000000 0.000000 
#    y 0.000000 1.673380 0.000000 
#    z 0.000000 0.000000 1.713380 
# 
# From -- ./inp_files/61121.got.cif
#   From: 2010.05.17/outbox.cif.g08.bks.cpg/sg71_31_cif.got.tgz:61121.got - 2010.06.03 16:22:01.
