data_PCOD9524556
_publ_section_title
;
Structure prediction by ZEFSAII (Michael W. Deem and Ramdas Pophale) SiO2 
 PCOD9524556
Probable space group: I M M M
;
_chemical_formula_sum "Si O2"
_cell_formula_units_Z 96
_cell_length_a 14.329875
_cell_length_b 16.472288
_cell_length_c 19.441256
_cell_angle_alpha 90.000000
_cell_angle_beta 90.000000
_cell_angle_gamma 90.000000
_cell_volume 4589.027370
_symmetry_space_group_name_H-M "I M M M"
_symmetry_group_IT_number 71
_symmetry_cell_setting 'orthorhombic'
loop_
_space_group_symop_operation_xyz
x,y,z
-x,-y,z
x,-y,-z
-x,y,-z
-x,-y,-z
x,y,-z
-x,y,z
x,-y,z
1/2+x,1/2+y,1/2+z
1/2-x,1/2-y,1/2+z
1/2+x,1/2-y,1/2-z
1/2-x,1/2+y,1/2-z
1/2-x,1/2-y,1/2-z
1/2+x,1/2+y,1/2-z
1/2-x,1/2+y,1/2+z
1/2+x,1/2-y,1/2+z
loop_
_atom_site_type_symbol
_atom_site_label
_atom_site_fract_x
_atom_site_fract_y
_atom_site_fract_z
Si Si1 0.637376 0.907045 0.424107
Si Si2 0.398465 0.369057 0.421111
Si Si3 0.184770 0.410762 0.418392
Si Si4 0.863894 0.091892 0.579474
Si Si5 0.644903 0.749146 0.835698
Si Si6 0.633080 0.224896 0.681211
O O1 0.611173 0.874290 0.500000
O O2 0.750641 0.906892 0.422110
O O3 0.604816 0.855464 0.359614
O O4 0.607713 0.000000 0.420304
O O5 0.392554 0.338292 0.500000
O O6 0.500000 0.411481 0.416377
O O7 0.298137 0.410961 0.409707
O O8 0.400063 0.298612 0.365514
O O9 0.167079 0.402865 0.500000
O O10 0.150448 0.500000 0.395466
O O11 0.143732 0.332109 0.380082
O O12 0.893508 0.101683 0.500000
O O13 0.892844 0.169167 0.625219
O O14 0.890440 0.000000 0.602447
O O15 0.605134 0.766006 0.760105
O O16 0.754285 0.729412 0.823179
#
# Coordination Sequence:
#
# PCOD9524556 Si02
#       6
#    16  16  16  16  16  16
#     4   8  13  21  34  51  70  96 131 167 202 244
#     4   9  17  29  44  59  78 112 156 191 214 243
#     4   9  17  28  42  61  86 116 148 181 216 256
#     4   8  13  22  37  55  75 101 130 159 196 249
#     4   9  16  25  37  57  85 110 134 170 221 273
#     4   9  16  25  37  56  80 106 137 174 221 268
#
# _framework density 20.919466
#
# number of rings (size 3 to 8) (size 9 to 14) (size 15 to 20)
#    0.000    3.333    0.000    2.000    0.000    5.000 
#    0.000   10.000    0.000    0.500    0.000    2.333 
#    0.000    2.667    0.000    5.667    0.000   13.500 
#
# Total GULP energy -267387.808149 kJ/mol
# GULP energy per Si atom -5570.579336 kJ/mol
# Density = 2.087185 g / cm^3
# Si number density = 20.919466 Si / 1000 Ang^3
#
#
#
# Elastic Constant Matrix: (Units=GPa)
#
#
# Indices 1 2 3 4 5 6 
#
# 1 76.1324 10.4242 16.6181 0.0000 0.0000 0.0000
# 2 10.4242 192.2508 122.6330 0.0000 0.0000 0.0000
# 3 16.6181 122.6330 155.4171 0.0000 0.0000 0.0000
# 4 0.0000 0.0000 0.0000 -84.0640 0.0000 0.0000
# 5 0.0000 0.0000 0.0000 0.0000 -14.6418 0.0000
# 6 0.0000 0.0000 0.0000 0.0000 0.0000 -24.6369
#
#
#
# Elastic Compliance Matrix: (Units=1/GPa)
#
#
# Indices 1 2 3 4 5 6 
#
# 1 0.013463 0.000379 -0.001739 0.000000 0.000000 0.000000
# 2 0.000379 0.010483 -0.008313 0.000000 0.000000 0.000000
# 3 -0.001739 -0.008313 0.013179 0.000000 0.000000 0.000000
# 4 0.000000 0.000000 0.000000 -0.011896 0.000000 0.000000
# 5 0.000000 0.000000 0.000000 0.000000 -0.068298 0.000000
# 6 0.000000 0.000000 0.000000 0.000000 0.000000 -0.040590
#
#
# Mechanical properties :
#
#
# Convention : Reuss Voigt Hill
#
# Bulk Modulus (GPa) = 56.23941 80.35009 68.29475
# Shear Modulus (GPa) = -85.63594 -6.39351 -46.01473
#
# Velocity S-wave (km/s) = -6.40507 -1.75011 -4.69509
# Velocity P-wave (km/s) = 5.26856 5.86590 1.82361
#
# Compressibility (1/GPa) = 0.01778112
#
# Stress axis : x y z
#
# Youngs Moduli (GPa) = 74.27978 95.38919 75.87691
#
# Poissons Ratio (x) = -0.03616 0.13192
# Poissons Ratio (y) = -0.02815 0.63073
# Poissons Ratio (z) = 0.12914 0.79292
#
# Static dielectric constant tensor:
#      x y z
#    x 1.789830 0.000000 0.000000 
#    y 0.000000 1.737340 0.000000 
#    z 0.000000 0.000000 1.705980 
# 
# From -- ./inp_files/55011.got.cif
#   From: 2010.05.17/outbox.cif.g08.bks.cpg/sg71_28_cif.got.tgz:55011.got - 2010.06.03 16:22:01.
