data_PCOD9524276
_publ_section_title
;
Structure prediction by ZEFSAII (Michael W. Deem and Ramdas Pophale) SiO2 
 PCOD9524276
Probable space group: I M M M
;
_chemical_formula_sum "Si O2"
_cell_formula_units_Z 72
_cell_length_a 14.121554
_cell_length_b 29.658107
_cell_length_c 9.207351
_cell_angle_alpha 90.000000
_cell_angle_beta 90.000000
_cell_angle_gamma 90.000000
_cell_volume 3856.209483
_symmetry_space_group_name_H-M "I M M M"
_symmetry_group_IT_number 71
_symmetry_cell_setting 'orthorhombic'
loop_
_space_group_symop_operation_xyz
x,y,z
-x,-y,z
x,-y,-z
-x,y,-z
-x,-y,-z
x,y,-z
-x,y,z
x,-y,z
1/2+x,1/2+y,1/2+z
1/2-x,1/2-y,1/2+z
1/2+x,1/2-y,1/2-z
1/2-x,1/2+y,1/2-z
1/2-x,1/2-y,1/2-z
1/2+x,1/2+y,1/2-z
1/2-x,1/2+y,1/2+z
1/2+x,1/2-y,1/2+z
loop_
_atom_site_type_symbol
_atom_site_label
_atom_site_fract_x
_atom_site_fract_y
_atom_site_fract_z
Si Si1 0.112919 0.000000 0.666253
Si Si2 0.891849 0.275348 0.825366
Si Si3 0.287108 0.316383 0.673670
Si Si4 0.890923 0.445602 0.169021
Si Si5 0.708249 0.416992 0.327445
O O1 0.150786 0.955715 0.746216
O O2 0.147756 0.000000 0.500000
O O3 0.000000 0.000000 0.666810
O O4 0.812215 0.306172 0.752053
O O5 0.859425 0.223993 0.790592
O O6 0.000000 0.283804 0.779546
O O7 0.887338 0.280608 0.000000
O O8 0.271694 0.315104 0.500000
O O9 0.323090 0.366260 0.710194
O O10 0.882233 0.500000 0.182521
O O11 0.816250 0.422767 0.274296
O O12 0.000000 0.433728 0.199462
O O13 0.871273 0.434289 0.000000
O O14 0.701233 0.423351 0.500000
#
# Coordination Sequence:
#
# PCOD9524276 Si02
#       5
#     8  16  16  16  16
#     4  11  25  43  60  79 108 147 189 232 274 319
#     4   9  18  35  58  81 107 143 184 223 267 323
#     4   9  20  36  54  81 114 144 177 222 275 326
#     4   9  18  33  53  76 105 144 184 222 269 323
#     4  11  22  36  57  84 113 146 184 229 279 327
#
# _framework density 18.671184
#
# number of rings (size 3 to 8) (size 9 to 14) (size 15 to 20)
#    0.000    2.333    1.111    1.667    0.000    5.333 
#    0.000    7.778    0.000    0.000    0.000    0.000 
#    0.000    0.000    0.000    0.000    0.000    0.000 
#
# Total GULP energy -200944.689128 kJ/mol
# GULP energy per Si atom -5581.796920 kJ/mol
# Density = 1.862869 g / cm^3
# Si number density = 18.671184 Si / 1000 Ang^3
#
#
#
# Elastic Constant Matrix: (Units=GPa)
#
#
# Indices 1 2 3 4 5 6 
#
# 1 53.0161 14.3852 16.0267 -0.0002 0.0006 -0.0001
# 2 14.3852 103.1527 42.5338 0.0001 -0.0002 -0.0001
# 3 16.0267 42.5338 45.6077 0.0033 -0.0024 -0.0006
# 4 -0.0002 0.0001 0.0033 23.6559 0.0007 0.0000
# 5 0.0006 -0.0002 -0.0024 0.0007 -0.2510 -0.0002
# 6 -0.0001 -0.0001 -0.0006 0.0000 -0.0002 4.1362
#
#
#
# Elastic Compliance Matrix: (Units=1/GPa)
#
#
# Indices 1 2 3 4 5 6 
#
# 1 0.021106 0.000187 -0.007591 0.000001 0.000127 -0.000001
# 2 0.000187 0.015753 -0.014757 0.000002 0.000128 -0.000002
# 3 -0.007591 -0.014757 0.038356 -0.000005 -0.000376 0.000005
# 4 0.000001 0.000002 -0.000005 0.042273 0.000125 0.000000
# 5 0.000127 0.000128 -0.000376 0.000125 -3.984710 -0.000226
# 6 -0.000001 -0.000002 0.000005 0.000000 -0.000226 0.241768
#
#
# Mechanical properties :
#
#
# Convention : Reuss Voigt Hill
#
# Bulk Modulus (GPa) = 32.36988 38.62978 35.49983
# Shear Modulus (GPa) = -1.40023 14.09695 6.34836
#
# Velocity S-wave (km/s) = -0.86693 2.75073 1.84593
# Velocity P-wave (km/s) = 4.04628 5.55186 4.85775
#
# Compressibility (1/GPa) = 0.03089292
#
# Stress axis : x y z
#
# Youngs Moduli (GPa) = 47.37935 63.47904 26.07154
#
# Poissons Ratio (x) = -0.01185 0.19790
# Poissons Ratio (y) = -0.00884 0.38474
# Poissons Ratio (z) = 0.35965 0.93676
#
# Static dielectric constant tensor:
#      x y z
#    x 1.627980 0.000000 0.000000 
#    y 0.000000 1.664170 0.000000 
#    z 0.000000 0.000000 1.620700 
# 
# From -- ./inp_files/6101.got.cif
#   From: 2010.05.17/outbox.cif.g08.bks.cpg/sg71_4_cif.got.tgz:6101.got - 2010.06.03 16:22:01.
