data_PCOD9524791
_publ_section_title
;
Structure prediction by ZEFSAII (Michael W. Deem and Ramdas Pophale) SiO2 
 PCOD9524791
Probable space group: I M M M
;
_chemical_formula_sum "Si O2"
_cell_formula_units_Z 52
_cell_length_a 21.000000
_cell_length_b 27.000000
_cell_length_c 9.000000
_cell_angle_alpha 90.000000
_cell_angle_beta 90.000000
_cell_angle_gamma 90.000000
_cell_volume 5103.000000
_symmetry_space_group_name_H-M "I M M M"
_symmetry_group_IT_number 71
_symmetry_cell_setting 'orthorhombic'
loop_
_space_group_symop_operation_xyz
x,y,z
-x,-y,z
x,-y,-z
-x,y,-z
-x,-y,-z
x,y,-z
-x,y,z
x,-y,z
1/2+x,1/2+y,1/2+z
1/2-x,1/2-y,1/2+z
1/2+x,1/2-y,1/2-z
1/2-x,1/2+y,1/2-z
1/2-x,1/2-y,1/2-z
1/2+x,1/2+y,1/2-z
1/2-x,1/2+y,1/2+z
1/2+x,1/2-y,1/2+z
loop_
_atom_site_type_symbol
_atom_site_label
_atom_site_fract_x
_atom_site_fract_y
_atom_site_fract_z
Si Si1 0.622125 0.899001 0.828169
Si Si2 0.325906 0.301463 0.667730
Si Si3 0.745331 0.059583 0.668065
Si Si4 0.567819 0.357735 0.830409
Si Si5 0.377390 0.443940 0.324667
Si Si6 0.182657 0.702780 0.331421
Si Si7 0.500000 0.943203 0.323110
O O1 0.685564 0.922394 0.760667
O O2 0.631515 0.840103 0.819715
O O3 0.562221 0.916958 0.737592
O O4 0.615709 0.913152 0.000000
O O5 0.347361 0.311387 0.500000
O O6 0.374256 0.324142 0.782715
O O7 0.253542 0.319850 0.682462
O O8 0.323275 0.243535 0.705527
O O9 0.743233 0.079215 0.500000
O O10 0.811941 0.071434 0.745435
O O11 0.742330 0.000000 0.661994
O O12 0.500000 0.331497 0.813315
O O13 0.570753 0.405516 0.727401
O O14 0.574291 0.373810 0.000000
O O15 0.367794 0.442272 0.500000
O O16 0.392893 0.500000 0.281066
O O17 0.180292 0.724211 0.500000
O O18 0.500000 0.942694 0.500000
O O19 0.500000 0.000000 0.271825
#
# Coordination Sequence:
#
# PCOD9524791 Si02
#       7
#    16  16  16  16  16  16   8
#     4  11  22  37  59  86 115 153 197 243 297 355
#     4  10  20  37  63  91 117 149 190 237 288 346
#     4  10  20  34  55  84 117 152 190 236 290 345
#     4  11  24  40  58  82 115 157 196 233 284 343
#     4  10  21  37  58  85 116 150 192 243 290 335
#     4   9  20  38  60  88 119 147 183 235 294 349
#     4  11  25  43  59  79 115 159 203 253 306 363
#
# _framework density 10.190084000000001
#
# number of rings (size 3 to 8) (size 9 to 14) (size 15 to 20)
#    0.000    1.769    0.000    3.923    0.000    8.923 
#    1.385    1.538    0.000    0.000    0.000    0.000 
#    0.000    0.000    0.000    0.000    0.000    0.000 
#
# Total GULP energy -290239.560266 kJ/mol
# GULP energy per Si atom -5581.530005 kJ/mol
# Density = 1.016689 g / cm^3
# Si number density = 10.190084 Si / 1000 Ang^3
#
#
#
# Elastic Constant Matrix: (Units=GPa)
#
#
# Indices 1 2 3 4 5 6 
#
# 1 66.5829 34.9163 19.7996 0.0000 0.0000 0.0000
# 2 34.9163 41.6441 22.1482 0.0000 0.0000 0.0000
# 3 19.7996 22.1482 35.2024 0.0000 0.0000 0.0000
# 4 0.0000 0.0000 0.0000 25.5673 0.0000 0.0000
# 5 0.0000 0.0000 0.0000 0.0000 26.8947 0.0000
# 6 0.0000 0.0000 0.0000 0.0000 0.0000 6.1370
#
#
#
# Elastic Compliance Matrix: (Units=1/GPa)
#
#
# Indices 1 2 3 4 5 6 
#
# 1 0.026851 -0.021763 -0.001409 0.000000 0.000000 0.000000
# 2 -0.021763 0.053729 -0.021564 0.000000 0.000000 0.000000
# 3 -0.001409 -0.021564 0.042767 0.000000 0.000000 0.000000
# 4 0.000000 0.000000 0.000000 0.039112 0.000000 0.000000
# 5 0.000000 0.000000 0.000000 0.000000 0.037182 0.000000
# 6 0.000000 0.000000 0.000000 0.000000 0.000000 0.162947
#
#
# Mechanical properties :
#
#
# Convention : Reuss Voigt Hill
#
# Bulk Modulus (GPa) = 29.52133 33.01752 31.26942
# Shear Modulus (GPa) = 10.79093 16.15749 13.47421
#
# Velocity S-wave (km/s) = 2.30354 2.81873 2.57406
# Velocity P-wave (km/s) = 4.64670 5.17973 4.92044
#
# Compressibility (1/GPa) = 0.03387381
#
# Stress axis : x y z
#
# Youngs Moduli (GPa) = 37.24297 18.61196 23.38244
#
# Poissons Ratio (x) = 0.40506 0.03296
# Poissons Ratio (y) = 0.81053 0.50421
# Poissons Ratio (z) = 0.05249 0.40134
#
# Static dielectric constant tensor:
#      x y z
#    x 1.674540 0.000000 0.000000 
#    y 0.000000 1.759990 0.000000 
#    z 0.000000 0.000000 1.697570 
# 
# From -- ./inp_files/11057.got.cif
#   From: 2010.05.17/outbox.ucp.g08.bks.cvg/sg71_6_cif.got.tgz:11057.got - 2010.06.11 16:29:00.
