data_PCOD9524778
_publ_section_title
;
Structure prediction by ZEFSAII (Michael W. Deem and Ramdas Pophale) SiO2 
 PCOD9524778
Probable space group: I M M M
;
_chemical_formula_sum "Si O2"
_cell_formula_units_Z 44
_cell_length_a 9.000000
_cell_length_b 30.000000
_cell_length_c 18.000000
_cell_angle_alpha 90.000000
_cell_angle_beta 90.000000
_cell_angle_gamma 90.000000
_cell_volume 4860.000000
_symmetry_space_group_name_H-M "I M M M"
_symmetry_group_IT_number 71
_symmetry_cell_setting 'orthorhombic'
loop_
_space_group_symop_operation_xyz
x,y,z
-x,-y,z
x,-y,-z
-x,y,-z
-x,-y,-z
x,y,-z
-x,y,z
x,-y,z
1/2+x,1/2+y,1/2+z
1/2-x,1/2-y,1/2+z
1/2+x,1/2-y,1/2-z
1/2-x,1/2+y,1/2-z
1/2-x,1/2-y,1/2-z
1/2+x,1/2+y,1/2-z
1/2-x,1/2+y,1/2+z
1/2+x,1/2-y,1/2+z
loop_
_atom_site_type_symbol
_atom_site_label
_atom_site_fract_x
_atom_site_fract_y
_atom_site_fract_z
Si Si1 0.679077 0.674570 0.826767
Si Si2 0.821101 0.264584 0.413428
Si Si3 0.320298 0.647712 0.343508
Si Si4 0.174056 0.407805 0.089427
Si Si5 0.180067 0.051278 0.912212
Si Si6 0.171550 0.000000 0.590491
O O1 0.500000 0.673286 0.832483
O O2 0.725508 0.723364 0.859017
O O3 0.717900 0.661995 0.741474
O O4 0.747466 0.635207 0.876310
O O5 0.787670 0.253456 0.500000
O O6 0.747985 0.312062 0.392477
O O7 0.000000 0.268910 0.406716
O O8 0.500000 0.648775 0.350356
O O9 0.273271 0.596885 0.368010
O O10 0.248773 0.454377 0.114553
O O11 0.000000 0.408122 0.108301
O O12 0.187454 0.405987 0.000000
O O13 0.000000 0.050647 0.907439
O O14 0.228195 0.000000 0.889867
O O15 0.218507 0.056608 0.000000
O O16 0.174935 0.000000 0.500000
O O17 0.000000 0.000000 0.614068
#
# Coordination Sequence:
#
# PCOD9524778 Si02
#       6
#    16  16  16  16  16   8
#     4  10  21  36  52  76 109 144 179 218 273 333
#     4  10  21  36  54  75 103 142 182 222 274 334
#     4  10  20  34  54  81 108 136 177 225 271 325
#     4  10  20  34  53  77 105 139 183 232 276 321
#     4   8  14  27  49  76 105 135 167 210 264 314
#     4   9  17  31  53  77 101 135 178 225 276 325
#
# _framework density 9.0534979999999994
#
# number of rings (size 3 to 8) (size 9 to 14) (size 15 to 20)
#    0.000    2.455    0.000    3.000    0.000    5.455 
#    1.636    0.000    0.000    0.545    0.000    2.545 
#    0.000    0.000    0.000    0.000    0.000    0.000 
#
# Total GULP energy -245252.624736 kJ/mol
# GULP energy per Si atom -5573.923289 kJ/mol
# Density = 0.903289 g / cm^3
# Si number density = 9.053498 Si / 1000 Ang^3
#
#
#
# Elastic Constant Matrix: (Units=GPa)
#
#
# Indices 1 2 3 4 5 6 
#
# 1 19.5785 26.7437 21.9974 0.0000 0.0000 0.0000
# 2 26.7437 195.7139 62.9491 0.0000 0.0000 0.0000
# 3 21.9974 62.9491 76.4731 0.0003 0.0000 0.0000
# 4 0.0000 0.0000 0.0003 28.2351 0.0000 0.0000
# 5 0.0000 0.0000 0.0000 0.0000 18.7923 0.0000
# 6 0.0000 0.0000 0.0000 0.0000 0.0000 36.4891
#
#
#
# Elastic Compliance Matrix: (Units=1/GPa)
#
#
# Indices 1 2 3 4 5 6 
#
# 1 0.078538 -0.004714 -0.018711 0.000000 0.000000 0.000000
# 2 -0.004714 0.007232 -0.004597 0.000000 0.000000 0.000000
# 3 -0.018711 -0.004597 0.022243 0.000000 0.000000 0.000000
# 4 0.000000 0.000000 0.000000 0.035417 0.000000 0.000000
# 5 0.000000 0.000000 0.000000 0.000000 0.053213 0.000000
# 6 0.000000 0.000000 0.000000 0.000000 0.000000 0.027405
#
#
# Mechanical properties :
#
#
# Convention : Reuss Voigt Hill
#
# Bulk Modulus (GPa) = 19.24231 57.23843 38.24037
# Shear Modulus (GPa) = 16.81139 28.70830 22.75984
#
# Velocity S-wave (km/s) = 3.05035 3.98613 3.54922
# Velocity P-wave (km/s) = 4.80169 7.27087 6.16124
#
# Compressibility (1/GPa) = 0.05196882
#
# Stress axis : x y z
#
# Youngs Moduli (GPa) = 12.73265 138.26815 44.95762
#
# Poissons Ratio (x) = 0.65176 0.84122
# Poissons Ratio (y) = 0.06002 0.20669
# Poissons Ratio (z) = 0.23824 0.63568
#
# Static dielectric constant tensor:
#      x y z
#    x 1.608330 0.000000 0.000000 
#    y 0.000000 1.617470 0.000000 
#    z 0.000000 0.000000 1.641900 
# 
# From -- ./inp_files/42480.got.cif
#   From: 2010.05.17/outbox.ucp.g08.bks.cvg/sg71_22_cif.got.tgz:42480.got - 2010.06.11 16:29:00.
