data_PCOD9524944
_publ_section_title
;
Structure prediction by ZEFSAII (Michael W. Deem and Ramdas Pophale) SiO2 
 PCOD9524944
Probable space group: I B A M
;
_chemical_formula_sum "Si O2"
_cell_formula_units_Z 116
_cell_length_a 14.823816
_cell_length_b 19.430248
_cell_length_c 15.374441
_cell_angle_alpha 90.000000
_cell_angle_beta 90.000000
_cell_angle_gamma 90.000000
_cell_volume 4428.306717
_symmetry_space_group_name_H-M "I B A M"
_symmetry_group_IT_number 72
_symmetry_cell_setting 'orthorhombic'
loop_
_space_group_symop_operation_xyz
x,y,z
-x,-y,z
x,-y,1/2-z
-x,y,1/2-z
-x,-y,-z
x,y,-z
-x,y,1/2+z
x,-y,1/2+z
1/2+x,1/2+y,1/2+z
1/2-x,1/2-y,1/2+z
1/2+x,1/2-y,-z
1/2-x,1/2+y,-z
1/2-x,1/2-y,1/2-z
1/2+x,1/2+y,1/2-z
1/2-x,1/2+y,z
1/2+x,1/2-y,z
loop_
_atom_site_type_symbol
_atom_site_label
_atom_site_fract_x
_atom_site_fract_y
_atom_site_fract_z
Si Si1 0.718475 0.429116 0.100988
Si Si2 0.099989 0.641316 0.394165
Si Si3 0.768000 0.212043 0.896496
Si Si4 0.384345 0.426674 0.874046
Si Si5 0.055121 0.844531 0.402295
Si Si6 0.000000 0.000000 0.750000
Si Si7 0.603354 0.009293 0.393915
Si Si8 0.435540 0.217332 0.106824
O O1 0.666722 0.503413 0.098620
O O2 0.648635 0.372319 0.135645
O O3 0.818401 0.440147 0.139721
O O4 0.733268 0.410235 0.000000
O O5 0.098452 0.643784 0.500000
O O6 0.168369 0.699427 0.361511
O O7 0.138971 0.567206 0.373407
O O8 0.996668 0.653105 0.367114
O O9 0.822367 0.139707 0.886732
O O10 0.834444 0.270606 0.861627
O O11 0.758947 0.223306 0.000000
O O12 0.483115 0.407066 0.912956
O O13 0.424543 0.445400 0.781467
O O14 0.076906 0.820016 0.500000
O O15 0.996012 0.782793 0.363774
O O16 0.598892 0.018771 0.500000
O O17 0.500000 0.000000 0.364612
O O18 0.430833 0.217931 0.000000
#
# Coordination Sequence:
#
# PCOD9524944 Si02
#       8
#    16  16  16  16  16   4  16  16
#     4  10  16  26  45  64  86 123 155 178 214 276
#     4   9  15  26  42  61  91 125 152 181 218 269
#     4   9  16  28  47  65  86 124 160 182 219 284
#     4  11  18  29  41  63  93 116 150 182 234 287
#     4   9  16  26  43  65  89 115 146 184 220 275
#     4  12  24  28  38  68  98 116 140 198 262 276
#     4   9  17  27  39  61  92 123 155 182 214 264
#     4   8  15  25  37  61  89 112 144 183 219 256
#
# _framework density 26.195115999999999
#
# number of rings (size 3 to 8) (size 9 to 14) (size 15 to 20)
#    0.000    2.621    2.759    2.069    0.000    1.103 
#    2.483    0.000    0.000    0.000    0.000    4.345 
#    0.000    0.000    0.000    0.000    0.000    0.000 
#
# Total GULP energy -323034.580682 kJ/mol
# GULP energy per Si atom -5569.561736 kJ/mol
# Density = 2.613549 g / cm^3
# Si number density = 26.195116 Si / 1000 Ang^3
#
#
#
# Elastic Constant Matrix: (Units=GPa)
#
#
# Indices 1 2 3 4 5 6 
#
# 1 158.6517 13.1909 -2.3002 0.0000 0.0000 0.0000
# 2 13.1909 57.7927 -8.1059 -0.0001 0.0000 0.0000
# 3 -2.3002 -8.1059 25.0161 -0.0002 0.0001 0.0000
# 4 0.0000 -0.0001 -0.0002 -7.9950 0.0000 0.0000
# 5 0.0000 0.0000 0.0001 0.0000 189.3008 0.0000
# 6 0.0000 0.0000 0.0000 0.0000 0.0000 45.1406
#
#
#
# Elastic Compliance Matrix: (Units=1/GPa)
#
#
# Indices 1 2 3 4 5 6 
#
# 1 0.006425 -0.001450 0.000121 0.000000 0.000000 0.000000
# 2 -0.001450 0.018454 0.005846 0.000000 0.000000 0.000000
# 3 0.000121 0.005846 0.041880 -0.000001 0.000000 0.000000
# 4 0.000000 0.000000 -0.000001 -0.125078 0.000000 0.000000
# 5 0.000000 0.000000 0.000000 0.000000 0.005283 0.000000
# 6 0.000000 0.000000 0.000000 0.000000 0.000000 0.022153
#
#
# Mechanical properties :
#
#
# Convention : Reuss Voigt Hill
#
# Bulk Modulus (GPa) = 13.19350 27.44780 20.32065
# Shear Modulus (GPa) = -341.20282 61.20099 -140.00092
#
# Velocity S-wave (km/s) = -11.42529 4.83883 -7.31857
# Velocity P-wave (km/s) = 13.00008 6.45910 7.97753
#
# Compressibility (1/GPa) = 0.07579488
#
# Stress axis : x y z
#
# Youngs Moduli (GPa) = 155.63249 54.18860 23.87791
#
# Poissons Ratio (x) = 0.07855 -0.00289
# Poissons Ratio (y) = 0.22560 -0.13960
# Poissons Ratio (z) = -0.01885 -0.31680
#
# Static dielectric constant tensor:
#      x y z
#    x 2.097230 0.000000 0.000000 
#    y 0.000000 2.063030 0.000000 
#    z 0.000000 0.000000 1.936850 
# 
# From -- ./inp_files/30867.got.cif
#   From: 2010.05.17/outbox.cif.g08.bks.cpg/sg72_16_cif.got.tgz:30867.got - 2010.06.03 17:03:01.
