data_PCOD9524036
_publ_section_title
;
Structure prediction by ZEFSAII (Michael W. Deem and Ramdas Pophale) SiO2 
 PCOD9524036
Probable space group: I M M M
;
_chemical_formula_sum "Si O2"
_cell_formula_units_Z 104
_cell_length_a 31.094457
_cell_length_b 8.302297
_cell_length_c 23.373931
_cell_angle_alpha 90.000000
_cell_angle_beta 90.000000
_cell_angle_gamma 90.000000
_cell_volume 6034.106906
_symmetry_space_group_name_H-M "I M M M"
_symmetry_group_IT_number 71
_symmetry_cell_setting 'orthorhombic'
loop_
_space_group_symop_operation_xyz
x,y,z
-x,-y,z
x,-y,-z
-x,y,-z
-x,-y,-z
x,y,-z
-x,y,z
x,-y,z
1/2+x,1/2+y,1/2+z
1/2-x,1/2-y,1/2+z
1/2+x,1/2-y,1/2-z
1/2-x,1/2+y,1/2-z
1/2-x,1/2-y,1/2-z
1/2+x,1/2+y,1/2-z
1/2-x,1/2+y,1/2+z
1/2+x,1/2-y,1/2+z
loop_
_atom_site_type_symbol
_atom_site_label
_atom_site_fract_x
_atom_site_fract_y
_atom_site_fract_z
Si Si1 0.379473 0.807360 0.434802
Si Si2 0.806669 0.305580 0.434063
Si Si3 0.450925 0.805610 0.215764
Si Si4 0.786968 0.186601 0.069443
Si Si5 0.450344 0.303182 0.000000
Si Si6 0.549020 0.196770 0.653504
Si Si7 0.604173 0.692017 0.889785
O O1 0.383985 0.744042 0.500000
O O2 0.331063 0.772031 0.413940
O O3 0.415801 0.745065 0.391743
O O4 0.384300 0.000000 0.437693
O O5 0.813162 0.249849 0.500000
O O6 0.804231 0.500000 0.435603
O O7 0.759791 0.247960 0.412517
O O8 0.847611 0.255183 0.397776
O O9 0.500000 0.754355 0.202017
O O10 0.441538 0.754502 0.281051
O O11 0.418149 0.742694 0.168909
O O12 0.450193 0.000000 0.214767
O O13 0.790367 0.000000 0.086618
O O14 0.785172 0.191613 0.000000
O O15 0.424851 0.249170 0.056594
O O16 0.450546 0.500000 0.000000
O O17 0.500000 0.250629 0.000000
O O18 0.500000 0.245123 0.639535
O O19 0.549594 0.000000 0.652920
O O20 0.605336 0.500000 0.893061
#
# Coordination Sequence:
#
# PCOD9524036 Si02
#       7
#    16  16  16  16   8  16  16
#     4   9  16  26  45  75 102 122 149 187 229 272
#     4   9  17  30  47  66  91 122 157 192 227 276
#     4   9  18  33  50  65  85 121 165 197 223 266
#     4   8  15  28  45  65  92 127 156 182 224 275
#     4   9  18  30  41  59  91 123 143 171 230 291
#     4   8  15  29  48  69  95 126 157 189 226 269
#     4  11  20  30  46  68  94 121 150 192 242 283
#
# _framework density 17.235358999999999
#
# number of rings (size 3 to 8) (size 9 to 14) (size 15 to 20)
#    0.000    3.000    0.769    2.769    0.000    1.846 
#    0.000    3.846    0.000    4.154    0.000    2.154 
#    0.000    0.000    0.000    0.000    0.000    0.000 
#
# Total GULP energy -289657.957497 kJ/mol
# GULP energy per Si atom -5570.345336 kJ/mol
# Density = 1.719613 g / cm^3
# Si number density = 17.235359 Si / 1000 Ang^3
#
#
#
# Elastic Constant Matrix: (Units=GPa)
#
#
# Indices 1 2 3 4 5 6 
#
# 1 179.0039 14.9951 96.4248 0.0000 0.0000 0.0000
# 2 14.9951 6.0912 12.2711 0.0000 0.0000 0.0000
# 3 96.4248 12.2711 85.9234 0.0000 0.0000 0.0000
# 4 0.0000 0.0000 0.0000 10.4283 0.0000 0.0000
# 5 0.0000 0.0000 0.0000 0.0000 16.4736 0.0000
# 6 0.0000 0.0000 0.0000 0.0000 0.0000 19.0763
#
#
#
# Elastic Compliance Matrix: (Units=1/GPa)
#
#
# Indices 1 2 3 4 5 6 
#
# 1 0.014195 -0.004005 -0.015358 0.000000 0.000000 0.000000
# 2 -0.004005 0.231612 -0.028583 0.000000 0.000000 0.000000
# 3 -0.015358 -0.028583 0.032955 0.000000 0.000000 0.000000
# 4 0.000000 0.000000 0.000000 0.095892 0.000000 0.000000
# 5 0.000000 0.000000 0.000000 0.000000 0.060703 0.000000
# 6 0.000000 0.000000 0.000000 0.000000 0.000000 0.052421
#
#
# Mechanical properties :
#
#
# Convention : Reuss Voigt Hill
#
# Bulk Modulus (GPa) = 5.46835 57.60004 31.53420
# Shear Modulus (GPa) = 7.75644 19.01749 13.38697
#
# Velocity S-wave (km/s) = 2.12369 3.32535 2.78998
# Velocity P-wave (km/s) = 3.03201 6.94523 5.35860
#
# Compressibility (1/GPa) = 0.18287036
#
# Stress axis : x y z
#
# Youngs Moduli (GPa) = 70.44887 4.31757 30.34463
#
# Poissons Ratio (x) = 0.01729 0.46602
# Poissons Ratio (y) = 0.28217 0.86733
# Poissons Ratio (z) = 1.08192 0.12341
#
# Static dielectric constant tensor:
#      x y z
#    x 1.596760 0.000000 0.000000 
#    y 0.000000 1.604180 0.000000 
#    z 0.000000 0.000000 1.570440 
# 
# From -- ./inp_files/56684.got.cif
#   From: 2010.05.17/outbox.cif.g08.bks.cpg/sg71_29_cif.got.tgz:56684.got - 2010.06.03 16:22:01.
