data_PCOD9524800
_publ_section_title
;
Structure prediction by ZEFSAII (Michael W. Deem and Ramdas Pophale) SiO2 
 PCOD9524800
Probable space group: I M M M
;
_chemical_formula_sum "Si O2"
_cell_formula_units_Z 36
_cell_length_a 18.000000
_cell_length_b 12.000000
_cell_length_c 18.000000
_cell_angle_alpha 90.000000
_cell_angle_beta 90.000000
_cell_angle_gamma 90.000000
_cell_volume 3888.000000
_symmetry_space_group_name_H-M "I M M M"
_symmetry_group_IT_number 71
_symmetry_cell_setting 'orthorhombic'
loop_
_space_group_symop_operation_xyz
x,y,z
-x,-y,z
x,-y,-z
-x,y,-z
-x,-y,-z
x,y,-z
-x,y,z
x,-y,z
1/2+x,1/2+y,1/2+z
1/2-x,1/2-y,1/2+z
1/2+x,1/2-y,1/2-z
1/2-x,1/2+y,1/2-z
1/2-x,1/2-y,1/2-z
1/2+x,1/2+y,1/2-z
1/2-x,1/2+y,1/2+z
1/2+x,1/2-y,1/2+z
loop_
_atom_site_type_symbol
_atom_site_label
_atom_site_fract_x
_atom_site_fract_y
_atom_site_fract_z
Si Si1 0.588133 0.623164 0.776656
Si Si2 0.089160 0.500000 0.089070
Si Si3 0.087174 0.728567 0.413310
Si Si4 0.279524 0.878686 0.160464
Si Si5 0.170122 0.693677 0.820175
O O1 0.500000 0.618356 0.767584
O O2 0.619441 0.500000 0.764447
O O3 0.602076 0.665167 0.860504
O O4 0.618139 0.715513 0.720573
O O5 0.126843 0.392523 0.128194
O O6 0.000000 0.500000 0.102242
O O7 0.101173 0.500000 0.000000
O O8 0.101195 0.748238 0.500000
O O9 0.141499 0.635956 0.379848
O O10 0.000000 0.699623 0.404499
O O11 0.229990 0.772053 0.138853
O O12 0.291617 0.867881 0.249666
O O13 0.248256 0.000000 0.142183
#
# Coordination Sequence:
#
# PCOD9524800 Si02
#       5
#    16   8  16  16  16
#     4   9  17  31  55  84 110 143 185 231 284 338
#     4  11  24  42  64  88 116 154 196 243 298 348
#     4   9  19  34  50  77 117 156 194 233 276 336
#     4  10  20  35  57  84 112 153 190 236 292 346
#     4  10  20  37  58  83 115 143 189 242 290 344
#
# _framework density 9.2592590000000001
#
# number of rings (size 3 to 8) (size 9 to 14) (size 15 to 20)
#    0.000    2.333    1.111    1.333    0.000    3.111 
#    2.000    3.333    0.000    2.000    0.000    7.778 
#    0.000    0.000    0.000    0.000    0.000    0.000 
#
# Total GULP energy -200662.632629 kJ/mol
# GULP energy per Si atom -5573.962017 kJ/mol
# Density = 0.923818 g / cm^3
# Si number density = 9.259259 Si / 1000 Ang^3
#
#
#
# Elastic Constant Matrix: (Units=GPa)
#
#
# Indices 1 2 3 4 5 6 
#
# 1 76.3862 62.1878 44.7152 0.0000 0.0000 0.0000
# 2 62.1878 149.8736 54.3425 0.0000 0.0000 0.0000
# 3 44.7152 54.3425 87.7506 0.0000 0.0000 0.0000
# 4 0.0000 0.0000 0.0000 9.8455 0.0000 0.0000
# 5 0.0000 0.0000 0.0000 0.0000 25.6618 0.0000
# 6 0.0000 0.0000 0.0000 0.0000 0.0000 26.6910
#
#
#
# Elastic Compliance Matrix: (Units=1/GPa)
#
#
# Indices 1 2 3 4 5 6 
#
# 1 0.023062 -0.006845 -0.007513 0.000000 0.000000 0.000000
# 2 -0.006845 0.010636 -0.003099 0.000000 0.000000 0.000000
# 3 -0.007513 -0.003099 0.017143 0.000000 0.000000 0.000000
# 4 0.000000 0.000000 0.000000 0.101569 0.000000 0.000000
# 5 0.000000 0.000000 0.000000 0.000000 0.038968 0.000000
# 6 0.000000 0.000000 0.000000 0.000000 0.000000 0.037466
#
#
# Mechanical properties :
#
#
# Convention : Reuss Voigt Hill
#
# Bulk Modulus (GPa) = 62.78152 70.72240 66.75196
# Shear Modulus (GPa) = 18.58275 22.62398 20.60336
#
# Velocity S-wave (km/s) = 3.17119 3.49907 3.33916
# Velocity P-wave (km/s) = 6.88362 7.38902 7.14079
#
# Compressibility (1/GPa) = 0.01592825
#
# Stress axis : x y z
#
# Youngs Moduli (GPa) = 43.36133 94.01887 58.33254
#
# Poissons Ratio (x) = 0.64358 0.43823
# Poissons Ratio (y) = 0.29682 0.18075
# Poissons Ratio (z) = 0.32576 0.29133
#
# Static dielectric constant tensor:
#      x y z
#    x 1.692980 0.000000 0.000000 
#    y 0.000000 1.648590 0.000000 
#    z 0.000000 0.000000 1.600920 
# 
# From -- ./inp_files/23485.got.cif
#   From: 2010.05.17/outbox.ucp.g08.bks.cvg/sg71_12_cif.got.tgz:23485.got - 2010.06.11 16:29:00.
