data_PCOD9524183
_publ_section_title
;
Structure prediction by ZEFSAII (Michael W. Deem and Ramdas Pophale) SiO2 
 PCOD9524183
Probable space group: I M M M
;
_chemical_formula_sum "Si O2"
_cell_formula_units_Z 56
_cell_length_a 8.811274
_cell_length_b 15.554594
_cell_length_c 19.362570
_cell_angle_alpha 90.000000
_cell_angle_beta 90.000000
_cell_angle_gamma 90.000000
_cell_volume 2653.752322
_symmetry_space_group_name_H-M "I M M M"
_symmetry_group_IT_number 71
_symmetry_cell_setting 'orthorhombic'
loop_
_space_group_symop_operation_xyz
x,y,z
-x,-y,z
x,-y,-z
-x,y,-z
-x,-y,-z
x,y,-z
-x,y,z
x,-y,z
1/2+x,1/2+y,1/2+z
1/2-x,1/2-y,1/2+z
1/2+x,1/2-y,1/2-z
1/2-x,1/2+y,1/2-z
1/2-x,1/2-y,1/2-z
1/2+x,1/2+y,1/2-z
1/2-x,1/2+y,1/2+z
1/2+x,1/2-y,1/2+z
loop_
_atom_site_type_symbol
_atom_site_label
_atom_site_fract_x
_atom_site_fract_y
_atom_site_fract_z
Si Si1 0.826624 0.398627 0.000000
Si Si2 0.819065 0.818117 0.920419
Si Si3 0.680221 0.341722 0.857691
Si Si4 0.324965 0.000000 0.112772
Si Si5 0.674859 0.000000 0.278140
O O1 0.733787 0.375996 0.067936
O O2 0.843415 0.500000 0.000000
O O3 0.000000 0.362525 0.000000
O O4 0.747583 0.754833 0.862749
O O5 0.000000 0.817113 0.912962
O O6 0.756829 0.913913 0.912008
O O7 0.781737 0.791028 0.000000
O O8 0.500000 0.338082 0.850475
O O9 0.747141 0.412403 0.805308
O O10 0.322507 0.000000 0.195797
O O11 0.500000 0.000000 0.089811
O O12 0.500000 0.000000 0.303151
#
# Coordination Sequence:
#
# PCOD9524183 Si02
#       5
#     8  16  16   8   8
#     4  11  21  35  59  90 130 171 206 256 322 385
#     4  11  24  43  69  97 129 169 212 263 326 386
#     4  12  24  38  64  98 130 166 213 267 316 376
#     4  11  26  46  68  93 126 169 220 272 318 374
#     4  11  25  45  65  91 132 177 213 258 323 390
#
# _framework density 21.102197
#
# number of rings (size 3 to 8) (size 9 to 14) (size 15 to 20)
#    0.000    0.714    2.857    5.143    0.000    7.429 
#    0.000    0.000    0.000    0.000    0.000    0.000 
#    0.000    0.000    0.000    0.000    0.000    0.000 
#
# Total GULP energy -156559.677809 kJ/mol
# GULP energy per Si atom -5591.417065 kJ/mol
# Density = 2.105417 g / cm^3
# Si number density = 21.102197 Si / 1000 Ang^3
#
#
#
# Elastic Constant Matrix: (Units=GPa)
#
#
# Indices 1 2 3 4 5 6 
#
# 1 169.3222 74.0087 27.3491 0.0000 0.0000 0.0000
# 2 74.0087 170.0012 19.2486 0.0000 0.0000 0.0000
# 3 27.3491 19.2486 52.3097 0.0000 0.0000 0.0000
# 4 0.0000 0.0000 0.0000 31.7115 0.0000 0.0000
# 5 0.0000 0.0000 0.0000 0.0000 14.4165 0.0000
# 6 0.0000 0.0000 0.0000 0.0000 0.0000 43.0487
#
#
#
# Elastic Compliance Matrix: (Units=1/GPa)
#
#
# Indices 1 2 3 4 5 6 
#
# 1 0.007697 -0.003021 -0.002912 0.000000 0.000000 0.000000
# 2 -0.003021 0.007324 -0.001116 0.000000 0.000000 0.000000
# 3 -0.002912 -0.001116 0.021050 0.000000 0.000000 0.000000
# 4 0.000000 0.000000 0.000000 0.031534 0.000000 0.000000
# 5 0.000000 0.000000 0.000000 0.000000 0.069365 0.000000
# 6 0.000000 0.000000 0.000000 0.000000 0.000000 0.023230
#
#
# Mechanical properties :
#
#
# Convention : Reuss Voigt Hill
#
# Bulk Modulus (GPa) = 45.51085 70.31620 57.91353
# Shear Modulus (GPa) = 27.52978 35.90379 31.71679
#
# Velocity S-wave (km/s) = 3.61583 4.12931 3.88107
# Velocity P-wave (km/s) = 6.24868 7.49193 6.89837
#
# Compressibility (1/GPa) = 0.02197278
#
# Stress axis : x y z
#
# Youngs Moduli (GPa) = 129.92507 136.54183 47.50570
#
# Poissons Ratio (x) = 0.41249 0.13836
# Poissons Ratio (y) = 0.39250 0.05299
# Poissons Ratio (z) = 0.37840 0.15231
#
# Static dielectric constant tensor:
#      x y z
#    x 1.712120 0.000000 0.000000 
#    y 0.000000 1.810890 0.000000 
#    z 0.000000 0.000000 1.718430 
# 
# From -- ./inp_files/49843.got.cif
#   From: 2010.05.17/outbox.cif.g08.bks.cpg/sg71_25_cif.got.tgz:49843.got - 2010.06.03 16:22:01.
