data_PCOD9524211
_publ_section_title
;
Structure prediction by ZEFSAII (Michael W. Deem and Ramdas Pophale) SiO2 
 PCOD9524211
Probable space group: I M M M
;
_chemical_formula_sum "Si O2"
_cell_formula_units_Z 64
_cell_length_a 13.852863
_cell_length_b 27.699666
_cell_length_c 8.475335
_cell_angle_alpha 90.000000
_cell_angle_beta 90.000000
_cell_angle_gamma 90.000000
_cell_volume 3252.152819
_symmetry_space_group_name_H-M "I M M M"
_symmetry_group_IT_number 71
_symmetry_cell_setting 'orthorhombic'
loop_
_space_group_symop_operation_xyz
x,y,z
-x,-y,z
x,-y,-z
-x,y,-z
-x,-y,-z
x,y,-z
-x,y,z
x,-y,z
1/2+x,1/2+y,1/2+z
1/2-x,1/2-y,1/2+z
1/2+x,1/2-y,1/2-z
1/2-x,1/2+y,1/2-z
1/2-x,1/2-y,1/2-z
1/2+x,1/2+y,1/2-z
1/2-x,1/2+y,1/2+z
1/2+x,1/2-y,1/2+z
loop_
_atom_site_type_symbol
_atom_site_label
_atom_site_fract_x
_atom_site_fract_y
_atom_site_fract_z
Si Si1 0.213756 0.555032 0.311359
Si Si2 0.000000 0.582512 0.190332
Si Si3 0.651318 0.270726 0.689262
Si Si4 0.500000 0.191781 0.690694
Si Si5 0.890158 0.121775 0.688990
O O1 0.208441 0.560116 0.500000
O O2 0.242382 0.500000 0.271635
O O3 0.104061 0.562311 0.246745
O O4 0.298334 0.590946 0.251276
O O5 0.000000 0.637821 0.249765
O O6 0.000000 0.579708 0.000000
O O7 0.646928 0.275845 0.500000
O O8 0.750000 0.250000 0.750000
O O9 0.586023 0.225834 0.738423
O O10 0.623925 0.322392 0.760783
O O11 0.500000 0.187620 0.500000
O O12 0.888006 0.118702 0.500000
O O13 0.000000 0.106927 0.741172
#
# Coordination Sequence:
#
# PCOD9524211 Si02
#       5
#    16   8  16   8  16
#     4  11  25  44  66  93 126 168 218 270 329 394
#     4  11  22  40  67  98 132 167 211 266 323 384
#     4  11  21  37  60  88 124 166 209 253 306 371
#     4   9  20  36  56  85 121 159 198 240 295 363
#     4  11  24  42  64  93 129 168 216 270 325 387
#
# _framework density 19.679271
#
# number of rings (size 3 to 8) (size 9 to 14) (size 15 to 20)
#    0.000    1.250    1.250    4.500    0.000    7.500 
#    0.000    6.250    0.000    0.000    0.000    0.000 
#    0.000    0.000    0.000    0.000    0.000    0.000 
#
# Total GULP energy -178409.994949 kJ/mol
# GULP energy per Si atom -5575.312342 kJ/mol
# Density = 1.963448 g / cm^3
# Si number density = 19.679271 Si / 1000 Ang^3
#
#
#
# Elastic Constant Matrix: (Units=GPa)
#
#
# Indices 1 2 3 4 5 6 
#
# 1 144.4994 39.8338 29.0389 -0.0002 -0.0001 0.0000
# 2 39.8338 116.3463 26.1370 -0.0004 0.0001 -0.0001
# 3 29.0389 26.1370 49.0719 -0.0041 0.0024 -0.0002
# 4 -0.0002 -0.0004 -0.0041 28.7430 0.0008 -0.0002
# 5 -0.0001 0.0001 0.0024 0.0008 23.6388 0.0002
# 6 0.0000 -0.0001 -0.0002 -0.0002 0.0002 48.1548
#
#
#
# Elastic Compliance Matrix: (Units=1/GPa)
#
#
# Indices 1 2 3 4 5 6 
#
# 1 0.008229 -0.001958 -0.003827 -0.000001 0.000000 0.000000
# 2 -0.001958 0.010229 -0.004290 0.000000 0.000000 0.000000
# 3 -0.003827 -0.004290 0.024928 0.000003 -0.000003 0.000000
# 4 -0.000001 0.000000 0.000003 0.034791 -0.000001 0.000000
# 5 0.000000 0.000000 -0.000003 -0.000001 0.042303 0.000000
# 6 0.000000 0.000000 0.000000 0.000000 0.000000 0.020766
#
#
# Mechanical properties :
#
#
# Convention : Reuss Voigt Hill
#
# Bulk Modulus (GPa) = 43.03473 55.54857 49.29165
# Shear Modulus (GPa) = 29.56108 34.43451 31.99779
#
# Velocity S-wave (km/s) = 3.87995 4.18758 4.03670
# Velocity P-wave (km/s) = 6.47978 7.18814 6.84313
#
# Compressibility (1/GPa) = 0.02323705
#
# Stress axis : x y z
#
# Youngs Moduli (GPa) = 121.51833 97.76149 40.11594
#
# Poissons Ratio (x) = 0.19139 0.15352
# Poissons Ratio (y) = 0.23790 0.17209
# Poissons Ratio (z) = 0.46505 0.41937
#
# Static dielectric constant tensor:
#      x y z
#    x 1.677880 0.000000 0.000000 
#    y 0.000000 1.669210 0.000000 
#    z 0.000000 0.000000 1.670400 
# 
# From -- ./inp_files/3775.got.cif
#   From: 2010.05.17/outbox.cif.g08.bks.cpg/sg71_2_cif.got.tgz:3775.got - 2010.06.03 16:22:01.
