data_PCOD9524634
_publ_section_title
;
Structure prediction by ZEFSAII (Michael W. Deem and Ramdas Pophale) SiO2 
 PCOD9524634
Probable space group: I M M M
;
_chemical_formula_sum "Si O2"
_cell_formula_units_Z 88
_cell_length_a 34.854002
_cell_length_b 9.424620
_cell_length_c 23.172995
_cell_angle_alpha 90.000000
_cell_angle_beta 90.000000
_cell_angle_gamma 90.000000
_cell_volume 7611.998047
_symmetry_space_group_name_H-M "I M M M"
_symmetry_group_IT_number 71
_symmetry_cell_setting 'orthorhombic'
loop_
_space_group_symop_operation_xyz
x,y,z
-x,-y,z
x,-y,-z
-x,y,-z
-x,-y,-z
x,y,-z
-x,y,z
x,-y,z
1/2+x,1/2+y,1/2+z
1/2-x,1/2-y,1/2+z
1/2+x,1/2-y,1/2-z
1/2-x,1/2+y,1/2-z
1/2-x,1/2-y,1/2-z
1/2+x,1/2+y,1/2-z
1/2-x,1/2+y,1/2+z
1/2+x,1/2-y,1/2+z
loop_
_atom_site_type_symbol
_atom_site_label
_atom_site_fract_x
_atom_site_fract_y
_atom_site_fract_z
Si Si1 0.000000 0.336759 0.929849
Si Si2 0.232426 0.831437 0.067558
Si Si3 0.690815 0.836504 0.263803
Si Si4 0.228257 0.163471 0.666069
Si Si5 0.423945 0.668951 0.431835
Si Si6 0.653777 0.668734 0.364413
O O1 0.961369 0.255025 0.912488
O O2 0.000000 0.500000 0.911043
O O3 0.000000 0.334971 0.000000
O O4 0.261518 0.742195 0.106720
O O5 0.189556 0.805147 0.092284
O O6 0.239714 0.000000 0.074884
O O7 0.234326 0.797272 0.000000
O O8 0.731664 0.836365 0.297861
O O9 0.698435 0.750162 0.205263
O O10 0.661833 0.757343 0.306784
O O11 0.680435 0.000000 0.253279
O O12 0.216939 0.000000 0.657987
O O13 0.417139 0.697601 0.500000
O O14 0.431058 0.500000 0.426630
O O15 0.385982 0.704146 0.395745
O O16 0.654113 0.500000 0.351538
#
# Coordination Sequence:
#
# PCOD9524634 Si02
#       6
#     8  16  16  16  16  16
#     4   9  17  27  37  49  65  85 109 137 168 201
#     4   9  16  25  36  50  68  88 109 135 169 206
#     4   9  16  25  36  49  64  83 107 134 166 201
#     4   9  16  25  36  48  63  84 109 136 164 196
#     4   9  16  26  39  52  66  86 111 137 167 205
#     4   9  16  25  37  52  68  85 107 137 171 205
#
# _framework density 11.560696
#
# number of rings (size 3 to 8) (size 9 to 14) (size 15 to 20)
#    0.000    3.000    0.000    1.909    0.000    8.727 
#    0.000    0.000    0.000    3.273    0.000    0.000 
#    0.000    0.000    0.000    0.000    0.000    0.000 
#
# Total GULP energy -244986.066800 kJ/mol
# GULP energy per Si atom -5567.865155 kJ/mol
# Density = 1.153438 g / cm^3
# Si number density = 11.560696 Si / 1000 Ang^3
#
#
#
# Elastic Constant Matrix: (Units=GPa)
#
#
# Indices 1 2 3 4 5 6 
#
# 1 62.2808 50.9418 45.7725 0.0000 0.0000 0.0000
# 2 50.9418 78.4754 59.7785 0.0000 0.0000 0.0000
# 3 45.7725 59.7785 76.6124 0.0000 0.0000 0.0000
# 4 0.0000 0.0000 0.0000 18.3682 0.0000 0.0000
# 5 0.0000 0.0000 0.0000 0.0000 16.3254 0.0000
# 6 0.0000 0.0000 0.0000 0.0000 0.0000 14.1653
#
#
#
# Elastic Compliance Matrix: (Units=1/GPa)
#
#
# Indices 1 2 3 4 5 6 
#
# 1 0.036166 -0.017300 -0.008109 0.000000 0.000000 0.000000
# 2 -0.017300 0.039690 -0.020633 0.000000 0.000000 0.000000
# 3 -0.008109 -0.020633 0.033997 0.000000 0.000000 0.000000
# 4 0.000000 0.000000 0.000000 0.054442 0.000000 0.000000
# 5 0.000000 0.000000 0.000000 0.000000 0.061254 0.000000
# 6 0.000000 0.000000 0.000000 0.000000 0.000000 0.070595
#
#
# Mechanical properties :
#
#
# Convention : Reuss Voigt Hill
#
# Bulk Modulus (GPa) = 56.27761 58.92823 57.60292
# Shear Modulus (GPa) = 12.68543 13.83016 13.25780
#
# Velocity S-wave (km/s) = 3.31613 3.46252 3.39012
# Velocity P-wave (km/s) = 7.96543 8.18957 8.07828
#
# Compressibility (1/GPa) = 0.01776905
#
# Stress axis : x y z
#
# Youngs Moduli (GPa) = 27.65001 25.19496 29.41439
#
# Poissons Ratio (x) = 0.43588 0.23852
# Poissons Ratio (y) = 0.47835 0.60691
# Poissons Ratio (z) = 0.22421 0.51985
#
# Static dielectric constant tensor:
#      x y z
#    x 1.348470 0.000000 0.000000 
#    y 0.000000 1.388920 0.000000 
#    z 0.000000 0.000000 1.356400 
# 
# From -- ./inp_files/11393.got.cif
#   From: 2010.05.17/outbox.cif.g08.bks.cpg/sg71_6_cif.got.tgz:11393.got - 2010.06.03 16:22:01.
