data_PCOD9524807
_publ_section_title
;
Structure prediction by ZEFSAII (Michael W. Deem and Ramdas Pophale) SiO2 
 PCOD9524807
Probable space group: I M M M
;
_chemical_formula_sum "Si O2"
_cell_formula_units_Z 52
_cell_length_a 24.000000
_cell_length_b 9.000000
_cell_length_c 27.000000
_cell_angle_alpha 90.000000
_cell_angle_beta 90.000000
_cell_angle_gamma 90.000000
_cell_volume 5832.000000
_symmetry_space_group_name_H-M "I M M M"
_symmetry_group_IT_number 71
_symmetry_cell_setting 'orthorhombic'
loop_
_space_group_symop_operation_xyz
x,y,z
-x,-y,z
x,-y,-z
-x,y,-z
-x,-y,-z
x,y,-z
-x,y,z
x,-y,z
1/2+x,1/2+y,1/2+z
1/2-x,1/2-y,1/2+z
1/2+x,1/2-y,1/2-z
1/2-x,1/2+y,1/2-z
1/2-x,1/2-y,1/2-z
1/2+x,1/2+y,1/2-z
1/2-x,1/2+y,1/2+z
1/2+x,1/2-y,1/2+z
loop_
_atom_site_type_symbol
_atom_site_label
_atom_site_fract_x
_atom_site_fract_y
_atom_site_fract_z
Si Si1 0.129053 0.177929 0.293155
Si Si2 0.163920 0.820330 0.557286
Si Si3 0.435931 0.319605 0.500000
Si Si4 0.435289 0.178278 0.118192
Si Si5 0.567235 0.325409 0.607489
Si Si6 0.858495 0.677558 0.187103
Si Si7 0.739686 0.678734 0.145544
O O1 0.084171 0.252945 0.329426
O O2 0.128203 0.243572 0.238630
O O3 0.189936 0.212460 0.316264
O O4 0.121837 0.000000 0.293419
O O5 0.172423 0.784132 0.500000
O O6 0.107719 0.747262 0.578652
O O7 0.215318 0.771827 0.592452
O O8 0.158587 0.000000 0.562088
O O9 0.438082 0.500000 0.500000
O O10 0.500000 0.266851 0.500000
O O11 0.411328 0.277880 0.447127
O O12 0.500000 0.213640 0.108022
O O13 0.429317 0.000000 0.119306
O O14 0.500000 0.316014 0.607472
O O15 0.581005 0.500000 0.615532
O O16 0.594428 0.223599 0.648396
O O17 0.856005 0.500000 0.194010
O O18 0.799161 0.732645 0.164806
O O19 0.744548 0.500000 0.142859
#
# Coordination Sequence:
#
# PCOD9524807 Si02
#       7
#    16  16   8  16  16  16  16
#     4  10  20  36  57  76  99 136 180 219 256 306
#     4   9  18  35  58  80 106 143 184 222 258 305
#     4   7  12  28  53  71  87 121 165 205 242 281
#     4  10  21  36  54  79 111 143 175 217 271 322
#     4   9  18  34  54  74  98 132 173 213 253 300
#     4  11  21  33  51  79 110 136 167 211 266 319
#     4   8  17  34  53  76 103 135 173 213 259 308
#
# _framework density 8.9163239999999995
#
# number of rings (size 3 to 8) (size 9 to 14) (size 15 to 20)
#    0.000    2.692    0.000    3.692    0.000    2.769 
#    1.385    8.846    0.000    1.385    0.000    0.000 
#    0.000    0.000    0.000    0.000    0.000    0.000 
#
# Total GULP energy -289812.914394 kJ/mol
# GULP energy per Si atom -5573.325277 kJ/mol
# Density = 0.889603 g / cm^3
# Si number density = 8.916324 Si / 1000 Ang^3
#
#
#
# Elastic Constant Matrix: (Units=GPa)
#
#
# Indices 1 2 3 4 5 6 
#
# 1 -20.3609 -9.5099 -14.1257 0.0000 0.0000 0.0000
# 2 -9.5099 25.1672 16.0022 0.0000 0.0000 0.0000
# 3 -14.1257 16.0022 120.9840 0.0000 0.0000 0.0000
# 4 0.0000 0.0000 0.0000 15.8390 0.0000 0.0000
# 5 0.0000 0.0000 0.0000 0.0000 14.6746 0.0000
# 6 0.0000 0.0000 0.0000 0.0000 0.0000 17.2508
#
#
#
# Elastic Compliance Matrix: (Units=1/GPa)
#
#
# Indices 1 2 3 4 5 6 
#
# 1 -0.040744 -0.013507 -0.002971 0.000000 0.000000 0.000000
# 2 -0.013507 0.038905 -0.006723 0.000000 0.000000 0.000000
# 3 -0.002971 -0.006723 0.008808 0.000000 0.000000 0.000000
# 4 0.000000 0.000000 0.000000 0.063135 0.000000 0.000000
# 5 0.000000 0.000000 0.000000 0.000000 0.068145 0.000000
# 6 0.000000 0.000000 0.000000 0.000000 0.000000 0.057968
#
#
# Mechanical properties :
#
#
# Convention : Reuss Voigt Hill
#
# Bulk Modulus (GPa) = -25.35971 12.28037 -6.53967
# Shear Modulus (GPa) = 21.78892 18.44781 20.11837
#
# Velocity S-wave (km/s) = 3.49930 3.21985 3.36248
# Velocity P-wave (km/s) = 1.44047 4.55243 3.37636
#
# Compressibility (1/GPa) = -0.03943263
#
# Stress axis : x y z
#
# Youngs Moduli (GPa) = -24.54342 25.70364 113.53401
#
# Poissons Ratio (x) = 0.34718 0.33727
# Poissons Ratio (y) = -0.33151 0.76328
# Poissons Ratio (z) = -0.07291 0.17280
#
# Static dielectric constant tensor:
#      x y z
#    x 1.602280 0.000000 0.000000 
#    y 0.000000 1.592210 0.000000 
#    z 0.000000 0.000000 1.622460 
# 
# From -- ./inp_files/66833.got.cif
#   From: 2010.05.17/outbox.ucp.g08.bks.cvg/sg71_34_cif.got.tgz:66833.got - 2010.06.11 16:29:00.
