data_PCOD9524396
_publ_section_title
;
Structure prediction by ZEFSAII (Michael W. Deem and Ramdas Pophale) SiO2 
 PCOD9524396
Probable space group: I M M M
;
_chemical_formula_sum "Si O2"
_cell_formula_units_Z 88
_cell_length_a 18.747223
_cell_length_b 29.306817
_cell_length_c 7.991986
_cell_angle_alpha 90.000000
_cell_angle_beta 90.000000
_cell_angle_gamma 90.000000
_cell_volume 4390.968406
_symmetry_space_group_name_H-M "I M M M"
_symmetry_group_IT_number 71
_symmetry_cell_setting 'orthorhombic'
loop_
_space_group_symop_operation_xyz
x,y,z
-x,-y,z
x,-y,-z
-x,y,-z
-x,-y,-z
x,y,-z
-x,y,z
x,-y,z
1/2+x,1/2+y,1/2+z
1/2-x,1/2-y,1/2+z
1/2+x,1/2-y,1/2-z
1/2-x,1/2+y,1/2-z
1/2-x,1/2-y,1/2-z
1/2+x,1/2+y,1/2-z
1/2-x,1/2+y,1/2+z
1/2+x,1/2-y,1/2+z
loop_
_atom_site_type_symbol
_atom_site_label
_atom_site_fract_x
_atom_site_fract_y
_atom_site_fract_z
Si Si1 0.081330 0.299806 0.301370
Si Si2 0.582246 0.399564 0.703406
Si Si3 0.650896 0.893416 0.805430
Si Si4 0.415185 0.948243 0.500000
Si Si5 0.413442 0.299588 0.693450
Si Si6 0.219382 0.051692 0.301587
O O1 0.074495 0.302667 0.500000
O O2 0.132864 0.341368 0.253698
O O3 0.109242 0.249031 0.264747
O O4 0.000000 0.305190 0.230353
O O5 0.583326 0.398758 0.500000
O O6 0.500000 0.407004 0.753589
O O7 0.606692 0.349010 0.765016
O O8 0.637292 0.436674 0.767128
O O9 0.610293 0.923951 0.669277
O O10 0.731937 0.910647 0.788838
O O11 0.628576 0.899560 0.000000
O O12 0.500000 0.948368 0.500000
O O13 0.388151 0.000000 0.500000
O O14 0.392392 0.299505 0.500000
O O15 0.500000 0.299500 0.702624
O O16 0.232963 0.054660 0.500000
O O17 0.236085 0.000000 0.245531
#
# Coordination Sequence:
#
# PCOD9524396 Si02
#       6
#    16  16  16   8  16  16
#     4   9  18  32  53  84 117 151 195 241 287 349
#     4   9  19  37  60  88 119 150 193 245 298 363
#     4  11  23  40  61  86 121 161 204 250 304 355
#     4  11  24  40  60  88 119 155 203 255 305 357
#     4   8  15  29  52  82 115 151 188 232 290 351
#     4  11  24  41  60  83 113 153 203 253 305 367
#
# _framework density 20.041138
#
# number of rings (size 3 to 8) (size 9 to 14) (size 15 to 20)
#    0.000    2.273    0.909    2.727    1.273    5.091 
#    0.000    5.455    0.000    0.000    0.000    0.000 
#    0.000    0.000    0.000    0.000    0.000    0.000 
#
# Total GULP energy -245300.596355 kJ/mol
# GULP energy per Si atom -5575.013554 kJ/mol
# Density = 1.999552 g / cm^3
# Si number density = 20.041138 Si / 1000 Ang^3
#
#
#
# Elastic Constant Matrix: (Units=GPa)
#
#
# Indices 1 2 3 4 5 6 
#
# 1 62.3927 26.6827 8.0030 0.0000 0.0000 0.0000
# 2 26.6827 65.5772 7.0249 0.0000 0.0000 0.0000
# 3 8.0030 7.0249 52.1993 -0.0005 -0.0002 0.0000
# 4 0.0000 0.0000 -0.0005 23.9958 0.0000 0.0000
# 5 0.0000 0.0000 -0.0002 0.0000 20.9055 0.0000
# 6 0.0000 0.0000 0.0000 0.0000 0.0000 45.0881
#
#
#
# Elastic Compliance Matrix: (Units=1/GPa)
#
#
# Indices 1 2 3 4 5 6 
#
# 1 0.019600 -0.007765 -0.001960 0.000000 0.000000 0.000000
# 2 -0.007765 0.018549 -0.001306 0.000000 0.000000 0.000000
# 3 -0.001960 -0.001306 0.019634 0.000000 0.000000 0.000000
# 4 0.000000 0.000000 0.000000 0.041674 0.000000 0.000000
# 5 0.000000 0.000000 0.000000 0.000000 0.047834 0.000000
# 6 0.000000 0.000000 0.000000 0.000000 0.000000 0.022179
#
#
# Mechanical properties :
#
#
# Convention : Reuss Voigt Hill
#
# Bulk Modulus (GPa) = 27.99515 29.28784 28.64149
# Shear Modulus (GPa) = 24.57764 27.22845 25.90305
#
# Velocity S-wave (km/s) = 3.50574 3.68996 3.59903
# Velocity P-wave (km/s) = 5.51236 5.72712 5.62077
#
# Compressibility (1/GPa) = 0.03572047
#
# Stress axis : x y z
#
# Youngs Moduli (GPa) = 51.02127 53.91248 50.93317
#
# Poissons Ratio (x) = 0.41863 0.09983
# Poissons Ratio (y) = 0.39618 0.06651
# Poissons Ratio (z) = 0.10000 0.07040
#
# Static dielectric constant tensor:
#      x y z
#    x 1.730530 0.000000 0.000000 
#    y 0.000000 1.726190 0.000000 
#    z 0.000000 0.000000 1.719940 
# 
# From -- ./inp_files/10481.got.cif
#   From: 2010.05.17/outbox.cif.g08.bks.cpg/sg71_6_cif.got.tgz:10481.got - 2010.06.03 16:22:01.
