data_PCOD9524067
_publ_section_title
;
Structure prediction by ZEFSAII (Michael W. Deem and Ramdas Pophale) SiO2 
 PCOD9524067
Probable space group: I M M M
;
_chemical_formula_sum "Si O2"
_cell_formula_units_Z 72
_cell_length_a 12.004918
_cell_length_b 24.754440
_cell_length_c 14.516965
_cell_angle_alpha 90.000000
_cell_angle_beta 90.000000
_cell_angle_gamma 90.000000
_cell_volume 4314.079398
_symmetry_space_group_name_H-M "I M M M"
_symmetry_group_IT_number 71
_symmetry_cell_setting 'orthorhombic'
loop_
_space_group_symop_operation_xyz
x,y,z
-x,-y,z
x,-y,-z
-x,y,-z
-x,-y,-z
x,y,-z
-x,y,z
x,-y,z
1/2+x,1/2+y,1/2+z
1/2-x,1/2-y,1/2+z
1/2+x,1/2-y,1/2-z
1/2-x,1/2+y,1/2-z
1/2-x,1/2-y,1/2-z
1/2+x,1/2+y,1/2-z
1/2-x,1/2+y,1/2+z
1/2+x,1/2-y,1/2+z
loop_
_atom_site_type_symbol
_atom_site_label
_atom_site_fract_x
_atom_site_fract_y
_atom_site_fract_z
Si Si1 0.270910 0.301603 0.317505
Si Si2 0.500000 0.257620 0.390263
Si Si3 0.374227 0.207728 0.000000
Si Si4 0.866132 0.000000 0.611568
Si Si5 0.253641 0.108968 0.667519
Si Si6 0.873178 0.836625 0.500000
Si Si7 0.000000 0.368695 0.888745
O O1 0.250000 0.250000 0.250000
O O2 0.392507 0.288839 0.355927
O O3 0.189285 0.305586 0.405251
O O4 0.263871 0.356613 0.259667
O O5 0.500000 0.255470 0.500000
O O6 0.500000 0.194714 0.359087
O O7 0.380092 0.272652 0.000000
O O8 0.500000 0.185934 0.000000
O O9 0.808845 0.947820 0.657210
O O10 0.845105 0.000000 0.500000
O O11 0.000000 0.000000 0.623676
O O12 0.196095 0.144599 0.587691
O O13 0.385502 0.105296 0.646978
O O14 0.000000 0.859187 0.500000
O O15 0.000000 0.370756 0.000000
#
# Coordination Sequence:
#
# PCOD9524067 Si02
#       7
#    16   8   8   8  16   8   8
#     4  12  24  37  59  91 124 163 201 244 299 360
#     4  11  22  38  57  85 128 163 196 245 299 353
#     4  11  24  39  56  90 130 163 201 243 299 366
#     4  11  24  43  63  86 119 157 201 250 298 355
#     4  12  24  38  60  88 122 163 202 244 297 356
#     4  11  20  34  57  89 123 160 203 244 287 352
#     4  11  20  35  58  85 125 157 194 244 293 355
#
# _framework density 16.689540000000001
#
# number of rings (size 3 to 8) (size 9 to 14) (size 15 to 20)
#    0.000    0.556    7.778    0.667    6.222    0.444 
#    0.000    1.111    0.000    0.667    0.000    2.333 
#    0.000    0.000    0.000    0.000    0.000    0.000 
#
# Total GULP energy -201042.448584 kJ/mol
# GULP energy per Si atom -5584.512461 kJ/mol
# Density = 1.665155 g / cm^3
# Si number density = 16.689540 Si / 1000 Ang^3
#
#
#
# Elastic Constant Matrix: (Units=GPa)
#
#
# Indices 1 2 3 4 5 6 
#
# 1 171.5742 52.8384 65.6648 0.0000 0.0000 0.0000
# 2 52.8384 111.3801 54.6176 0.0000 0.0001 0.0000
# 3 65.6648 54.6176 118.1696 0.0000 0.0002 0.0000
# 4 0.0000 0.0000 0.0000 25.4513 0.0001 0.0000
# 5 0.0000 0.0001 0.0002 0.0001 -11.0515 0.0000
# 6 0.0000 0.0000 0.0000 0.0000 0.0000 23.6231
#
#
#
# Elastic Compliance Matrix: (Units=1/GPa)
#
#
# Indices 1 2 3 4 5 6 
#
# 1 0.007739 -0.002021 -0.003367 0.000000 0.000000 0.000000
# 2 -0.002021 0.012137 -0.004487 0.000000 0.000000 0.000000
# 3 -0.003367 -0.004487 0.012407 0.000000 0.000000 0.000000
# 4 0.000000 0.000000 0.000000 0.039291 0.000000 0.000000
# 5 0.000000 0.000000 0.000000 0.000000 -0.090485 0.000000
# 6 0.000000 0.000000 0.000000 0.000000 0.000000 0.042331
#
#
# Mechanical properties :
#
#
# Convention : Reuss Voigt Hill
#
# Bulk Modulus (GPa) = 79.77630 83.04062 81.40846
# Shear Modulus (GPa) = 105.60386 22.80477 64.20431
#
# Velocity S-wave (km/s) = 7.96322 3.70051 6.20913
# Velocity P-wave (km/s) = 11.50888 8.25363 10.01441
#
# Compressibility (1/GPa) = 0.01253505
#
# Stress axis : x y z
#
# Youngs Moduli (GPa) = 129.21418 82.39221 80.59943
#
# Poissons Ratio (x) = 0.16647 0.27135
# Poissons Ratio (y) = 0.26108 0.36165
# Poissons Ratio (z) = 0.43501 0.36969
#
# Static dielectric constant tensor:
#      x y z
#    x 1.581670 0.000000 0.000000 
#    y 0.000000 1.555970 0.000000 
#    z 0.000000 0.000000 1.997410 
# 
# From -- ./inp_files/19922.got.cif
#   From: 2010.05.17/outbox.cif.g08.bks.cpg/sg71_10_cif.got.tgz:19922.got - 2010.06.03 16:22:01.
