data_PCOD9524739
_publ_section_title
;
Structure prediction by ZEFSAII (Michael W. Deem and Ramdas Pophale) SiO2 
 PCOD9524739
Probable space group: I M M M
;
_chemical_formula_sum "Si O2"
_cell_formula_units_Z 44
_cell_length_a 18.000000
_cell_length_b 18.000000
_cell_length_c 15.000000
_cell_angle_alpha 90.000000
_cell_angle_beta 90.000000
_cell_angle_gamma 90.000000
_cell_volume 4860.000000
_symmetry_space_group_name_H-M "I M M M"
_symmetry_group_IT_number 71
_symmetry_cell_setting 'orthorhombic'
loop_
_space_group_symop_operation_xyz
x,y,z
-x,-y,z
x,-y,-z
-x,y,-z
-x,-y,-z
x,y,-z
-x,y,z
x,-y,z
1/2+x,1/2+y,1/2+z
1/2-x,1/2-y,1/2+z
1/2+x,1/2-y,1/2-z
1/2-x,1/2+y,1/2-z
1/2-x,1/2-y,1/2-z
1/2+x,1/2+y,1/2-z
1/2-x,1/2+y,1/2+z
1/2+x,1/2-y,1/2+z
loop_
_atom_site_type_symbol
_atom_site_label
_atom_site_fract_x
_atom_site_fract_y
_atom_site_fract_z
Si Si1 0.415033 0.383286 0.102305
Si Si2 0.127708 0.713396 0.401029
Si Si3 0.135744 0.349080 0.788487
Si Si4 0.000000 0.587910 0.899212
Si Si5 0.805770 0.209275 0.896225
Si Si6 0.795467 0.083933 0.753736
O O1 0.500000 0.406072 0.121125
O O2 0.410232 0.293589 0.104409
O O3 0.355929 0.409831 0.174905
O O4 0.396806 0.405555 0.000000
O O5 0.111789 0.681412 0.500000
O O6 0.109476 0.666697 0.312993
O O7 0.217034 0.725802 0.395839
O O8 0.153370 0.273008 0.840752
O O9 0.214676 0.390864 0.781934
O O10 0.072787 0.388953 0.844808
O O11 0.000000 0.500000 0.906363
O O12 0.000000 0.619731 0.000000
O O13 0.815745 0.135806 0.837217
O O14 0.828482 0.204424 0.000000
O O15 0.790552 0.000000 0.784451
#
# Coordination Sequence:
#
# PCOD9524739 Si02
#       6
#    16  16  16   8  16  16
#     4  10  20  34  54  83 114 141 177 226 281 336
#     4   9  17  32  57  88 115 140 181 235 280 328
#     4  11  20  38  61  84 110 149 196 234 279 337
#     4  11  26  42  57  85 120 150 186 241 295 335
#     4  10  19  35  59  85 112 146 194 241 276 328
#     4  11  22  37  57  82 114 152 187 227 286 345
#
# _framework density 9.0534979999999994
#
# number of rings (size 3 to 8) (size 9 to 14) (size 15 to 20)
#    0.000    1.727    3.636    2.182    1.273    1.818 
#    0.000    0.909    0.000    2.182    0.000    1.273 
#    0.000    0.000    0.000    0.000    0.000    0.000 
#
# Total GULP energy -245512.576192 kJ/mol
# GULP energy per Si atom -5579.831277 kJ/mol
# Density = 0.903289 g / cm^3
# Si number density = 9.053498 Si / 1000 Ang^3
#
#
#
# Elastic Constant Matrix: (Units=GPa)
#
#
# Indices 1 2 3 4 5 6 
#
# 1 58.2847 39.9443 54.7645 0.0000 0.0000 0.0000
# 2 39.9443 99.5874 43.8669 0.0000 0.0000 0.0000
# 3 54.7645 43.8669 144.2707 0.0000 0.0000 0.0000
# 4 0.0000 0.0000 0.0000 13.6814 0.0000 0.0000
# 5 0.0000 0.0000 0.0000 0.0000 -69.0743 0.0000
# 6 0.0000 0.0000 0.0000 0.0000 0.0000 -9.0739
#
#
#
# Elastic Compliance Matrix: (Units=1/GPa)
#
#
# Indices 1 2 3 4 5 6 
#
# 1 0.032045 -0.008654 -0.009533 0.000000 0.000000 0.000000
# 2 -0.008654 0.013931 -0.000951 0.000000 0.000000 0.000000
# 3 -0.009533 -0.000951 0.010839 0.000000 0.000000 0.000000
# 4 0.000000 0.000000 0.000000 0.073092 0.000000 0.000000
# 5 0.000000 0.000000 0.000000 0.000000 -0.014477 0.000000
# 6 0.000000 0.000000 0.000000 0.000000 0.000000 -0.110206
#
#
# Mechanical properties :
#
#
# Convention : Reuss Voigt Hill
#
# Bulk Modulus (GPa) = 53.93744 64.36602 59.15173
# Shear Modulus (GPa) = 100.64372 -1.98889 49.32742
#
# Velocity S-wave (km/s) = 7.46347 -1.04919 5.22507
# Velocity P-wave (km/s) = 10.20412 5.84440 8.31508
#
# Compressibility (1/GPa) = 0.01854000
#
# Stress axis : x y z
#
# Youngs Moduli (GPa) = 31.20593 71.77997 92.25802
#
# Poissons Ratio (x) = 0.62120 0.87948
# Poissons Ratio (y) = 0.27006 0.08773
# Poissons Ratio (z) = 0.29748 0.06826
#
# Static dielectric constant tensor:
#      x y z
#    x 1.604110 0.000000 0.000000 
#    y 0.000000 1.619110 0.000000 
#    z 0.000000 0.000000 1.617880 
# 
# From -- ./inp_files/36379.got.cif
#   From: 2010.05.17/outbox.ucp.g08.bks.cvg/sg71_19_cif.got.tgz:36379.got - 2010.06.11 16:29:00.
