data_PCOD9524255
_publ_section_title
;
Structure prediction by ZEFSAII (Michael W. Deem and Ramdas Pophale) SiO2 
 PCOD9524255
Probable space group: I M M M
;
_chemical_formula_sum "Si O2"
_cell_formula_units_Z 96
_cell_length_a 7.925249
_cell_length_b 21.187453
_cell_length_c 28.704024
_cell_angle_alpha 90.000000
_cell_angle_beta 90.000000
_cell_angle_gamma 90.000000
_cell_volume 4819.860321
_symmetry_space_group_name_H-M "I M M M"
_symmetry_group_IT_number 71
_symmetry_cell_setting 'orthorhombic'
loop_
_space_group_symop_operation_xyz
x,y,z
-x,-y,z
x,-y,-z
-x,y,-z
-x,-y,-z
x,y,-z
-x,y,z
x,-y,z
1/2+x,1/2+y,1/2+z
1/2-x,1/2-y,1/2+z
1/2+x,1/2-y,1/2-z
1/2-x,1/2+y,1/2-z
1/2-x,1/2-y,1/2-z
1/2+x,1/2+y,1/2-z
1/2-x,1/2+y,1/2+z
1/2+x,1/2-y,1/2+z
loop_
_atom_site_type_symbol
_atom_site_label
_atom_site_fract_x
_atom_site_fract_y
_atom_site_fract_z
Si Si1 0.206979 0.193788 0.446548
Si Si2 0.294304 0.571064 0.109082
Si Si3 0.703605 0.571638 0.447045
Si Si4 0.206283 0.928880 0.716559
Si Si5 0.199701 0.187018 0.777187
Si Si6 0.800198 0.689198 0.384647
O O1 0.260299 0.200752 0.500000
O O2 0.261581 0.127347 0.424255
O O3 0.267410 0.251883 0.414777
O O4 0.000000 0.194123 0.446288
O O5 0.500000 0.570794 0.108202
O O6 0.239472 0.500000 0.096367
O O7 0.245119 0.583443 0.162814
O O8 0.760403 0.586804 0.500000
O O9 0.500000 0.570980 0.447507
O O10 0.759750 0.500000 0.436056
O O11 0.758620 0.624201 0.410767
O O12 0.270266 0.874803 0.750912
O O13 0.000000 0.928810 0.717251
O O14 0.259621 0.000000 0.729107
O O15 0.250000 0.250000 0.750000
O O16 0.243329 0.189751 0.831396
O O17 0.000000 0.182074 0.773772
O O18 0.000000 0.696428 0.383948
#
# Coordination Sequence:
#
# PCOD9524255 Si02
#       6
#    16  16  16  16  16  16
#     4   9  17  28  43  67 100 134 166 204 252 303
#     4   8  13  23  41  65  94 127 161 198 243 297
#     4   9  19  37  59  81 107 141 181 225 273 326
#     4   8  15  29  49  72  98 130 166 204 253 314
#     4  11  22  36  55  78 105 139 179 224 272 323
#     4  11  22  35  52  76 107 142 179 221 269 321
#
# _framework density 19.917591000000002
#
# number of rings (size 3 to 8) (size 9 to 14) (size 15 to 20)
#    0.000    2.667    0.000    4.000    0.000    5.000 
#    0.000    4.167    0.000    1.500    0.000    0.000 
#    0.000    2.000    0.000   13.500    0.000   12.667 
#
# Total GULP energy -267882.455460 kJ/mol
# GULP energy per Si atom -5580.884489 kJ/mol
# Density = 1.987226 g / cm^3
# Si number density = 19.917591 Si / 1000 Ang^3
#
#
#
# Elastic Constant Matrix: (Units=GPa)
#
#
# Indices 1 2 3 4 5 6 
#
# 1 18.2718 -1.3497 -2.0419 0.0000 0.0000 0.0000
# 2 -1.3497 116.4865 68.9620 0.0000 0.0000 0.0000
# 3 -2.0419 68.9620 101.4489 0.0000 0.0000 0.0000
# 4 0.0000 0.0000 0.0000 38.8782 0.0000 0.0000
# 5 0.0000 0.0000 0.0000 0.0000 19.6740 0.0000
# 6 0.0000 0.0000 0.0000 0.0000 0.0000 16.4954
#
#
#
# Elastic Compliance Matrix: (Units=1/GPa)
#
#
# Indices 1 2 3 4 5 6 
#
# 1 0.054852 -0.000030 0.001125 0.000000 0.000000 0.000000
# 2 -0.000030 0.014366 -0.009766 0.000000 0.000000 0.000000
# 3 0.001125 -0.009766 0.016519 0.000000 0.000000 0.000000
# 4 0.000000 0.000000 0.000000 0.025721 0.000000 0.000000
# 5 0.000000 0.000000 0.000000 0.000000 0.050829 0.000000
# 6 0.000000 0.000000 0.000000 0.000000 0.000000 0.060623
#
#
# Mechanical properties :
#
#
# Convention : Reuss Voigt Hill
#
# Bulk Modulus (GPa) = 14.62129 40.81646 27.71888
# Shear Modulus (GPa) = 19.00766 26.38530 22.69648
#
# Velocity S-wave (km/s) = 3.09255 3.64362 3.37934
# Velocity P-wave (km/s) = 4.48427 6.18373 5.40126
#
# Compressibility (1/GPa) = 0.06839340
#
# Stress axis : x y z
#
# Youngs Moduli (GPa) = 18.23072 69.60806 60.53761
#
# Poissons Ratio (x) = 0.00210 -0.06808
# Poissons Ratio (y) = 0.00055 0.59123
# Poissons Ratio (z) = -0.02050 0.67981
#
# Static dielectric constant tensor:
#      x y z
#    x 1.745900 0.000000 0.000000 
#    y 0.000000 1.703990 0.000000 
#    z 0.000000 0.000000 1.659370 
# 
# From -- ./inp_files/14852.got.cif
#   From: 2010.05.17/outbox.cif.g08.bks.cpg/sg71_8_cif.got.tgz:14852.got - 2010.06.03 16:22:01.
