data_PCOD9524282
_publ_section_title
;
Structure prediction by ZEFSAII (Michael W. Deem and Ramdas Pophale) SiO2 
 PCOD9524282
Probable space group: I M M M
;
_chemical_formula_sum "Si O2"
_cell_formula_units_Z 72
_cell_length_a 30.980087
_cell_length_b 8.516402
_cell_length_c 14.803015
_cell_angle_alpha 90.000000
_cell_angle_beta 90.000000
_cell_angle_gamma 90.000000
_cell_volume 3905.610823
_symmetry_space_group_name_H-M "I M M M"
_symmetry_group_IT_number 71
_symmetry_cell_setting 'orthorhombic'
loop_
_space_group_symop_operation_xyz
x,y,z
-x,-y,z
x,-y,-z
-x,y,-z
-x,-y,-z
x,y,-z
-x,y,z
x,-y,z
1/2+x,1/2+y,1/2+z
1/2-x,1/2-y,1/2+z
1/2+x,1/2-y,1/2-z
1/2-x,1/2+y,1/2-z
1/2-x,1/2-y,1/2-z
1/2+x,1/2+y,1/2-z
1/2-x,1/2+y,1/2+z
1/2+x,1/2-y,1/2+z
loop_
_atom_site_type_symbol
_atom_site_label
_atom_site_fract_x
_atom_site_fract_y
_atom_site_fract_z
Si Si1 0.630242 0.688436 0.311074
Si Si2 0.335710 0.187905 0.500000
Si Si3 0.447478 0.320047 0.000000
Si Si4 0.790939 0.687506 0.306702
Si Si5 0.049467 0.807729 0.697417
Si Si6 0.734738 0.688775 0.000000
O O1 0.631639 0.500000 0.312708
O O2 0.641515 0.750978 0.409912
O O3 0.666487 0.749370 0.242233
O O4 0.583610 0.738546 0.272998
O O5 0.285308 0.237661 0.500000
O O6 0.336141 0.000000 0.500000
O O7 0.435973 0.250362 0.902589
O O8 0.431329 0.500000 0.000000
O O9 0.500000 0.326106 0.000000
O O10 0.790507 0.500000 0.304552
O O11 0.750000 0.750000 0.250000
O O12 0.786683 0.747478 0.408942
O O13 0.000000 0.758875 0.713835
O O14 0.049106 0.000000 0.692904
O O15 0.732978 0.500000 0.000000
#
# Coordination Sequence:
#
# PCOD9524282 Si02
#       6
#    16   8   8  16  16   8
#     4  11  22  36  59  87 116 151 193 241 291 347
#     4  11  23  39  59  79 108 151 197 244 291 350
#     4   7  10  21  44  73 108 145 175 211 266 325
#     4  12  24  39  59  85 117 152 189 235 286 345
#     4   8  15  29  51  82 117 152 191 235 281 333
#     4  11  23  40  62  86 113 152 196 242 289 342
#
# _framework density 18.435016999999998
#
# number of rings (size 3 to 8) (size 9 to 14) (size 15 to 20)
#    0.000    1.889    2.222    4.667    0.000    1.778 
#    0.000    2.778    0.000    6.000    0.000    0.000 
#    0.000   12.444    0.000    0.000    0.000    0.000 
#
# Total GULP energy -200972.053515 kJ/mol
# GULP energy per Si atom -5582.557042 kJ/mol
# Density = 1.839306 g / cm^3
# Si number density = 18.435017 Si / 1000 Ang^3
#
#
#
# Elastic Constant Matrix: (Units=GPa)
#
#
# Indices 1 2 3 4 5 6 
#
# 1 118.4857 26.7030 90.9046 0.0000 0.0000 0.0000
# 2 26.7030 53.3638 40.3687 0.0000 0.0000 0.0000
# 3 90.9046 40.3687 198.7236 0.0000 0.0000 0.0000
# 4 0.0000 0.0000 0.0000 28.1426 0.0000 0.0000
# 5 0.0000 0.0000 0.0000 0.0000 23.2726 0.0000
# 6 0.0000 0.0000 0.0000 0.0000 0.0000 16.7544
#
#
#
# Elastic Compliance Matrix: (Units=1/GPa)
#
#
# Indices 1 2 3 4 5 6 
#
# 1 0.013263 -0.002419 -0.005576 0.000000 0.000000 0.000000
# 2 -0.002419 0.022583 -0.003481 0.000000 0.000000 0.000000
# 3 -0.005576 -0.003481 0.008290 0.000000 0.000000 0.000000
# 4 0.000000 0.000000 0.000000 0.035533 0.000000 0.000000
# 5 0.000000 0.000000 0.000000 0.000000 0.042969 0.000000
# 6 0.000000 0.000000 0.000000 0.000000 0.000000 0.059686
#
#
# Mechanical properties :
#
#
# Convention : Reuss Voigt Hill
#
# Bulk Modulus (GPa) = 47.20406 76.28062 61.74234
# Shear Modulus (GPa) = 23.54762 27.80704 25.67733
#
# Velocity S-wave (km/s) = 3.57785 3.88800 3.73615
# Velocity P-wave (km/s) = 6.53676 7.85005 7.22332
#
# Compressibility (1/GPa) = 0.02118462
#
# Stress axis : x y z
#
# Youngs Moduli (GPa) = 75.39991 44.28115 120.63107
#
# Poissons Ratio (x) = 0.10711 0.67258
# Poissons Ratio (y) = 0.18238 0.41992
# Poissons Ratio (z) = 0.42039 0.15414
#
# Static dielectric constant tensor:
#      x y z
#    x 1.626820 0.000000 0.000000 
#    y 0.000000 1.632510 0.000000 
#    z 0.000000 0.000000 1.625910 
# 
# From -- ./inp_files/40718.got.cif
#   From: 2010.05.17/outbox.cif.g08.bks.cpg/sg71_21_cif.got.tgz:40718.got - 2010.06.03 16:22:01.
