data_PCOD9524230
_publ_section_title
;
Structure prediction by ZEFSAII (Michael W. Deem and Ramdas Pophale) SiO2 
 PCOD9524230
Probable space group: I M M M
;
_chemical_formula_sum "Si O2"
_cell_formula_units_Z 104
_cell_length_a 20.365826
_cell_length_b 14.493476
_cell_length_c 17.799200
_cell_angle_alpha 90.000000
_cell_angle_beta 90.000000
_cell_angle_gamma 90.000000
_cell_volume 5253.818527
_symmetry_space_group_name_H-M "I M M M"
_symmetry_group_IT_number 71
_symmetry_cell_setting 'orthorhombic'
loop_
_space_group_symop_operation_xyz
x,y,z
-x,-y,z
x,-y,-z
-x,y,-z
-x,-y,-z
x,y,-z
-x,y,z
x,-y,z
1/2+x,1/2+y,1/2+z
1/2-x,1/2-y,1/2+z
1/2+x,1/2-y,1/2-z
1/2-x,1/2+y,1/2-z
1/2-x,1/2-y,1/2-z
1/2+x,1/2+y,1/2-z
1/2-x,1/2+y,1/2+z
1/2+x,1/2-y,1/2+z
loop_
_atom_site_type_symbol
_atom_site_label
_atom_site_fract_x
_atom_site_fract_y
_atom_site_fract_z
Si Si1 0.206874 0.399513 0.622768
Si Si2 0.075791 0.108339 0.143117
Si Si3 0.184410 0.752350 0.915444
Si Si4 0.617327 0.662870 0.191569
Si Si5 0.078685 0.000000 0.583964
Si Si6 0.574268 0.823989 0.915614
Si Si7 0.767101 0.608795 0.797460
O O1 0.236653 0.500000 0.605954
O O2 0.251036 0.316787 0.592025
O O3 0.134059 0.394342 0.590046
O O4 0.205074 0.389835 0.713105
O O5 0.124272 0.178547 0.101637
O O6 0.082713 0.134535 0.231120
O O7 0.000000 0.118408 0.119824
O O8 0.094111 0.000000 0.134408
O O9 0.190931 0.670039 0.855172
O O10 0.180202 0.716056 0.000000
O O11 0.602556 0.587231 0.129224
O O12 0.590309 0.754562 0.152584
O O13 0.695226 0.656365 0.206282
O O14 0.104549 0.000000 0.500000
O O15 0.000000 0.000000 0.582395
O O16 0.500000 0.859622 0.907633
O O17 0.577629 0.780451 0.000000
O O18 0.760714 0.500000 0.818878
#
# Coordination Sequence:
#
# PCOD9524230 Si02
#       7
#    16  16  16  16   8  16  16
#     4  11  23  41  65  89 119 163 212 259 307 364
#     4  11  23  40  65  95 125 162 209 256 309 372
#     4  12  25  41  64  92 126 164 204 256 316 371
#     4  12  20  37  59  87 124 166 206 252 305 364
#     4  11  22  32  50  84 125 165 202 245 303 371
#     4  11  24  39  57  87 127 168 208 252 306 369
#     4  11  23  42  66  92 123 159 208 263 307 364
#
# _framework density 19.795126
#
# number of rings (size 3 to 8) (size 9 to 14) (size 15 to 20)
#    0.000    0.692    4.615    4.154    0.000    4.923 
#    0.000    1.538    0.000    1.385    0.000    1.077 
#    0.000    0.000    0.000    0.000    0.000    0.000 
#
# Total GULP energy -290597.227641 kJ/mol
# GULP energy per Si atom -5588.408224 kJ/mol
# Density = 1.975007 g / cm^3
# Si number density = 19.795126 Si / 1000 Ang^3
#
#
#
# Elastic Constant Matrix: (Units=GPa)
#
#
# Indices 1 2 3 4 5 6 
#
# 1 116.2241 21.0064 23.7391 0.0000 0.0000 0.0000
# 2 21.0064 55.7671 2.9801 0.0000 0.0000 0.0000
# 3 23.7391 2.9801 78.7104 0.0000 0.0000 0.0000
# 4 0.0000 0.0000 0.0000 31.5012 0.0000 0.0000
# 5 0.0000 0.0000 0.0000 0.0000 139.4823 0.0000
# 6 0.0000 0.0000 0.0000 0.0000 0.0000 26.2375
#
#
#
# Elastic Compliance Matrix: (Units=1/GPa)
#
#
# Indices 1 2 3 4 5 6 
#
# 1 0.009823 -0.003549 -0.002828 0.000000 0.000000 0.000000
# 2 -0.003549 0.019250 0.000342 0.000000 0.000000 0.000000
# 3 -0.002828 0.000342 0.013545 0.000000 0.000000 0.000000
# 4 0.000000 0.000000 0.000000 0.031745 0.000000 0.000000
# 5 0.000000 0.000000 0.000000 0.000000 0.007169 0.000000
# 6 0.000000 0.000000 0.000000 0.000000 0.000000 0.038113
#
#
# Mechanical properties :
#
#
# Convention : Reuss Voigt Hill
#
# Bulk Modulus (GPa) = 32.73668 38.46142 35.59905
# Shear Modulus (GPa) = 35.23609 52.97594 44.10602
#
# Velocity S-wave (km/s) = 4.22363 5.17882 4.72542
# Velocity P-wave (km/s) = 6.35288 7.43184 6.91344
#
# Compressibility (1/GPa) = 0.03054678
#
# Stress axis : x y z
#
# Youngs Moduli (GPa) = 101.79961 51.94711 73.82860
#
# Poissons Ratio (x) = 0.18436 0.20881
# Poissons Ratio (y) = 0.36130 -0.02522
# Poissons Ratio (z) = 0.28792 -0.01774
#
# Static dielectric constant tensor:
#      x y z
#    x 1.701830 0.000000 0.000000 
#    y 0.000000 1.671680 0.000000 
#    z 0.000000 0.000000 1.697040 
# 
# From -- ./inp_files/47319.got.cif
#   From: 2010.05.17/outbox.cif.g08.bks.cpg/sg71_24_cif.got.tgz:47319.got - 2010.06.03 16:22:01.
