data_PCOD9524817
_publ_section_title
;
Structure prediction by ZEFSAII (Michael W. Deem and Ramdas Pophale) SiO2 
 PCOD9524817
Probable space group: I M M M
;
_chemical_formula_sum "Si O2"
_cell_formula_units_Z 44
_cell_length_a 18.000000
_cell_length_b 9.000000
_cell_length_c 30.000000
_cell_angle_alpha 90.000000
_cell_angle_beta 90.000000
_cell_angle_gamma 90.000000
_cell_volume 4860.000000
_symmetry_space_group_name_H-M "I M M M"
_symmetry_group_IT_number 71
_symmetry_cell_setting 'orthorhombic'
loop_
_space_group_symop_operation_xyz
x,y,z
-x,-y,z
x,-y,-z
-x,y,-z
-x,-y,-z
x,y,-z
-x,y,z
x,-y,z
1/2+x,1/2+y,1/2+z
1/2-x,1/2-y,1/2+z
1/2+x,1/2-y,1/2-z
1/2-x,1/2+y,1/2-z
1/2-x,1/2-y,1/2-z
1/2+x,1/2+y,1/2-z
1/2-x,1/2+y,1/2+z
1/2+x,1/2-y,1/2+z
loop_
_atom_site_type_symbol
_atom_site_label
_atom_site_fract_x
_atom_site_fract_y
_atom_site_fract_z
Si Si1 0.590385 0.172610 0.226637
Si Si2 0.588218 0.167825 0.500000
Si Si3 0.588277 0.321431 0.320546
Si Si4 0.826483 0.321706 0.552516
Si Si5 0.410484 0.673010 0.133865
Si Si6 0.341035 0.677984 0.585159
O O1 0.500000 0.180006 0.226395
O O2 0.612879 0.248681 0.273547
O O3 0.615230 0.249357 0.180249
O O4 0.612313 0.000000 0.226383
O O5 0.500000 0.162075 0.500000
O O6 0.613341 0.249354 0.544991
O O7 0.618740 0.000000 0.500000
O O8 0.500000 0.288472 0.326984
O O9 0.595330 0.500000 0.316225
O O10 0.632673 0.274024 0.365268
O O11 0.831994 0.275004 0.500000
O O12 0.837636 0.500000 0.552995
O O13 0.880968 0.247219 0.588432
O O14 0.744382 0.291610 0.572286
O O15 0.500000 0.682054 0.133617
O O16 0.389006 0.500000 0.134879
O O17 0.351836 0.500000 0.583587
#
# Coordination Sequence:
#
# PCOD9524817 Si02
#       6
#    16   8  16  16  16  16
#     4   9  17  31  53  80 110 142 175 218 272 323
#     4  11  23  35  51  79 112 145 186 235 277 314
#     4   9  17  30  52  81 110 142 181 224 267 314
#     4  10  21  38  58  80 108 142 181 226 276 327
#     4  10  21  37  58  83 109 138 177 223 270 329
#     4  10  20  37  57  78 107 147 190 226 269 325
#
# _framework density 9.0534979999999994
#
# number of rings (size 3 to 8) (size 9 to 14) (size 15 to 20)
#    0.000    2.273    0.909    1.909    0.000    6.909 
#    0.000    4.545    0.000    0.000    0.000    0.000 
#    0.000    0.000    0.000    0.000    0.000    0.000 
#
# Total GULP energy -245357.762259 kJ/mol
# GULP energy per Si atom -5576.312779 kJ/mol
# Density = 0.903289 g / cm^3
# Si number density = 9.053498 Si / 1000 Ang^3
#
#
#
# Elastic Constant Matrix: (Units=GPa)
#
#
# Indices 1 2 3 4 5 6 
#
# 1 24.0071 31.6292 42.1568 0.0000 0.0000 0.0000
# 2 31.6292 50.7312 70.4781 0.0000 0.0000 0.0000
# 3 42.1568 70.4781 220.9537 0.0000 0.0000 0.0000
# 4 0.0000 0.0000 0.0000 36.4417 0.0000 0.0000
# 5 0.0000 0.0000 0.0000 0.0000 8.9511 0.0000
# 6 0.0000 0.0000 0.0000 0.0000 0.0000 17.7993
#
#
#
# Elastic Compliance Matrix: (Units=1/GPa)
#
#
# Indices 1 2 3 4 5 6 
#
# 1 0.234660 -0.151029 0.003402 0.000000 0.000000 0.000000
# 2 -0.151029 0.132601 -0.013480 0.000000 0.000000 0.000000
# 3 0.003402 -0.013480 0.008177 0.000000 0.000000 0.000000
# 4 0.000000 0.000000 0.000000 0.027441 0.000000 0.000000
# 5 0.000000 0.000000 0.000000 0.000000 0.111718 0.000000
# 6 0.000000 0.000000 0.000000 0.000000 0.000000 0.056182
#
#
# Mechanical properties :
#
#
# Convention : Reuss Voigt Hill
#
# Bulk Modulus (GPa) = 18.78888 64.91334 41.85111
# Shear Modulus (GPa) = 5.49008 22.73363 14.11186
#
# Velocity S-wave (km/s) = 1.74316 3.54717 2.79473
# Velocity P-wave (km/s) = 3.80139 7.25977 5.79460
#
# Compressibility (1/GPa) = 0.05322298
#
# Stress axis : x y z
#
# Youngs Moduli (GPa) = 4.26148 7.54144 122.30014
#
# Poissons Ratio (x) = 1.13898 -0.41608
# Poissons Ratio (y) = 0.64361 1.64866
# Poissons Ratio (z) = -0.01450 0.10166
#
# Static dielectric constant tensor:
#      x y z
#    x 1.636310 0.000000 0.000000 
#    y 0.000000 1.625290 0.000000 
#    z 0.000000 0.000000 1.603730 
# 
# From -- ./inp_files/8881.got.cif
#   From: 2010.05.17/outbox.ucp.g08.bks.cvg/sg71_5_cif.got.tgz:8881.got - 2010.06.11 16:29:00.
