data_PCOD9524190
_publ_section_title
;
Structure prediction by ZEFSAII (Michael W. Deem and Ramdas Pophale) SiO2 
 PCOD9524190
Probable space group: I M M M
;
_chemical_formula_sum "Si O2"
_cell_formula_units_Z 82
_cell_length_a 8.101210
_cell_length_b 21.309151
_cell_length_c 24.325530
_cell_angle_alpha 90.000000
_cell_angle_beta 90.000000
_cell_angle_gamma 90.000000
_cell_volume 4199.313986
_symmetry_space_group_name_H-M "I M M M"
_symmetry_group_IT_number 71
_symmetry_cell_setting 'orthorhombic'
loop_
_space_group_symop_operation_xyz
x,y,z
-x,-y,z
x,-y,-z
-x,y,-z
-x,-y,-z
x,y,-z
-x,y,z
x,-y,z
1/2+x,1/2+y,1/2+z
1/2-x,1/2-y,1/2+z
1/2+x,1/2-y,1/2-z
1/2-x,1/2+y,1/2-z
1/2-x,1/2-y,1/2-z
1/2+x,1/2+y,1/2-z
1/2-x,1/2+y,1/2+z
1/2+x,1/2-y,1/2+z
loop_
_atom_site_type_symbol
_atom_site_label
_atom_site_fract_x
_atom_site_fract_y
_atom_site_fract_z
Si Si1 0.297536 0.132927 0.353675
Si Si2 0.815777 0.500000 0.111945
Si Si3 0.500000 0.000000 0.500000
Si Si4 0.802780 0.320977 0.264134
Si Si5 0.304125 0.630553 0.383125
Si Si6 0.304127 0.000000 0.062999
Si Si7 0.202057 0.741470 0.937595
O O1 0.500000 0.133706 0.357483
O O2 0.235637 0.065564 0.373162
O O3 0.251803 0.142078 0.290546
O O4 0.242949 0.189755 0.393172
O O5 0.000000 0.500000 0.140474
O O6 0.860037 0.500000 0.048192
O O7 0.750000 0.250000 0.250000
O O8 0.734136 0.350183 0.320233
O O9 0.000000 0.322172 0.268577
O O10 0.500000 0.629095 0.389345
O O11 0.242554 0.563337 0.404227
O O12 0.241140 0.689234 0.419681
O O13 0.500000 0.000000 0.058533
O O14 0.235250 0.000000 0.000000
O O15 0.000000 0.741568 0.936592
O O16 0.251596 0.726481 0.000000
#
# Coordination Sequence:
#
# PCOD9524190 Si02
#       7
#    16   8   2  16  16   8  16
#     4   9  17  29  46  74 110 149 191 234 287 348
#     4   8  16  25  41  70 106 142 173 213 275 340
#     4   8  16  24  44  72 112 152 166 210 290 348
#     4  11  21  36  57  82 116 156 202 253 307 361
#     4  11  22  39  60  88 117 157 207 252 302 362
#     4  11  25  44  65  91 126 163 197 247 313 377
#     4   9  17  28  49  77 110 145 190 243 297 349
#
# _framework density 19.526997999999999
#
# number of rings (size 3 to 8) (size 9 to 14) (size 15 to 20)
#    0.293    1.854    1.951    2.049    1.366    2.341 
#    0.000    1.951    0.000    0.000    0.000    0.000 
#    0.000    0.000    0.000    5.268    0.000    0.000 
#
# Total GULP energy -228318.722771 kJ/mol
# GULP energy per Si atom -5568.749336 kJ/mol
# Density = 1.948255 g / cm^3
# Si number density = 19.526998 Si / 1000 Ang^3
#
#
#
# Elastic Constant Matrix: (Units=GPa)
#
#
# Indices 1 2 3 4 5 6 
#
# 1 19.5980 11.8442 6.2750 0.0000 0.0000 0.0000
# 2 11.8442 158.6731 64.7369 0.0000 0.0000 0.0000
# 3 6.2750 64.7369 130.6389 0.0000 0.0000 0.0000
# 4 0.0000 0.0000 0.0000 -1.9147 0.0000 0.0000
# 5 0.0000 0.0000 0.0000 0.0000 18.7699 0.0000
# 6 0.0000 0.0000 0.0000 0.0000 0.0000 5.3742
#
#
#
# Elastic Compliance Matrix: (Units=1/GPa)
#
#
# Indices 1 2 3 4 5 6 
#
# 1 0.053493 -0.003691 -0.000740 0.000000 0.000000 0.000000
# 2 -0.003691 0.008154 -0.003863 0.000000 0.000000 0.000000
# 3 -0.000740 -0.003863 0.009605 0.000000 0.000000 0.000000
# 4 0.000000 0.000000 0.000000 -0.522288 0.000000 0.000000
# 5 0.000000 0.000000 0.000000 0.000000 0.053277 0.000000
# 6 0.000000 0.000000 0.000000 0.000000 0.000000 0.186076
#
#
# Mechanical properties :
#
#
# Convention : Reuss Voigt Hill
#
# Bulk Modulus (GPa) = 18.29405 52.73579 35.51492
# Shear Modulus (GPa) = -28.26882 19.51613 -4.37634
#
# Velocity S-wave (km/s) = -3.80897 3.16483 -1.49868
# Velocity P-wave (km/s) = 3.15521 6.35768 3.90287
#
# Compressibility (1/GPa) = 0.05466259
#
# Stress axis : x y z
#
# Youngs Moduli (GPa) = 18.69391 122.63956 104.11573
#
# Poissons Ratio (x) = 0.45265 0.07709
# Poissons Ratio (y) = 0.06900 0.40223
# Poissons Ratio (z) = 0.01384 0.47380
#
# Static dielectric constant tensor:
#      x y z
#    x 1.699270 0.000000 0.000000 
#    y 0.000000 1.693560 0.000000 
#    z 0.000000 0.000000 1.673850 
# 
# From -- ./inp_files/57479.got.cif
#   From: 2010.05.17/outbox.cif.g08.bks.cpg/sg71_29_cif.got.tgz:57479.got - 2010.06.03 16:22:01.
