data_PCOD9524261
_publ_section_title
;
Structure prediction by ZEFSAII (Michael W. Deem and Ramdas Pophale) SiO2 
 PCOD9524261
Probable space group: I M M M
;
_chemical_formula_sum "Si O2"
_cell_formula_units_Z 72
_cell_length_a 7.981196
_cell_length_b 17.322797
_cell_length_c 24.916027
_cell_angle_alpha 90.000000
_cell_angle_beta 90.000000
_cell_angle_gamma 90.000000
_cell_volume 3444.806128
_symmetry_space_group_name_H-M "I M M M"
_symmetry_group_IT_number 71
_symmetry_cell_setting 'orthorhombic'
loop_
_space_group_symop_operation_xyz
x,y,z
-x,-y,z
x,-y,-z
-x,y,-z
-x,-y,-z
x,y,-z
-x,y,z
x,-y,z
1/2+x,1/2+y,1/2+z
1/2-x,1/2-y,1/2+z
1/2+x,1/2-y,1/2-z
1/2-x,1/2+y,1/2-z
1/2-x,1/2-y,1/2-z
1/2+x,1/2+y,1/2-z
1/2-x,1/2+y,1/2+z
1/2+x,1/2-y,1/2+z
loop_
_atom_site_type_symbol
_atom_site_label
_atom_site_fract_x
_atom_site_fract_y
_atom_site_fract_z
Si Si1 0.695238 0.584508 0.768583
Si Si2 0.704398 0.086539 0.561496
Si Si3 0.196931 0.707357 0.850752
Si Si4 0.203998 0.500000 0.561453
Si Si5 0.304804 0.881246 0.151206
O O1 0.500000 0.587540 0.783168
O O2 0.763914 0.500000 0.785064
O O3 0.781779 0.656937 0.796909
O O4 0.711527 0.591400 0.704640
O O5 0.753226 0.101286 0.500000
O O6 0.500000 0.086267 0.563200
O O7 0.762049 0.151372 0.602285
O O8 0.759763 0.000000 0.576294
O O9 0.285207 0.789427 0.851542
O O10 0.000000 0.722253 0.858724
O O11 0.265791 0.500000 0.500000
O O12 0.252969 0.574140 0.597608
O O13 0.000000 0.500000 0.558348
O O14 0.500000 0.900870 0.158796
#
# Coordination Sequence:
#
# PCOD9524261 Si02
#       5
#    16  16  16   8  16
#     4  11  23  39  60  85 117 152 191 240 293 348
#     4   8  15  30  52  78 110 148 188 230 276 331
#     4  11  22  35  56  87 120 153 193 237 289 349
#     4   9  20  40  65  89 113 151 200 247 298 355
#     4  11  22  39  61  84 114 151 193 240 291 348
#
# _framework density 20.901029999999999
#
# number of rings (size 3 to 8) (size 9 to 14) (size 15 to 20)
#    0.000    1.889    1.111    4.000    0.000    3.111 
#    0.000    0.000    0.000    6.667    0.000    7.778 
#    0.000    0.000    0.000    0.000    0.000    0.000 
#
# Total GULP energy -201117.538338 kJ/mol
# GULP energy per Si atom -5586.598287 kJ/mol
# Density = 2.085346 g / cm^3
# Si number density = 20.901030 Si / 1000 Ang^3
#
#
#
# Elastic Constant Matrix: (Units=GPa)
#
#
# Indices 1 2 3 4 5 6 
#
# 1 30.4453 1.6947 -8.0707 0.0000 0.0000 0.0000
# 2 1.6947 145.1925 59.1782 0.0000 0.0000 0.0000
# 3 -8.0707 59.1782 117.1281 0.0000 0.0000 0.0000
# 4 0.0000 0.0000 0.0000 -7.2757 0.0000 0.0000
# 5 0.0000 0.0000 0.0000 0.0000 5.8811 0.0000
# 6 0.0000 0.0000 0.0000 0.0000 0.0000 -150.8901
#
#
#
# Elastic Compliance Matrix: (Units=1/GPa)
#
#
# Indices 1 2 3 4 5 6 
#
# 1 0.033784 -0.001691 0.003182 0.000000 0.000000 0.000000
# 2 -0.001691 0.008758 -0.004542 0.000000 0.000000 0.000000
# 3 0.003182 -0.004542 0.011052 0.000000 0.000000 0.000000
# 4 0.000000 0.000000 0.000000 -0.137443 0.000000 0.000000
# 5 0.000000 0.000000 0.000000 0.000000 0.170035 0.000000
# 6 0.000000 0.000000 0.000000 0.000000 0.000000 -0.006627
#
#
# Mechanical properties :
#
#
# Convention : Reuss Voigt Hill
#
# Bulk Modulus (GPa) = 21.05606 44.26336 32.65971
# Shear Modulus (GPa) = 49.26582 -14.45936 17.40323
#
# Velocity S-wave (km/s) = 4.86026 -2.63307 2.88870
# Velocity P-wave (km/s) = 6.44921 3.46115 5.17551
#
# Compressibility (1/GPa) = 0.04749227
#
# Stress axis : x y z
#
# Youngs Moduli (GPa) = 29.60013 114.17826 90.48497
#
# Poissons Ratio (x) = 0.19313 -0.28797
# Poissons Ratio (y) = 0.05007 0.41095
# Poissons Ratio (z) = -0.09420 0.51855
#
# Static dielectric constant tensor:
#      x y z
#    x 1.728470 0.000000 0.000000 
#    y 0.000000 1.742390 0.000000 
#    z 0.000000 0.000000 1.747130 
# 
# From -- ./inp_files/12193.got.cif
#   From: 2010.05.17/outbox.cif.g08.bks.cpg/sg71_7_cif.got.tgz:12193.got - 2010.06.03 16:22:01.
