data_PCOD9524688
_publ_section_title
;
Structure prediction by ZEFSAII (Michael W. Deem and Ramdas Pophale) SiO2 
 PCOD9524688
Probable space group: I M M M
;
_chemical_formula_sum "Si O2"
_cell_formula_units_Z 60
_cell_length_a 9.000000
_cell_length_b 27.000000
_cell_length_c 27.000000
_cell_angle_alpha 90.000000
_cell_angle_beta 90.000000
_cell_angle_gamma 90.000000
_cell_volume 6561.000000
_symmetry_space_group_name_H-M "I M M M"
_symmetry_group_IT_number 71
_symmetry_cell_setting 'orthorhombic'
loop_
_space_group_symop_operation_xyz
x,y,z
-x,-y,z
x,-y,-z
-x,y,-z
-x,-y,-z
x,y,-z
-x,y,z
x,-y,z
1/2+x,1/2+y,1/2+z
1/2-x,1/2-y,1/2+z
1/2+x,1/2-y,1/2-z
1/2-x,1/2+y,1/2-z
1/2-x,1/2-y,1/2-z
1/2+x,1/2+y,1/2-z
1/2-x,1/2+y,1/2+z
1/2+x,1/2-y,1/2+z
loop_
_atom_site_type_symbol
_atom_site_label
_atom_site_fract_x
_atom_site_fract_y
_atom_site_fract_z
Si Si1 0.669477 0.312149 0.222383
Si Si2 0.162470 0.000000 0.556804
Si Si3 0.822639 0.445390 0.688024
Si Si4 0.677697 0.343733 0.670989
Si Si5 0.323907 0.755282 0.130999
Si Si6 0.830385 0.928460 0.707778
Si Si7 0.174268 0.418321 0.890509
Si Si8 0.674610 0.330094 0.942352
O O1 0.500000 0.294694 0.230477
O O2 0.738148 0.319312 0.277012
O O3 0.729622 0.278596 0.177970
O O4 0.664768 0.368742 0.204930
O O5 0.260491 0.952754 0.567606
O O6 0.135472 0.000000 0.500000
O O7 0.000000 0.000000 0.582748
O O8 0.787317 0.500000 0.667186
O O9 0.746918 0.397715 0.663627
O O10 0.759053 0.443712 0.743848
O O11 0.000000 0.439547 0.688665
O O12 0.500000 0.348478 0.675571
O O13 0.729553 0.304924 0.630546
O O14 0.500000 0.765451 0.138183
O O15 0.310725 0.724165 0.080887
O O16 0.746299 0.941670 0.658365
O O17 0.000000 0.945270 0.710685
O O18 0.231553 0.364790 0.906386
O O19 0.000000 0.418774 0.885655
O O20 0.500000 0.344565 0.938031
O O21 0.716351 0.333275 0.000000
#
# Coordination Sequence:
#
# PCOD9524688 Si02
#       8
#    16   8  16  16  16  16  16  16
#     4   8  15  29  48  70  96 129 167 206 245 293
#     4  11  25  43  59  71  87 121 169 221 277 331
#     4  10  21  36  53  75 106 140 177 219 262 306
#     4  10  20  32  49  76 106 138 177 213 257 316
#     4  10  18  32  52  74 104 138 173 216 262 308
#     4  10  19  34  53  74 100 134 175 212 253 307
#     4  12  24  37  55  77 102 130 167 220 278 328
#     4  10  21  38  59  79 102 138 181 220 264 323
#
# _framework density 9.1449470000000002
#
# number of rings (size 3 to 8) (size 9 to 14) (size 15 to 20)
#    0.000    1.933    1.333    4.200    0.933    4.000 
#    0.000    0.667    0.000    0.000    0.000    0.000 
#    0.000    0.533    0.000    6.133    0.000    1.733 
#
# Total GULP energy -334211.257093 kJ/mol
# GULP energy per Si atom -5570.187618 kJ/mol
# Density = 0.912413 g / cm^3
# Si number density = 9.144947 Si / 1000 Ang^3
#
#
#
# Elastic Constant Matrix: (Units=GPa)
#
#
# Indices 1 2 3 4 5 6 
#
# 1 41.2844 34.4151 18.2963 0.0000 0.0000 0.0000
# 2 34.4151 99.3694 14.4929 0.0000 0.0000 0.0000
# 3 18.2963 14.4929 7.3538 0.0000 0.0000 0.0000
# 4 0.0000 0.0000 0.0000 13.3623 0.0000 0.0000
# 5 0.0000 0.0000 0.0000 0.0000 -22.8599 0.0000
# 6 0.0000 0.0000 0.0000 0.0000 0.0000 26.6601
#
#
#
# Elastic Compliance Matrix: (Units=1/GPa)
#
#
# Indices 1 2 3 4 5 6 
#
# 1 -0.233893 -0.005429 0.592632 0.000001 0.000000 0.000000
# 2 -0.005429 0.013997 -0.014077 0.000000 0.000000 0.000000
# 3 0.592632 -0.014077 -1.310755 -0.000002 -0.000001 0.000000
# 4 0.000001 0.000000 -0.000002 0.074837 0.000000 0.000000
# 5 0.000000 0.000000 -0.000001 0.000000 -0.043745 0.000000
# 6 0.000000 0.000000 0.000000 0.000000 0.000000 0.037509
#
#
# Mechanical properties :
#
#
# Convention : Reuss Voigt Hill
#
# Bulk Modulus (GPa) = -2.60146 31.37958 14.38906
# Shear Modulus (GPa) = -1.82720 8.81939 3.49610
#
# Velocity S-wave (km/s) = -1.00059 2.19829 1.38407
# Velocity P-wave (km/s) = 1.66143 4.86182 3.23086
#
# Compressibility (1/GPa) = -0.38439979
#
# Stress axis : x y z
#
# Youngs Moduli (GPa) = -4.27546 71.44418 -0.76292
#
# Poissons Ratio (x) = 0.38789 0.45213
# Poissons Ratio (y) = -0.02321 -0.01074
# Poissons Ratio (z) = 2.53377 1.00573
#
# Static dielectric constant tensor:
#      x y z
#    x 1.628810 0.000000 0.000000 
#    y 0.000000 1.677850 0.000000 
#    z 0.000000 0.000000 1.652410 
# 
# From -- ./inp_files/63751.got.cif
#   From: 2010.05.17/outbox.ucp.g08.bks.cvg/sg71_32_cif.got.tgz:63751.got - 2010.06.11 16:29:00.
