data_PCOD9524385
_publ_section_title
;
Structure prediction by ZEFSAII (Michael W. Deem and Ramdas Pophale) SiO2 
 PCOD9524385
Probable space group: I M M M
;
_chemical_formula_sum "Si O2"
_cell_formula_units_Z 64
_cell_length_a 29.101867
_cell_length_b 8.585694
_cell_length_c 13.601676
_cell_angle_alpha 90.000000
_cell_angle_beta 90.000000
_cell_angle_gamma 90.000000
_cell_volume 3398.511023
_symmetry_space_group_name_H-M "I M M M"
_symmetry_group_IT_number 71
_symmetry_cell_setting 'orthorhombic'
loop_
_space_group_symop_operation_xyz
x,y,z
-x,-y,z
x,-y,-z
-x,y,-z
-x,-y,-z
x,y,-z
-x,y,z
x,-y,z
1/2+x,1/2+y,1/2+z
1/2-x,1/2-y,1/2+z
1/2+x,1/2-y,1/2-z
1/2-x,1/2+y,1/2-z
1/2-x,1/2-y,1/2-z
1/2+x,1/2+y,1/2-z
1/2-x,1/2+y,1/2+z
1/2+x,1/2-y,1/2+z
loop_
_atom_site_type_symbol
_atom_site_label
_atom_site_fract_x
_atom_site_fract_y
_atom_site_fract_z
Si Si1 0.251983 0.311846 0.500000
Si Si2 0.614021 0.315591 0.210301
Si Si3 0.706074 0.814438 0.304926
Si Si4 0.445041 0.814436 0.610437
Si Si5 0.642344 0.186846 0.000000
O O1 0.252527 0.500000 0.500000
O O2 0.281053 0.241437 0.411919
O O3 0.197226 0.265632 0.500000
O O4 0.610116 0.500000 0.200025
O O5 0.661724 0.265931 0.260281
O O6 0.577097 0.258287 0.291666
O O7 0.617290 0.244562 0.099865
O O8 0.750000 0.750000 0.250000
O O9 0.701471 0.000000 0.296233
O O10 0.429381 0.759630 0.500000
O O11 0.500000 0.792213 0.613320
O O12 0.435742 0.000000 0.613604
O O13 0.642223 0.000000 0.000000
#
# Coordination Sequence:
#
# PCOD9524385 Si02
#       5
#     8  16  16  16   8
#     4  11  23  39  59  84 116 159 208 258 309 359
#     4  12  25  40  62  92 127 163 205 255 308 367
#     4  12  24  39  59  85 120 163 207 253 302 360
#     4   9  20  42  70  96 124 159 201 250 306 367
#     4  11  23  41  64  86 120 165 211 257 305 365
#
# _framework density 18.831776999999999
#
# number of rings (size 3 to 8) (size 9 to 14) (size 15 to 20)
#    0.000    1.000    2.500    6.000    1.750    2.000 
#    0.000    1.875    0.000    3.750    0.000    0.000 
#    0.000    0.000    0.000    0.000    0.000    0.000 
#
# Total GULP energy -178496.101808 kJ/mol
# GULP energy per Si atom -5578.003181 kJ/mol
# Density = 1.878891 g / cm^3
# Si number density = 18.831777 Si / 1000 Ang^3
#
#
#
# Elastic Constant Matrix: (Units=GPa)
#
#
# Indices 1 2 3 4 5 6 
#
# 1 53.2749 32.9649 53.1217 0.0000 0.0000 0.0000
# 2 32.9649 85.9154 54.2011 0.0000 0.0000 0.0000
# 3 53.1217 54.2011 212.3592 0.0000 0.0000 0.0000
# 4 0.0000 0.0000 0.0000 18.0959 0.0000 0.0000
# 5 0.0000 0.0000 0.0000 0.0000 37.4650 0.0000
# 6 0.0000 0.0000 0.0000 0.0000 0.0000 25.9754
#
#
#
# Elastic Compliance Matrix: (Units=1/GPa)
#
#
# Indices 1 2 3 4 5 6 
#
# 1 0.028767 -0.007745 -0.005219 0.000000 0.000000 0.000000
# 2 -0.007745 0.015958 -0.002136 0.000000 0.000000 0.000000
# 3 -0.005219 -0.002136 0.006560 0.000000 0.000000 0.000000
# 4 0.000000 0.000000 0.000000 0.055261 0.000000 0.000000
# 5 0.000000 0.000000 0.000000 0.000000 0.026692 0.000000
# 6 0.000000 0.000000 0.000000 0.000000 0.000000 0.038498
#
#
# Mechanical properties :
#
#
# Convention : Reuss Voigt Hill
#
# Bulk Modulus (GPa) = 47.42649 70.23610 58.83129
# Shear Modulus (GPa) = 23.92748 30.39138 27.15943
#
# Velocity S-wave (km/s) = 3.56840 4.02161 3.80177
# Velocity P-wave (km/s) = 6.49746 7.67737 7.11193
#
# Compressibility (1/GPa) = 0.02108526
#
# Stress axis : x y z
#
# Youngs Moduli (GPa) = 34.76168 62.66298 152.44546
#
# Poissons Ratio (x) = 0.48533 0.79567
# Poissons Ratio (y) = 0.26923 0.32558
# Poissons Ratio (z) = 0.18143 0.13383
#
# Static dielectric constant tensor:
#      x y z
#    x 1.627450 0.000000 0.000000 
#    y 0.000000 1.626240 0.000000 
#    z 0.000000 0.000000 1.548000 
# 
# From -- ./inp_files/3757.got.cif
#   From: 2010.05.17/outbox.cif.g08.bks.cpg/sg71_2_cif.got.tgz:3757.got - 2010.06.03 16:22:01.
