data_PCOD9524857
_publ_section_title
;
Structure prediction by ZEFSAII (Michael W. Deem and Ramdas Pophale) SiO2 
 PCOD9524857
Probable space group: I M M M
;
_chemical_formula_sum "Si O2"
_cell_formula_units_Z 48
_cell_length_a 24.000000
_cell_length_b 24.000000
_cell_length_c 9.000000
_cell_angle_alpha 90.000000
_cell_angle_beta 90.000000
_cell_angle_gamma 90.000000
_cell_volume 5184.000000
_symmetry_space_group_name_H-M "I M M M"
_symmetry_group_IT_number 71
_symmetry_cell_setting 'orthorhombic'
loop_
_space_group_symop_operation_xyz
x,y,z
-x,-y,z
x,-y,-z
-x,y,-z
-x,-y,-z
x,y,-z
-x,y,z
x,-y,z
1/2+x,1/2+y,1/2+z
1/2-x,1/2-y,1/2+z
1/2+x,1/2-y,1/2-z
1/2-x,1/2+y,1/2-z
1/2-x,1/2-y,1/2-z
1/2+x,1/2+y,1/2-z
1/2-x,1/2+y,1/2+z
1/2+x,1/2-y,1/2+z
loop_
_atom_site_type_symbol
_atom_site_label
_atom_site_fract_x
_atom_site_fract_y
_atom_site_fract_z
Si Si1 0.438422 0.299052 0.831602
Si Si2 0.062945 0.000000 0.176864
Si Si3 0.631128 0.901995 0.825483
Si Si4 0.366445 0.594530 0.171385
Si Si5 0.244913 0.066607 0.174520
Si Si6 0.563330 0.000000 0.677081
Si Si7 0.436380 0.186384 0.328187
O O1 0.500000 0.325967 0.820801
O O2 0.391271 0.344274 0.813821
O O3 0.435312 0.251214 0.710575
O O4 0.435064 0.275292 0.000000
O O5 0.096368 0.946799 0.232639
O O6 0.000000 0.000000 0.234937
O O7 0.061731 0.000000 0.000000
O O8 0.695557 0.908187 0.786626
O O9 0.595465 0.946668 0.736318
O O10 0.606116 0.843355 0.780143
O O11 0.625739 0.913347 0.000000
O O12 0.303913 0.590628 0.227132
O O13 0.370406 0.577433 0.000000
O O14 0.247652 0.000000 0.194502
O O15 0.233577 0.076855 0.000000
O O16 0.500000 0.000000 0.731431
O O17 0.563012 0.000000 0.500000
O O18 0.423332 0.175560 0.500000
O O19 0.500000 0.166627 0.300911
#
# Coordination Sequence:
#
# PCOD9524857 Si02
#       7
#    16   8  16  16  16   8  16
#     4   9  19  37  59  83 113 148 185 228 278 333
#     4  11  23  36  53  80 115 152 186 225 280 341
#     4  11  22  38  59  82 110 149 193 232 277 333
#     4  11  22  36  58  86 113 145 189 236 283 333
#     4  10  21  39  58  79 112 151 191 233 277 331
#     4  11  23  36  53  82 117 146 178 229 286 337
#     4  10  21  37  58  86 117 147 183 230 283 337
#
# _framework density 9.2592590000000001
#
# number of rings (size 3 to 8) (size 9 to 14) (size 15 to 20)
#    0.000    1.667    1.667    3.000    0.000    7.667 
#    0.000    2.500    0.000    0.000    0.000    0.000 
#    0.000    0.000    0.000    0.000    0.000    0.000 
#
# Total GULP energy -267894.012414 kJ/mol
# GULP energy per Si atom -5581.125259 kJ/mol
# Density = 0.923818 g / cm^3
# Si number density = 9.259259 Si / 1000 Ang^3
#
#
#
# Elastic Constant Matrix: (Units=GPa)
#
#
# Indices 1 2 3 4 5 6 
#
# 1 100.7090 34.8204 64.7633 0.0000 0.0000 0.0000
# 2 34.8204 34.3522 22.4535 0.0000 0.0000 0.0000
# 3 64.7633 22.4535 33.7465 0.0000 0.0000 0.0000
# 4 0.0000 0.0000 0.0000 43.4693 0.0000 0.0000
# 5 0.0000 0.0000 0.0000 0.0000 34.0940 0.0000
# 6 0.0000 0.0000 0.0000 0.0000 0.0000 61.5067
#
#
#
# Elastic Compliance Matrix: (Units=1/GPa)
#
#
# Indices 1 2 3 4 5 6 
#
# 1 -0.036898 -0.015719 0.081269 0.000000 0.000000 0.000000
# 2 -0.015719 0.044816 0.000348 0.000000 0.000000 0.000000
# 3 0.081269 0.000348 -0.126564 0.000000 0.000000 0.000000
# 4 0.000000 0.000000 0.000000 0.023005 0.000000 0.000000
# 5 0.000000 0.000000 0.000000 0.000000 0.029331 0.000000
# 6 0.000000 0.000000 0.000000 0.000000 0.000000 0.016258
#
#
# Mechanical properties :
#
#
# Convention : Reuss Voigt Hill
#
# Bulk Modulus (GPa) = 76.03691 45.87579 60.95635
# Shear Modulus (GPa) = -28.17465 30.93203 1.37869
#
# Velocity S-wave (km/s) = -3.90478 4.09140 0.86377
# Velocity P-wave (km/s) = 4.56281 6.86630 5.82947
#
# Compressibility (1/GPa) = 0.01315151
#
# Stress axis : x y z
#
# Youngs Moduli (GPa) = -27.10207 22.31343 -7.90115
#
# Poissons Ratio (x) = 0.35075 0.64212
# Poissons Ratio (y) = -0.42603 0.00275
# Poissons Ratio (z) = 2.20257 -0.00777
#
# Static dielectric constant tensor:
#      x y z
#    x 1.614460 0.000000 0.000000 
#    y 0.000000 1.645070 0.000000 
#    z 0.000000 0.000000 1.619560 
# 
# From -- ./inp_files/12948.got.cif
#   From: 2010.05.17/outbox.ucp.g08.bks.cvg/sg71_7_cif.got.tgz:12948.got - 2010.06.11 16:29:00.
