data_PCOD9524375
_publ_section_title
;
Structure prediction by ZEFSAII (Michael W. Deem and Ramdas Pophale) SiO2 
 PCOD9524375
Probable space group: I M M M
;
_chemical_formula_sum "Si O2"
_cell_formula_units_Z 64
_cell_length_a 8.903400
_cell_length_b 13.433115
_cell_length_c 28.092641
_cell_angle_alpha 90.000000
_cell_angle_beta 90.000000
_cell_angle_gamma 90.000000
_cell_volume 3359.890991
_symmetry_space_group_name_H-M "I M M M"
_symmetry_group_IT_number 71
_symmetry_cell_setting 'orthorhombic'
loop_
_space_group_symop_operation_xyz
x,y,z
-x,-y,z
x,-y,-z
-x,y,-z
-x,-y,-z
x,y,-z
-x,y,z
x,-y,z
1/2+x,1/2+y,1/2+z
1/2-x,1/2-y,1/2+z
1/2+x,1/2-y,1/2-z
1/2-x,1/2+y,1/2-z
1/2-x,1/2-y,1/2-z
1/2+x,1/2+y,1/2-z
1/2-x,1/2+y,1/2+z
1/2+x,1/2-y,1/2+z
loop_
_atom_site_type_symbol
_atom_site_label
_atom_site_fract_x
_atom_site_fract_y
_atom_site_fract_z
Si Si1 0.824624 0.500000 0.746233
Si Si2 0.319608 0.500000 0.146701
Si Si3 0.171384 0.184620 0.789327
Si Si4 0.177532 0.611787 0.557228
Si Si5 0.827490 0.702991 0.889271
O O1 0.742683 0.500000 0.798281
O O2 0.775289 0.410168 0.712894
O O3 0.000000 0.500000 0.756983
O O4 0.500000 0.500000 0.148338
O O5 0.260251 0.599192 0.119385
O O6 0.250000 0.250000 0.750000
O O7 0.169641 0.244538 0.837814
O O8 0.000000 0.158266 0.776685
O O9 0.192026 0.613530 0.500000
O O10 0.231618 0.500000 0.572973
O O11 0.256667 0.710195 0.577928
O O12 0.000000 0.617150 0.568786
O O13 0.000000 0.682002 0.903721
#
# Coordination Sequence:
#
# PCOD9524375 Si02
#       5
#     8   8  16  16  16
#     4  12  24  38  56  81 118 159 204 254 300 353
#     4  12  24  40  63  85 118 163 207 249 302 361
#     4  11  23  38  57  83 119 160 203 248 298 354
#     4   9  20  41  67  94 124 157 196 244 300 361
#     4  11  24  40  61  90 124 158 202 252 302 358
#
# _framework density 19.048238999999999
#
# number of rings (size 3 to 8) (size 9 to 14) (size 15 to 20)
#    0.000    1.250    2.500    4.500    1.750    4.000 
#    0.000    1.875    0.000    3.750    0.000    0.000 
#    0.000    0.000    0.000    0.000    0.000    0.000 
#
# Total GULP energy -178441.870551 kJ/mol
# GULP energy per Si atom -5576.308455 kJ/mol
# Density = 1.900488 g / cm^3
# Si number density = 19.048239 Si / 1000 Ang^3
#
#
#
# Elastic Constant Matrix: (Units=GPa)
#
#
# Indices 1 2 3 4 5 6 
#
# 1 152.2760 75.0850 31.8536 0.0000 0.0000 0.0000
# 2 75.0850 163.7952 23.8667 0.0000 0.0000 0.0000
# 3 31.8536 23.8667 34.0011 0.0000 0.0000 0.0000
# 4 0.0000 0.0000 0.0000 35.0644 0.0000 0.0000
# 5 0.0000 0.0000 0.0000 0.0000 26.5928 0.0000
# 6 0.0000 0.0000 0.0000 0.0000 0.0000 33.5044
#
#
#
# Elastic Compliance Matrix: (Units=1/GPa)
#
#
# Indices 1 2 3 4 5 6 
#
# 1 0.009659 -0.003464 -0.006618 0.000000 0.000000 0.000000
# 2 -0.003464 0.008043 -0.002401 0.000000 0.000000 0.000000
# 3 -0.006618 -0.002401 0.037296 0.000000 0.000000 0.000000
# 4 0.000000 0.000000 0.000000 0.028519 0.000000 0.000000
# 5 0.000000 0.000000 0.000000 0.000000 0.037604 0.000000
# 6 0.000000 0.000000 0.000000 0.000000 0.000000 0.029847
#
#
# Mechanical properties :
#
#
# Convention : Reuss Voigt Hill
#
# Bulk Modulus (GPa) = 33.29619 67.96479 50.63049
# Shear Modulus (GPa) = 26.88991 33.65012 30.27001
#
# Velocity S-wave (km/s) = 3.76130 4.20762 3.99071
# Velocity P-wave (km/s) = 6.03167 7.70476 6.91897
#
# Compressibility (1/GPa) = 0.03003346
#
# Stress axis : x y z
#
# Youngs Moduli (GPa) = 103.52811 124.33617 26.81258
#
# Poissons Ratio (x) = 0.43065 0.17744
# Poissons Ratio (y) = 0.35858 0.06437
# Poissons Ratio (z) = 0.68514 0.29849
#
# Static dielectric constant tensor:
#      x y z
#    x 1.665160 0.000000 0.000000 
#    y 0.000000 1.659380 0.000000 
#    z 0.000000 0.000000 1.626910 
# 
# From -- ./inp_files/16179.got.cif
#   From: 2010.05.17/outbox.cif.g08.bks.cpg/sg71_9_cif.got.tgz:16179.got - 2010.06.03 16:22:01.
