data_PCOD9524512
_publ_section_title
;
Structure prediction by ZEFSAII (Michael W. Deem and Ramdas Pophale) SiO2 
 PCOD9524512
Probable space group: I M M M
;
_chemical_formula_sum "Si O2"
_cell_formula_units_Z 96
_cell_length_a 7.271832
_cell_length_b 13.210636
_cell_length_c 37.005282
_cell_angle_alpha 90.000000
_cell_angle_beta 90.000000
_cell_angle_gamma 90.000000
_cell_volume 3554.931865
_symmetry_space_group_name_H-M "I M M M"
_symmetry_group_IT_number 71
_symmetry_cell_setting 'orthorhombic'
loop_
_space_group_symop_operation_xyz
x,y,z
-x,-y,z
x,-y,-z
-x,y,-z
-x,-y,-z
x,y,-z
-x,y,z
x,-y,z
1/2+x,1/2+y,1/2+z
1/2-x,1/2-y,1/2+z
1/2+x,1/2-y,1/2-z
1/2-x,1/2+y,1/2-z
1/2-x,1/2-y,1/2-z
1/2+x,1/2+y,1/2-z
1/2-x,1/2+y,1/2+z
1/2+x,1/2-y,1/2+z
loop_
_atom_site_type_symbol
_atom_site_label
_atom_site_fract_x
_atom_site_fract_y
_atom_site_fract_z
Si Si1 0.213029 0.121003 0.194533
Si Si2 0.710639 0.107666 0.543254
Si Si3 0.216909 0.613955 0.852237
Si Si4 0.275555 0.338186 0.459972
Si Si5 0.279925 0.616968 0.771371
Si Si6 0.274898 0.681858 0.616417
O O1 0.293503 0.158499 0.232991
O O2 0.290153 0.138981 0.154719
O O3 0.000000 0.154741 0.193165
O O4 0.211902 0.000000 0.199159
O O5 0.701329 0.096568 0.500000
O O6 0.500000 0.112305 0.557049
O O7 0.784039 0.221099 0.544839
O O8 0.789082 0.000000 0.557079
O O9 0.294407 0.500000 0.854525
O O10 0.242281 0.657567 0.811512
O O11 0.280786 0.699153 0.880202
O O12 0.000000 0.605277 0.857271
O O13 0.215476 0.374304 0.500000
O O14 0.500000 0.342595 0.461396
O O15 0.220362 0.376389 0.420208
O O16 0.500000 0.614367 0.767895
O O17 0.213935 0.500000 0.774511
O O18 0.500000 0.678808 0.616330
#
# Coordination Sequence:
#
# PCOD9524512 Si02
#       6
#    16  16  16  16  16  16
#     4   8  14  25  40  55  69  90 128 173 203 226
#     4   7   9  13  21  33  49  72 106 143 170 197
#     4   9  17  27  38  57  87 114 131 155 197 242
#     4   8  13  20  29  42  63  93 126 156 188 230
#     4   8  14  26  43  59  76 104 141 171 191 221
#     4   9  16  24  35  52  74 101 129 158 199 243
#
# _framework density 27.004738
#
# number of rings (size 3 to 8) (size 9 to 14) (size 15 to 20)
#    0.000    3.833    0.000    2.500    0.000    1.333 
#    0.000    3.333    0.000    0.500    0.000    3.500 
#    0.000    0.667    0.000    4.167    0.000    4.333 
#
# Total GULP energy -267485.288482 kJ/mol
# GULP energy per Si atom -5572.610177 kJ/mol
# Density = 2.694327 g / cm^3
# Si number density = 27.004738 Si / 1000 Ang^3
#
#
#
# Elastic Constant Matrix: (Units=GPa)
#
#
# Indices 1 2 3 4 5 6 
#
# 1 117.1451 1.8151 4.6611 0.0000 0.0000 0.0000
# 2 1.8151 65.0016 30.5334 0.0000 0.0000 0.0000
# 3 4.6611 30.5334 304.4058 0.0000 0.0000 0.0000
# 4 0.0000 0.0000 0.0000 2.1263 0.0000 0.0000
# 5 0.0000 0.0000 0.0000 0.0000 -2.9411 0.0000
# 6 0.0000 0.0000 0.0000 0.0000 0.0000 -7.9887
#
#
#
# Elastic Compliance Matrix: (Units=1/GPa)
#
#
# Indices 1 2 3 4 5 6 
#
# 1 0.008544 -0.000186 -0.000112 0.000000 0.000000 0.000000
# 2 -0.000186 0.016149 -0.001617 0.000000 0.000000 0.000000
# 3 -0.000112 -0.001617 0.003449 0.000000 0.000000 0.000000
# 4 0.000000 0.000000 0.000000 0.470303 0.000000 0.000000
# 5 0.000000 0.000000 0.000000 0.000000 -0.340007 0.000000
# 6 0.000000 0.000000 0.000000 0.000000 0.000000 -0.125177
#
#
# Mechanical properties :
#
#
# Convention : Reuss Voigt Hill
#
# Bulk Modulus (GPa) = 41.13253 62.28576 51.70914
# Shear Modulus (GPa) = 110.63494 28.20883 69.42188
#
# Velocity S-wave (km/s) = 6.40762 3.23551 5.07574
# Velocity P-wave (km/s) = 8.36709 6.08875 7.31714
#
# Compressibility (1/GPa) = 0.02431166
#
# Stress axis : x y z
#
# Youngs Moduli (GPa) = 117.04442 61.92344 289.93936
#
# Poissons Ratio (x) = 0.01151 0.03252
# Poissons Ratio (y) = 0.02176 0.46883
# Poissons Ratio (z) = 0.01313 0.10013
#
# Static dielectric constant tensor:
#      x y z
#    x 1.993830 0.000000 0.000000 
#    y 0.000000 2.232940 0.000000 
#    z 0.000000 0.000000 2.144610 
# 
# From -- ./inp_files/64593.got.cif
#   From: 2010.05.17/outbox.cif.g08.bks.cpg/sg71_33_cif.got.tgz:64593.got - 2010.06.03 16:22:01.
