data_PCOD9524999
_publ_section_title
;
Structure prediction by ZEFSAII (Michael W. Deem and Ramdas Pophale) SiO2 
 PCOD9524999
Probable space group: I B A M
;
_chemical_formula_sum "Si O2"
_cell_formula_units_Z 56
_cell_length_a 5.332304
_cell_length_b 14.231996
_cell_length_c 29.789766
_cell_angle_alpha 90.000000
_cell_angle_beta 90.000000
_cell_angle_gamma 90.000000
_cell_volume 2260.725359
_symmetry_space_group_name_H-M "I B A M"
_symmetry_group_IT_number 72
_symmetry_cell_setting 'orthorhombic'
loop_
_space_group_symop_operation_xyz
x,y,z
-x,-y,z
x,-y,1/2-z
-x,y,1/2-z
-x,-y,-z
x,y,-z
-x,y,1/2+z
x,-y,1/2+z
1/2+x,1/2+y,1/2+z
1/2-x,1/2-y,1/2+z
1/2+x,1/2-y,-z
1/2-x,1/2+y,-z
1/2-x,1/2-y,1/2-z
1/2+x,1/2+y,1/2-z
1/2-x,1/2+y,z
1/2+x,1/2-y,z
loop_
_atom_site_type_symbol
_atom_site_label
_atom_site_fract_x
_atom_site_fract_y
_atom_site_fract_z
Si Si1 0.060360 0.107882 0.370578
Si Si2 0.556911 0.110326 0.406419
Si Si3 0.245597 0.893229 0.769601
Si Si4 0.787779 0.689085 0.500000
O O1 0.275008 0.152035 0.402139
O O2 0.198129 0.105291 0.322542
O O3 0.775214 0.146499 0.372396
O O4 0.000000 0.000000 0.383852
O O5 0.668540 0.128091 0.455352
O O6 0.500000 0.000000 0.398448
O O7 0.500000 0.853411 0.750000
O O8 0.000000 0.846453 0.750000
O O9 0.245782 0.000000 0.750000
O O10 0.011981 0.765880 0.500000
#
# Coordination Sequence:
#
# PCOD9524999 Si02
#       4
#    16  16  16   8
#     4  10  18  31  49  81 119 163 184 234 285 362
#     4  10  22  37  60  85 120 155 194 240 309 353
#     4  10  17  24  42  71 118 160 186 215 283 342
#     4  12  25  44  65  86 114 152 208 254 297 360
#
# _framework density 24.770810999999998
#
# number of rings (size 3 to 8) (size 9 to 14) (size 15 to 20)
#    0.000    1.714    2.857    3.857    8.000    0.000 
#    0.000    5.714    0.000    0.000    0.000    0.000 
#    0.000   80.000    0.000    0.000    0.000    0.000 
#
# Total GULP energy -156275.054025 kJ/mol
# GULP energy per Si atom -5581.251929 kJ/mol
# Density = 2.471443 g / cm^3
# Si number density = 24.770811 Si / 1000 Ang^3
#
#
#
# Elastic Constant Matrix: (Units=GPa)
#
#
# Indices 1 2 3 4 5 6 
#
# 1 263.9499 13.3396 49.7309 0.0000 0.0000 0.0000
# 2 13.3396 93.5353 -6.9658 0.0000 0.0000 0.0000
# 3 49.7309 -6.9658 116.1677 0.0000 0.0000 0.0000
# 4 0.0000 0.0000 0.0000 -25.4978 0.0000 0.0000
# 5 0.0000 0.0000 0.0000 0.0000 48.0893 0.0000
# 6 0.0000 0.0000 0.0000 0.0000 0.0000 14.9425
#
#
#
# Elastic Compliance Matrix: (Units=1/GPa)
#
#
# Indices 1 2 3 4 5 6 
#
# 1 0.004170 -0.000731 -0.001829 0.000000 0.000000 0.000000
# 2 -0.000731 0.010867 0.000965 0.000000 0.000000 0.000000
# 3 -0.001829 0.000965 0.009449 0.000000 0.000000 0.000000
# 4 0.000000 0.000000 0.000000 -0.039219 0.000000 0.000000
# 5 0.000000 0.000000 0.000000 0.000000 0.020795 0.000000
# 6 0.000000 0.000000 0.000000 0.000000 0.000000 0.066923
#
#
# Mechanical properties :
#
#
# Convention : Reuss Voigt Hill
#
# Bulk Modulus (GPa) = 46.95809 65.09579 56.02694
# Shear Modulus (GPa) = 60.04231 35.34334 47.69283
#
# Velocity S-wave (km/s) = 4.92867 3.78142 4.39266
# Velocity P-wave (km/s) = 7.16849 6.73808 6.95661
#
# Compressibility (1/GPa) = 0.02129559
#
# Stress axis : x y z
#
# Youngs Moduli (GPa) = 239.79943 92.01975 105.83025
#
# Poissons Ratio (x) = 0.06726 0.19357
# Poissons Ratio (y) = 0.17528 -0.10208
# Poissons Ratio (z) = 0.43861 -0.08876
#
# Static dielectric constant tensor:
#      x y z
#    x 2.042690 0.000000 0.000000 
#    y 0.000000 1.948410 0.000000 
#    z 0.000000 0.000000 2.047150 
# 
# From -- ./inp_files/50072.got.cif
#   From: 2010.05.17/outbox.cif.g08.bks.cpg/sg72_26_cif.got.tgz:50072.got - 2010.06.03 17:03:01.
