data_PCOD9524511
_publ_section_title
;
Structure prediction by ZEFSAII (Michael W. Deem and Ramdas Pophale) SiO2 
 PCOD9524511
Probable space group: I M M M
;
_chemical_formula_sum "Si O2"
_cell_formula_units_Z 88
_cell_length_a 18.341885
_cell_length_b 7.266464
_cell_length_c 25.621448
_cell_angle_alpha 90.000000
_cell_angle_beta 90.000000
_cell_angle_gamma 90.000000
_cell_volume 3414.843168
_symmetry_space_group_name_H-M "I M M M"
_symmetry_group_IT_number 71
_symmetry_cell_setting 'orthorhombic'
loop_
_space_group_symop_operation_xyz
x,y,z
-x,-y,z
x,-y,-z
-x,y,-z
-x,-y,-z
x,y,-z
-x,y,z
x,-y,z
1/2+x,1/2+y,1/2+z
1/2-x,1/2-y,1/2+z
1/2+x,1/2-y,1/2-z
1/2-x,1/2+y,1/2-z
1/2-x,1/2-y,1/2-z
1/2+x,1/2+y,1/2-z
1/2-x,1/2+y,1/2+z
1/2+x,1/2-y,1/2+z
loop_
_atom_site_type_symbol
_atom_site_label
_atom_site_fract_x
_atom_site_fract_y
_atom_site_fract_z
Si Si1 0.386193 0.703411 0.341627
Si Si2 0.079916 0.224296 0.275151
Si Si3 0.000000 0.723718 0.562067
Si Si4 0.730364 0.282990 0.810054
Si Si5 0.156691 0.715656 0.437066
Si Si6 0.679520 0.725797 0.439834
O O1 0.418862 0.500000 0.344104
O O2 0.411370 0.785289 0.286005
O O3 0.298674 0.688303 0.335987
O O4 0.383805 0.787930 0.399448
O O5 0.147134 0.284159 0.311331
O O6 0.000000 0.277727 0.293840
O O7 0.084360 0.000000 0.273159
O O8 0.921359 0.790842 0.582542
O O9 0.000000 0.500000 0.566020
O O10 0.000000 0.765666 0.500000
O O11 0.732848 0.500000 0.820701
O O12 0.750000 0.250000 0.750000
O O13 0.152843 0.726675 0.500000
O O14 0.158706 0.500000 0.423579
O O15 0.237337 0.789950 0.425137
O O16 0.667358 0.779288 0.500000
O O17 0.679791 0.500000 0.439441
#
# Coordination Sequence:
#
# PCOD9524511 Si02
#       6
#    16  16   8  16  16  16
#     4   9  16  26  43  64  87 115 144 178 213 250
#     4   8  14  25  42  63  83 107 141 173 205 255
#     4   7   8  10  18  32  50  76 113 153 189 225
#     4   9  16  27  45  66  86 109 136 171 214 260
#     4   7   9  13  22  37  57  84 121 160 191 225
#     4   8  13  21  34  53  77 108 145 178 207 241
#
# _framework density 25.769849000000001
#
# number of rings (size 3 to 8) (size 9 to 14) (size 15 to 20)
#    0.000    3.909    0.000    3.818    0.000    0.000 
#    0.000    0.000    2.000   14.727    0.000    3.818 
#    0.000    0.000    0.000   11.091    0.000    7.273 
#
# Total GULP energy -245113.683111 kJ/mol
# GULP energy per Si atom -5570.765525 kJ/mol
# Density = 2.571120 g / cm^3
# Si number density = 25.769849 Si / 1000 Ang^3
#
#
#
# Elastic Constant Matrix: (Units=GPa)
#
#
# Indices 1 2 3 4 5 6 
#
# 1 117.4301 9.3854 16.2590 0.0000 0.0000 0.0000
# 2 9.3854 125.0014 7.4430 0.0000 0.0000 0.0000
# 3 16.2590 7.4430 42.8402 0.0000 0.0000 0.0000
# 4 0.0000 0.0000 0.0000 -8.9352 0.0000 0.0000
# 5 0.0000 0.0000 0.0000 0.0000 26.0768 0.0000
# 6 0.0000 0.0000 0.0000 0.0000 0.0000 -6.3075
#
#
#
# Elastic Compliance Matrix: (Units=1/GPa)
#
#
# Indices 1 2 3 4 5 6 
#
# 1 0.009016 -0.000478 -0.003339 0.000000 0.000000 0.000000
# 2 -0.000478 0.008109 -0.001227 0.000000 0.000000 0.000000
# 3 -0.003339 -0.001227 0.024823 0.000000 0.000000 0.000000
# 4 0.000000 0.000000 0.000000 -0.111917 0.000000 0.000000
# 5 0.000000 0.000000 0.000000 0.000000 0.038348 0.000000
# 6 0.000000 0.000000 0.000000 0.000000 0.000000 -0.158542
#
#
# Mechanical properties :
#
#
# Convention : Reuss Voigt Hill
#
# Bulk Modulus (GPa) = 31.38788 39.04960 35.21874
# Shear Modulus (GPa) = -29.50646 18.97911 -5.26368
#
# Velocity S-wave (km/s) = -3.38745 2.71677 -1.43074
# Velocity P-wave (km/s) = 1.75877 5.00272 3.31164
#
# Compressibility (1/GPa) = 0.03185943
#
# Stress axis : x y z
#
# Youngs Moduli (GPa) = 110.91145 123.32138 40.28526
#
# Poissons Ratio (x) = 0.05897 0.13451
# Poissons Ratio (y) = 0.05303 0.04944
# Poissons Ratio (z) = 0.37031 0.15136
#
# Static dielectric constant tensor:
#      x y z
#    x 1.984510 0.000000 0.000000 
#    y 0.000000 2.031750 0.000000 
#    z 0.000000 0.000000 3.070940 
# 
# From -- ./inp_files/70680.got.cif
#   From: 2010.05.17/outbox.cif.g08.bks.cpg/sg71_36_cif.got.tgz:70680.got - 2010.06.03 16:22:01.
