data_PCOD9524131
_publ_section_title
;
Structure prediction by ZEFSAII (Michael W. Deem and Ramdas Pophale) SiO2 
 PCOD9524131
Probable space group: I M M M
;
_chemical_formula_sum "Si O2"
_cell_formula_units_Z 104
_cell_length_a 8.924391
_cell_length_b 29.080855
_cell_length_c 24.875115
_cell_angle_alpha 90.000000
_cell_angle_beta 90.000000
_cell_angle_gamma 90.000000
_cell_volume 6455.811747
_symmetry_space_group_name_H-M "I M M M"
_symmetry_group_IT_number 71
_symmetry_cell_setting 'orthorhombic'
loop_
_space_group_symop_operation_xyz
x,y,z
-x,-y,z
x,-y,-z
-x,y,-z
-x,-y,-z
x,y,-z
-x,y,z
x,-y,z
1/2+x,1/2+y,1/2+z
1/2-x,1/2-y,1/2+z
1/2+x,1/2-y,1/2-z
1/2-x,1/2+y,1/2-z
1/2-x,1/2-y,1/2-z
1/2+x,1/2+y,1/2-z
1/2-x,1/2+y,1/2+z
1/2+x,1/2-y,1/2+z
loop_
_atom_site_type_symbol
_atom_site_label
_atom_site_fract_x
_atom_site_fract_y
_atom_site_fract_z
Si Si1 0.179038 0.946001 0.238208
Si Si2 0.818720 0.674868 0.436629
Si Si3 0.672620 0.722842 0.065231
Si Si4 0.319620 0.872134 0.438090
Si Si5 0.821291 0.500000 0.564030
Si Si6 0.680836 0.052997 0.648213
Si Si7 0.680199 0.411780 0.377640
O O1 0.258881 0.932642 0.293422
O O2 0.221731 0.918057 0.185064
O O3 0.000000 0.942403 0.245356
O O4 0.213609 0.000000 0.227977
O O5 0.781518 0.669269 0.500000
O O6 0.773187 0.726384 0.418488
O O7 0.743165 0.634892 0.402742
O O8 0.000000 0.672313 0.432667
O O9 0.500000 0.717470 0.082237
O O10 0.764614 0.677925 0.080937
O O11 0.673675 0.724165 0.000000
O O12 0.268912 0.879088 0.500000
O O13 0.500000 0.872332 0.438547
O O14 0.268157 0.912445 0.398409
O O15 0.796004 0.500000 0.500000
O O16 0.748823 0.545147 0.590235
O O17 0.000000 0.500000 0.573416
O O18 0.500000 0.053531 0.649213
O O19 0.728454 0.000000 0.638701
O O20 0.500000 0.413444 0.381584
#
# Coordination Sequence:
#
# PCOD9524131 Si02
#       7
#    16  16  16  16   8  16  16
#     4   9  18  34  50  65  90 123 160 200 240 279
#     4   9  18  32  48  69  97 126 158 197 241 288
#     4   8  15  29  48  68  93 126 161 194 229 279
#     4   9  17  29  47  73 103 129 153 188 234 281
#     4  11  23  35  47  67  97 131 162 195 240 291
#     4   9  18  31  48  72  98 126 161 194 228 279
#     4  11  21  33  49  70  95 124 160 203 246 288
#
# _framework density 16.109515999999999
#
# number of rings (size 3 to 8) (size 9 to 14) (size 15 to 20)
#    0.000    2.692    0.769    2.077    0.000    5.538 
#    0.000    3.077    0.000    0.923    0.000    4.308 
#    0.000    0.000    0.000    0.000    0.000    0.000 
#
# Total GULP energy -289774.254983 kJ/mol
# GULP energy per Si atom -5572.581827 kJ/mol
# Density = 1.607285 g / cm^3
# Si number density = 16.109516 Si / 1000 Ang^3
#
#
#
# Elastic Constant Matrix: (Units=GPa)
#
#
# Indices 1 2 3 4 5 6 
#
# 1 21.8594 38.9859 36.9228 0.0000 0.0000 0.0000
# 2 38.9859 139.5502 88.2185 0.0000 0.0000 0.0000
# 3 36.9228 88.2185 105.3231 0.0000 0.0000 0.0000
# 4 0.0000 0.0000 0.0000 3.4244 0.0000 0.0000
# 5 0.0000 0.0000 0.0000 0.0000 22.1646 0.0000
# 6 0.0000 0.0000 0.0000 0.0000 0.0000 27.4508
#
#
#
# Elastic Compliance Matrix: (Units=1/GPa)
#
#
# Indices 1 2 3 4 5 6 
#
# 1 0.126164 -0.015486 -0.031258 0.000000 0.000000 0.000000
# 2 -0.015486 0.017131 -0.008920 0.000000 0.000000 0.000000
# 3 -0.031258 -0.008920 0.027924 0.000000 0.000000 0.000000
# 4 0.000000 0.000000 0.000000 0.292026 0.000000 0.000000
# 5 0.000000 0.000000 0.000000 0.000000 0.045117 0.000000
# 6 0.000000 0.000000 0.000000 0.000000 0.000000 0.036429
#
#
# Mechanical properties :
#
#
# Convention : Reuss Voigt Hill
#
# Bulk Modulus (GPa) = 16.69698 66.10968 41.40333
# Shear Modulus (GPa) = 7.39554 17.44832 12.42193
#
# Velocity S-wave (km/s) = 2.14494 3.29463 2.77987
# Velocity P-wave (km/s) = 4.06467 7.45651 6.00504
#
# Compressibility (1/GPa) = 0.05989105
#
# Stress axis : x y z
#
# Youngs Moduli (GPa) = 7.92619 58.37294 35.81159
#
# Poissons Ratio (x) = 0.90398 1.11938
# Poissons Ratio (y) = 0.12275 0.31944
# Poissons Ratio (z) = 0.24775 0.52069
#
# Static dielectric constant tensor:
#      x y z
#    x 1.543670 0.000000 0.000000 
#    y 0.000000 1.536910 0.000000 
#    z 0.000000 0.000000 1.524620 
# 
# From -- ./inp_files/15554.got.cif
#   From: 2010.05.17/outbox.cif.g08.bks.cpg/sg71_8_cif.got.tgz:15554.got - 2010.06.03 16:22:01.
