data_PCOD9524061
_publ_section_title
;
Structure prediction by ZEFSAII (Michael W. Deem and Ramdas Pophale) SiO2 
 PCOD9524061
Probable space group: I M M M
;
_chemical_formula_sum "Si O2"
_cell_formula_units_Z 108
_cell_length_a 17.142418
_cell_length_b 14.772872
_cell_length_c 25.003680
_cell_angle_alpha 90.000000
_cell_angle_beta 90.000000
_cell_angle_gamma 90.000000
_cell_volume 6332.000605
_symmetry_space_group_name_H-M "I M M M"
_symmetry_group_IT_number 71
_symmetry_cell_setting 'orthorhombic'
loop_
_space_group_symop_operation_xyz
x,y,z
-x,-y,z
x,-y,-z
-x,y,-z
-x,-y,-z
x,y,-z
-x,y,z
x,-y,z
1/2+x,1/2+y,1/2+z
1/2-x,1/2-y,1/2+z
1/2+x,1/2-y,1/2-z
1/2-x,1/2+y,1/2-z
1/2-x,1/2-y,1/2-z
1/2+x,1/2+y,1/2-z
1/2-x,1/2+y,1/2+z
1/2+x,1/2-y,1/2+z
loop_
_atom_site_type_symbol
_atom_site_label
_atom_site_fract_x
_atom_site_fract_y
_atom_site_fract_z
Si Si1 0.092354 0.894843 0.564299
Si Si2 0.687606 0.605721 0.396417
Si Si3 0.500000 0.500000 0.756129
Si Si4 0.309320 0.743326 0.136368
Si Si5 0.123869 0.140095 0.783361
Si Si6 0.411051 0.176206 0.766811
Si Si7 0.588660 0.609581 0.500000
Si Si8 0.730484 0.898586 0.711932
O O1 0.101583 0.886473 0.500000
O O2 0.143411 0.820954 0.595450
O O3 0.000000 0.882493 0.576570
O O4 0.111338 0.000000 0.578787
O O5 0.711996 0.500000 0.401685
O O6 0.759519 0.674317 0.388300
O O7 0.631175 0.611885 0.344699
O O8 0.637483 0.634110 0.447664
O O9 0.567651 0.422555 0.750992
O O10 0.369793 0.785282 0.179533
O O11 0.249113 0.676748 0.167474
O O12 0.093524 0.240329 0.774603
O O13 0.209897 0.127912 0.759262
O O14 0.500000 0.148682 0.776098
O O15 0.354220 0.105131 0.738638
O O16 0.584071 0.500000 0.500000
O O17 0.500000 0.644274 0.500000
O O18 0.747518 0.000000 0.692747
#
# Coordination Sequence:
#
# PCOD9524061 Si02
#       8
#    16  16   4  16  16  16   8  16
#     4   9  19  37  59  84 112 141 178 232 288 333
#     4  11  21  36  55  79 111 147 179 221 277 328
#     4  12  20  28  60  85 100 144 181 220 288 324
#     4  11  21  35  55  84 110 146 183 230 276 330
#     4  11  20  34  53  81 109 141 178 224 276 329
#     4  11  22  35  51  77 111 146 189 224 267 324
#     4   9  22  36  54  80 108 135 174 224 274 333
#     4  11  21  37  53  76 114 148 182 227 275 321
#
# _framework density 17.056221000000001
#
# number of rings (size 3 to 8) (size 9 to 14) (size 15 to 20)
#    0.000    1.407    5.185    2.222    2.074    0.296 
#    0.000    0.000    0.000    1.333    0.000    1.037 
#    0.000    1.185    0.000    0.000    0.000    0.000 
#
# Total GULP energy -300632.768845 kJ/mol
# GULP energy per Si atom -5567.273497 kJ/mol
# Density = 1.701740 g / cm^3
# Si number density = 17.056221 Si / 1000 Ang^3
#
#
#
# Elastic Constant Matrix: (Units=GPa)
#
#
# Indices 1 2 3 4 5 6 
#
# 1 122.4126 38.5826 41.9065 0.0000 0.0000 0.0000
# 2 38.5826 82.0804 37.3523 0.0000 0.0000 0.0000
# 3 41.9065 37.3523 72.1758 0.0000 0.0000 0.0000
# 4 0.0000 0.0000 0.0000 -72.7343 0.0000 0.0000
# 5 0.0000 0.0000 0.0000 0.0000 5.7929 0.0000
# 6 0.0000 0.0000 0.0000 0.0000 0.0000 32.7792
#
#
#
# Elastic Compliance Matrix: (Units=1/GPa)
#
#
# Indices 1 2 3 4 5 6 
#
# 1 0.010692 -0.002879 -0.004718 0.000000 0.000000 0.000000
# 2 -0.002879 0.016711 -0.006977 0.000000 0.000000 0.000000
# 3 -0.004718 -0.006977 0.020205 0.000000 0.000000 0.000000
# 4 0.000000 0.000000 0.000000 -0.013749 0.000000 0.000000
# 5 0.000000 0.000000 0.000000 0.000000 0.172625 0.000000
# 6 0.000000 0.000000 0.000000 0.000000 0.000000 0.030507
#
#
# Mechanical properties :
#
#
# Convention : Reuss Voigt Hill
#
# Bulk Modulus (GPa) = 54.16895 56.92795 55.54845
# Shear Modulus (GPa) = 18.36258 3.75603 11.05931
#
# Velocity S-wave (km/s) = 3.28470 1.48557 2.54914
# Velocity P-wave (km/s) = 6.79807 6.03255 6.42672
#
# Compressibility (1/GPa) = 0.01846076
#
# Stress axis : x y z
#
# Youngs Moduli (GPa) = 93.53195 59.83956 49.49239
#
# Poissons Ratio (x) = 0.17226 0.23350
# Poissons Ratio (y) = 0.26925 0.34531
# Poissons Ratio (z) = 0.44128 0.41750
#
# Static dielectric constant tensor:
#      x y z
#    x 1.609160 0.000000 0.000000 
#    y 0.000000 1.619690 0.000000 
#    z 0.000000 0.000000 1.594430 
# 
# From -- ./inp_files/59955.got.cif
#   From: 2010.05.17/outbox.cif.g08.bks.cpg/sg71_30_cif.got.tgz:59955.got - 2010.06.03 16:22:01.
