data_PCOD9524025
_publ_section_title
;
Structure prediction by ZEFSAII (Michael W. Deem and Ramdas Pophale) SiO2 
 PCOD9524025
Probable space group: I M M M
;
_chemical_formula_sum "Si O2"
_cell_formula_units_Z 96
_cell_length_a 24.975296
_cell_length_b 24.999528
_cell_length_c 7.546674
_cell_angle_alpha 90.000000
_cell_angle_beta 90.000000
_cell_angle_gamma 90.000000
_cell_volume 4711.921461
_symmetry_space_group_name_H-M "I M M M"
_symmetry_group_IT_number 71
_symmetry_cell_setting 'orthorhombic'
loop_
_space_group_symop_operation_xyz
x,y,z
-x,-y,z
x,-y,-z
-x,y,-z
-x,-y,-z
x,y,-z
-x,y,z
x,-y,z
1/2+x,1/2+y,1/2+z
1/2-x,1/2-y,1/2+z
1/2+x,1/2-y,1/2-z
1/2-x,1/2+y,1/2-z
1/2-x,1/2-y,1/2-z
1/2+x,1/2+y,1/2-z
1/2-x,1/2+y,1/2+z
1/2+x,1/2-y,1/2+z
loop_
_atom_site_type_symbol
_atom_site_label
_atom_site_fract_x
_atom_site_fract_y
_atom_site_fract_z
Si Si1 0.939267 0.148438 0.283626
Si Si2 0.559937 0.936876 0.789122
Si Si3 0.855883 0.940212 0.715940
Si Si4 0.231674 0.439467 0.216939
Si Si5 0.439986 0.770194 0.211300
Si Si6 0.352465 0.857485 0.693616
O O1 0.937549 0.148637 0.500000
O O2 0.895361 0.106149 0.221836
O O3 0.929897 0.209630 0.225054
O O4 0.000000 0.133592 0.233499
O O5 0.500000 0.920803 0.738123
O O6 0.604335 0.905022 0.688112
O O7 0.564779 0.000000 0.763362
O O8 0.565735 0.925934 0.000000
O O9 0.856593 0.939496 0.500000
O O10 0.793807 0.932991 0.766408
O O11 0.872699 0.000000 0.770778
O O12 0.214222 0.500000 0.271980
O O13 0.196619 0.389321 0.284060
O O14 0.228278 0.439246 0.000000
O O15 0.500000 0.787204 0.276486
O O16 0.389587 0.808769 0.242760
O O17 0.444744 0.767801 0.000000
O O18 0.332884 0.841137 0.500000
#
# Coordination Sequence:
#
# PCOD9524025 Si02
#       6
#    16  16  16  16  16  16
#     4   8  14  25  42  64  88 115 146 177 213 262
#     4   9  18  31  44  59  82 111 142 181 233 285
#     4   8  13  23  41  64  90 117 141 170 215 269
#     4   8  15  27  40  57  85 117 143 173 222 273
#     4   9  18  32  46  60  86 122 151 179 223 274
#     4  11  20  28  42  63  85 113 155 197 220 246
#
# _framework density 20.373854000000001
#
# number of rings (size 3 to 8) (size 9 to 14) (size 15 to 20)
#    0.000    3.167    0.000    4.000    0.000    4.000 
#    0.000    3.333    0.000    0.000    0.000    1.167 
#    0.000    3.333    0.000    3.667    0.000    3.667 
#
# Total GULP energy -267372.219080 kJ/mol
# GULP energy per Si atom -5570.254564 kJ/mol
# Density = 2.032748 g / cm^3
# Si number density = 20.373854 Si / 1000 Ang^3
#
#
#
# Elastic Constant Matrix: (Units=GPa)
#
#
# Indices 1 2 3 4 5 6 
#
# 1 118.7674 101.5854 5.6335 0.0000 0.0000 0.0000
# 2 101.5854 138.8365 14.0773 0.0000 0.0000 0.0000
# 3 5.6335 14.0773 36.5240 0.0000 0.0000 0.0000
# 4 0.0000 0.0000 0.0000 35.6992 0.0000 0.0000
# 5 0.0000 0.0000 0.0000 0.0000 24.3505 0.0000
# 6 0.0000 0.0000 0.0000 0.0000 0.0000 40.2029
#
#
#
# Elastic Compliance Matrix: (Units=1/GPa)
#
#
# Indices 1 2 3 4 5 6 
#
# 1 0.022822 -0.017006 0.003035 0.000000 0.000000 0.000000
# 2 -0.017006 0.020168 -0.005150 0.000000 0.000000 0.000000
# 3 0.003035 -0.005150 0.028896 0.000000 0.000000 0.000000
# 4 0.000000 0.000000 0.000000 0.028012 0.000000 0.000000
# 5 0.000000 0.000000 0.000000 0.000000 0.041067 0.000000
# 6 0.000000 0.000000 0.000000 0.000000 0.000000 0.024874
#
#
# Mechanical properties :
#
#
# Convention : Reuss Voigt Hill
#
# Bulk Modulus (GPa) = 29.72436 59.63558 44.67997
# Shear Modulus (GPa) = 23.22375 31.57264 27.39820
#
# Velocity S-wave (km/s) = 3.37987 3.94085 3.67109
# Velocity P-wave (km/s) = 5.46375 7.07398 6.32035
#
# Compressibility (1/GPa) = 0.03364244
#
# Stress axis : x y z
#
# Youngs Moduli (GPa) = 43.81771 49.58292 34.60655
#
# Poissons Ratio (x) = 0.84322 -0.10502
# Poissons Ratio (y) = 0.74517 0.17823
# Poissons Ratio (z) = -0.13297 0.25537
#
# Static dielectric constant tensor:
#      x y z
#    x 1.742730 0.000000 0.000000 
#    y 0.000000 1.726490 0.000000 
#    z 0.000000 0.000000 1.848870 
# 
# From -- ./inp_files/12846.got.cif
#   From: 2010.05.17/outbox.cif.g08.bks.cpg/sg71_7_cif.got.tgz:12846.got - 2010.06.03 16:22:01.
