data_PCOD9524773
_publ_section_title
;
Structure prediction by ZEFSAII (Michael W. Deem and Ramdas Pophale) SiO2 
 PCOD9524773
Probable space group: I M M M
;
_chemical_formula_sum "Si O2"
_cell_formula_units_Z 60
_cell_length_a 27.000000
_cell_length_b 27.000000
_cell_length_c 9.000000
_cell_angle_alpha 90.000000
_cell_angle_beta 90.000000
_cell_angle_gamma 90.000000
_cell_volume 6561.000000
_symmetry_space_group_name_H-M "I M M M"
_symmetry_group_IT_number 71
_symmetry_cell_setting 'orthorhombic'
loop_
_space_group_symop_operation_xyz
x,y,z
-x,-y,z
x,-y,-z
-x,y,-z
-x,-y,-z
x,y,-z
-x,y,z
x,-y,z
1/2+x,1/2+y,1/2+z
1/2-x,1/2-y,1/2+z
1/2+x,1/2-y,1/2-z
1/2-x,1/2+y,1/2-z
1/2-x,1/2-y,1/2-z
1/2+x,1/2+y,1/2-z
1/2-x,1/2+y,1/2+z
1/2+x,1/2-y,1/2+z
loop_
_atom_site_type_symbol
_atom_site_label
_atom_site_fract_x
_atom_site_fract_y
_atom_site_fract_z
Si Si1 0.554850 0.809171 0.819676
Si Si2 0.404451 0.398430 0.674237
Si Si3 0.782392 0.442255 0.670014
Si Si4 0.805302 0.109725 0.674662
Si Si5 0.500000 0.441452 0.832324
Si Si6 0.850569 0.639021 0.321695
Si Si7 0.249790 0.696659 0.322003
Si Si8 0.559370 0.305296 0.828270
O O1 0.500000 0.819124 0.761374
O O2 0.598032 0.843044 0.757394
O O3 0.568357 0.751963 0.794777
O O4 0.552159 0.813920 0.000000
O O5 0.401567 0.406559 0.500000
O O6 0.354340 0.413384 0.755409
O O7 0.451515 0.424895 0.745405
O O8 0.413346 0.341124 0.716171
O O9 0.769173 0.425178 0.500000
O O10 0.786772 0.500000 0.667841
O O11 0.740450 0.424790 0.781462
O O12 0.833664 0.416264 0.710999
O O13 0.810333 0.116374 0.500000
O O14 0.792060 0.161699 0.753490
O O15 0.500000 0.500000 0.842432
O O16 0.500000 0.420402 0.000000
O O17 0.855158 0.643677 0.500000
O O18 0.803059 0.671963 0.281486
O O19 0.254182 0.698715 0.500000
O O20 0.250000 0.750000 0.250000
O O21 0.500000 0.313069 0.818459
O O22 0.574095 0.315435 0.000000
#
# Coordination Sequence:
#
# PCOD9524773 Si02
#       8
#    16  16  16  16   8  16  16  16
#     4   8  14  25  45  76 109 144 183 220 255 306
#     4  12  24  38  57  81 110 141 177 226 280 335
#     4   9  18  35  57  78 104 138 177 227 284 338
#     4  11  23  38  56  78 106 142 184 231 280 330
#     4  11  25  45  65  83 105 139 185 233 280 335
#     4   8  15  28  47  73 105 141 181 220 265 323
#     4  10  20  34  51  77 112 147 185 226 276 335
#     4   9  17  30  50  74 104 142 183 221 262 313
#
# _framework density 9.1449470000000002
#
# number of rings (size 3 to 8) (size 9 to 14) (size 15 to 20)
#    0.000    2.333    0.667    4.600    1.867    1.333 
#    0.000    0.000    0.000    0.400    0.000    2.800 
#    0.000    0.000    0.000    4.800    0.000    5.333 
#
# Total GULP energy -334440.878144 kJ/mol
# GULP energy per Si atom -5574.014636 kJ/mol
# Density = 0.912413 g / cm^3
# Si number density = 9.144947 Si / 1000 Ang^3
#
#
#
# Elastic Constant Matrix: (Units=GPa)
#
#
# Indices 1 2 3 4 5 6 
#
# 1 90.4648 43.1719 33.8653 0.0000 0.0000 0.0000
# 2 43.1719 66.1880 29.9216 0.0000 0.0000 0.0000
# 3 33.8653 29.9216 85.2351 0.0000 0.0000 0.0000
# 4 0.0000 0.0000 0.0000 1.5733 0.0000 0.0000
# 5 0.0000 0.0000 0.0000 0.0000 15.0694 0.0000
# 6 0.0000 0.0000 0.0000 0.0000 0.0000 -6.0681
#
#
#
# Elastic Compliance Matrix: (Units=1/GPa)
#
#
# Indices 1 2 3 4 5 6 
#
# 1 0.016825 -0.009453 -0.003367 0.000000 0.000000 0.000000
# 2 -0.009453 0.023269 -0.004413 0.000000 0.000000 0.000000
# 3 -0.003367 -0.004413 0.014619 0.000000 0.000000 0.000000
# 4 0.000000 0.000000 0.000000 0.635623 0.000000 0.000000
# 5 0.000000 0.000000 0.000000 0.000000 0.066359 0.000000
# 6 0.000000 0.000000 0.000000 0.000000 0.000000 -0.164797
#
#
# Mechanical properties :
#
#
# Convention : Reuss Voigt Hill
#
# Bulk Modulus (GPa) = 49.38489 50.64505 50.01497
# Shear Modulus (GPa) = 7.89749 11.11020 9.50384
#
# Velocity S-wave (km/s) = 2.08022 2.46732 2.28200
# Velocity P-wave (km/s) = 5.72971 5.98892 5.86075
#
# Compressibility (1/GPa) = 0.02024911
#
# Stress axis : x y z
#
# Youngs Moduli (GPa) = 59.43434 42.97580 68.40401
#
# Poissons Ratio (x) = 0.40623 0.23029
# Poissons Ratio (y) = 0.56180 0.30186
# Poissons Ratio (z) = 0.20010 0.18965
#
# Static dielectric constant tensor:
#      x y z
#    x 1.664000 0.000000 0.000000 
#    y 0.000000 1.651310 0.000000 
#    z 0.000000 0.000000 1.698860 
# 
# From -- ./inp_files/15677.got.cif
#   From: 2010.05.17/outbox.ucp.g08.bks.cvg/sg71_8_cif.got.tgz:15677.got - 2010.06.11 16:29:00.
