data_PCOD9524171
_publ_section_title
;
Structure prediction by ZEFSAII (Michael W. Deem and Ramdas Pophale) SiO2 
 PCOD9524171
Probable space group: I M M M
;
_chemical_formula_sum "Si O2"
_cell_formula_units_Z 72
_cell_length_a 32.813544
_cell_length_b 7.889307
_cell_length_c 14.878932
_cell_angle_alpha 90.000000
_cell_angle_beta 90.000000
_cell_angle_gamma 90.000000
_cell_volume 3851.800221
_symmetry_space_group_name_H-M "I M M M"
_symmetry_group_IT_number 71
_symmetry_cell_setting 'orthorhombic'
loop_
_space_group_symop_operation_xyz
x,y,z
-x,-y,z
x,-y,-z
-x,y,-z
-x,-y,-z
x,y,-z
-x,y,z
x,-y,z
1/2+x,1/2+y,1/2+z
1/2-x,1/2-y,1/2+z
1/2+x,1/2-y,1/2-z
1/2-x,1/2+y,1/2-z
1/2-x,1/2-y,1/2-z
1/2+x,1/2+y,1/2-z
1/2-x,1/2+y,1/2+z
1/2+x,1/2-y,1/2+z
loop_
_atom_site_type_symbol
_atom_site_label
_atom_site_fract_x
_atom_site_fract_y
_atom_site_fract_z
Si Si1 0.451724 0.809814 0.000000
Si Si2 0.632762 0.291309 0.196089
Si Si3 0.758690 0.700663 0.000000
Si Si4 0.954338 0.196559 0.697884
Si Si5 0.334979 0.292904 0.000000
Si Si6 0.289613 0.700911 0.692839
O O1 0.445152 0.707997 0.091060
O O2 0.500000 0.833756 0.000000
O O3 0.433470 0.000000 0.000000
O O4 0.631607 0.500000 0.196044
O O5 0.588592 0.230757 0.232330
O O6 0.669667 0.232134 0.259277
O O7 0.643592 0.240170 0.093225
O O8 0.782042 0.749424 0.909696
O O9 0.754267 0.500000 0.000000
O O10 0.712043 0.767695 0.000000
O O11 0.000000 0.270828 0.713774
O O12 0.956772 0.000000 0.724500
O O13 0.335162 0.500000 0.000000
O O14 0.292886 0.500000 0.696662
O O15 0.250000 0.750000 0.750000
#
# Coordination Sequence:
#
# PCOD9524171 Si02
#       6
#     8  16   8  16   8  16
#     4   9  16  25  37  57  90 127 157 192 237 276
#     4   9  17  29  48  72  99 129 161 200 248 292
#     4  11  21  36  54  73 100 135 167 207 251 292
#     4   9  16  27  45  66  87 119 163 200 230 280
#     4   9  15  26  45  68  95 131 163 190 238 291
#     4  11  21  35  54  76 101 132 167 205 249 299
#
# _framework density 18.692558999999999
#
# number of rings (size 3 to 8) (size 9 to 14) (size 15 to 20)
#    0.000    2.333    2.222    2.000    0.000    3.111 
#    0.000    2.222    0.000    0.000    0.000    0.778 
#    0.000    6.222    0.000    0.000    0.000    0.000 
#
# Total GULP energy -200496.274038 kJ/mol
# GULP energy per Si atom -5569.340946 kJ/mol
# Density = 1.865001 g / cm^3
# Si number density = 18.692559 Si / 1000 Ang^3
#
#
#
# Elastic Constant Matrix: (Units=GPa)
#
#
# Indices 1 2 3 4 5 6 
#
# 1 213.5476 6.1602 70.6713 0.0000 0.0000 0.0000
# 2 6.1602 27.1475 3.7312 0.0000 0.0000 0.0000
# 3 70.6713 3.7312 98.0523 0.0000 0.0000 0.0000
# 4 0.0000 0.0000 0.0000 16.0559 0.0000 0.0000
# 5 0.0000 0.0000 0.0000 0.0000 17.1097 0.0000
# 6 0.0000 0.0000 0.0000 0.0000 0.0000 14.4805
#
#
#
# Elastic Compliance Matrix: (Units=1/GPa)
#
#
# Indices 1 2 3 4 5 6 
#
# 1 0.006167 -0.000793 -0.004414 0.000000 0.000000 0.000000
# 2 -0.000793 0.037131 -0.000842 0.000000 0.000000 0.000000
# 3 -0.004414 -0.000842 0.013412 0.000000 0.000000 0.000000
# 4 0.000000 0.000000 0.000000 0.062282 0.000000 0.000000
# 5 0.000000 0.000000 0.000000 0.000000 0.058446 0.000000
# 6 0.000000 0.000000 0.000000 0.000000 0.000000 0.069059
#
#
# Mechanical properties :
#
#
# Convention : Reuss Voigt Hill
#
# Bulk Modulus (GPa) = 22.41507 55.54144 38.97826
# Shear Modulus (GPa) = 18.28382 26.74153 22.51268
#
# Velocity S-wave (km/s) = 3.13091 3.78643 3.47416
# Velocity P-wave (km/s) = 5.00875 6.99240 6.08199
#
# Compressibility (1/GPa) = 0.04461285
#
# Stress axis : x y z
#
# Youngs Moduli (GPa) = 162.16516 26.93144 74.55822
#
# Poissons Ratio (x) = 0.02135 0.32913
# Poissons Ratio (y) = 0.12853 0.06276
# Poissons Ratio (z) = 0.71586 0.02267
#
# Static dielectric constant tensor:
#      x y z
#    x 1.745690 0.000000 0.000000 
#    y 0.000000 1.738540 0.000000 
#    z 0.000000 0.000000 1.639550 
# 
# From -- ./inp_files/16444.got.cif
#   From: 2010.05.17/outbox.cif.g08.bks.cpg/sg71_9_cif.got.tgz:16444.got - 2010.06.03 16:22:01.
