data_PCOD9524380
_publ_section_title
;
Structure prediction by ZEFSAII (Michael W. Deem and Ramdas Pophale) SiO2 
 PCOD9524380
Probable space group: I M M M
;
_chemical_formula_sum "Si O2"
_cell_formula_units_Z 120
_cell_length_a 23.364287
_cell_length_b 13.627918
_cell_length_c 20.600309
_cell_angle_alpha 90.000000
_cell_angle_beta 90.000000
_cell_angle_gamma 90.000000
_cell_volume 6559.274087
_symmetry_space_group_name_H-M "I M M M"
_symmetry_group_IT_number 71
_symmetry_cell_setting 'orthorhombic'
loop_
_space_group_symop_operation_xyz
x,y,z
-x,-y,z
x,-y,-z
-x,y,-z
-x,-y,-z
x,y,-z
-x,y,z
x,-y,z
1/2+x,1/2+y,1/2+z
1/2-x,1/2-y,1/2+z
1/2+x,1/2-y,1/2-z
1/2-x,1/2+y,1/2-z
1/2-x,1/2-y,1/2-z
1/2+x,1/2+y,1/2-z
1/2-x,1/2+y,1/2+z
1/2+x,1/2-y,1/2+z
loop_
_atom_site_type_symbol
_atom_site_label
_atom_site_fract_x
_atom_site_fract_y
_atom_site_fract_z
Si Si1 0.063531 0.276902 0.202795
Si Si2 0.066183 0.619149 0.430054
Si Si3 0.933081 0.880852 0.000000
Si Si4 0.625182 0.382995 0.362701
Si Si5 0.637732 0.884061 0.807569
Si Si6 0.090955 0.384935 0.072199
Si Si7 0.254113 0.715672 0.675201
Si Si8 0.729429 0.114202 0.575140
O O1 0.080609 0.165276 0.187548
O O2 0.112674 0.327278 0.245742
O O3 0.064822 0.329747 0.132899
O O4 0.000000 0.287645 0.231315
O O5 0.089337 0.651521 0.500000
O O6 0.067843 0.500000 0.429525
O O7 0.100493 0.651999 0.368234
O O8 0.000000 0.647476 0.425738
O O9 0.897749 0.855280 0.934838
O O10 0.000000 0.848839 0.000000
O O11 0.935499 0.000000 0.000000
O O12 0.628191 0.500000 0.358371
O O13 0.686286 0.334697 0.345628
O O14 0.702370 0.861172 0.827331
O O15 0.629903 0.000000 0.796634
O O16 0.076141 0.500000 0.075873
O O17 0.160084 0.378528 0.077566
O O18 0.074502 0.349609 0.000000
O O19 0.250000 0.750000 0.750000
O O20 0.246480 0.808385 0.626852
O O21 0.745891 0.134779 0.500000
O O22 0.743806 0.000000 0.589615
#
# Coordination Sequence:
#
# PCOD9524380 Si02
#       8
#    16  16   8  16  16  16  16  16
#     4  12  24  37  58  84 112 154 202 247 298 355
#     4   8  15  31  55  80 108 143 178 216 273 344
#     4   9  20  40  64  88 117 159 210 262 312 363
#     4  11  24  42  61  85 119 160 206 256 314 371
#     4  11  23  39  56  84 120 152 191 242 301 364
#     4   9  18  34  55  81 114 149 187 235 291 347
#     4  12  23  39  60  88 118 159 202 249 307 374
#     4   9  19  37  62  87 115 154 197 248 305 359
#
# _framework density 18.294706999999999
#
# number of rings (size 3 to 8) (size 9 to 14) (size 15 to 20)
#    0.000    1.800    2.667    2.800    1.867    5.333 
#    0.000    0.667    0.000    0.000    0.000    0.000 
#    0.000    0.000    0.000    7.067    0.000    0.267 
#
# Total GULP energy -334775.460670 kJ/mol
# GULP energy per Si atom -5579.591011 kJ/mol
# Density = 1.825307 g / cm^3
# Si number density = 18.294707 Si / 1000 Ang^3
#
#
#
# Elastic Constant Matrix: (Units=GPa)
#
#
# Indices 1 2 3 4 5 6 
#
# 1 81.5092 19.0385 38.8427 0.0000 0.0000 0.0000
# 2 19.0385 86.4938 46.8686 0.0000 0.0000 0.0000
# 3 38.8427 46.8686 112.2593 0.0000 0.0000 0.0000
# 4 0.0000 0.0000 0.0000 28.7357 0.0000 0.0000
# 5 0.0000 0.0000 0.0000 0.0000 11.1330 0.0000
# 6 0.0000 0.0000 0.0000 0.0000 0.0000 19.7344
#
#
#
# Elastic Compliance Matrix: (Units=1/GPa)
#
#
# Indices 1 2 3 4 5 6 
#
# 1 0.014717 -0.000620 -0.004833 0.000000 0.000000 0.000000
# 2 -0.000620 0.014968 -0.006035 0.000000 0.000000 0.000000
# 3 -0.004833 -0.006035 0.013100 0.000000 0.000000 0.000000
# 4 0.000000 0.000000 0.000000 0.034800 0.000000 0.000000
# 5 0.000000 0.000000 0.000000 0.000000 0.089823 0.000000
# 6 0.000000 0.000000 0.000000 0.000000 0.000000 0.050673
#
#
# Mechanical properties :
#
#
# Convention : Reuss Voigt Hill
#
# Bulk Modulus (GPa) = 50.48391 54.41799 52.45095
# Shear Modulus (GPa) = 20.18904 23.62145 21.90524
#
# Velocity S-wave (km/s) = 3.32557 3.59717 3.46403
# Velocity P-wave (km/s) = 6.51157 6.86022 6.68817
#
# Compressibility (1/GPa) = 0.01980829
#
# Stress axis : x y z
#
# Youngs Moduli (GPa) = 67.95033 66.80906 76.33790
#
# Poissons Ratio (x) = 0.04145 0.36894
# Poissons Ratio (y) = 0.04216 0.46066
# Poissons Ratio (z) = 0.32841 0.40316
#
# Static dielectric constant tensor:
#      x y z
#    x 1.640990 0.000000 0.000000 
#    y 0.000000 1.643890 0.000000 
#    z 0.000000 0.000000 1.642770 
# 
# From -- ./inp_files/55140.got.cif
#   From: 2010.05.17/outbox.cif.g08.bks.cpg/sg71_28_cif.got.tgz:55140.got - 2010.06.03 16:22:01.
