data_PCOD9524607
_publ_section_title
;
Structure prediction by ZEFSAII (Michael W. Deem and Ramdas Pophale) SiO2 
 PCOD9524607
Probable space group: I M M M
;
_chemical_formula_sum "Si O2"
_cell_formula_units_Z 56
_cell_length_a 23.494545
_cell_length_b 7.371854
_cell_length_c 14.746704
_cell_angle_alpha 90.000000
_cell_angle_beta 90.000000
_cell_angle_gamma 90.000000
_cell_volume 2554.104882
_symmetry_space_group_name_H-M "I M M M"
_symmetry_group_IT_number 71
_symmetry_cell_setting 'orthorhombic'
loop_
_space_group_symop_operation_xyz
x,y,z
-x,-y,z
x,-y,-z
-x,y,-z
-x,-y,-z
x,y,-z
-x,y,z
x,-y,z
1/2+x,1/2+y,1/2+z
1/2-x,1/2-y,1/2+z
1/2+x,1/2-y,1/2-z
1/2-x,1/2+y,1/2-z
1/2-x,1/2-y,1/2-z
1/2+x,1/2+y,1/2-z
1/2-x,1/2+y,1/2+z
1/2+x,1/2-y,1/2+z
loop_
_atom_site_type_symbol
_atom_site_label
_atom_site_fract_x
_atom_site_fract_y
_atom_site_fract_z
Si Si1 0.116300 0.222326 0.300060
Si Si2 0.640216 0.707870 0.403144
Si Si3 0.500000 0.278849 0.895623
Si Si4 0.736023 0.286129 0.144879
O O1 0.122698 0.284971 0.195204
O O2 0.057126 0.277473 0.343967
O O3 0.170900 0.278764 0.360768
O O4 0.119044 0.000000 0.297706
O O5 0.621804 0.789466 0.500000
O O6 0.619997 0.500000 0.402454
O O7 0.709139 0.705755 0.403289
O O8 0.500000 0.500000 0.895438
O O9 0.500000 0.220889 0.000000
O O10 0.736860 0.500000 0.124747
O O11 0.750000 0.250000 0.250000
#
# Coordination Sequence:
#
# PCOD9524607 Si02
#       4
#    16  16   8  16
#     4   8  15  27  41  60  88 117 145 181 224 268
#     4   9  17  29  44  64  92 122 149 182 226 271
#     4   9  16  26  41  61  86 115 145 181 226 270
#     4   9  16  27  44  66  92 119 148 183 222 266
#
# _framework density 21.925488999999999
#
# number of rings (size 3 to 8) (size 9 to 14) (size 15 to 20)
#    0.000    3.286    0.000    2.571    0.000    1.714 
#    0.000    3.571    0.000    4.286    0.000   25.000 
#    0.000   40.000    0.000    0.000    0.000    0.000 
#
# Total GULP energy -155945.725684 kJ/mol
# GULP energy per Si atom -5569.490203 kJ/mol
# Density = 2.187559 g / cm^3
# Si number density = 21.925489 Si / 1000 Ang^3
#
#
#
# Elastic Constant Matrix: (Units=GPa)
#
#
# Indices 1 2 3 4 5 6 
#
# 1 148.2566 -4.4608 60.0943 0.0000 0.0000 0.0000
# 2 -4.4608 79.9683 -2.0202 0.0000 0.0000 0.0000
# 3 60.0943 -2.0202 151.6399 0.0000 0.0000 0.0000
# 4 0.0000 0.0000 0.0000 -4.7865 0.0000 0.0000
# 5 0.0000 0.0000 0.0000 0.0000 15.0820 0.0000
# 6 0.0000 0.0000 0.0000 0.0000 0.0000 10.8199
#
#
#
# Elastic Compliance Matrix: (Units=1/GPa)
#
#
# Indices 1 2 3 4 5 6 
#
# 1 0.008047 0.000368 -0.003184 0.000000 0.000000 0.000000
# 2 0.000368 0.012526 0.000021 0.000000 0.000000 0.000000
# 3 -0.003184 0.000021 0.007857 0.000000 0.000000 0.000000
# 4 0.000000 0.000000 0.000000 -0.208921 0.000000 0.000000
# 5 0.000000 0.000000 0.000000 0.000000 0.066304 0.000000
# 6 0.000000 0.000000 0.000000 0.000000 0.000000 0.092422
#
#
# Mechanical properties :
#
#
# Convention : Reuss Voigt Hill
#
# Bulk Modulus (GPa) = 43.78272 54.12125 48.95198
# Shear Modulus (GPa) = -583.93928 25.97320 -278.98304
#
# Velocity S-wave (km/s) = -16.33729 3.44555 -11.29237
# Velocity P-wave (km/s) = 18.32659 6.36921 12.15107
#
# Compressibility (1/GPa) = 0.02284006
#
# Stress axis : x y z
#
# Youngs Moduli (GPa) = 124.27393 79.83374 127.28075
#
# Poissons Ratio (x) = -0.02941 0.40526
# Poissons Ratio (y) = -0.04579 -0.00266
# Poissons Ratio (z) = 0.39569 -0.00167
#
# Static dielectric constant tensor:
#      x y z
#    x 1.777930 0.000000 0.000000 
#    y 0.000000 1.924360 0.000000 
#    z 0.000000 0.000000 1.814950 
# 
# From -- ./inp_files/5307.got.cif
#   From: 2010.05.17/outbox.cif.g08.bks.cpg/sg71_3_cif.got.tgz:5307.got - 2010.06.03 16:22:01.
