data_PCOD9524455
_publ_section_title
;
Structure prediction by ZEFSAII (Michael W. Deem and Ramdas Pophale) SiO2 
 PCOD9524455
Probable space group: I M M M
;
_chemical_formula_sum "Si O2"
_cell_formula_units_Z 72
_cell_length_a 26.701571
_cell_length_b 11.945643
_cell_length_c 13.192182
_cell_angle_alpha 90.000000
_cell_angle_beta 90.000000
_cell_angle_gamma 90.000000
_cell_volume 4207.876451
_symmetry_space_group_name_H-M "I M M M"
_symmetry_group_IT_number 71
_symmetry_cell_setting 'orthorhombic'
loop_
_space_group_symop_operation_xyz
x,y,z
-x,-y,z
x,-y,-z
-x,y,-z
-x,-y,-z
x,y,-z
-x,y,z
x,-y,z
1/2+x,1/2+y,1/2+z
1/2-x,1/2-y,1/2+z
1/2+x,1/2-y,1/2-z
1/2-x,1/2+y,1/2-z
1/2-x,1/2-y,1/2-z
1/2+x,1/2+y,1/2-z
1/2-x,1/2+y,1/2+z
1/2+x,1/2-y,1/2+z
loop_
_atom_site_type_symbol
_atom_site_label
_atom_site_fract_x
_atom_site_fract_y
_atom_site_fract_z
Si Si1 0.114713 0.207298 0.233988
Si Si2 0.439833 0.872487 0.884136
Si Si3 0.202241 0.134175 0.385045
Si Si4 0.686318 0.872447 0.378530
Si Si5 0.939587 0.000000 0.877909
O O1 0.079177 0.282396 0.304642
O O2 0.158117 0.162442 0.308654
O O3 0.143311 0.290583 0.158292
O O4 0.085597 0.108640 0.175405
O O5 0.500000 0.872803 0.883626
O O6 0.423181 0.000000 0.860272
O O7 0.423753 0.847086 0.000000
O O8 0.192884 0.176671 0.500000
O O9 0.257890 0.169795 0.350510
O O10 0.205473 0.000000 0.391425
O O11 0.686302 0.877250 0.500000
O O12 0.679355 0.000000 0.340093
O O13 0.000000 0.000000 0.862722
O O14 0.930529 0.000000 0.000000
#
# Coordination Sequence:
#
# PCOD9524455 Si02
#       5
#    16  16  16  16   8
#     4  12  19  34  57  80  99 143 188 217 261 325
#     4   9  19  35  54  79 109 136 169 223 282 325
#     4   9  18  33  51  78 111 138 166 210 267 320
#     4   9  19  34  53  78 107 136 172 218 267 320
#     4  11  26  42  53  73 109 147 188 238 278 309
#
# _framework density 17.110769000000001
#
# number of rings (size 3 to 8) (size 9 to 14) (size 15 to 20)
#    0.000    2.111    1.111    5.333    0.000    0.000 
#    0.000    0.000    0.000    2.667    0.000    9.333 
#    0.000    0.000    0.000    0.000    0.000    0.000 
#
# Total GULP energy -200640.706552 kJ/mol
# GULP energy per Si atom -5573.352960 kJ/mol
# Density = 1.707182 g / cm^3
# Si number density = 17.110769 Si / 1000 Ang^3
#
#
#
# Elastic Constant Matrix: (Units=GPa)
#
#
# Indices 1 2 3 4 5 6 
#
# 1 104.2329 66.2877 59.6783 0.0000 0.0000 0.0000
# 2 66.2877 107.9343 72.5121 0.0000 0.0000 0.0000
# 3 59.6783 72.5121 98.0945 0.0000 0.0000 0.0000
# 4 0.0000 0.0000 0.0000 55.0533 0.0000 0.0000
# 5 0.0000 0.0000 0.0000 0.0000 36.3525 0.0000
# 6 0.0000 0.0000 0.0000 0.0000 0.0000 27.4319
#
#
#
# Elastic Compliance Matrix: (Units=1/GPa)
#
#
# Indices 1 2 3 4 5 6 
#
# 1 0.016984 -0.006931 -0.005209 0.000000 0.000000 0.000000
# 2 -0.006931 0.021234 -0.011479 0.000000 0.000000 0.000000
# 3 -0.005209 -0.011479 0.021849 0.000000 0.000000 0.000000
# 4 0.000000 0.000000 0.000000 0.018164 0.000000 0.000000
# 5 0.000000 0.000000 0.000000 0.000000 0.027508 0.000000
# 6 0.000000 0.000000 0.000000 0.000000 0.000000 0.036454
#
#
# Mechanical properties :
#
#
# Convention : Reuss Voigt Hill
#
# Bulk Modulus (GPa) = 77.95754 78.57976 78.26865
# Shear Modulus (GPa) = 25.81186 31.21977 28.51581
#
# Velocity S-wave (km/s) = 3.88817 4.27613 4.08676
# Velocity P-wave (km/s) = 8.11274 8.39072 8.25290
#
# Compressibility (1/GPa) = 0.01282750
#
# Stress axis : x y z
#
# Youngs Moduli (GPa) = 58.87728 47.09486 45.76865
#
# Poissons Ratio (x) = 0.32643 0.23842
# Poissons Ratio (y) = 0.40810 0.52539
# Poissons Ratio (z) = 0.30671 0.54062
#
# Static dielectric constant tensor:
#      x y z
#    x 1.580710 0.000000 0.000000 
#    y 0.000000 1.573270 0.000000 
#    z 0.000000 0.000000 1.578730 
# 
# From -- ./inp_files/14322.got.cif
#   From: 2010.05.17/outbox.cif.g08.bks.cpg/sg71_8_cif.got.tgz:14322.got - 2010.06.03 16:22:01.
