data_PCOD9524019
_publ_section_title
;
Structure prediction by ZEFSAII (Michael W. Deem and Ramdas Pophale) SiO2 
 PCOD9524019
Probable space group: I M M M
;
_chemical_formula_sum "Si O2"
_cell_formula_units_Z 104
_cell_length_a 17.127560
_cell_length_b 20.984148
_cell_length_c 16.895776
_cell_angle_alpha 90.000000
_cell_angle_beta 90.000000
_cell_angle_gamma 90.000000
_cell_volume 6072.464455
_symmetry_space_group_name_H-M "I M M M"
_symmetry_group_IT_number 71
_symmetry_cell_setting 'orthorhombic'
loop_
_space_group_symop_operation_xyz
x,y,z
-x,-y,z
x,-y,-z
-x,y,-z
-x,-y,-z
x,y,-z
-x,y,z
x,-y,z
1/2+x,1/2+y,1/2+z
1/2-x,1/2-y,1/2+z
1/2+x,1/2-y,1/2-z
1/2-x,1/2+y,1/2-z
1/2-x,1/2-y,1/2-z
1/2+x,1/2+y,1/2-z
1/2-x,1/2+y,1/2+z
1/2+x,1/2-y,1/2+z
loop_
_atom_site_type_symbol
_atom_site_label
_atom_site_fract_x
_atom_site_fract_y
_atom_site_fract_z
Si Si1 0.693188 0.370239 0.640555
Si Si2 0.089012 0.924031 0.000000
Si Si3 0.358392 0.924627 0.809936
Si Si4 0.719017 0.773652 0.410192
Si Si5 0.906468 0.680274 0.194515
Si Si6 0.500000 0.709830 0.093402
Si Si7 0.500000 0.135808 0.907668
Si Si8 0.858310 0.804444 0.704241
O O1 0.635627 0.402026 0.577807
O O2 0.771967 0.409258 0.657801
O O3 0.717323 0.302171 0.603311
O O4 0.651435 0.353768 0.723915
O O5 0.000000 0.898928 0.000000
O O6 0.086211 0.000000 0.000000
O O7 0.373638 0.885682 0.729130
O O8 0.423669 0.894451 0.867713
O O9 0.369515 0.000000 0.802053
O O10 0.741938 0.787848 0.500000
O O11 0.634485 0.801559 0.387701
O O12 0.778619 0.799678 0.344724
O O13 0.878519 0.736677 0.254139
O O14 0.000000 0.679481 0.191916
O O15 0.500000 0.787367 0.101328
O O16 0.574527 0.683785 0.140433
O O17 0.500000 0.695682 0.000000
O O18 0.500000 0.121392 0.000000
#
# Coordination Sequence:
#
# PCOD9524019 Si02
#       8
#    16   8  16  16  16   8   8  16
#     4  11  22  38  58  84 114 150 194 235 283 337
#     4  11  26  44  58  83 121 153 192 239 283 340
#     4  12  22  36  56  79 111 156 199 226 268 334
#     4  11  21  36  58  84 115 147 187 241 292 340
#     4  11  20  36  54  81 117 148 188 236 282 339
#     4  11  20  33  58  90 121 149 180 232 298 353
#     4  11  23  36  51  82 124 154 183 226 274 335
#     4  11  19  36  59  81 116 150 185 235 291 344
#
# _framework density 17.126491000000001
#
# number of rings (size 3 to 8) (size 9 to 14) (size 15 to 20)
#    0.000    0.846    6.923    2.077    2.154    2.769 
#    0.000    0.000    0.000    0.462    0.000    1.077 
#    0.000    2.462    0.000    0.000    0.000    0.000 
#
# Total GULP energy -290354.974577 kJ/mol
# GULP energy per Si atom -5583.749511 kJ/mol
# Density = 1.708751 g / cm^3
# Si number density = 17.126491 Si / 1000 Ang^3
#
#
#
# Elastic Constant Matrix: (Units=GPa)
#
#
# Indices 1 2 3 4 5 6 
#
# 1 119.7019 25.8713 42.0223 0.0000 0.0000 0.0000
# 2 25.8713 45.4411 29.8261 0.0000 0.0000 0.0000
# 3 42.0223 29.8261 101.3177 0.0000 0.0000 0.0000
# 4 0.0000 0.0000 0.0000 8.2204 0.0000 0.0000
# 5 0.0000 0.0000 0.0000 0.0000 7.0359 0.0000
# 6 0.0000 0.0000 0.0000 0.0000 0.0000 15.5933
#
#
#
# Elastic Compliance Matrix: (Units=1/GPa)
#
#
# Indices 1 2 3 4 5 6 
#
# 1 0.010277 -0.003785 -0.003148 0.000000 0.000000 0.000000
# 2 -0.003785 0.028671 -0.006870 0.000000 0.000000 0.000000
# 3 -0.003148 -0.006870 0.013198 0.000000 0.000000 0.000000
# 4 0.000000 0.000000 0.000000 0.121648 0.000000 0.000000
# 5 0.000000 0.000000 0.000000 0.000000 0.142128 0.000000
# 6 0.000000 0.000000 0.000000 0.000000 0.000000 0.064130
#
#
# Mechanical properties :
#
#
# Convention : Reuss Voigt Hill
#
# Bulk Modulus (GPa) = 40.75102 51.32224 46.03663
# Shear Modulus (GPa) = 12.02385 17.41933 14.72159
#
# Velocity S-wave (km/s) = 2.65252 3.19266 2.93504
# Velocity P-wave (km/s) = 5.76428 6.60473 6.19876
#
# Compressibility (1/GPa) = 0.02453926
#
# Stress axis : x y z
#
# Youngs Moduli (GPa) = 97.30110 34.87868 75.76728
#
# Poissons Ratio (x) = 0.13201 0.23855
# Poissons Ratio (y) = 0.36826 0.52055
# Poissons Ratio (z) = 0.30635 0.23963
#
# Static dielectric constant tensor:
#      x y z
#    x 1.619950 0.000000 0.000000 
#    y 0.000000 1.553290 0.000000 
#    z 0.000000 0.000000 1.584090 
# 
# From -- ./inp_files/45010.got.cif
#   From: 2010.05.17/outbox.cif.g08.bks.cpg/sg71_23_cif.got.tgz:45010.got - 2010.06.03 16:22:01.
