data_PCOD9524829
_publ_section_title
;
Structure prediction by ZEFSAII (Michael W. Deem and Ramdas Pophale) SiO2 
 PCOD9524829
Probable space group: I M M M
;
_chemical_formula_sum "Si O2"
_cell_formula_units_Z 44
_cell_length_a 21.000000
_cell_length_b 24.000000
_cell_length_c 9.000000
_cell_angle_alpha 90.000000
_cell_angle_beta 90.000000
_cell_angle_gamma 90.000000
_cell_volume 4536.000000
_symmetry_space_group_name_H-M "I M M M"
_symmetry_group_IT_number 71
_symmetry_cell_setting 'orthorhombic'
loop_
_space_group_symop_operation_xyz
x,y,z
-x,-y,z
x,-y,-z
-x,y,-z
-x,-y,-z
x,y,-z
-x,y,z
x,-y,z
1/2+x,1/2+y,1/2+z
1/2-x,1/2-y,1/2+z
1/2+x,1/2-y,1/2-z
1/2-x,1/2+y,1/2-z
1/2-x,1/2-y,1/2-z
1/2+x,1/2+y,1/2-z
1/2-x,1/2+y,1/2+z
1/2+x,1/2-y,1/2+z
loop_
_atom_site_type_symbol
_atom_site_label
_atom_site_fract_x
_atom_site_fract_y
_atom_site_fract_z
Si Si1 0.568728 0.300101 0.832427
Si Si2 0.811588 0.719563 0.675056
Si Si3 0.930570 0.086231 0.825634
Si Si4 0.662984 0.101608 0.682005
Si Si5 0.300399 0.435879 0.163978
Si Si6 0.077735 0.500000 0.319206
O O1 0.500000 0.270215 0.819132
O O2 0.630230 0.262750 0.819962
O O3 0.570079 0.348297 0.711236
O O4 0.569383 0.325060 0.000000
O O5 0.797653 0.707310 0.500000
O O6 0.750000 0.750000 0.750000
O O7 0.840048 0.664956 0.758315
O O8 0.866328 0.065991 0.750184
O O9 0.000000 0.065622 0.770000
O O10 0.927865 0.075106 0.000000
O O11 0.659102 0.098764 0.500000
O O12 0.736227 0.089010 0.730090
O O13 0.614276 0.055165 0.750930
O O14 0.283753 0.500000 0.147568
O O15 0.309981 0.410329 0.000000
O O16 0.084712 0.500000 0.500000
O O17 0.000000 0.500000 0.288223
#
# Coordination Sequence:
#
# PCOD9524829 Si02
#       6
#    16  16  16  16  16   8
#     4   9  19  37  58  78 107 150 194 234 282 344
#     4  11  23  38  59  91 126 162 205 257 314 377
#     4  10  21  35  53  82 117 150 189 240 292 343
#     4  11  23  42  65  91 124 161 205 260 316 375
#     4  10  21  38  58  80 109 149 195 239 285 345
#     4  11  25  45  69  97 128 165 212 265 323 392
#
# _framework density 9.7001760000000008
#
# number of rings (size 3 to 8) (size 9 to 14) (size 15 to 20)
#    0.000    1.727    0.909    3.000    0.000   10.545 
#    0.000    3.636    0.000    0.000    0.000    0.000 
#    0.000    0.000    0.000    0.000    0.000    0.000 
#
# Total GULP energy -245043.009466 kJ/mol
# GULP energy per Si atom -5569.159306 kJ/mol
# Density = 0.967810 g / cm^3
# Si number density = 9.700176 Si / 1000 Ang^3
#
#
#
# Elastic Constant Matrix: (Units=GPa)
#
#
# Indices 1 2 3 4 5 6 
#
# 1 115.4848 24.4588 27.2143 0.0000 0.0000 0.0000
# 2 24.4588 76.9510 21.0983 0.0000 0.0000 0.0000
# 3 27.2143 21.0983 66.7484 0.0000 0.0000 0.0000
# 4 0.0000 0.0000 0.0000 28.5352 0.0000 0.0000
# 5 0.0000 0.0000 0.0000 0.0000 32.9909 0.0000
# 6 0.0000 0.0000 0.0000 0.0000 0.0000 27.3175
#
#
#
# Elastic Compliance Matrix: (Units=1/GPa)
#
#
# Indices 1 2 3 4 5 6 
#
# 1 0.009919 -0.002238 -0.003337 0.000000 0.000000 0.000000
# 2 -0.002238 0.014733 -0.003745 0.000000 0.000000 0.000000
# 3 -0.003337 -0.003745 0.017526 0.000000 0.000000 0.000000
# 4 0.000000 0.000000 0.000000 0.035044 0.000000 0.000000
# 5 0.000000 0.000000 0.000000 0.000000 0.030311 0.000000
# 6 0.000000 0.000000 0.000000 0.000000 0.000000 0.036607
#
#
# Mechanical properties :
#
#
# Convention : Reuss Voigt Hill
#
# Bulk Modulus (GPa) = 42.48155 44.96967 43.72561
# Shear Modulus (GPa) = 29.30377 30.19622 29.75000
#
# Velocity S-wave (km/s) = 3.89070 3.94950 3.92021
# Velocity P-wave (km/s) = 6.49063 6.63538 6.56340
#
# Compressibility (1/GPa) = 0.02353963
#
# Stress axis : x y z
#
# Youngs Moduli (GPa) = 100.81164 67.87349 57.05887
#
# Poissons Ratio (x) = 0.15190 0.19040
# Poissons Ratio (y) = 0.22561 0.21366
# Poissons Ratio (z) = 0.33640 0.25416
#
# Static dielectric constant tensor:
#      x y z
#    x 1.721830 0.000000 0.000000 
#    y 0.000000 1.752800 0.000000 
#    z 0.000000 0.000000 1.724820 
# 
# From -- ./inp_files/10500.got.cif
#   From: 2010.05.17/outbox.ucp.g08.bks.cvg/sg71_6_cif.got.tgz:10500.got - 2010.06.11 16:29:00.
