data_PCOD9524283
_publ_section_title
;
Structure prediction by ZEFSAII (Michael W. Deem and Ramdas Pophale) SiO2 
 PCOD9524283
Probable space group: I M M M
;
_chemical_formula_sum "Si O2"
_cell_formula_units_Z 72
_cell_length_a 17.241164
_cell_length_b 24.830927
_cell_length_c 8.251081
_cell_angle_alpha 90.000000
_cell_angle_beta 90.000000
_cell_angle_gamma 90.000000
_cell_volume 3532.403990
_symmetry_space_group_name_H-M "I M M M"
_symmetry_group_IT_number 71
_symmetry_cell_setting 'orthorhombic'
loop_
_space_group_symop_operation_xyz
x,y,z
-x,-y,z
x,-y,-z
-x,y,-z
-x,-y,-z
x,y,-z
-x,y,z
x,-y,z
1/2+x,1/2+y,1/2+z
1/2-x,1/2-y,1/2+z
1/2+x,1/2-y,1/2-z
1/2-x,1/2+y,1/2-z
1/2-x,1/2-y,1/2-z
1/2+x,1/2+y,1/2-z
1/2-x,1/2+y,1/2+z
1/2+x,1/2-y,1/2+z
loop_
_atom_site_type_symbol
_atom_site_label
_atom_site_fract_x
_atom_site_fract_y
_atom_site_fract_z
Si Si1 0.912778 0.561391 0.302513
Si Si2 0.085085 0.266258 0.190645
Si Si3 0.000000 0.937653 0.194526
Si Si4 0.292781 0.151491 0.807662
Si Si5 0.619221 0.350201 0.188958
O O1 0.913405 0.562618 0.500000
O O2 0.896037 0.500000 0.254061
O O3 0.848947 0.603585 0.249403
O O4 0.000000 0.575146 0.248346
O O5 0.157218 0.294757 0.276842
O O6 0.089750 0.202360 0.216348
O O7 0.000000 0.284834 0.251433
O O8 0.090185 0.278170 0.000000
O O9 0.074431 0.903559 0.253664
O O10 0.000000 0.000000 0.249989
O O11 0.000000 0.937718 0.000000
O O12 0.211017 0.148214 0.719442
O O13 0.278500 0.146390 0.000000
O O14 0.602760 0.342065 0.000000
#
# Coordination Sequence:
#
# PCOD9524283 Si02
#       5
#    16  16   8  16  16
#     4   8  15  30  53  82 116 154 197 246 298 355
#     4  11  23  40  63  89 124 164 207 257 316 380
#     4  11  25  47  73  97 123 161 210 261 318 381
#     4  11  22  36  59  91 126 162 208 258 313 376
#     4  12  25  42  64  90 124 161 204 257 314 374
#
# _framework density 20.382721
#
# number of rings (size 3 to 8) (size 9 to 14) (size 15 to 20)
#    0.000    1.444    1.111    5.667    0.000    4.000 
#    0.000    2.222    0.000    2.000    0.000    7.778 
#    0.000    0.000    0.000    0.000    0.000    0.000 
#
# Total GULP energy -201238.991378 kJ/mol
# GULP energy per Si atom -5589.971983 kJ/mol
# Density = 2.033633 g / cm^3
# Si number density = 20.382721 Si / 1000 Ang^3
#
#
#
# Elastic Constant Matrix: (Units=GPa)
#
#
# Indices 1 2 3 4 5 6 
#
# 1 130.4510 49.7705 2.5024 0.0000 0.0000 0.0000
# 2 49.7705 103.7192 -11.8735 0.0000 0.0000 0.0000
# 3 2.5024 -11.8735 35.3855 0.0000 0.0000 0.0000
# 4 0.0000 0.0000 0.0000 17.8364 0.0000 0.0000
# 5 0.0000 0.0000 0.0000 0.0000 19.2950 0.0000
# 6 0.0000 0.0000 0.0000 0.0000 0.0000 -23.8937
#
#
#
# Elastic Compliance Matrix: (Units=1/GPa)
#
#
# Indices 1 2 3 4 5 6 
#
# 1 0.009561 -0.004852 -0.002304 0.000000 0.000000 0.000000
# 2 -0.004852 0.012489 0.004534 0.000000 0.000000 0.000000
# 3 -0.002304 0.004534 0.029944 0.000000 0.000000 0.000000
# 4 0.000000 0.000000 0.000000 0.056065 0.000000 0.000000
# 5 0.000000 0.000000 0.000000 0.000000 0.051827 0.000000
# 6 0.000000 0.000000 0.000000 0.000000 0.000000 -0.041852
#
#
# Mechanical properties :
#
#
# Convention : Reuss Voigt Hill
#
# Bulk Modulus (GPa) = 21.39063 38.92828 30.15945
# Shear Modulus (GPa) = 36.00714 17.92463 26.96589
#
# Velocity S-wave (km/s) = 4.20760 2.96869 3.64122
# Velocity P-wave (km/s) = 5.84144 5.55796 5.70146
#
# Compressibility (1/GPa) = 0.04674945
#
# Stress axis : x y z
#
# Youngs Moduli (GPa) = 104.59212 80.07349 33.39532
#
# Poissons Ratio (x) = 0.38849 0.07695
# Poissons Ratio (y) = 0.50745 -0.15140
# Poissons Ratio (z) = 0.24099 -0.36302
#
# Static dielectric constant tensor:
#      x y z
#    x 1.721120 0.000000 0.000000 
#    y 0.000000 1.720480 0.000000 
#    z 0.000000 0.000000 1.697700 
# 
# From -- ./inp_files/7960.got.cif
#   From: 2010.05.17/outbox.cif.g08.bks.cpg/sg71_4_cif.got.tgz:7960.got - 2010.06.03 16:22:01.
