data_PCOD9524442
_publ_section_title
;
Structure prediction by ZEFSAII (Michael W. Deem and Ramdas Pophale) SiO2 
 PCOD9524442
Probable space group: I M M M
;
_chemical_formula_sum "Si O2"
_cell_formula_units_Z 50
_cell_length_a 9.166033
_cell_length_b 19.425966
_cell_length_c 14.554463
_cell_angle_alpha 90.000000
_cell_angle_beta 90.000000
_cell_angle_gamma 90.000000
_cell_volume 2591.553788
_symmetry_space_group_name_H-M "I M M M"
_symmetry_group_IT_number 71
_symmetry_cell_setting 'orthorhombic'
loop_
_space_group_symop_operation_xyz
x,y,z
-x,-y,z
x,-y,-z
-x,y,-z
-x,-y,-z
x,y,-z
-x,y,z
x,-y,z
1/2+x,1/2+y,1/2+z
1/2-x,1/2-y,1/2+z
1/2+x,1/2-y,1/2-z
1/2-x,1/2+y,1/2-z
1/2-x,1/2-y,1/2-z
1/2+x,1/2+y,1/2-z
1/2-x,1/2+y,1/2+z
1/2+x,1/2-y,1/2+z
loop_
_atom_site_type_symbol
_atom_site_label
_atom_site_fract_x
_atom_site_fract_y
_atom_site_fract_z
Si Si1 0.670020 0.718839 0.000000
Si Si2 0.000000 0.500000 0.500000
Si Si3 0.173734 0.690201 0.809794
Si Si4 0.243049 0.621188 0.500000
Si Si5 0.837461 0.918123 0.802199
O O1 0.753982 0.692929 0.090155
O O2 0.678549 0.802105 0.000000
O O3 0.500000 0.698521 0.000000
O O4 0.875123 0.439283 0.500000
O O5 0.250000 0.750000 0.750000
O O6 0.216784 0.619919 0.758119
O O7 0.000000 0.699994 0.813422
O O8 0.330086 0.610883 0.594432
O O9 0.000000 0.904023 0.764652
O O10 0.815130 0.000000 0.805145
#
# Coordination Sequence:
#
# PCOD9524442 Si02
#       5
#     8   2  16   8  16
#     4  12  25  43  66  96 130 171 217 272 324 378
#     4  12  24  36  54 112 132 178 212 260 340 392
#     4  12  26  42  66  95 131 173 218 268 323 386
#     4  12  23  35  65  93 140 169 212 263 324 387
#     4  11  24  42  65  96 132 173 217 268 327 389
#
# _framework density 19.293444000000001
#
# number of rings (size 3 to 8) (size 9 to 14) (size 15 to 20)
#    0.000    0.320    5.600    3.840    2.240    3.200 
#    0.000    0.800    0.000    4.800    0.000    0.000 
#    0.000    0.000    0.000    0.000    0.000    0.000 
#
# Total GULP energy -139555.090601 kJ/mol
# GULP energy per Si atom -5582.203624 kJ/mol
# Density = 1.924953 g / cm^3
# Si number density = 19.293444 Si / 1000 Ang^3
#
#
#
# Elastic Constant Matrix: (Units=GPa)
#
#
# Indices 1 2 3 4 5 6 
#
# 1 183.4358 32.2828 70.4687 0.0000 0.0000 0.0000
# 2 32.2828 56.4800 29.7601 0.0000 -0.0001 0.0000
# 3 70.4687 29.7601 147.8236 0.0000 -0.0001 0.0000
# 4 0.0000 0.0000 0.0000 24.8058 -0.0001 0.0000
# 5 0.0000 -0.0001 -0.0001 -0.0001-1044.4643 0.0000
# 6 0.0000 0.0000 0.0000 0.0000 0.0000 32.1523
#
#
#
# Elastic Compliance Matrix: (Units=1/GPa)
#
#
# Indices 1 2 3 4 5 6 
#
# 1 0.006976 -0.002500 -0.002822 0.000000 0.000000 0.000000
# 2 -0.002500 0.020703 -0.002976 0.000000 0.000000 0.000000
# 3 -0.002822 -0.002976 0.008709 0.000000 0.000000 0.000000
# 4 0.000000 0.000000 0.000000 0.040313 0.000000 0.000000
# 5 0.000000 0.000000 0.000000 0.000000 -0.000957 0.000000
# 6 0.000000 0.000000 0.000000 0.000000 0.000000 0.031102
#
#
# Mechanical properties :
#
#
# Convention : Reuss Voigt Hill
#
# Bulk Modulus (GPa) = 50.52798 72.52918 61.52858
# Shear Modulus (GPa) = 38.45019 -180.48605 -71.01793
#
# Velocity S-wave (km/s) = 4.46905 -9.68251 -6.07365
# Velocity P-wave (km/s) = 7.27158 9.34489 4.15037
#
# Compressibility (1/GPa) = 0.01979102
#
# Stress axis : x y z
#
# Youngs Moduli (GPa) = 143.35695 48.30324 114.82080
#
# Poissons Ratio (x) = 0.12077 0.32402
# Poissons Ratio (y) = 0.35842 0.34171
# Poissons Ratio (z) = 0.40455 0.14375
#
# Static dielectric constant tensor:
#      x y z
#    x 1.665000 0.000000 0.000000 
#    y 0.000000 1.658720 0.000000 
#    z 0.000000 0.000000 1.666610 
# 
# From -- ./inp_files/6919.got.cif
#   From: 2010.05.17/outbox.cif.g08.bks.cpg/sg71_4_cif.got.tgz:6919.got - 2010.06.03 16:22:01.
