data_PCOD9524387
_publ_section_title
;
Structure prediction by ZEFSAII (Michael W. Deem and Ramdas Pophale) SiO2 
 PCOD9524387
Probable space group: I M M M
;
_chemical_formula_sum "Si O2"
_cell_formula_units_Z 72
_cell_length_a 7.620322
_cell_length_b 16.967438
_cell_length_c 26.050779
_cell_angle_alpha 90.000000
_cell_angle_beta 90.000000
_cell_angle_gamma 90.000000
_cell_volume 3368.296458
_symmetry_space_group_name_H-M "I M M M"
_symmetry_group_IT_number 71
_symmetry_cell_setting 'orthorhombic'
loop_
_space_group_symop_operation_xyz
x,y,z
-x,-y,z
x,-y,-z
-x,y,-z
-x,-y,-z
x,y,-z
-x,y,z
x,-y,z
1/2+x,1/2+y,1/2+z
1/2-x,1/2-y,1/2+z
1/2+x,1/2-y,1/2-z
1/2-x,1/2+y,1/2-z
1/2-x,1/2-y,1/2-z
1/2+x,1/2+y,1/2-z
1/2-x,1/2+y,1/2+z
1/2+x,1/2-y,1/2+z
loop_
_atom_site_type_symbol
_atom_site_label
_atom_site_fract_x
_atom_site_fract_y
_atom_site_fract_z
Si Si1 0.292968 0.322769 0.789213
Si Si2 0.213978 0.632527 0.443071
Si Si3 0.209018 0.500000 0.749810
Si Si4 0.215135 0.500000 0.365798
Si Si5 0.714647 0.589559 0.000000
Si Si6 0.785210 0.195784 0.594431
O O1 0.500000 0.317258 0.793803
O O2 0.250000 0.250000 0.750000
O O3 0.255690 0.413763 0.772954
O O4 0.220303 0.311456 0.847099
O O5 0.272603 0.609353 0.500000
O O6 0.271841 0.575061 0.398310
O O7 0.265396 0.720584 0.429356
O O8 0.000000 0.629837 0.443734
O O9 0.279587 0.500000 0.691847
O O10 0.000000 0.500000 0.748604
O O11 0.000000 0.500000 0.364101
O O12 0.771292 0.631583 0.947380
O O13 0.770604 0.500000 0.000000
O O14 0.500000 0.592490 0.000000
O O15 0.000000 0.193307 0.595892
#
# Coordination Sequence:
#
# PCOD9524387 Si02
#       6
#    16  16   8   8   8  16
#     4  11  23  39  60  87 120 156 197 241 291 348
#     4   9  14  23  40  67 103 137 166 208 277 341
#     4  11  23  40  59  83 117 154 199 246 292 343
#     4   9  17  27  44  69 103 141 174 218 273 328
#     4   9  16  26  44  71 105 139 172 222 293 344
#     4   9  17  29  47  74 109 142 176 229 288 339
#
# _framework density 21.375789999999999
#
# number of rings (size 3 to 8) (size 9 to 14) (size 15 to 20)
#    0.000    2.333    1.111    2.667    1.556    4.889 
#    0.000    0.000    0.000    0.000    0.000    3.889 
#    0.000    5.333    0.000    0.000    0.000    0.000 
#
# Total GULP energy -200796.724143 kJ/mol
# GULP energy per Si atom -5577.686782 kJ/mol
# Density = 2.132714 g / cm^3
# Si number density = 21.375790 Si / 1000 Ang^3
#
#
#
# Elastic Constant Matrix: (Units=GPa)
#
#
# Indices 1 2 3 4 5 6 
#
# 1 48.8448 0.9524 4.8519 0.0000 0.0000 0.0000
# 2 0.9524 120.7324 44.4757 0.0000 0.0000 0.0000
# 3 4.8519 44.4757 148.1785 0.0000 0.0000 0.0000
# 4 0.0000 0.0000 0.0000 38.2307 0.0000 0.0000
# 5 0.0000 0.0000 0.0000 0.0000 12.7318 0.0000
# 6 0.0000 0.0000 0.0000 0.0000 0.0000 13.9104
#
#
#
# Elastic Compliance Matrix: (Units=1/GPa)
#
#
# Indices 1 2 3 4 5 6 
#
# 1 0.020541 0.000096 -0.000702 0.000000 0.000000 0.000000
# 2 0.000096 0.009313 -0.002798 0.000000 0.000000 0.000000
# 3 -0.000702 -0.002798 0.007612 0.000000 0.000000 0.000000
# 4 0.000000 0.000000 0.000000 0.026157 0.000000 0.000000
# 5 0.000000 0.000000 0.000000 0.000000 0.078544 0.000000
# 6 0.000000 0.000000 0.000000 0.000000 0.000000 0.071889
#
#
# Mechanical properties :
#
#
# Convention : Reuss Voigt Hill
#
# Bulk Modulus (GPa) = 32.61777 46.47954 39.54865
# Shear Modulus (GPa) = 21.63744 30.80629 26.22186
#
# Velocity S-wave (km/s) = 3.18502 3.80040 3.50624
# Velocity P-wave (km/s) = 5.36826 6.40692 5.91045
#
# Compressibility (1/GPa) = 0.03065814
#
# Stress axis : x y z
#
# Youngs Moduli (GPa) = 48.68361 107.37784 131.37958
#
# Poissons Ratio (x) = -0.01035 0.09216
# Poissons Ratio (y) = -0.00469 0.36766
# Poissons Ratio (z) = 0.03415 0.30049
#
# Static dielectric constant tensor:
#      x y z
#    x 1.833160 0.000000 0.000000 
#    y 0.000000 1.794670 0.000000 
#    z 0.000000 0.000000 1.774210 
# 
# From -- ./inp_files/62880.got.cif
#   From: 2010.05.17/outbox.cif.g08.bks.cpg/sg71_32_cif.got.tgz:62880.got - 2010.06.03 16:22:01.
