data_PCOD9524659
_publ_section_title
;
Structure prediction by ZEFSAII (Michael W. Deem and Ramdas Pophale) SiO2 
 PCOD9524659
Probable space group: I M M M
;
_chemical_formula_sum "Si O2"
_cell_formula_units_Z 80
_cell_length_a 26.996085
_cell_length_b 13.095118
_cell_length_c 14.176923
_cell_angle_alpha 90.000000
_cell_angle_beta 90.000000
_cell_angle_gamma 90.000000
_cell_volume 5011.782134
_symmetry_space_group_name_H-M "I M M M"
_symmetry_group_IT_number 71
_symmetry_cell_setting 'orthorhombic'
loop_
_space_group_symop_operation_xyz
x,y,z
-x,-y,z
x,-y,-z
-x,y,-z
-x,-y,-z
x,y,-z
-x,y,z
x,-y,z
1/2+x,1/2+y,1/2+z
1/2-x,1/2-y,1/2+z
1/2+x,1/2-y,1/2-z
1/2-x,1/2+y,1/2-z
1/2-x,1/2-y,1/2-z
1/2+x,1/2+y,1/2-z
1/2-x,1/2+y,1/2+z
1/2+x,1/2-y,1/2+z
loop_
_atom_site_type_symbol
_atom_site_label
_atom_site_fract_x
_atom_site_fract_y
_atom_site_fract_z
Si Si1 0.557422 0.500000 0.885348
Si Si2 0.705508 0.883113 0.701980
Si Si3 0.892424 0.211321 0.390020
Si Si4 0.779460 0.270651 0.392113
Si Si5 0.000000 0.376377 0.893670
Si Si6 0.908756 0.620330 0.761913
O O1 0.500000 0.500000 0.855805
O O2 0.585107 0.396154 0.856136
O O3 0.558377 0.500000 0.000000
O O4 0.735980 0.806705 0.636314
O O5 0.719032 0.856487 0.810885
O O6 0.646337 0.868992 0.695078
O O7 0.717654 0.000000 0.680480
O O8 0.905821 0.224882 0.500000
O O9 0.832625 0.213671 0.384296
O O10 0.911180 0.305805 0.327942
O O11 0.774660 0.306966 0.500000
O O12 0.951000 0.349116 0.835587
O O13 0.000000 0.500000 0.898883
O O14 0.000000 0.336292 0.000000
O O15 0.914961 0.500000 0.737342
#
# Coordination Sequence:
#
# PCOD9524659 Si02
#       6
#     8  16  16  16   8  16
#     4   9  18  30  44  66  96 128 160 187 215 269
#     4   9  18  31  47  69  97 124 157 197 237 285
#     4   9  18  31  48  71  99 126 155 191 233 283
#     4   9  18  31  47  70  96 125 158 195 239 283
#     4   9  18  32  49  68  93 122 155 194 235 277
#     4   9  18  32  49  71  95 122 156 195 240 287
#
# _framework density 15.962384999999999
#
# number of rings (size 3 to 8) (size 9 to 14) (size 15 to 20)
#    0.000    3.000    0.000    0.000    2.800    2.000 
#    0.000    6.000    0.000    1.800    0.000    1.400 
#    0.000    0.000    0.000    0.000    0.000    0.000 
#
# Total GULP energy -222744.840382 kJ/mol
# GULP energy per Si atom -5568.621010 kJ/mol
# Density = 1.592605 g / cm^3
# Si number density = 15.962385 Si / 1000 Ang^3
#
#
#
# Elastic Constant Matrix: (Units=GPa)
#
#
# Indices 1 2 3 4 5 6 
#
# 1 64.9879 37.5978 40.5856 0.0000 0.0000 0.0000
# 2 37.5978 64.1250 20.8768 0.0000 0.0000 0.0000
# 3 40.5856 20.8768 67.7936 0.0000 0.0000 0.0000
# 4 0.0000 0.0000 0.0000 11.7025 0.0000 0.0000
# 5 0.0000 0.0000 0.0000 0.0000 14.7784 0.0000
# 6 0.0000 0.0000 0.0000 0.0000 0.0000 20.9584
#
#
#
# Elastic Compliance Matrix: (Units=1/GPa)
#
#
# Indices 1 2 3 4 5 6 
#
# 1 0.033589 -0.014612 -0.015609 0.000000 0.000000 0.000000
# 2 -0.014612 0.023689 0.001453 0.000000 0.000000 0.000000
# 3 -0.015609 0.001453 0.023648 0.000000 0.000000 0.000000
# 4 0.000000 0.000000 0.000000 0.085452 0.000000 0.000000
# 5 0.000000 0.000000 0.000000 0.000000 0.067666 0.000000
# 6 0.000000 0.000000 0.000000 0.000000 0.000000 0.047714
#
#
# Mechanical properties :
#
#
# Convention : Reuss Voigt Hill
#
# Bulk Modulus (GPa) = 42.75439 43.89189 43.32314
# Shear Modulus (GPa) = 14.40548 16.01095 15.20822
#
# Velocity S-wave (km/s) = 3.00736 3.17052 3.09002
# Velocity P-wave (km/s) = 6.23711 6.39998 6.31907
#
# Compressibility (1/GPa) = 0.02338941
#
# Stress axis : x y z
#
# Youngs Moduli (GPa) = 29.77157 42.21365 42.28751
#
# Poissons Ratio (x) = 0.61684 0.66006
# Poissons Ratio (y) = 0.43503 -0.06144
# Poissons Ratio (z) = 0.46470 -0.06133
#
# Static dielectric constant tensor:
#      x y z
#    x 1.538100 0.000000 0.000000 
#    y 0.000000 1.511250 0.000000 
#    z 0.000000 0.000000 1.523790 
# 
# From -- ./inp_files/22195.got.cif
#   From: 2010.05.17/outbox.cif.g08.bks.cpg/sg71_12_cif.got.tgz:22195.got - 2010.06.03 16:22:01.
