data_PCOD9524517
_publ_section_title
;
Structure prediction by ZEFSAII (Michael W. Deem and Ramdas Pophale) SiO2 
 PCOD9524517
Probable space group: I M M M
;
_chemical_formula_sum "Si O2"
_cell_formula_units_Z 64
_cell_length_a 7.289769
_cell_length_b 13.023888
_cell_length_c 25.281258
_cell_angle_alpha 90.000000
_cell_angle_beta 90.000000
_cell_angle_gamma 90.000000
_cell_volume 2400.231329
_symmetry_space_group_name_H-M "I M M M"
_symmetry_group_IT_number 71
_symmetry_cell_setting 'orthorhombic'
loop_
_space_group_symop_operation_xyz
x,y,z
-x,-y,z
x,-y,-z
-x,y,-z
-x,-y,-z
x,y,-z
-x,y,z
x,-y,z
1/2+x,1/2+y,1/2+z
1/2-x,1/2-y,1/2+z
1/2+x,1/2-y,1/2-z
1/2-x,1/2+y,1/2-z
1/2-x,1/2-y,1/2-z
1/2+x,1/2+y,1/2-z
1/2-x,1/2+y,1/2+z
1/2+x,1/2-y,1/2+z
loop_
_atom_site_type_symbol
_atom_site_label
_atom_site_fract_x
_atom_site_fract_y
_atom_site_fract_z
Si Si1 0.725435 0.337930 0.559485
Si Si2 0.790618 0.607763 0.936826
Si Si3 0.212630 0.161660 0.172838
Si Si4 0.722222 0.386975 0.210122
O O1 0.779707 0.373292 0.500000
O O2 0.500000 0.339636 0.558568
O O3 0.790157 0.220460 0.567339
O O4 0.782783 0.381135 0.616705
O O5 0.704221 0.500000 0.918740
O O6 0.000000 0.611311 0.916681
O O7 0.803642 0.599621 0.000000
O O8 0.220335 0.286512 0.177524
O O9 0.288985 0.126302 0.229246
O O10 0.000000 0.131645 0.173937
O O11 0.500000 0.384390 0.209895
O O12 0.780748 0.500000 0.192224
#
# Coordination Sequence:
#
# PCOD9524517 Si02
#       4
#    16  16  16  16
#     4   8  13  21  35  58  87 113 136 172 222 264
#     4   7   9  13  21  36  63  97 124 145 181 235
#     4   9  17  29  47  70  90 112 151 193 221 260
#     4   9  18  32  47  63  89 123 151 182 230 274
#
# _framework density 26.664096000000001
#
# number of rings (size 3 to 8) (size 9 to 14) (size 15 to 20)
#    0.000    3.750    0.000    2.250    0.000    1.500 
#    0.000    2.500    0.000    1.500    0.000    7.000 
#    0.000    0.000    0.000   12.500    0.000   13.000 
#
# Total GULP energy -178268.718127 kJ/mol
# GULP energy per Si atom -5570.897441 kJ/mol
# Density = 2.660341 g / cm^3
# Si number density = 26.664096 Si / 1000 Ang^3
#
#
#
# Elastic Constant Matrix: (Units=GPa)
#
#
# Indices 1 2 3 4 5 6 
#
# 1 118.3294 -3.5927 0.4176 0.0000 0.0000 0.0000
# 2 -3.5927 130.6971 20.8315 0.0000 0.0000 0.0000
# 3 0.4176 20.8315 277.0987 0.0000 0.0000 0.0000
# 4 0.0000 0.0000 0.0000 -21.1040 0.0000 0.0000
# 5 0.0000 0.0000 0.0000 0.0000 2.4616 0.0000
# 6 0.0000 0.0000 0.0000 0.0000 0.0000 -10.2026
#
#
#
# Elastic Compliance Matrix: (Units=1/GPa)
#
#
# Indices 1 2 3 4 5 6 
#
# 1 0.008458 0.000237 -0.000031 0.000000 0.000000 0.000000
# 2 0.000237 0.007751 -0.000583 0.000000 0.000000 0.000000
# 3 -0.000031 -0.000583 0.003653 0.000000 0.000000 0.000000
# 4 0.000000 0.000000 0.000000 -0.047384 0.000000 0.000000
# 5 0.000000 0.000000 0.000000 0.000000 0.406235 0.000000
# 6 0.000000 0.000000 0.000000 0.000000 0.000000 -0.098014
#
#
# Mechanical properties :
#
#
# Convention : Reuss Voigt Hill
#
# Bulk Modulus (GPa) = 52.33071 62.38202 57.35637
# Shear Modulus (GPa) = 17.37194 28.12893 22.75043
#
# Velocity S-wave (km/s) = 2.55524 3.25150 2.92417
# Velocity P-wave (km/s) = 5.32674 6.12721 5.74094
#
# Compressibility (1/GPa) = 0.01910924
#
# Stress axis : x y z
#
# Youngs Moduli (GPa) = 118.22710 129.02009 273.77015
#
# Poissons Ratio (x) = -0.03063 0.00838
# Poissons Ratio (y) = -0.02807 0.15962
# Poissons Ratio (z) = 0.00362 0.07522
#
# Static dielectric constant tensor:
#      x y z
#    x 2.014070 0.000000 0.000000 
#    y 0.000000 2.033330 0.000000 
#    z 0.000000 0.000000 2.105170 
# 
# From -- ./inp_files/16285.got.cif
#   From: 2010.05.17/outbox.cif.g08.bks.cpg/sg71_9_cif.got.tgz:16285.got - 2010.06.03 16:22:01.
