data_PCOD9524957
_publ_section_title
;
Structure prediction by ZEFSAII (Michael W. Deem and Ramdas Pophale) SiO2 
 PCOD9524957
Probable space group: I B A M
;
_chemical_formula_sum "Si O2"
_cell_formula_units_Z 60
_cell_length_a 22.092745
_cell_length_b 8.435635
_cell_length_c 13.874012
_cell_angle_alpha 90.000000
_cell_angle_beta 90.000000
_cell_angle_gamma 90.000000
_cell_volume 2585.648740
_symmetry_space_group_name_H-M "I B A M"
_symmetry_group_IT_number 72
_symmetry_cell_setting 'orthorhombic'
loop_
_space_group_symop_operation_xyz
x,y,z
-x,-y,z
x,-y,1/2-z
-x,y,1/2-z
-x,-y,-z
x,y,-z
-x,y,1/2+z
x,-y,1/2+z
1/2+x,1/2+y,1/2+z
1/2-x,1/2-y,1/2+z
1/2+x,1/2-y,-z
1/2-x,1/2+y,-z
1/2-x,1/2-y,1/2-z
1/2+x,1/2+y,1/2-z
1/2-x,1/2+y,z
1/2+x,1/2-y,z
loop_
_atom_site_type_symbol
_atom_site_label
_atom_site_fract_x
_atom_site_fract_y
_atom_site_fract_z
Si Si1 0.000000 0.500000 0.500000
Si Si2 0.342430 0.082222 0.339798
Si Si3 0.902958 0.009520 0.500000
Si Si4 0.717404 0.283759 0.000000
Si Si5 0.359388 0.841880 0.500000
Si Si6 0.459440 0.270125 0.657206
O O1 0.012410 0.638952 0.415371
O O2 0.297113 0.178706 0.406567
O O3 0.396134 0.194749 0.305599
O O4 0.311319 0.000000 0.250000
O O5 0.373357 0.951064 0.408598
O O6 0.834314 0.081424 0.500000
O O7 0.937812 0.080753 0.407754
O O8 0.894005 0.822299 0.500000
O O9 0.786995 0.326658 0.000000
O O10 0.500000 0.303253 0.750000
#
# Coordination Sequence:
#
# PCOD9524957 Si02
#       6
#     4  16   8   8   8  16
#     4  10  16  28  60  86 106 158 216 250 296 358
#     4  10  21  37  62  91 120 166 219 252 304 386
#     4   9  20  38  61  95 130 163 205 260 325 377
#     4   9  20  39  62  90 129 171 208 255 318 380
#     4  11  21  40  65  91 130 164 204 269 319 368
#     4  10  20  36  61  89 121 164 212 260 312 380
#
# _framework density 23.205010000000001
#
# number of rings (size 3 to 8) (size 9 to 14) (size 15 to 20)
#    0.000    2.133    0.000    6.000    0.000    1.067 
#    0.000    6.667    0.000   28.800    0.000    5.600 
#    0.000    0.000    0.000    0.000    0.000    0.000 
#
# Total GULP energy -167402.729396 kJ/mol
# GULP energy per Si atom -5580.090980 kJ/mol
# Density = 2.315219 g / cm^3
# Si number density = 23.205010 Si / 1000 Ang^3
#
#
#
# Elastic Constant Matrix: (Units=GPa)
#
#
# Indices 1 2 3 4 5 6 
#
# 1 143.7271 46.0689 37.2643 0.0000 0.0000 0.0000
# 2 46.0689 113.7264 16.9084 0.0000 0.0000 0.0000
# 3 37.2643 16.9084 120.3387 0.0000 0.0000 0.0000
# 4 0.0000 0.0000 0.0000 -1.8355 0.0000 0.0000
# 5 0.0000 0.0000 0.0000 0.0000 15.1566 0.0000
# 6 0.0000 0.0000 0.0000 0.0000 0.0000 38.9067
#
#
#
# Elastic Compliance Matrix: (Units=1/GPa)
#
#
# Indices 1 2 3 4 5 6 
#
# 1 0.008531 -0.003129 -0.002202 0.000000 0.000000 0.000000
# 2 -0.003129 0.010128 -0.000454 0.000000 0.000000 0.000000
# 3 -0.002202 -0.000454 0.009056 0.000000 0.000000 0.000000
# 4 0.000000 0.000000 0.000000 -0.544817 0.000000 0.000000
# 5 0.000000 0.000000 0.000000 0.000000 0.065978 0.000000
# 6 0.000000 0.000000 0.000000 0.000000 0.000000 0.025702
#
#
# Mechanical properties :
#
#
# Convention : Reuss Voigt Hill
#
# Bulk Modulus (GPa) = 61.93920 64.25283 63.09602
# Shear Modulus (GPa) = -12.24081 28.94894 8.35406
#
# Velocity S-wave (km/s) = -2.29924 3.53587 1.89945
# Velocity P-wave (km/s) = 4.43863 6.66477 5.66218
#
# Compressibility (1/GPa) = 0.01614486
#
# Stress axis : x y z
#
# Youngs Moduli (GPa) = 117.21403 98.73724 110.42813
#
# Poissons Ratio (x) = 0.30890 0.24319
# Poissons Ratio (y) = 0.36671 0.05016
# Poissons Ratio (z) = 0.25814 0.04485
#
# Static dielectric constant tensor:
#      x y z
#    x 1.898910 0.000000 0.000000 
#    y 0.000000 1.870500 0.000000 
#    z 0.000000 0.000000 1.819800 
# 
# From -- ./inp_files/24729.got.cif
#   From: 2010.05.17/outbox.cif.g08.bks.cpg/sg72_13_cif.got.tgz:24729.got - 2010.06.03 17:03:01.
