data_PCOD9524752
_publ_section_title
;
Structure prediction by ZEFSAII (Michael W. Deem and Ramdas Pophale) SiO2 
 PCOD9524752
Probable space group: I M M M
;
_chemical_formula_sum "Si O2"
_cell_formula_units_Z 60
_cell_length_a 27.000000
_cell_length_b 27.000000
_cell_length_c 9.000000
_cell_angle_alpha 90.000000
_cell_angle_beta 90.000000
_cell_angle_gamma 90.000000
_cell_volume 6561.000000
_symmetry_space_group_name_H-M "I M M M"
_symmetry_group_IT_number 71
_symmetry_cell_setting 'orthorhombic'
loop_
_space_group_symop_operation_xyz
x,y,z
-x,-y,z
x,-y,-z
-x,y,-z
-x,-y,-z
x,y,-z
-x,y,z
x,-y,z
1/2+x,1/2+y,1/2+z
1/2-x,1/2-y,1/2+z
1/2+x,1/2-y,1/2-z
1/2-x,1/2+y,1/2-z
1/2-x,1/2-y,1/2-z
1/2+x,1/2+y,1/2-z
1/2-x,1/2+y,1/2+z
1/2+x,1/2-y,1/2+z
loop_
_atom_site_type_symbol
_atom_site_label
_atom_site_fract_x
_atom_site_fract_y
_atom_site_fract_z
Si Si1 0.631839 0.148654 0.174193
Si Si2 0.056387 0.000000 0.181078
Si Si3 0.196678 0.556910 0.672485
Si Si4 0.697634 0.756802 0.176607
Si Si5 0.298379 0.441841 0.825265
Si Si6 0.890320 0.900383 0.176757
Si Si7 0.101503 0.199078 0.676034
Si Si8 0.942678 0.289954 0.165155
O O1 0.652718 0.094556 0.198172
O O2 0.674109 0.189457 0.208267
O O3 0.586590 0.163085 0.276061
O O4 0.619264 0.155229 0.000000
O O5 0.082535 0.050026 0.230901
O O6 0.000000 0.000000 0.228026
O O7 0.058145 0.000000 0.000000
O O8 0.213187 0.563063 0.500000
O O9 0.182237 0.500000 0.692290
O O10 0.242281 0.568187 0.779336
O O11 0.750000 0.750000 0.250000
O O12 0.656755 0.716359 0.223265
O O13 0.702842 0.752774 0.000000
O O14 0.307613 0.500000 0.787323
O O15 0.334620 0.407184 0.733583
O O16 0.306363 0.435272 0.000000
O O17 0.913016 0.851155 0.244355
O O18 0.892239 0.898479 0.000000
O O19 0.100977 0.192737 0.500000
O O20 0.067974 0.244742 0.724869
O O21 0.000000 0.300267 0.160779
O O22 0.925245 0.275657 0.000000
#
# Coordination Sequence:
#
# PCOD9524752 Si02
#       8
#    16   8  16  16  16  16  16  16
#     4   9  19  35  54  80 111 144 181 223 272 323
#     4   9  20  38  57  77 101 133 179 233 282 325
#     4   9  18  33  54  81 113 148 187 225 263 318
#     4   9  19  33  48  71 105 141 176 216 262 320
#     4  10  20  33  50  74 107 145 185 227 269 317
#     4  11  21  35  56  78 104 141 183 229 280 331
#     4  10  22  38  54  79 110 140 179 224 277 329
#     4  10  21  38  60  84 107 137 181 226 270 327
#
# _framework density 9.1449470000000002
#
# number of rings (size 3 to 8) (size 9 to 14) (size 15 to 20)
#    0.000    2.333    0.667    2.400    1.867    5.333 
#    0.000    1.333    0.000    3.200    0.000    2.800 
#    0.000    0.000    0.000    0.000    0.000    0.000 
#
# Total GULP energy -334570.419459 kJ/mol
# GULP energy per Si atom -5576.173658 kJ/mol
# Density = 0.912413 g / cm^3
# Si number density = 9.144947 Si / 1000 Ang^3
#
#
#
# Elastic Constant Matrix: (Units=GPa)
#
#
# Indices 1 2 3 4 5 6 
#
# 1 62.2865 24.4491 27.2267 0.0000 0.0000 0.0000
# 2 24.4491 54.1580 25.2931 0.0000 0.0000 0.0000
# 3 27.2267 25.2931 23.1292 0.0000 0.0000 0.0000
# 4 0.0000 0.0000 0.0000 16.1134 0.0000 0.0000
# 5 0.0000 0.0000 0.0000 0.0000 14.3581 0.0000
# 6 0.0000 0.0000 0.0000 0.0000 0.0000 -12.2385
#
#
#
# Elastic Compliance Matrix: (Units=1/GPa)
#
#
# Indices 1 2 3 4 5 6 
#
# 1 0.034286 0.006890 -0.047894 0.000000 0.000000 0.000000
# 2 0.006890 0.039123 -0.050893 0.000000 0.000000 0.000000
# 3 -0.047894 -0.050893 0.155270 0.000000 0.000000 0.000000
# 4 0.000000 0.000000 0.000000 0.062060 0.000000 0.000000
# 5 0.000000 0.000000 0.000000 0.000000 0.069647 0.000000
# 6 0.000000 0.000000 0.000000 0.000000 0.000000 -0.081710
#
#
# Mechanical properties :
#
#
# Convention : Reuss Voigt Hill
#
# Bulk Modulus (GPa) = 22.28047 32.61239 27.44643
# Shear Modulus (GPa) = 10.47267 7.82024 9.14645
#
# Velocity S-wave (km/s) = 2.39549 2.07002 2.23868
# Velocity P-wave (km/s) = 4.45639 4.85622 4.66060
#
# Compressibility (1/GPa) = 0.04488235
#
# Stress axis : x y z
#
# Youngs Moduli (GPa) = 29.16637 25.56064 6.44041
#
# Poissons Ratio (x) = -0.17611 0.30846
# Poissons Ratio (y) = -0.20095 0.32777
# Poissons Ratio (z) = 1.39691 1.30087
#
# Static dielectric constant tensor:
#      x y z
#    x 1.632580 0.000000 0.000000 
#    y 0.000000 1.629750 0.000000 
#    z 0.000000 0.000000 1.635490 
# 
# From -- ./inp_files/15600.got.cif
#   From: 2010.05.17/outbox.ucp.g08.bks.cvg/sg71_8_cif.got.tgz:15600.got - 2010.06.11 16:29:00.
