data_PCOD9524198
_publ_section_title
;
Structure prediction by ZEFSAII (Michael W. Deem and Ramdas Pophale) SiO2 
 PCOD9524198
Probable space group: I M M M
;
_chemical_formula_sum "Si O2"
_cell_formula_units_Z 72
_cell_length_a 18.161843
_cell_length_b 26.181015
_cell_length_c 7.928629
_cell_angle_alpha 90.000000
_cell_angle_beta 90.000000
_cell_angle_gamma 90.000000
_cell_volume 3770.027284
_symmetry_space_group_name_H-M "I M M M"
_symmetry_group_IT_number 71
_symmetry_cell_setting 'orthorhombic'
loop_
_space_group_symop_operation_xyz
x,y,z
-x,-y,z
x,-y,-z
-x,y,-z
-x,-y,-z
x,y,-z
-x,y,z
x,-y,z
1/2+x,1/2+y,1/2+z
1/2-x,1/2-y,1/2+z
1/2+x,1/2-y,1/2-z
1/2-x,1/2+y,1/2-z
1/2-x,1/2-y,1/2-z
1/2+x,1/2+y,1/2-z
1/2-x,1/2+y,1/2+z
1/2+x,1/2-y,1/2+z
loop_
_atom_site_type_symbol
_atom_site_label
_atom_site_fract_x
_atom_site_fract_y
_atom_site_fract_z
Si Si1 0.411930 0.394408 0.500000
Si Si2 0.088352 0.703123 0.697381
Si Si3 0.675761 0.900336 0.802139
Si Si4 0.089215 0.222804 0.000000
Si Si5 0.585408 0.000000 0.297109
Si Si6 0.672483 0.439794 0.187351
O O1 0.500000 0.395302 0.500000
O O2 0.385318 0.335512 0.500000
O O3 0.381017 0.421843 0.665582
O O4 0.102167 0.716191 0.500000
O O5 0.131400 0.651059 0.738942
O O6 0.110630 0.746433 0.831250
O O7 0.000000 0.694740 0.713901
O O8 0.751312 0.909103 0.703786
O O9 0.624806 0.949352 0.769379
O O10 0.694634 0.898733 0.000000
O O11 0.000000 0.221402 0.000000
O O12 0.500000 0.000000 0.248301
O O13 0.590716 0.000000 0.500000
O O14 0.689751 0.500000 0.208778
O O15 0.641124 0.432571 0.000000
#
# Coordination Sequence:
#
# PCOD9524198 Si02
#       6
#     8  16  16   8   8  16
#     4  11  25  46  71  96 117 150 205 261 320 389
#     4   9  19  35  58  88 124 167 212 253 295 345
#     4  11  21  36  59  85 124 172 212 253 299 358
#     4   9  20  39  64  90 120 159 204 260 316 357
#     4  11  23  33  49  87 129 170 221 261 293 349
#     4  11  24  42  65  93 127 165 198 245 320 384
#
# _framework density 19.098004
#
# number of rings (size 3 to 8) (size 9 to 14) (size 15 to 20)
#    0.000    1.667    2.222    2.000    3.111    4.000 
#    0.000    4.444    0.000    0.000    0.000    0.000 
#    0.000    0.000    0.000    0.000    0.000    0.000 
#
# Total GULP energy -201121.222394 kJ/mol
# GULP energy per Si atom -5586.700622 kJ/mol
# Density = 1.905454 g / cm^3
# Si number density = 19.098004 Si / 1000 Ang^3
#
#
#
# Elastic Constant Matrix: (Units=GPa)
#
#
# Indices 1 2 3 4 5 6 
#
# 1 59.4025 17.8005 43.8201 0.0000 0.0000 0.0000
# 2 17.8005 67.2147 64.4899 0.0000 0.0000 0.0000
# 3 43.8201 64.4899 127.2135 0.0000 0.0000 0.0000
# 4 0.0000 0.0000 0.0000 20.3606 0.0000 0.0000
# 5 0.0000 0.0000 0.0000 0.0000 5.5517 0.0000
# 6 0.0000 0.0000 0.0000 0.0000 0.0000 -232.3416
#
#
#
# Elastic Compliance Matrix: (Units=1/GPa)
#
#
# Indices 1 2 3 4 5 6 
#
# 1 0.022860 0.002923 -0.009356 0.000000 0.000000 0.000000
# 2 0.002923 0.029341 -0.015881 0.000000 0.000000 0.000000
# 3 -0.009356 -0.015881 0.019134 0.000000 0.000000 0.000000
# 4 0.000000 0.000000 0.000000 0.049115 0.000000 0.000000
# 5 0.000000 0.000000 0.000000 0.000000 0.180124 0.000000
# 6 0.000000 0.000000 0.000000 0.000000 0.000000 -0.004304
#
#
# Mechanical properties :
#
#
# Convention : Reuss Voigt Hill
#
# Bulk Modulus (GPa) = 37.44349 56.22794 46.83571
# Shear Modulus (GPa) = 14.29383 -32.77118 -9.23867
#
# Velocity S-wave (km/s) = 2.73874 -4.14689 -2.20182
# Velocity P-wave (km/s) = 5.44513 2.56451 4.25595
#
# Compressibility (1/GPa) = 0.02670692
#
# Stress axis : x y z
#
# Youngs Moduli (GPa) = 43.74389 34.08232 52.26212
#
# Poissons Ratio (x) = -0.09962 0.48897
# Poissons Ratio (y) = -0.12785 0.82997
# Poissons Ratio (z) = 0.40928 0.54126
#
# Static dielectric constant tensor:
#      x y z
#    x 1.645460 0.000000 0.000000 
#    y 0.000000 1.631930 0.000000 
#    z 0.000000 0.000000 1.673820 
# 
# From -- ./inp_files/8027.got.cif
#   From: 2010.05.17/outbox.cif.g08.bks.cpg/sg71_5_cif.got.tgz:8027.got - 2010.06.03 16:22:01.
