data_PCOD9524347
_publ_section_title
;
Structure prediction by ZEFSAII (Michael W. Deem and Ramdas Pophale) SiO2 
 PCOD9524347
Probable space group: I M M M
;
_chemical_formula_sum "Si O2"
_cell_formula_units_Z 64
_cell_length_a 15.207809
_cell_length_b 7.471386
_cell_length_c 25.886452
_cell_angle_alpha 90.000000
_cell_angle_beta 90.000000
_cell_angle_gamma 90.000000
_cell_volume 2941.306981
_symmetry_space_group_name_H-M "I M M M"
_symmetry_group_IT_number 71
_symmetry_cell_setting 'orthorhombic'
loop_
_space_group_symop_operation_xyz
x,y,z
-x,-y,z
x,-y,-z
-x,y,-z
-x,-y,-z
x,y,-z
-x,y,z
x,-y,z
1/2+x,1/2+y,1/2+z
1/2-x,1/2-y,1/2+z
1/2+x,1/2-y,1/2-z
1/2-x,1/2+y,1/2-z
1/2-x,1/2-y,1/2-z
1/2+x,1/2+y,1/2-z
1/2-x,1/2+y,1/2+z
1/2+x,1/2-y,1/2+z
loop_
_atom_site_type_symbol
_atom_site_label
_atom_site_fract_x
_atom_site_fract_y
_atom_site_fract_z
Si Si1 0.149480 0.280433 0.613022
Si Si2 0.000000 0.280930 0.308615
Si Si3 0.650572 0.286616 0.611086
Si Si4 0.645338 0.793217 0.000000
Si Si5 0.360055 0.706460 0.500000
Si Si6 0.000000 0.711551 0.808236
O O1 0.148719 0.500000 0.611562
O O2 0.250269 0.222143 0.621067
O O3 0.119553 0.218473 0.555807
O O4 0.085020 0.225276 0.658509
O O5 0.000000 0.500000 0.307940
O O6 0.000000 0.215134 0.249857
O O7 0.658216 0.500000 0.603403
O O8 0.615887 0.214454 0.555750
O O9 0.584906 0.258954 0.657910
O O10 0.752672 0.793147 0.000000
O O11 0.616154 0.000000 0.000000
O O12 0.391134 0.500000 0.500000
O O13 0.000000 0.500000 0.803003
#
# Coordination Sequence:
#
# PCOD9524347 Si02
#       6
#    16   8  16   8   8   8
#     4   8  14  26  46  70  94 120 149 186 233 280
#     4   9  18  30  42  63  97 129 154 185 230 276
#     4   9  17  32  53  72  91 119 155 192 231 278
#     4   7  10  19  39  69  96 113 140 183 229 280
#     4   7  12  25  47  73  94 111 140 189 241 278
#     4  11  23  34  43  63  97 131 162 195 228 264
#
# _framework density 21.759035999999998
#
# number of rings (size 3 to 8) (size 9 to 14) (size 15 to 20)
#    0.000    3.500    0.000    3.375    0.000    2.000 
#    0.000    5.625    0.000    1.500    0.000    0.000 
#    0.000    0.000    0.000   13.500    0.000   13.000 
#
# Total GULP energy -178427.181956 kJ/mol
# GULP energy per Si atom -5575.849436 kJ/mol
# Density = 2.170951 g / cm^3
# Si number density = 21.759036 Si / 1000 Ang^3
#
#
#
# Elastic Constant Matrix: (Units=GPa)
#
#
# Indices 1 2 3 4 5 6 
#
# 1 124.1830 2.2839 119.4353 0.0000 0.0000 0.0000
# 2 2.2839 59.4113 6.2519 0.0000 0.0000 0.0000
# 3 119.4353 6.2519 271.3107 0.0000 0.0000 0.0000
# 4 0.0000 0.0000 0.0000 10.8470 0.0000 0.0000
# 5 0.0000 0.0000 0.0000 0.0000 45.9142 0.0000
# 6 0.0000 0.0000 0.0000 0.0000 0.0000 -219.8443
#
#
#
# Elastic Compliance Matrix: (Units=1/GPa)
#
#
# Indices 1 2 3 4 5 6 
#
# 1 0.013966 0.000110 -0.006151 0.000000 0.000000 0.000000
# 2 0.000110 0.016874 -0.000437 0.000000 0.000000 0.000000
# 3 -0.006151 -0.000437 0.006404 0.000000 0.000000 0.000000
# 4 0.000000 0.000000 0.000000 0.092192 0.000000 0.000000
# 5 0.000000 0.000000 0.000000 0.000000 0.021780 0.000000
# 6 0.000000 0.000000 0.000000 0.000000 0.000000 -0.004549
#
#
# Mechanical properties :
#
#
# Convention : Reuss Voigt Hill
#
# Bulk Modulus (GPa) = 41.17291 78.98303 60.07797
# Shear Modulus (GPa) = 29.81205 -10.82104 9.49551
#
# Velocity S-wave (km/s) = 3.70550 -2.23247 2.09127
# Velocity P-wave (km/s) = 6.10499 5.45275 5.78807
#
# Compressibility (1/GPa) = 0.02428781
#
# Stress axis : x y z
#
# Youngs Moduli (GPa) = 71.60194 59.26416 156.16452
#
# Poissons Ratio (x) = -0.00654 0.96051
# Poissons Ratio (y) = -0.00790 0.06831
# Poissons Ratio (z) = 0.44040 0.02592
#
# Static dielectric constant tensor:
#      x y z
#    x 1.720170 0.000000 0.000000 
#    y 0.000000 1.876740 0.000000 
#    z 0.000000 0.000000 1.813110 
# 
# From -- ./inp_files/7860.got.cif
#   From: 2010.05.17/outbox.cif.g08.bks.cpg/sg71_4_cif.got.tgz:7860.got - 2010.06.03 16:22:01.
