data_PCOD9524869
_publ_section_title
;
Structure prediction by ZEFSAII (Michael W. Deem and Ramdas Pophale) SiO2 
 PCOD9524869
Probable space group: I M M M
;
_chemical_formula_sum "Si O2"
_cell_formula_units_Z 44
_cell_length_a 21.000000
_cell_length_b 9.000000
_cell_length_c 24.000000
_cell_angle_alpha 90.000000
_cell_angle_beta 90.000000
_cell_angle_gamma 90.000000
_cell_volume 4536.000000
_symmetry_space_group_name_H-M "I M M M"
_symmetry_group_IT_number 71
_symmetry_cell_setting 'orthorhombic'
loop_
_space_group_symop_operation_xyz
x,y,z
-x,-y,z
x,-y,-z
-x,y,-z
-x,-y,-z
x,y,-z
-x,y,z
x,-y,z
1/2+x,1/2+y,1/2+z
1/2-x,1/2-y,1/2+z
1/2+x,1/2-y,1/2-z
1/2-x,1/2+y,1/2-z
1/2-x,1/2-y,1/2-z
1/2+x,1/2+y,1/2-z
1/2-x,1/2+y,1/2+z
1/2+x,1/2-y,1/2+z
loop_
_atom_site_type_symbol
_atom_site_label
_atom_site_fract_x
_atom_site_fract_y
_atom_site_fract_z
Si Si1 0.574613 0.319993 0.000000
Si Si2 0.132789 0.174391 0.164381
Si Si3 0.755296 0.174261 0.689232
Si Si4 0.072251 0.333315 0.730966
Si Si5 0.424081 0.168447 0.438076
Si Si6 0.612369 0.323867 0.124200
O O1 0.605099 0.274393 0.940277
O O2 0.577724 0.500000 0.000000
O O3 0.500000 0.277293 0.000000
O O4 0.199192 0.254545 0.154149
O O5 0.107848 0.233697 0.223821
O O6 0.090726 0.223128 0.112351
O O7 0.139657 0.000000 0.168159
O O8 0.750000 0.250000 0.750000
O O9 0.818806 0.194515 0.653073
O O10 0.746664 0.000000 0.697920
O O11 0.099708 0.500000 0.730146
O O12 0.071533 0.266798 0.669016
O O13 0.000000 0.341503 0.751166
O O14 0.400279 0.211945 0.500000
O O15 0.500000 0.160067 0.441688
O O16 0.400799 0.000000 0.425829
O O17 0.595984 0.500000 0.126031
#
# Coordination Sequence:
#
# PCOD9524869 Si02
#       6
#     8  16  16  16  16  16
#     4   9  18  36  63  93 123 153 192 247 304 361
#     4  12  24  37  57  85 118 156 197 244 296 355
#     4  11  22  38  60  86 117 154 197 244 295 355
#     4  11  23  37  57  86 119 153 192 243 300 358
#     4   9  19  38  62  86 115 152 193 240 297 357
#     4  10  21  38  62  89 117 154 198 245 299 360
#
# _framework density 9.7001760000000008
#
# number of rings (size 3 to 8) (size 9 to 14) (size 15 to 20)
#    0.000    1.545    1.818    4.364    0.000    5.818 
#    1.636    1.364    0.000    1.636    0.000    0.000 
#    0.000    0.000    0.000    0.000    0.000    0.000 
#
# Total GULP energy -245275.185301 kJ/mol
# GULP energy per Si atom -5574.436030 kJ/mol
# Density = 0.967810 g / cm^3
# Si number density = 9.700176 Si / 1000 Ang^3
#
#
#
# Elastic Constant Matrix: (Units=GPa)
#
#
# Indices 1 2 3 4 5 6 
#
# 1 61.5819 75.1679 42.6003 0.0000 0.0000 0.0000
# 2 75.1679 52.3384 50.5927 0.0000 0.0000 0.0000
# 3 42.6003 50.5927 133.4693 0.0000 0.0000 0.0000
# 4 0.0000 0.0000 0.0000 28.5776 0.0000 0.0000
# 5 0.0000 0.0000 0.0000 0.0000 -245.6078 0.0000
# 6 0.0000 0.0000 0.0000 0.0000 0.0000 15.2839
#
#
#
# Elastic Compliance Matrix: (Units=1/GPa)
#
#
# Indices 1 2 3 4 5 6 
#
# 1 -0.017526 0.031192 -0.006230 0.000000 0.000000 0.000000
# 2 0.031192 -0.025360 -0.000343 0.000000 0.000000 0.000000
# 3 -0.006230 -0.000343 0.009611 0.000000 0.000000 0.000000
# 4 0.000000 0.000000 0.000000 0.034992 0.000000 0.000000
# 5 0.000000 0.000000 0.000000 0.000000 -0.004072 0.000000
# 6 0.000000 0.000000 0.000000 0.000000 0.000000 0.065428
#
#
# Mechanical properties :
#
#
# Convention : Reuss Voigt Hill
#
# Bulk Modulus (GPa) = 62.64118 64.90125 63.77121
# Shear Modulus (GPa) = 261.01347 -35.08066 112.96640
#
# Velocity S-wave (km/s) = 11.61175 -4.25696 7.63907
# Velocity P-wave (km/s) = 14.56488 3.06006 10.52377
#
# Compressibility (1/GPa) = 0.01596394
#
# Stress axis : x y z
#
# Youngs Moduli (GPa) = -57.05924 -39.43177 104.05000
#
# Poissons Ratio (x) = 1.22997 0.64822
# Poissons Ratio (y) = 1.77981 0.03567
# Poissons Ratio (z) = -0.35548 -0.01352
#
# Static dielectric constant tensor:
#      x y z
#    x 1.806240 0.000000 0.000000 
#    y 0.000000 1.680220 0.000000 
#    z 0.000000 0.000000 1.660250 
# 
# From -- ./inp_files/10473.got.cif
#   From: 2010.05.17/outbox.ucp.g08.bks.cvg/sg71_6_cif.got.tgz:10473.got - 2010.06.11 16:29:00.
