data_PCOD9524871
_publ_section_title
;
Structure prediction by ZEFSAII (Michael W. Deem and Ramdas Pophale) SiO2 
 PCOD9524871
Probable space group: I M M M
;
_chemical_formula_sum "Si O2"
_cell_formula_units_Z 36
_cell_length_a 21.000000
_cell_length_b 21.000000
_cell_length_c 9.000000
_cell_angle_alpha 90.000000
_cell_angle_beta 90.000000
_cell_angle_gamma 90.000000
_cell_volume 3969.000000
_symmetry_space_group_name_H-M "I M M M"
_symmetry_group_IT_number 71
_symmetry_cell_setting 'orthorhombic'
loop_
_space_group_symop_operation_xyz
x,y,z
-x,-y,z
x,-y,-z
-x,y,-z
-x,-y,-z
x,y,-z
-x,y,z
x,-y,z
1/2+x,1/2+y,1/2+z
1/2-x,1/2-y,1/2+z
1/2+x,1/2-y,1/2-z
1/2-x,1/2+y,1/2-z
1/2-x,1/2-y,1/2-z
1/2+x,1/2+y,1/2-z
1/2-x,1/2+y,1/2+z
1/2+x,1/2-y,1/2+z
loop_
_atom_site_type_symbol
_atom_site_label
_atom_site_fract_x
_atom_site_fract_y
_atom_site_fract_z
Si Si1 0.299416 0.697903 0.323345
Si Si2 0.573412 0.000000 0.161924
Si Si3 0.250994 0.423915 0.169454
Si Si4 0.573056 0.253895 0.823101
Si Si5 0.607697 0.125411 0.331588
O O1 0.294754 0.706493 0.500000
O O2 0.250000 0.750000 0.250000
O O3 0.286968 0.624271 0.278407
O O4 0.370343 0.711852 0.264433
O O5 0.585287 0.939452 0.261328
O O6 0.500000 0.000000 0.134382
O O7 0.607462 0.000000 0.000000
O O8 0.245403 0.500000 0.208394
O O9 0.182997 0.388062 0.163446
O O10 0.276990 0.421884 0.000000
O O11 0.500000 0.271980 0.786458
O O12 0.584454 0.181021 0.775055
O O13 0.581639 0.261228 0.000000
O O14 0.585794 0.137387 0.500000
#
# Coordination Sequence:
#
# PCOD9524871 Si02
#       5
#    16   8  16  16  16
#     4  12  24  39  63  92 123 160 205 253 305 361
#     4  11  23  35  47  69 109 159 204 245 290 349
#     4  10  21  39  61  87 121 158 199 248 303 361
#     4  11  24  41  61  87 120 158 201 249 304 363
#     4  11  21  35  56  82 114 155 199 245 296 353
#
# _framework density 9.0702949999999998
#
# number of rings (size 3 to 8) (size 9 to 14) (size 15 to 20)
#    0.000    1.000    3.333    4.333    0.000    6.667 
#    0.000    0.000    0.000    0.667    0.000    4.667 
#    0.000    0.000    0.000    0.000    0.000    0.000 
#
# Total GULP energy -200596.268514 kJ/mol
# GULP energy per Si atom -5572.118570 kJ/mol
# Density = 0.904965 g / cm^3
# Si number density = 9.070295 Si / 1000 Ang^3
#
#
#
# Elastic Constant Matrix: (Units=GPa)
#
#
# Indices 1 2 3 4 5 6 
#
# 1 97.0121 34.0275 58.3562 0.0000 0.0000 0.0000
# 2 34.0275 54.1498 34.7591 0.0000 0.0000 0.0000
# 3 58.3562 34.7591 107.4949 0.0000 0.0000 0.0000
# 4 0.0000 0.0000 0.0000 31.1579 0.0000 0.0000
# 5 0.0000 0.0000 0.0000 0.0000 25.5269 0.0000
# 6 0.0000 0.0000 0.0000 0.0000 0.0000 154.0443
#
#
#
# Elastic Compliance Matrix: (Units=1/GPa)
#
#
# Indices 1 2 3 4 5 6 
#
# 1 0.016673 -0.005890 -0.007147 0.000000 0.000000 0.000000
# 2 -0.005890 0.025385 -0.005011 0.000000 0.000000 0.000000
# 3 -0.007147 -0.005011 0.014803 0.000000 0.000000 0.000000
# 4 0.000000 0.000000 0.000000 0.032095 0.000000 0.000000
# 5 0.000000 0.000000 0.000000 0.000000 0.039174 0.000000
# 6 0.000000 0.000000 0.000000 0.000000 0.000000 0.006492
#
#
# Mechanical properties :
#
#
# Convention : Reuss Voigt Hill
#
# Bulk Modulus (GPa) = 48.15613 56.99360 52.57486
# Shear Modulus (GPa) = 28.14712 50.91344 39.53028
#
# Velocity S-wave (km/s) = 3.94332 5.30349 4.67315
# Velocity P-wave (km/s) = 6.88017 8.30593 7.62644
#
# Compressibility (1/GPa) = 0.02076579
#
# Stress axis : x y z
#
# Youngs Moduli (GPa) = 59.97770 39.39352 67.55409
#
# Poissons Ratio (x) = 0.23201 0.48280
# Poissons Ratio (y) = 0.35324 0.33852
# Poissons Ratio (z) = 0.42865 0.19740
#
# Static dielectric constant tensor:
#      x y z
#    x 1.731900 0.000000 0.000000 
#    y 0.000000 1.576470 0.000000 
#    z 0.000000 0.000000 1.755630 
# 
# From -- ./inp_files/9926.got.cif
#   From: 2010.05.17/outbox.ucp.g08.bks.cvg/sg71_5_cif.got.tgz:9926.got - 2010.06.11 16:29:00.
