data_PCOD9524802
_publ_section_title
;
Structure prediction by ZEFSAII (Michael W. Deem and Ramdas Pophale) SiO2 
 PCOD9524802
Probable space group: I M M M
;
_chemical_formula_sum "Si O2"
_cell_formula_units_Z 50
_cell_length_a 15.000000
_cell_length_b 18.000000
_cell_length_c 21.000000
_cell_angle_alpha 90.000000
_cell_angle_beta 90.000000
_cell_angle_gamma 90.000000
_cell_volume 5670.000000
_symmetry_space_group_name_H-M "I M M M"
_symmetry_group_IT_number 71
_symmetry_cell_setting 'orthorhombic'
loop_
_space_group_symop_operation_xyz
x,y,z
-x,-y,z
x,-y,-z
-x,y,-z
-x,-y,-z
x,y,-z
-x,y,z
x,-y,z
1/2+x,1/2+y,1/2+z
1/2-x,1/2-y,1/2+z
1/2+x,1/2-y,1/2-z
1/2-x,1/2+y,1/2-z
1/2-x,1/2-y,1/2-z
1/2+x,1/2+y,1/2-z
1/2-x,1/2+y,1/2+z
1/2+x,1/2-y,1/2+z
loop_
_atom_site_type_symbol
_atom_site_label
_atom_site_fract_x
_atom_site_fract_y
_atom_site_fract_z
Si Si1 0.107418 0.588132 0.664389
Si Si2 0.274739 0.372616 0.108942
Si Si3 0.397079 0.689867 0.346044
Si Si4 0.224049 0.698075 0.425297
Si Si5 0.294031 0.500000 0.000000
Si Si6 0.103051 0.638838 0.809498
Si Si7 0.393985 0.586484 0.771898
O O1 0.128799 0.500000 0.654558
O O2 0.160902 0.645106 0.618411
O O3 0.125310 0.609735 0.738612
O O4 0.000000 0.596732 0.655009
O O5 0.287461 0.287205 0.085920
O O6 0.175270 0.385428 0.138039
O O7 0.340855 0.383424 0.168112
O O8 0.292955 0.434027 0.055533
O O9 0.500000 0.678406 0.365925
O O10 0.325734 0.684639 0.402192
O O11 0.392460 0.771419 0.313528
O O12 0.372207 0.631177 0.291780
O O13 0.211199 0.682071 0.500000
O O14 0.000000 0.617010 0.823349
O O15 0.500000 0.594598 0.782717
O O16 0.373406 0.500000 0.763593
#
# Coordination Sequence:
#
# PCOD9524802 Si02
#       7
#    16  16  16  16   4  16  16
#     4  10  22  39  60  88 116 144 188 243 290 334
#     4  11  22  39  58  82 118 155 191 231 274 333
#     4   9  19  36  58  85 114 145 189 239 284 336
#     4  11  23  38  57  82 114 156 194 226 281 345
#     4  12  24  40  58  84 126 160 186 226 270 336
#     4   9  19  37  61  86 112 147 189 236 288 333
#     4  10  20  35  58  84 109 143 187 237 290 334
#
# _framework density 8.8183419999999995
#
# number of rings (size 3 to 8) (size 9 to 14) (size 15 to 20)
#    0.000    1.920    1.600    1.920    1.120    7.360 
#    0.000    2.400    0.000    0.000    0.000    3.360 
#    0.000    0.000    0.000    0.000    0.000    0.000 
#
# Total GULP energy -278506.877637 kJ/mol
# GULP energy per Si atom -5570.137553 kJ/mol
# Density = 0.879827 g / cm^3
# Si number density = 8.818342 Si / 1000 Ang^3
#
#
#
# Elastic Constant Matrix: (Units=GPa)
#
#
# Indices 1 2 3 4 5 6 
#
# 1 27.8810 29.8943 15.2547 0.0000 0.0000 0.0000
# 2 29.8943 65.4957 25.5307 0.0000 0.0000 0.0000
# 3 15.2547 25.5307 53.4487 0.0000 0.0000 0.0000
# 4 0.0000 0.0000 0.0000 39.5301 0.0000 0.0000
# 5 0.0000 0.0000 0.0000 0.0000 11.0437 0.0000
# 6 0.0000 0.0000 0.0000 0.0000 0.0000 24.3657
#
#
#
# Elastic Compliance Matrix: (Units=1/GPa)
#
#
# Indices 1 2 3 4 5 6 
#
# 1 0.071746 -0.030431 -0.005941 0.000000 0.000000 0.000000
# 2 -0.030431 0.031669 -0.006442 0.000000 0.000000 0.000000
# 3 -0.005941 -0.006442 0.023482 0.000000 0.000000 0.000000
# 4 0.000000 0.000000 0.000000 0.025297 0.000000 0.000000
# 5 0.000000 0.000000 0.000000 0.000000 0.090549 0.000000
# 6 0.000000 0.000000 0.000000 0.000000 0.000000 0.041041
#
#
# Mechanical properties :
#
#
# Convention : Reuss Voigt Hill
#
# Bulk Modulus (GPa) = 24.23125 32.02055 28.12590
# Shear Modulus (GPa) = 13.04906 20.06428 16.55667
#
# Velocity S-wave (km/s) = 2.72303 3.37656 3.06725
# Velocity P-wave (km/s) = 4.86369 5.77898 5.34098
#
# Compressibility (1/GPa) = 0.04126903
#
# Stress axis : x y z
#
# Youngs Moduli (GPa) = 13.93807 31.57650 42.58546
#
# Poissons Ratio (x) = 0.96091 0.25299
# Poissons Ratio (y) = 0.42415 0.27433
# Poissons Ratio (z) = 0.08280 0.20341
#
# Static dielectric constant tensor:
#      x y z
#    x 1.629190 0.000000 0.000000 
#    y 0.000000 1.600020 0.000000 
#    z 0.000000 0.000000 1.562390 
# 
# From -- ./inp_files/36717.got.cif
#   From: 2010.05.17/outbox.ucp.g08.bks.cvg/sg71_19_cif.got.tgz:36717.got - 2010.06.11 16:29:00.
