data_PCOD9524876
_publ_section_title
;
Structure prediction by ZEFSAII (Michael W. Deem and Ramdas Pophale) SiO2 
 PCOD9524876
Probable space group: I M M M
;
_chemical_formula_sum "Si O2"
_cell_formula_units_Z 44
_cell_length_a 15.000000
_cell_length_b 27.000000
_cell_length_c 12.000000
_cell_angle_alpha 90.000000
_cell_angle_beta 90.000000
_cell_angle_gamma 90.000000
_cell_volume 4860.000000
_symmetry_space_group_name_H-M "I M M M"
_symmetry_group_IT_number 71
_symmetry_cell_setting 'orthorhombic'
loop_
_space_group_symop_operation_xyz
x,y,z
-x,-y,z
x,-y,-z
-x,y,-z
-x,-y,-z
x,y,-z
-x,y,z
x,-y,z
1/2+x,1/2+y,1/2+z
1/2-x,1/2-y,1/2+z
1/2+x,1/2-y,1/2-z
1/2-x,1/2+y,1/2-z
1/2-x,1/2-y,1/2-z
1/2+x,1/2+y,1/2-z
1/2-x,1/2+y,1/2+z
1/2+x,1/2-y,1/2+z
loop_
_atom_site_type_symbol
_atom_site_label
_atom_site_fract_x
_atom_site_fract_y
_atom_site_fract_z
Si Si1 0.000000 0.279500 0.136019
Si Si2 0.000000 0.838653 0.867023
Si Si3 0.391011 0.385570 0.000000
Si Si4 0.326806 0.211778 0.786658
Si Si5 0.104695 0.229281 0.500000
Si Si6 0.301571 0.622990 0.365207
Si Si7 0.737503 0.558923 0.166956
Si Si8 0.895600 0.559974 0.000000
O O1 0.907377 0.297102 0.196721
O O2 0.000000 0.219972 0.156313
O O3 0.000000 0.287810 0.000000
O O4 0.096202 0.861113 0.831565
O O5 0.000000 0.844285 0.000000
O O6 0.342575 0.412789 0.103185
O O7 0.500000 0.389492 0.000000
O O8 0.361791 0.327617 0.000000
O O9 0.250000 0.250000 0.750000
O O10 0.368939 0.239123 0.892813
O O11 0.270682 0.163853 0.825267
O O12 0.000000 0.223369 0.500000
O O13 0.299120 0.618409 0.500000
O O14 0.272505 0.574920 0.295097
O O15 0.728242 0.500000 0.152623
O O16 0.831842 0.573341 0.106239
O O17 0.901563 0.500000 0.000000
O O18 0.000000 0.578032 0.000000
#
# Coordination Sequence:
#
# PCOD9524876 Si02
#       8
#     8   8   8  16   8  16  16   8
#     4  11  24  41  61  90 125 163 210 265 319 375
#     4   9  20  38  58  85 118 160 205 243 300 372
#     4  10  22  37  61  94 130 164 208 253 319 382
#     4  12  23  38  62  87 126 164 208 258 311 377
#     4  11  23  40  61  92 126 173 210 250 318 393
#     4  11  23  41  63  88 123 167 210 258 314 372
#     4  10  22  40  62  92 123 161 213 263 316 374
#     4   8  16  38  67  88 113 148 196 259 323 376
#
# _framework density 9.0534979999999994
#
# number of rings (size 3 to 8) (size 9 to 14) (size 15 to 20)
#    0.000    1.545    3.636    1.909    2.545    1.091 
#    4.909    0.000    0.000    1.636    0.000    2.545 
#    0.000    0.000    0.000    0.000    0.000    0.000 
#
# Total GULP energy -245340.208013 kJ/mol
# GULP energy per Si atom -5575.913818 kJ/mol
# Density = 0.903289 g / cm^3
# Si number density = 9.053498 Si / 1000 Ang^3
#
#
#
# Elastic Constant Matrix: (Units=GPa)
#
#
# Indices 1 2 3 4 5 6 
#
# 1 151.7868 27.7038 51.8828 0.0000 0.0000 0.0000
# 2 27.7038 64.6767 25.2823 0.0000 0.0000 0.0000
# 3 51.8828 25.2823 114.5695 0.0002 0.0000 0.0000
# 4 0.0000 0.0000 0.0002 -7.0506 0.0000 0.0000
# 5 0.0000 0.0000 0.0000 0.0000 33.0776 0.0000
# 6 0.0000 0.0000 0.0000 0.0000 0.0000 26.0232
#
#
#
# Elastic Compliance Matrix: (Units=1/GPa)
#
#
# Indices 1 2 3 4 5 6 
#
# 1 0.008076 -0.002221 -0.003167 0.000000 0.000000 0.000000
# 2 -0.002221 0.017532 -0.002863 0.000000 0.000000 0.000000
# 3 -0.003167 -0.002863 0.010794 0.000000 0.000000 0.000000
# 4 0.000000 0.000000 0.000000 -0.141832 0.000000 0.000000
# 5 0.000000 0.000000 0.000000 0.000000 0.030232 0.000000
# 6 0.000000 0.000000 0.000000 0.000000 0.000000 0.038427
#
#
# Mechanical properties :
#
#
# Convention : Reuss Voigt Hill
#
# Bulk Modulus (GPa) = 50.25152 60.08565 55.16859
# Shear Modulus (GPa) = -366.73496 25.48764 -170.62366
#
# Velocity S-wave (km/s) = -14.24701 3.75589 -9.71779
# Velocity P-wave (km/s) = 15.58280 7.21558 9.76625
#
# Compressibility (1/GPa) = 0.01989989
#
# Stress axis : x y z
#
# Youngs Moduli (GPa) = 123.82079 57.03812 92.64136
#
# Poissons Ratio (x) = 0.12670 0.29341
# Poissons Ratio (y) = 0.27505 0.26522
# Poissons Ratio (z) = 0.39215 0.16329
#
# Static dielectric constant tensor:
#      x y z
#    x 1.655510 0.000000 0.000000 
#    y 0.000000 1.634090 0.000000 
#    z 0.000000 0.000000 1.645820 
# 
# From -- ./inp_files/22397.got.cif
#   From: 2010.05.17/outbox.ucp.g08.bks.cvg/sg71_12_cif.got.tgz:22397.got - 2010.06.11 16:29:00.
