data_PCOD9524234
_publ_section_title
;
Structure prediction by ZEFSAII (Michael W. Deem and Ramdas Pophale) SiO2 
 PCOD9524234
Probable space group: I M M M
;
_chemical_formula_sum "Si O2"
_cell_formula_units_Z 80
_cell_length_a 26.722169
_cell_length_b 9.689479
_cell_length_c 15.425142
_cell_angle_alpha 90.000000
_cell_angle_beta 90.000000
_cell_angle_gamma 90.000000
_cell_volume 3993.937853
_symmetry_space_group_name_H-M "I M M M"
_symmetry_group_IT_number 71
_symmetry_cell_setting 'orthorhombic'
loop_
_space_group_symop_operation_xyz
x,y,z
-x,-y,z
x,-y,-z
-x,y,-z
-x,-y,-z
x,y,-z
-x,y,z
x,-y,z
1/2+x,1/2+y,1/2+z
1/2-x,1/2-y,1/2+z
1/2+x,1/2-y,1/2-z
1/2-x,1/2+y,1/2-z
1/2-x,1/2-y,1/2-z
1/2+x,1/2+y,1/2-z
1/2-x,1/2+y,1/2+z
1/2+x,1/2-y,1/2+z
loop_
_atom_site_type_symbol
_atom_site_label
_atom_site_fract_x
_atom_site_fract_y
_atom_site_fract_z
Si Si1 0.705483 0.341129 0.105734
Si Si2 0.092702 0.843131 0.395560
Si Si3 0.890644 0.657356 0.102648
Si Si4 0.500000 0.844535 0.844425
Si Si5 0.000000 0.656598 0.861527
Si Si6 0.201276 0.158222 0.106396
O O1 0.716093 0.500000 0.130779
O O2 0.648945 0.305337 0.133443
O O3 0.748474 0.237098 0.134386
O O4 0.705790 0.339050 0.000000
O O5 0.093806 0.847294 0.500000
O O6 0.049502 0.738613 0.370175
O O7 0.081785 0.000000 0.365529
O O8 0.889483 0.500000 0.139054
O O9 0.946502 0.717711 0.113024
O O10 0.846996 0.755401 0.136670
O O11 0.881736 0.645053 0.000000
O O12 0.500000 0.852316 0.741191
O O13 0.500000 0.000000 0.880352
O O14 0.000000 0.500000 0.898791
O O15 0.199844 0.000000 0.135189
O O16 0.200975 0.157049 0.000000
#
# Coordination Sequence:
#
# PCOD9524234 Si02
#       6
#    16  16  16   8   8  16
#     4   8  14  26  45  68  92 120 154 189 226 269
#     4   9  18  33  52  72  95 124 160 199 231 267
#     4   9  16  29  51  72  90 120 162 199 229 271
#     4  11  22  33  47  69  98 127 154 192 242 289
#     4   9  19  34  49  68  94 123 158 200 240 275
#     4   9  16  25  40  68 103 127 144 180 235 284
#
# _framework density 20.030355
#
# number of rings (size 3 to 8) (size 9 to 14) (size 15 to 20)
#    0.000    3.000    0.000    2.700    0.000    6.000 
#    0.000    4.500    0.000    3.600    0.000    0.000 
#    0.000    0.000    0.000    0.000    0.000    0.000 
#
# Total GULP energy -223025.438726 kJ/mol
# GULP energy per Si atom -5575.635968 kJ/mol
# Density = 1.998476 g / cm^3
# Si number density = 20.030355 Si / 1000 Ang^3
#
#
#
# Elastic Constant Matrix: (Units=GPa)
#
#
# Indices 1 2 3 4 5 6 
#
# 1 209.5698 138.6868 5.6189 0.0000 0.0000 0.0000
# 2 138.6868 142.8071 7.3411 0.0000 0.0000 0.0000
# 3 5.6189 7.3411 23.2587 0.0000 0.0000 0.0000
# 4 0.0000 0.0000 0.0000 3.0413 0.0000 0.0000
# 5 0.0000 0.0000 0.0000 0.0000 -45.8281 0.0000
# 6 0.0000 0.0000 0.0000 0.0000 0.0000 28.3717
#
#
#
# Elastic Compliance Matrix: (Units=1/GPa)
#
#
# Indices 1 2 3 4 5 6 
#
# 1 0.013372 -0.013031 0.000883 0.000000 0.000000 0.000000
# 2 -0.013031 0.019817 -0.003107 0.000000 0.000000 0.000000
# 3 0.000883 -0.003107 0.043762 0.000000 0.000000 0.000000
# 4 0.000000 0.000000 0.000000 0.328805 0.000000 0.000000
# 5 0.000000 0.000000 0.000000 0.000000 -0.021821 0.000000
# 6 0.000000 0.000000 0.000000 0.000000 0.000000 0.035246
#
#
# Mechanical properties :
#
#
# Convention : Reuss Voigt Hill
#
# Bulk Modulus (GPa) = 21.53298 75.43657 48.48478
# Shear Modulus (GPa) = 10.74868 12.04957 11.39912
#
# Velocity S-wave (km/s) = 2.31902 2.45534 2.38815
# Velocity P-wave (km/s) = 4.23603 6.76618 5.64469
#
# Compressibility (1/GPa) = 0.04644038
#
# Stress axis : x y z
#
# Youngs Moduli (GPa) = 74.78483 50.46062 22.85084
#
# Poissons Ratio (x) = 0.65757 -0.02017
# Poissons Ratio (y) = 0.97454 0.07099
# Poissons Ratio (z) = -0.06601 0.15677
#
# Static dielectric constant tensor:
#      x y z
#    x 1.713590 0.000000 0.000000 
#    y 0.000000 1.699690 0.000000 
#    z 0.000000 0.000000 1.716910 
# 
# From -- ./inp_files/12400.got.cif
#   From: 2010.05.17/outbox.cif.g08.bks.cpg/sg71_7_cif.got.tgz:12400.got - 2010.06.03 16:22:01.
