data_PCOD9524965
_publ_section_title
;
Structure prediction by ZEFSAII (Michael W. Deem and Ramdas Pophale) SiO2 
 PCOD9524965
Probable space group: I B A M
;
_chemical_formula_sum "Si O2"
_cell_formula_units_Z 64
_cell_length_a 5.235550
_cell_length_b 26.182804
_cell_length_c 25.560144
_cell_angle_alpha 90.000000
_cell_angle_beta 90.000000
_cell_angle_gamma 90.000000
_cell_volume 3503.819799
_symmetry_space_group_name_H-M "I B A M"
_symmetry_group_IT_number 72
_symmetry_cell_setting 'orthorhombic'
loop_
_space_group_symop_operation_xyz
x,y,z
-x,-y,z
x,-y,1/2-z
-x,y,1/2-z
-x,-y,-z
x,y,-z
-x,y,1/2+z
x,-y,1/2+z
1/2+x,1/2+y,1/2+z
1/2-x,1/2-y,1/2+z
1/2+x,1/2-y,-z
1/2-x,1/2+y,-z
1/2-x,1/2-y,1/2-z
1/2+x,1/2+y,1/2-z
1/2-x,1/2+y,z
1/2+x,1/2-y,z
loop_
_atom_site_type_symbol
_atom_site_label
_atom_site_fract_x
_atom_site_fract_y
_atom_site_fract_z
Si Si1 0.022488 0.062053 0.440541
Si Si2 0.525804 0.061261 0.616352
Si Si3 0.282967 0.271604 0.309639
Si Si4 0.255360 0.385937 0.283511
O O1 0.091333 0.075396 0.500000
O O2 0.243239 0.079566 0.400304
O O3 0.739161 0.079321 0.425023
O O4 0.000000 0.000000 0.438188
O O5 0.647910 0.077577 0.671392
O O6 0.500000 0.000000 0.615625
O O7 0.250000 0.250000 0.250000
O O8 0.512021 0.240381 0.334893
O O9 0.340523 0.331300 0.306673
O O10 0.500000 0.405367 0.250000
O O11 0.000000 0.374783 0.250000
#
# Coordination Sequence:
#
# PCOD9524965 Si02
#       4
#    16  16  16  16
#     4   9  17  33  55  72  92 125 164 218 268 286
#     4  10  21  34  47  73 104 131 173 206 234 307
#     4  10  16  30  48  69  92 124 162 221 253 278
#     4  12  21  32  50  71 103 146 168 201 250 294
#
# _framework density 18.265778000000001
#
# number of rings (size 3 to 8) (size 9 to 14) (size 15 to 20)
#    0.000    1.750    5.000    2.250    0.000    3.500 
#    0.000    1.250    0.000    0.000    0.000    0.000 
#    0.000   20.000    0.000    0.000    0.000    0.000 
#
# Total GULP energy -178140.473638 kJ/mol
# GULP energy per Si atom -5566.889801 kJ/mol
# Density = 1.822420 g / cm^3
# Si number density = 18.265778 Si / 1000 Ang^3
#
#
#
# Elastic Constant Matrix: (Units=GPa)
#
#
# Indices 1 2 3 4 5 6 
#
# 1 135.2700 22.8008 35.7650 0.0000 0.0000 0.0000
# 2 22.8008 13.2793 12.7441 0.0000 0.0000 0.0000
# 3 35.7650 12.7441 53.4771 0.0000 0.0000 0.0000
# 4 0.0000 0.0000 0.0000 -6.2783 0.0000 0.0000
# 5 0.0000 0.0000 0.0000 0.0000 31.6451 0.0000
# 6 0.0000 0.0000 0.0000 0.0000 0.0000 19.3073
#
#
#
# Elastic Compliance Matrix: (Units=1/GPa)
#
#
# Indices 1 2 3 4 5 6 
#
# 1 0.010935 -0.015244 -0.003681 0.000000 0.000000 0.000000
# 2 -0.015244 0.118885 -0.018136 0.000000 0.000000 0.000000
# 3 -0.003681 -0.018136 0.025483 0.000000 0.000000 0.000000
# 4 0.000000 0.000000 0.000000 -0.159279 0.000000 0.000000
# 5 0.000000 0.000000 0.000000 0.000000 0.031600 0.000000
# 6 0.000000 0.000000 0.000000 0.000000 0.000000 0.051794
#
#
# Mechanical properties :
#
#
# Convention : Reuss Voigt Hill
#
# Bulk Modulus (GPa) = 12.31807 38.29400 25.30603
# Shear Modulus (GPa) = 27.68541 17.64926 22.66733
#
# Velocity S-wave (km/s) = 3.89742 3.11182 3.52657
# Velocity P-wave (km/s) = 5.19727 5.82423 5.51966
#
# Compressibility (1/GPa) = 0.08118155
#
# Stress axis : x y z
#
# Youngs Moduli (GPa) = 91.44766 8.41152 39.24151
#
# Poissons Ratio (x) = 0.12822 0.14443
# Poissons Ratio (y) = 1.39400 0.71170
# Poissons Ratio (z) = 0.33659 0.15255
#
# Static dielectric constant tensor:
#      x y z
#    x 1.627410 0.000000 0.000000 
#    y 0.000000 1.617370 0.000000 
#    z 0.000000 0.000000 1.667830 
# 
# From -- ./inp_files/40550.got.cif
#   From: 2010.05.17/outbox.cif.g08.bks.cpg/sg72_21_cif.got.tgz:40550.got - 2010.06.03 17:03:01.
