data_PCOD9524797
_publ_section_title
;
Structure prediction by ZEFSAII (Michael W. Deem and Ramdas Pophale) SiO2 
 PCOD9524797
Probable space group: I M M M
;
_chemical_formula_sum "Si O2"
_cell_formula_units_Z 52
_cell_length_a 27.000000
_cell_length_b 9.000000
_cell_length_c 21.000000
_cell_angle_alpha 90.000000
_cell_angle_beta 90.000000
_cell_angle_gamma 90.000000
_cell_volume 5103.000000
_symmetry_space_group_name_H-M "I M M M"
_symmetry_group_IT_number 71
_symmetry_cell_setting 'orthorhombic'
loop_
_space_group_symop_operation_xyz
x,y,z
-x,-y,z
x,-y,-z
-x,y,-z
-x,-y,-z
x,y,-z
-x,y,z
x,-y,z
1/2+x,1/2+y,1/2+z
1/2-x,1/2-y,1/2+z
1/2+x,1/2-y,1/2-z
1/2-x,1/2+y,1/2-z
1/2-x,1/2-y,1/2-z
1/2+x,1/2+y,1/2-z
1/2-x,1/2+y,1/2+z
1/2+x,1/2-y,1/2+z
loop_
_atom_site_type_symbol
_atom_site_label
_atom_site_fract_x
_atom_site_fract_y
_atom_site_fract_z
Si Si1 0.943962 0.176433 0.000000
Si Si2 0.376088 0.169311 0.600789
Si Si3 0.809375 0.328792 0.712783
Si Si4 0.947342 0.665609 0.783512
Si Si5 0.903957 0.835679 0.679071
Si Si6 0.940768 0.662269 0.571333
Si Si7 0.711855 0.327276 0.654682
O O1 0.912234 0.232721 0.059047
O O2 0.000000 0.236172 0.000000
O O3 0.946295 0.000000 0.000000
O O4 0.400955 0.173901 0.670272
O O5 0.321212 0.232708 0.607172
O O6 0.376172 0.000000 0.578573
O O7 0.804175 0.500000 0.733549
O O8 0.862639 0.287913 0.688698
O O9 0.770545 0.304167 0.655691
O O10 0.800254 0.223313 0.773149
O O11 0.946867 0.500000 0.754307
O O12 0.943860 0.793494 0.732071
O O13 0.000000 0.677277 0.819132
O O14 0.925504 0.804227 0.610761
O O15 0.884371 0.000000 0.688110
O O16 0.921550 0.670668 0.500000
O O17 0.925507 0.500000 0.597986
O O18 0.000000 0.659534 0.569780
O O19 0.700087 0.500000 0.646078
#
# Coordination Sequence:
#
# PCOD9524797 Si02
#       7
#     8  16  16  16  16  16  16
#     4  11  25  43  63  87 119 159 203 253 300 349
#     4  11  22  38  62  87 115 154 196 239 294 355
#     4  10  20  35  56  83 116 152 188 226 277 340
#     4  10  21  36  54  79 113 151 189 230 279 339
#     4  12  23  33  52  83 116 149 185 232 284 332
#     4   9  19  37  59  79 104 145 191 229 271 332
#     4  10  20  35  58  87 115 145 185 234 284 338
#
# _framework density 10.190084000000001
#
# number of rings (size 3 to 8) (size 9 to 14) (size 15 to 20)
#    0.000    1.615    1.538    4.385    0.000    6.462 
#    0.000    0.769    1.692    0.000    0.000    0.000 
#    0.000    0.000    0.000    0.000    0.000    0.000 
#
# Total GULP energy -289596.656310 kJ/mol
# GULP energy per Si atom -5569.166468 kJ/mol
# Density = 1.016689 g / cm^3
# Si number density = 10.190084 Si / 1000 Ang^3
#
#
#
# Elastic Constant Matrix: (Units=GPa)
#
#
# Indices 1 2 3 4 5 6 
#
# 1 77.4804 19.0074 11.1059 0.0000 0.0000 0.0000
# 2 19.0074 56.5632 20.5533 0.0000 0.0000 0.0000
# 3 11.1059 20.5533 48.3077 0.0000 0.0000 0.0000
# 4 0.0000 0.0000 0.0000 21.8453 0.0000 0.0000
# 5 0.0000 0.0000 0.0000 0.0000 -0.4755 0.0000
# 6 0.0000 0.0000 0.0000 0.0000 0.0000 17.5845
#
#
#
# Elastic Compliance Matrix: (Units=1/GPa)
#
#
# Indices 1 2 3 4 5 6 
#
# 1 0.014152 -0.004227 -0.001455 0.000000 0.000000 0.000000
# 2 -0.004227 0.022175 -0.008463 0.000000 0.000000 0.000000
# 3 -0.001455 -0.008463 0.024636 0.000000 0.000000 0.000000
# 4 0.000000 0.000000 0.000000 0.045776 0.000000 0.000000
# 5 0.000000 0.000000 0.000000 0.000000 -2.103170 0.000000
# 6 0.000000 0.000000 0.000000 0.000000 0.000000 0.056868
#
#
# Mechanical properties :
#
#
# Convention : Reuss Voigt Hill
#
# Bulk Modulus (GPa) = 30.60640 31.52049 31.06344
# Shear Modulus (GPa) = -2.63105 16.56984 6.96940
#
# Velocity S-wave (km/s) = -1.13745 2.85447 1.85125
# Velocity P-wave (km/s) = 3.65038 5.13458 4.45473
#
# Compressibility (1/GPa) = 0.03267291
#
# Stress axis : x y z
#
# Youngs Moduli (GPa) = 70.66143 45.09611 40.59124
#
# Poissons Ratio (x) = 0.19061 0.05907
# Poissons Ratio (y) = 0.29868 0.34352
# Poissons Ratio (z) = 0.10282 0.38164
#
# Static dielectric constant tensor:
#      x y z
#    x 1.766460 0.000000 0.000000 
#    y 0.000000 1.731980 0.000000 
#    z 0.000000 0.000000 1.772710 
# 
# From -- ./inp_files/56241.got.cif
#   From: 2010.05.17/outbox.ucp.g08.bks.cvg/sg71_29_cif.got.tgz:56241.got - 2010.06.11 16:29:00.
