data_PCOD9524332
_publ_section_title
;
Structure prediction by ZEFSAII (Michael W. Deem and Ramdas Pophale) SiO2 
 PCOD9524332
Probable space group: I M M M
;
_chemical_formula_sum "Si O2"
_cell_formula_units_Z 66
_cell_length_a 17.045039
_cell_length_b 20.511877
_cell_length_c 10.196777
_cell_angle_alpha 90.000000
_cell_angle_beta 90.000000
_cell_angle_gamma 90.000000
_cell_volume 3565.055739
_symmetry_space_group_name_H-M "I M M M"
_symmetry_group_IT_number 71
_symmetry_cell_setting 'orthorhombic'
loop_
_space_group_symop_operation_xyz
x,y,z
-x,-y,z
x,-y,-z
-x,y,-z
-x,-y,-z
x,y,-z
-x,y,z
x,-y,z
1/2+x,1/2+y,1/2+z
1/2-x,1/2-y,1/2+z
1/2+x,1/2-y,1/2-z
1/2-x,1/2+y,1/2-z
1/2-x,1/2-y,1/2-z
1/2+x,1/2+y,1/2-z
1/2-x,1/2+y,1/2+z
1/2+x,1/2-y,1/2+z
loop_
_atom_site_type_symbol
_atom_site_label
_atom_site_fract_x
_atom_site_fract_y
_atom_site_fract_z
Si Si1 0.592658 0.124607 0.500000
Si Si2 0.349678 0.906101 0.000000
Si Si3 0.407060 0.282338 0.500000
Si Si4 0.786564 0.425994 0.211181
Si Si5 0.500000 0.000000 0.000000
Si Si6 0.318654 0.695821 0.234761
Si Si7 0.407555 0.240127 0.000000
O O1 0.500000 0.109116 0.500000
O O2 0.601322 0.203142 0.500000
O O3 0.637239 0.095515 0.626610
O O4 0.305939 0.923430 0.865616
O O5 0.364580 0.829186 0.000000
O O6 0.431363 0.943908 0.000000
O O7 0.500000 0.296420 0.500000
O O8 0.363292 0.309315 0.627629
O O9 0.765535 0.500000 0.174919
O O10 0.720917 0.371350 0.188920
O O11 0.250000 0.750000 0.250000
O O12 0.379116 0.721690 0.127632
O O13 0.500000 0.230325 0.000000
#
# Coordination Sequence:
#
# PCOD9524332 Si02
#       7
#     8   8   8  16   2  16   8
#     4  11  24  38  59  88 127 163 198 236 294 366
#     4  12  23  37  61  87 124 163 198 231 295 368
#     4  11  22  40  64  94 120 153 200 255 303 346
#     4  12  25  40  59  89 122 164 202 244 301 355
#     4  12  24  36  56  90 140 160 180 238 300 380
#     4  12  22  40  66  87 122 160 205 251 294 351
#     4  12  24  39  63  94 120 157 206 252 299 351
#
# _framework density 18.513034000000001
#
# number of rings (size 3 to 8) (size 9 to 14) (size 15 to 20)
#    0.000    0.242    6.667    3.273    1.697    2.909 
#    0.000    0.000    0.000    4.364    0.000    0.000 
#    0.000    0.000    0.000    0.000    0.000    0.000 
#
# Total GULP energy -184329.471459 kJ/mol
# GULP energy per Si atom -5585.741559 kJ/mol
# Density = 1.847090 g / cm^3
# Si number density = 18.513034 Si / 1000 Ang^3
#
#
#
# Elastic Constant Matrix: (Units=GPa)
#
#
# Indices 1 2 3 4 5 6 
#
# 1 66.5639 36.0050 17.8991 0.0000 0.0000 0.0000
# 2 36.0050 134.5338 7.1942 0.0000 0.0000 0.0000
# 3 17.8991 7.1942 102.3392 0.0000 0.0000 0.0000
# 4 0.0000 0.0000 0.0000 -10.4594 0.0000 0.0000
# 5 0.0000 0.0000 0.0000 0.0000 40.2175 0.0000
# 6 0.0000 0.0000 0.0000 0.0000 0.0000 33.9500
#
#
#
# Elastic Compliance Matrix: (Units=1/GPa)
#
#
# Indices 1 2 3 4 5 6 
#
# 1 0.018374 -0.004763 -0.002879 0.000000 0.000000 0.000000
# 2 -0.004763 0.008696 0.000222 0.000000 0.000000 0.000000
# 3 -0.002879 0.000222 0.010259 0.000000 0.000000 0.000000
# 4 0.000000 0.000000 0.000000 -0.095608 0.000000 0.000000
# 5 0.000000 0.000000 0.000000 0.000000 0.024865 0.000000
# 6 0.000000 0.000000 0.000000 0.000000 0.000000 0.029455
#
#
# Mechanical properties :
#
#
# Convention : Reuss Voigt Hill
#
# Bulk Modulus (GPa) = 44.46708 47.29259 45.87984
# Shear Modulus (GPa) = 272.06690 28.89753 150.48222
#
# Velocity S-wave (km/s) = 12.13584 3.95515 9.02557
# Velocity P-wave (km/s) = 14.84733 6.81605 11.55209
#
# Compressibility (1/GPa) = 0.02248855
#
# Stress axis : x y z
#
# Youngs Moduli (GPa) = 54.42529 114.99491 97.47233
#
# Poissons Ratio (x) = 0.54777 0.28059
# Poissons Ratio (y) = 0.25925 -0.02162
# Poissons Ratio (z) = 0.15667 -0.02551
#
# Static dielectric constant tensor:
#      x y z
#    x 1.601850 0.000000 0.000000 
#    y 0.000000 1.656520 0.000000 
#    z 0.000000 0.000000 1.646720 
# 
# From -- ./inp_files/7708.got.cif
#   From: 2010.05.17/outbox.cif.g08.bks.cpg/sg71_4_cif.got.tgz:7708.got - 2010.06.03 16:22:01.
