data_PCOD9524891
_publ_section_title
;
Structure prediction by ZEFSAII (Michael W. Deem and Ramdas Pophale) SiO2 
 PCOD9524891
Probable space group: I M M M
;
_chemical_formula_sum "Si O2"
_cell_formula_units_Z 52
_cell_length_a 21.000000
_cell_length_b 27.000000
_cell_length_c 9.000000
_cell_angle_alpha 90.000000
_cell_angle_beta 90.000000
_cell_angle_gamma 90.000000
_cell_volume 5103.000000
_symmetry_space_group_name_H-M "I M M M"
_symmetry_group_IT_number 71
_symmetry_cell_setting 'orthorhombic'
loop_
_space_group_symop_operation_xyz
x,y,z
-x,-y,z
x,-y,-z
-x,y,-z
-x,-y,-z
x,y,-z
-x,y,z
x,-y,z
1/2+x,1/2+y,1/2+z
1/2-x,1/2-y,1/2+z
1/2+x,1/2-y,1/2-z
1/2-x,1/2+y,1/2-z
1/2-x,1/2-y,1/2-z
1/2+x,1/2+y,1/2-z
1/2-x,1/2+y,1/2+z
1/2+x,1/2-y,1/2+z
loop_
_atom_site_type_symbol
_atom_site_label
_atom_site_fract_x
_atom_site_fract_y
_atom_site_fract_z
Si Si1 0.879486 0.900434 0.164331
Si Si2 0.072113 0.344784 0.678577
Si Si3 0.682523 0.230036 0.823635
Si Si4 0.500000 0.444027 0.824562
Si Si5 0.887301 0.443591 0.821928
Si Si6 0.763236 0.057360 0.324236
Si Si7 0.075215 0.788420 0.833577
O O1 0.934514 0.922593 0.264815
O O2 0.810049 0.907683 0.233647
O O3 0.901241 0.844180 0.151424
O O4 0.880125 0.923161 0.000000
O O5 0.072562 0.341800 0.500000
O O6 0.140254 0.318898 0.726476
O O7 0.076619 0.400698 0.736242
O O8 0.000000 0.325474 0.725180
O O9 0.750000 0.250000 0.750000
O O10 0.624676 0.267312 0.785473
O O11 0.694929 0.226070 0.000000
O O12 0.500000 0.500000 0.775898
O O13 0.500000 0.439743 0.000000
O O14 0.905781 0.500000 0.783307
O O15 0.811555 0.438254 0.790409
O O16 0.895695 0.437961 0.000000
O O17 0.771123 0.066365 0.500000
O O18 0.781804 0.000000 0.295475
O O19 0.000000 0.787116 0.795093
O O20 0.082364 0.764988 0.000000
#
# Coordination Sequence:
#
# PCOD9524891 Si02
#       7
#    16  16  16   8  16  16  16
#     4  11  22  36  55  82 115 153 200 253 310 367
#     4  10  23  43  65  92 129 168 207 256 313 375
#     4  11  25  44  67  96 127 162 208 259 313 375
#     4  11  23  37  53  77 113 157 207 257 306 367
#     4   9  20  39  63  93 128 164 206 254 304 366
#     4   9  19  36  55  79 115 156 200 252 306 362
#     4  10  22  42  63  87 123 161 201 254 312 370
#
# _framework density 10.190084000000001
#
# number of rings (size 3 to 8) (size 9 to 14) (size 15 to 20)
#    0.000    1.923    0.769    3.000    2.154    7.692 
#    0.000    3.077    0.000    0.000    0.000    0.000 
#    0.000    0.000    0.000    0.000    0.000    0.000 
#
# Total GULP energy -289609.252991 kJ/mol
# GULP energy per Si atom -5569.408711 kJ/mol
# Density = 1.016689 g / cm^3
# Si number density = 10.190084 Si / 1000 Ang^3
#
#
#
# Elastic Constant Matrix: (Units=GPa)
#
#
# Indices 1 2 3 4 5 6 
#
# 1 106.6650 27.1313 26.0970 0.0000 0.0000 0.0000
# 2 27.1313 80.7007 23.5907 0.0000 0.0000 0.0000
# 3 26.0970 23.5907 46.1672 0.0000 0.0000 0.0000
# 4 0.0000 0.0000 0.0000 22.3579 0.0000 0.0000
# 5 0.0000 0.0000 0.0000 0.0000 40.3117 0.0000
# 6 0.0000 0.0000 0.0000 0.0000 0.0000 27.6318
#
#
#
# Elastic Compliance Matrix: (Units=1/GPa)
#
#
# Indices 1 2 3 4 5 6 
#
# 1 0.011218 -0.002255 -0.005189 0.000000 0.000000 0.000000
# 2 -0.002255 0.015021 -0.006401 0.000000 0.000000 0.000000
# 3 -0.005189 -0.006401 0.027865 0.000000 0.000000 0.000000
# 4 0.000000 0.000000 0.000000 0.044727 0.000000 0.000000
# 5 0.000000 0.000000 0.000000 0.000000 0.024807 0.000000
# 6 0.000000 0.000000 0.000000 0.000000 0.000000 0.036190
#
#
# Mechanical properties :
#
#
# Convention : Reuss Voigt Hill
#
# Bulk Modulus (GPa) = 37.85886 43.01900 40.43893
# Shear Modulus (GPa) = 25.46847 28.50787 26.98817
#
# Velocity S-wave (km/s) = 3.53890 3.74412 3.64295
# Velocity P-wave (km/s) = 5.94265 6.31231 6.13027
#
# Compressibility (1/GPa) = 0.02641389
#
# Stress axis : x y z
#
# Youngs Moduli (GPa) = 89.14039 66.57540 35.88793
#
# Poissons Ratio (x) = 0.15010 0.18623
# Poissons Ratio (y) = 0.20097 0.22971
# Poissons Ratio (z) = 0.46258 0.42614
#
# Static dielectric constant tensor:
#      x y z
#    x 1.696370 0.000000 0.000000 
#    y 0.000000 1.921270 0.000000 
#    z 0.000000 0.000000 1.727880 
# 
# From -- ./inp_files/11077.got.cif
#   From: 2010.05.17/outbox.ucp.g08.bks.cvg/sg71_6_cif.got.tgz:11077.got - 2010.06.11 16:29:00.
