data_PCOD9524364
_publ_section_title
;
Structure prediction by ZEFSAII (Michael W. Deem and Ramdas Pophale) SiO2 
 PCOD9524364
Probable space group: I M M M
;
_chemical_formula_sum "Si O2"
_cell_formula_units_Z 72
_cell_length_a 16.891283
_cell_length_b 24.385459
_cell_length_c 9.032891
_cell_angle_alpha 90.000000
_cell_angle_beta 90.000000
_cell_angle_gamma 90.000000
_cell_volume 3720.663060
_symmetry_space_group_name_H-M "I M M M"
_symmetry_group_IT_number 71
_symmetry_cell_setting 'orthorhombic'
loop_
_space_group_symop_operation_xyz
x,y,z
-x,-y,z
x,-y,-z
-x,y,-z
-x,-y,-z
x,y,-z
-x,y,z
x,-y,z
1/2+x,1/2+y,1/2+z
1/2-x,1/2-y,1/2+z
1/2+x,1/2-y,1/2-z
1/2-x,1/2+y,1/2-z
1/2-x,1/2-y,1/2-z
1/2+x,1/2+y,1/2-z
1/2-x,1/2+y,1/2+z
1/2+x,1/2-y,1/2+z
loop_
_atom_site_type_symbol
_atom_site_label
_atom_site_fract_x
_atom_site_fract_y
_atom_site_fract_z
Si Si1 0.329349 0.772696 0.823770
Si Si2 0.593543 0.886717 0.177972
Si Si3 0.903587 0.500000 0.171314
Si Si4 0.406119 0.323915 0.332041
Si Si5 0.406808 0.441307 0.319874
O O1 0.250000 0.750000 0.750000
O O2 0.357021 0.833233 0.775210
O O3 0.391776 0.727274 0.771888
O O4 0.322136 0.773684 0.000000
O O5 0.500000 0.878411 0.214449
O O6 0.621368 0.943684 0.249690
O O7 0.598647 0.891554 0.000000
O O8 0.000000 0.500000 0.179079
O O9 0.880503 0.500000 0.000000
O O10 0.375719 0.313673 0.500000
O O11 0.500000 0.331975 0.344283
O O12 0.372565 0.382334 0.274276
O O13 0.404515 0.440119 0.500000
O O14 0.500000 0.442776 0.278063
O O15 0.371524 0.500000 0.272025
#
# Coordination Sequence:
#
# PCOD9524364 Si02
#       5
#    16  16   8  16  16
#     4  11  23  37  53  73 103 142 182 222 265 316
#     4   9  18  34  56  80 106 138 176 218 266 323
#     4   9  17  29  51  85 115 135 162 209 268 323
#     4   9  17  30  51  78 104 131 169 216 262 310
#     4   7  10  19  39  68  98 125 156 197 241 284
#
# _framework density 19.351389000000001
#
# number of rings (size 3 to 8) (size 9 to 14) (size 15 to 20)
#    0.000    3.000    0.000    3.667    0.000    4.444 
#    0.000    2.222    2.444    0.667    0.000    3.111 
#    0.000    0.000    0.000    0.000    0.000    0.000 
#
# Total GULP energy -200433.004358 kJ/mol
# GULP energy per Si atom -5567.583454 kJ/mol
# Density = 1.930734 g / cm^3
# Si number density = 19.351389 Si / 1000 Ang^3
#
#
#
# Elastic Constant Matrix: (Units=GPa)
#
#
# Indices 1 2 3 4 5 6 
#
# 1 27.2512 43.9125 19.6532 0.0000 0.0000 0.0000
# 2 43.9125 227.0598 58.9587 0.0000 0.0000 0.0000
# 3 19.6532 58.9587 35.9797 0.0000 0.0000 0.0000
# 4 0.0000 0.0000 0.0000 27.9972 0.0000 0.0000
# 5 0.0000 0.0000 0.0000 0.0000 18.1858 0.0000
# 6 0.0000 0.0000 0.0000 0.0000 0.0000 8.3623
#
#
#
# Elastic Compliance Matrix: (Units=1/GPa)
#
#
# Indices 1 2 3 4 5 6 
#
# 1 0.064661 -0.005803 -0.025810 0.000000 0.000000 0.000000
# 2 -0.005803 0.008187 -0.010246 0.000000 0.000000 0.000000
# 3 -0.025810 -0.010246 0.058681 0.000000 0.000000 0.000000
# 4 0.000000 0.000000 0.000000 0.035718 0.000000 0.000000
# 5 0.000000 0.000000 0.000000 0.000000 0.054988 0.000000
# 6 0.000000 0.000000 0.000000 0.000000 0.000000 0.119584
#
#
# Mechanical properties :
#
#
# Convention : Reuss Voigt Hill
#
# Bulk Modulus (GPa) = 20.91587 59.48217 40.19902
# Shear Modulus (GPa) = 11.32572 22.09349 16.70961
#
# Velocity S-wave (km/s) = 2.42185 3.38257 2.94170
# Velocity P-wave (km/s) = 4.31884 6.78678 5.68827
#
# Compressibility (1/GPa) = 0.04781058
#
# Stress axis : x y z
#
# Youngs Moduli (GPa) = 15.46534 122.14725 17.04130
#
# Poissons Ratio (x) = 0.70885 0.43984
# Poissons Ratio (y) = 0.08975 0.17460
# Poissons Ratio (z) = 0.39916 1.25147
#
# Static dielectric constant tensor:
#      x y z
#    x 1.731940 0.000000 0.000000 
#    y 0.000000 1.749800 0.000000 
#    z 0.000000 0.000000 1.658450 
# 
# From -- ./inp_files/7911.got.cif
#   From: 2010.05.17/outbox.cif.g08.bks.cpg/sg71_4_cif.got.tgz:7911.got - 2010.06.03 16:22:01.
