data_PCOD9524740
_publ_section_title
;
Structure prediction by ZEFSAII (Michael W. Deem and Ramdas Pophale) SiO2 
 PCOD9524740
Probable space group: I M M M
;
_chemical_formula_sum "Si O2"
_cell_formula_units_Z 44
_cell_length_a 18.000000
_cell_length_b 15.000000
_cell_length_c 18.000000
_cell_angle_alpha 90.000000
_cell_angle_beta 90.000000
_cell_angle_gamma 90.000000
_cell_volume 4860.000000
_symmetry_space_group_name_H-M "I M M M"
_symmetry_group_IT_number 71
_symmetry_cell_setting 'orthorhombic'
loop_
_space_group_symop_operation_xyz
x,y,z
-x,-y,z
x,-y,-z
-x,y,-z
-x,-y,-z
x,y,-z
-x,y,z
x,-y,z
1/2+x,1/2+y,1/2+z
1/2-x,1/2-y,1/2+z
1/2+x,1/2-y,1/2-z
1/2-x,1/2+y,1/2-z
1/2-x,1/2-y,1/2-z
1/2+x,1/2+y,1/2-z
1/2-x,1/2+y,1/2+z
1/2+x,1/2-y,1/2+z
loop_
_atom_site_type_symbol
_atom_site_label
_atom_site_fract_x
_atom_site_fract_y
_atom_site_fract_z
Si Si1 0.658625 0.802190 0.641839
Si Si2 0.088699 0.396507 0.000000
Si Si3 0.639816 0.103584 0.204807
Si Si4 0.681951 0.399818 0.317420
Si Si5 0.819822 0.895787 0.354771
Si Si6 0.912372 0.740188 0.581311
O O1 0.617049 0.843735 0.571927
O O2 0.626693 0.844769 0.717834
O O3 0.658776 0.693869 0.644534
O O4 0.742342 0.841903 0.639392
O O5 0.115461 0.500000 0.000000
O O6 0.000000 0.398530 0.000000
O O7 0.728468 0.102028 0.189534
O O8 0.606337 0.164039 0.140436
O O9 0.615054 0.000000 0.207863
O O10 0.661556 0.500000 0.346725
O O11 0.656086 0.394986 0.231684
O O12 0.876676 0.835358 0.399596
O O13 0.811512 0.000000 0.376616
O O14 0.884970 0.711694 0.500000
O O15 0.000000 0.750834 0.580019
#
# Coordination Sequence:
#
# PCOD9524740 Si02
#       6
#    16   8  16  16  16  16
#     4  11  19  38  64  88 115 148 189 234 286 340
#     4  11  26  42  57  89 126 148 180 235 289 339
#     4  10  19  36  60  85 112 149 194 237 287 340
#     4   9  17  33  62  93 115 138 187 248 283 325
#     4  10  19  35  60  88 114 148 194 239 283 337
#     4  11  24  38  52  79 120 157 193 241 285 329
#
# _framework density 9.0534979999999994
#
# number of rings (size 3 to 8) (size 9 to 14) (size 15 to 20)
#    0.000    1.727    3.636    3.818    1.273    2.182 
#    0.000    2.273    0.000    1.091    0.000    0.000 
#    0.000    0.000    0.000    0.000    0.000    0.000 
#
# Total GULP energy -245309.833035 kJ/mol
# GULP energy per Si atom -5575.223478 kJ/mol
# Density = 0.903289 g / cm^3
# Si number density = 9.053498 Si / 1000 Ang^3
#
#
#
# Elastic Constant Matrix: (Units=GPa)
#
#
# Indices 1 2 3 4 5 6 
#
# 1 18.9722 33.5622 43.3250 0.0000 0.0000 0.0000
# 2 33.5622 212.3878 83.0113 0.0000 0.0000 0.0000
# 3 43.3250 83.0113 121.3898 0.0000 0.0000 0.0000
# 4 0.0000 0.0000 0.0000 22.9772 0.0000 0.0000
# 5 0.0000 0.0000 0.0000 0.0000 23.3307 0.0000
# 6 0.0000 0.0000 0.0000 0.0000 0.0000 18.5152
#
#
#
# Elastic Compliance Matrix: (Units=1/GPa)
#
#
# Indices 1 2 3 4 5 6 
#
# 1 0.293277 -0.007415 -0.099602 0.000000 0.000000 0.000000
# 2 -0.007415 0.006613 -0.001876 0.000000 0.000000 0.000000
# 3 -0.099602 -0.001876 0.045069 0.000000 0.000000 0.000000
# 4 0.000000 0.000000 0.000000 0.043521 0.000000 0.000000
# 5 0.000000 0.000000 0.000000 0.000000 0.042862 0.000000
# 6 0.000000 0.000000 0.000000 0.000000 0.000000 0.054010
#
#
# Mechanical properties :
#
#
# Convention : Reuss Voigt Hill
#
# Bulk Modulus (GPa) = 7.86326 74.72741 41.29534
# Shear Modulus (GPa) = 6.70663 25.82139 16.26401
#
# Velocity S-wave (km/s) = 1.92664 3.78040 3.00028
# Velocity P-wave (km/s) = 3.04981 7.77269 5.90407
#
# Compressibility (1/GPa) = 0.12717364
#
# Stress axis : x y z
#
# Youngs Moduli (GPa) = 3.40974 151.20936 22.18798
#
# Poissons Ratio (x) = 1.12127 2.20997
# Poissons Ratio (y) = 0.02528 0.04162
# Poissons Ratio (z) = 0.33962 0.28365
#
# Static dielectric constant tensor:
#      x y z
#    x 1.619090 0.000000 0.000000 
#    y 0.000000 1.614900 0.000000 
#    z 0.000000 0.000000 1.648020 
# 
# From -- ./inp_files/44697.got.cif
#   From: 2010.05.17/outbox.ucp.g08.bks.cvg/sg71_23_cif.got.tgz:44697.got - 2010.06.11 16:29:00.
