data_PCOD9524065
_publ_section_title
;
Structure prediction by ZEFSAII (Michael W. Deem and Ramdas Pophale) SiO2 
 PCOD9524065
Probable space group: I M M M
;
_chemical_formula_sum "Si O2"
_cell_formula_units_Z 80
_cell_length_a 17.146152
_cell_length_b 8.557451
_cell_length_c 29.432818
_cell_angle_alpha 90.000000
_cell_angle_beta 90.000000
_cell_angle_gamma 90.000000
_cell_volume 4318.599552
_symmetry_space_group_name_H-M "I M M M"
_symmetry_group_IT_number 71
_symmetry_cell_setting 'orthorhombic'
loop_
_space_group_symop_operation_xyz
x,y,z
-x,-y,z
x,-y,-z
-x,y,-z
-x,-y,-z
x,y,-z
-x,y,z
x,-y,z
1/2+x,1/2+y,1/2+z
1/2-x,1/2-y,1/2+z
1/2+x,1/2-y,1/2-z
1/2-x,1/2+y,1/2-z
1/2-x,1/2-y,1/2-z
1/2+x,1/2+y,1/2-z
1/2-x,1/2+y,1/2+z
1/2+x,1/2-y,1/2+z
loop_
_atom_site_type_symbol
_atom_site_label
_atom_site_fract_x
_atom_site_fract_y
_atom_site_fract_z
Si Si1 0.653880 0.815332 0.714572
Si Si2 0.409728 0.809310 0.812063
Si Si3 0.500000 0.678192 0.434733
Si Si4 0.000000 0.819469 0.173281
Si Si5 0.736514 0.186139 0.862752
Si Si6 0.328965 0.813453 0.450086
O O1 0.633986 0.759541 0.765581
O O2 0.574073 0.777094 0.688987
O O3 0.717595 0.731600 0.683392
O O4 0.670701 0.000000 0.715878
O O5 0.500000 0.756365 0.813512
O O6 0.353103 0.763606 0.853588
O O7 0.411942 0.000000 0.810612
O O8 0.500000 0.500000 0.451045
O O9 0.500000 0.672489 0.380480
O O10 0.419130 0.759640 0.447828
O O11 0.000000 0.000000 0.190572
O O12 0.780083 0.252618 0.906947
O O13 0.738545 0.000000 0.866846
O O14 0.298389 0.762774 0.500000
O O15 0.327438 0.000000 0.448096
#
# Coordination Sequence:
#
# PCOD9524065 Si02
#       6
#    16  16   8   8  16  16
#     4  11  20  34  57  80 112 154 188 219 264 321
#     4   9  19  36  57  82 111 145 184 225 272 322
#     4  11  22  36  57  84 115 146 182 227 269 315
#     4  11  21  32  50  81 117 150 186 226 265 307
#     4  11  22  36  57  83 112 143 181 230 275 321
#     4  11  24  40  58  80 109 145 184 225 272 330
#
# _framework density 18.524524
#
# number of rings (size 3 to 8) (size 9 to 14) (size 15 to 20)
#    0.000    1.400    3.000    3.300    0.000    3.600 
#    0.000    3.000    0.000    0.600    0.000    4.200 
#    0.000    0.000    0.000    0.000    0.000    0.000 
#
# Total GULP energy -223157.670211 kJ/mol
# GULP energy per Si atom -5578.941755 kJ/mol
# Density = 1.848236 g / cm^3
# Si number density = 18.524524 Si / 1000 Ang^3
#
#
#
# Elastic Constant Matrix: (Units=GPa)
#
#
# Indices 1 2 3 4 5 6 
#
# 1 115.5260 15.9515 90.8781 0.0000 0.0000 0.0000
# 2 15.9515 41.0287 33.4964 0.0000 0.0000 0.0000
# 3 90.8781 33.4964 130.1630 0.0000 0.0000 0.0000
# 4 0.0000 0.0000 0.0000 2.2669 0.0000 0.0000
# 5 0.0000 0.0000 0.0000 0.0000 -221.7119 0.0000
# 6 0.0000 0.0000 0.0000 0.0000 0.0000 37.7995
#
#
#
# Elastic Compliance Matrix: (Units=1/GPa)
#
#
# Indices 1 2 3 4 5 6 
#
# 1 0.019853 0.004555 -0.015033 0.000000 0.000000 0.000000
# 2 0.004555 0.031901 -0.011389 0.000000 0.000000 0.000000
# 3 -0.015033 -0.011389 0.021110 0.000000 0.000000 0.000000
# 4 0.000000 0.000000 0.000000 0.441129 0.000000 0.000000
# 5 0.000000 0.000000 0.000000 0.000000 -0.004510 0.000000
# 6 0.000000 0.000000 0.000000 0.000000 0.000000 0.026455
#
#
# Mechanical properties :
#
#
# Convention : Reuss Voigt Hill
#
# Bulk Modulus (GPa) = 34.33175 63.04108 48.68642
# Shear Modulus (GPa) = 8.48345 -26.56965 -9.04310
#
# Velocity S-wave (km/s) = 2.14232 -3.79132 -2.21185
# Velocity P-wave (km/s) = 4.96918 3.86517 4.45153
#
# Compressibility (1/GPa) = 0.02912756
#
# Stress axis : x y z
#
# Youngs Moduli (GPa) = 50.37031 31.34710 47.37173
#
# Poissons Ratio (x) = -0.14278 0.71215
# Poissons Ratio (y) = -0.22942 0.53954
# Poissons Ratio (z) = 0.75723 0.35703
#
# Static dielectric constant tensor:
#      x y z
#    x 1.666590 0.000000 0.000000 
#    y 0.000000 1.633920 0.000000 
#    z 0.000000 0.000000 1.659190 
# 
# From -- ./inp_files/65817.got.cif
#   From: 2010.05.17/outbox.cif.g08.bks.cpg/sg71_33_cif.got.tgz:65817.got - 2010.06.03 16:22:01.
