data_PCOD9524705
_publ_section_title
;
Structure prediction by ZEFSAII (Michael W. Deem and Ramdas Pophale) SiO2 
 PCOD9524705
Probable space group: I M M M
;
_chemical_formula_sum "Si O2"
_cell_formula_units_Z 52
_cell_length_a 9.000000
_cell_length_b 21.000000
_cell_length_c 27.000000
_cell_angle_alpha 90.000000
_cell_angle_beta 90.000000
_cell_angle_gamma 90.000000
_cell_volume 5103.000000
_symmetry_space_group_name_H-M "I M M M"
_symmetry_group_IT_number 71
_symmetry_cell_setting 'orthorhombic'
loop_
_space_group_symop_operation_xyz
x,y,z
-x,-y,z
x,-y,-z
-x,y,-z
-x,-y,-z
x,y,-z
-x,y,z
x,-y,z
1/2+x,1/2+y,1/2+z
1/2-x,1/2-y,1/2+z
1/2+x,1/2-y,1/2-z
1/2-x,1/2+y,1/2-z
1/2-x,1/2-y,1/2-z
1/2+x,1/2+y,1/2-z
1/2-x,1/2+y,1/2+z
1/2+x,1/2-y,1/2+z
loop_
_atom_site_type_symbol
_atom_site_label
_atom_site_fract_x
_atom_site_fract_y
_atom_site_fract_z
Si Si1 0.322480 0.434088 0.643318
Si Si2 0.330351 0.880628 0.941468
Si Si3 0.677131 0.120703 0.614999
Si Si4 0.334699 0.679065 0.192956
Si Si5 0.682328 0.000000 0.443999
Si Si6 0.324605 0.752686 0.557846
Si Si7 0.669857 0.308702 0.309743
O O1 0.500000 0.431827 0.649045
O O2 0.267613 0.500000 0.665159
O O3 0.276940 0.428381 0.586640
O O4 0.259856 0.371072 0.667340
O O5 0.500000 0.888318 0.924924
O O6 0.270040 0.809669 0.931378
O O7 0.324684 0.889958 0.000000
O O8 0.500000 0.119062 0.615201
O O9 0.737029 0.123734 0.670101
O O10 0.721459 0.185674 0.588010
O O11 0.733958 0.061808 0.584427
O O12 0.500000 0.674426 0.173104
O O13 0.337573 0.678520 0.251681
O O14 0.261714 0.746289 0.180256
O O15 0.500000 0.000000 0.444109
O O16 0.731252 0.000000 0.500000
O O17 0.308695 0.767715 0.500000
O O18 0.500000 0.739315 0.566121
O O19 0.500000 0.298421 0.327034
#
# Coordination Sequence:
#
# PCOD9524705 Si02
#       7
#    16  16  16  16   8  16  16
#     4  10  21  37  56  76  99 132 175 215 251 295
#     4  10  21  35  51  75 107 138 167 205 255 309
#     4  10  19  32  52  78 106 138 177 223 268 313
#     4  10  20  34  55  82 108 136 170 213 267 321
#     4   9  18  34  55  77 105 145 191 231 268 317
#     4   9  17  30  50  75 101 132 173 218 260 301
#     4   9  19  37  57  79 105 136 173 216 263 311
#
# _framework density 10.190084000000001
#
# number of rings (size 3 to 8) (size 9 to 14) (size 15 to 20)
#    0.000    2.385    0.000    2.308    0.000    8.923 
#    1.385    1.923    0.000    1.846    0.000    0.000 
#    0.000    0.000    0.000    0.000    0.000    0.000 
#
# Total GULP energy -289636.532089 kJ/mol
# GULP energy per Si atom -5569.933309 kJ/mol
# Density = 1.016689 g / cm^3
# Si number density = 10.190084 Si / 1000 Ang^3
#
#
#
# Elastic Constant Matrix: (Units=GPa)
#
#
# Indices 1 2 3 4 5 6 
#
# 1 -41.3463 7.9321 24.4855 0.0000 0.0000 0.0000
# 2 7.9321 30.0099 77.3401 0.0000 0.0000 0.0000
# 3 24.4855 77.3401 72.7257 0.0000 0.0000 0.0000
# 4 0.0000 0.0000 0.0000 19.5366 0.0000 0.0000
# 5 0.0000 0.0000 0.0000 0.0000 15.3509 0.0000
# 6 0.0000 0.0000 0.0000 0.0000 0.0000 83.7534
#
#
#
# Elastic Compliance Matrix: (Units=1/GPa)
#
#
# Indices 1 2 3 4 5 6 
#
# 1 -0.023087 0.008003 -0.000737 0.000000 0.000000 0.000000
# 2 0.008003 -0.021917 0.020614 0.000000 0.000000 0.000000
# 3 -0.000737 0.020614 -0.007923 0.000000 0.000000 0.000000
# 4 0.000000 0.000000 0.000000 0.051186 0.000000 0.000000
# 5 0.000000 0.000000 0.000000 0.000000 0.065143 0.000000
# 6 0.000000 0.000000 0.000000 0.000000 0.000000 0.011940
#
#
# Mechanical properties :
#
#
# Convention : Reuss Voigt Hill
#
# Bulk Modulus (GPa) = 353.32535 31.21163 192.26849
# Shear Modulus (GPa) = 243.58851 20.50362 132.04607
#
# Velocity S-wave (km/s) = 10.94449 3.17528 8.05805
# Velocity P-wave (km/s) = 18.26069 5.36574 13.45815
#
# Compressibility (1/GPa) = 0.00283025
#
# Stress axis : x y z
#
# Youngs Moduli (GPa) = -43.31380 -45.62596 -126.21506
#
# Poissons Ratio (x) = 0.36513 -0.09307
# Poissons Ratio (y) = 0.34663 2.60175
# Poissons Ratio (z) = -0.03194 0.94052
#
# Static dielectric constant tensor:
#      x y z
#    x 1.724200 0.000000 0.000000 
#    y 0.000000 1.746010 0.000000 
#    z 0.000000 0.000000 1.796450 
# 
# From -- ./inp_files/16998.got.cif
#   From: 2010.05.17/outbox.ucp.g08.bks.cvg/sg71_9_cif.got.tgz:16998.got - 2010.06.11 16:29:00.
