data_PCOD9524200
_publ_section_title
;
Structure prediction by ZEFSAII (Michael W. Deem and Ramdas Pophale) SiO2 
 PCOD9524200
Probable space group: I M M M
;
_chemical_formula_sum "Si O2"
_cell_formula_units_Z 72
_cell_length_a 7.623381
_cell_length_b 25.126438
_cell_length_c 17.999582
_cell_angle_alpha 90.000000
_cell_angle_beta 90.000000
_cell_angle_gamma 90.000000
_cell_volume 3447.791314
_symmetry_space_group_name_H-M "I M M M"
_symmetry_group_IT_number 71
_symmetry_cell_setting 'orthorhombic'
loop_
_space_group_symop_operation_xyz
x,y,z
-x,-y,z
x,-y,-z
-x,y,-z
-x,-y,-z
x,y,-z
-x,y,z
x,-y,z
1/2+x,1/2+y,1/2+z
1/2-x,1/2-y,1/2+z
1/2+x,1/2-y,1/2-z
1/2-x,1/2+y,1/2-z
1/2-x,1/2-y,1/2-z
1/2+x,1/2+y,1/2-z
1/2-x,1/2+y,1/2+z
1/2+x,1/2-y,1/2+z
loop_
_atom_site_type_symbol
_atom_site_label
_atom_site_fract_x
_atom_site_fract_y
_atom_site_fract_z
Si Si1 0.500000 0.061259 0.589157
Si Si2 0.286186 0.754807 0.917129
Si Si3 0.301018 0.360908 0.861350
Si Si4 0.795488 0.344587 0.694903
Si Si5 0.712312 0.438743 0.584695
O O1 0.500000 0.063240 0.500000
O O2 0.669908 0.092160 0.618527
O O3 0.500000 0.000000 0.613185
O O4 0.500000 0.757100 0.916460
O O5 0.238872 0.694261 0.898597
O O6 0.225335 0.795706 0.854411
O O7 0.227641 0.769748 0.000000
O O8 0.500000 0.371600 0.886214
O O9 0.298550 0.351896 0.772938
O O10 0.781640 0.396916 0.643855
O O11 0.000000 0.334549 0.711941
O O12 0.766755 0.425378 0.500000
O O13 0.500000 0.436897 0.586743
O O14 0.764282 0.500000 0.599530
#
# Coordination Sequence:
#
# PCOD9524200 Si02
#       5
#     8  16  16  16  16
#     4  11  26  48  72 100 129 161 216 274 321 390
#     4   9  19  36  61  92 127 170 217 264 318 386
#     4  11  23  43  68  94 132 172 210 262 329 386
#     4  11  21  36  59  91 130 168 212 267 318 372
#     4   9  19  36  55  78 115 163 215 267 316 375
#
# _framework density 20.882935
#
# number of rings (size 3 to 8) (size 9 to 14) (size 15 to 20)
#    0.000    1.889    1.111    3.333    0.000    4.444 
#    4.000    2.222    0.000    0.000    0.000    0.000 
#    0.000    0.000    0.000    0.000    0.000    0.000 
#
# Total GULP energy -201342.580273 kJ/mol
# GULP energy per Si atom -5592.849452 kJ/mol
# Density = 2.083540 g / cm^3
# Si number density = 20.882935 Si / 1000 Ang^3
#
#
#
# Elastic Constant Matrix: (Units=GPa)
#
#
# Indices 1 2 3 4 5 6 
#
# 1 79.1987 34.7795 11.7440 0.0000 -0.0001 0.0000
# 2 34.7795 113.4600 35.8670 0.0000 -0.0006 0.0000
# 3 11.7440 35.8670 76.4968 0.0001 0.0000 0.0000
# 4 0.0000 0.0000 0.0001 114.3701 -0.0027 0.0000
# 5 -0.0001 -0.0006 0.0000 -0.0027-3395.8898 -0.0002
# 6 0.0000 0.0000 0.0000 0.0000 -0.0002 27.2192
#
#
#
# Elastic Compliance Matrix: (Units=1/GPa)
#
#
# Indices 1 2 3 4 5 6 
#
# 1 0.014592 -0.004420 -0.000168 0.000000 0.000000 0.000000
# 2 -0.004420 0.011686 -0.004801 0.000000 0.000000 0.000000
# 3 -0.000168 -0.004801 0.015349 0.000000 0.000000 0.000000
# 4 0.000000 0.000000 0.000000 0.008744 0.000000 0.000000
# 5 0.000000 0.000000 0.000000 0.000000 -0.000294 0.000000
# 6 0.000000 0.000000 0.000000 0.000000 0.000000 0.036739
#
#
# Mechanical properties :
#
#
# Convention : Reuss Voigt Hill
#
# Bulk Modulus (GPa) = 43.76271 48.21516 45.98894
# Shear Modulus (GPa) = 44.16588 -638.40911 -297.12162
#
# Velocity S-wave (km/s) = 4.60382 -17.50349 -11.94104
# Velocity P-wave (km/s) = 7.01869 19.63053 12.96333
#
# Compressibility (1/GPa) = 0.02285050
#
# Stress axis : x y z
#
# Youngs Moduli (GPa) = 68.52892 85.57121 65.15032
#
# Poissons Ratio (x) = 0.37823 0.01094
# Poissons Ratio (y) = 0.30290 0.31277
# Poissons Ratio (z) = 0.01150 0.41080
#
# Static dielectric constant tensor:
#      x y z
#    x 1.837190 0.000000 0.000000 
#    y 0.000000 1.711660 0.000000 
#    z 0.000000 0.000000 1.721840 
# 
# From -- ./inp_files/7964.got.cif
#   From: 2010.05.17/outbox.cif.g08.bks.cpg/sg71_4_cif.got.tgz:7964.got - 2010.06.03 16:22:01.
