data_PCOD9524444
_publ_section_title
;
Structure prediction by ZEFSAII (Michael W. Deem and Ramdas Pophale) SiO2 
 PCOD9524444
Probable space group: I M M M
;
_chemical_formula_sum "Si O2"
_cell_formula_units_Z 48
_cell_length_a 8.686363
_cell_length_b 15.132210
_cell_length_c 15.196394
_cell_angle_alpha 90.000000
_cell_angle_beta 90.000000
_cell_angle_gamma 90.000000
_cell_volume 1997.472823
_symmetry_space_group_name_H-M "I M M M"
_symmetry_group_IT_number 71
_symmetry_cell_setting 'orthorhombic'
loop_
_space_group_symop_operation_xyz
x,y,z
-x,-y,z
x,-y,-z
-x,y,-z
-x,-y,-z
x,y,-z
-x,y,z
x,-y,z
1/2+x,1/2+y,1/2+z
1/2-x,1/2-y,1/2+z
1/2+x,1/2-y,1/2-z
1/2-x,1/2+y,1/2-z
1/2-x,1/2-y,1/2-z
1/2+x,1/2+y,1/2-z
1/2-x,1/2+y,1/2+z
1/2+x,1/2-y,1/2+z
loop_
_atom_site_type_symbol
_atom_site_label
_atom_site_fract_x
_atom_site_fract_y
_atom_site_fract_z
Si Si1 0.667311 0.350613 0.099303
Si Si2 0.815875 0.000000 0.103745
Si Si3 0.000000 0.396994 0.901452
Si Si4 0.823547 0.678253 0.681844
O O1 0.500000 0.375215 0.140631
O O2 0.672205 0.244600 0.098369
O O3 0.831058 0.379403 0.138746
O O4 0.665988 0.386188 0.000000
O O5 0.759912 0.911751 0.154881
O O6 0.000000 0.000000 0.103009
O O7 0.763774 0.000000 0.000000
O O8 0.000000 0.500000 0.912395
O O9 0.000000 0.352905 0.000000
O O10 0.750000 0.750000 0.750000
O O11 0.000000 0.659144 0.705231
#
# Coordination Sequence:
#
# PCOD9524444 Si02
#       4
#    16   8   8  16
#     4   9  19  36  59  86 119 165 217 274 344 417
#     4  11  25  45  75 111 142 185 248 305 357 435
#     4   9  18  32  54  85 117 155 207 266 323 398
#     4  11  24  43  66  97 138 180 227 292 363 427
#
# _framework density 24.030365
#
# number of rings (size 3 to 8) (size 9 to 14) (size 15 to 20)
#    0.000    2.000    0.000    2.500    4.667    3.333 
#    3.000    3.333    0.000    0.000    0.000    0.000 
#    0.000    0.000    0.000    0.000    0.000    0.000 
#
# Total GULP energy -133627.813677 kJ/mol
# GULP energy per Si atom -5567.825570 kJ/mol
# Density = 2.397567 g / cm^3
# Si number density = 24.030365 Si / 1000 Ang^3
#
#
#
# Elastic Constant Matrix: (Units=GPa)
#
#
# Indices 1 2 3 4 5 6 
#
# 1 262.8993 91.9055 52.4099 0.0000 0.0000 0.0000
# 2 91.9055 158.7621 52.0521 0.0000 0.0000 0.0000
# 3 52.4099 52.0521 104.7357 0.0000 0.0000 0.0000
# 4 0.0000 0.0000 0.0000 24.4596 0.0000 0.0000
# 5 0.0000 0.0000 0.0000 0.0000 24.7509 0.0000
# 6 0.0000 0.0000 0.0000 0.0000 0.0000 156.6286
#
#
#
# Elastic Compliance Matrix: (Units=1/GPa)
#
#
# Indices 1 2 3 4 5 6 
#
# 1 0.004901 -0.002429 -0.001245 0.000000 0.000000 0.000000
# 2 -0.002429 0.008729 -0.003123 0.000000 0.000000 0.000000
# 3 -0.001245 -0.003123 0.011723 0.000000 0.000000 0.000000
# 4 0.000000 0.000000 0.000000 0.040884 0.000000 0.000000
# 5 0.000000 0.000000 0.000000 0.000000 0.040403 0.000000
# 6 0.000000 0.000000 0.000000 0.000000 0.000000 0.006385
#
#
# Mechanical properties :
#
#
# Convention : Reuss Voigt Hill
#
# Bulk Modulus (GPa) = 85.04190 102.12576 93.58383
# Shear Modulus (GPa) = 38.30341 63.16981 50.73661
#
# Velocity S-wave (km/s) = 3.99677 5.13270 4.59993
# Velocity P-wave (km/s) = 7.53426 8.81572 8.20006
#
# Compressibility (1/GPa) = 0.01175891
#
# Stress axis : x y z
#
# Youngs Moduli (GPa) = 204.03544 114.56671 85.30309
#
# Poissons Ratio (x) = 0.27827 0.10624
# Poissons Ratio (y) = 0.49558 0.26636
# Poissons Ratio (z) = 0.25411 0.35774
#
# Static dielectric constant tensor:
#      x y z
#    x 1.969080 0.000000 0.000000 
#    y 0.000000 1.839880 0.000000 
#    z 0.000000 0.000000 2.299250 
# 
# From -- ./inp_files/41638.got.cif
#   From: 2010.05.17/outbox.cif.g08.bks.cpg/sg71_21_cif.got.tgz:41638.got - 2010.06.03 16:22:01.
