data_PCOD9524676
_publ_section_title
;
Structure prediction by ZEFSAII (Michael W. Deem and Ramdas Pophale) SiO2 
 PCOD9524676
Probable space group: I M M M
;
_chemical_formula_sum "Si O2"
_cell_formula_units_Z 48
_cell_length_a 27.000000
_cell_length_b 9.000000
_cell_length_c 24.000000
_cell_angle_alpha 90.000000
_cell_angle_beta 90.000000
_cell_angle_gamma 90.000000
_cell_volume 5832.000000
_symmetry_space_group_name_H-M "I M M M"
_symmetry_group_IT_number 71
_symmetry_cell_setting 'orthorhombic'
loop_
_space_group_symop_operation_xyz
x,y,z
-x,-y,z
x,-y,-z
-x,y,-z
-x,-y,-z
x,y,-z
-x,y,z
x,-y,z
1/2+x,1/2+y,1/2+z
1/2-x,1/2-y,1/2+z
1/2+x,1/2-y,1/2-z
1/2-x,1/2+y,1/2-z
1/2-x,1/2-y,1/2-z
1/2+x,1/2+y,1/2-z
1/2-x,1/2+y,1/2+z
1/2+x,1/2-y,1/2+z
loop_
_atom_site_type_symbol
_atom_site_label
_atom_site_fract_x
_atom_site_fract_y
_atom_site_fract_z
Si Si1 0.753038 0.678411 0.500000
Si Si2 0.896384 0.329606 0.882011
Si Si3 0.143739 0.319492 0.000000
Si Si4 0.795032 0.328154 0.811105
Si Si5 0.792812 0.677682 0.620349
Si Si6 0.445379 0.678403 0.719162
Si Si7 0.350407 0.321649 0.788997
O O1 0.745095 0.500000 0.500000
O O2 0.699277 0.755295 0.500000
O O3 0.782987 0.716404 0.556001
O O4 0.913979 0.500000 0.885291
O O5 0.843735 0.329957 0.850009
O O6 0.931796 0.236740 0.842141
O O7 0.885205 0.274006 0.944106
O O8 0.147358 0.500000 0.000000
O O9 0.780832 0.500000 0.800270
O O10 0.753801 0.241512 0.845469
O O11 0.810515 0.244741 0.754706
O O12 0.795434 0.500000 0.625636
O O13 0.839178 0.753274 0.650883
O O14 0.500000 0.729445 0.735288
O O15 0.444464 0.500000 0.717748
O O16 0.403007 0.724492 0.762652
O O17 0.347119 0.500000 0.790207
#
# Coordination Sequence:
#
# PCOD9524676 Si02
#       7
#     8  16   8  16  16  16  16
#     4  10  22  34  48  69  98 137 172 202 234 275
#     4   9  18  30  48  72  97 128 165 204 243 284
#     4  10  18  32  49  69  98 132 171 208 238 278
#     4  10  18  30  48  70  98 131 165 199 237 282
#     4  11  21  33  47  69 100 131 165 198 235 283
#     4   9  19  36  55  73  94 121 157 204 254 299
#     4  10  20  33  50  72  97 125 158 199 247 294
#
# _framework density 8.2304530000000007
#
# number of rings (size 3 to 8) (size 9 to 14) (size 15 to 20)
#    0.000    2.167    1.667    2.000    0.000    3.000 
#    0.000    0.417    0.000    2.500    0.000    0.583 
#    0.000    4.667    0.000    0.000    0.000    0.000 
#
# Total GULP energy -267708.920181 kJ/mol
# GULP energy per Si atom -5577.269170 kJ/mol
# Density = 0.821172 g / cm^3
# Si number density = 8.230453 Si / 1000 Ang^3
#
#
#
# Elastic Constant Matrix: (Units=GPa)
#
#
# Indices 1 2 3 4 5 6 
#
# 1 85.2213 26.2007 62.0268 0.0000 0.0000 0.0000
# 2 26.2007 42.4290 39.0019 0.0000 0.0000 0.0000
# 3 62.0268 39.0019 115.0762 0.0000 0.0000 0.0000
# 4 0.0000 0.0000 0.0000 22.4589 0.0000 0.0000
# 5 0.0000 0.0000 0.0000 0.0000 10.6615 0.0000
# 6 0.0000 0.0000 0.0000 0.0000 0.0000 16.8542
#
#
#
# Elastic Compliance Matrix: (Units=1/GPa)
#
#
# Indices 1 2 3 4 5 6 
#
# 1 0.019658 -0.003485 -0.009415 0.000000 0.000000 0.000000
# 2 -0.003485 0.034852 -0.009934 0.000000 0.000000 0.000000
# 3 -0.009415 -0.009934 0.017131 0.000000 0.000000 0.000000
# 4 0.000000 0.000000 0.000000 0.044526 0.000000 0.000000
# 5 0.000000 0.000000 0.000000 0.000000 0.093796 0.000000
# 6 0.000000 0.000000 0.000000 0.000000 0.000000 0.059332
#
#
# Mechanical properties :
#
#
# Convention : Reuss Voigt Hill
#
# Bulk Modulus (GPa) = 38.49911 55.24283 46.87097
# Shear Modulus (GPa) = 15.45022 17.69472 16.57247
#
# Velocity S-wave (km/s) = 3.06698 3.28221 3.17642
# Velocity P-wave (km/s) = 5.99840 6.92797 6.47987
#
# Compressibility (1/GPa) = 0.02597463
#
# Stress axis : x y z
#
# Youngs Moduli (GPa) = 50.87035 28.69258 58.37302
#
# Poissons Ratio (x) = 0.09999 0.54956
# Poissons Ratio (y) = 0.17728 0.57987
# Poissons Ratio (z) = 0.47892 0.28503
#
# Static dielectric constant tensor:
#      x y z
#    x 1.572900 0.000000 0.000000 
#    y 0.000000 1.556640 0.000000 
#    z 0.000000 0.000000 1.557200 
# 
# From -- ./inp_files/61913.got.cif
#   From: 2010.05.17/outbox.ucp.g08.bks.cvg/sg71_31_cif.got.tgz:61913.got - 2010.06.11 16:29:00.
