data_PCOD9524515
_publ_section_title
;
Structure prediction by ZEFSAII (Michael W. Deem and Ramdas Pophale) SiO2 
 PCOD9524515
Probable space group: I M M M
;
_chemical_formula_sum "Si O2"
_cell_formula_units_Z 112
_cell_length_a 14.321943
_cell_length_b 13.836763
_cell_length_c 27.906053
_cell_angle_alpha 90.000000
_cell_angle_beta 90.000000
_cell_angle_gamma 90.000000
_cell_volume 5530.123854
_symmetry_space_group_name_H-M "I M M M"
_symmetry_group_IT_number 71
_symmetry_cell_setting 'orthorhombic'
loop_
_space_group_symop_operation_xyz
x,y,z
-x,-y,z
x,-y,-z
-x,y,-z
-x,-y,-z
x,y,-z
-x,y,z
x,-y,z
1/2+x,1/2+y,1/2+z
1/2-x,1/2-y,1/2+z
1/2+x,1/2-y,1/2-z
1/2-x,1/2+y,1/2-z
1/2-x,1/2-y,1/2-z
1/2+x,1/2+y,1/2-z
1/2-x,1/2+y,1/2+z
1/2+x,1/2-y,1/2+z
loop_
_atom_site_type_symbol
_atom_site_label
_atom_site_fract_x
_atom_site_fract_y
_atom_site_fract_z
Si Si1 0.609212 0.882453 0.155576
Si Si2 0.211526 0.381932 0.247040
Si Si3 0.392359 0.883890 0.348068
Si Si4 0.113987 0.299534 0.051872
Si Si5 0.386639 0.607798 0.598527
Si Si6 0.886526 0.615172 0.448298
Si Si7 0.604599 0.617797 0.707478
O O1 0.500000 0.857098 0.159108
O O2 0.659803 0.852544 0.204082
O O3 0.647184 0.847795 0.103679
O O4 0.614508 0.000000 0.154109
O O5 0.208002 0.500000 0.246116
O O6 0.164223 0.348771 0.198058
O O7 0.318667 0.352899 0.254189
O O8 0.500000 0.850294 0.344166
O O9 0.355272 0.853402 0.400059
O O10 0.393681 0.000000 0.346546
O O11 0.139929 0.187700 0.060227
O O12 0.000000 0.305748 0.051670
O O13 0.146254 0.334980 0.000000
O O14 0.500000 0.602432 0.597740
O O15 0.349961 0.500000 0.589981
O O16 0.365044 0.640114 0.652841
O O17 0.854889 0.655524 0.500000
O O18 0.868374 0.500000 0.449220
O O19 0.000000 0.624730 0.446998
O O20 0.500000 0.652916 0.716489
O O21 0.601340 0.500000 0.707523
#
# Coordination Sequence:
#
# PCOD9524515 Si02
#       7
#    16  16  16  16  16  16  16
#     4   8  12  17  27  45  69  99 137 177 213 252
#     4   9  15  23  37  56  80 113 150 183 217 261
#     4   9  17  28  41  60  91 128 159 186 218 260
#     4   9  17  28  43  64  88 116 152 190 227 270
#     4   8  14  26  44  64  86 112 143 184 232 273
#     4   7   9  13  21  34  54  81 114 156 206 250
#     4   8  14  25  41  60  82 109 140 178 228 279
#
# _framework density 20.252711000000001
#
# number of rings (size 3 to 8) (size 9 to 14) (size 15 to 20)
#    0.000    3.714    0.000    2.571    0.000    2.286 
#    0.000    3.571    0.000    0.857    0.000    4.000 
#    0.000    0.571    0.000    6.143    0.000    2.714 
#
# Total GULP energy -312249.886669 kJ/mol
# GULP energy per Si atom -5575.890833 kJ/mol
# Density = 2.020662 g / cm^3
# Si number density = 20.252711 Si / 1000 Ang^3
#
#
#
# Elastic Constant Matrix: (Units=GPa)
#
#
# Indices 1 2 3 4 5 6 
#
# 1 60.9389 6.1280 66.3655 0.0000 0.0000 0.0000
# 2 6.1280 37.5680 26.8354 0.0000 0.0000 0.0000
# 3 66.3655 26.8354 206.5867 0.0000 0.0000 0.0000
# 4 0.0000 0.0000 0.0000 21.6203 0.0000 0.0000
# 5 0.0000 0.0000 0.0000 0.0000 12.8939 0.0000
# 6 0.0000 0.0000 0.0000 0.0000 0.0000 2.8371
#
#
#
# Elastic Compliance Matrix: (Units=1/GPa)
#
#
# Indices 1 2 3 4 5 6 
#
# 1 0.025357 0.001855 -0.008387 0.000000 0.000000 0.000000
# 2 0.001855 0.029477 -0.004425 0.000000 0.000000 0.000000
# 3 -0.008387 -0.004425 0.008110 0.000000 0.000000 0.000000
# 4 0.000000 0.000000 0.000000 0.046253 0.000000 0.000000
# 5 0.000000 0.000000 0.000000 0.000000 0.077556 0.000000
# 6 0.000000 0.000000 0.000000 0.000000 0.000000 0.352476
#
#
# Mechanical properties :
#
#
# Convention : Reuss Voigt Hill
#
# Bulk Modulus (GPa) = 24.37281 55.97239 40.17260
# Shear Modulus (GPa) = 8.69840 21.18790 14.94315
#
# Velocity S-wave (km/s) = 2.07467 3.23797 2.71926
# Velocity P-wave (km/s) = 4.21894 6.45572 5.45324
#
# Compressibility (1/GPa) = 0.04102932
#
# Stress axis : x y z
#
# Youngs Moduli (GPa) = 39.43679 33.92527 123.31061
#
# Poissons Ratio (x) = -0.06292 1.03418
# Poissons Ratio (y) = -0.07314 0.54562
# Poissons Ratio (z) = 0.33075 0.15011
#
# Static dielectric constant tensor:
#      x y z
#    x 1.755140 0.000000 0.000000 
#    y 0.000000 1.747060 0.000000 
#    z 0.000000 0.000000 1.739930 
# 
# From -- ./inp_files/65523.got.cif
#   From: 2010.05.17/outbox.cif.g08.bks.cpg/sg71_33_cif.got.tgz:65523.got - 2010.06.03 16:22:01.
