data_PCOD9524483
_publ_section_title
;
Structure prediction by ZEFSAII (Michael W. Deem and Ramdas Pophale) SiO2 
 PCOD9524483
Probable space group: I M M M
;
_chemical_formula_sum "Si O2"
_cell_formula_units_Z 64
_cell_length_a 8.445304
_cell_length_b 17.991983
_cell_length_c 21.705064
_cell_angle_alpha 90.000000
_cell_angle_beta 90.000000
_cell_angle_gamma 90.000000
_cell_volume 3298.035986
_symmetry_space_group_name_H-M "I M M M"
_symmetry_group_IT_number 71
_symmetry_cell_setting 'orthorhombic'
loop_
_space_group_symop_operation_xyz
x,y,z
-x,-y,z
x,-y,-z
-x,y,-z
-x,-y,-z
x,y,-z
-x,y,z
x,-y,z
1/2+x,1/2+y,1/2+z
1/2-x,1/2-y,1/2+z
1/2+x,1/2-y,1/2-z
1/2-x,1/2+y,1/2-z
1/2-x,1/2-y,1/2-z
1/2+x,1/2+y,1/2-z
1/2-x,1/2+y,1/2+z
1/2+x,1/2-y,1/2+z
loop_
_atom_site_type_symbol
_atom_site_label
_atom_site_fract_x
_atom_site_fract_y
_atom_site_fract_z
Si Si1 0.191909 0.665697 0.928278
Si Si2 0.307340 0.414447 0.366702
Si Si3 0.821579 0.910015 0.000000
Si Si4 0.680828 0.000000 0.425550
Si Si5 0.686009 0.230892 0.182842
O O1 0.250038 0.581612 0.910828
O O2 0.241049 0.723306 0.875052
O O3 0.000000 0.663289 0.929576
O O4 0.240922 0.682625 0.000000
O O5 0.500000 0.409091 0.366948
O O6 0.268204 0.500000 0.354583
O O7 0.247254 0.392193 0.435133
O O8 0.230404 0.355440 0.323221
O O9 0.000000 0.878297 0.000000
O O10 0.836334 0.000000 0.000000
O O11 0.500000 0.000000 0.401503
O O12 0.672936 0.000000 0.500000
O O13 0.500000 0.242964 0.180568
O O14 0.750000 0.250000 0.250000
#
# Coordination Sequence:
#
# PCOD9524483 Si02
#       5
#    16  16   8   8  16
#     4   9  18  36  64  93 120 153 192 238 297 359
#     4   9  18  36  62  89 117 151 192 237 291 353
#     4   7  12  26  53  87 115 142 179 222 273 339
#     4   7  12  28  57  91 119 145 186 235 284 347
#     4  12  26  42  58  82 120 160 203 247 294 347
#
# _framework density 19.40549
#
# number of rings (size 3 to 8) (size 9 to 14) (size 15 to 20)
#    0.000    2.750    0.000    5.250    1.750    1.000 
#    2.250    0.625    0.000    4.500    0.000    0.000 
#    0.000    0.000    0.000    0.000    0.000    0.000 
#
# Total GULP energy -178157.128399 kJ/mol
# GULP energy per Si atom -5567.410262 kJ/mol
# Density = 1.936132 g / cm^3
# Si number density = 19.405490 Si / 1000 Ang^3
#
#
#
# Elastic Constant Matrix: (Units=GPa)
#
#
# Indices 1 2 3 4 5 6 
#
# 1 37.0137 32.3742 34.1183 0.0000 0.0000 0.0000
# 2 32.3742 96.6664 66.3605 0.0000 0.0000 0.0000
# 3 34.1183 66.3605 119.4879 0.0000 0.0000 0.0000
# 4 0.0000 0.0000 0.0000 35.9192 0.0000 0.0000
# 5 0.0000 0.0000 0.0000 0.0000 21.1244 0.0000
# 6 0.0000 0.0000 0.0000 0.0000 0.0000 20.5134
#
#
#
# Elastic Compliance Matrix: (Units=1/GPa)
#
#
# Indices 1 2 3 4 5 6 
#
# 1 0.041224 -0.009253 -0.006632 0.000000 0.000000 0.000000
# 2 -0.009253 0.018796 -0.007797 0.000000 0.000000 0.000000
# 3 -0.006632 -0.007797 0.014593 0.000000 0.000000 0.000000
# 4 0.000000 0.000000 0.000000 0.027840 0.000000 0.000000
# 5 0.000000 0.000000 0.000000 0.000000 0.047339 0.000000
# 6 0.000000 0.000000 0.000000 0.000000 0.000000 0.048749
#
#
# Mechanical properties :
#
#
# Convention : Reuss Voigt Hill
#
# Bulk Modulus (GPa) = 36.69895 57.65268 47.17582
# Shear Modulus (GPa) = 19.60884 23.53240 21.57062
#
# Velocity S-wave (km/s) = 3.18225 3.48611 3.33764
# Velocity P-wave (km/s) = 5.69693 6.78071 6.26231
#
# Compressibility (1/GPa) = 0.02724874
#
# Stress axis : x y z
#
# Youngs Moduli (GPa) = 24.25797 53.20201 68.52688
#
# Poissons Ratio (x) = 0.49230 0.45446
# Poissons Ratio (y) = 0.22447 0.53429
# Poissons Ratio (z) = 0.16087 0.41480
#
# Static dielectric constant tensor:
#      x y z
#    x 1.687310 0.000000 0.000000 
#    y 0.000000 1.041910 0.000000 
#    z 0.000000 0.000000 1.683850 
# 
# From -- ./inp_files/49966.got.cif
#   From: 2010.05.17/outbox.cif.g08.bks.cpg/sg71_25_cif.got.tgz:49966.got - 2010.06.03 16:22:01.
