data_PCOD9524256
_publ_section_title
;
Structure prediction by ZEFSAII (Michael W. Deem and Ramdas Pophale) SiO2 
 PCOD9524256
Probable space group: I M M M
;
_chemical_formula_sum "Si O2"
_cell_formula_units_Z 96
_cell_length_a 8.931403
_cell_length_b 20.145600
_cell_length_c 30.657925
_cell_angle_alpha 90.000000
_cell_angle_beta 90.000000
_cell_angle_gamma 90.000000
_cell_volume 5516.233608
_symmetry_space_group_name_H-M "I M M M"
_symmetry_group_IT_number 71
_symmetry_cell_setting 'orthorhombic'
loop_
_space_group_symop_operation_xyz
x,y,z
-x,-y,z
x,-y,-z
-x,y,-z
-x,-y,-z
x,y,-z
-x,y,z
x,-y,z
1/2+x,1/2+y,1/2+z
1/2-x,1/2-y,1/2+z
1/2+x,1/2-y,1/2-z
1/2-x,1/2+y,1/2-z
1/2-x,1/2-y,1/2-z
1/2+x,1/2+y,1/2-z
1/2-x,1/2+y,1/2+z
1/2+x,1/2-y,1/2+z
loop_
_atom_site_type_symbol
_atom_site_label
_atom_site_fract_x
_atom_site_fract_y
_atom_site_fract_z
Si Si1 0.324246 0.072343 0.552937
Si Si2 0.821094 0.294425 0.630278
Si Si3 0.177756 0.924429 0.835781
Si Si4 0.178608 0.924310 0.731390
Si Si5 0.320404 0.708581 0.049774
Si Si6 0.178829 0.711812 0.208549
O O1 0.312560 0.071542 0.500000
O O2 0.500000 0.077474 0.563536
O O3 0.239461 0.138078 0.567326
O O4 0.268719 0.000000 0.568417
O O5 0.769659 0.369166 0.639053
O O6 0.778801 0.266867 0.582717
O O7 0.739781 0.248916 0.666029
O O8 0.000000 0.288614 0.635632
O O9 0.203107 0.917982 0.783650
O O10 0.000000 0.914440 0.842613
O O11 0.215305 0.000000 0.848004
O O12 0.267225 0.864502 0.709361
O O13 0.000000 0.916572 0.723968
O O14 0.220068 0.000000 0.718859
O O15 0.500000 0.704826 0.048401
O O16 0.266105 0.718204 0.000000
O O17 0.250000 0.750000 0.250000
O O18 0.000000 0.716008 0.211053
#
# Coordination Sequence:
#
# PCOD9524256 Si02
#       6
#    16  16  16  16  16  16
#     4   8  14  26  46  72  99 127 164 211 259 306
#     4  11  22  35  54  80 107 139 178 218 264 314
#     4   9  18  33  54  79 106 136 171 215 263 310
#     4   9  18  34  55  78 107 142 177 216 262 308
#     4   9  19  35  53  75 104 137 176 221 265 311
#     4  12  23  35  53  78 109 141 175 215 258 309
#
# _framework density 17.403178
#
# number of rings (size 3 to 8) (size 9 to 14) (size 15 to 20)
#    0.000    2.333    1.667    3.500    0.000    2.333 
#    0.000    4.167    0.000    1.500    0.000    3.500 
#    0.000    0.000    0.000    0.000    0.000    0.000 
#
# Total GULP energy -267735.349388 kJ/mol
# GULP energy per Si atom -5577.819779 kJ/mol
# Density = 1.736357 g / cm^3
# Si number density = 17.403178 Si / 1000 Ang^3
#
#
#
# Elastic Constant Matrix: (Units=GPa)
#
#
# Indices 1 2 3 4 5 6 
#
# 1 55.1943 59.8207 33.9690 0.0000 0.0000 0.0000
# 2 59.8207 138.5005 48.7445 0.0000 0.0000 0.0000
# 3 33.9690 48.7445 54.9244 0.0000 0.0000 0.0000
# 4 0.0000 0.0000 0.0000 22.7745 0.0000 0.0000
# 5 0.0000 0.0000 0.0000 0.0000 16.9072 0.0000
# 6 0.0000 0.0000 0.0000 0.0000 0.0000 35.3501
#
#
#
# Elastic Compliance Matrix: (Units=1/GPa)
#
#
# Indices 1 2 3 4 5 6 
#
# 1 0.040096 -0.012493 -0.013711 0.000000 0.000000 0.000000
# 2 -0.012493 0.014392 -0.005046 0.000000 0.000000 0.000000
# 3 -0.013711 -0.005046 0.031165 0.000000 0.000000 0.000000
# 4 0.000000 0.000000 0.000000 0.043909 0.000000 0.000000
# 5 0.000000 0.000000 0.000000 0.000000 0.059147 0.000000
# 6 0.000000 0.000000 0.000000 0.000000 0.000000 0.028289
#
#
# Mechanical properties :
#
#
# Convention : Reuss Voigt Hill
#
# Bulk Modulus (GPa) = 43.19080 59.29863 51.24471
# Shear Modulus (GPa) = 17.40857 22.07868 19.74363
#
# Velocity S-wave (km/s) = 3.16620 3.56569 3.37186
# Velocity P-wave (km/s) = 6.18369 7.14840 6.68347
#
# Compressibility (1/GPa) = 0.02315308
#
# Stress axis : x y z
#
# Youngs Moduli (GPa) = 24.94024 69.48316 32.08692
#
# Poissons Ratio (x) = 0.86802 0.43995
# Poissons Ratio (y) = 0.31157 0.16192
# Poissons Ratio (z) = 0.34196 0.35064
#
# Static dielectric constant tensor:
#      x y z
#    x 1.581130 0.000000 0.000000 
#    y 0.000000 1.602630 0.000000 
#    z 0.000000 0.000000 1.593150 
# 
# From -- ./inp_files/63208.got.cif
#   From: 2010.05.17/outbox.cif.g08.bks.cpg/sg71_32_cif.got.tgz:63208.got - 2010.06.03 16:22:01.
