data_PCOD9524658
_publ_section_title
;
Structure prediction by ZEFSAII (Michael W. Deem and Ramdas Pophale) SiO2 
 PCOD9524658
Probable space group: I M M M
;
_chemical_formula_sum "Si O2"
_cell_formula_units_Z 72
_cell_length_a 34.261138
_cell_length_b 14.334754
_cell_length_c 7.535724
_cell_angle_alpha 90.000000
_cell_angle_beta 90.000000
_cell_angle_gamma 90.000000
_cell_volume 3700.982336
_symmetry_space_group_name_H-M "I M M M"
_symmetry_group_IT_number 71
_symmetry_cell_setting 'orthorhombic'
loop_
_space_group_symop_operation_xyz
x,y,z
-x,-y,z
x,-y,-z
-x,y,-z
-x,-y,-z
x,y,-z
-x,y,z
x,-y,z
1/2+x,1/2+y,1/2+z
1/2-x,1/2-y,1/2+z
1/2+x,1/2-y,1/2-z
1/2-x,1/2+y,1/2-z
1/2-x,1/2-y,1/2-z
1/2+x,1/2+y,1/2-z
1/2-x,1/2+y,1/2+z
1/2+x,1/2-y,1/2+z
loop_
_atom_site_type_symbol
_atom_site_label
_atom_site_fract_x
_atom_site_fract_y
_atom_site_fract_z
Si Si1 0.452698 0.895274 0.500000
Si Si2 0.887266 0.893507 0.716430
Si Si3 0.454166 0.253634 0.210503
Si Si4 0.230557 0.394597 0.786931
Si Si5 0.809127 0.207276 0.712290
O O1 0.500000 0.901096 0.500000
O O2 0.442232 0.835492 0.673221
O O3 0.437006 0.000000 0.500000
O O4 0.886077 0.895584 0.500000
O O5 0.926725 0.839432 0.763281
O O6 0.849537 0.835598 0.778272
O O7 0.886033 0.000000 0.777616
O O8 0.500000 0.272776 0.243118
O O9 0.449449 0.236278 0.000000
O O10 0.224034 0.500000 0.721409
O O11 0.198212 0.316302 0.747866
O O12 0.271539 0.350705 0.719829
O O13 0.233447 0.399721 0.000000
O O14 0.809222 0.196142 0.500000
#
# Coordination Sequence:
#
# PCOD9524658 Si02
#       5
#     8  16  16  16  16
#     4   9  18  34  55  77 103 137 176 218 263 309
#     4   9  17  31  52  75 100 132 168 208 256 309
#     4   9  18  33  54  80 108 138 175 218 259 308
#     4   9  17  30  48  69  95 128 163 201 250 304
#     4   9  17  30  49  71  95 126 165 207 247 300
#
# _framework density 19.454294999999998
#
# number of rings (size 3 to 8) (size 9 to 14) (size 15 to 20)
#    0.000    3.000    0.000    0.667    0.000    4.000 
#    2.000    6.111    0.000    7.333    0.000    0.000 
#    0.000    0.000    0.000    0.000    0.000    0.000 
#
# Total GULP energy -200738.650627 kJ/mol
# GULP energy per Si atom -5576.073629 kJ/mol
# Density = 1.941002 g / cm^3
# Si number density = 19.454295 Si / 1000 Ang^3
#
#
#
# Elastic Constant Matrix: (Units=GPa)
#
#
# Indices 1 2 3 4 5 6 
#
# 1 99.1056 96.6703 27.6315 0.0000 0.0000 0.0000
# 2 96.6703 215.2077 28.9102 0.0000 0.0000 0.0000
# 3 27.6315 28.9102 52.3338 -0.0001 0.0000 0.0000
# 4 0.0000 0.0000 -0.0001 11.0596 0.0000 0.0000
# 5 0.0000 0.0000 0.0000 0.0000 8.4887 0.0000
# 6 0.0000 0.0000 0.0000 0.0000 0.0000 25.3808
#
#
#
# Elastic Compliance Matrix: (Units=1/GPa)
#
#
# Indices 1 2 3 4 5 6 
#
# 1 0.019510 -0.007972 -0.005897 0.000000 0.000000 0.000000
# 2 -0.007972 0.008276 -0.000363 0.000000 0.000000 0.000000
# 3 -0.005897 -0.000363 0.022422 0.000000 0.000000 0.000000
# 4 0.000000 0.000000 0.000000 0.090419 0.000000 0.000000
# 5 0.000000 0.000000 0.000000 0.000000 0.117804 0.000000
# 6 0.000000 0.000000 0.000000 0.000000 0.000000 0.039400
#
#
# Mechanical properties :
#
#
# Convention : Reuss Voigt Hill
#
# Bulk Modulus (GPa) = 45.98831 74.78567 60.38699
# Shear Modulus (GPa) = 14.99049 23.21483 19.10266
#
# Velocity S-wave (km/s) = 2.77889 3.45817 3.13697
# Velocity P-wave (km/s) = 5.82982 7.38041 6.65046
#
# Compressibility (1/GPa) = 0.02174466
#
# Stress axis : x y z
#
# Youngs Moduli (GPa) = 51.25487 120.82696 44.59819
#
# Poissons Ratio (x) = 0.96320 0.26302
# Poissons Ratio (y) = 0.40859 0.01619
# Poissons Ratio (z) = 0.30227 0.04386
#
# Static dielectric constant tensor:
#      x y z
#    x 1.668910 0.000000 0.000000 
#    y 0.000000 1.664740 0.000000 
#    z 0.000000 0.000000 1.731210 
# 
# From -- ./inp_files/6431.got.cif
#   From: 2010.05.17/outbox.cif.g08.bks.cpg/sg71_4_cif.got.tgz:6431.got - 2010.06.03 16:22:01.
