data_PCOD9524316
_publ_section_title
;
Structure prediction by ZEFSAII (Michael W. Deem and Ramdas Pophale) SiO2 
 PCOD9524316
Probable space group: I M M M
;
_chemical_formula_sum "Si O2"
_cell_formula_units_Z 52
_cell_length_a 19.923547
_cell_length_b 7.409223
_cell_length_c 14.231584
_cell_angle_alpha 90.000000
_cell_angle_beta 90.000000
_cell_angle_gamma 90.000000
_cell_volume 2100.838005
_symmetry_space_group_name_H-M "I M M M"
_symmetry_group_IT_number 71
_symmetry_cell_setting 'orthorhombic'
loop_
_space_group_symop_operation_xyz
x,y,z
-x,-y,z
x,-y,-z
-x,y,-z
-x,-y,-z
x,y,-z
-x,y,z
x,-y,z
1/2+x,1/2+y,1/2+z
1/2-x,1/2-y,1/2+z
1/2+x,1/2-y,1/2-z
1/2-x,1/2+y,1/2-z
1/2-x,1/2-y,1/2-z
1/2+x,1/2+y,1/2-z
1/2-x,1/2+y,1/2+z
1/2+x,1/2-y,1/2+z
loop_
_atom_site_type_symbol
_atom_site_label
_atom_site_fract_x
_atom_site_fract_y
_atom_site_fract_z
Si Si1 0.000000 0.500000 0.380226
Si Si2 0.115598 0.219867 0.103168
Si Si3 0.905057 0.793238 0.306200
Si Si4 0.229359 0.716840 0.394738
O O1 0.058108 0.342368 0.374954
O O2 0.080212 0.273082 0.199623
O O3 0.193525 0.276917 0.111869
O O4 0.114402 0.000000 0.103154
O O5 0.090555 0.277141 0.000000
O O6 0.825016 0.788209 0.322507
O O7 0.925856 0.000000 0.316308
O O8 0.206248 0.765620 0.500000
O O9 0.230355 0.500000 0.387241
#
# Coordination Sequence:
#
# PCOD9524316 Si02
#       4
#     4  16  16  16
#     4  12  26  44  58  82 124 164 212 246 280 352
#     4   8  16  33  60  92 122 152 188 238 305 364
#     4  11  22  39  62  84 115 160 203 246 290 341
#     4   9  17  34  61  91 123 153 185 240 308 360
#
# _framework density 24.752026999999998
#
# number of rings (size 3 to 8) (size 9 to 14) (size 15 to 20)
#    0.000    2.462    1.538    3.231    0.000    0.615 
#    2.769    3.846    0.000    5.538    0.000    0.000 
#    0.000    0.000    0.000    0.000    0.000    0.000 
#
# Total GULP energy -144827.269696 kJ/mol
# GULP energy per Si atom -5570.279604 kJ/mol
# Density = 2.469569 g / cm^3
# Si number density = 24.752027 Si / 1000 Ang^3
#
#
#
# Elastic Constant Matrix: (Units=GPa)
#
#
# Indices 1 2 3 4 5 6 
#
# 1 60.0153 6.7878 2.2217 0.0000 0.0000 0.0000
# 2 6.7878 127.9838 9.1260 0.0000 0.0000 0.0000
# 3 2.2217 9.1260 99.1720 0.0000 0.0000 0.0000
# 4 0.0000 0.0000 0.0000 -4.4472 0.0000 0.0000
# 5 0.0000 0.0000 0.0000 0.0000 -91.2949 0.0000
# 6 0.0000 0.0000 0.0000 0.0000 0.0000 -75.5684
#
#
#
# Elastic Compliance Matrix: (Units=1/GPa)
#
#
# Indices 1 2 3 4 5 6 
#
# 1 0.016772 -0.000868 -0.000296 0.000000 0.000000 0.000000
# 2 -0.000868 0.007910 -0.000708 0.000000 0.000000 0.000000
# 3 -0.000296 -0.000708 0.010155 0.000000 0.000000 0.000000
# 4 0.000000 0.000000 0.000000 -0.224859 0.000000 0.000000
# 5 0.000000 0.000000 0.000000 0.000000 -0.010954 0.000000
# 6 0.000000 0.000000 0.000000 0.000000 0.000000 -0.013233
#
#
# Mechanical properties :
#
#
# Convention : Reuss Voigt Hill
#
# Bulk Modulus (GPa) = 32.16301 35.93802 34.05051
# Shear Modulus (GPa) = -24.98753 -16.32640 -20.65696
#
# Velocity S-wave (km/s) = -3.18073 -2.57105 -2.89200
# Velocity P-wave (km/s) = 0.68346 2.39520 1.62325
#
# Compressibility (1/GPa) = 0.03109162
#
# Stress axis : x y z
#
# Youngs Moduli (GPa) = 59.62466 126.42120 98.47061
#
# Poissons Ratio (x) = 0.10979 0.02913
# Poissons Ratio (y) = 0.05178 0.06976
# Poissons Ratio (z) = 0.01764 0.08956
#
# Static dielectric constant tensor:
#      x y z
#    x 1.931270 0.000000 0.000000 
#    y 0.000000 1.894120 0.000000 
#    z 0.000000 0.000000 2.046350 
# 
# From -- ./inp_files/4865.got.cif
#   From: 2010.05.17/outbox.cif.g08.bks.cpg/sg71_3_cif.got.tgz:4865.got - 2010.06.03 16:22:01.
