data_PCOD9524620
_publ_section_title
;
Structure prediction by ZEFSAII (Michael W. Deem and Ramdas Pophale) SiO2 
 PCOD9524620
Probable space group: I M M M
;
_chemical_formula_sum "Si O2"
_cell_formula_units_Z 96
_cell_length_a 28.971995
_cell_length_b 22.551749
_cell_length_c 7.406600
_cell_angle_alpha 90.000000
_cell_angle_beta 90.000000
_cell_angle_gamma 90.000000
_cell_volume 4839.244015
_symmetry_space_group_name_H-M "I M M M"
_symmetry_group_IT_number 71
_symmetry_cell_setting 'orthorhombic'
loop_
_space_group_symop_operation_xyz
x,y,z
-x,-y,z
x,-y,-z
-x,y,-z
-x,-y,-z
x,y,-z
-x,y,z
x,-y,z
1/2+x,1/2+y,1/2+z
1/2-x,1/2-y,1/2+z
1/2+x,1/2-y,1/2-z
1/2-x,1/2+y,1/2-z
1/2-x,1/2-y,1/2-z
1/2+x,1/2+y,1/2-z
1/2-x,1/2+y,1/2+z
1/2+x,1/2-y,1/2+z
loop_
_atom_site_type_symbol
_atom_site_label
_atom_site_fract_x
_atom_site_fract_y
_atom_site_fract_z
Si Si1 0.690187 0.302637 0.282028
Si Si2 0.384949 0.500000 0.278930
Si Si3 0.725926 0.120015 0.221259
Si Si4 0.598917 0.628699 0.716463
Si Si5 0.222849 0.000000 0.220087
Si Si6 0.859981 0.682757 0.705926
Si Si7 0.551102 0.751551 0.213571
O O1 0.690413 0.296827 0.500000
O O2 0.739221 0.327531 0.222436
O O3 0.650760 0.350712 0.235060
O O4 0.672416 0.241229 0.203399
O O5 0.385420 0.500000 0.500000
O O6 0.408064 0.561620 0.218983
O O7 0.330834 0.500000 0.225049
O O8 0.749467 0.058609 0.276208
O O9 0.673995 0.133160 0.285108
O O10 0.725134 0.120511 0.000000
O O11 0.596815 0.627277 0.500000
O O12 0.565940 0.682640 0.770985
O O13 0.221846 0.000000 0.000000
O O14 0.870076 0.664807 0.500000
O O15 0.907703 0.707039 0.788782
O O16 0.500000 0.760885 0.288662
O O17 0.549519 0.763580 0.000000
#
# Coordination Sequence:
#
# PCOD9524620 Si02
#       7
#    16   8  16  16   8  16  16
#     4   9  15  24  39  60  84 108 130 155 195 241
#     4   9  14  24  40  60  85 111 134 157 195 240
#     4   9  15  23  37  60  86 108 132 160 192 233
#     4   9  16  26  43  64  82 103 134 168 199 236
#     4   9  14  22  38  60  87 115 135 157 189 234
#     4   9  17  27  40  60  81 102 133 170 201 234
#     4   9  18  32  45  56  76 107 138 170 211 248
#
# _framework density 19.837810000000001
#
# number of rings (size 3 to 8) (size 9 to 14) (size 15 to 20)
#    0.000    3.000    1.667    0.500    0.000    0.333 
#    0.000    0.833    0.000    2.500    0.000    2.917 
#    0.000    4.667    0.000    0.000    0.000   14.750 
#
# Total GULP energy -267588.201546 kJ/mol
# GULP energy per Si atom -5574.754199 kJ/mol
# Density = 1.979266 g / cm^3
# Si number density = 19.837810 Si / 1000 Ang^3
#
#
#
# Elastic Constant Matrix: (Units=GPa)
#
#
# Indices 1 2 3 4 5 6 
#
# 1 131.7425 21.5303 2.7978 0.0000 0.0000 0.0000
# 2 21.5303 24.5431 -3.0968 0.0000 0.0000 0.0000
# 3 2.7978 -3.0968 62.3179 0.0000 0.0000 0.0000
# 4 0.0000 0.0000 0.0000 1.5053 0.0000 0.0000
# 5 0.0000 0.0000 0.0000 0.0000 -7.9246 0.0000
# 6 0.0000 0.0000 0.0000 0.0000 0.0000 12.7258
#
#
#
# Elastic Compliance Matrix: (Units=1/GPa)
#
#
# Indices 1 2 3 4 5 6 
#
# 1 0.008900 -0.007907 -0.000792 0.000000 0.000000 0.000000
# 2 -0.007907 0.048027 0.002742 0.000000 0.000000 0.000000
# 3 -0.000792 0.002742 0.016219 0.000000 0.000000 0.000000
# 4 0.000000 0.000000 0.000000 0.664326 0.000000 0.000000
# 5 0.000000 0.000000 0.000000 0.000000 -0.126189 0.000000
# 6 0.000000 0.000000 0.000000 0.000000 0.000000 0.078581
#
#
# Mechanical properties :
#
#
# Convention : Reuss Voigt Hill
#
# Bulk Modulus (GPa) = 16.33202 29.00733 22.66968
# Shear Modulus (GPa) = 6.92339 14.41943 10.67141
#
# Velocity S-wave (km/s) = 1.87018 2.69897 2.32185
# Velocity P-wave (km/s) = 3.59362 4.93625 4.31744
#
# Compressibility (1/GPa) = 0.06122940
#
# Stress axis : x y z
#
# Youngs Moduli (GPa) = 112.36414 20.82155 61.65767
#
# Poissons Ratio (x) = 0.16464 0.04886
# Poissons Ratio (y) = 0.88848 -0.16904
# Poissons Ratio (z) = 0.08905 -0.05709
#
# Static dielectric constant tensor:
#      x y z
#    x 1.717240 0.000000 0.000000 
#    y 0.000000 1.703640 0.000000 
#    z 0.000000 0.000000 1.812840 
# 
# From -- ./inp_files/29054.got.cif
#   From: 2010.05.17/outbox.cif.g08.bks.cpg/sg71_15_cif.got.tgz:29054.got - 2010.06.03 16:22:01.
