data_PCOD9524514
_publ_section_title
;
Structure prediction by ZEFSAII (Michael W. Deem and Ramdas Pophale) SiO2 
 PCOD9524514
Probable space group: I M M M
;
_chemical_formula_sum "Si O2"
_cell_formula_units_Z 120
_cell_length_a 30.103667
_cell_length_b 14.653052
_cell_length_c 14.815924
_cell_angle_alpha 90.000000
_cell_angle_beta 90.000000
_cell_angle_gamma 90.000000
_cell_volume 6535.461095
_symmetry_space_group_name_H-M "I M M M"
_symmetry_group_IT_number 71
_symmetry_cell_setting 'orthorhombic'
loop_
_space_group_symop_operation_xyz
x,y,z
-x,-y,z
x,-y,-z
-x,y,-z
-x,-y,-z
x,y,-z
-x,y,z
x,-y,z
1/2+x,1/2+y,1/2+z
1/2-x,1/2-y,1/2+z
1/2+x,1/2-y,1/2-z
1/2-x,1/2+y,1/2-z
1/2-x,1/2-y,1/2-z
1/2+x,1/2+y,1/2-z
1/2-x,1/2+y,1/2+z
1/2+x,1/2-y,1/2+z
loop_
_atom_site_type_symbol
_atom_site_label
_atom_site_fract_x
_atom_site_fract_y
_atom_site_fract_z
Si Si1 0.354459 0.893126 0.390073
Si Si2 0.413649 0.611826 0.789068
Si Si3 0.500000 0.611397 0.897047
Si Si4 0.174369 0.890622 0.393952
Si Si5 0.048176 0.610990 0.107175
Si Si6 0.713570 0.400435 0.607784
Si Si7 0.764698 0.706885 0.110876
Si Si8 0.107711 0.108972 0.097859
O O1 0.355243 0.888711 0.500000
O O2 0.403123 0.859462 0.358081
O O3 0.311312 0.837423 0.359707
O O4 0.349114 0.000000 0.366708
O O5 0.413119 0.500000 0.788471
O O6 0.455685 0.641143 0.846555
O O7 0.367455 0.639944 0.834839
O O8 0.416811 0.643314 0.685906
O O9 0.500000 0.500000 0.896659
O O10 0.500000 0.641198 0.000000
O O11 0.166883 0.868694 0.500000
O O12 0.220892 0.848218 0.364003
O O13 0.177493 0.000000 0.387449
O O14 0.048872 0.500000 0.114365
O O15 0.000000 0.642200 0.144465
O O16 0.047618 0.631178 0.000000
O O17 0.722355 0.405521 0.500000
O O18 0.723518 0.500000 0.647718
O O19 0.737852 0.311309 0.642836
O O20 0.660582 0.383608 0.614093
O O21 0.766009 0.706866 0.000000
O O22 0.099191 0.000000 0.092391
O O23 0.097045 0.149895 0.000000
#
# Coordination Sequence:
#
# PCOD9524514 Si02
#       8
#    16  16   8  16  16  16  16  16
#     4   8  12  17  26  43  68  96 127 165 208 254
#     4   9  16  26  41  61  84 113 148 182 219 266
#     4   9  16  26  41  63  91 119 147 177 212 265
#     4   9  16  25  37  56  87 123 151 176 212 264
#     4   7   9  13  21  34  54  81 112 148 193 241
#     4   8  14  25  40  56  74 101 140 185 231 272
#     4   9  15  22  34  53  76 106 144 180 216 263
#     4   8  14  26  43  60  78 104 142 189 233 264
#
# _framework density 18.361367000000001
#
# number of rings (size 3 to 8) (size 9 to 14) (size 15 to 20)
#    0.000    3.667    0.000    2.800    0.000    3.200 
#    0.000    1.000    0.000    2.000    1.733    0.000 
#    0.000    0.000    0.267    1.000    0.000   13.133 
#
# Total GULP energy -334144.898309 kJ/mol
# GULP energy per Si atom -5569.081638 kJ/mol
# Density = 1.831958 g / cm^3
# Si number density = 18.361367 Si / 1000 Ang^3
#
#
#
# Elastic Constant Matrix: (Units=GPa)
#
#
# Indices 1 2 3 4 5 6 
#
# 1 147.8493 34.3532 46.6327 0.0000 0.0000 0.0000
# 2 34.3532 43.2187 14.2248 0.0000 0.0000 0.0000
# 3 46.6327 14.2248 73.4396 0.0000 0.0000 0.0000
# 4 0.0000 0.0000 0.0000 2.0798 0.0000 0.0000
# 5 0.0000 0.0000 0.0000 0.0000 -2.0564 0.0000
# 6 0.0000 0.0000 0.0000 0.0000 0.0000 -7.8573
#
#
#
# Elastic Compliance Matrix: (Units=1/GPa)
#
#
# Indices 1 2 3 4 5 6 
#
# 1 0.009766 -0.006111 -0.005018 0.000000 0.000000 0.000000
# 2 -0.006111 0.028538 -0.001647 0.000000 0.000000 0.000000
# 3 -0.005018 -0.001647 0.017122 0.000000 0.000000 0.000000
# 4 0.000000 0.000000 0.000000 0.480821 0.000000 0.000000
# 5 0.000000 0.000000 0.000000 0.000000 -0.486281 0.000000
# 6 0.000000 0.000000 0.000000 0.000000 0.000000 -0.127271
#
#
# Mechanical properties :
#
#
# Convention : Reuss Voigt Hill
#
# Bulk Modulus (GPa) = 33.47409 50.54767 42.01088
# Shear Modulus (GPa) = -119.63177 9.71968 -54.95604
#
# Velocity S-wave (km/s) = -8.08056 2.30327 -5.47679
# Velocity P-wave (km/s) = 8.29400 5.88749 4.13085
#
# Compressibility (1/GPa) = 0.02987385
#
# Stress axis : x y z
#
# Youngs Moduli (GPa) = 102.39367 35.04106 58.40527
#
# Poissons Ratio (x) = 0.21415 0.29306
# Poissons Ratio (y) = 0.62577 0.09620
# Poissons Ratio (z) = 0.51377 0.05771
#
# Static dielectric constant tensor:
#      x y z
#    x 1.633640 0.000000 0.000000 
#    y 0.000000 1.646560 0.000000 
#    z 0.000000 0.000000 1.648820 
# 
# From -- ./inp_files/41150.got.cif
#   From: 2010.05.17/outbox.cif.g08.bks.cpg/sg71_21_cif.got.tgz:41150.got - 2010.06.03 16:22:01.
