data_PCOD9524180
_publ_section_title
;
Structure prediction by ZEFSAII (Michael W. Deem and Ramdas Pophale) SiO2 
 PCOD9524180
Probable space group: I M M M
;
_chemical_formula_sum "Si O2"
_cell_formula_units_Z 96
_cell_length_a 11.918906
_cell_length_b 15.040016
_cell_length_c 28.487617
_cell_angle_alpha 90.000000
_cell_angle_beta 90.000000
_cell_angle_gamma 90.000000
_cell_volume 5106.705520
_symmetry_space_group_name_H-M "I M M M"
_symmetry_group_IT_number 71
_symmetry_cell_setting 'orthorhombic'
loop_
_space_group_symop_operation_xyz
x,y,z
-x,-y,z
x,-y,-z
-x,y,-z
-x,-y,-z
x,y,-z
-x,y,z
x,-y,z
1/2+x,1/2+y,1/2+z
1/2-x,1/2-y,1/2+z
1/2+x,1/2-y,1/2-z
1/2-x,1/2+y,1/2-z
1/2-x,1/2-y,1/2-z
1/2+x,1/2+y,1/2-z
1/2-x,1/2+y,1/2+z
1/2+x,1/2-y,1/2+z
loop_
_atom_site_type_symbol
_atom_site_label
_atom_site_fract_x
_atom_site_fract_y
_atom_site_fract_z
Si Si1 0.774889 0.603166 0.613085
Si Si2 0.870599 0.607799 0.184312
Si Si3 0.000000 0.144838 0.554997
Si Si4 0.256256 0.602629 0.909536
Si Si5 0.500000 0.140672 0.945099
Si Si6 0.370020 0.108182 0.788878
Si Si7 0.868682 0.765942 0.052625
O O1 0.740320 0.500000 0.614439
O O2 0.889774 0.609409 0.582798
O O3 0.800132 0.635983 0.665918
O O4 0.685068 0.665508 0.588570
O O5 0.874337 0.500000 0.186079
O O6 0.785634 0.629550 0.142598
O O7 0.836189 0.637879 0.236606
O O8 0.000000 0.636805 0.174906
O O9 0.111942 0.112217 0.580815
O O10 0.000000 0.252003 0.555610
O O11 0.000000 0.116890 0.500000
O O12 0.223519 0.500000 0.917311
O O13 0.193677 0.671970 0.942816
O O14 0.500000 0.113116 0.000000
O O15 0.500000 0.134113 0.795644
O O16 0.367687 0.000000 0.789318
O O17 0.000000 0.753445 0.060725
O O18 0.851088 0.801008 0.000000
#
# Coordination Sequence:
#
# PCOD9524180 Si02
#       7
#    16  16   8  16   8  16  16
#     4  11  21  36  61  88 116 151 193 239 286 343
#     4   8  15  30  55  85 115 148 188 234 283 335
#     4  11  23  39  59  84 121 159 186 231 297 349
#     4  11  22  38  62  87 114 150 192 236 284 344
#     4  11  21  35  57  86 119 153 190 237 289 339
#     4   8  14  28  53  86 117 146 184 232 287 342
#     4  11  25  42  58  80 115 154 193 241 290 339
#
# _framework density 18.798812000000002
#
# number of rings (size 3 to 8) (size 9 to 14) (size 15 to 20)
#    0.000    2.000    2.500    3.000    0.000    4.667 
#    0.000    2.500    1.833    0.000    0.000    0.000 
#    0.000    0.000    0.000    0.000    0.000    0.000 
#
# Total GULP energy -267868.898311 kJ/mol
# GULP energy per Si atom -5580.602048 kJ/mol
# Density = 1.875603 g / cm^3
# Si number density = 18.798812 Si / 1000 Ang^3
#
#
#
# Elastic Constant Matrix: (Units=GPa)
#
#
# Indices 1 2 3 4 5 6 
#
# 1 97.7477 17.1788 75.8229 0.0000 0.0000 0.0000
# 2 17.1788 59.1796 18.9498 0.0000 0.0000 0.0000
# 3 75.8229 18.9498 144.8096 0.0000 0.0000 0.0000
# 4 0.0000 0.0000 0.0000 44.8816 0.0000 0.0000
# 5 0.0000 0.0000 0.0000 0.0000 35.2079 0.0000
# 6 0.0000 0.0000 0.0000 0.0000 0.0000 4.8846
#
#
#
# Elastic Compliance Matrix: (Units=1/GPa)
#
#
# Indices 1 2 3 4 5 6 
#
# 1 0.017508 -0.002241 -0.008874 0.000000 0.000000 0.000000
# 2 -0.002241 0.017924 -0.001172 0.000000 0.000000 0.000000
# 3 -0.008874 -0.001172 0.011705 0.000000 0.000000 0.000000
# 4 0.000000 0.000000 0.000000 0.022281 0.000000 0.000000
# 5 0.000000 0.000000 0.000000 0.000000 0.028403 0.000000
# 6 0.000000 0.000000 0.000000 0.000000 0.000000 0.204726
#
#
# Mechanical properties :
#
#
# Convention : Reuss Voigt Hill
#
# Bulk Modulus (GPa) = 44.32036 58.40444 51.36240
# Shear Modulus (GPa) = 14.94141 29.64718 22.29429
#
# Velocity S-wave (km/s) = 2.82229 3.97555 3.44749
# Velocity P-wave (km/s) = 5.85216 7.22558 6.57483
#
# Compressibility (1/GPa) = 0.02256299
#
# Stress axis : x y z
#
# Youngs Moduli (GPa) = 57.11785 55.79265 85.43063
#
# Poissons Ratio (x) = 0.12501 0.75810
# Poissons Ratio (y) = 0.12798 0.10015
# Poissons Ratio (z) = 0.50686 0.06540
#
# Static dielectric constant tensor:
#      x y z
#    x 1.621680 0.000000 0.000000 
#    y 0.000000 1.653330 0.000000 
#    z 0.000000 0.000000 1.680700 
# 
# From -- ./inp_files/69262.got.cif
#   From: 2010.05.17/outbox.cif.g08.bks.cpg/sg71_35_cif.got.tgz:69262.got - 2010.06.03 16:22:01.
