data_PCOD9524139
_publ_section_title
;
Structure prediction by ZEFSAII (Michael W. Deem and Ramdas Pophale) SiO2 
 PCOD9524139
Probable space group: I M M M
;
_chemical_formula_sum "Si O2"
_cell_formula_units_Z 72
_cell_length_a 15.284570
_cell_length_b 7.906553
_cell_length_c 29.775796
_cell_angle_alpha 90.000000
_cell_angle_beta 90.000000
_cell_angle_gamma 90.000000
_cell_volume 3598.353220
_symmetry_space_group_name_H-M "I M M M"
_symmetry_group_IT_number 71
_symmetry_cell_setting 'orthorhombic'
loop_
_space_group_symop_operation_xyz
x,y,z
-x,-y,z
x,-y,-z
-x,y,-z
-x,-y,-z
x,y,-z
-x,y,z
x,-y,z
1/2+x,1/2+y,1/2+z
1/2-x,1/2-y,1/2+z
1/2+x,1/2-y,1/2-z
1/2-x,1/2+y,1/2-z
1/2-x,1/2-y,1/2-z
1/2+x,1/2+y,1/2-z
1/2-x,1/2+y,1/2+z
1/2+x,1/2-y,1/2+z
loop_
_atom_site_type_symbol
_atom_site_label
_atom_site_fract_x
_atom_site_fract_y
_atom_site_fract_z
Si Si1 0.500000 0.293245 0.703259
Si Si2 0.367110 0.299653 0.629030
Si Si3 0.000000 0.207033 0.947590
Si Si4 0.670033 0.689830 0.140646
Si Si5 0.000000 0.791773 0.693531
Si Si6 0.105062 0.696102 0.450685
O O1 0.500000 0.500000 0.705211
O O2 0.418199 0.236326 0.673088
O O3 0.500000 0.238859 0.754672
O O4 0.381438 0.500000 0.627600
O O5 0.415758 0.238712 0.583153
O O6 0.265144 0.270731 0.636864
O O7 0.000000 0.000000 0.949599
O O8 0.000000 0.263838 0.000000
O O9 0.682774 0.500000 0.157787
O O10 0.589355 0.766804 0.169043
O O11 0.636738 0.691834 0.089649
O O12 0.000000 0.000000 0.690267
O O13 0.136538 0.747585 0.500000
O O14 0.131801 0.500000 0.443060
O O15 0.000000 0.698380 0.451235
#
# Coordination Sequence:
#
# PCOD9524139 Si02
#       6
#     8  16   8  16   8  16
#     4   8  16  35  57  73  96 133 179 224 266 311
#     4   9  18  33  55  79 100 130 174 220 262 307
#     4   8  15  31  55  79 101 128 165 210 259 307
#     4  11  21  33  50  76 109 142 172 207 260 320
#     4   9  19  34  51  72 102 141 177 212 259 316
#     4   9  18  33  52  72  97 132 173 214 250 288
#
# _framework density 20.009152
#
# number of rings (size 3 to 8) (size 9 to 14) (size 15 to 20)
#    0.000    2.778    1.111    2.667    0.000    2.222 
#    0.000    5.556    0.000    4.667    0.000    0.000 
#    0.000    0.000    0.000    0.000    0.000    0.000 
#
# Total GULP energy -200454.489089 kJ/mol
# GULP energy per Si atom -5568.180252 kJ/mol
# Density = 1.996361 g / cm^3
# Si number density = 20.009152 Si / 1000 Ang^3
#
#
#
# Elastic Constant Matrix: (Units=GPa)
#
#
# Indices 1 2 3 4 5 6 
#
# 1 139.9551 8.0853 91.5874 0.0000 0.0000 0.0000
# 2 8.0853 10.4290 12.3331 0.0000 0.0000 0.0000
# 3 91.5874 12.3331 175.0568 0.0000 0.0000 0.0000
# 4 0.0000 0.0000 0.0000 2.9868 0.0000 0.0000
# 5 0.0000 0.0000 0.0000 0.0000 -1.7809 0.0000
# 6 0.0000 0.0000 0.0000 0.0000 0.0000 -82.3628
#
#
#
# Elastic Compliance Matrix: (Units=1/GPa)
#
#
# Indices 1 2 3 4 5 6 
#
# 1 0.010898 -0.001861 -0.005571 0.000000 0.000000 0.000000
# 2 -0.001861 0.104919 -0.006418 0.000000 0.000000 0.000000
# 3 -0.005571 -0.006418 0.009079 0.000000 0.000000 0.000000
# 4 0.000000 0.000000 0.000000 0.334807 0.000000 0.000000
# 5 0.000000 0.000000 0.000000 0.000000 -0.561505 0.000000
# 6 0.000000 0.000000 0.000000 0.000000 0.000000 -0.012141
#
#
# Mechanical properties :
#
#
# Convention : Reuss Voigt Hill
#
# Bulk Modulus (GPa) = 10.28845 61.05027 35.66936
# Shear Modulus (GPa) = -92.85863 -2.00238 -47.43051
#
# Velocity S-wave (km/s) = -6.81974 -1.00145 -4.87400
# Velocity P-wave (km/s) = 7.54047 5.40742 3.71608
#
# Compressibility (1/GPa) = 0.09719641
#
# Stress axis : x y z
#
# Youngs Moduli (GPa) = 91.75886 9.53117 110.14352
#
# Poissons Ratio (x) = 0.01774 0.61357
# Poissons Ratio (y) = 0.17079 0.70689
# Poissons Ratio (z) = 0.51115 0.06117
#
# Static dielectric constant tensor:
#      x y z
#    x 1.807440 0.000000 0.000000 
#    y 0.000000 1.781880 0.000000 
#    z 0.000000 0.000000 1.696960 
# 
# From -- ./inp_files/16442.got.cif
#   From: 2010.05.17/outbox.cif.g08.bks.cpg/sg71_9_cif.got.tgz:16442.got - 2010.06.03 16:22:01.
