data_PCOD9524877
_publ_section_title
;
Structure prediction by ZEFSAII (Michael W. Deem and Ramdas Pophale) SiO2 
 PCOD9524877
Probable space group: I M M M
;
_chemical_formula_sum "Si O2"
_cell_formula_units_Z 48
_cell_length_a 15.000000
_cell_length_b 15.000000
_cell_length_c 21.000000
_cell_angle_alpha 90.000000
_cell_angle_beta 90.000000
_cell_angle_gamma 90.000000
_cell_volume 4725.000000
_symmetry_space_group_name_H-M "I M M M"
_symmetry_group_IT_number 71
_symmetry_cell_setting 'orthorhombic'
loop_
_space_group_symop_operation_xyz
x,y,z
-x,-y,z
x,-y,-z
-x,y,-z
-x,-y,-z
x,y,-z
-x,y,z
x,-y,z
1/2+x,1/2+y,1/2+z
1/2-x,1/2-y,1/2+z
1/2+x,1/2-y,1/2-z
1/2-x,1/2+y,1/2-z
1/2-x,1/2-y,1/2-z
1/2+x,1/2+y,1/2-z
1/2-x,1/2+y,1/2+z
1/2+x,1/2-y,1/2+z
loop_
_atom_site_type_symbol
_atom_site_label
_atom_site_fract_x
_atom_site_fract_y
_atom_site_fract_z
Si Si1 0.391422 0.904143 0.074659
Si Si2 0.605932 0.402401 0.401289
Si Si3 0.100643 0.104745 0.749402
Si Si4 0.742561 0.394138 0.851683
Si Si5 0.102562 0.789769 0.576057
Si Si6 0.607483 0.795487 0.572143
O O1 0.500000 0.902611 0.075972
O O2 0.364958 0.807581 0.101593
O O3 0.363164 0.000000 0.103325
O O4 0.365853 0.905949 0.000000
O O5 0.500000 0.405945 0.415681
O O6 0.643044 0.500000 0.420451
O O7 0.614737 0.392870 0.325085
O O8 0.637227 0.308591 0.428826
O O9 0.187527 0.138506 0.711287
O O10 0.000000 0.142639 0.737321
O O11 0.095310 0.000000 0.731614
O O12 0.758685 0.500000 0.847495
O O13 0.668339 0.367594 0.903961
O O14 0.832819 0.345739 0.875298
O O15 0.101707 0.782053 0.500000
O O16 0.000000 0.805395 0.595989
O O17 0.621341 0.831202 0.500000
O O18 0.500000 0.798746 0.585203
#
# Coordination Sequence:
#
# PCOD9524877 Si02
#       6
#    16  16  16  16  16  16
#     4   7  10  19  36  56  80 113 151 191 237 290
#     4   8  15  32  59  86 109 131 158 205 273 338
#     4   8  15  30  54  84 112 135 164 205 259 326
#     4  11  22  34  49  70 101 142 182 219 259 300
#     4   9  17  28  43  66  95 127 167 213 259 311
#     4  10  22  38  54  75 103 137 182 228 265 309
#
# _framework density 10.15873
#
# number of rings (size 3 to 8) (size 9 to 14) (size 15 to 20)
#    0.000    3.167    0.000    3.500    0.000    3.667 
#    0.000    4.167    0.000    2.000    0.000    1.167 
#    0.000    4.000    0.000    0.000    0.000    0.000 
#
# Total GULP energy -267202.698240 kJ/mol
# GULP energy per Si atom -5566.722880 kJ/mol
# Density = 1.013561 g / cm^3
# Si number density = 10.158730 Si / 1000 Ang^3
#
#
#
# Elastic Constant Matrix: (Units=GPa)
#
#
# Indices 1 2 3 4 5 6 
#
# 1 81.3605 17.3746 18.1086 0.0000 0.0000 0.0000
# 2 17.3746 65.6041 11.2942 0.0000 0.0000 0.0000
# 3 18.1086 11.2942 55.6236 0.0000 0.0000 0.0000
# 4 0.0000 0.0000 0.0000 21.3999 0.0000 0.0000
# 5 0.0000 0.0000 0.0000 0.0000 -45.5948 0.0000
# 6 0.0000 0.0000 0.0000 0.0000 0.0000 12.1974
#
#
#
# Elastic Compliance Matrix: (Units=1/GPa)
#
#
# Indices 1 2 3 4 5 6 
#
# 1 0.013793 -0.002984 -0.003884 0.000000 0.000000 0.000000
# 2 -0.002984 0.016441 -0.002367 0.000000 0.000000 0.000000
# 3 -0.003884 -0.002367 0.019723 0.000000 0.000000 0.000000
# 4 0.000000 0.000000 0.000000 0.046729 0.000000 0.000000
# 5 0.000000 0.000000 0.000000 0.000000 -0.021932 0.000000
# 6 0.000000 0.000000 0.000000 0.000000 0.000000 0.081985
#
#
# Mechanical properties :
#
#
# Convention : Reuss Voigt Hill
#
# Bulk Modulus (GPa) = 31.76007 32.90477 32.33242
# Shear Modulus (GPa) = 26.92448 7.98786 17.45617
#
# Velocity S-wave (km/s) = 3.64426 1.98496 2.93434
# Velocity P-wave (km/s) = 5.77697 4.63507 5.23724
#
# Compressibility (1/GPa) = 0.03148608
#
# Stress axis : x y z
#
# Youngs Moduli (GPa) = 72.50152 60.82452 50.70185
#
# Poissons Ratio (x) = 0.18151 0.19695
# Poissons Ratio (y) = 0.21636 0.12000
# Poissons Ratio (z) = 0.28163 0.14396
#
# Static dielectric constant tensor:
#      x y z
#    x 1.745240 0.000000 0.000000 
#    y 0.000000 1.777980 0.000000 
#    z 0.000000 0.000000 1.749110 
# 
# From -- ./inp_files/52981.got.cif
#   From: 2010.05.17/outbox.ucp.g08.bks.cvg/sg71_27_cif.got.tgz:52981.got - 2010.06.11 16:29:00.
