data_PCOD9524890
_publ_section_title
;
Structure prediction by ZEFSAII (Michael W. Deem and Ramdas Pophale) SiO2 
 PCOD9524890
Probable space group: I M M M
;
_chemical_formula_sum "Si O2"
_cell_formula_units_Z 52
_cell_length_a 21.000000
_cell_length_b 9.000000
_cell_length_c 30.000000
_cell_angle_alpha 90.000000
_cell_angle_beta 90.000000
_cell_angle_gamma 90.000000
_cell_volume 5670.000000
_symmetry_space_group_name_H-M "I M M M"
_symmetry_group_IT_number 71
_symmetry_cell_setting 'orthorhombic'
loop_
_space_group_symop_operation_xyz
x,y,z
-x,-y,z
x,-y,-z
-x,y,-z
-x,-y,-z
x,y,-z
-x,y,z
x,-y,z
1/2+x,1/2+y,1/2+z
1/2-x,1/2-y,1/2+z
1/2+x,1/2-y,1/2-z
1/2-x,1/2+y,1/2-z
1/2-x,1/2-y,1/2-z
1/2+x,1/2+y,1/2-z
1/2-x,1/2+y,1/2+z
1/2+x,1/2-y,1/2+z
loop_
_atom_site_type_symbol
_atom_site_label
_atom_site_fract_x
_atom_site_fract_y
_atom_site_fract_z
Si Si1 0.721142 0.678097 0.866752
Si Si2 0.141391 0.826055 0.130175
Si Si3 0.500000 0.169595 0.945945
Si Si4 0.810029 0.677660 0.724232
Si Si5 0.632351 0.678645 0.948534
Si Si6 0.072627 0.323566 0.210927
Si Si7 0.076113 0.669373 0.947765
O O1 0.720675 0.500000 0.862336
O O2 0.792845 0.737623 0.865172
O O3 0.686568 0.752178 0.824686
O O4 0.686897 0.718618 0.913249
O O5 0.092783 0.767088 0.167413
O O6 0.111752 0.786062 0.082567
O O7 0.152824 0.000000 0.135631
O O8 0.434890 0.252024 0.933554
O O9 0.500000 0.000000 0.930065
O O10 0.500000 0.168420 0.000000
O O11 0.800601 0.500000 0.721800
O O12 0.750000 0.750000 0.750000
O O13 0.874534 0.707254 0.751635
O O14 0.626311 0.500000 0.948545
O O15 0.645494 0.724497 0.000000
O O16 0.076313 0.500000 0.200645
O O17 0.000000 0.290560 0.224254
O O18 0.093953 0.500000 0.934462
O O19 0.000000 0.682339 0.942367
O O20 0.090393 0.686093 0.000000
#
# Coordination Sequence:
#
# PCOD9524890 Si02
#       7
#    16  16   8  16  16  16  16
#     4  11  23  39  60  85 116 154 198 243 289 345
#     4  12  24  36  56  86 118 152 192 241 296 349
#     4   9  17  31  55  85 115 149 187 233 291 347
#     4  11  22  39  64  89 119 156 195 239 294 355
#     4   9  19  37  60  84 113 152 197 241 285 342
#     4  10  22  41  64  87 114 152 197 240 287 352
#     4   9  19  37  59  81 110 152 197 238 284 342
#
# _framework density 9.1710759999999993
#
# number of rings (size 3 to 8) (size 9 to 14) (size 15 to 20)
#    0.000    1.769    1.538    3.462    0.000    6.154 
#    1.385    2.308    0.000    0.000    0.000    0.000 
#    0.000    0.000    0.000    0.000    0.000    0.000 
#
# Total GULP energy -290393.986559 kJ/mol
# GULP energy per Si atom -5584.499742 kJ/mol
# Density = 0.915020 g / cm^3
# Si number density = 9.171076 Si / 1000 Ang^3
#
#
#
# Elastic Constant Matrix: (Units=GPa)
#
#
# Indices 1 2 3 4 5 6 
#
# 1 104.2815 46.8430 45.7998 0.0000 0.0000 0.0000
# 2 46.8430 55.3700 42.0446 0.0000 0.0000 0.0000
# 3 45.7998 42.0446 80.0180 0.0000 0.0000 0.0000
# 4 0.0000 0.0000 0.0000 31.3493 0.0000 0.0000
# 5 0.0000 0.0000 0.0000 0.0000 32.6840 0.0000
# 6 0.0000 0.0000 0.0000 0.0000 0.0000 13.4723
#
#
#
# Elastic Compliance Matrix: (Units=1/GPa)
#
#
# Indices 1 2 3 4 5 6 
#
# 1 0.016006 -0.010956 -0.003405 0.000000 0.000000 0.000000
# 2 -0.010956 0.037549 -0.013459 0.000000 0.000000 0.000000
# 3 -0.003405 -0.013459 0.021518 0.000000 0.000000 0.000000
# 4 0.000000 0.000000 0.000000 0.031899 0.000000 0.000000
# 5 0.000000 0.000000 0.000000 0.000000 0.030596 0.000000
# 6 0.000000 0.000000 0.000000 0.000000 0.000000 0.074226
#
#
# Mechanical properties :
#
#
# Convention : Reuss Voigt Hill
#
# Bulk Modulus (GPa) = 51.45669 56.56046 54.00857
# Shear Modulus (GPa) = 18.25416 22.49992 20.37704
#
# Velocity S-wave (km/s) = 3.15811 3.50620 3.33669
# Velocity P-wave (km/s) = 6.43528 6.87710 6.65986
#
# Compressibility (1/GPa) = 0.01943382
#
# Stress axis : x y z
#
# Youngs Moduli (GPa) = 62.47628 26.63210 46.47320
#
# Poissons Ratio (x) = 0.29177 0.15823
# Poissons Ratio (y) = 0.68447 0.62547
# Poissons Ratio (z) = 0.21272 0.35844
#
# Static dielectric constant tensor:
#      x y z
#    x 1.616190 0.000000 0.000000 
#    y 0.000000 1.618700 0.000000 
#    z 0.000000 0.000000 1.629590 
# 
# From -- ./inp_files/70724.got.cif
#   From: 2010.05.17/outbox.ucp.g08.bks.cvg/sg71_36_cif.got.tgz:70724.got - 2010.06.11 16:29:00.
