data_PCOD9524161
_publ_section_title
;
Structure prediction by ZEFSAII (Michael W. Deem and Ramdas Pophale) SiO2 
 PCOD9524161
Probable space group: I M M M
;
_chemical_formula_sum "Si O2"
_cell_formula_units_Z 80
_cell_length_a 8.407677
_cell_length_b 24.129298
_cell_length_c 20.077830
_cell_angle_alpha 90.000000
_cell_angle_beta 90.000000
_cell_angle_gamma 90.000000
_cell_volume 4073.216353
_symmetry_space_group_name_H-M "I M M M"
_symmetry_group_IT_number 71
_symmetry_cell_setting 'orthorhombic'
loop_
_space_group_symop_operation_xyz
x,y,z
-x,-y,z
x,-y,-z
-x,y,-z
-x,-y,-z
x,y,-z
-x,y,z
x,-y,z
1/2+x,1/2+y,1/2+z
1/2-x,1/2-y,1/2+z
1/2+x,1/2-y,1/2-z
1/2-x,1/2+y,1/2-z
1/2-x,1/2-y,1/2-z
1/2+x,1/2+y,1/2-z
1/2-x,1/2+y,1/2+z
1/2+x,1/2-y,1/2+z
loop_
_atom_site_type_symbol
_atom_site_label
_atom_site_fract_x
_atom_site_fract_y
_atom_site_fract_z
Si Si1 0.687905 0.255461 0.325164
Si Si2 0.818602 0.066106 0.073811
Si Si3 0.805679 0.657583 0.076792
Si Si4 0.194140 0.564248 0.179041
Si Si5 0.318026 0.127764 0.811595
O O1 0.500000 0.248291 0.323747
O O2 0.750000 0.250000 0.250000
O O3 0.749293 0.209292 0.377125
O O4 0.730770 0.318579 0.340526
O O5 0.697923 0.083516 0.130228
O O6 0.000000 0.083938 0.090404
O O7 0.821480 0.000000 0.070580
O O8 0.779177 0.087554 0.000000
O O9 0.760849 0.600602 0.114555
O O10 0.000000 0.659017 0.075793
O O11 0.752453 0.660633 0.000000
O O12 0.247705 0.500000 0.179382
O O13 0.246613 0.599521 0.244022
O O14 0.000000 0.562794 0.181653
O O15 0.500000 0.143556 0.797880
#
# Coordination Sequence:
#
# PCOD9524161 Si02
#       5
#    16  16  16  16  16
#     4  11  21  36  57  81 109 146 186 229 280 333
#     4   9  19  36  55  77 110 151 192 233 279 333
#     4   9  18  33  53  79 110 142 179 225 277 332
#     4   9  17  30  50  79 112 142 176 222 274 329
#     4  11  21  34  54  83 114 146 186 231 280 336
#
# _framework density 19.640498000000001
#
# number of rings (size 3 to 8) (size 9 to 14) (size 15 to 20)
#    0.000    2.200    2.000    2.400    0.000    2.800 
#    0.000    5.000    0.000    1.800    0.000    0.000 
#    0.000    1.600    0.000    0.000    0.000    0.000 
#
# Total GULP energy -222938.554878 kJ/mol
# GULP energy per Si atom -5573.463872 kJ/mol
# Density = 1.959580 g / cm^3
# Si number density = 19.640498 Si / 1000 Ang^3
#
#
#
# Elastic Constant Matrix: (Units=GPa)
#
#
# Indices 1 2 3 4 5 6 
#
# 1 10.7982 10.1493 15.0951 0.0000 0.0000 0.0000
# 2 10.1493 122.9058 61.4128 0.0000 0.0000 0.0000
# 3 15.0951 61.4128 126.8606 0.0000 0.0000 0.0000
# 4 0.0000 0.0000 0.0000 31.8822 0.0000 0.0000
# 5 0.0000 0.0000 0.0000 0.0000 21.6441 0.0000
# 6 0.0000 0.0000 0.0000 0.0000 0.0000 23.9054
#
#
#
# Elastic Compliance Matrix: (Units=1/GPa)
#
#
# Indices 1 2 3 4 5 6 
#
# 1 0.112166 -0.003421 -0.011690 0.000000 0.000000 0.000000
# 2 -0.003421 0.010837 -0.004839 0.000000 0.000000 0.000000
# 3 -0.011690 -0.004839 0.011616 0.000000 0.000000 0.000000
# 4 0.000000 0.000000 0.000000 0.031365 0.000000 0.000000
# 5 0.000000 0.000000 0.000000 0.000000 0.046202 0.000000
# 6 0.000000 0.000000 0.000000 0.000000 0.000000 0.041832
#
#
# Mechanical properties :
#
#
# Convention : Reuss Voigt Hill
#
# Bulk Modulus (GPa) = 10.55766 48.20876 29.38321
# Shear Modulus (GPa) = 15.36140 27.08017 21.22079
#
# Velocity S-wave (km/s) = 2.79969 3.71724 3.29060
# Velocity P-wave (km/s) = 3.97972 6.55917 5.42498
#
# Compressibility (1/GPa) = 0.09471793
#
# Stress axis : x y z
#
# Youngs Moduli (GPa) = 8.91537 92.27897 86.08649
#
# Poissons Ratio (x) = 0.31569 1.00639
# Poissons Ratio (y) = 0.03050 0.41657
# Poissons Ratio (z) = 0.10422 0.44653
#
# Static dielectric constant tensor:
#      x y z
#    x 1.730190 0.000000 0.000000 
#    y 0.000000 1.819140 0.000000 
#    z 0.000000 0.000000 1.703940 
# 
# From -- ./inp_files/8311.got.cif
#   From: 2010.05.17/outbox.cif.g08.bks.cpg/sg71_5_cif.got.tgz:8311.got - 2010.06.03 16:22:01.
