data_PCOD9524155
_publ_section_title
;
Structure prediction by ZEFSAII (Michael W. Deem and Ramdas Pophale) SiO2 
 PCOD9524155
Probable space group: I M M M
;
_chemical_formula_sum "Si O2"
_cell_formula_units_Z 96
_cell_length_a 26.263684
_cell_length_b 7.945732
_cell_length_c 24.468582
_cell_angle_alpha 90.000000
_cell_angle_beta 90.000000
_cell_angle_gamma 90.000000
_cell_volume 5106.206323
_symmetry_space_group_name_H-M "I M M M"
_symmetry_group_IT_number 71
_symmetry_cell_setting 'orthorhombic'
loop_
_space_group_symop_operation_xyz
x,y,z
-x,-y,z
x,-y,-z
-x,y,-z
-x,-y,-z
x,y,-z
-x,y,z
x,-y,z
1/2+x,1/2+y,1/2+z
1/2-x,1/2-y,1/2+z
1/2+x,1/2-y,1/2-z
1/2-x,1/2+y,1/2-z
1/2-x,1/2-y,1/2-z
1/2+x,1/2+y,1/2-z
1/2-x,1/2+y,1/2+z
1/2+x,1/2-y,1/2+z
loop_
_atom_site_type_symbol
_atom_site_label
_atom_site_fract_x
_atom_site_fract_y
_atom_site_fract_z
Si Si1 0.442081 0.202615 0.561641
Si Si2 0.847385 0.199795 0.866673
Si Si3 0.653083 0.206187 0.132296
Si Si4 0.309353 0.800176 0.751210
Si Si5 0.748205 0.294093 0.437308
Si Si6 0.057749 0.705420 0.437361
O O1 0.427842 0.261118 0.500000
O O2 0.500000 0.260603 0.572817
O O3 0.400839 0.252519 0.606311
O O4 0.443269 0.000000 0.560130
O O5 0.837496 0.252057 0.804514
O O6 0.801199 0.266907 0.904324
O O7 0.843534 0.000000 0.868086
O O8 0.663958 0.266341 0.193737
O O9 0.700761 0.255539 0.094470
O O10 0.600643 0.263106 0.104671
O O11 0.652050 0.000000 0.132871
O O12 0.250000 0.750000 0.750000
O O13 0.310168 0.000000 0.755208
O O14 0.747837 0.238476 0.500000
O O15 0.747400 0.500000 0.437613
O O16 0.069688 0.754855 0.500000
O O17 0.057952 0.500000 0.436763
O O18 0.000000 0.758996 0.424659
#
# Coordination Sequence:
#
# PCOD9524155 Si02
#       6
#    16  16  16  16  16  16
#     4   9  19  37  59  82 110 143 176 215 270 329
#     4  11  21  34  52  78 107 139 181 222 263 317
#     4   9  16  27  43  65  95 130 170 209 254 308
#     4  11  21  35  52  72 100 140 182 221 268 320
#     4   9  16  26  43  69  98 126 161 210 264 315
#     4   8  13  22  39  65  96 127 156 192 245 304
#
# _framework density 18.800649
#
# number of rings (size 3 to 8) (size 9 to 14) (size 15 to 20)
#    0.000    2.500    1.667    3.000    0.000    3.333 
#    0.000    1.667    0.000    3.000    0.000    0.000 
#    0.000    0.000    0.000    7.333    0.000    6.667 
#
# Total GULP energy -267812.182749 kJ/mol
# GULP energy per Si atom -5579.420474 kJ/mol
# Density = 1.875786 g / cm^3
# Si number density = 18.800649 Si / 1000 Ang^3
#
#
#
# Elastic Constant Matrix: (Units=GPa)
#
#
# Indices 1 2 3 4 5 6 
#
# 1 159.7838 10.8347 127.0883 0.0000 0.0000 0.0000
# 2 10.8347 19.8341 12.7696 0.0000 0.0000 0.0000
# 3 127.0883 12.7696 207.0076 0.0000 0.0000 0.0000
# 4 0.0000 0.0000 0.0000 14.4767 0.0000 0.0000
# 5 0.0000 0.0000 0.0000 0.0000 19.7633 0.0000
# 6 0.0000 0.0000 0.0000 0.0000 0.0000 16.9400
#
#
#
# Elastic Compliance Matrix: (Units=1/GPa)
#
#
# Indices 1 2 3 4 5 6 
#
# 1 0.012302 -0.001934 -0.007433 0.000000 0.000000 0.000000
# 2 -0.001934 0.052808 -0.002070 0.000000 0.000000 0.000000
# 3 -0.007433 -0.002070 0.009522 0.000000 0.000000 0.000000
# 4 0.000000 0.000000 0.000000 0.069077 0.000000 0.000000
# 5 0.000000 0.000000 0.000000 0.000000 0.050599 0.000000
# 6 0.000000 0.000000 0.000000 0.000000 0.000000 0.059032
#
#
# Mechanical properties :
#
#
# Convention : Reuss Voigt Hill
#
# Bulk Modulus (GPa) = 19.32130 76.44561 47.88345
# Shear Modulus (GPa) = 17.03776 25.96484 21.50130
#
# Velocity S-wave (km/s) = 3.01364 3.72029 3.38545
# Velocity P-wave (km/s) = 4.73377 7.69438 6.38796
#
# Compressibility (1/GPa) = 0.05175635
#
# Stress axis : x y z
#
# Youngs Moduli (GPa) = 81.28940 18.93665 105.02193
#
# Poissons Ratio (x) = 0.03663 0.78064
# Poissons Ratio (y) = 0.15725 0.21739
# Poissons Ratio (z) = 0.60423 0.03920
#
# Static dielectric constant tensor:
#      x y z
#    x 1.632010 0.000000 0.000000 
#    y 0.000000 1.701600 0.000000 
#    z 0.000000 0.000000 1.633040 
# 
# From -- ./inp_files/10876.got.cif
#   From: 2010.05.17/outbox.cif.g08.bks.cpg/sg71_6_cif.got.tgz:10876.got - 2010.06.03 16:22:01.
