data_PCOD9524372
_publ_section_title
;
Structure prediction by ZEFSAII (Michael W. Deem and Ramdas Pophale) SiO2 
 PCOD9524372
Probable space group: I M M M
;
_chemical_formula_sum "Si O2"
_cell_formula_units_Z 72
_cell_length_a 30.122350
_cell_length_b 8.473000
_cell_length_c 15.198225
_cell_angle_alpha 90.000000
_cell_angle_beta 90.000000
_cell_angle_gamma 90.000000
_cell_volume 3878.992380
_symmetry_space_group_name_H-M "I M M M"
_symmetry_group_IT_number 71
_symmetry_cell_setting 'orthorhombic'
loop_
_space_group_symop_operation_xyz
x,y,z
-x,-y,z
x,-y,-z
-x,y,-z
-x,-y,-z
x,y,-z
-x,y,z
x,-y,z
1/2+x,1/2+y,1/2+z
1/2-x,1/2-y,1/2+z
1/2+x,1/2-y,1/2-z
1/2-x,1/2+y,1/2-z
1/2-x,1/2-y,1/2-z
1/2+x,1/2+y,1/2-z
1/2-x,1/2+y,1/2+z
1/2+x,1/2-y,1/2+z
loop_
_atom_site_type_symbol
_atom_site_label
_atom_site_fract_x
_atom_site_fract_y
_atom_site_fract_z
Si Si1 0.052734 0.679780 0.202438
Si Si2 0.634427 0.182984 0.182512
Si Si3 0.946170 0.000000 0.901274
Si Si4 0.791222 0.813158 0.808636
Si Si5 0.332193 0.311831 0.000000
Si Si6 0.729639 0.189212 0.500000
O O1 0.060934 0.500000 0.165734
O O2 0.083343 0.692572 0.288244
O O3 0.065410 0.833105 0.144440
O O4 0.000000 0.689529 0.219218
O O5 0.664627 0.266647 0.255773
O O6 0.644146 0.254112 0.087849
O O7 0.647698 0.000000 0.181481
O O8 0.000000 0.000000 0.904279
O O9 0.928374 0.000000 0.000000
O O10 0.750000 0.750000 0.750000
O O11 0.790781 0.746453 0.907782
O O12 0.787214 0.000000 0.813495
O O13 0.281076 0.255560 0.000000
O O14 0.331050 0.500000 0.000000
O O15 0.728772 0.000000 0.500000
#
# Coordination Sequence:
#
# PCOD9524372 Si02
#       6
#    16  16   8  16   8   8
#     4   9  20  39  62  88 122 163 205 252 306 362
#     4  11  23  40  63  89 120 159 201 249 304 361
#     4   9  18  34  60  89 117 155 201 250 304 361
#     4  12  24  39  61  87 119 156 197 245 298 358
#     4  11  23  37  62  90 118 154 201 251 299 363
#     4  11  23  41  61  86 118 157 201 246 297 359
#
# _framework density 18.561522
#
# number of rings (size 3 to 8) (size 9 to 14) (size 15 to 20)
#    0.000    1.444    2.222    3.333    3.111    1.333 
#    2.000    2.778    0.000    3.333    0.000    0.000 
#    0.000    0.000    0.000    0.000    0.000    0.000 
#
# Total GULP energy -200917.524669 kJ/mol
# GULP energy per Si atom -5581.042352 kJ/mol
# Density = 1.851928 g / cm^3
# Si number density = 18.561522 Si / 1000 Ang^3
#
#
#
# Elastic Constant Matrix: (Units=GPa)
#
#
# Indices 1 2 3 4 5 6 
#
# 1 57.2174 36.4154 48.8972 0.0000 0.0000 0.0000
# 2 36.4154 137.2360 77.2150 0.0000 0.0000 0.0000
# 3 48.8972 77.2150 170.5925 0.0000 0.0000 0.0000
# 4 0.0000 0.0000 0.0000 -3.0656 0.0000 0.0000
# 5 0.0000 0.0000 0.0000 0.0000 12.7819 0.0000
# 6 0.0000 0.0000 0.0000 0.0000 0.0000 23.7266
#
#
#
# Elastic Compliance Matrix: (Units=1/GPa)
#
#
# Indices 1 2 3 4 5 6 
#
# 1 0.024267 -0.003389 -0.005422 0.000000 0.000000 0.000000
# 2 -0.003389 0.010250 -0.003668 0.000000 0.000000 0.000000
# 3 -0.005422 -0.003668 0.009076 0.000000 0.000000 0.000000
# 4 0.000000 0.000000 0.000000 -0.326204 0.000000 0.000000
# 5 0.000000 0.000000 0.000000 0.000000 0.078235 0.000000
# 6 0.000000 0.000000 0.000000 0.000000 0.000000 0.042147
#
#
# Mechanical properties :
#
#
# Convention : Reuss Voigt Hill
#
# Bulk Modulus (GPa) = 53.65943 76.67790 65.16867
# Shear Modulus (GPa) = -38.15079 20.18981 -8.98049
#
# Velocity S-wave (km/s) = -4.53854 3.30164 -2.20198
# Velocity P-wave (km/s) = 1.22772 7.47892 5.35918
#
# Compressibility (1/GPa) = 0.01863605
#
# Stress axis : x y z
#
# Youngs Moduli (GPa) = 41.20745 97.56409 110.17730
#
# Poissons Ratio (x) = 0.33061 0.59738
# Poissons Ratio (y) = 0.13964 0.40413
# Poissons Ratio (z) = 0.22343 0.35786
#
# Static dielectric constant tensor:
#      x y z
#    x 1.640370 0.000000 0.000000 
#    y 0.000000 1.665020 0.000000 
#    z 0.000000 0.000000 1.618030 
# 
# From -- ./inp_files/39991.got.cif
#   From: 2010.05.17/outbox.cif.g08.bks.cpg/sg71_20_cif.got.tgz:39991.got - 2010.06.03 16:22:01.
