data_PCOD9524665
_publ_section_title
;
Structure prediction by ZEFSAII (Michael W. Deem and Ramdas Pophale) SiO2 
 PCOD9524665
Probable space group: I M M M
;
_chemical_formula_sum "Si O2"
_cell_formula_units_Z 64
_cell_length_a 24.000000
_cell_length_b 18.000000
_cell_length_c 18.000000
_cell_angle_alpha 90.000000
_cell_angle_beta 90.000000
_cell_angle_gamma 90.000000
_cell_volume 7776.000000
_symmetry_space_group_name_H-M "I M M M"
_symmetry_group_IT_number 71
_symmetry_cell_setting 'orthorhombic'
loop_
_space_group_symop_operation_xyz
x,y,z
-x,-y,z
x,-y,-z
-x,y,-z
-x,-y,-z
x,y,-z
-x,y,z
x,-y,z
1/2+x,1/2+y,1/2+z
1/2-x,1/2-y,1/2+z
1/2+x,1/2-y,1/2-z
1/2-x,1/2+y,1/2-z
1/2-x,1/2-y,1/2-z
1/2+x,1/2+y,1/2-z
1/2-x,1/2+y,1/2+z
1/2+x,1/2-y,1/2+z
loop_
_atom_site_type_symbol
_atom_site_label
_atom_site_fract_x
_atom_site_fract_y
_atom_site_fract_z
Si Si1 0.759304 0.415833 0.359441
Si Si2 0.136264 0.318846 0.185155
Si Si3 0.629720 0.411770 0.325589
Si Si4 0.935020 0.793725 0.088216
Si Si5 0.640744 0.182038 0.086901
Si Si6 0.662018 0.306692 0.200856
Si Si7 0.566858 0.088318 0.805072
Si Si8 0.734833 0.914055 0.316799
O O1 0.767578 0.500000 0.388804
O O2 0.693015 0.399906 0.356793
O O3 0.798538 0.356060 0.398797
O O4 0.775915 0.416616 0.272350
O O5 0.101643 0.269438 0.127952
O O6 0.169951 0.259502 0.237746
O O7 0.094531 0.366448 0.236909
O O8 0.180107 0.375939 0.149775
O O9 0.622579 0.500000 0.316491
O O10 0.587132 0.372302 0.380739
O O11 0.626217 0.367111 0.247453
O O12 0.000000 0.784130 0.106879
O O13 0.928535 0.790514 0.000000
O O14 0.638191 0.259775 0.132007
O O15 0.596380 0.125314 0.123452
O O16 0.631805 0.191949 0.000000
O O17 0.714578 0.355838 0.175074
O O18 0.500000 0.097368 0.806306
O O19 0.579234 0.000000 0.800559
O O20 0.745749 0.000000 0.339278
#
# Coordination Sequence:
#
# PCOD9524665 Si02
#       8
#    16  16  16  16  16  16  16  16
#     4   9  17  30  48  75 104 129 163 207 257 308
#     4  10  18  31  54  76 101 133 176 213 250 298
#     4   9  19  34  56  79  98 129 171 213 255 304
#     4  10  22  37  52  74 106 140 169 205 255 306
#     4  11  22  32  47  72 106 143 174 208 258 312
#     4   9  18  31  50  75 105 133 170 210 254 302
#     4  10  20  34  53  76 101 133 177 222 257 294
#     4  10  17  29  53  78 101 131 167 212 258 300
#
# _framework density 8.2304530000000007
#
# number of rings (size 3 to 8) (size 9 to 14) (size 15 to 20)
#    0.000    2.250    2.500    2.625    3.500    2.250 
#    0.000    2.500    0.000    3.750    0.000    4.375 
#    0.000    0.000    0.000   18.000    0.000    0.000 
#
# Total GULP energy -356601.899504 kJ/mol
# GULP energy per Si atom -5571.904680 kJ/mol
# Density = 0.821172 g / cm^3
# Si number density = 8.230453 Si / 1000 Ang^3
#
#
#
# Elastic Constant Matrix: (Units=GPa)
#
#
# Indices 1 2 3 4 5 6 
#
# 1 69.7415 53.7559 26.6854 0.0000 0.0000 0.0000
# 2 53.7559 140.4261 38.4609 0.0000 0.0000 0.0000
# 3 26.6854 38.4609 50.8161 0.0000 0.0000 0.0000
# 4 0.0000 0.0000 0.0000 12.5153 0.0000 0.0000
# 5 0.0000 0.0000 0.0000 0.0000 16.2163 0.0000
# 6 0.0000 0.0000 0.0000 0.0000 0.0000 25.5244
#
#
#
# Elastic Compliance Matrix: (Units=1/GPa)
#
#
# Indices 1 2 3 4 5 6 
#
# 1 0.021925 -0.006610 -0.006511 0.000000 0.000000 0.000000
# 2 -0.006610 0.010976 -0.004836 0.000000 0.000000 0.000000
# 3 -0.006511 -0.004836 0.026758 0.000000 0.000000 0.000000
# 4 0.000000 0.000000 0.000000 0.079902 0.000000 0.000000
# 5 0.000000 0.000000 0.000000 0.000000 0.061666 0.000000
# 6 0.000000 0.000000 0.000000 0.000000 0.000000 0.039178
#
#
# Mechanical properties :
#
#
# Convention : Reuss Voigt Hill
#
# Bulk Modulus (GPa) = 42.11367 55.42090 48.76729
# Shear Modulus (GPa) = 17.59111 20.32330 18.95721
#
# Velocity S-wave (km/s) = 3.27258 3.51756 3.39728
# Velocity P-wave (km/s) = 6.31817 7.08794 6.71410
#
# Compressibility (1/GPa) = 0.02374526
#
# Stress axis : x y z
#
# Youngs Moduli (GPa) = 45.61104 91.10790 37.37151
#
# Poissons Ratio (x) = 0.60219 0.24332
# Poissons Ratio (y) = 0.30147 0.18074
# Poissons Ratio (z) = 0.29697 0.44063
#
# Static dielectric constant tensor:
#      x y z
#    x 1.573630 0.000000 0.000000 
#    y 0.000000 1.560350 0.000000 
#    z 0.000000 0.000000 1.544980 
# 
# From -- ./inp_files/48428.got.cif
#   From: 2010.05.17/outbox.ucp.g08.bks.cvg/sg71_25_cif.got.tgz:48428.got - 2010.06.11 16:29:00.
