data_PCOD9524663
_publ_section_title
;
Structure prediction by ZEFSAII (Michael W. Deem and Ramdas Pophale) SiO2 
 PCOD9524663
Probable space group: I M M M
;
_chemical_formula_sum "Si O2"
_cell_formula_units_Z 52
_cell_length_a 18.000000
_cell_length_b 18.000000
_cell_length_c 18.000000
_cell_angle_alpha 90.000000
_cell_angle_beta 90.000000
_cell_angle_gamma 90.000000
_cell_volume 5832.000000
_symmetry_space_group_name_H-M "I M M M"
_symmetry_group_IT_number 71
_symmetry_cell_setting 'orthorhombic'
loop_
_space_group_symop_operation_xyz
x,y,z
-x,-y,z
x,-y,-z
-x,y,-z
-x,-y,-z
x,y,-z
-x,y,z
x,-y,z
1/2+x,1/2+y,1/2+z
1/2-x,1/2-y,1/2+z
1/2+x,1/2-y,1/2-z
1/2-x,1/2+y,1/2-z
1/2-x,1/2-y,1/2-z
1/2+x,1/2+y,1/2-z
1/2-x,1/2+y,1/2+z
1/2+x,1/2-y,1/2+z
loop_
_atom_site_type_symbol
_atom_site_label
_atom_site_fract_x
_atom_site_fract_y
_atom_site_fract_z
Si Si1 0.085894 0.770846 0.916646
Si Si2 0.912190 0.588157 0.705911
Si Si3 0.856269 0.084478 0.136248
Si Si4 0.089371 0.872349 0.702154
Si Si5 0.335938 0.769385 0.735447
Si Si6 0.409699 0.500000 0.913572
Si Si7 0.195725 0.589113 0.418127
O O1 0.094189 0.859761 0.911196
O O2 0.137892 0.745626 0.849073
O O3 0.000000 0.750034 0.902160
O O4 0.106006 0.746262 0.000000
O O5 0.899014 0.500000 0.721782
O O6 0.862193 0.646183 0.751184
O O7 0.881110 0.603944 0.623310
O O8 0.000000 0.602028 0.714088
O O9 0.881050 0.090826 0.221633
O O10 0.770050 0.108850 0.127082
O O11 0.862920 0.000000 0.111116
O O12 0.119841 0.788133 0.710124
O O13 0.000000 0.870153 0.703934
O O14 0.112094 0.925837 0.633447
O O15 0.250000 0.750000 0.750000
O O16 0.500000 0.500000 0.914379
O O17 0.385025 0.500000 0.000000
O O18 0.200005 0.622250 0.500000
O O19 0.198861 0.500000 0.423924
#
# Coordination Sequence:
#
# PCOD9524663 Si02
#       7
#    16  16  16  16  16   8  16
#     4  10  21  35  52  75 107 146 182 228 288 346
#     4  10  20  35  57  82 109 146 194 246 290 342
#     4  10  17  27  47  76 109 145 184 222 271 333
#     4  10  19  33  54  79 110 147 189 233 278 341
#     4  11  22  38  57  84 110 149 193 235 298 349
#     4   9  18  34  56  82 113 151 192 237 289 335
#     4   9  18  31  47  72 107 143 176 218 277 335
#
# _framework density 8.9163239999999995
#
# number of rings (size 3 to 8) (size 9 to 14) (size 15 to 20)
#    0.000    2.077    0.769    5.077    0.000    2.154 
#    1.385    3.846    0.000    2.308    0.000    2.154 
#    0.000    0.000    0.000    0.000    0.000    0.000 
#
# Total GULP energy -289538.642903 kJ/mol
# GULP energy per Si atom -5568.050825 kJ/mol
# Density = 0.889603 g / cm^3
# Si number density = 8.916324 Si / 1000 Ang^3
#
#
#
# Elastic Constant Matrix: (Units=GPa)
#
#
# Indices 1 2 3 4 5 6 
#
# 1 108.3541 42.5574 52.4004 0.0000 0.0000 0.0000
# 2 42.5574 75.7303 35.1902 0.0000 0.0000 0.0000
# 3 52.4004 35.1902 122.1871 0.0000 0.0000 0.0000
# 4 0.0000 0.0000 0.0000 16.0630 0.0000 0.0000
# 5 0.0000 0.0000 0.0000 0.0000 11.9525 0.0000
# 6 0.0000 0.0000 0.0000 0.0000 0.0000 22.8777
#
#
#
# Elastic Compliance Matrix: (Units=1/GPa)
#
#
# Indices 1 2 3 4 5 6 
#
# 1 0.013444 -0.005629 -0.004144 0.000000 0.000000 0.000000
# 2 -0.005629 0.017602 -0.002655 0.000000 0.000000 0.000000
# 3 -0.004144 -0.002655 0.010726 0.000000 0.000000 0.000000
# 4 0.000000 0.000000 0.000000 0.062255 0.000000 0.000000
# 5 0.000000 0.000000 0.000000 0.000000 0.083665 0.000000
# 6 0.000000 0.000000 0.000000 0.000000 0.000000 0.043711
#
#
# Mechanical properties :
#
#
# Convention : Reuss Voigt Hill
#
# Bulk Modulus (GPa) = 59.12055 62.95193 61.03624
# Shear Modulus (GPa) = 19.09135 21.92021 20.50578
#
# Velocity S-wave (km/s) = 3.27553 3.50982 3.39470
# Velocity P-wave (km/s) = 6.89423 7.19745 7.04747
#
# Compressibility (1/GPa) = 0.01691459
#
# Stress axis : x y z
#
# Youngs Moduli (GPa) = 74.38154 56.81154 93.22962
#
# Poissons Ratio (x) = 0.31981 0.38637
# Poissons Ratio (y) = 0.41872 0.24755
# Poissons Ratio (z) = 0.30826 0.15085
#
# Static dielectric constant tensor:
#      x y z
#    x 1.613130 0.000000 0.000000 
#    y 0.000000 1.658490 0.000000 
#    z 0.000000 0.000000 1.644020 
# 
# From -- ./inp_files/46118.got.cif
#   From: 2010.05.17/outbox.ucp.g08.bks.cvg/sg71_24_cif.got.tgz:46118.got - 2010.06.11 16:29:00.
