data_PCOD9524502
_publ_section_title
;
Structure prediction by ZEFSAII (Michael W. Deem and Ramdas Pophale) SiO2 
 PCOD9524502
Probable space group: I M M M
;
_chemical_formula_sum "Si O2"
_cell_formula_units_Z 80
_cell_length_a 23.193547
_cell_length_b 23.063500
_cell_length_c 7.349782
_cell_angle_alpha 90.000000
_cell_angle_beta 90.000000
_cell_angle_gamma 90.000000
_cell_volume 3931.577515
_symmetry_space_group_name_H-M "I M M M"
_symmetry_group_IT_number 71
_symmetry_cell_setting 'orthorhombic'
loop_
_space_group_symop_operation_xyz
x,y,z
-x,-y,z
x,-y,-z
-x,y,-z
-x,-y,-z
x,y,-z
-x,y,z
x,-y,z
1/2+x,1/2+y,1/2+z
1/2-x,1/2-y,1/2+z
1/2+x,1/2-y,1/2-z
1/2-x,1/2+y,1/2-z
1/2-x,1/2-y,1/2-z
1/2+x,1/2+y,1/2-z
1/2-x,1/2+y,1/2+z
1/2+x,1/2-y,1/2+z
loop_
_atom_site_type_symbol
_atom_site_label
_atom_site_fract_x
_atom_site_fract_y
_atom_site_fract_z
Si Si1 0.788625 0.836531 0.288237
Si Si2 0.374034 0.433076 0.776687
Si Si3 0.667324 0.211601 0.720270
Si Si4 0.429930 0.000000 0.709518
Si Si5 0.500000 0.570500 0.789584
Si Si6 0.066382 0.627411 0.222668
O O1 0.778855 0.849885 0.500000
O O2 0.824127 0.890388 0.212625
O O3 0.725834 0.820009 0.213174
O O4 0.826960 0.778364 0.276134
O O5 0.365212 0.500000 0.724765
O O6 0.437699 0.412885 0.713499
O O7 0.375542 0.432025 0.000000
O O8 0.668124 0.211278 0.500000
O O9 0.610859 0.176837 0.779308
O O10 0.414156 0.936989 0.785611
O O11 0.500000 0.000000 0.708587
O O12 0.409912 0.000000 0.500000
O O13 0.500000 0.500000 0.787793
O O14 0.500000 0.589303 0.000000
O O15 0.000000 0.637265 0.277743
O O16 0.066272 0.625612 0.000000
#
# Coordination Sequence:
#
# PCOD9524502 Si02
#       6
#    16  16  16   8   8  16
#     4   9  17  29  43  60  83 110 137 166 202 241
#     4   8  13  23  39  59  82 104 130 167 206 240
#     4   9  17  29  43  59  82 113 140 162 198 243
#     4   7  10  18  34  56  81 105 127 160 206 243
#     4   7  10  18  34  54  77 105 127 150 197 248
#     4   8  13  23  39  59  83 108 135 167 202 241
#
# _framework density 20.348064999999998
#
# number of rings (size 3 to 8) (size 9 to 14) (size 15 to 20)
#    0.000    3.800    0.000    2.400    0.000    0.000 
#    3.600    0.000    0.000    0.600    0.000    0.700 
#    0.000    4.800    0.000    0.000    0.000    0.000 
#
# Total GULP energy -222780.425139 kJ/mol
# GULP energy per Si atom -5569.510628 kJ/mol
# Density = 2.030175 g / cm^3
# Si number density = 20.348065 Si / 1000 Ang^3
#
#
#
# Elastic Constant Matrix: (Units=GPa)
#
#
# Indices 1 2 3 4 5 6 
#
# 1 94.4840 73.3847 -2.6726 0.0000 0.0000 0.0000
# 2 73.3847 94.8174 -8.0029 0.0000 0.0000 0.0000
# 3 -2.6726 -8.0029 74.2844 0.0000 0.0000 0.0000
# 4 0.0000 0.0000 0.0000 3.1605 0.0000 0.0000
# 5 0.0000 0.0000 0.0000 0.0000 -4.7632 0.0000
# 6 0.0000 0.0000 0.0000 0.0000 0.0000 31.7183
#
#
#
# Elastic Compliance Matrix: (Units=1/GPa)
#
#
# Indices 1 2 3 4 5 6 
#
# 1 0.026653 -0.020736 -0.001275 0.000000 0.000000 0.000000
# 2 -0.020736 0.026776 0.002139 0.000000 0.000000 0.000000
# 3 -0.001275 0.002139 0.013646 0.000000 0.000000 0.000000
# 4 0.000000 0.000000 0.000000 0.316409 0.000000 0.000000
# 5 0.000000 0.000000 0.000000 0.000000 -0.209945 0.000000
# 6 0.000000 0.000000 0.000000 0.000000 0.000000 0.031528
#
#
# Mechanical properties :
#
#
# Convention : Reuss Voigt Hill
#
# Bulk Modulus (GPa) = 36.58922 43.22269 39.90596
# Shear Modulus (GPa) = 19.69102 19.41490 19.55296
#
# Velocity S-wave (km/s) = 3.11418 3.09227 3.10324
# Velocity P-wave (km/s) = 5.56341 5.83415 5.70039
#
# Compressibility (1/GPa) = 0.02733046
#
# Stress axis : x y z
#
# Youngs Moduli (GPa) = 37.51876 37.34681 73.27995
#
# Poissons Ratio (x) = 0.77443 0.09344
# Poissons Ratio (y) = 0.77800 -0.15672
# Poissons Ratio (z) = 0.04784 -0.07987
#
# Static dielectric constant tensor:
#      x y z
#    x 1.720720 0.000000 0.000000 
#    y 0.000000 1.696860 0.000000 
#    z 0.000000 0.000000 1.822690 
# 
# From -- ./inp_files/23865.got.cif
#   From: 2010.05.17/outbox.cif.g08.bks.cpg/sg71_12_cif.got.tgz:23865.got - 2010.06.03 16:22:01.
