data_PCOD9524812
_publ_section_title
;
Structure prediction by ZEFSAII (Michael W. Deem and Ramdas Pophale) SiO2 
 PCOD9524812
Probable space group: I M M M
;
_chemical_formula_sum "Si O2"
_cell_formula_units_Z 28
_cell_length_a 18.000000
_cell_length_b 9.000000
_cell_length_c 18.000000
_cell_angle_alpha 90.000000
_cell_angle_beta 90.000000
_cell_angle_gamma 90.000000
_cell_volume 2916.000000
_symmetry_space_group_name_H-M "I M M M"
_symmetry_group_IT_number 71
_symmetry_cell_setting 'orthorhombic'
loop_
_space_group_symop_operation_xyz
x,y,z
-x,-y,z
x,-y,-z
-x,y,-z
-x,-y,-z
x,y,-z
-x,y,z
x,-y,z
1/2+x,1/2+y,1/2+z
1/2-x,1/2-y,1/2+z
1/2+x,1/2-y,1/2-z
1/2-x,1/2+y,1/2-z
1/2-x,1/2-y,1/2-z
1/2+x,1/2+y,1/2-z
1/2-x,1/2+y,1/2+z
1/2+x,1/2-y,1/2+z
loop_
_atom_site_type_symbol
_atom_site_label
_atom_site_fract_x
_atom_site_fract_y
_atom_site_fract_z
Si Si1 0.848967 0.330061 0.410811
Si Si2 0.220056 0.323096 0.826003
Si Si3 0.087467 0.178320 0.086709
Si Si4 0.000000 0.828210 0.590725
O O1 0.851375 0.335017 0.500000
O O2 0.840387 0.500000 0.383890
O O3 0.781227 0.228733 0.385759
O O4 0.926217 0.257758 0.384680
O O5 0.216800 0.500000 0.818808
O O6 0.250000 0.250000 0.750000
O O7 0.141927 0.259545 0.856175
O O8 0.000000 0.209826 0.099275
O O9 0.097859 0.000000 0.093339
O O10 0.104293 0.217262 0.000000
O O11 0.000000 0.828153 0.500000
O O12 0.000000 0.000000 0.614610
#
# Coordination Sequence:
#
# PCOD9524812 Si02
#       4
#    16  16  16   8
#     4  10  20  36  59  85 115 152 194 240 290 346
#     4  12  25  40  58  84 120 158 200 247 300 360
#     4   9  19  39  67  95 123 157 198 246 302 364
#     4   9  17  31  53  83 115 145 184 231 278 331
#
# _framework density 9.602195
#
# number of rings (size 3 to 8) (size 9 to 14) (size 15 to 20)
#    0.000    1.857    0.000    5.571    0.000    8.000 
#    2.571    1.429    0.000    0.000    0.000    0.000 
#    0.000    0.000    0.000    0.000    0.000    0.000 
#
# Total GULP energy -156403.003246 kJ/mol
# GULP energy per Si atom -5585.821545 kJ/mol
# Density = 0.958034 g / cm^3
# Si number density = 9.602195 Si / 1000 Ang^3
#
#
#
# Elastic Constant Matrix: (Units=GPa)
#
#
# Indices 1 2 3 4 5 6 
#
# 1 129.0295 74.6794 53.5260 0.0000 0.0000 0.0000
# 2 74.6794 146.7557 56.8588 0.0000 0.0000 0.0000
# 3 53.5260 56.8588 61.4625 0.0000 0.0000 0.0000
# 4 0.0000 0.0000 0.0000 27.8198 0.0000 0.0000
# 5 0.0000 0.0000 0.0000 0.0000 23.8014 0.0000
# 6 0.0000 0.0000 0.0000 0.0000 0.0000 38.6422
#
#
#
# Elastic Compliance Matrix: (Units=1/GPa)
#
#
# Indices 1 2 3 4 5 6 
#
# 1 0.013212 -0.003531 -0.008239 0.000000 0.000000 0.000000
# 2 -0.003531 0.011564 -0.007623 0.000000 0.000000 0.000000
# 3 -0.008239 -0.007623 0.030498 0.000000 0.000000 0.000000
# 4 0.000000 0.000000 0.000000 0.035946 0.000000 0.000000
# 5 0.000000 0.000000 0.000000 0.000000 0.042014 0.000000
# 6 0.000000 0.000000 0.000000 0.000000 0.000000 0.025878
#
#
# Mechanical properties :
#
#
# Convention : Reuss Voigt Hill
#
# Bulk Modulus (GPa) = 60.65400 78.59733 69.62567
# Shear Modulus (GPa) = 24.58275 28.19824 26.39049
#
# Velocity S-wave (km/s) = 3.58167 3.83603 3.71103
# Velocity P-wave (km/s) = 6.98258 7.78690 7.39568
#
# Compressibility (1/GPa) = 0.01648696
#
# Stress axis : x y z
#
# Youngs Moduli (GPa) = 75.69071 86.47321 32.78926
#
# Poissons Ratio (x) = 0.30531 0.27016
# Poissons Ratio (y) = 0.26724 0.24996
# Poissons Ratio (z) = 0.62364 0.65921
#
# Static dielectric constant tensor:
#      x y z
#    x 1.660790 0.000000 0.000000 
#    y 0.000000 1.648170 0.000000 
#    z 0.000000 0.000000 1.746190 
# 
# From -- ./inp_files/5038.got.cif
#   From: 2010.05.17/outbox.ucp.g08.bks.cvg/sg71_3_cif.got.tgz:5038.got - 2010.06.11 16:29:00.
