data_PCOD9524939
_publ_section_title
;
Structure prediction by ZEFSAII (Michael W. Deem and Ramdas Pophale) SiO2 
 PCOD9524939
Probable space group: I B A M
;
_chemical_formula_sum "Si O2"
_cell_formula_units_Z 96
_cell_length_a 6.934798
_cell_length_b 21.396432
_cell_length_c 26.142886
_cell_angle_alpha 90.000000
_cell_angle_beta 90.000000
_cell_angle_gamma 90.000000
_cell_volume 3879.079695
_symmetry_space_group_name_H-M "I B A M"
_symmetry_group_IT_number 72
_symmetry_cell_setting 'orthorhombic'
loop_
_space_group_symop_operation_xyz
x,y,z
-x,-y,z
x,-y,1/2-z
-x,y,1/2-z
-x,-y,-z
x,y,-z
-x,y,1/2+z
x,-y,1/2+z
1/2+x,1/2+y,1/2+z
1/2-x,1/2-y,1/2+z
1/2+x,1/2-y,-z
1/2-x,1/2+y,-z
1/2-x,1/2-y,1/2-z
1/2+x,1/2+y,1/2-z
1/2-x,1/2+y,z
1/2+x,1/2-y,z
loop_
_atom_site_type_symbol
_atom_site_label
_atom_site_fract_x
_atom_site_fract_y
_atom_site_fract_z
Si Si1 0.720192 0.833330 0.238055
Si Si2 0.337115 0.913860 0.558568
Si Si3 0.284853 0.027193 0.799775
Si Si4 0.799111 0.833540 0.354435
Si Si5 0.262556 0.461636 0.095964
Si Si6 0.851722 0.697682 0.633207
O O1 0.500000 0.813330 0.250000
O O2 0.709441 0.900529 0.211292
O O3 0.833137 0.838048 0.292082
O O4 0.768942 0.794657 0.186752
O O5 0.357228 0.893306 0.500000
O O6 0.547353 0.937328 0.579519
O O7 0.275288 0.854534 0.593571
O O8 0.208325 0.977676 0.559239
O O9 0.500000 0.000000 0.800820
O O10 0.189401 0.000000 0.750000
O O11 0.211771 0.001290 0.852139
O O12 0.856556 0.895516 0.386399
O O13 0.872286 0.770357 0.381690
O O14 0.566653 0.827801 0.356546
#
# Coordination Sequence:
#
# PCOD9524939 Si02
#       6
#    16  16  16  16  16  16
#     4  10  16  25  44  72 104 131 161 195 245 299
#     4  10  19  31  48  72  99 128 166 221 269 292
#     4  11  13  19  40  72 102 123 153 201 255 293
#     4  10  20  31  51  75 106 132 165 199 251 305
#     4  10  16  28  47  74 100 124 163 215 256 297
#     4  10  20  34  48  73 103 138 165 203 248 307
#
# _framework density 24.748137
#
# number of rings (size 3 to 8) (size 9 to 14) (size 15 to 20)
#    0.000    1.833    6.667    2.500    0.000    0.000 
#    0.000    4.167    0.000    1.000    0.000    1.167 
#    0.000    0.000    0.000    0.000    0.000    0.000 
#
# Total GULP energy -267224.585048 kJ/mol
# GULP energy per Si atom -5567.178855 kJ/mol
# Density = 2.469181 g / cm^3
# Si number density = 24.748137 Si / 1000 Ang^3
#
#
#
# Elastic Constant Matrix: (Units=GPa)
#
#
# Indices 1 2 3 4 5 6 
#
# 1 84.4927 11.2810 23.9637 0.0000 0.0000 0.0000
# 2 11.2810 225.8599 57.1113 0.0000 0.0000 0.0000
# 3 23.9637 57.1113 142.4608 0.0000 0.0000 0.0000
# 4 0.0000 0.0000 0.0000 11.1468 0.0000 0.0000
# 5 0.0000 0.0000 0.0000 0.0000 -4.4499 0.0000
# 6 0.0000 0.0000 0.0000 0.0000 0.0000 40.7021
#
#
#
# Elastic Compliance Matrix: (Units=1/GPa)
#
#
# Indices 1 2 3 4 5 6 
#
# 1 0.012430 -0.000103 -0.002050 0.000000 0.000000 0.000000
# 2 -0.000103 0.004928 -0.001958 0.000000 0.000000 0.000000
# 3 -0.002050 -0.001958 0.008149 0.000000 0.000000 0.000000
# 4 0.000000 0.000000 0.000000 0.089712 0.000000 0.000000
# 5 0.000000 0.000000 0.000000 0.000000 -0.224723 0.000000
# 6 0.000000 0.000000 0.000000 0.000000 0.000000 0.024569
#
#
# Mechanical properties :
#
#
# Convention : Reuss Voigt Hill
#
# Bulk Modulus (GPa) = 57.84941 70.83615 64.34278
# Shear Modulus (GPa) = -70.47050 33.51029 -18.48010
#
# Velocity S-wave (km/s) = -5.34199 3.68374 -2.73560
# Velocity P-wave (km/s) = 3.82403 6.83946 4.00968
#
# Compressibility (1/GPa) = 0.01728626
#
# Stress axis : x y z
#
# Youngs Moduli (GPa) = 80.44787 202.92969 122.70938
#
# Poissons Ratio (x) = 0.02081 0.25154
# Poissons Ratio (y) = 0.00825 0.24030
# Poissons Ratio (z) = 0.16491 0.39739
#
# Static dielectric constant tensor:
#      x y z
#    x 2.112010 0.000000 0.000000 
#    y 0.000000 2.027000 0.000000 
#    z 0.000000 0.000000 1.991190 
# 
# From -- ./inp_files/48108.got.cif
#   From: 2010.05.17/outbox.cif.g08.bks.cpg/sg72_25_cif.got.tgz:48108.got - 2010.06.03 17:03:01.
