data_PCOD9524564
_publ_section_title
;
Structure prediction by ZEFSAII (Michael W. Deem and Ramdas Pophale) SiO2 
 PCOD9524564
Probable space group: I M M M
;
_chemical_formula_sum "Si O2"
_cell_formula_units_Z 72
_cell_length_a 21.392235
_cell_length_b 14.571078
_cell_length_c 10.593328
_cell_angle_alpha 90.000000
_cell_angle_beta 90.000000
_cell_angle_gamma 90.000000
_cell_volume 3302.024287
_symmetry_space_group_name_H-M "I M M M"
_symmetry_group_IT_number 71
_symmetry_cell_setting 'orthorhombic'
loop_
_space_group_symop_operation_xyz
x,y,z
-x,-y,z
x,-y,-z
-x,y,-z
-x,-y,-z
x,y,-z
-x,y,z
x,-y,z
1/2+x,1/2+y,1/2+z
1/2-x,1/2-y,1/2+z
1/2+x,1/2-y,1/2-z
1/2-x,1/2+y,1/2-z
1/2-x,1/2-y,1/2-z
1/2+x,1/2+y,1/2-z
1/2-x,1/2+y,1/2+z
1/2+x,1/2-y,1/2+z
loop_
_atom_site_type_symbol
_atom_site_label
_atom_site_fract_x
_atom_site_fract_y
_atom_site_fract_z
Si Si1 0.433189 0.133850 0.649819
Si Si2 0.701456 0.360823 0.638328
Si Si3 0.924765 0.104070 0.500000
Si Si4 0.295737 0.136658 0.646015
Si Si5 0.429590 0.653334 0.721182
O O1 0.433579 0.116097 0.500000
O O2 0.500000 0.100080 0.702151
O O3 0.364379 0.104327 0.691826
O O4 0.434140 0.243160 0.671714
O O5 0.725570 0.386880 0.500000
O O6 0.702091 0.248664 0.644053
O O7 0.743060 0.392039 0.755564
O O8 0.629276 0.390517 0.651893
O O9 0.909872 0.153174 0.368906
O O10 0.000000 0.098347 0.500000
O O11 0.899894 0.000000 0.500000
O O12 0.285080 0.108970 0.500000
O O13 0.500000 0.613160 0.709443
#
# Coordination Sequence:
#
# PCOD9524564 Si02
#       5
#    16  16   8  16  16
#     4   8  13  23  38  54  72  96 128 160 184 211
#     4   9  16  24  35  52  72  94 119 152 187 218
#     4   9  18  30  40  52  70  90 117 161 213 249
#     4   8  14  23  34  50  73  99 122 148 181 214
#     4   9  16  25  38  52  66  89 122 156 190 227
#
# _framework density 21.804805000000002
#
# number of rings (size 3 to 8) (size 9 to 14) (size 15 to 20)
#    0.000    3.444    0.000    2.000    1.556    1.333 
#    6.000    0.000    0.000    2.667    0.000   14.000 
#    0.000    0.000    0.000    0.000    0.000    2.222 
#
# Total GULP energy -200528.328740 kJ/mol
# GULP energy per Si atom -5570.231354 kJ/mol
# Density = 2.175518 g / cm^3
# Si number density = 21.804805 Si / 1000 Ang^3
#
#
#
# Elastic Constant Matrix: (Units=GPa)
#
#
# Indices 1 2 3 4 5 6 
#
# 1 181.6088 10.3655 77.1964 0.0000 0.0000 0.0000
# 2 10.3655 79.1981 -2.8473 0.0000 0.0000 0.0000
# 3 77.1964 -2.8473 100.3025 0.0000 0.0000 0.0000
# 4 0.0000 0.0000 0.0000 -75.3431 0.0000 0.0000
# 5 0.0000 0.0000 0.0000 0.0000 28.2337 0.0000
# 6 0.0000 0.0000 0.0000 0.0000 0.0000 -18.1860
#
#
#
# Elastic Compliance Matrix: (Units=1/GPa)
#
#
# Indices 1 2 3 4 5 6 
#
# 1 0.008319 -0.001320 -0.006440 0.000000 0.000000 0.000000
# 2 -0.001320 0.012849 0.001381 0.000000 0.000000 0.000000
# 3 -0.006440 0.001381 0.014966 0.000000 0.000000 0.000000
# 4 0.000000 0.000000 0.000000 -0.013273 0.000000 0.000000
# 5 0.000000 0.000000 0.000000 0.000000 0.035419 0.000000
# 6 0.000000 0.000000 0.000000 0.000000 0.000000 -0.054987
#
#
# Mechanical properties :
#
#
# Convention : Reuss Voigt Hill
#
# Bulk Modulus (GPa) = 42.78149 58.94874 50.86511
# Shear Modulus (GPa) = 209.70009 5.36725 107.53367
#
# Velocity S-wave (km/s) = 9.81735 1.57062 7.03019
# Velocity P-wave (km/s) = 12.17250 5.51204 9.44861
#
# Compressibility (1/GPa) = 0.02337460
#
# Stress axis : x y z
#
# Youngs Moduli (GPa) = 120.20269 77.82690 66.81933
#
# Poissons Ratio (x) = 0.10276 0.43034
# Poissons Ratio (y) = 0.15871 -0.09227
# Poissons Ratio (z) = 0.77414 -0.10747
#
# Static dielectric constant tensor:
#      x y z
#    x 1.851360 0.000000 0.000000 
#    y 0.000000 1.794540 0.000000 
#    z 0.000000 0.000000 1.753930 
# 
# From -- ./inp_files/12195.got.cif
#   From: 2010.05.17/outbox.cif.g08.bks.cpg/sg71_7_cif.got.tgz:12195.got - 2010.06.03 16:22:01.
