data_PCOD9524449
_publ_section_title
;
Structure prediction by ZEFSAII (Michael W. Deem and Ramdas Pophale) SiO2 
 PCOD9524449
Probable space group: I M M M
;
_chemical_formula_sum "Si O2"
_cell_formula_units_Z 96
_cell_length_a 16.467227
_cell_length_b 19.617959
_cell_length_c 13.837326
_cell_angle_alpha 90.000000
_cell_angle_beta 90.000000
_cell_angle_gamma 90.000000
_cell_volume 4470.194992
_symmetry_space_group_name_H-M "I M M M"
_symmetry_group_IT_number 71
_symmetry_cell_setting 'orthorhombic'
loop_
_space_group_symop_operation_xyz
x,y,z
-x,-y,z
x,-y,-z
-x,y,-z
-x,-y,-z
x,y,-z
-x,y,z
x,-y,z
1/2+x,1/2+y,1/2+z
1/2-x,1/2-y,1/2+z
1/2+x,1/2-y,1/2-z
1/2-x,1/2+y,1/2-z
1/2-x,1/2-y,1/2-z
1/2+x,1/2+y,1/2-z
1/2-x,1/2+y,1/2+z
1/2+x,1/2-y,1/2+z
loop_
_atom_site_type_symbol
_atom_site_label
_atom_site_fract_x
_atom_site_fract_y
_atom_site_fract_z
Si Si1 0.587593 0.076828 0.774986
Si Si2 0.588512 0.658867 0.383082
Si Si3 0.119926 0.682878 0.889598
Si Si4 0.689899 0.294067 0.888290
Si Si5 0.228715 0.643113 0.616455
Si Si6 0.596905 0.425218 0.884283
O O1 0.500000 0.085499 0.825935
O O2 0.589921 0.128833 0.686574
O O3 0.664036 0.090903 0.842803
O O4 0.592174 0.000000 0.738097
O O5 0.586589 0.651685 0.500000
O O6 0.500000 0.633119 0.347174
O O7 0.594384 0.739993 0.364186
O O8 0.677414 0.630395 0.355142
O O9 0.217723 0.680408 0.888733
O O10 0.094099 0.670081 0.000000
O O11 0.697126 0.217691 0.846692
O O12 0.635057 0.354638 0.846416
O O13 0.662973 0.284729 0.000000
O O14 0.227870 0.645468 0.500000
O O15 0.500000 0.422484 0.874358
O O16 0.624580 0.500000 0.846228
O O17 0.614806 0.426016 0.000000
#
# Coordination Sequence:
#
# PCOD9524449 Si02
#       6
#    16  16  16  16  16  16
#     4  11  25  40  53  75 107 147 197 241 276 321
#     4   8  14  28  55  89 117 139 168 212 274 346
#     4   9  18  34  56  81 109 139 172 219 280 338
#     4   8  15  28  49  78 104 131 174 218 261 323
#     4   9  19  36  57  81 109 142 182 230 279 324
#     4   8  13  21  35  60  97 136 170 210 262 317
#
# _framework density 21.475573000000001
#
# number of rings (size 3 to 8) (size 9 to 14) (size 15 to 20)
#    0.000    3.167    0.000    3.000    0.000    6.000 
#    0.000    5.000    0.000    1.500    0.000    2.333 
#    0.000    0.000    0.000    0.000    0.000    0.167 
#
# Total GULP energy -267641.743059 kJ/mol
# GULP energy per Si atom -5575.869647 kJ/mol
# Density = 2.142669 g / cm^3
# Si number density = 21.475573 Si / 1000 Ang^3
#
#
#
# Elastic Constant Matrix: (Units=GPa)
#
#
# Indices 1 2 3 4 5 6 
#
# 1 112.9993 22.1011 6.3735 0.0000 0.0000 0.0000
# 2 22.1011 20.5644 -3.7659 0.0000 0.0000 0.0000
# 3 6.3735 -3.7659 61.6660 0.0000 0.0000 0.0000
# 4 0.0000 0.0000 0.0000 18.3394 0.0000 0.0000
# 5 0.0000 0.0000 0.0000 0.0000 11.1962 0.0000
# 6 0.0000 0.0000 0.0000 0.0000 0.0000 22.0007
#
#
#
# Elastic Compliance Matrix: (Units=1/GPa)
#
#
# Indices 1 2 3 4 5 6 
#
# 1 0.011433 -0.012645 -0.001954 0.000000 0.000000 0.000000
# 2 -0.012645 0.063164 0.005164 0.000000 0.000000 0.000000
# 3 -0.001954 0.005164 0.016734 0.000000 0.000000 0.000000
# 4 0.000000 0.000000 0.000000 0.054527 0.000000 0.000000
# 5 0.000000 0.000000 0.000000 0.000000 0.089316 0.000000
# 6 0.000000 0.000000 0.000000 0.000000 0.000000 0.045453
#
#
# Mechanical properties :
#
#
# Convention : Reuss Voigt Hill
#
# Bulk Modulus (GPa) = 13.80061 27.18303 20.49182
# Shear Modulus (GPa) = 15.44880 21.67533 18.56206
#
# Velocity S-wave (km/s) = 2.68501 3.18040 2.94314
# Velocity P-wave (km/s) = 4.00656 5.11583 4.59479
#
# Compressibility (1/GPa) = 0.07246057
#
# Stress axis : x y z
#
# Youngs Moduli (GPa) = 87.46573 15.83193 59.75965
#
# Poissons Ratio (x) = 0.20020 0.11676
# Poissons Ratio (y) = 1.10602 -0.30861
# Poissons Ratio (z) = 0.17090 -0.08176
#
# Static dielectric constant tensor:
#      x y z
#    x 1.806060 0.000000 0.000000 
#    y 0.000000 1.764450 0.000000 
#    z 0.000000 0.000000 1.802160 
# 
# From -- ./inp_files/34494.got.cif
#   From: 2010.05.17/outbox.cif.g08.bks.cpg/sg71_18_cif.got.tgz:34494.got - 2010.06.03 16:22:01.
