data_PCOD9524056
_publ_section_title
;
Structure prediction by ZEFSAII (Michael W. Deem and Ramdas Pophale) SiO2 
 PCOD9524056
Probable space group: I M M M
;
_chemical_formula_sum "Si O2"
_cell_formula_units_Z 88
_cell_length_a 24.925690
_cell_length_b 9.975618
_cell_length_c 20.515627
_cell_angle_alpha 90.000000
_cell_angle_beta 90.000000
_cell_angle_gamma 90.000000
_cell_volume 5101.193458
_symmetry_space_group_name_H-M "I M M M"
_symmetry_group_IT_number 71
_symmetry_cell_setting 'orthorhombic'
loop_
_space_group_symop_operation_xyz
x,y,z
-x,-y,z
x,-y,-z
-x,y,-z
-x,-y,-z
x,y,-z
-x,y,z
x,-y,z
1/2+x,1/2+y,1/2+z
1/2-x,1/2-y,1/2+z
1/2+x,1/2-y,1/2-z
1/2-x,1/2+y,1/2-z
1/2-x,1/2-y,1/2-z
1/2+x,1/2+y,1/2-z
1/2-x,1/2+y,1/2+z
1/2+x,1/2-y,1/2+z
loop_
_atom_site_type_symbol
_atom_site_label
_atom_site_fract_x
_atom_site_fract_y
_atom_site_fract_z
Si Si1 0.797380 0.162241 0.500000
Si Si2 0.000000 0.663389 0.921984
Si Si3 0.064018 0.000000 0.579231
Si Si4 0.174285 0.337139 0.000000
Si Si5 0.369062 0.249143 0.119296
Si Si6 0.884728 0.337526 0.130319
Si Si7 0.060524 0.500000 0.422061
Si Si8 0.805794 0.664468 0.251415
O O1 0.735750 0.201605 0.500000
O O2 0.825964 0.219801 0.436649
O O3 0.800636 0.000000 0.500000
O O4 0.946522 0.705540 0.882071
O O5 0.000000 0.500000 0.924001
O O6 0.000000 0.703050 0.000000
O O7 0.091188 0.125029 0.614801
O O8 0.075688 0.000000 0.500000
O O9 0.000000 0.000000 0.584719
O O10 0.145368 0.291775 0.934888
O O11 0.171803 0.500000 0.000000
O O12 0.337775 0.212620 0.184666
O O13 0.406543 0.126627 0.100647
O O14 0.886548 0.500000 0.131448
O O15 0.846546 0.302648 0.191410
O O16 0.058075 0.500000 0.500000
O O17 0.000000 0.500000 0.396362
O O18 0.796850 0.500000 0.251745
O O19 0.750000 0.750000 0.250000
#
# Coordination Sequence:
#
# PCOD9524056 Si02
#       8
#     8   8   8   8  16  16   8  16
#     4  11  20  33  57  86 111 153 201 256 295 343
#     4   9  14  26  54  82 115 142 175 234 296 353
#     4  11  22  40  65  90 116 155 208 255 299 359
#     4   9  16  27  51  77 106 137 189 240 287 345
#     4  12  21  39  58  87 118 153 205 248 301 361
#     4   9  17  32  50  81 111 148 186 228 295 354
#     4  11  22  38  59  84 120 157 190 245 313 369
#     4  11  25  41  59  83 121 165 201 249 307 366
#
# _framework density 17.250865000000001
#
# number of rings (size 3 to 8) (size 9 to 14) (size 15 to 20)
#    0.000    1.545    4.545    1.636    1.273    2.909 
#    3.273    0.000    0.000    0.000    0.000    0.000 
#    0.000    0.727    0.000    0.000    0.000    0.000 
#
# Total GULP energy -245110.591222 kJ/mol
# GULP energy per Si atom -5570.695255 kJ/mol
# Density = 1.721160 g / cm^3
# Si number density = 17.250865 Si / 1000 Ang^3
#
#
#
# Elastic Constant Matrix: (Units=GPa)
#
#
# Indices 1 2 3 4 5 6 
#
# 1 207.1514 59.3932 93.9006 0.0000 0.0000 0.0000
# 2 59.3932 98.2701 39.7098 0.0000 0.0000 0.0000
# 3 93.9006 39.7098 148.5796 0.0000 0.0000 0.0000
# 4 0.0000 0.0000 0.0000 91.1970 0.0000 0.0000
# 5 0.0000 0.0000 0.0000 0.0000 188.1580 0.0000
# 6 0.0000 0.0000 0.0000 0.0000 0.0000 41.2189
#
#
#
# Elastic Compliance Matrix: (Units=1/GPa)
#
#
# Indices 1 2 3 4 5 6 
#
# 1 0.007441 -0.002911 -0.003925 0.000000 0.000000 0.000000
# 2 -0.002911 0.012547 -0.001513 0.000000 0.000000 0.000000
# 3 -0.003925 -0.001513 0.009615 0.000000 0.000000 0.000000
# 4 0.000000 0.000000 0.000000 0.010965 0.000000 0.000000
# 5 0.000000 0.000000 0.000000 0.000000 0.005315 0.000000
# 6 0.000000 0.000000 0.000000 0.000000 0.000000 0.024261
#
#
# Mechanical properties :
#
#
# Convention : Reuss Voigt Hill
#
# Bulk Modulus (GPa) = 77.49145 93.33425 85.41285
# Shear Modulus (GPa) = 54.85785 81.51461 68.18623
#
# Velocity S-wave (km/s) = 5.64527 6.88150 6.29381
# Velocity P-wave (km/s) = 9.35468 10.83336 10.12106
#
# Compressibility (1/GPa) = 0.01290465
#
# Stress axis : x y z
#
# Youngs Moduli (GPa) = 134.38810 79.69886 104.00229
#
# Poissons Ratio (x) = 0.23204 0.40817
# Poissons Ratio (y) = 0.39126 0.15740
# Poissons Ratio (z) = 0.52742 0.12062
#
# Static dielectric constant tensor:
#      x y z
#    x 1.597580 0.000000 0.000000 
#    y 0.000000 1.597760 0.000000 
#    z 0.000000 0.000000 1.577460 
# 
# From -- ./inp_files/55663.got.cif
#   From: 2010.05.17/outbox.cif.g08.bks.cpg/sg71_28_cif.got.tgz:55663.got - 2010.06.03 16:22:01.
