data_PCOD9524647
_publ_section_title
;
Structure prediction by ZEFSAII (Michael W. Deem and Ramdas Pophale) SiO2 
 PCOD9524647
Probable space group: I M M M
;
_chemical_formula_sum "Si O2"
_cell_formula_units_Z 112
_cell_length_a 23.938792
_cell_length_b 7.290092
_cell_length_c 25.635431
_cell_angle_alpha 90.000000
_cell_angle_beta 90.000000
_cell_angle_gamma 90.000000
_cell_volume 4473.792775
_symmetry_space_group_name_H-M "I M M M"
_symmetry_group_IT_number 71
_symmetry_cell_setting 'orthorhombic'
loop_
_space_group_symop_operation_xyz
x,y,z
-x,-y,z
x,-y,-z
-x,y,-z
-x,-y,-z
x,y,-z
-x,y,z
x,-y,z
1/2+x,1/2+y,1/2+z
1/2-x,1/2-y,1/2+z
1/2+x,1/2-y,1/2-z
1/2-x,1/2+y,1/2-z
1/2-x,1/2-y,1/2-z
1/2+x,1/2+y,1/2-z
1/2-x,1/2+y,1/2+z
1/2+x,1/2-y,1/2+z
loop_
_atom_site_type_symbol
_atom_site_label
_atom_site_fract_x
_atom_site_fract_y
_atom_site_fract_z
Si Si1 0.845068 0.708220 0.273726
Si Si2 0.937368 0.778736 0.640842
Si Si3 0.260252 0.791572 0.144327
Si Si4 0.440114 0.714883 0.576730
Si Si5 0.852659 0.778769 0.558676
Si Si6 0.817739 0.775268 0.056506
Si Si7 0.561797 0.221139 0.699930
O O1 0.829670 0.500000 0.259004
O O2 0.893750 0.703278 0.317528
O O3 0.791377 0.788829 0.304560
O O4 0.881173 0.791822 0.226674
O O5 0.912572 0.736255 0.583990
O O6 0.000000 0.714347 0.648418
O O7 0.936357 0.000000 0.646665
O O8 0.307306 0.795616 0.098976
O O9 0.210114 0.708824 0.110430
O O10 0.244913 0.000000 0.158623
O O11 0.500000 0.792982 0.560432
O O12 0.440815 0.500000 0.563095
O O13 0.381749 0.786282 0.556272
O O14 0.437599 0.731164 0.639283
O O15 0.846315 0.713744 0.500000
O O16 0.846447 0.000000 0.559185
O O17 0.815597 0.000000 0.058525
O O18 0.791919 0.722881 0.000000
O O19 0.500000 0.282068 0.720684
O O20 0.562647 0.000000 0.705428
#
# Coordination Sequence:
#
# PCOD9524647 Si02
#       7
#    16  16  16  16  16  16  16
#     4   9  17  29  46  67  90 119 155 192 229 270
#     4   9  17  27  39  58  84 114 150 192 235 277
#     4   9  17  30  48  68  90 117 152 192 229 270
#     4   9  18  32  50  73  98 122 152 191 231 274
#     4   9  17  28  41  58  83 115 150 190 234 277
#     4   9  17  30  50  74  97 122 153 190 234 282
#     4   9  17  30  48  68  93 126 158 188 228 277
#
# _framework density 25.034685
#
# number of rings (size 3 to 8) (size 9 to 14) (size 15 to 20)
#    0.000    3.000    0.000    0.857    0.000    2.857 
#    0.000    5.714    0.000    1.286    0.000    6.000 
#    0.000    0.000    0.000    0.000    0.000    0.000 
#
# Total GULP energy -312492.272794 kJ/mol
# GULP energy per Si atom -5580.219157 kJ/mol
# Density = 2.497771 g / cm^3
# Si number density = 25.034685 Si / 1000 Ang^3
#
#
#
# Elastic Constant Matrix: (Units=GPa)
#
#
# Indices 1 2 3 4 5 6 
#
# 1 126.9278 4.5565 46.7738 0.0000 0.0000 0.0000
# 2 4.5565 110.9144 -2.5691 0.0000 0.0000 0.0000
# 3 46.7738 -2.5691 117.5430 0.0000 0.0000 0.0000
# 4 0.0000 0.0000 0.0000 53.5940 0.0000 0.0000
# 5 0.0000 0.0000 0.0000 0.0000 12.0604 0.0000
# 6 0.0000 0.0000 0.0000 0.0000 0.0000 1.7022
#
#
#
# Elastic Compliance Matrix: (Units=1/GPa)
#
#
# Indices 1 2 3 4 5 6 
#
# 1 0.009256 -0.000466 -0.003694 0.000000 0.000000 0.000000
# 2 -0.000466 0.009044 0.000383 0.000000 0.000000 0.000000
# 3 -0.003694 0.000383 0.009986 0.000000 0.000000 0.000000
# 4 0.000000 0.000000 0.000000 0.018659 0.000000 0.000000
# 5 0.000000 0.000000 0.000000 0.000000 0.082916 0.000000
# 6 0.000000 0.000000 0.000000 0.000000 0.000000 0.587477
#
#
# Mechanical properties :
#
#
# Convention : Reuss Voigt Hill
#
# Bulk Modulus (GPa) = 48.23158 50.32306 49.27732
# Shear Modulus (GPa) = 6.83245 33.91291 20.37268
#
# Velocity S-wave (km/s) = 1.65382 3.68453 2.85577
# Velocity P-wave (km/s) = 4.79109 6.18434 5.53175
#
# Compressibility (1/GPa) = 0.02073331
#
# Stress axis : x y z
#
# Youngs Moduli (GPa) = 108.03438 110.57091 100.14355
#
# Poissons Ratio (x) = 0.05151 0.36988
# Poissons Ratio (y) = 0.05032 -0.03836
# Poissons Ratio (z) = 0.39903 -0.04235
#
# Static dielectric constant tensor:
#      x y z
#    x 2.006760 0.000000 0.000000 
#    y 0.000000 1.947080 0.000000 
#    z 0.000000 0.000000 1.968710 
# 
# From -- ./inp_files/61668.got.cif
#   From: 2010.05.17/outbox.cif.g08.bks.cpg/sg71_31_cif.got.tgz:61668.got - 2010.06.03 16:22:01.
