data_PCOD9524611
_publ_section_title
;
Structure prediction by ZEFSAII (Michael W. Deem and Ramdas Pophale) SiO2 
 PCOD9524611
Probable space group: I M M M
;
_chemical_formula_sum "Si O2"
_cell_formula_units_Z 80
_cell_length_a 14.961138
_cell_length_b 33.104022
_cell_length_c 8.138359
_cell_angle_alpha 90.000000
_cell_angle_beta 90.000000
_cell_angle_gamma 90.000000
_cell_volume 4030.716325
_symmetry_space_group_name_H-M "I M M M"
_symmetry_group_IT_number 71
_symmetry_cell_setting 'orthorhombic'
loop_
_space_group_symop_operation_xyz
x,y,z
-x,-y,z
x,-y,-z
-x,y,-z
-x,-y,-z
x,y,-z
-x,y,z
x,-y,z
1/2+x,1/2+y,1/2+z
1/2-x,1/2-y,1/2+z
1/2+x,1/2-y,1/2-z
1/2-x,1/2+y,1/2-z
1/2-x,1/2-y,1/2-z
1/2+x,1/2+y,1/2-z
1/2-x,1/2+y,1/2+z
1/2+x,1/2-y,1/2+z
loop_
_atom_site_type_symbol
_atom_site_label
_atom_site_fract_x
_atom_site_fract_y
_atom_site_fract_z
Si Si1 0.110077 0.239792 0.500000
Si Si2 0.637523 0.594924 0.683194
Si Si3 0.893755 0.331901 0.500000
Si Si4 0.607150 0.690064 0.683658
Si Si5 0.135796 0.953441 0.500000
Si Si6 0.149797 0.592175 0.323502
Si Si7 0.644964 0.046908 0.500000
O O1 0.139225 0.286379 0.500000
O O2 0.140645 0.216665 0.335447
O O3 0.000000 0.239023 0.500000
O O4 0.602418 0.585557 0.500000
O O5 0.623591 0.642533 0.712747
O O6 0.603916 0.569168 0.836066
O O7 0.743680 0.587097 0.677457
O O8 0.865810 0.359686 0.344581
O O9 0.000000 0.330347 0.500000
O O10 0.641801 0.699844 0.500000
O O11 0.500000 0.695528 0.678891
O O12 0.245489 0.952091 0.500000
O O13 0.110030 0.000000 0.500000
O O14 0.115249 0.575902 0.500000
O O15 0.114152 0.570422 0.163088
O O16 0.618737 0.000000 0.500000
#
# Coordination Sequence:
#
# PCOD9524611 Si02
#       7
#     8  16   8  16   8  16   8
#     4   9  17  31  47  66  92 121 155 193 222 261
#     4   9  16  29  48  66  94 122 149 193 231 265
#     4   9  18  35  52  65  91 125 153 181 224 282
#     4   9  17  29  48  70  91 120 159 192 226 266
#     4   9  17  27  44  72  95 120 157 191 224 268
#     4   8  17  31  48  68  93 121 150 184 226 271
#     4   9  16  29  50  74  93 116 154 191 223 266
#
# _framework density 19.847587999999998
#
# number of rings (size 3 to 8) (size 9 to 14) (size 15 to 20)
#    0.600    2.600    0.000    0.600    0.000    0.800 
#    1.800    5.500    0.000    3.000    0.000    2.800 
#    0.000    0.000    0.000    0.000    0.000    0.000 
#
# Total GULP energy -222730.272699 kJ/mol
# GULP energy per Si atom -5568.256817 kJ/mol
# Density = 1.980241 g / cm^3
# Si number density = 19.847588 Si / 1000 Ang^3
#
#
#
# Elastic Constant Matrix: (Units=GPa)
#
#
# Indices 1 2 3 4 5 6 
#
# 1 40.1843 -2.8863 11.8248 0.0001 0.0133 0.0001
# 2 -2.8863 150.3305 149.8549 -0.0011 0.0039 -0.0004
# 3 11.8248 149.8549 228.2233 -0.0089 0.0429 -0.0009
# 4 0.0001 -0.0011 -0.0089 34.9167 0.0027 0.0011
# 5 0.0133 0.0039 0.0429 0.0027 1.5129 -0.0023
# 6 0.0001 -0.0004 -0.0009 0.0011 -0.0023 20.1364
#
#
#
# Elastic Compliance Matrix: (Units=1/GPa)
#
#
# Indices 1 2 3 4 5 6 
#
# 1 0.026747 0.005485 -0.004988 -0.000001 -0.000108 0.000000
# 2 0.005485 0.020380 -0.013666 -0.000003 0.000286 0.000000
# 3 -0.004988 -0.013666 0.013614 0.000003 -0.000306 0.000000
# 4 -0.000001 -0.000003 0.000003 0.028640 -0.000051 -0.000002
# 5 -0.000108 0.000286 -0.000306 -0.000051 0.661003 0.000077
# 6 0.000000 0.000000 0.000000 -0.000002 0.000077 0.049661
#
#
# Mechanical properties :
#
#
# Convention : Reuss Voigt Hill
#
# Bulk Modulus (GPa) = 29.06645 81.81389 55.44017
# Shear Modulus (GPa) = 5.96765 28.64284 17.30524
#
# Velocity S-wave (km/s) = 1.73588 3.80299 2.95601
# Velocity P-wave (km/s) = 4.32369 7.78423 6.29637
#
# Compressibility (1/GPa) = 0.03440393
#
# Stress axis : x y z
#
# Youngs Moduli (GPa) = 37.38734 49.06658 73.45539
#
# Poissons Ratio (x) = -0.26914 0.36636
# Poissons Ratio (y) = -0.20508 1.00387
# Poissons Ratio (z) = 0.18647 0.67056
#
# Static dielectric constant tensor:
#      x y z
#    x 1.730380 0.000000 0.000000 
#    y 0.000000 1.663620 0.000000 
#    z 0.000000 0.000000 1.712550 
# 
# From -- ./inp_files/10346.got.cif
#   From: 2010.05.17/outbox.cif.g08.bks.cpg/sg71_6_cif.got.tgz:10346.got - 2010.06.03 16:22:01.
