data_PCOD9524845
_publ_section_title
;
Structure prediction by ZEFSAII (Michael W. Deem and Ramdas Pophale) SiO2 
 PCOD9524845
Probable space group: I M M M
;
_chemical_formula_sum "Si O2"
_cell_formula_units_Z 44
_cell_length_a 9.000000
_cell_length_b 30.000000
_cell_length_c 18.000000
_cell_angle_alpha 90.000000
_cell_angle_beta 90.000000
_cell_angle_gamma 90.000000
_cell_volume 4860.000000
_symmetry_space_group_name_H-M "I M M M"
_symmetry_group_IT_number 71
_symmetry_cell_setting 'orthorhombic'
loop_
_space_group_symop_operation_xyz
x,y,z
-x,-y,z
x,-y,-z
-x,y,-z
-x,-y,-z
x,y,-z
-x,y,z
x,-y,z
1/2+x,1/2+y,1/2+z
1/2-x,1/2-y,1/2+z
1/2+x,1/2-y,1/2-z
1/2-x,1/2+y,1/2-z
1/2-x,1/2-y,1/2-z
1/2+x,1/2+y,1/2-z
1/2-x,1/2+y,1/2+z
1/2+x,1/2-y,1/2+z
loop_
_atom_site_type_symbol
_atom_site_label
_atom_site_fract_x
_atom_site_fract_y
_atom_site_fract_z
Si Si1 0.180232 0.113919 0.365816
Si Si2 0.180242 0.550960 0.580677
Si Si3 0.819525 0.554165 0.000000
Si Si4 0.180325 0.621866 0.298458
Si Si5 0.332736 0.284746 0.088782
Si Si6 0.322522 0.693382 0.588625
O O1 0.251731 0.079636 0.426640
O O2 0.248432 0.113263 0.282535
O O3 0.210583 0.165167 0.389954
O O4 0.000000 0.107669 0.365135
O O5 0.229714 0.568906 0.500000
O O6 0.229365 0.500000 0.586615
O O7 0.223390 0.579878 0.650270
O O8 0.000000 0.550889 0.579451
O O9 0.788016 0.500000 0.000000
O O10 0.000000 0.558997 0.000000
O O11 0.241681 0.662559 0.349727
O O12 0.000000 0.625317 0.292148
O O13 0.500000 0.275944 0.118468
O O14 0.223771 0.244262 0.107820
O O15 0.341378 0.284459 0.000000
O O16 0.280700 0.685408 0.500000
O O17 0.500000 0.687497 0.593603
#
# Coordination Sequence:
#
# PCOD9524845 Si02
#       6
#    16  16   8  16  16  16
#     4  11  23  41  63  88 118 154 194 244 303 359
#     4   8  15  30  53  79 107 143 188 235 282 335
#     4  11  25  45  69  95 121 153 199 251 302 365
#     4  11  22  35  55  86 121 157 195 242 298 359
#     4   9  18  36  60  83 109 148 197 244 292 354
#     4  10  21  36  56  85 119 158 200 246 297 351
#
# _framework density 9.0534979999999994
#
# number of rings (size 3 to 8) (size 9 to 14) (size 15 to 20)
#    0.000    2.091    0.909    3.000    0.000    5.455 
#    0.000    1.818    0.000    1.636    0.000    6.364 
#    0.000    0.000    0.000    0.000    0.000    0.000 
#
# Total GULP energy -245150.599557 kJ/mol
# GULP energy per Si atom -5571.604535 kJ/mol
# Density = 0.903289 g / cm^3
# Si number density = 9.053498 Si / 1000 Ang^3
#
#
#
# Elastic Constant Matrix: (Units=GPa)
#
#
# Indices 1 2 3 4 5 6 
#
# 1 81.9836 49.6439 63.3667 0.0000 0.0000 0.0000
# 2 49.6439 126.4152 85.1544 0.0000 0.0000 0.0000
# 3 63.3667 85.1544 149.9894 -0.0001 0.0000 0.0000
# 4 0.0000 0.0000 -0.0001 16.0973 0.0000 0.0000
# 5 0.0000 0.0000 0.0000 0.0000 36.0865 0.0000
# 6 0.0000 0.0000 0.0000 0.0000 0.0000 25.4875
#
#
#
# Elastic Compliance Matrix: (Units=1/GPa)
#
#
# Indices 1 2 3 4 5 6 
#
# 1 0.018932 -0.003315 -0.006117 0.000000 0.000000 0.000000
# 2 -0.003315 0.013389 -0.006201 0.000000 0.000000 0.000000
# 3 -0.006117 -0.006201 0.012772 0.000000 0.000000 0.000000
# 4 0.000000 0.000000 0.000000 0.062122 0.000000 0.000000
# 5 0.000000 0.000000 0.000000 0.000000 0.027711 0.000000
# 6 0.000000 0.000000 0.000000 0.000000 0.000000 0.039235
#
#
# Mechanical properties :
#
#
# Convention : Reuss Voigt Hill
#
# Bulk Modulus (GPa) = 72.31383 83.85756 78.08570
# Shear Modulus (GPa) = 23.80543 26.21584 25.01064
#
# Velocity S-wave (km/s) = 3.62983 3.80916 3.72057
# Velocity P-wave (km/s) = 7.58888 8.10920 7.85335
#
# Compressibility (1/GPa) = 0.01382861
#
# Stress axis : x y z
#
# Youngs Moduli (GPa) = 52.81983 74.68633 78.29683
#
# Poissons Ratio (x) = 0.24756 0.47891
# Poissons Ratio (y) = 0.17508 0.48554
# Poissons Ratio (z) = 0.32308 0.46315
#
# Static dielectric constant tensor:
#      x y z
#    x 1.626110 0.000000 0.000000 
#    y 0.000000 1.634800 0.000000 
#    z 0.000000 0.000000 1.617830 
# 
# From -- ./inp_files/42440.got.cif
#   From: 2010.05.17/outbox.ucp.g08.bks.cvg/sg71_22_cif.got.tgz:42440.got - 2010.06.11 16:29:00.
