data_PCOD9524706
_publ_section_title
;
Structure prediction by ZEFSAII (Michael W. Deem and Ramdas Pophale) SiO2 
 PCOD9524706
Probable space group: I M M M
;
_chemical_formula_sum "Si O2"
_cell_formula_units_Z 52
_cell_length_a 15.000000
_cell_length_b 18.000000
_cell_length_c 21.000000
_cell_angle_alpha 90.000000
_cell_angle_beta 90.000000
_cell_angle_gamma 90.000000
_cell_volume 5670.000000
_symmetry_space_group_name_H-M "I M M M"
_symmetry_group_IT_number 71
_symmetry_cell_setting 'orthorhombic'
loop_
_space_group_symop_operation_xyz
x,y,z
-x,-y,z
x,-y,-z
-x,y,-z
-x,-y,-z
x,y,-z
-x,y,z
x,-y,z
1/2+x,1/2+y,1/2+z
1/2-x,1/2-y,1/2+z
1/2+x,1/2-y,1/2-z
1/2-x,1/2+y,1/2-z
1/2-x,1/2-y,1/2-z
1/2+x,1/2+y,1/2-z
1/2-x,1/2+y,1/2+z
1/2+x,1/2-y,1/2+z
loop_
_atom_site_type_symbol
_atom_site_label
_atom_site_fract_x
_atom_site_fract_y
_atom_site_fract_z
Si Si1 0.605929 0.695231 0.426614
Si Si2 0.600123 0.916557 0.764164
Si Si3 0.238278 0.809933 0.574874
Si Si4 0.106708 0.912255 0.808758
Si Si5 0.279283 0.415400 0.188691
Si Si6 0.104583 0.315741 0.615265
Si Si7 0.891644 0.418552 0.500000
O O1 0.622231 0.669491 0.500000
O O2 0.500000 0.710924 0.421311
O O3 0.667149 0.767644 0.416903
O O4 0.628583 0.635051 0.372044
O O5 0.500000 0.908337 0.737955
O O6 0.678372 0.912349 0.714116
O O7 0.614522 0.854193 0.816873
O O8 0.604262 0.000000 0.793724
O O9 0.225884 0.823754 0.500000
O O10 0.224547 0.879453 0.620004
O O11 0.164215 0.754138 0.601717
O O12 0.159229 0.883576 0.746133
O O13 0.000000 0.907005 0.798600
O O14 0.128888 0.000000 0.818007
O O15 0.309358 0.500000 0.182814
O O16 0.133992 0.374965 0.562584
O O17 0.000000 0.299264 0.605842
O O18 0.853929 0.500000 0.500000
O O19 0.000000 0.422426 0.500000
#
# Coordination Sequence:
#
# PCOD9524706 Si02
#       7
#    16  16  16  16  16  16   8
#     4   9  19  35  55  80 111 144 177 214 261 314
#     4   9  18  33  54  81 112 141 171 211 259 317
#     4  11  23  38  55  75 105 138 178 230 276 320
#     4   9  18  34  56  81 110 143 180 218 255 307
#     4  10  22  39  57  76 100 135 180 231 279 321
#     4  10  19  32  52  80 112 144 174 205 252 314
#     4   9  16  28  48  74 108 148 178 197 230 292
#
# _framework density 9.1710759999999993
#
# number of rings (size 3 to 8) (size 9 to 14) (size 15 to 20)
#    0.000    2.385    0.769    1.385    0.000    6.154 
#    0.000    5.385    0.000    0.000    0.000    7.538 
#    0.000    0.000    0.000    0.000    0.000    0.000 
#
# Total GULP energy -289812.358190 kJ/mol
# GULP energy per Si atom -5573.314581 kJ/mol
# Density = 0.915020 g / cm^3
# Si number density = 9.171076 Si / 1000 Ang^3
#
#
#
# Elastic Constant Matrix: (Units=GPa)
#
#
# Indices 1 2 3 4 5 6 
#
# 1 39.1450 27.7239 35.0607 0.0000 0.0000 0.0000
# 2 27.7239 41.5517 37.6559 0.0000 0.0000 0.0000
# 3 35.0607 37.6559 31.6251 0.0000 0.0000 0.0000
# 4 0.0000 0.0000 0.0000 30.2109 0.0000 0.0000
# 5 0.0000 0.0000 0.0000 0.0000 13.5941 0.0000
# 6 0.0000 0.0000 0.0000 0.0000 0.0000 -19.0727
#
#
#
# Elastic Compliance Matrix: (Units=1/GPa)
#
#
# Indices 1 2 3 4 5 6 
#
# 1 0.016630 -0.070986 0.066087 0.000000 0.000000 0.000000
# 2 -0.070986 -0.001394 0.080358 0.000000 0.000000 0.000000
# 3 0.066087 0.080358 -0.137328 0.000000 0.000000 0.000000
# 4 0.000000 0.000000 0.000000 0.033101 0.000000 0.000000
# 5 0.000000 0.000000 0.000000 0.000000 0.073561 0.000000
# 6 0.000000 0.000000 0.000000 0.000000 0.000000 -0.052431
#
#
# Mechanical properties :
#
#
# Convention : Reuss Voigt Hill
#
# Bulk Modulus (GPa) = 34.69230 34.80032 34.74631
# Shear Modulus (GPa) = -23.90398 5.73856 -9.08271
#
# Velocity S-wave (km/s) = -3.61394 1.77071 -2.22768
# Velocity P-wave (km/s) = 1.24135 4.81608 3.51679
#
# Compressibility (1/GPa) = 0.02882484
#
# Stress axis : x y z
#
# Youngs Moduli (GPa) = 60.13333 -717.18318 -7.28186
#
# Poissons Ratio (x) = -50.91004 0.48123
# Poissons Ratio (y) = 4.26863 0.58516
# Poissons Ratio (z) = -3.97401 57.63140
#
# Static dielectric constant tensor:
#      x y z
#    x 1.641630 0.000000 0.000000 
#    y 0.000000 1.621220 0.000000 
#    z 0.000000 0.000000 1.599850 
# 
# From -- ./inp_files/53177.got.cif
#   From: 2010.05.17/outbox.ucp.g08.bks.cvg/sg71_27_cif.got.tgz:53177.got - 2010.06.11 16:29:00.
