data_PCOD9524640
_publ_section_title
;
Structure prediction by ZEFSAII (Michael W. Deem and Ramdas Pophale) SiO2 
 PCOD9524640
Probable space group: I M M M
;
_chemical_formula_sum "Si O2"
_cell_formula_units_Z 104
_cell_length_a 21.633721
_cell_length_b 32.791219
_cell_length_c 7.525629
_cell_angle_alpha 90.000000
_cell_angle_beta 90.000000
_cell_angle_gamma 90.000000
_cell_volume 5338.651735
_symmetry_space_group_name_H-M "I M M M"
_symmetry_group_IT_number 71
_symmetry_cell_setting 'orthorhombic'
loop_
_space_group_symop_operation_xyz
x,y,z
-x,-y,z
x,-y,-z
-x,y,-z
-x,-y,-z
x,y,-z
-x,y,z
x,-y,z
1/2+x,1/2+y,1/2+z
1/2-x,1/2-y,1/2+z
1/2+x,1/2-y,1/2-z
1/2-x,1/2+y,1/2-z
1/2-x,1/2-y,1/2-z
1/2+x,1/2+y,1/2-z
1/2-x,1/2+y,1/2+z
1/2+x,1/2-y,1/2+z
loop_
_atom_site_type_symbol
_atom_site_label
_atom_site_fract_x
_atom_site_fract_y
_atom_site_fract_z
Si Si1 0.069361 0.000000 0.282763
Si Si2 0.181682 0.636851 0.287760
Si Si3 0.931185 0.691381 0.714735
Si Si4 0.682559 0.339633 0.704451
Si Si5 0.797182 0.455356 0.786705
Si Si6 0.069449 0.213051 0.788777
Si Si7 0.159981 0.069846 0.715494
O O1 0.106172 0.960034 0.227484
O O2 0.069732 0.000000 0.500000
O O3 0.000000 0.000000 0.220560
O O4 0.184712 0.642146 0.500000
O O5 0.124105 0.662918 0.219221
O O6 0.248201 0.653436 0.217445
O O7 0.173215 0.588294 0.259884
O O8 0.931241 0.689119 0.500000
O O9 0.921951 0.738617 0.763577
O O10 0.000000 0.679289 0.776346
O O11 0.691489 0.326148 0.500000
O O12 0.629685 0.310482 0.784478
O O13 0.655193 0.385107 0.709384
O O14 0.819739 0.500000 0.721997
O O15 0.725728 0.449471 0.731517
O O16 0.798487 0.457082 0.000000
O O17 0.000000 0.202758 0.718937
O O18 0.067710 0.204444 0.000000
O O19 0.160106 0.072706 0.500000
#
# Coordination Sequence:
#
# PCOD9524640 Si02
#       7
#     8  16  16  16  16  16  16
#     4   9  16  26  41  61  85 115 152 191 228 264
#     4   9  18  31  47  70  95 118 148 186 229 271
#     4   9  18  33  51  69  91 118 148 185 227 272
#     4   9  18  31  45  65  93 120 148 187 228 266
#     4   9  16  28  47  68  91 119 150 185 223 266
#     4   9  18  32  48  65  89 124 158 184 220 270
#     4   9  16  28  44  62  86 117 151 188 227 264
#
# _framework density 19.480575000000002
#
# number of rings (size 3 to 8) (size 9 to 14) (size 15 to 20)
#    0.000    3.000    0.769    0.000    0.000    2.769 
#    0.000    0.385    0.000    0.923    0.000    3.231 
#    0.000    0.000    0.000    0.000    0.000    0.000 
#
# Total GULP energy -289664.203411 kJ/mol
# GULP energy per Si atom -5570.465450 kJ/mol
# Density = 1.943624 g / cm^3
# Si number density = 19.480575 Si / 1000 Ang^3
#
#
#
# Elastic Constant Matrix: (Units=GPa)
#
#
# Indices 1 2 3 4 5 6 
#
# 1 143.4646 103.4016 6.6319 0.0000 0.0000 0.0000
# 2 103.4016 118.1760 -1.4143 0.0000 0.0000 0.0000
# 3 6.6319 -1.4143 48.5758 0.0000 0.0001 0.0000
# 4 0.0000 0.0000 0.0000 18.6300 0.0000 0.0000
# 5 0.0000 0.0000 0.0001 0.0000 -0.6685 0.0000
# 6 0.0000 0.0000 0.0000 0.0000 0.0000 20.8868
#
#
#
# Elastic Compliance Matrix: (Units=1/GPa)
#
#
# Indices 1 2 3 4 5 6 
#
# 1 0.019337 -0.016957 -0.003134 0.000000 0.000000 0.000000
# 2 -0.016957 0.023335 0.002994 0.000000 0.000000 0.000000
# 3 -0.003134 0.002994 0.021101 0.000000 0.000002 0.000000
# 4 0.000000 0.000000 0.000000 0.053677 0.000001 0.000000
# 5 0.000000 0.000000 0.000002 0.000001 -1.495839 0.000000
# 6 0.000000 0.000000 0.000000 0.000000 0.000000 0.047877
#
#
# Mechanical properties :
#
#
# Convention : Reuss Voigt Hill
#
# Bulk Modulus (GPa) = 33.80575 58.60608 46.20592
# Shear Modulus (GPa) = -3.88664 21.20948 8.66142
#
# Velocity S-wave (km/s) = -1.41402 3.30320 2.11088
# Velocity P-wave (km/s) = 3.83735 6.68565 5.45083
#
# Compressibility (1/GPa) = 0.02958077
#
# Stress axis : x y z
#
# Youngs Moduli (GPa) = 51.71501 42.85478 47.39019
#
# Poissons Ratio (x) = 0.72668 0.14851
# Poissons Ratio (y) = 0.87692 -0.14191
# Poissons Ratio (z) = 0.16206 -0.12833
#
# Static dielectric constant tensor:
#      x y z
#    x 1.697920 0.000000 0.000000 
#    y 0.000000 1.664780 0.000000 
#    z 0.000000 0.000000 1.735610 
# 
# From -- ./inp_files/13614.got.cif
#   From: 2010.05.17/outbox.cif.g08.bks.cpg/sg71_7_cif.got.tgz:13614.got - 2010.06.03 16:22:01.
