data_PCOD9524224
_publ_section_title
;
Structure prediction by ZEFSAII (Michael W. Deem and Ramdas Pophale) SiO2 
 PCOD9524224
Probable space group: I M M M
;
_chemical_formula_sum "Si O2"
_cell_formula_units_Z 88
_cell_length_a 25.239056
_cell_length_b 10.203416
_cell_length_c 18.774877
_cell_angle_alpha 90.000000
_cell_angle_beta 90.000000
_cell_angle_gamma 90.000000
_cell_volume 4834.992461
_symmetry_space_group_name_H-M "I M M M"
_symmetry_group_IT_number 71
_symmetry_cell_setting 'orthorhombic'
loop_
_space_group_symop_operation_xyz
x,y,z
-x,-y,z
x,-y,-z
-x,y,-z
-x,-y,-z
x,y,-z
-x,y,z
x,-y,z
1/2+x,1/2+y,1/2+z
1/2-x,1/2-y,1/2+z
1/2+x,1/2-y,1/2-z
1/2-x,1/2+y,1/2-z
1/2-x,1/2-y,1/2-z
1/2+x,1/2+y,1/2-z
1/2-x,1/2+y,1/2+z
1/2+x,1/2-y,1/2+z
loop_
_atom_site_type_symbol
_atom_site_label
_atom_site_fract_x
_atom_site_fract_y
_atom_site_fract_z
Si Si1 0.400758 0.744613 0.175747
Si Si2 0.327296 0.500000 0.165147
Si Si3 0.332366 0.000000 0.214288
Si Si4 0.787719 0.000000 0.828901
Si Si5 0.706684 0.000000 0.377864
Si Si6 0.659109 0.272279 0.418826
Si Si7 0.000000 0.657454 0.415090
Si Si8 0.561028 0.656499 0.668793
O O1 0.362252 0.628404 0.149630
O O2 0.447797 0.781646 0.121793
O O3 0.425991 0.696007 0.250231
O O4 0.365615 0.872103 0.193217
O O5 0.312788 0.500000 0.249727
O O6 0.270364 0.500000 0.127279
O O7 0.317918 0.000000 0.297947
O O8 0.275406 0.000000 0.176485
O O9 0.807776 0.872613 0.870385
O O10 0.685760 0.869155 0.414432
O O11 0.656721 0.318225 0.500000
O O12 0.601078 0.271163 0.383765
O O13 0.000000 0.500000 0.402700
O O14 0.000000 0.679696 0.500000
O O15 0.500000 0.685685 0.653386
O O16 0.569431 0.500000 0.661226
#
# Coordination Sequence:
#
# PCOD9524224 Si02
#       8
#    16   8   8   8   8  16   8  16
#     4  12  20  40  67  97 122 159 207 261 308 367
#     4  11  22  39  67  94 126 155 209 269 304 357
#     4  11  22  35  67  96 116 157 219 265 300 355
#     4  11  21  40  61  94 121 163 214 259 302 365
#     4  11  23  40  61  92 129 161 208 259 310 363
#     4  12  23  40  60  88 131 170 203 249 314 375
#     4  11  26  45  65  93 130 167 200 256 324 370
#     4  11  22  38  64  97 124 157 210 262 306 357
#
# _framework density 18.20065
#
# number of rings (size 3 to 8) (size 9 to 14) (size 15 to 20)
#    0.000    0.636    7.273    1.636    0.000    3.636 
#    0.000    8.636    0.000    1.091    0.000    0.000 
#    0.000    0.000    0.000    0.000    0.000    0.000 
#
# Total GULP energy -246000.956828 kJ/mol
# GULP energy per Si atom -5590.930837 kJ/mol
# Density = 1.815922 g / cm^3
# Si number density = 18.200650 Si / 1000 Ang^3
#
#
#
# Elastic Constant Matrix: (Units=GPa)
#
#
# Indices 1 2 3 4 5 6 
#
# 1 160.4371 58.9967 53.8845 0.0000 0.0000 0.0000
# 2 58.9967 112.3566 16.0942 0.0000 0.0000 0.0000
# 3 53.8845 16.0942 76.7519 0.0000 0.0000 0.0000
# 4 0.0000 0.0000 0.0000 17.6653 0.0000 0.0000
# 5 0.0000 0.0000 0.0000 0.0000 17.8545 0.0000
# 6 0.0000 0.0000 0.0000 0.0000 0.0000 15.4717
#
#
#
# Elastic Compliance Matrix: (Units=1/GPa)
#
#
# Indices 1 2 3 4 5 6 
#
# 1 0.009830 -0.004302 -0.005999 0.000000 0.000000 0.000000
# 2 -0.004302 0.011059 0.000701 0.000000 0.000000 0.000000
# 3 -0.005999 0.000701 0.017094 0.000000 0.000000 0.000000
# 4 0.000000 0.000000 0.000000 0.056608 0.000000 0.000000
# 5 0.000000 0.000000 0.000000 0.000000 0.056008 0.000000
# 6 0.000000 0.000000 0.000000 0.000000 0.000000 0.064634
#
#
# Mechanical properties :
#
#
# Convention : Reuss Voigt Hill
#
# Bulk Modulus (GPa) = 53.24043 67.49962 60.37003
# Shear Modulus (GPa) = 20.77335 24.90298 22.83817
#
# Velocity S-wave (km/s) = 3.38206 3.70299 3.54616
# Velocity P-wave (km/s) = 6.67582 7.44646 7.07164
#
# Compressibility (1/GPa) = 0.01878272
#
# Stress axis : x y z
#
# Youngs Moduli (GPa) = 101.73120 90.42604 58.50148
#
# Poissons Ratio (x) = 0.38903 0.35095
# Poissons Ratio (y) = 0.43767 -0.04104
# Poissons Ratio (z) = 0.61029 -0.06343
#
# Static dielectric constant tensor:
#      x y z
#    x 1.609030 0.000000 0.000000 
#    y 0.000000 1.609370 0.000000 
#    z 0.000000 0.000000 1.596020 
# 
# From -- ./inp_files/49317.got.cif
#   From: 2010.05.17/outbox.cif.g08.bks.cpg/sg71_25_cif.got.tgz:49317.got - 2010.06.03 16:22:01.
