data_PCOD9524181
_publ_section_title
;
Structure prediction by ZEFSAII (Michael W. Deem and Ramdas Pophale) SiO2 
 PCOD9524181
Probable space group: I M M M
;
_chemical_formula_sum "Si O2"
_cell_formula_units_Z 64
_cell_length_a 8.603769
_cell_length_b 36.225822
_cell_length_c 11.521313
_cell_angle_alpha 90.000000
_cell_angle_beta 90.000000
_cell_angle_gamma 90.000000
_cell_volume 3590.946756
_symmetry_space_group_name_H-M "I M M M"
_symmetry_group_IT_number 71
_symmetry_cell_setting 'orthorhombic'
loop_
_space_group_symop_operation_xyz
x,y,z
-x,-y,z
x,-y,-z
-x,y,-z
-x,-y,-z
x,y,-z
-x,y,z
x,-y,z
1/2+x,1/2+y,1/2+z
1/2-x,1/2-y,1/2+z
1/2+x,1/2-y,1/2-z
1/2-x,1/2+y,1/2-z
1/2-x,1/2-y,1/2-z
1/2+x,1/2+y,1/2-z
1/2-x,1/2+y,1/2+z
1/2+x,1/2-y,1/2+z
loop_
_atom_site_type_symbol
_atom_site_label
_atom_site_fract_x
_atom_site_fract_y
_atom_site_fract_z
Si Si1 0.688868 0.356740 0.631157
Si Si2 0.186208 0.928869 0.738902
Si Si3 0.314375 0.042810 0.500000
Si Si4 0.188317 0.228324 0.135922
Si Si5 0.677274 0.000000 0.138078
O O1 0.734559 0.366525 0.500000
O O2 0.500000 0.356385 0.635103
O O3 0.743183 0.389320 0.714374
O O4 0.736803 0.314588 0.652944
O O5 0.250589 0.937321 0.612795
O O6 0.240669 0.963008 0.817764
O O7 0.000000 0.928362 0.737405
O O8 0.500000 0.043094 0.500000
O O9 0.262294 0.000000 0.500000
O O10 0.250000 0.250000 0.250000
O O11 0.000000 0.230357 0.137660
O O12 0.233602 0.238583 0.000000
O O13 0.500000 0.000000 0.183707
O O14 0.675038 0.000000 0.000000
#
# Coordination Sequence:
#
# PCOD9524181 Si02
#       5
#    16  16   8  16   8
#     4   8  16  33  56  81 108 137 171 220 274 314
#     4  11  21  35  58  81 101 132 184 231 264 310
#     4  11  23  39  55  71 106 150 178 212 274 332
#     4   9  18  35  58  83 114 148 182 223 273 330
#     4  11  23  36  51  76 111 143 169 209 272 329
#
# _framework density 17.822596999999998
#
# number of rings (size 3 to 8) (size 9 to 14) (size 15 to 20)
#    0.000    2.250    1.250    3.750    0.000    3.000 
#    2.250    2.500    0.000    3.000    0.000    0.000 
#    0.000    0.000    0.000    0.000    0.000    0.000 
#
# Total GULP energy -178355.382700 kJ/mol
# GULP energy per Si atom -5573.605709 kJ/mol
# Density = 1.778203 g / cm^3
# Si number density = 17.822597 Si / 1000 Ang^3
#
#
#
# Elastic Constant Matrix: (Units=GPa)
#
#
# Indices 1 2 3 4 5 6 
#
# 1 33.7465 24.6888 31.9412 0.0002 0.0000 0.0000
# 2 24.6888 130.6275 104.6863 0.0004 0.0000 0.0000
# 3 31.9412 104.6863 161.4579 0.0006 0.0000 0.0000
# 4 0.0002 0.0004 0.0006 42.8618 0.0000 0.0000
# 5 0.0000 0.0000 0.0000 0.0000 29.2764 0.0001
# 6 0.0000 0.0000 0.0000 0.0000 0.0001 15.4315
#
#
#
# Elastic Compliance Matrix: (Units=1/GPa)
#
#
# Indices 1 2 3 4 5 6 
#
# 1 0.036798 -0.002333 -0.005767 0.000000 0.000000 0.000000
# 2 -0.002333 0.016084 -0.009967 0.000000 0.000000 0.000000
# 3 -0.005767 -0.009967 0.013797 0.000000 0.000000 0.000000
# 4 0.000000 0.000000 0.000000 0.023331 0.000000 0.000000
# 5 0.000000 0.000000 0.000000 0.000000 0.034157 0.000000
# 6 0.000000 0.000000 0.000000 0.000000 0.000000 0.064802
#
#
# Mechanical properties :
#
#
# Convention : Reuss Voigt Hill
#
# Bulk Modulus (GPa) = 32.73892 72.05161 52.39527
# Shear Modulus (GPa) = 21.25081 28.48164 24.86623
#
# Velocity S-wave (km/s) = 3.45679 4.00192 3.73930
# Velocity P-wave (km/s) = 5.86018 7.86566 6.93579
#
# Compressibility (1/GPa) = 0.03054468
#
# Stress axis : x y z
#
# Youngs Moduli (GPa) = 27.17529 62.17378 72.48039
#
# Poissons Ratio (x) = 0.14506 0.41799
# Poissons Ratio (y) = 0.06340 0.72241
# Poissons Ratio (z) = 0.15672 0.61968
#
# Static dielectric constant tensor:
#      x y z
#    x 1.615070 0.000000 0.000000 
#    y 0.000000 1.603310 0.000000 
#    z 0.000000 0.000000 1.603330 
# 
# From -- ./inp_files/3746.got.cif
#   From: 2010.05.17/outbox.cif.g08.bks.cpg/sg71_2_cif.got.tgz:3746.got - 2010.06.03 16:22:01.
