data_PCOD9524469
_publ_section_title
;
Structure prediction by ZEFSAII (Michael W. Deem and Ramdas Pophale) SiO2 
 PCOD9524469
Probable space group: I M M M
;
_chemical_formula_sum "Si O2"
_cell_formula_units_Z 64
_cell_length_a 13.012812
_cell_length_b 10.304873
_cell_length_c 26.420718
_cell_angle_alpha 90.000000
_cell_angle_beta 90.000000
_cell_angle_gamma 90.000000
_cell_volume 3542.896089
_symmetry_space_group_name_H-M "I M M M"
_symmetry_group_IT_number 71
_symmetry_cell_setting 'orthorhombic'
loop_
_space_group_symop_operation_xyz
x,y,z
-x,-y,z
x,-y,-z
-x,y,-z
-x,-y,-z
x,y,-z
-x,y,z
x,-y,z
1/2+x,1/2+y,1/2+z
1/2-x,1/2-y,1/2+z
1/2+x,1/2-y,1/2-z
1/2-x,1/2+y,1/2-z
1/2-x,1/2-y,1/2-z
1/2+x,1/2+y,1/2-z
1/2-x,1/2+y,1/2+z
1/2+x,1/2-y,1/2+z
loop_
_atom_site_type_symbol
_atom_site_label
_atom_site_fract_x
_atom_site_fract_y
_atom_site_fract_z
Si Si1 0.884032 0.343956 0.059743
Si Si2 0.805040 0.000000 0.805216
Si Si3 0.500000 0.500000 0.767039
Si Si4 0.273469 0.751604 0.859225
Si Si5 0.500000 0.000000 0.737898
Si Si6 0.787157 0.500000 0.798133
Si Si7 0.000000 0.725351 0.676088
O O1 0.879760 0.500000 0.065197
O O2 0.786791 0.286948 0.089809
O O3 0.000000 0.302629 0.076847
O O4 0.876850 0.314285 0.000000
O O5 0.904382 0.000000 0.770523
O O6 0.790174 0.871803 0.837278
O O7 0.718577 0.000000 0.762327
O O8 0.500000 0.629495 0.800667
O O9 0.261124 0.627703 0.822255
O O10 0.394608 0.788129 0.856505
O O11 0.407870 0.000000 0.697415
O O12 0.500000 0.875575 0.776344
#
# Coordination Sequence:
#
# PCOD9524469 Si02
#       7
#    16   8   4  16   4   8   8
#     4   9  20  41  65  88 112 142 189 245 293 341
#     4  12  24  38  53  85 125 157 192 232 283 342
#     4  12  24  36  52  82 124 156 186 252 286 312
#     4  12  23  38  59  86 115 157 195 234 288 340
#     4  12  24  36  56  78 114 166 200 234 262 340
#     4  12  22  38  57  83 115 157 206 230 273 336
#     4  12  22  38  55  79 122 157 196 230 281 332
#
# _framework density 18.064318
#
# number of rings (size 3 to 8) (size 9 to 14) (size 15 to 20)
#    0.000    0.750    6.250    3.000    3.500    0.000 
#    0.000    1.250    0.000    3.000    0.000    2.625 
#    0.000    0.000    0.000    0.000    0.000    0.000 
#
# Total GULP energy -178438.575385 kJ/mol
# GULP energy per Si atom -5576.205481 kJ/mol
# Density = 1.802320 g / cm^3
# Si number density = 18.064318 Si / 1000 Ang^3
#
#
#
# Elastic Constant Matrix: (Units=GPa)
#
#
# Indices 1 2 3 4 5 6 
#
# 1 108.4245 -14.5227 24.5529 0.0000 0.0000 0.0000
# 2 -14.5227 79.6784 16.0405 0.0000 0.0000 0.0000
# 3 24.5529 16.0405 66.8390 0.0000 0.0000 0.0000
# 4 0.0000 0.0000 0.0000 336.8569 0.0000 0.0000
# 5 0.0000 0.0000 0.0000 0.0000 45.4516 0.0000
# 6 0.0000 0.0000 0.0000 0.0000 0.0000 24.1707
#
#
#
# Elastic Compliance Matrix: (Units=1/GPa)
#
#
# Indices 1 2 3 4 5 6 
#
# 1 0.010649 0.002867 -0.004600 0.000000 0.000000 0.000000
# 2 0.002867 0.013959 -0.004403 0.000000 0.000000 0.000000
# 3 -0.004600 -0.004403 0.017708 0.000000 0.000000 0.000000
# 4 0.000000 0.000000 0.000000 0.002969 0.000000 0.000000
# 5 0.000000 0.000000 0.000000 0.000000 0.022001 0.000000
# 6 0.000000 0.000000 0.000000 0.000000 0.000000 0.041372
#
#
# Mechanical properties :
#
#
# Convention : Reuss Voigt Hill
#
# Bulk Modulus (GPa) = 33.28489 34.12036 33.70263
# Shear Modulus (GPa) = 38.18403 96.55392 67.36898
#
# Velocity S-wave (km/s) = 4.60258 7.31889 6.11350
# Velocity P-wave (km/s) = 6.83452 9.50530 8.27833
#
# Compressibility (1/GPa) = 0.03004366
#
# Stress axis : x y z
#
# Youngs Moduli (GPa) = 93.90880 71.63620 56.47255
#
# Poissons Ratio (x) = -0.20537 0.25976
# Poissons Ratio (y) = -0.26923 0.24866
# Poissons Ratio (z) = 0.43196 0.31543
#
# Static dielectric constant tensor:
#      x y z
#    x 1.099450 0.000000 0.000000 
#    y 0.000000 1.608160 0.000000 
#    z 0.000000 0.000000 1.594110 
# 
# From -- ./inp_files/68879.got.cif
#   From: 2010.05.17/outbox.cif.g08.bks.cpg/sg71_35_cif.got.tgz:68879.got - 2010.06.03 16:22:01.
