data_PCOD9524916
_publ_section_title
;
Structure prediction by ZEFSAII (Michael W. Deem and Ramdas Pophale) SiO2 
 PCOD9524916
Probable space group: I B A M
;
_chemical_formula_sum "Si O2"
_cell_formula_units_Z 112
_cell_length_a 6.857713
_cell_length_b 28.051039
_cell_length_c 21.661361
_cell_angle_alpha 90.000000
_cell_angle_beta 90.000000
_cell_angle_gamma 90.000000
_cell_volume 4166.908825
_symmetry_space_group_name_H-M "I B A M"
_symmetry_group_IT_number 72
_symmetry_cell_setting 'orthorhombic'
loop_
_space_group_symop_operation_xyz
x,y,z
-x,-y,z
x,-y,1/2-z
-x,y,1/2-z
-x,-y,-z
x,y,-z
-x,y,1/2+z
x,-y,1/2+z
1/2+x,1/2+y,1/2+z
1/2-x,1/2-y,1/2+z
1/2+x,1/2-y,-z
1/2-x,1/2+y,-z
1/2-x,1/2-y,1/2-z
1/2+x,1/2+y,1/2-z
1/2-x,1/2+y,z
1/2+x,1/2-y,z
loop_
_atom_site_type_symbol
_atom_site_label
_atom_site_fract_x
_atom_site_fract_y
_atom_site_fract_z
Si Si1 0.895729 0.390225 0.567790
Si Si2 0.664546 0.688373 0.629613
Si Si3 0.729656 0.984571 0.386821
Si Si4 0.883694 0.289903 0.390437
Si Si5 0.300603 0.584752 0.874585
Si Si6 0.271289 0.930111 0.764685
Si Si7 0.230029 0.678381 0.267041
O O1 0.987771 0.393469 0.500000
O O2 0.752990 0.435211 0.576169
O O3 0.811980 0.336685 0.573373
O O4 0.070775 0.402205 0.615487
O O5 0.592941 0.734558 0.592036
O O6 0.603489 0.635314 0.609197
O O7 0.648854 0.688664 0.704932
O O8 0.895836 0.693817 0.620460
O O9 0.776528 0.968787 0.316382
O O10 0.500000 0.000000 0.389586
O O11 0.834967 0.033660 0.405816
O O12 0.755492 0.289122 0.327490
O O13 0.329474 0.573476 0.802001
O O14 0.500000 0.937148 0.750000
O O15 0.243835 0.876075 0.788940
O O16 0.000000 0.682235 0.250000
#
# Coordination Sequence:
#
# PCOD9524916 Si02
#       7
#    16  16  16  16  16  16  16
#     4  10  19  29  41  60  89 124 158 190 229 280
#     4   9  18  29  47  68  93 120 149 189 232 275
#     4  10  16  22  39  62  92 122 151 185 235 288
#     4  10  17  32  45  65  91 121 156 190 226 272
#     4   9  18  25  39  65  92 121 147 189 236 286
#     4  10  12  21  36  62  89 119 149 183 228 280
#     4   8  14  24  42  63  92 119 145 185 228 269
#
# _framework density 26.878436000000001
#
# number of rings (size 3 to 8) (size 9 to 14) (size 15 to 20)
#    0.000    2.571    4.286    2.571    0.000    2.571 
#    0.000    2.857    0.000    0.000    0.000    1.000 
#    0.000    1.143    2.571    1.143    0.000    0.000 
#
# Total GULP energy -312604.898254 kJ/mol
# GULP energy per Si atom -5582.230326 kJ/mol
# Density = 2.681726 g / cm^3
# Si number density = 26.878436 Si / 1000 Ang^3
#
#
#
# Elastic Constant Matrix: (Units=GPa)
#
#
# Indices 1 2 3 4 5 6 
#
# 1 88.1865 14.8987 2.9123 0.0000 0.0000 0.0000
# 2 14.8987 313.9282 32.1477 0.0000 0.0000 0.0000
# 3 2.9123 32.1477 42.4431 0.0000 0.0000 0.0000
# 4 0.0000 0.0000 0.0000 2.1485 0.0000 0.0000
# 5 0.0000 0.0000 0.0000 0.0000 -2.8640 0.0000
# 6 0.0000 0.0000 0.0000 0.0000 0.0000 40.0256
#
#
#
# Elastic Compliance Matrix: (Units=1/GPa)
#
#
# Indices 1 2 3 4 5 6 
#
# 1 0.011438 -0.000501 -0.000405 0.000000 0.000000 0.000000
# 2 -0.000501 0.003475 -0.002598 0.000000 0.000000 0.000000
# 3 -0.000405 -0.002598 0.025556 0.000000 0.000000 0.000000
# 4 0.000000 0.000000 0.000000 0.465451 0.000000 0.000000
# 5 0.000000 0.000000 0.000000 0.000000 -0.349157 0.000000
# 6 0.000000 0.000000 0.000000 0.000000 0.000000 0.024984
#
#
# Mechanical properties :
#
#
# Convention : Reuss Voigt Hill
#
# Bulk Modulus (GPa) = 29.88571 60.49726 45.19148
# Shear Modulus (GPa) = 25.01128 34.16860 29.58994
#
# Velocity S-wave (km/s) = 3.05377 3.56930 3.32155
# Velocity P-wave (km/s) = 4.85562 6.28833 5.61783
#
# Compressibility (1/GPa) = 0.03346081
#
# Stress axis : x y z
#
# Youngs Moduli (GPa) = 87.43028 287.74743 39.12902
#
# Poissons Ratio (x) = 0.14426 0.01585
# Poissons Ratio (y) = 0.04383 0.10165
# Poissons Ratio (z) = 0.03542 0.74753
#
# Static dielectric constant tensor:
#      x y z
#    x 2.238480 0.000000 0.000000 
#    y 0.000000 2.149560 0.000000 
#    z 0.000000 0.000000 2.049450 
# 
# From -- ./inp_files/43736.got.cif
#   From: 2010.05.17/outbox.cif.g08.bks.cpg/sg72_22_cif.got.tgz:43736.got - 2010.06.03 17:03:01.
