data_PCOD9524765
_publ_section_title
;
Structure prediction by ZEFSAII (Michael W. Deem and Ramdas Pophale) SiO2 
 PCOD9524765
Probable space group: I M M M
;
_chemical_formula_sum "Si O2"
_cell_formula_units_Z 36
_cell_length_a 21.000000
_cell_length_b 21.000000
_cell_length_c 9.000000
_cell_angle_alpha 90.000000
_cell_angle_beta 90.000000
_cell_angle_gamma 90.000000
_cell_volume 3969.000000
_symmetry_space_group_name_H-M "I M M M"
_symmetry_group_IT_number 71
_symmetry_cell_setting 'orthorhombic'
loop_
_space_group_symop_operation_xyz
x,y,z
-x,-y,z
x,-y,-z
-x,y,-z
-x,-y,-z
x,y,-z
-x,y,z
x,-y,z
1/2+x,1/2+y,1/2+z
1/2-x,1/2-y,1/2+z
1/2+x,1/2-y,1/2-z
1/2-x,1/2+y,1/2-z
1/2-x,1/2-y,1/2-z
1/2+x,1/2+y,1/2-z
1/2-x,1/2+y,1/2+z
1/2+x,1/2-y,1/2+z
loop_
_atom_site_type_symbol
_atom_site_label
_atom_site_fract_x
_atom_site_fract_y
_atom_site_fract_z
Si Si1 0.239283 0.924744 0.177105
Si Si2 0.574848 0.500000 0.667894
Si Si3 0.373298 0.924649 0.325522
Si Si4 0.000000 0.785525 0.320896
Si Si5 0.000000 0.648041 0.820456
Si Si6 0.380228 0.372785 0.822384
O O1 0.309982 0.910254 0.233983
O O2 0.189575 0.875346 0.249254
O O3 0.226247 0.000000 0.219694
O O4 0.235893 0.921033 0.000000
O O5 0.500000 0.500000 0.650865
O O6 0.602990 0.500000 0.500000
O O7 0.592797 0.561140 0.761268
O O8 0.361821 0.910360 0.500000
O O9 0.435847 0.887985 0.273858
O O10 0.385601 0.000000 0.314291
O O11 0.934500 0.821980 0.278871
O O12 0.000000 0.781071 0.500000
O O13 0.000000 0.717803 0.245094
O O14 0.000000 0.649025 0.000000
O O15 0.374409 0.372115 0.000000
#
# Coordination Sequence:
#
# PCOD9524765 Si02
#       6
#    16   8  16   8   8  16
#     4  10  20  33  52  84 118 144 177 225 281 332
#     4  11  21  31  49  79 111 142 181 232 281 321
#     4   9  18  35  60  88 114 140 174 221 278 339
#     4  10  24  40  54  77 109 149 194 233 270 323
#     4  10  21  38  61  85 108 141 185 229 276 332
#     4  11  21  35  54  77 109 150 191 228 272 325
#
# _framework density 9.0702949999999998
#
# number of rings (size 3 to 8) (size 9 to 14) (size 15 to 20)
#    0.000    1.889    2.222    2.000    0.000    5.333 
#    0.000    1.111    0.000    3.333    0.000    0.000 
#    0.000    0.000    0.000    0.000    0.000    0.000 
#
# Total GULP energy -200709.789797 kJ/mol
# GULP energy per Si atom -5575.271939 kJ/mol
# Density = 0.904965 g / cm^3
# Si number density = 9.070295 Si / 1000 Ang^3
#
#
#
# Elastic Constant Matrix: (Units=GPa)
#
#
# Indices 1 2 3 4 5 6 
#
# 1 184.9145 74.0955 61.8488 0.0000 0.0000 0.0000
# 2 74.0955 48.2790 33.9607 0.0000 0.0000 0.0000
# 3 61.8488 33.9607 46.1743 0.0000 0.0000 0.0000
# 4 0.0000 0.0000 0.0000 31.0970 0.0000 0.0000
# 5 0.0000 0.0000 0.0000 0.0000 22.6758 0.0000
# 6 0.0000 0.0000 0.0000 0.0000 0.0000 -0.4667
#
#
#
# Elastic Compliance Matrix: (Units=1/GPa)
#
#
# Indices 1 2 3 4 5 6 
#
# 1 0.014936 -0.018337 -0.006520 0.000000 0.000000 0.000000
# 2 -0.018337 0.065428 -0.023560 0.000000 0.000000 0.000000
# 3 -0.006520 -0.023560 0.047719 0.000000 0.000000 0.000000
# 4 0.000000 0.000000 0.000000 0.032157 0.000000 0.000000
# 5 0.000000 0.000000 0.000000 0.000000 0.044100 0.000000
# 6 0.000000 0.000000 0.000000 0.000000 0.000000 -2.142851
#
#
# Mechanical properties :
#
#
# Convention : Reuss Voigt Hill
#
# Bulk Modulus (GPa) = 32.00099 68.79753 50.39926
# Shear Modulus (GPa) = -2.73036 17.95874 7.61419
#
# Velocity S-wave (km/s) = -1.22816 3.14980 2.05096
# Velocity P-wave (km/s) = 3.95824 7.15788 5.78373
#
# Compressibility (1/GPa) = 0.03124903
#
# Stress axis : x y z
#
# Youngs Moduli (GPa) = 66.95085 15.28396 20.95621
#
# Poissons Ratio (x) = 0.28026 0.13663
# Poissons Ratio (y) = 1.22768 0.49373
# Poissons Ratio (z) = 0.43652 0.36009
#
# Static dielectric constant tensor:
#      x y z
#    x 1.667600 0.000000 0.000000 
#    y 0.000000 1.589510 0.000000 
#    z 0.000000 0.000000 1.603070 
# 
# From -- ./inp_files/10010.got.cif
#   From: 2010.05.17/outbox.ucp.g08.bks.cvg/sg71_6_cif.got.tgz:10010.got - 2010.06.11 16:29:00.
