data_PCOD9524758
_publ_section_title
;
Structure prediction by ZEFSAII (Michael W. Deem and Ramdas Pophale) SiO2 
 PCOD9524758
Probable space group: I M M M
;
_chemical_formula_sum "Si O2"
_cell_formula_units_Z 44
_cell_length_a 12.000000
_cell_length_b 15.000000
_cell_length_c 27.000000
_cell_angle_alpha 90.000000
_cell_angle_beta 90.000000
_cell_angle_gamma 90.000000
_cell_volume 4860.000000
_symmetry_space_group_name_H-M "I M M M"
_symmetry_group_IT_number 71
_symmetry_cell_setting 'orthorhombic'
loop_
_space_group_symop_operation_xyz
x,y,z
-x,-y,z
x,-y,-z
-x,y,-z
-x,-y,-z
x,y,-z
-x,y,z
x,-y,z
1/2+x,1/2+y,1/2+z
1/2-x,1/2-y,1/2+z
1/2+x,1/2-y,1/2-z
1/2-x,1/2+y,1/2-z
1/2-x,1/2-y,1/2-z
1/2+x,1/2+y,1/2-z
1/2-x,1/2+y,1/2+z
1/2+x,1/2-y,1/2+z
loop_
_atom_site_type_symbol
_atom_site_label
_atom_site_fract_x
_atom_site_fract_y
_atom_site_fract_z
Si Si1 0.000000 0.893596 0.771397
Si Si2 0.743567 0.668229 0.288709
Si Si3 0.500000 0.606815 0.152602
Si Si4 0.634693 0.500000 0.556416
Si Si5 0.628377 0.695473 0.440349
Si Si6 0.624388 0.100357 0.704386
Si Si7 0.220353 0.791976 0.370192
O O1 0.885582 0.857213 0.794335
O O2 0.000000 0.872982 0.712073
O O3 0.000000 0.000000 0.776392
O O4 0.750000 0.750000 0.250000
O O5 0.812174 0.598012 0.256819
O O6 0.799530 0.701489 0.338795
O O7 0.500000 0.500000 0.147946
O O8 0.609236 0.650374 0.128683
O O9 0.500000 0.500000 0.553534
O O10 0.678284 0.500000 0.500000
O O11 0.661626 0.403876 0.578531
O O12 0.628254 0.692697 0.500000
O O13 0.500000 0.713730 0.424736
O O14 0.716209 0.765571 0.419782
O O15 0.500000 0.136911 0.711493
O O16 0.691883 0.155663 0.664188
O O17 0.618449 0.000000 0.685629
#
# Coordination Sequence:
#
# PCOD9524758 Si02
#       7
#     8  16   8   8  16  16  16
#     4  11  20  36  52  73 109 150 186 217 265 325
#     4  10  21  30  51  74 107 137 178 223 262 310
#     4  11  22  38  59  77 103 151 190 221 271 330
#     4   7  12  28  54  79 107 139 169 204 259 327
#     4   9  18  35  58  85 114 143 175 221 278 326
#     4  10  20  33  51  74 107 145 179 219 269 323
#     4  11  22  33  56  79 107 137 187 230 270 320
#
# _framework density 9.0534979999999994
#
# number of rings (size 3 to 8) (size 9 to 14) (size 15 to 20)
#    0.000    2.091    3.636    2.727    7.636    0.000 
#    3.273    0.455    0.000    3.273    0.000    8.273 
#    0.000    0.000    0.000    0.000    0.000    0.000 
#
# Total GULP energy -244988.494901 kJ/mol
# GULP energy per Si atom -5567.920339 kJ/mol
# Density = 0.903289 g / cm^3
# Si number density = 9.053498 Si / 1000 Ang^3
#
#
#
# Elastic Constant Matrix: (Units=GPa)
#
#
# Indices 1 2 3 4 5 6 
#
# 1 122.0662 45.8337 23.8988 0.0000 0.0000 0.0000
# 2 45.8337 73.7180 24.3250 0.0000 0.0000 0.0000
# 3 23.8988 24.3250 37.0705 0.0000 0.0000 0.0000
# 4 0.0000 0.0000 0.0000 17.1989 0.0000 0.0000
# 5 0.0000 0.0000 0.0000 0.0000 20.7372 0.0000
# 6 0.0000 0.0000 0.0000 0.0000 0.0000 37.5735
#
#
#
# Elastic Compliance Matrix: (Units=1/GPa)
#
#
# Indices 1 2 3 4 5 6 
#
# 1 0.010999 -0.005742 -0.003323 0.000000 0.000000 0.000000
# 2 -0.005742 0.020312 -0.009626 0.000000 0.000000 0.000000
# 3 -0.003323 -0.009626 0.035435 0.000000 0.000000 0.000000
# 4 0.000000 0.000000 0.000000 0.058143 0.000000 0.000000
# 5 0.000000 0.000000 0.000000 0.000000 0.048223 0.000000
# 6 0.000000 0.000000 0.000000 0.000000 0.000000 0.026614
#
#
# Mechanical properties :
#
#
# Convention : Reuss Voigt Hill
#
# Bulk Modulus (GPa) = 34.05719 46.77441 40.41580
# Shear Modulus (GPa) = 20.25144 24.35506 22.30325
#
# Velocity S-wave (km/s) = 3.34792 3.67149 3.51343
# Velocity P-wave (km/s) = 5.81330 6.62280 6.23121
#
# Compressibility (1/GPa) = 0.02936237
#
# Stress axis : x y z
#
# Youngs Moduli (GPa) = 90.91822 49.23265 28.22099
#
# Poissons Ratio (x) = 0.28269 0.09378
# Poissons Ratio (y) = 0.52205 0.27167
# Poissons Ratio (z) = 0.30213 0.47393
#
# Static dielectric constant tensor:
#      x y z
#    x 1.669610 0.000000 0.000000 
#    y 0.000000 1.525530 0.000000 
#    z 0.000000 0.000000 1.633160 
# 
# From -- ./inp_files/22353.got.cif
#   From: 2010.05.17/outbox.ucp.g08.bks.cvg/sg71_12_cif.got.tgz:22353.got - 2010.06.11 16:29:00.
