data_PCOD9524308
_publ_section_title
;
Structure prediction by ZEFSAII (Michael W. Deem and Ramdas Pophale) SiO2 
 PCOD9524308
Probable space group: I M M M
;
_chemical_formula_sum "Si O2"
_cell_formula_units_Z 88
_cell_length_a 8.855859
_cell_length_b 19.559855
_cell_length_c 27.601993
_cell_angle_alpha 90.000000
_cell_angle_beta 90.000000
_cell_angle_gamma 90.000000
_cell_volume 4781.198401
_symmetry_space_group_name_H-M "I M M M"
_symmetry_group_IT_number 71
_symmetry_cell_setting 'orthorhombic'
loop_
_space_group_symop_operation_xyz
x,y,z
-x,-y,z
x,-y,-z
-x,y,-z
-x,-y,-z
x,y,-z
-x,y,z
x,-y,z
1/2+x,1/2+y,1/2+z
1/2-x,1/2-y,1/2+z
1/2+x,1/2-y,1/2-z
1/2-x,1/2+y,1/2-z
1/2-x,1/2-y,1/2-z
1/2+x,1/2+y,1/2-z
1/2-x,1/2+y,1/2+z
1/2+x,1/2-y,1/2+z
loop_
_atom_site_type_symbol
_atom_site_label
_atom_site_fract_x
_atom_site_fract_y
_atom_site_fract_z
Si Si1 0.680594 0.819948 0.270386
Si Si2 0.178441 0.922819 0.557959
Si Si3 0.183731 0.579045 0.500000
Si Si4 0.181490 0.345627 0.400798
Si Si5 0.680244 0.580729 0.306883
Si Si6 0.821118 0.301665 0.117055
O O1 0.500000 0.819386 0.264114
O O2 0.750000 0.750000 0.250000
O O3 0.750450 0.881560 0.239653
O O4 0.714950 0.821151 0.327414
O O5 0.195377 0.918260 0.500000
O O6 0.272015 0.864366 0.583736
O O7 0.000000 0.914119 0.568657
O O8 0.222095 0.000000 0.572741
O O9 0.234426 0.500000 0.500000
O O10 0.229842 0.618383 0.548908
O O11 0.000000 0.578257 0.500000
O O12 0.249996 0.385331 0.354920
O O13 0.236044 0.267533 0.397866
O O14 0.000000 0.348060 0.398060
O O15 0.500000 0.591204 0.307319
O O16 0.711639 0.500000 0.306233
O O17 0.000000 0.289179 0.113937
#
# Coordination Sequence:
#
# PCOD9524308 Si02
#       6
#    16  16   8  16  16  16
#     4  11  23  40  62  86 118 158 200 247 299 354
#     4   9  20  40  64  89 119 157 202 248 295 354
#     4   9  20  38  59  87 120 153 198 251 297 350
#     4  11  22  38  63  90 119 160 204 249 299 355
#     4  11  24  41  62  90 124 159 199 248 300 357
#     4  11  24  39  59  90 125 157 196 250 304 360
#
# _framework density 18.405427
#
# number of rings (size 3 to 8) (size 9 to 14) (size 15 to 20)
#    0.000    1.545    1.818    3.273    1.273    5.818 
#    0.000    5.909    0.000    3.273    0.000    0.000 
#    0.000    0.000    0.000    0.000    0.000    0.000 
#
# Total GULP energy -245907.166061 kJ/mol
# GULP energy per Si atom -5588.799229 kJ/mol
# Density = 1.836354 g / cm^3
# Si number density = 18.405427 Si / 1000 Ang^3
#
#
#
# Elastic Constant Matrix: (Units=GPa)
#
#
# Indices 1 2 3 4 5 6 
#
# 1 47.8198 57.0513 43.3189 0.0000 0.0000 0.0000
# 2 57.0513 144.2254 73.9413 0.0000 0.0000 0.0000
# 3 43.3189 73.9413 98.6082 0.0000 0.0000 0.0000
# 4 0.0000 0.0000 0.0000 37.3443 0.0000 0.0000
# 5 0.0000 0.0000 0.0000 0.0000 29.0683 0.0000
# 6 0.0000 0.0000 0.0000 0.0000 0.0000 30.3289
#
#
#
# Elastic Compliance Matrix: (Units=1/GPa)
#
#
# Indices 1 2 3 4 5 6 
#
# 1 0.045474 -0.012584 -0.010541 0.000000 0.000000 0.000000
# 2 -0.012584 0.014746 -0.005529 0.000000 0.000000 0.000000
# 3 -0.010541 -0.005529 0.018918 0.000000 0.000000 0.000000
# 4 0.000000 0.000000 0.000000 0.026778 0.000000 0.000000
# 5 0.000000 0.000000 0.000000 0.000000 0.034402 0.000000
# 6 0.000000 0.000000 0.000000 0.000000 0.000000 0.032972
#
#
# Mechanical properties :
#
#
# Convention : Reuss Voigt Hill
#
# Bulk Modulus (GPa) = 45.80867 71.03072 58.41969
# Shear Modulus (GPa) = 21.01957 27.10444 24.06201
#
# Velocity S-wave (km/s) = 3.38306 3.84165 3.61963
# Velocity P-wave (km/s) = 6.34057 7.63896 7.01985
#
# Compressibility (1/GPa) = 0.02182993
#
# Stress axis : x y z
#
# Youngs Moduli (GPa) = 21.99064 67.81403 52.86066
#
# Poissons Ratio (x) = 0.85339 0.55718
# Poissons Ratio (y) = 0.27674 0.29227
# Poissons Ratio (z) = 0.23179 0.37495
#
# Static dielectric constant tensor:
#      x y z
#    x 1.622140 0.000000 0.000000 
#    y 0.000000 1.603680 0.000000 
#    z 0.000000 0.000000 1.572820 
# 
# From -- ./inp_files/68026.got.cif
#   From: 2010.05.17/outbox.cif.g08.bks.cpg/sg71_35_cif.got.tgz:68026.got - 2010.06.03 16:22:01.
