data_PCOD9524738
_publ_section_title
;
Structure prediction by ZEFSAII (Michael W. Deem and Ramdas Pophale) SiO2 
 PCOD9524738
Probable space group: I M M M
;
_chemical_formula_sum "Si O2"
_cell_formula_units_Z 32
_cell_length_a 21.000000
_cell_length_b 18.000000
_cell_length_c 9.000000
_cell_angle_alpha 90.000000
_cell_angle_beta 90.000000
_cell_angle_gamma 90.000000
_cell_volume 3402.000000
_symmetry_space_group_name_H-M "I M M M"
_symmetry_group_IT_number 71
_symmetry_cell_setting 'orthorhombic'
loop_
_space_group_symop_operation_xyz
x,y,z
-x,-y,z
x,-y,-z
-x,y,-z
-x,-y,-z
x,y,-z
-x,y,z
x,-y,z
1/2+x,1/2+y,1/2+z
1/2-x,1/2-y,1/2+z
1/2+x,1/2-y,1/2-z
1/2-x,1/2+y,1/2-z
1/2-x,1/2-y,1/2-z
1/2+x,1/2+y,1/2-z
1/2-x,1/2+y,1/2+z
1/2+x,1/2-y,1/2+z
loop_
_atom_site_type_symbol
_atom_site_label
_atom_site_fract_x
_atom_site_fract_y
_atom_site_fract_z
Si Si1 0.367113 0.802306 0.320757
Si Si2 0.766872 0.585446 0.676102
Si Si3 0.000000 0.124319 0.330230
Si Si4 0.500000 0.194783 0.172680
Si Si5 0.361159 0.362174 0.818579
O O1 0.366220 0.797623 0.500000
O O2 0.314229 0.858543 0.259290
O O3 0.436237 0.827369 0.259401
O O4 0.355739 0.721192 0.247621
O O5 0.763136 0.603726 0.500000
O O6 0.788396 0.500000 0.689635
O O7 0.697976 0.593674 0.752411
O O8 0.000000 0.214745 0.331092
O O9 0.069762 0.105435 0.268783
O O10 0.000000 0.097495 0.500000
O O11 0.500000 0.170371 0.000000
O O12 0.360107 0.359451 0.000000
#
# Coordination Sequence:
#
# PCOD9524738 Si02
#       5
#    16  16   8   8  16
#     4  11  21  35  58  86 113 142 181 226 273 326
#     4  11  24  40  55  75 108 148 188 231 279 328
#     4   7  14  29  52  81 108 136 170 214 264 315
#     4   9  17  33  56  83 114 143 176 220 272 324
#     4  10  19  35  59  84 111 143 182 226 273 327
#
# _framework density 9.4062319999999993
#
# number of rings (size 3 to 8) (size 9 to 14) (size 15 to 20)
#    0.000    2.000    0.000    6.375    0.000    2.000 
#    0.000    3.125    0.000    7.500    0.000    0.000 
#    0.000    0.000    0.000    0.000    0.000    0.000 
#
# Total GULP energy -178597.755221 kJ/mol
# GULP energy per Si atom -5581.179851 kJ/mol
# Density = 0.938482 g / cm^3
# Si number density = 9.406232 Si / 1000 Ang^3
#
#
#
# Elastic Constant Matrix: (Units=GPa)
#
#
# Indices 1 2 3 4 5 6 
#
# 1 98.5229 12.6088 22.5451 0.0000 0.0000 0.0000
# 2 12.6088 36.6626 16.1274 0.0000 0.0000 0.0000
# 3 22.5451 16.1274 131.2149 0.0000 0.0000 0.0000
# 4 0.0000 0.0000 0.0000 22.3324 0.0000 0.0000
# 5 0.0000 0.0000 0.0000 0.0000 36.4817 0.0000
# 6 0.0000 0.0000 0.0000 0.0000 0.0000 -11.8934
#
#
#
# Elastic Compliance Matrix: (Units=1/GPa)
#
#
# Indices 1 2 3 4 5 6 
#
# 1 0.010886 -0.003088 -0.001491 0.000000 0.000000 0.000000
# 2 -0.003088 0.029711 -0.003121 0.000000 0.000000 0.000000
# 3 -0.001491 -0.003121 0.008261 0.000000 0.000000 0.000000
# 4 0.000000 0.000000 0.000000 0.044778 0.000000 0.000000
# 5 0.000000 0.000000 0.000000 0.000000 0.027411 0.000000
# 6 0.000000 0.000000 0.000000 0.000000 0.000000 -0.084080
#
#
# Mechanical properties :
#
#
# Convention : Reuss Voigt Hill
#
# Bulk Modulus (GPa) = 29.88854 40.99587 35.44221
# Shear Modulus (GPa) = 78.71584 23.72542 51.22063
#
# Velocity S-wave (km/s) = 6.47559 3.55513 5.22361
# Velocity P-wave (km/s) = 8.47544 6.22021 7.43385
#
# Compressibility (1/GPa) = 0.03345764
#
# Stress axis : x y z
#
# Youngs Moduli (GPa) = 91.85859 33.65790 121.05281
#
# Poissons Ratio (x) = 0.10394 0.18048
# Poissons Ratio (y) = 0.28367 0.37782
# Poissons Ratio (z) = 0.13695 0.10505
#
# Static dielectric constant tensor:
#      x y z
#    x 1.686340 0.000000 0.000000 
#    y 0.000000 1.636940 0.000000 
#    z 0.000000 0.000000 1.625190 
# 
# From -- ./inp_files/7552.got.cif
#   From: 2010.05.17/outbox.ucp.g08.bks.cvg/sg71_4_cif.got.tgz:7552.got - 2010.06.11 16:29:00.
