data_PCOD9524203
_publ_section_title
;
Structure prediction by ZEFSAII (Michael W. Deem and Ramdas Pophale) SiO2 
 PCOD9524203
Probable space group: I M M M
;
_chemical_formula_sum "Si O2"
_cell_formula_units_Z 56
_cell_length_a 8.499078
_cell_length_b 11.354513
_cell_length_c 28.971305
_cell_angle_alpha 90.000000
_cell_angle_beta 90.000000
_cell_angle_gamma 90.000000
_cell_volume 2795.814707
_symmetry_space_group_name_H-M "I M M M"
_symmetry_group_IT_number 71
_symmetry_cell_setting 'orthorhombic'
loop_
_space_group_symop_operation_xyz
x,y,z
-x,-y,z
x,-y,-z
-x,y,-z
-x,-y,-z
x,y,-z
-x,y,z
x,-y,z
1/2+x,1/2+y,1/2+z
1/2-x,1/2-y,1/2+z
1/2+x,1/2-y,1/2-z
1/2-x,1/2+y,1/2-z
1/2-x,1/2-y,1/2-z
1/2+x,1/2+y,1/2-z
1/2-x,1/2+y,1/2+z
1/2+x,1/2-y,1/2+z
loop_
_atom_site_type_symbol
_atom_site_label
_atom_site_fract_x
_atom_site_fract_y
_atom_site_fract_z
Si Si1 0.686934 0.363882 0.221790
Si Si2 0.813722 0.699975 0.878155
Si Si3 0.317230 0.859345 0.949322
Si Si4 0.808669 0.500000 0.051349
O O1 0.500000 0.366438 0.228445
O O2 0.744564 0.500000 0.232055
O O3 0.750000 0.250000 0.250000
O O4 0.728172 0.334069 0.168766
O O5 0.773339 0.821354 0.903320
O O6 0.762773 0.611193 0.918520
O O7 0.000000 0.688962 0.869893
O O8 0.500000 0.821923 0.945782
O O9 0.315570 0.000000 0.951185
O O10 0.254787 0.817418 0.000000
O O11 0.000000 0.500000 0.048941
O O12 0.745162 0.500000 0.000000
#
# Coordination Sequence:
#
# PCOD9524203 Si02
#       4
#    16  16  16   8
#     4  11  25  45  69  95 125 162 210 266 325 389
#     4  11  21  36  60  88 122 159 199 250 307 368
#     4   9  19  36  56  81 119 165 209 254 305 363
#     4   9  18  32  53  85 123 159 193 235 292 355
#
# _framework density 20.02994
#
# number of rings (size 3 to 8) (size 9 to 14) (size 15 to 20)
#    0.000    1.857    1.429    3.429    0.000    5.143 
#    0.000    1.429    0.000    3.429    0.000    0.000 
#    0.000    0.000    0.000    0.000    0.000    0.000 
#
# Total GULP energy -156046.543217 kJ/mol
# GULP energy per Si atom -5573.090829 kJ/mol
# Density = 1.998435 g / cm^3
# Si number density = 20.029940 Si / 1000 Ang^3
#
#
#
# Elastic Constant Matrix: (Units=GPa)
#
#
# Indices 1 2 3 4 5 6 
#
# 1 34.0552 28.0344 18.8557 0.0000 0.0000 0.0000
# 2 28.0344 109.5453 65.6557 0.0000 0.0000 0.0000
# 3 18.8557 65.6557 129.5323 0.0000 0.0000 0.0000
# 4 0.0000 0.0000 0.0000 -35.2991 0.0000 0.0000
# 5 0.0000 0.0000 0.0000 0.0000 29.1525 0.0000
# 6 0.0000 0.0000 0.0000 0.0000 0.0000 25.0959
#
#
#
# Elastic Compliance Matrix: (Units=1/GPa)
#
#
# Indices 1 2 3 4 5 6 
#
# 1 0.037266 -0.009028 -0.000849 0.000000 0.000000 0.000000
# 2 -0.009028 0.015299 -0.006440 0.000000 0.000000 0.000000
# 3 -0.000849 -0.006440 0.011108 0.000000 0.000000 0.000000
# 4 0.000000 0.000000 0.000000 -0.028329 0.000000 0.000000
# 5 0.000000 0.000000 0.000000 0.000000 0.034302 0.000000
# 6 0.000000 0.000000 0.000000 0.000000 0.000000 0.039847
#
#
# Mechanical properties :
#
#
# Convention : Reuss Voigt Hill
#
# Bulk Modulus (GPa) = 32.21791 55.35826 43.78809
# Shear Modulus (GPa) = 32.79234 14.49565 23.64399
#
# Velocity S-wave (km/s) = 4.05058 2.69308 3.43947
# Velocity P-wave (km/s) = 6.16409 6.11294 6.13857
#
# Compressibility (1/GPa) = 0.03103864
#
# Stress axis : x y z
#
# Youngs Moduli (GPa) = 26.83401 65.36285 90.02487
#
# Poissons Ratio (x) = 0.59012 0.07639
# Poissons Ratio (y) = 0.24227 0.57980
# Poissons Ratio (z) = 0.02277 0.42096
#
# Static dielectric constant tensor:
#      x y z
#    x 1.716140 0.000000 0.000000 
#    y 0.000000 1.163870 0.000000 
#    z 0.000000 0.000000 1.686380 
# 
# From -- ./inp_files/3297.got.cif
#   From: 2010.05.17/outbox.cif.g08.bks.cpg/sg71_2_cif.got.tgz:3297.got - 2010.06.03 16:22:01.
