data_PCOD9524762
_publ_section_title
;
Structure prediction by ZEFSAII (Michael W. Deem and Ramdas Pophale) SiO2 
 PCOD9524762
Probable space group: I M M M
;
_chemical_formula_sum "Si O2"
_cell_formula_units_Z 58
_cell_length_a 9.000000
_cell_length_b 27.000000
_cell_length_c 24.000000
_cell_angle_alpha 90.000000
_cell_angle_beta 90.000000
_cell_angle_gamma 90.000000
_cell_volume 5832.000000
_symmetry_space_group_name_H-M "I M M M"
_symmetry_group_IT_number 71
_symmetry_cell_setting 'orthorhombic'
loop_
_space_group_symop_operation_xyz
x,y,z
-x,-y,z
x,-y,-z
-x,y,-z
-x,-y,-z
x,y,-z
-x,y,z
x,-y,z
1/2+x,1/2+y,1/2+z
1/2-x,1/2-y,1/2+z
1/2+x,1/2-y,1/2-z
1/2-x,1/2+y,1/2-z
1/2-x,1/2-y,1/2-z
1/2+x,1/2+y,1/2-z
1/2-x,1/2+y,1/2+z
1/2+x,1/2-y,1/2+z
loop_
_atom_site_type_symbol
_atom_site_label
_atom_site_fract_x
_atom_site_fract_y
_atom_site_fract_z
Si Si1 0.334458 0.672606 0.219508
Si Si2 0.284747 0.000000 0.500000
Si Si3 0.831281 0.843745 0.148805
Si Si4 0.333541 0.835318 0.566203
Si Si5 0.829433 0.424449 0.202150
Si Si6 0.671560 0.569288 0.093873
Si Si7 0.329774 0.748695 0.875619
Si Si8 0.323443 0.944854 0.168558
O O1 0.500000 0.652546 0.203515
O O2 0.333800 0.672931 0.286084
O O3 0.205573 0.634267 0.203797
O O4 0.318673 0.723741 0.186226
O O5 0.272509 0.957720 0.451392
O O6 0.717435 0.805350 0.122407
O O7 0.772011 0.899639 0.145387
O O8 0.000000 0.839571 0.127990
O O9 0.333003 0.836231 0.500000
O O10 0.500000 0.849179 0.585313
O O11 0.209005 0.873168 0.587321
O O12 0.285639 0.782240 0.588151
O O13 0.720058 0.445060 0.155610
O O14 0.801951 0.443233 0.264396
O O15 0.000000 0.434575 0.187587
O O16 0.500000 0.558251 0.081561
O O17 0.500000 0.741867 0.893654
O O18 0.500000 0.936611 0.159354
O O19 0.284707 0.000000 0.148571
#
# Coordination Sequence:
#
# PCOD9524762 Si02
#       8
#    16   4  16  16  16  16  16  16
#     4   9  18  32  50  75 105 140 175 212 262 322
#     4  12  29  44  57  74  97 136 185 242 295 336
#     4  10  20  33  51  78 112 142 178 221 262 315
#     4  11  24  41  59  80 104 134 175 225 281 333
#     4  10  20  33  52  76 101 133 175 223 274 324
#     4  12  23  40  57  72  97 132 178 230 285 337
#     4  11  21  34  55  80 107 142 178 214 267 328
#     4   9  19  36  54  74 106 145 181 218 263 317
#
# _framework density 9.9451300000000007
#
# number of rings (size 3 to 8) (size 9 to 14) (size 15 to 20)
#    0.000    1.655    2.069    3.103    0.966    2.759 
#    0.000    2.414    0.000    0.000    0.000    0.000 
#    0.000    0.552    0.000    5.793    0.000    2.483 
#
# Total GULP energy -323101.364668 kJ/mol
# GULP energy per Si atom -5570.713184 kJ/mol
# Density = 0.992249 g / cm^3
# Si number density = 9.945130 Si / 1000 Ang^3
#
#
#
# Elastic Constant Matrix: (Units=GPa)
#
#
# Indices 1 2 3 4 5 6 
#
# 1 50.6870 23.5066 2.8521 0.0000 0.0000 0.0000
# 2 23.5066 99.1300 -3.9812 0.0000 0.0000 0.0000
# 3 2.8521 -3.9812 7.8471 0.0000 0.0000 0.0000
# 4 0.0000 0.0000 0.0000 4.5007 0.0000 0.0000
# 5 0.0000 0.0000 0.0000 0.0000 5.1659 0.0000
# 6 0.0000 0.0000 0.0000 0.0000 0.0000 -337.1124
#
#
#
# Elastic Compliance Matrix: (Units=1/GPa)
#
#
# Indices 1 2 3 4 5 6 
#
# 1 0.023128 -0.005943 -0.011421 0.000000 0.000000 0.000000
# 2 -0.005943 0.011825 0.008159 0.000000 0.000000 0.000000
# 3 -0.011421 0.008159 0.135727 -0.000001 0.000000 0.000000
# 4 0.000000 0.000000 -0.000001 0.222188 0.000000 0.000000
# 5 0.000000 0.000000 0.000000 0.000000 0.193578 0.000000
# 6 0.000000 0.000000 0.000000 0.000000 0.000000 -0.002966
#
#
# Mechanical properties :
#
#
# Convention : Reuss Voigt Hill
#
# Bulk Modulus (GPa) = 6.56730 22.49100 14.52915
# Shear Modulus (GPa) = 7.66113 -56.47006 -24.40446
#
# Velocity S-wave (km/s) = 1.96470 -5.33408 -3.50659
# Velocity P-wave (km/s) = 2.90787 5.15795 3.01238
#
# Compressibility (1/GPa) = 0.15226947
#
# Stress axis : x y z
#
# Youngs Moduli (GPa) = 43.23829 84.56877 7.36775
#
# Poissons Ratio (x) = 0.50259 0.08415
# Poissons Ratio (y) = 0.25696 -0.06012
# Poissons Ratio (z) = 0.49383 -0.69002
#
# Static dielectric constant tensor:
#      x y z
#    x 1.711880 0.000000 0.000000 
#    y 0.000000 1.785880 0.000000 
#    z 0.000000 0.000000 1.705700 
# 
# From -- ./inp_files/58102.got.cif
#   From: 2010.05.17/outbox.ucp.g08.bks.cvg/sg71_30_cif.got.tgz:58102.got - 2010.06.11 16:29:00.
