data_PCOD9524893
_publ_section_title
;
Structure prediction by ZEFSAII (Michael W. Deem and Ramdas Pophale) SiO2 
 PCOD9524893
Probable space group: I M M M
;
_chemical_formula_sum "Si O2"
_cell_formula_units_Z 48
_cell_length_a 21.000000
_cell_length_b 15.000000
_cell_length_c 15.000000
_cell_angle_alpha 90.000000
_cell_angle_beta 90.000000
_cell_angle_gamma 90.000000
_cell_volume 4725.000000
_symmetry_space_group_name_H-M "I M M M"
_symmetry_group_IT_number 71
_symmetry_cell_setting 'orthorhombic'
loop_
_space_group_symop_operation_xyz
x,y,z
-x,-y,z
x,-y,-z
-x,y,-z
-x,-y,-z
x,y,-z
-x,y,z
x,-y,z
1/2+x,1/2+y,1/2+z
1/2-x,1/2-y,1/2+z
1/2+x,1/2-y,1/2-z
1/2-x,1/2+y,1/2-z
1/2-x,1/2-y,1/2-z
1/2+x,1/2+y,1/2-z
1/2-x,1/2+y,1/2+z
1/2+x,1/2-y,1/2+z
loop_
_atom_site_type_symbol
_atom_site_label
_atom_site_fract_x
_atom_site_fract_y
_atom_site_fract_z
Si Si1 0.188675 0.605736 0.602061
Si Si2 0.570710 0.633841 0.749240
Si Si3 0.887824 0.000000 0.607397
Si Si4 0.329522 0.654520 0.602675
Si Si5 0.429940 0.846296 0.224734
Si Si6 0.758725 0.500000 0.107077
Si Si7 0.135952 0.637052 0.101456
O O1 0.176730 0.635459 0.500000
O O2 0.198771 0.500000 0.602100
O O3 0.255915 0.647397 0.631176
O O4 0.128233 0.626128 0.662527
O O5 0.500000 0.611351 0.715671
O O6 0.582252 0.584250 0.842396
O O7 0.623517 0.611269 0.674915
O O8 0.572305 0.739239 0.767354
O O9 0.894603 0.000000 0.500000
O O10 0.813581 0.000000 0.635391
O O11 0.334199 0.620176 0.500000
O O12 0.349230 0.758194 0.600024
O O13 0.500000 0.873703 0.192902
O O14 0.416853 0.881333 0.324635
O O15 0.800523 0.414659 0.131951
O O16 0.755385 0.500000 0.000000
O O17 0.120098 0.609967 0.000000
#
# Coordination Sequence:
#
# PCOD9524893 Si02
#       7
#    16  16   8  16  16   8  16
#     4  10  23  40  59  85 114 148 195 248 295 343
#     4  10  23  40  59  88 120 153 196 237 284 350
#     4  11  25  40  60  87 122 161 194 236 290 345
#     4   9  20  38  63  89 116 152 192 241 299 348
#     4  10  23  39  59  86 115 155 198 238 290 346
#     4   9  20  35  55  88 119 149 192 238 283 340
#     4   9  19  36  58  88 123 152 189 239 293 351
#
# _framework density 10.15873
#
# number of rings (size 3 to 8) (size 9 to 14) (size 15 to 20)
#    0.000    2.333    0.000    0.250    7.000    4.000 
#    0.000    5.833    0.000    2.500    0.000    0.000 
#    0.000    0.000    0.000    0.000    0.000    0.000 
#
# Total GULP energy -267808.787561 kJ/mol
# GULP energy per Si atom -5579.349741 kJ/mol
# Density = 1.013561 g / cm^3
# Si number density = 10.158730 Si / 1000 Ang^3
#
#
#
# Elastic Constant Matrix: (Units=GPa)
#
#
# Indices 1 2 3 4 5 6 
#
# 1 114.3398 3.1110 63.8220 0.0000 0.0000 0.0000
# 2 3.1110 41.3722 15.1595 0.0000 0.0000 0.0000
# 3 63.8220 15.1595 102.6663 0.0000 0.0000 0.0000
# 4 0.0000 0.0000 0.0000 14.6143 0.0000 0.0000
# 5 0.0000 0.0000 0.0000 0.0000 17.7941 0.0000
# 6 0.0000 0.0000 0.0000 0.0000 0.0000 20.4083
#
#
#
# Elastic Compliance Matrix: (Units=1/GPa)
#
#
# Indices 1 2 3 4 5 6 
#
# 1 0.013578 0.002190 -0.008764 0.000000 0.000000 0.000000
# 2 0.002190 0.025907 -0.005187 0.000000 0.000000 0.000000
# 3 -0.008764 -0.005187 0.015954 0.000000 0.000000 0.000000
# 4 0.000000 0.000000 0.000000 0.068426 0.000000 0.000000
# 5 0.000000 0.000000 0.000000 0.000000 0.056198 0.000000
# 6 0.000000 0.000000 0.000000 0.000000 0.000000 0.049000
#
#
# Mechanical properties :
#
#
# Convention : Reuss Voigt Hill
#
# Bulk Modulus (GPa) = 31.33058 46.95147 39.14103
# Shear Modulus (GPa) = 18.99517 22.31573 20.65545
#
# Velocity S-wave (km/s) = 3.06096 3.31774 3.19193
# Velocity P-wave (km/s) = 5.28646 6.15106 5.73508
#
# Compressibility (1/GPa) = 0.03191769
#
# Stress axis : x y z
#
# Youngs Moduli (GPa) = 73.64681 38.60004 62.67830
#
# Poissons Ratio (x) = -0.08455 0.54933
# Poissons Ratio (y) = -0.16131 0.32511
# Poissons Ratio (z) = 0.64546 0.20022
#
# Static dielectric constant tensor:
#      x y z
#    x 1.719370 0.000000 0.000000 
#    y 0.000000 1.751900 0.000000 
#    z 0.000000 0.000000 1.720970 
# 
# From -- ./inp_files/37864.got.cif
#   From: 2010.05.17/outbox.ucp.g08.bks.cvg/sg71_19_cif.got.tgz:37864.got - 2010.06.11 16:29:00.
