data_PCOD9524365
_publ_section_title
;
Structure prediction by ZEFSAII (Michael W. Deem and Ramdas Pophale) SiO2 
 PCOD9524365
Probable space group: I M M M
;
_chemical_formula_sum "Si O2"
_cell_formula_units_Z 88
_cell_length_a 23.147883
_cell_length_b 9.052442
_cell_length_c 24.796329
_cell_angle_alpha 90.000000
_cell_angle_beta 90.000000
_cell_angle_gamma 90.000000
_cell_volume 5195.943494
_symmetry_space_group_name_H-M "I M M M"
_symmetry_group_IT_number 71
_symmetry_cell_setting 'orthorhombic'
loop_
_space_group_symop_operation_xyz
x,y,z
-x,-y,z
x,-y,-z
-x,y,-z
-x,-y,-z
x,y,-z
-x,y,z
x,-y,z
1/2+x,1/2+y,1/2+z
1/2-x,1/2-y,1/2+z
1/2+x,1/2-y,1/2-z
1/2-x,1/2+y,1/2-z
1/2-x,1/2-y,1/2-z
1/2+x,1/2+y,1/2-z
1/2-x,1/2+y,1/2+z
1/2+x,1/2-y,1/2+z
loop_
_atom_site_type_symbol
_atom_site_label
_atom_site_fract_x
_atom_site_fract_y
_atom_site_fract_z
Si Si1 0.433172 0.822059 0.646463
Si Si2 0.000000 0.325155 0.435436
Si Si3 0.430813 0.174486 0.770263
Si Si4 0.712909 0.175421 0.936170
Si Si5 0.652974 0.677675 0.562057
Si Si6 0.108488 0.175593 0.623684
O O1 0.500000 0.777882 0.637067
O O2 0.417891 0.783706 0.708426
O O3 0.390410 0.750919 0.603754
O O4 0.430824 0.000000 0.642780
O O5 0.056504 0.251073 0.409814
O O6 0.000000 0.500000 0.422844
O O7 0.000000 0.307945 0.500000
O O8 0.500000 0.192096 0.777754
O O9 0.398746 0.268923 0.815088
O O10 0.418158 0.000000 0.777412
O O11 0.779946 0.213399 0.925963
O O12 0.668259 0.267970 0.901423
O O13 0.705087 0.000000 0.925791
O O14 0.702020 0.198475 0.000000
O O15 0.641034 0.722203 0.500000
O O16 0.647908 0.500000 0.564597
O O17 0.103606 0.000000 0.620454
#
# Coordination Sequence:
#
# PCOD9524365 Si02
#       6
#    16   8  16  16  16  16
#     4   9  19  35  56  83 110 139 176 217 263 315
#     4  11  23  37  53  73 103 145 184 217 262 319
#     4   9  18  35  56  74 101 144 184 215 260 322
#     4   9  19  37  57  74 100 143 186 217 259 324
#     4   9  19  36  57  81 108 140 178 218 262 317
#     4  12  23  33  51  81 109 134 175 228 275 313
#
# _framework density 16.93629
#
# number of rings (size 3 to 8) (size 9 to 14) (size 15 to 20)
#    0.000    2.273    0.909    4.636    0.000    5.818 
#    0.000    6.364    0.000    0.000    0.000    0.000 
#    0.000    0.000    0.000    0.000    0.000    0.000 
#
# Total GULP energy -245593.915217 kJ/mol
# GULP energy per Si atom -5581.679891 kJ/mol
# Density = 1.689774 g / cm^3
# Si number density = 16.936290 Si / 1000 Ang^3
#
#
#
# Elastic Constant Matrix: (Units=GPa)
#
#
# Indices 1 2 3 4 5 6 
#
# 1 110.2787 71.4190 104.6735 0.0000 0.0000 0.0000
# 2 71.4190 82.4973 82.7073 0.0000 0.0000 0.0000
# 3 104.6735 82.7073 138.6916 0.0000 0.0000 0.0000
# 4 0.0000 0.0000 0.0000 28.6836 0.0000 0.0000
# 5 0.0000 0.0000 0.0000 0.0000 14.3572 0.0000
# 6 0.0000 0.0000 0.0000 0.0000 0.0000 29.3169
#
#
#
# Elastic Compliance Matrix: (Units=1/GPa)
#
#
# Indices 1 2 3 4 5 6 
#
# 1 0.034675 -0.009405 -0.020562 0.000000 0.000000 0.000000
# 2 -0.009405 0.032693 -0.012398 0.000000 0.000000 0.000000
# 3 -0.020562 -0.012398 0.030122 0.000000 0.000000 0.000000
# 4 0.000000 0.000000 0.000000 0.034863 0.000000 0.000000
# 5 0.000000 0.000000 0.000000 0.000000 0.069652 0.000000
# 6 0.000000 0.000000 0.000000 0.000000 0.000000 0.034110
#
#
# Mechanical properties :
#
#
# Convention : Reuss Voigt Hill
#
# Bulk Modulus (GPa) = 78.36279 94.34079 86.35179
# Shear Modulus (GPa) = 15.37991 19.31607 17.34799
#
# Velocity S-wave (km/s) = 3.01675 3.38081 3.20395
# Velocity P-wave (km/s) = 7.64879 8.42995 8.04885
#
# Compressibility (1/GPa) = 0.01276116
#
# Stress axis : x y z
#
# Youngs Moduli (GPa) = 28.83885 30.58724 33.19794
#
# Poissons Ratio (x) = 0.28767 0.68261
# Poissons Ratio (y) = 0.27122 0.41160
# Poissons Ratio (z) = 0.59298 0.37923
#
# Static dielectric constant tensor:
#      x y z
#    x 1.549800 0.000000 0.000000 
#    y 0.000000 1.560530 0.000000 
#    z 0.000000 0.000000 1.564350 
# 
# From -- ./inp_files/12521.got.cif
#   From: 2010.05.17/outbox.cif.g08.bks.cpg/sg71_7_cif.got.tgz:12521.got - 2010.06.03 16:22:01.
