data_PCOD9524806
_publ_section_title
;
Structure prediction by ZEFSAII (Michael W. Deem and Ramdas Pophale) SiO2 
 PCOD9524806
Probable space group: I M M M
;
_chemical_formula_sum "Si O2"
_cell_formula_units_Z 60
_cell_length_a 24.000000
_cell_length_b 12.000000
_cell_length_c 21.000000
_cell_angle_alpha 90.000000
_cell_angle_beta 90.000000
_cell_angle_gamma 90.000000
_cell_volume 6048.000000
_symmetry_space_group_name_H-M "I M M M"
_symmetry_group_IT_number 71
_symmetry_cell_setting 'orthorhombic'
loop_
_space_group_symop_operation_xyz
x,y,z
-x,-y,z
x,-y,-z
-x,y,-z
-x,-y,-z
x,y,-z
-x,y,z
x,-y,z
1/2+x,1/2+y,1/2+z
1/2-x,1/2-y,1/2+z
1/2+x,1/2-y,1/2-z
1/2-x,1/2+y,1/2-z
1/2-x,1/2-y,1/2-z
1/2+x,1/2+y,1/2-z
1/2-x,1/2+y,1/2+z
1/2+x,1/2-y,1/2+z
loop_
_atom_site_type_symbol
_atom_site_label
_atom_site_fract_x
_atom_site_fract_y
_atom_site_fract_z
Si Si1 0.561193 0.686639 0.264106
Si Si2 0.740539 0.753654 0.151643
Si Si3 0.938712 0.368113 0.130917
Si Si4 0.062854 0.730065 0.621533
Si Si5 0.567426 0.623746 0.000000
Si Si6 0.339742 0.119952 0.072684
Si Si7 0.316887 0.620601 0.259824
Si Si8 0.174446 0.367212 0.069718
O O1 0.500000 0.636337 0.278611
O O2 0.563744 0.801791 0.303033
O O3 0.562924 0.709239 0.188825
O O4 0.618724 0.626366 0.279576
O O5 0.704154 0.788608 0.092035
O O6 0.699240 0.709875 0.206147
O O7 0.776382 0.853017 0.181795
O O8 0.785360 0.666449 0.126797
O O9 0.933265 0.500000 0.142151
O O10 0.888063 0.330372 0.087000
O O11 0.000000 0.348117 0.102527
O O12 0.081282 0.812988 0.564964
O O13 0.107185 0.632592 0.617939
O O14 0.000000 0.692470 0.607969
O O15 0.591102 0.500000 0.000000
O O16 0.500000 0.616789 0.000000
O O17 0.313061 0.000000 0.081767
O O18 0.358304 0.127759 0.000000
O O19 0.305029 0.500000 0.232208
O O20 0.173848 0.500000 0.066238
O O21 0.191024 0.323418 0.000000
#
# Coordination Sequence:
#
# PCOD9524806 Si02
#       8
#    16  16  16  16   8  16  16  16
#     4  10  20  37  57  83 114 146 185 232 283 334
#     4  11  22  41  56  79 116 151 181 234 278 336
#     4   9  18  34  57  86 119 150 181 224 282 343
#     4  10  20  36  56  81 112 144 187 237 283 336
#     4   9  18  34  55  77 107 147 184 226 286 345
#     4  11  23  38  57  79 106 146 191 232 275 328
#     4  11  23  38  60  85 108 146 191 231 281 334
#     4  10  20  35  60  90 117 149 187 230 283 340
#
# _framework density 9.9206350000000008
#
# number of rings (size 3 to 8) (size 9 to 14) (size 15 to 20)
#    0.000    1.800    3.333    1.200    0.000    1.867 
#    0.000    4.667    0.000    0.000    0.000    0.000 
#    0.000    2.133    0.000    0.000    0.000    0.000 
#
# Total GULP energy -334006.885749 kJ/mol
# GULP energy per Si atom -5566.781429 kJ/mol
# Density = 0.989806 g / cm^3
# Si number density = 9.920635 Si / 1000 Ang^3
#
#
#
# Elastic Constant Matrix: (Units=GPa)
#
#
# Indices 1 2 3 4 5 6 
#
# 1 105.4859 27.0364 1.9241 0.0000 0.0000 0.0000
# 2 27.0364 33.4127 0.3569 0.0000 0.0000 0.0000
# 3 1.9241 0.3569 10.8857 0.0000 0.0000 0.0000
# 4 0.0000 0.0000 0.0000 11.9534 0.0000 0.0000
# 5 0.0000 0.0000 0.0000 0.0000 29.0470 0.0000
# 6 0.0000 0.0000 0.0000 0.0000 0.0000 5.2704
#
#
#
# Elastic Compliance Matrix: (Units=1/GPa)
#
#
# Indices 1 2 3 4 5 6 
#
# 1 0.011996 -0.009687 -0.001803 0.000000 0.000000 0.000000
# 2 -0.009687 0.037762 0.000474 0.000000 0.000000 0.000000
# 3 -0.001803 0.000474 0.092167 0.000000 0.000000 0.000000
# 4 0.000000 0.000000 0.000000 0.083658 0.000000 0.000000
# 5 0.000000 0.000000 0.000000 0.000000 0.034427 0.000000
# 6 0.000000 0.000000 0.000000 0.000000 0.000000 0.189739
#
#
# Mechanical properties :
#
#
# Convention : Reuss Voigt Hill
#
# Bulk Modulus (GPa) = 8.34078 23.15768 15.74923
# Shear Modulus (GPa) = 9.77051 17.28529 13.52790
#
# Velocity S-wave (km/s) = 2.22149 2.95478 2.61397
# Velocity P-wave (km/s) = 3.28526 4.83092 4.13102
#
# Compressibility (1/GPa) = 0.11989291
#
# Stress axis : x y z
#
# Youngs Moduli (GPa) = 83.36327 26.48152 10.84991
#
# Poissons Ratio (x) = 0.25653 0.01956
# Poissons Ratio (y) = 0.80756 -0.00514
# Poissons Ratio (z) = 0.15027 -0.01255
#
# Static dielectric constant tensor:
#      x y z
#    x 1.715610 0.000000 0.000000 
#    y 0.000000 1.718130 0.000000 
#    z 0.000000 0.000000 1.711930 
# 
# From -- ./inp_files/27713.got.cif
#   From: 2010.05.17/outbox.ucp.g08.bks.cvg/sg71_14_cif.got.tgz:27713.got - 2010.06.11 16:29:00.
