data_PCOD9525263
_publ_section_title
;
Structure prediction by ZEFSAII (Michael W. Deem and Ramdas Pophale) SiO2 
 PCOD9525263
Probable space group: I B A M
;
_chemical_formula_sum "Si O2"
_cell_formula_units_Z 120
_cell_length_a 23.913090
_cell_length_b 11.781477
_cell_length_c 20.519148
_cell_angle_alpha 90.000000
_cell_angle_beta 90.000000
_cell_angle_gamma 90.000000
_cell_volume 5780.890752
_symmetry_space_group_name_H-M "I B A M"
_symmetry_group_IT_number 72
_symmetry_cell_setting 'orthorhombic'
loop_
_space_group_symop_operation_xyz
x,y,z
-x,-y,z
x,-y,1/2-z
-x,y,1/2-z
-x,-y,-z
x,y,-z
-x,y,1/2+z
x,-y,1/2+z
1/2+x,1/2+y,1/2+z
1/2-x,1/2-y,1/2+z
1/2+x,1/2-y,-z
1/2-x,1/2+y,-z
1/2-x,1/2-y,1/2-z
1/2+x,1/2+y,1/2-z
1/2-x,1/2+y,z
1/2+x,1/2-y,z
loop_
_atom_site_type_symbol
_atom_site_label
_atom_site_fract_x
_atom_site_fract_y
_atom_site_fract_z
Si Si1 0.603393 0.333450 0.116158
Si Si2 0.332311 0.007255 0.115627
Si Si3 0.644026 0.165046 0.000000
Si Si4 0.712031 0.768099 0.148741
Si Si5 0.451884 0.078431 0.924353
Si Si6 0.017929 0.159863 0.425125
Si Si7 0.670894 0.192292 0.208620
Si Si8 0.141963 0.072547 0.578637
O O1 0.615537 0.246490 0.056984
O O2 0.538176 0.368172 0.113726
O O3 0.619440 0.264463 0.180642
O O4 0.642035 0.444342 0.105513
O O5 0.328807 0.917005 0.057337
O O6 0.329586 0.935848 0.182003
O O7 0.290617 0.113279 0.109950
O O8 0.393484 0.063307 0.110067
O O9 0.677139 0.791907 0.214713
O O10 0.773988 0.742623 0.173294
O O11 0.685169 0.662068 0.110149
O O12 0.474057 0.204812 0.924713
O O13 0.500000 0.000000 0.896127
O O14 0.441923 0.039729 0.000000
O O15 0.007769 0.125058 0.500000
O O16 0.078665 0.113997 0.406088
O O17 0.148467 0.072409 0.500000
#
# Coordination Sequence:
#
# PCOD9525263 Si02
#       8
#    16  16   8  16  16  16  16  16
#     4  11  21  41  64  98 130 172 218 254 318 390
#     4  11  21  40  66  94 131 163 212 276 312 382
#     4  10  20  36  62  98 132 165 199 257 326 368
#     4  11  25  47  65  94 123 172 226 265 323 379
#     4  10  18  29  58  95 131 169 204 250 317 384
#     4  10  19  34  61  97 135 167 206 257 321 387
#     4  10  26  45  69  87 124 178 222 267 315 385
#     4  11  23  40  65 101 134 164 207 272 322 382
#
# _framework density 20.758047000000001
#
# number of rings (size 3 to 8) (size 9 to 14) (size 15 to 20)
#    0.000    1.467    3.333    2.400    4.667    1.600 
#    4.800    0.667    0.000    2.400    0.000    0.000 
#    0.000    0.000    0.000    0.000    0.000    0.000 
#
# Total GULP energy -334116.332323 kJ/mol
# GULP energy per Si atom -5568.605539 kJ/mol
# Density = 2.071080 g / cm^3
# Si number density = 20.758047 Si / 1000 Ang^3
#
#
#
# Elastic Constant Matrix: (Units=GPa)
#
#
# Indices 1 2 3 4 5 6 
#
# 1 44.8809 7.9426 -1.0167 0.0000 0.0000 0.0000
# 2 7.9426 62.1517 10.3228 0.0000 0.0000 0.0000
# 3 -1.0167 10.3228 39.4039 0.0000 0.0000 0.0000
# 4 0.0000 0.0000 0.0000 7.2925 0.0000 0.0000
# 5 0.0000 0.0000 0.0000 0.0000 28.7716 0.0000
# 6 0.0000 0.0000 0.0000 0.0000 0.0000 30.2533
#
#
#
# Elastic Compliance Matrix: (Units=1/GPa)
#
#
# Indices 1 2 3 4 5 6 
#
# 1 0.022872 -0.003158 0.001418 0.000000 0.000000 0.000000
# 2 -0.003158 0.017258 -0.004603 0.000000 0.000000 0.000000
# 3 0.001418 -0.004603 0.026621 0.000000 0.000000 0.000000
# 4 0.000000 0.000000 0.000000 0.137127 0.000000 0.000000
# 5 0.000000 0.000000 0.000000 0.000000 0.034757 0.000000
# 6 0.000000 0.000000 0.000000 0.000000 0.000000 0.033054
#
#
# Mechanical properties :
#
#
# Convention : Reuss Voigt Hill
#
# Bulk Modulus (GPa) = 18.49667 20.10375 19.30021
# Shear Modulus (GPa) = 16.53458 21.87598 19.20528
#
# Velocity S-wave (km/s) = 2.82536 3.24984 3.04500
# Velocity P-wave (km/s) = 4.42420 4.87727 4.65625
#
# Compressibility (1/GPa) = 0.05406378
#
# Stress axis : x y z
#
# Youngs Moduli (GPa) = 43.72116 57.94500 37.56495
#
# Poissons Ratio (x) = 0.18301 -0.05325
# Poissons Ratio (y) = 0.13809 0.17290
# Poissons Ratio (z) = -0.06198 0.26670
#
# Static dielectric constant tensor:
#      x y z
#    x 1.769560 0.000000 0.000000 
#    y 0.000000 1.788060 0.000000 
#    z 0.000000 0.000000 1.706040 
# 
# From -- ./inp_files/40423.got.cif
#   From: 2010.05.17/outbox.cif.g08.bks.cpg/sg72_21_cif.got.tgz:40423.got - 2010.06.03 17:03:01.
