data_PCOD9525481
_publ_section_title
;
Structure prediction by ZEFSAII (Michael W. Deem and Ramdas Pophale) SiO2 
 PCOD9525481
Probable space group: I B A M
;
_chemical_formula_sum "Si O2"
_cell_formula_units_Z 104
_cell_length_a 19.481677
_cell_length_b 19.427477
_cell_length_c 14.599571
_cell_angle_alpha 90.000000
_cell_angle_beta 90.000000
_cell_angle_gamma 90.000000
_cell_volume 5525.643177
_symmetry_space_group_name_H-M "I B A M"
_symmetry_group_IT_number 72
_symmetry_cell_setting 'orthorhombic'
loop_
_space_group_symop_operation_xyz
x,y,z
-x,-y,z
x,-y,1/2-z
-x,y,1/2-z
-x,-y,-z
x,y,-z
-x,y,1/2+z
x,-y,1/2+z
1/2+x,1/2+y,1/2+z
1/2-x,1/2-y,1/2+z
1/2+x,1/2-y,-z
1/2-x,1/2+y,-z
1/2-x,1/2-y,1/2-z
1/2+x,1/2+y,1/2-z
1/2-x,1/2+y,z
1/2+x,1/2-y,z
loop_
_atom_site_type_symbol
_atom_site_label
_atom_site_fract_x
_atom_site_fract_y
_atom_site_fract_z
Si Si1 0.505543 0.680100 0.000000
Si Si2 0.741629 0.191218 0.393849
Si Si3 0.683413 0.928439 0.228169
Si Si4 0.441363 0.095696 0.891096
Si Si5 0.601147 0.727043 0.362144
Si Si6 0.405842 0.114479 0.396167
Si Si7 0.102489 0.754232 0.850739
O O1 0.445500 0.675815 0.080149
O O2 0.563299 0.697320 0.079570
O O3 0.730015 0.171538 0.500000
O O4 0.727093 0.127084 0.327013
O O5 0.818561 0.216979 0.381575
O O6 0.684015 0.247744 0.368665
O O7 0.616582 0.944448 0.164602
O O8 0.652491 0.897908 0.321686
O O9 0.719803 0.000000 0.250000
O O10 0.520768 0.082183 0.868293
O O11 0.424875 0.175978 0.868180
O O12 0.434098 0.086155 0.000000
O O13 0.581049 0.803397 0.396929
O O14 0.589574 0.726008 0.253847
O O15 0.388976 0.092721 0.500000
#
# Coordination Sequence:
#
# PCOD9525481 Si02
#       7
#     8  16  16  16  16  16  16
#     4  12  20  32  52  84 117 147 186 221 276 355
#     4  11  22  39  57  78 113 154 191 232 294 349
#     4  11  24  36  52  73 101 148 204 237 268 325
#     4  10  18  33  52  74 105 151 183 223 281 327
#     4  12  21  33  56  84 114 154 188 225 285 355
#     4  11  20  32  51  75 111 143 183 232 279 327
#     4  11  19  31  53  79 112 152 181 219 275 341
#
# _framework density 18.821337
#
# number of rings (size 3 to 8) (size 9 to 14) (size 15 to 20)
#    0.000    0.923    7.692    2.769    0.000    2.462 
#    0.000    1.538    0.000    0.000    0.000    0.000 
#    0.000    3.692    0.000    0.000    0.000    0.000 
#
# Total GULP energy -289520.570715 kJ/mol
# GULP energy per Si atom -5567.703283 kJ/mol
# Density = 1.877850 g / cm^3
# Si number density = 18.821337 Si / 1000 Ang^3
#
#
#
# Elastic Constant Matrix: (Units=GPa)
#
#
# Indices 1 2 3 4 5 6 
#
# 1 112.8826 10.0483 30.3062 0.0000 0.0000 0.0000
# 2 10.0483 16.7067 1.5372 0.0000 0.0000 0.0000
# 3 30.3062 1.5372 151.6786 0.0000 0.0000 0.0000
# 4 0.0000 0.0000 0.0000 2.1216 0.0000 0.0000
# 5 0.0000 0.0000 0.0000 0.0000 4.6524 0.0000
# 6 0.0000 0.0000 0.0000 0.0000 0.0000 12.6321
#
#
#
# Elastic Compliance Matrix: (Units=1/GPa)
#
#
# Indices 1 2 3 4 5 6 
#
# 1 0.009887 -0.005770 -0.001917 0.000000 0.000000 0.000000
# 2 -0.005770 0.063280 0.000512 0.000000 0.000000 0.000000
# 3 -0.001917 0.000512 0.006971 0.000000 0.000000 0.000000
# 4 0.000000 0.000000 0.000000 0.471343 0.000000 0.000000
# 5 0.000000 0.000000 0.000000 0.000000 0.214943 0.000000
# 6 0.000000 0.000000 0.000000 0.000000 0.000000 0.079163
#
#
# Mechanical properties :
#
#
# Convention : Reuss Voigt Hill
#
# Bulk Modulus (GPa) = 15.20072 40.56124 27.88098
# Shear Modulus (GPa) = 5.66979 19.83963 12.75471
#
# Velocity S-wave (km/s) = 1.73752 3.25022 2.60604
# Velocity P-wave (km/s) = 3.48126 5.97350 4.88886
#
# Compressibility (1/GPa) = 0.06578636
#
# Stress axis : x y z
#
# Youngs Moduli (GPa) = 101.14219 15.80283 143.45695
#
# Poissons Ratio (x) = 0.09119 0.27501
# Poissons Ratio (y) = 0.58361 -0.07339
# Poissons Ratio (z) = 0.19389 -0.00808
#
# Static dielectric constant tensor:
#      x y z
#    x 1.659980 0.000000 0.000000 
#    y 0.000000 1.673750 0.000000 
#    z 0.000000 0.000000 1.670570 
# 
# From -- ./inp_files/23361.got.cif
#   From: 2010.05.17/outbox.cif.g08.bks.cpg/sg72_12_cif.got.tgz:23361.got - 2010.06.03 17:03:01.
