data_PCOD9525173
_publ_section_title
;
Structure prediction by ZEFSAII (Michael W. Deem and Ramdas Pophale) SiO2 
 PCOD9525173
Probable space group: I B A M
;
_chemical_formula_sum "Si O2"
_cell_formula_units_Z 112
_cell_length_a 24.967145
_cell_length_b 13.642758
_cell_length_c 17.089401
_cell_angle_alpha 90.000000
_cell_angle_beta 90.000000
_cell_angle_gamma 90.000000
_cell_volume 5821.004025
_symmetry_space_group_name_H-M "I B A M"
_symmetry_group_IT_number 72
_symmetry_cell_setting 'orthorhombic'
loop_
_space_group_symop_operation_xyz
x,y,z
-x,-y,z
x,-y,1/2-z
-x,y,1/2-z
-x,-y,-z
x,y,-z
-x,y,1/2+z
x,-y,1/2+z
1/2+x,1/2+y,1/2+z
1/2-x,1/2-y,1/2+z
1/2+x,1/2-y,-z
1/2-x,1/2+y,-z
1/2-x,1/2-y,1/2-z
1/2+x,1/2+y,1/2-z
1/2-x,1/2+y,z
1/2+x,1/2-y,z
loop_
_atom_site_type_symbol
_atom_site_label
_atom_site_fract_x
_atom_site_fract_y
_atom_site_fract_z
Si Si1 0.732373 0.610708 0.585336
Si Si2 0.808969 0.798081 0.414627
Si Si3 0.301228 0.675046 0.245077
Si Si4 0.518766 0.889415 0.590643
Si Si5 0.402514 0.855856 0.380514
Si Si6 0.667990 0.034775 0.082856
Si Si7 0.115639 0.664204 0.297160
O O1 0.704147 0.602132 0.500000
O O2 0.760961 0.718119 0.584676
O O3 0.706056 0.605348 0.670649
O O4 0.779487 0.530973 0.586157
O O5 0.809318 0.847473 0.500000
O O6 0.805561 0.860486 0.335101
O O7 0.861638 0.729472 0.405131
O O8 0.250000 0.750000 0.250000
O O9 0.355254 0.734254 0.222924
O O10 0.536085 0.891090 0.500000
O O11 0.462783 0.831838 0.596671
O O12 0.564253 0.844670 0.646343
O O13 0.500000 0.000000 0.613727
O O14 0.399445 0.875386 0.287820
O O15 0.380557 0.956615 0.416848
O O16 0.660544 0.101886 0.157512
O O17 0.667969 0.090212 0.000000
#
# Coordination Sequence:
#
# PCOD9525173 Si02
#       7
#    16  16  16  16  16  16  16
#     4   8  15  27  43  58  80 111 142 182 234 283
#     4   8  14  26  43  58  73 102 142 181 221 271
#     4   9  18  31  44  62  82 107 149 198 242 279
#     4  11  21  30  40  58  88 120 148 186 230 266
#     4  10  18  28  41  56  81 114 147 181 225 269
#     4  10  18  29  43  62  84 113 152 190 230 276
#     4  11  21  29  44  64  83 112 156 202 228 264
#
# _framework density 19.240667999999999
#
# number of rings (size 3 to 8) (size 9 to 14) (size 15 to 20)
#    0.000    2.429    1.429    4.286    0.000    1.714 
#    0.000    0.000    0.000    0.000    0.000    1.000 
#    0.000    0.000    0.000    0.000    0.000   97.143 
#
# Total GULP energy -312113.358346 kJ/mol
# GULP energy per Si atom -5573.452828 kJ/mol
# Density = 1.919688 g / cm^3
# Si number density = 19.240668 Si / 1000 Ang^3
#
#
#
# Elastic Constant Matrix: (Units=GPa)
#
#
# Indices 1 2 3 4 5 6 
#
# 1 53.4455 11.1496 32.9867 0.0000 0.0000 0.0000
# 2 11.1496 21.5338 26.5322 0.0000 0.0000 0.0000
# 3 32.9867 26.5322 216.1299 0.0000 0.0000 0.0000
# 4 0.0000 0.0000 0.0000 7.4582 0.0000 0.0000
# 5 0.0000 0.0000 0.0000 0.0000 27.4545 0.0000
# 6 0.0000 0.0000 0.0000 0.0000 0.0000 15.9016
#
#
#
# Elastic Compliance Matrix: (Units=1/GPa)
#
#
# Indices 1 2 3 4 5 6 
#
# 1 0.021904 -0.008509 -0.002299 0.000000 0.000000 0.000000
# 2 -0.008509 0.058020 -0.005824 0.000000 0.000000 0.000000
# 3 -0.002299 -0.005824 0.005693 0.000000 0.000000 0.000000
# 4 0.000000 0.000000 0.000000 0.134081 0.000000 0.000000
# 5 0.000000 0.000000 0.000000 0.000000 0.036424 0.000000
# 6 0.000000 0.000000 0.000000 0.000000 0.000000 0.062887
#
#
# Mechanical properties :
#
#
# Convention : Reuss Voigt Hill
#
# Bulk Modulus (GPa) = 19.10087 48.04958 33.57522
# Shear Modulus (GPa) = 13.52360 24.85890 19.19125
#
# Velocity S-wave (km/s) = 2.65404 3.59834 3.16164
# Velocity P-wave (km/s) = 4.39782 6.50317 5.55121
#
# Compressibility (1/GPa) = 0.05235363
#
# Stress axis : x y z
#
# Youngs Moduli (GPa) = 45.65273 17.23542 175.66681
#
# Poissons Ratio (x) = 0.14666 0.40378
# Poissons Ratio (y) = 0.38848 1.02305
# Poissons Ratio (z) = 0.10493 0.10038
#
# Static dielectric constant tensor:
#      x y z
#    x 1.702480 0.000000 0.000000 
#    y 0.000000 1.656910 0.000000 
#    z 0.000000 0.000000 1.750340 
# 
# From -- ./inp_files/26520.got.cif
#   From: 2010.05.17/outbox.cif.g08.bks.cpg/sg72_14_cif.got.tgz:26520.got - 2010.06.03 17:03:01.
