data_PCOD9525602
_publ_section_title
;
Structure prediction by ZEFSAII (Michael W. Deem and Ramdas Pophale) SiO2 
 PCOD9525602
Probable space group: I B A M
;
_chemical_formula_sum "Si O2"
_cell_formula_units_Z 64
_cell_length_a 9.954494
_cell_length_b 20.095818
_cell_length_c 17.960365
_cell_angle_alpha 90.000000
_cell_angle_beta 90.000000
_cell_angle_gamma 90.000000
_cell_volume 3592.857863
_symmetry_space_group_name_H-M "I B A M"
_symmetry_group_IT_number 72
_symmetry_cell_setting 'orthorhombic'
loop_
_space_group_symop_operation_xyz
x,y,z
-x,-y,z
x,-y,1/2-z
-x,y,1/2-z
-x,-y,-z
x,y,-z
-x,y,1/2+z
x,-y,1/2+z
1/2+x,1/2+y,1/2+z
1/2-x,1/2-y,1/2+z
1/2+x,1/2-y,-z
1/2-x,1/2+y,-z
1/2-x,1/2-y,1/2-z
1/2+x,1/2+y,1/2-z
1/2-x,1/2+y,z
1/2+x,1/2-y,z
loop_
_atom_site_type_symbol
_atom_site_label
_atom_site_fract_x
_atom_site_fract_y
_atom_site_fract_z
Si Si1 0.643303 0.147765 0.286808
Si Si2 0.425124 0.412569 0.912625
Si Si3 0.882553 0.205286 0.186900
Si Si4 0.686516 0.527115 0.666238
O O1 0.500000 0.132954 0.250000
O O2 0.752334 0.171561 0.225133
O O3 0.630839 0.216915 0.331890
O O4 0.698940 0.083092 0.328944
O O5 0.406776 0.337660 0.886110
O O6 0.555198 0.436337 0.866001
O O7 0.305160 0.461482 0.885252
O O8 0.446039 0.419819 0.000000
O O9 0.000000 0.199735 0.250000
O O10 0.667307 0.500000 0.750000
#
# Coordination Sequence:
#
# PCOD9525602 Si02
#       4
#    16  16  16  16
#     4  10  21  33  61  88 111 143 189 242 292 325
#     4  11  21  35  58  87 114 151 194 237 284 337
#     4  10  18  38  61  85 110 145 197 242 271 336
#     4  11  19  35  58  85 112 141 192 242 276 329
#
# _framework density 17.813116999999998
#
# number of rings (size 3 to 8) (size 9 to 14) (size 15 to 20)
#    0.000    1.500    5.000    3.000    0.000    0.500 
#    0.000    2.500    0.000    4.500    0.000    0.000 
#    0.000    0.000    0.000    0.000    0.000    0.000 
#
# Total GULP energy -178229.425068 kJ/mol
# GULP energy per Si atom -5569.669533 kJ/mol
# Density = 1.777257 g / cm^3
# Si number density = 17.813117 Si / 1000 Ang^3
#
#
#
# Elastic Constant Matrix: (Units=GPa)
#
#
# Indices 1 2 3 4 5 6 
#
# 1 93.7788 41.8728 19.9626 0.0000 0.0000 0.0000
# 2 41.8728 148.8678 55.0581 0.0000 0.0000 0.0000
# 3 19.9626 55.0581 83.4608 0.0000 0.0000 0.0000
# 4 0.0000 0.0000 0.0000 -9.9009 0.0000 0.0000
# 5 0.0000 0.0000 0.0000 0.0000 -0.7007 0.0000
# 6 0.0000 0.0000 0.0000 0.0000 0.0000 15.8581
#
#
#
# Elastic Compliance Matrix: (Units=1/GPa)
#
#
# Indices 1 2 3 4 5 6 
#
# 1 0.012242 -0.003122 -0.000868 0.000000 0.000000 0.000000
# 2 -0.003122 0.009681 -0.005640 0.000000 0.000000 0.000000
# 3 -0.000868 -0.005640 0.015910 0.000000 0.000000 0.000000
# 4 0.000000 0.000000 0.000000 -0.101001 0.000000 0.000000
# 5 0.000000 0.000000 0.000000 0.000000 -1.427055 0.000000
# 6 0.000000 0.000000 0.000000 0.000000 0.000000 0.063059
#
#
# Mechanical properties :
#
#
# Convention : Reuss Voigt Hill
#
# Bulk Modulus (GPa) = 53.84315 62.21049 58.02682
# Shear Modulus (GPa) = -3.56707 14.99890 5.71592
#
# Velocity S-wave (km/s) = -1.41663 2.90490 1.79326
# Velocity P-wave (km/s) = 5.25514 6.80081 6.07732
#
# Compressibility (1/GPa) = 0.01857247
#
# Stress axis : x y z
#
# Youngs Moduli (GPa) = 81.68351 103.28978 62.85347
#
# Poissons Ratio (x) = 0.32250 0.05459
# Poissons Ratio (y) = 0.25504 0.35449
# Poissons Ratio (z) = 0.07094 0.58255
#
# Static dielectric constant tensor:
#      x y z
#    x 1.647630 0.000000 0.000000 
#    y 0.000000 1.687420 0.000000 
#    z 0.000000 0.000000 1.564110 
# 
# From -- ./inp_files/19855.got.cif
#   From: 2010.05.17/outbox.cif.g08.bks.cpg/sg72_10_cif.got.tgz:19855.got - 2010.06.03 17:03:01.
