data_PCOD9525154
_publ_section_title
;
Structure prediction by ZEFSAII (Michael W. Deem and Ramdas Pophale) SiO2 
 PCOD9525154
Probable space group: I B A M
;
_chemical_formula_sum "Si O2"
_cell_formula_units_Z 112
_cell_length_a 25.735423
_cell_length_b 36.228175
_cell_length_c 7.583539
_cell_angle_alpha 90.000000
_cell_angle_beta 90.000000
_cell_angle_gamma 90.000000
_cell_volume 7070.492931
_symmetry_space_group_name_H-M "I B A M"
_symmetry_group_IT_number 72
_symmetry_cell_setting 'orthorhombic'
loop_
_space_group_symop_operation_xyz
x,y,z
-x,-y,z
x,-y,1/2-z
-x,y,1/2-z
-x,-y,-z
x,y,-z
-x,y,1/2+z
x,-y,1/2+z
1/2+x,1/2+y,1/2+z
1/2-x,1/2-y,1/2+z
1/2+x,1/2-y,-z
1/2-x,1/2+y,-z
1/2-x,1/2-y,1/2-z
1/2+x,1/2+y,1/2-z
1/2-x,1/2+y,z
1/2+x,1/2-y,z
loop_
_atom_site_type_symbol
_atom_site_label
_atom_site_fract_x
_atom_site_fract_y
_atom_site_fract_z
Si Si1 0.557024 0.221591 0.288506
Si Si2 0.166532 0.250120 0.711115
Si Si3 0.252490 0.691020 0.211873
Si Si4 0.200994 0.380699 0.713628
Si Si5 0.830538 0.459719 0.211325
Si Si6 0.555972 0.939511 0.211031
Si Si7 0.417046 0.859356 0.286410
O O1 0.500000 0.236901 0.250000
O O2 0.561170 0.219769 0.500000
O O3 0.608068 0.243225 0.223578
O O4 0.561145 0.179349 0.220008
O O5 0.165251 0.254320 0.500000
O O6 0.206590 0.281603 0.778406
O O7 0.193450 0.211025 0.747920
O O8 0.242443 0.649477 0.276920
O O9 0.247733 0.690103 0.000000
O O10 0.205237 0.382465 0.500000
O O11 0.199134 0.423060 0.777209
O O12 0.144139 0.363602 0.752152
O O13 0.808523 0.500000 0.250000
O O14 0.890551 0.457584 0.277799
O O15 0.832556 0.456401 0.000000
O O16 0.500000 0.956383 0.250000
O O17 0.557078 0.897121 0.278623
O O18 0.560301 0.938429 0.000000
O O19 0.421649 0.859153 0.500000
#
# Coordination Sequence:
#
# PCOD9525154 Si02
#       7
#    16  16  16  16  16  16  16
#     4  10  18  27  39  54  76 105 132 159 193 232
#     4   9  17  27  39  58  82 103 123 156 201 234
#     4   9  15  26  45  61  74  97 129 161 191 232
#     4   8  13  25  44  59  71  94 126 154 189 237
#     4   9  18  30  42  55  71  92 119 152 190 234
#     4   9  17  27  39  52  66  88 119 155 192 231
#     4   8  13  24  39  53  70  93 123 156 193 233
#
# _framework density 15.840479
#
# number of rings (size 3 to 8) (size 9 to 14) (size 15 to 20)
#    0.000    3.143    1.429    2.143    0.000    1.429 
#    0.000    2.143    0.000    1.714    0.000    0.000 
#    0.000    0.000    0.000    0.000    0.000    0.714 
#
# Total GULP energy -311948.775857 kJ/mol
# GULP energy per Si atom -5570.513855 kJ/mol
# Density = 1.580443 g / cm^3
# Si number density = 15.840479 Si / 1000 Ang^3
#
#
#
# Elastic Constant Matrix: (Units=GPa)
#
#
# Indices 1 2 3 4 5 6 
#
# 1 77.5310 60.9605 1.6389 0.0000 0.0000 0.0000
# 2 60.9605 112.9553 3.2863 0.0000 0.0000 0.0000
# 3 1.6389 3.2863 34.5115 0.0000 0.0000 0.0000
# 4 0.0000 0.0000 0.0000 13.3881 0.0000 0.0000
# 5 0.0000 0.0000 0.0000 0.0000 11.9690 0.0000
# 6 0.0000 0.0000 0.0000 0.0000 0.0000 2.0029
#
#
#
# Elastic Compliance Matrix: (Units=1/GPa)
#
#
# Indices 1 2 3 4 5 6 
#
# 1 0.022406 -0.012095 0.000088 0.000000 0.000000 0.000000
# 2 -0.012095 0.015406 -0.000893 0.000000 0.000000 0.000000
# 3 0.000088 -0.000893 0.029057 0.000000 0.000000 0.000000
# 4 0.000000 0.000000 0.000000 0.074693 0.000000 0.000000
# 5 0.000000 0.000000 0.000000 0.000000 0.083549 0.000000
# 6 0.000000 0.000000 0.000000 0.000000 0.000000 0.499284
#
#
# Mechanical properties :
#
#
# Convention : Reuss Voigt Hill
#
# Bulk Modulus (GPa) = 24.34897 39.64102 31.99500
# Shear Modulus (GPa) = 6.54548 16.07945 11.31247
#
# Velocity S-wave (km/s) = 2.03497 3.18950 2.67526
# Velocity P-wave (km/s) = 4.57452 6.21638 5.45754
#
# Compressibility (1/GPa) = 0.04106950
#
# Stress axis : x y z
#
# Youngs Moduli (GPa) = 44.63086 64.90798 34.41553
#
# Poissons Ratio (x) = 0.78505 -0.00302
# Poissons Ratio (y) = 0.53980 0.03072
# Poissons Ratio (z) = -0.00391 0.05794
#
# Static dielectric constant tensor:
#      x y z
#    x 1.530980 0.000000 0.000000 
#    y 0.000000 1.566000 0.000000 
#    z 0.000000 0.000000 1.625880 
# 
# From -- ./inp_files/15782.got.cif
#   From: 2010.05.17/outbox.cif.g08.bks.cpg/sg72_8_cif.got.tgz:15782.got - 2010.06.03 17:03:01.
