data_PCOD9525229
_publ_section_title
;
Structure prediction by ZEFSAII (Michael W. Deem and Ramdas Pophale) SiO2 
 PCOD9525229
Probable space group: I B A M
;
_chemical_formula_sum "Si O2"
_cell_formula_units_Z 96
_cell_length_a 18.079540
_cell_length_b 23.027069
_cell_length_c 14.185648
_cell_angle_alpha 90.000000
_cell_angle_beta 90.000000
_cell_angle_gamma 90.000000
_cell_volume 5905.752166
_symmetry_space_group_name_H-M "I B A M"
_symmetry_group_IT_number 72
_symmetry_cell_setting 'orthorhombic'
loop_
_space_group_symop_operation_xyz
x,y,z
-x,-y,z
x,-y,1/2-z
-x,y,1/2-z
-x,-y,-z
x,y,-z
-x,y,1/2+z
x,-y,1/2+z
1/2+x,1/2+y,1/2+z
1/2-x,1/2-y,1/2+z
1/2+x,1/2-y,-z
1/2-x,1/2+y,-z
1/2-x,1/2-y,1/2-z
1/2+x,1/2+y,1/2-z
1/2-x,1/2+y,z
1/2+x,1/2-y,z
loop_
_atom_site_type_symbol
_atom_site_label
_atom_site_fract_x
_atom_site_fract_y
_atom_site_fract_z
Si Si1 0.678949 0.285314 0.712934
Si Si2 0.984625 0.405785 0.888707
Si Si3 0.888346 0.780132 0.894474
Si Si4 0.798775 0.342523 0.606539
Si Si5 0.375657 0.063301 0.733059
Si Si6 0.455645 0.772685 0.609290
O O1 0.750000 0.250000 0.750000
O O2 0.646070 0.314514 0.807020
O O3 0.714935 0.324516 0.631983
O O4 0.613719 0.244747 0.672810
O O5 0.909498 0.420318 0.834305
O O6 0.989711 0.336351 0.872542
O O7 0.052615 0.437732 0.837098
O O8 0.984251 0.417367 0.000000
O O9 0.849720 0.715832 0.891471
O O10 0.975598 0.770840 0.880070
O O11 0.874635 0.802804 0.000000
O O12 0.805680 0.365828 0.500000
O O13 0.825385 0.388089 0.684814
O O14 0.341973 0.000000 0.750000
O O15 0.431815 0.772589 0.500000
#
# Coordination Sequence:
#
# PCOD9525229 Si02
#       6
#    16  16  16  16  16  16
#     4  10  19  28  44  69  95 127 163 200 234 288
#     4  10  19  31  47  66  93 122 157 207 251 288
#     4   9  17  29  47  68  94 128 158 189 241 299
#     4  10  19  34  49  65  94 131 164 200 249 298
#     4  11  22  32  46  65  87 124 173 212 246 286
#     4  10  18  29  47  70  94 127 163 196 238 297
#
# _framework density 16.255338999999999
#
# number of rings (size 3 to 8) (size 9 to 14) (size 15 to 20)
#    0.000    2.000    1.667    4.500    2.333    2.667 
#    0.000    0.833    0.000    0.000    0.000    0.000 
#    0.000    2.667    0.000   10.000    0.000    0.167 
#
# Total GULP energy -267322.336553 kJ/mol
# GULP energy per Si atom -5569.215345 kJ/mol
# Density = 1.621834 g / cm^3
# Si number density = 16.255339 Si / 1000 Ang^3
#
#
#
# Elastic Constant Matrix: (Units=GPa)
#
#
# Indices 1 2 3 4 5 6 
#
# 1 47.7552 1.9734 27.2966 0.0000 0.0000 0.0000
# 2 1.9734 18.5080 5.3656 0.0000 0.0000 0.0000
# 3 27.2966 5.3656 79.3546 0.0000 0.0000 0.0000
# 4 0.0000 0.0000 0.0000 10.1212 0.0000 0.0000
# 5 0.0000 0.0000 0.0000 0.0000 26.8812 0.0000
# 6 0.0000 0.0000 0.0000 0.0000 0.0000 10.4507
#
#
#
# Elastic Compliance Matrix: (Units=1/GPa)
#
#
# Indices 1 2 3 4 5 6 
#
# 1 0.026066 -0.000183 -0.008954 0.000000 0.000000 0.000000
# 2 -0.000183 0.055112 -0.003663 0.000000 0.000000 0.000000
# 3 -0.008954 -0.003663 0.015929 0.000000 0.000000 0.000000
# 4 0.000000 0.000000 0.000000 0.098803 0.000000 0.000000
# 5 0.000000 0.000000 0.000000 0.000000 0.037201 0.000000
# 6 0.000000 0.000000 0.000000 0.000000 0.000000 0.095687
#
#
# Mechanical properties :
#
#
# Convention : Reuss Voigt Hill
#
# Bulk Modulus (GPa) = 13.98479 23.87653 18.93066
# Shear Modulus (GPa) = 13.21932 16.88944 15.05438
#
# Velocity S-wave (km/s) = 2.85481 3.22686 3.04652
# Velocity P-wave (km/s) = 4.41457 5.34826 4.90369
#
# Compressibility (1/GPa) = 0.07150628
#
# Stress axis : x y z
#
# Youngs Moduli (GPa) = 38.36480 18.14475 62.77752
#
# Poissons Ratio (x) = 0.00333 0.56209
# Poissons Ratio (y) = 0.00704 0.22998
# Poissons Ratio (z) = 0.34351 0.06647
#
# Static dielectric constant tensor:
#      x y z
#    x 1.551270 0.000000 0.000000 
#    y 0.000000 1.567370 0.000000 
#    z 0.000000 0.000000 1.616350 
# 
# From -- ./inp_files/24421.got.cif
#   From: 2010.05.17/outbox.cif.g08.bks.cpg/sg72_13_cif.got.tgz:24421.got - 2010.06.03 17:03:01.
