data_PCOD9525549
_publ_section_title
;
Structure prediction by ZEFSAII (Michael W. Deem and Ramdas Pophale) SiO2 
 PCOD9525549
Probable space group: I B A M
;
_chemical_formula_sum "Si O2"
_cell_formula_units_Z 80
_cell_length_a 11.523647
_cell_length_b 24.521509
_cell_length_c 15.509226
_cell_angle_alpha 90.000000
_cell_angle_beta 90.000000
_cell_angle_gamma 90.000000
_cell_volume 4382.553869
_symmetry_space_group_name_H-M "I B A M"
_symmetry_group_IT_number 72
_symmetry_cell_setting 'orthorhombic'
loop_
_space_group_symop_operation_xyz
x,y,z
-x,-y,z
x,-y,1/2-z
-x,y,1/2-z
-x,-y,-z
x,y,-z
-x,y,1/2+z
x,-y,1/2+z
1/2+x,1/2+y,1/2+z
1/2-x,1/2-y,1/2+z
1/2+x,1/2-y,-z
1/2-x,1/2+y,-z
1/2-x,1/2-y,1/2-z
1/2+x,1/2+y,1/2-z
1/2-x,1/2+y,z
1/2+x,1/2-y,z
loop_
_atom_site_type_symbol
_atom_site_label
_atom_site_fract_x
_atom_site_fract_y
_atom_site_fract_z
Si Si1 0.500703 0.847714 0.850352
Si Si2 0.138828 0.936496 0.248948
Si Si3 0.249341 0.368022 0.401531
Si Si4 0.762235 0.862305 0.600355
Si Si5 0.655224 0.756837 0.103624
O O1 0.500000 0.862417 0.750000
O O2 0.609796 0.877502 0.895133
O O3 0.376803 0.858889 0.890790
O O4 0.538880 0.784112 0.859015
O O5 0.187490 0.904808 0.332206
O O6 0.188669 0.907732 0.163776
O O7 0.000000 0.932780 0.250000
O O8 0.172202 0.000000 0.250000
O O9 0.288463 0.375588 0.500000
O O10 0.252638 0.303278 0.377471
O O11 0.793060 0.870664 0.500000
O O12 0.811696 0.803473 0.630456
O O13 0.643329 0.756627 0.000000
#
# Coordination Sequence:
#
# PCOD9525549 Si02
#       5
#    16  16  16  16  16
#     4  10  18  34  61  92 127 158 191 247 298 358
#     4  11  26  44  60  85 118 157 213 262 295 353
#     4   9  19  40  63  86 122 162 193 242 310 359
#     4  11  21  38  63  93 126 160 200 246 302 364
#     4   8  18  33  55  91 128 157 186 232 295 361
#
# _framework density 18.254196
#
# number of rings (size 3 to 8) (size 9 to 14) (size 15 to 20)
#    1.200    1.000    2.000    1.200    0.000    7.200 
#    0.000    8.000    0.000    2.400    0.000    0.000 
#    0.000    0.000    0.000    0.000    0.000    0.000 
#
# Total GULP energy -222770.830837 kJ/mol
# GULP energy per Si atom -5569.270771 kJ/mol
# Density = 1.821265 g / cm^3
# Si number density = 18.254196 Si / 1000 Ang^3
#
#
#
# Elastic Constant Matrix: (Units=GPa)
#
#
# Indices 1 2 3 4 5 6 
#
# 1 61.7851 48.3684 27.3434 0.0000 0.0000 0.0000
# 2 48.3684 135.6134 80.8623 0.0001 -0.0001 0.0000
# 3 27.3434 80.8623 106.1922 0.0001 -0.0001 0.0000
# 4 0.0000 0.0001 0.0001 20.0761 -0.0001 0.0000
# 5 0.0000 -0.0001 -0.0001 -0.0001 -19.2620 0.0000
# 6 0.0000 0.0000 0.0000 0.0000 0.0000 22.3789
#
#
#
# Elastic Compliance Matrix: (Units=1/GPa)
#
#
# Indices 1 2 3 4 5 6 
#
# 1 0.022474 -0.008362 0.000580 0.000000 0.000000 0.000000
# 2 -0.008362 0.016618 -0.010501 0.000000 0.000000 0.000000
# 3 0.000580 -0.010501 0.017263 0.000000 0.000000 0.000000
# 4 0.000000 0.000000 0.000000 0.049810 0.000000 0.000000
# 5 0.000000 0.000000 0.000000 0.000000 -0.051916 0.000000
# 6 0.000000 0.000000 0.000000 0.000000 0.000000 0.044685
#
#
# Mechanical properties :
#
#
# Convention : Reuss Voigt Hill
#
# Bulk Modulus (GPa) = 50.52802 68.52654 59.52728
# Shear Modulus (GPa) = 35.18745 14.43972 24.81358
#
# Velocity S-wave (km/s) = 4.39525 2.81559 3.69092
# Velocity P-wave (km/s) = 7.31423 6.94202 7.13055
#
# Compressibility (1/GPa) = 0.01979100
#
# Stress axis : x y z
#
# Youngs Moduli (GPa) = 44.49523 60.17746 57.92601
#
# Poissons Ratio (x) = 0.50319 -0.03362
# Poissons Ratio (y) = 0.37206 0.60826
# Poissons Ratio (z) = -0.02583 0.63190
#
# Static dielectric constant tensor:
#      x y z
#    x 1.627560 0.000000 0.000000 
#    y 0.000000 1.632550 0.000000 
#    z 0.000000 0.000000 1.615810 
# 
# From -- ./inp_files/20212.got.cif
#   From: 2010.05.17/outbox.cif.g08.bks.cpg/sg72_11_cif.got.tgz:20212.got - 2010.06.03 17:03:01.
