data_PCOD9525886
_publ_section_title
;
Structure prediction by ZEFSAII (Michael W. Deem and Ramdas Pophale) SiO2 
 PCOD9525886
Probable space group: I B A M
;
_chemical_formula_sum "Si O2"
_cell_formula_units_Z 96
_cell_length_a 16.636666
_cell_length_b 15.028111
_cell_length_c 14.123412
_cell_angle_alpha 90.000000
_cell_angle_beta 90.000000
_cell_angle_gamma 90.000000
_cell_volume 3531.102466
_symmetry_space_group_name_H-M "I B A M"
_symmetry_group_IT_number 72
_symmetry_cell_setting 'orthorhombic'
loop_
_space_group_symop_operation_xyz
x,y,z
-x,-y,z
x,-y,1/2-z
-x,y,1/2-z
-x,-y,-z
x,y,-z
-x,y,1/2+z
x,-y,1/2+z
1/2+x,1/2+y,1/2+z
1/2-x,1/2-y,1/2+z
1/2+x,1/2-y,-z
1/2-x,1/2+y,-z
1/2-x,1/2-y,1/2-z
1/2+x,1/2+y,1/2-z
1/2-x,1/2+y,z
1/2+x,1/2-y,z
loop_
_atom_site_type_symbol
_atom_site_label
_atom_site_fract_x
_atom_site_fract_y
_atom_site_fract_z
Si Si1 0.352129 0.209408 0.609270
Si Si2 0.694272 0.844529 0.107261
Si Si3 0.089664 0.512540 0.637840
Si Si4 0.835777 0.026136 0.385644
Si Si5 0.481448 0.354978 0.613785
Si Si6 0.666461 0.671044 0.827112
O O1 0.346309 0.238572 0.500000
O O2 0.382274 0.109777 0.612711
O O3 0.422683 0.274721 0.646542
O O4 0.259280 0.203726 0.643555
O O5 0.782022 0.884927 0.135178
O O6 0.650448 0.780240 0.181558
O O7 0.646647 0.936364 0.100566
O O8 0.688013 0.805331 0.000000
O O9 0.091184 0.500000 0.750000
O O10 0.000000 0.500000 0.603937
O O11 0.828493 0.009650 0.500000
O O12 0.926089 0.058928 0.365310
O O13 0.811459 0.936259 0.332003
O O14 0.490551 0.351296 0.500000
O O15 0.571516 0.350505 0.651462
#
# Coordination Sequence:
#
# PCOD9525886 Si02
#       6
#    16  16  16  16  16  16
#     4  11  21  37  63  93 124 160 204 254 307 364
#     4  11  21  36  62  91 118 154 201 253 306 362
#     4  11  25  43  61  86 122 161 204 254 309 369
#     4  10  19  32  53  84 125 161 193 241 304 367
#     4  10  20  32  53  89 127 161 199 250 312 368
#     4  12  21  34  58  90 127 161 200 255 310 362
#
# _framework density 27.186976999999999
#
# number of rings (size 3 to 8) (size 9 to 14) (size 15 to 20)
#    0.000    1.167    3.333    5.000    0.000    4.000 
#    0.000    0.833    0.000    0.000    0.000    1.167 
#    0.000    0.000    0.000    0.000    0.000    0.000 
#
# Total GULP energy -267245.170999 kJ/mol
# GULP energy per Si atom -5567.607729 kJ/mol
# Density = 2.712510 g / cm^3
# Si number density = 27.186977 Si / 1000 Ang^3
#
#
#
# Elastic Constant Matrix: (Units=GPa)
#
#
# Indices 1 2 3 4 5 6 
#
# 1 175.6054 18.7214 -6.5521 0.0000 0.0000 0.0000
# 2 18.7214 142.0233 10.2575 0.0000 0.0000 0.0000
# 3 -6.5521 10.2575 101.6639 0.0000 0.0000 0.0000
# 4 0.0000 0.0000 0.0000 18.9895 0.0000 0.0000
# 5 0.0000 0.0000 0.0000 0.0000 7.7594 0.0000
# 6 0.0000 0.0000 0.0000 0.0000 0.0000 46.2676
#
#
#
# Elastic Compliance Matrix: (Units=1/GPa)
#
#
# Indices 1 2 3 4 5 6 
#
# 1 0.005796 -0.000797 0.000454 0.000000 0.000000 0.000000
# 2 -0.000797 0.007202 -0.000778 0.000000 0.000000 0.000000
# 3 0.000454 -0.000778 0.009944 0.000000 0.000000 0.000000
# 4 0.000000 0.000000 0.000000 0.052661 0.000000 0.000000
# 5 0.000000 0.000000 0.000000 0.000000 0.128876 0.000000
# 6 0.000000 0.000000 0.000000 0.000000 0.000000 0.021613
#
#
# Mechanical properties :
#
#
# Convention : Reuss Voigt Hill
#
# Bulk Modulus (GPa) = 48.30680 51.57179 49.93929
# Shear Modulus (GPa) = 21.25529 41.06102 31.15815
#
# Velocity S-wave (km/s) = 2.79914 3.89050 3.38904
# Velocity P-wave (km/s) = 5.31543 6.26033 5.80713
#
# Compressibility (1/GPa) = 0.02070102
#
# Stress axis : x y z
#
# Youngs Moduli (GPa) = 172.51848 138.84388 100.56221
#
# Poissons Ratio (x) = 0.11064 -0.04565
# Poissons Ratio (y) = 0.13748 0.07824
# Poissons Ratio (z) = -0.07832 0.10803
#
# Static dielectric constant tensor:
#      x y z
#    x 2.063990 0.000000 0.000000 
#    y 0.000000 2.218280 0.000000 
#    z 0.000000 0.000000 2.349230 
# 
# From -- ./inp_files/38064.got.cif
#   From: 2010.05.17/outbox.cif.g08.bks.cpg/sg72_20_cif.got.tgz:38064.got - 2010.06.03 17:03:01.
