data_PCOD9525755
_publ_section_title
;
Structure prediction by ZEFSAII (Michael W. Deem and Ramdas Pophale) SiO2 
 PCOD9525755
Probable space group: I B A M
;
_chemical_formula_sum "Si O2"
_cell_formula_units_Z 80
_cell_length_a 26.474558
_cell_length_b 17.905197
_cell_length_c 9.055988
_cell_angle_alpha 90.000000
_cell_angle_beta 90.000000
_cell_angle_gamma 90.000000
_cell_volume 4292.829702
_symmetry_space_group_name_H-M "I B A M"
_symmetry_group_IT_number 72
_symmetry_cell_setting 'orthorhombic'
loop_
_space_group_symop_operation_xyz
x,y,z
-x,-y,z
x,-y,1/2-z
-x,y,1/2-z
-x,-y,-z
x,y,-z
-x,y,1/2+z
x,-y,1/2+z
1/2+x,1/2+y,1/2+z
1/2-x,1/2-y,1/2+z
1/2+x,1/2-y,-z
1/2-x,1/2+y,-z
1/2-x,1/2-y,1/2-z
1/2+x,1/2+y,1/2-z
1/2-x,1/2+y,z
1/2+x,1/2-y,z
loop_
_atom_site_type_symbol
_atom_site_label
_atom_site_fract_x
_atom_site_fract_y
_atom_site_fract_z
Si Si1 0.051191 0.294553 0.170543
Si Si2 0.660187 0.630000 0.679438
Si Si3 0.449279 0.387761 0.668661
Si Si4 0.845089 0.707669 0.677241
Si Si5 0.269506 0.075155 0.176718
O O1 0.050445 0.203381 0.170276
O O2 0.100684 0.317786 0.260382
O O3 0.000000 0.319394 0.250000
O O4 0.053542 0.317991 0.000000
O O5 0.657553 0.636401 0.500000
O O6 0.606677 0.594580 0.729726
O O7 0.664923 0.712438 0.748003
O O8 0.711027 0.587052 0.719807
O O9 0.500000 0.412329 0.750000
O O10 0.452098 0.413267 0.500000
O O11 0.846989 0.715744 0.500000
O O12 0.802318 0.647634 0.716780
O O13 0.289338 0.000000 0.250000
O O14 0.271455 0.068101 0.000000
#
# Coordination Sequence:
#
# PCOD9525755 Si02
#       5
#    16  16  16  16  16
#     4   9  16  27  45  71 102 133 162 198 243 292
#     4   9  18  33  51  73 100 131 166 207 250 295
#     4   8  14  24  41  66  96 124 153 191 236 283
#     4  10  19  31  50  77 103 129 164 206 249 299
#     4  10  22  37  52  71  98 131 169 210 254 303
#
# _framework density 18.635725999999998
#
# number of rings (size 3 to 8) (size 9 to 14) (size 15 to 20)
#    0.000    2.800    0.000    3.000    0.000    7.200 
#    0.000    0.000    0.000    1.200    0.000    8.400 
#    0.000    0.000    0.000    0.000    0.000    0.000 
#
# Total GULP energy -223030.520017 kJ/mol
# GULP energy per Si atom -5575.763000 kJ/mol
# Density = 1.859331 g / cm^3
# Si number density = 18.635726 Si / 1000 Ang^3
#
#
#
# Elastic Constant Matrix: (Units=GPa)
#
#
# Indices 1 2 3 4 5 6 
#
# 1 115.9281 33.9481 26.3589 0.0000 0.0000 0.0000
# 2 33.9481 58.8275 16.8697 0.0000 0.0000 0.0000
# 3 26.3589 16.8697 27.6396 0.0000 0.0000 0.0000
# 4 0.0000 0.0000 0.0000 10.4144 0.0000 0.0000
# 5 0.0000 0.0000 0.0000 0.0000 30.8265 0.0000
# 6 0.0000 0.0000 0.0000 0.0000 0.0000 -12.8809
#
#
#
# Elastic Compliance Matrix: (Units=1/GPa)
#
#
# Indices 1 2 3 4 5 6 
#
# 1 0.011874 -0.004370 -0.008657 0.000000 0.000000 0.000000
# 2 -0.004370 0.022213 -0.009391 0.000000 0.000000 0.000000
# 3 -0.008657 -0.009391 0.050167 0.000000 0.000000 0.000000
# 4 0.000000 0.000000 0.000000 0.096021 0.000000 0.000000
# 5 0.000000 0.000000 0.000000 0.000000 0.032440 0.000000
# 6 0.000000 0.000000 0.000000 0.000000 0.000000 -0.077634
#
#
# Mechanical properties :
#
#
# Convention : Reuss Voigt Hill
#
# Bulk Modulus (GPa) = 25.36761 39.63875 32.50318
# Shear Modulus (GPa) = 25.89934 14.01989 19.95962
#
# Velocity S-wave (km/s) = 3.73200 2.74581 3.27623
# Velocity P-wave (km/s) = 5.67560 5.60081 5.63833
#
# Compressibility (1/GPa) = 0.03942034
#
# Stress axis : x y z
#
# Youngs Moduli (GPa) = 84.21780 45.01783 19.93343
#
# Poissons Ratio (x) = 0.19672 0.17256
# Poissons Ratio (y) = 0.36801 0.18719
# Poissons Ratio (z) = 0.72905 0.42274
#
# Static dielectric constant tensor:
#      x y z
#    x 1.674080 0.000000 0.000000 
#    y 0.000000 1.609210 0.000000 
#    z 0.000000 0.000000 1.634170 
# 
# From -- ./inp_files/4783.got.cif
#   From: 2010.05.17/outbox.cif.g08.bks.cpg/sg72_3_cif.got.tgz:4783.got - 2010.06.03 17:03:01.
