data_PCOD9525296
_publ_section_title
;
Structure prediction by ZEFSAII (Michael W. Deem and Ramdas Pophale) SiO2 
 PCOD9525296
Probable space group: I B A M
;
_chemical_formula_sum "Si O2"
_cell_formula_units_Z 104
_cell_length_a 19.673680
_cell_length_b 13.638728
_cell_length_c 16.097987
_cell_angle_alpha 90.000000
_cell_angle_beta 90.000000
_cell_angle_gamma 90.000000
_cell_volume 4319.475785
_symmetry_space_group_name_H-M "I B A M"
_symmetry_group_IT_number 72
_symmetry_cell_setting 'orthorhombic'
loop_
_space_group_symop_operation_xyz
x,y,z
-x,-y,z
x,-y,1/2-z
-x,y,1/2-z
-x,-y,-z
x,y,-z
-x,y,1/2+z
x,-y,1/2+z
1/2+x,1/2+y,1/2+z
1/2-x,1/2-y,1/2+z
1/2+x,1/2-y,-z
1/2-x,1/2+y,-z
1/2-x,1/2-y,1/2-z
1/2+x,1/2+y,1/2-z
1/2-x,1/2+y,z
1/2+x,1/2-y,z
loop_
_atom_site_type_symbol
_atom_site_label
_atom_site_fract_x
_atom_site_fract_y
_atom_site_fract_z
Si Si1 0.355359 0.136672 0.701966
Si Si2 0.442092 0.729738 0.592151
Si Si3 0.852141 0.174221 0.409310
Si Si4 0.244385 0.076310 0.401287
Si Si5 0.500000 0.838642 0.250000
Si Si6 0.601760 0.481811 0.655813
Si Si7 0.205955 0.303014 0.626728
O O1 0.363827 0.244070 0.659893
O O2 0.318195 0.061705 0.639559
O O3 0.430343 0.106091 0.729046
O O4 0.307344 0.158891 0.780619
O O5 0.471940 0.738300 0.500000
O O6 0.482852 0.773904 0.668897
O O7 0.428197 0.615261 0.613577
O O8 0.370117 0.789926 0.591338
O O9 0.862625 0.217872 0.500000
O O10 0.902124 0.082957 0.394594
O O11 0.772260 0.139808 0.406432
O O12 0.239241 0.056835 0.500000
O O13 0.233779 0.193303 0.388453
O O14 0.182611 0.037201 0.346568
O O15 0.579116 0.500000 0.750000
#
# Coordination Sequence:
#
# PCOD9525296 Si02
#       7
#    16  16  16  16   8  16  16
#     4  10  19  33  49  70  99 133 169 208 246 290
#     4  10  20  36  54  73 103 138 173 216 260 303
#     4  11  19  29  50  78 103 125 157 201 250 306
#     4  10  18  30  49  73 101 129 160 204 261 314
#     4  10  22  36  53  74  97 136 190 222 242 290
#     4  11  20  33  51  75 106 135 163 202 260 319
#     4   9  16  30  50  74  98 125 159 200 257 309
#
# _framework density 24.076996000000001
#
# number of rings (size 3 to 8) (size 9 to 14) (size 15 to 20)
#    0.000    1.846    0.000   10.615    0.000    1.231 
#    0.000    3.462    0.000    4.615    0.000   13.462 
#    0.000   17.231    0.000    0.000    0.000    0.000 
#
# Total GULP energy -290349.468870 kJ/mol
# GULP energy per Si atom -5583.643632 kJ/mol
# Density = 2.402220 g / cm^3
# Si number density = 24.076996 Si / 1000 Ang^3
#
#
#
# Elastic Constant Matrix: (Units=GPa)
#
#
# Indices 1 2 3 4 5 6 
#
# 1 144.6821 9.9639 44.1655 0.0000 0.0000 0.0000
# 2 9.9639 65.2732 25.2634 0.0000 0.0000 0.0000
# 3 44.1655 25.2634 171.1004 0.0000 0.0000 0.0000
# 4 0.0000 0.0000 0.0000 22.6613 0.0000 0.0000
# 5 0.0000 0.0000 0.0000 0.0000 0.9576 0.0000
# 6 0.0000 0.0000 0.0000 0.0000 0.0000 -2.7488
#
#
#
# Elastic Compliance Matrix: (Units=1/GPa)
#
#
# Indices 1 2 3 4 5 6 
#
# 1 0.007514 -0.000420 -0.001877 0.000000 0.000000 0.000000
# 2 -0.000420 0.016272 -0.002294 0.000000 0.000000 0.000000
# 3 -0.001877 -0.002294 0.006668 0.000000 0.000000 0.000000
# 4 0.000000 0.000000 0.000000 0.044128 0.000000 0.000000
# 5 0.000000 0.000000 0.000000 0.000000 1.044252 0.000000
# 6 0.000000 0.000000 0.000000 0.000000 0.000000 -0.363790
#
#
# Mechanical properties :
#
#
# Convention : Reuss Voigt Hill
#
# Bulk Modulus (GPa) = 47.01433 59.98239 53.49836
# Shear Modulus (GPa) = 6.48241 24.28488 15.38364
#
# Velocity S-wave (km/s) = 1.64262 3.17935 2.53046
# Velocity P-wave (km/s) = 4.81318 6.20036 5.55028
#
# Compressibility (1/GPa) = 0.02127011
#
# Stress axis : x y z
#
# Youngs Moduli (GPa) = 133.08925 61.45410 149.97281
#
# Poissons Ratio (x) = 0.02583 0.28156
# Poissons Ratio (y) = 0.05594 0.34406
# Poissons Ratio (z) = 0.24987 0.14099
#
# Static dielectric constant tensor:
#      x y z
#    x 2.018100 0.000000 0.000000 
#    y 0.000000 1.992710 0.000000 
#    z 0.000000 0.000000 1.850260 
# 
# From -- ./inp_files/24322.got.cif
#   From: 2010.05.17/outbox.cif.g08.bks.cpg/sg72_13_cif.got.tgz:24322.got - 2010.06.03 17:03:01.
