data_PCOD9525516
_publ_section_title
;
Structure prediction by ZEFSAII (Michael W. Deem and Ramdas Pophale) SiO2 
 PCOD9525516
Probable space group: I B A M
;
_chemical_formula_sum "Si O2"
_cell_formula_units_Z 80
_cell_length_a 17.686768
_cell_length_b 24.820244
_cell_length_c 10.164993
_cell_angle_alpha 90.000000
_cell_angle_beta 90.000000
_cell_angle_gamma 90.000000
_cell_volume 4462.329233
_symmetry_space_group_name_H-M "I B A M"
_symmetry_group_IT_number 72
_symmetry_cell_setting 'orthorhombic'
loop_
_space_group_symop_operation_xyz
x,y,z
-x,-y,z
x,-y,1/2-z
-x,y,1/2-z
-x,-y,-z
x,y,-z
-x,y,1/2+z
x,-y,1/2+z
1/2+x,1/2+y,1/2+z
1/2-x,1/2-y,1/2+z
1/2+x,1/2-y,-z
1/2-x,1/2+y,-z
1/2-x,1/2-y,1/2-z
1/2+x,1/2+y,1/2-z
1/2-x,1/2+y,z
1/2+x,1/2-y,z
loop_
_atom_site_type_symbol
_atom_site_label
_atom_site_fract_x
_atom_site_fract_y
_atom_site_fract_z
Si Si1 0.912363 0.603338 0.000000
Si Si2 0.377498 0.178017 0.746188
Si Si3 0.715402 0.632044 0.262436
Si Si4 0.928166 0.796969 0.159982
Si Si5 0.237507 0.443520 0.500000
Si Si6 0.745300 0.433011 0.500000
Si Si7 0.920874 0.389976 0.000000
O O1 0.903210 0.640516 0.127016
O O2 0.997482 0.581862 0.000000
O O3 0.837366 0.567490 0.000000
O O4 0.286568 0.173162 0.757113
O O5 0.404317 0.237640 0.711529
O O6 0.411190 0.150131 0.876051
O O7 0.640335 0.663230 0.303513
O O8 0.734286 0.588237 0.372777
O O9 0.715170 0.599733 0.125570
O O10 0.000000 0.812456 0.250000
O O11 0.940681 0.796314 0.000000
O O12 0.269765 0.503609 0.500000
O O13 0.146629 0.433604 0.500000
#
# Coordination Sequence:
#
# PCOD9525516 Si02
#       7
#     8  16  16  16   8   8   8
#     4  10  18  34  51  88 124 155 192 243 279 339
#     4  10  21  36  58  84 120 165 196 223 280 353
#     4  10  22  41  61  86 119 154 197 246 288 349
#     4  12  25  40  61  89 123 154 192 243 299 356
#     4  10  20  40  60  87 109 160 203 245 299 345
#     4  10  22  36  64  85 113 152 207 247 297 349
#     4  10  20  32  57  84 126 159 196 233 285 341
#
# _framework density 17.927856999999999
#
# number of rings (size 3 to 8) (size 9 to 14) (size 15 to 20)
#    0.000    1.600    2.000    3.000    2.800    0.400 
#    0.000    0.000    0.000   10.800    0.000    0.000 
#    0.000    0.000    0.000    0.000    0.000    0.000 
#
# Total GULP energy -223166.702818 kJ/mol
# GULP energy per Si atom -5579.167570 kJ/mol
# Density = 1.788705 g / cm^3
# Si number density = 17.927857 Si / 1000 Ang^3
#
#
#
# Elastic Constant Matrix: (Units=GPa)
#
#
# Indices 1 2 3 4 5 6 
#
# 1 90.1897 11.7707 26.9935 0.0000 0.0000 0.0000
# 2 11.7707 38.9399 16.1745 0.0000 0.0000 0.0000
# 3 26.9935 16.1745 157.6483 0.0000 0.0000 0.0000
# 4 0.0000 0.0000 0.0000 13.3844 0.0000 0.0000
# 5 0.0000 0.0000 0.0000 0.0000 56.2250 0.0000
# 6 0.0000 0.0000 0.0000 0.0000 0.0000 4.3108
#
#
#
# Elastic Compliance Matrix: (Units=1/GPa)
#
#
# Indices 1 2 3 4 5 6 
#
# 1 0.011991 -0.002895 -0.001756 0.000000 0.000000 0.000000
# 2 -0.002895 0.027523 -0.002328 0.000000 0.000000 0.000000
# 3 -0.001756 -0.002328 0.006883 0.000000 0.000000 0.000000
# 4 0.000000 0.000000 0.000000 0.074714 0.000000 0.000000
# 5 0.000000 0.000000 0.000000 0.000000 0.017786 0.000000
# 6 0.000000 0.000000 0.000000 0.000000 0.000000 0.231974
#
#
# Mechanical properties :
#
#
# Convention : Reuss Voigt Hill
#
# Bulk Modulus (GPa) = 30.82816 44.07280 37.45048
# Shear Modulus (GPa) = 12.63768 30.23998 21.43883
#
# Velocity S-wave (km/s) = 2.65791 4.11147 3.46184
# Velocity P-wave (km/s) = 5.16259 6.86846 6.07569
#
# Compressibility (1/GPa) = 0.03243788
#
# Stress axis : x y z
#
# Youngs Moduli (GPa) = 83.39437 36.33353 145.28991
#
# Poissons Ratio (x) = 0.10519 0.25515
# Poissons Ratio (y) = 0.24145 0.33824
# Poissons Ratio (z) = 0.14645 0.08459
#
# Static dielectric constant tensor:
#      x y z
#    x 1.650260 0.000000 0.000000 
#    y 0.000000 1.571760 0.000000 
#    z 0.000000 0.000000 26.661540 
# 
# From -- ./inp_files/4885.got.cif
#   From: 2010.05.17/outbox.cif.g08.bks.cpg/sg72_3_cif.got.tgz:4885.got - 2010.06.03 17:03:01.
