data_PCOD9525816
_publ_section_title
;
Structure prediction by ZEFSAII (Michael W. Deem and Ramdas Pophale) SiO2 
 PCOD9525816
Probable space group: I B A M
;
_chemical_formula_sum "Si O2"
_cell_formula_units_Z 116
_cell_length_a 24.336096
_cell_length_b 24.246900
_cell_length_c 9.347632
_cell_angle_alpha 90.000000
_cell_angle_beta 90.000000
_cell_angle_gamma 90.000000
_cell_volume 5515.802888
_symmetry_space_group_name_H-M "I B A M"
_symmetry_group_IT_number 72
_symmetry_cell_setting 'orthorhombic'
loop_
_space_group_symop_operation_xyz
x,y,z
-x,-y,z
x,-y,1/2-z
-x,y,1/2-z
-x,-y,-z
x,y,-z
-x,y,1/2+z
x,-y,1/2+z
1/2+x,1/2+y,1/2+z
1/2-x,1/2-y,1/2+z
1/2+x,1/2-y,-z
1/2-x,1/2+y,-z
1/2-x,1/2-y,1/2-z
1/2+x,1/2+y,1/2-z
1/2-x,1/2+y,z
1/2+x,1/2-y,z
loop_
_atom_site_type_symbol
_atom_site_label
_atom_site_fract_x
_atom_site_fract_y
_atom_site_fract_z
Si Si1 0.000000 0.000000 0.250000
Si Si2 0.872146 0.551222 0.662931
Si Si3 0.948705 0.375864 0.661874
Si Si4 0.142343 0.279593 0.837438
Si Si5 0.719330 0.852691 0.163543
Si Si6 0.056582 0.791373 0.833617
Si Si7 0.805441 0.056347 0.671006
Si Si8 0.410277 0.418330 0.844276
O O1 0.960396 0.039574 0.161451
O O2 0.848466 0.500000 0.750000
O O3 0.885003 0.535928 0.500000
O O4 0.924573 0.572908 0.750013
O O5 0.828871 0.601147 0.659118
O O6 0.964266 0.390182 0.500000
O O7 0.900807 0.330470 0.655513
O O8 0.000000 0.353337 0.750000
O O9 0.196901 0.303897 0.763142
O O10 0.109412 0.235915 0.741722
O O11 0.152114 0.260288 0.000000
O O12 0.771261 0.888822 0.213134
O O13 0.728175 0.833508 0.000000
O O14 0.066541 0.856905 0.829761
O O15 0.000000 0.778825 0.750000
O O16 0.052244 0.773651 0.000000
O O17 0.799771 0.050041 0.500000
O O18 0.867691 0.067048 0.720108
O O19 0.787415 0.000000 0.750000
O O20 0.382043 0.423131 0.000000
#
# Coordination Sequence:
#
# PCOD9525816 Si02
#       8
#     4  16  16  16  16  16  16  16
#     4  12  22  44  72  98 138 172 214 252 310 364
#     4  10  19  32  50  72 102 139 183 234 295 358
#     4  10  20  33  49  72 102 137 184 236 294 358
#     4  10  21  37  60  88 116 155 203 255 311 367
#     4   9  20  38  59  85 117 157 201 253 310 364
#     4  11  23  40  62  92 128 165 209 260 313 378
#     4  11  23  39  63  94 129 167 211 260 315 378
#     4  11  25  42  65  98 132 170 211 255 311 371
#
# _framework density 21.030483
#
# number of rings (size 3 to 8) (size 9 to 14) (size 15 to 20)
#    0.000    1.655    1.379    3.103    0.000    6.345 
#    0.000    2.069    0.000    0.000    0.000    0.000 
#    0.000    0.000    0.000    0.000    0.000    0.000 
#
# Total GULP energy -324008.743103 kJ/mol
# GULP energy per Si atom -5586.357640 kJ/mol
# Density = 2.098262 g / cm^3
# Si number density = 21.030483 Si / 1000 Ang^3
#
#
#
# Elastic Constant Matrix: (Units=GPa)
#
#
# Indices 1 2 3 4 5 6 
#
# 1 82.3475 27.5548 36.4121 0.0000 0.0000 0.0000
# 2 27.5548 76.4243 48.4999 0.0000 0.0000 0.0000
# 3 36.4121 48.4999 139.6735 0.0000 0.0000 0.0000
# 4 0.0000 0.0000 0.0000 21.0601 0.0000 0.0000
# 5 0.0000 0.0000 0.0000 0.0000 17.4330 0.0000
# 6 0.0000 0.0000 0.0000 0.0000 0.0000 36.9213
#
#
#
# Elastic Compliance Matrix: (Units=1/GPa)
#
#
# Indices 1 2 3 4 5 6 
#
# 1 0.014467 -0.003620 -0.002514 0.000000 0.000000 0.000000
# 2 -0.003620 0.017689 -0.005199 0.000000 0.000000 0.000000
# 3 -0.002514 -0.005199 0.009620 0.000000 0.000000 0.000000
# 4 0.000000 0.000000 0.000000 0.047483 0.000000 0.000000
# 5 0.000000 0.000000 0.000000 0.000000 0.057362 0.000000
# 6 0.000000 0.000000 0.000000 0.000000 0.000000 0.027085
#
#
# Mechanical properties :
#
#
# Convention : Reuss Voigt Hill
#
# Bulk Modulus (GPa) = 52.32930 58.15320 55.24125
# Shear Modulus (GPa) = 24.66177 27.48145 26.07161
#
# Velocity S-wave (km/s) = 3.42814 3.61881 3.52477
# Velocity P-wave (km/s) = 6.37229 6.72108 6.54901
#
# Compressibility (1/GPa) = 0.01910975
#
# Stress axis : x y z
#
# Youngs Moduli (GPa) = 69.12348 56.53142 103.94844
#
# Poissons Ratio (x) = 0.20467 0.26136
# Poissons Ratio (y) = 0.25026 0.54038
# Poissons Ratio (z) = 0.17380 0.29388
#
# Static dielectric constant tensor:
#      x y z
#    x 1.756340 0.000000 0.000000 
#    y 0.000000 1.768090 0.000000 
#    z 0.000000 0.000000 1.759030 
# 
# From -- ./inp_files/7313.got.cif
#   From: 2010.05.17/outbox.cif.g08.bks.cpg/sg72_4_cif.got.tgz:7313.got - 2010.06.03 17:03:01.
