data_PCOD9525756
_publ_section_title
;
Structure prediction by ZEFSAII (Michael W. Deem and Ramdas Pophale) SiO2 
 PCOD9525756
Probable space group: I B A M
;
_chemical_formula_sum "Si O2"
_cell_formula_units_Z 96
_cell_length_a 26.619252
_cell_length_b 23.996866
_cell_length_c 7.646805
_cell_angle_alpha 90.000000
_cell_angle_beta 90.000000
_cell_angle_gamma 90.000000
_cell_volume 4884.615570
_symmetry_space_group_name_H-M "I B A M"
_symmetry_group_IT_number 72
_symmetry_cell_setting 'orthorhombic'
loop_
_space_group_symop_operation_xyz
x,y,z
-x,-y,z
x,-y,1/2-z
-x,y,1/2-z
-x,-y,-z
x,y,-z
-x,y,1/2+z
x,-y,1/2+z
1/2+x,1/2+y,1/2+z
1/2-x,1/2-y,1/2+z
1/2+x,1/2-y,-z
1/2-x,1/2+y,-z
1/2-x,1/2-y,1/2-z
1/2+x,1/2+y,1/2-z
1/2-x,1/2+y,z
1/2+x,1/2-y,z
loop_
_atom_site_type_symbol
_atom_site_label
_atom_site_fract_x
_atom_site_fract_y
_atom_site_fract_z
Si Si1 0.656163 0.140251 0.291930
Si Si2 0.942317 0.312513 0.293311
Si Si3 0.651711 0.624085 0.698066
Si Si4 0.251236 0.935121 0.289401
Si Si5 0.057890 0.814653 0.710720
Si Si6 0.807717 0.241331 0.790939
O O1 0.663446 0.140937 0.500000
O O2 0.596396 0.139071 0.262902
O O3 0.699008 0.098111 0.224300
O O4 0.667507 0.202136 0.224268
O O5 0.938107 0.307934 0.500000
O O6 0.932427 0.248985 0.221373
O O7 0.000000 0.325411 0.250000
O O8 0.643785 0.602825 0.500000
O O9 0.697378 0.588106 0.778643
O O10 0.597095 0.638651 0.778320
O O11 0.674162 0.686339 0.696257
O O12 0.249399 0.927454 0.500000
O O13 0.256248 0.000000 0.250000
O O14 0.064010 0.813469 0.500000
O O15 0.000000 0.827330 0.750000
O O16 0.750000 0.250000 0.750000
O O17 0.815526 0.234969 0.000000
#
# Coordination Sequence:
#
# PCOD9525756 Si02
#       6
#    16  16  16  16  16  16
#     4  10  20  34  52  75 107 141 171 214 262 310
#     4  10  19  31  50  77 110 144 175 208 250 311
#     4  10  19  35  53  75 107 141 174 215 263 310
#     4  10  22  39  56  75 103 136 177 225 270 313
#     4   9  18  30  48  74 108 142 172 207 251 305
#     4  11  20  30  48  76 108 139 170 208 260 320
#
# _framework density 19.653542999999999
#
# number of rings (size 3 to 8) (size 9 to 14) (size 15 to 20)
#    0.000    2.000    3.333    1.000    0.000    3.333 
#    0.000    0.000    0.000    1.000    0.000    7.000 
#    0.000    0.000    0.000    0.000    0.000    0.000 
#
# Total GULP energy -267346.549905 kJ/mol
# GULP energy per Si atom -5569.719790 kJ/mol
# Density = 1.960881 g / cm^3
# Si number density = 19.653543 Si / 1000 Ang^3
#
#
#
# Elastic Constant Matrix: (Units=GPa)
#
#
# Indices 1 2 3 4 5 6 
#
# 1 160.9121 50.9278 -6.4477 0.0000 0.0000 0.0000
# 2 50.9278 77.1576 -2.9537 0.0000 0.0000 0.0000
# 3 -6.4477 -2.9537 51.0124 0.0000 0.0000 0.0000
# 4 0.0000 0.0000 0.0000 14.7739 0.0000 0.0000
# 5 0.0000 0.0000 0.0000 0.0000 15.6680 0.0000
# 6 0.0000 0.0000 0.0000 0.0000 0.0000 13.0848
#
#
#
# Elastic Compliance Matrix: (Units=1/GPa)
#
#
# Indices 1 2 3 4 5 6 
#
# 1 0.007880 -0.005175 0.000696 0.000000 0.000000 0.000000
# 2 -0.005175 0.016387 0.000295 0.000000 0.000000 0.000000
# 3 0.000696 0.000295 0.019708 0.000000 0.000000 0.000000
# 4 0.000000 0.000000 0.000000 0.067687 0.000000 0.000000
# 5 0.000000 0.000000 0.000000 0.000000 0.063824 0.000000
# 6 0.000000 0.000000 0.000000 0.000000 0.000000 0.076425
#
#
# Mechanical properties :
#
#
# Convention : Reuss Voigt Hill
#
# Bulk Modulus (GPa) = 28.08298 41.34831 34.71565
# Shear Modulus (GPa) = 18.37234 25.20904 21.79069
#
# Velocity S-wave (km/s) = 3.06078 3.58533 3.33339
# Velocity P-wave (km/s) = 5.17796 6.18253 5.70241
#
# Compressibility (1/GPa) = 0.03560876
#
# Stress axis : x y z
#
# Youngs Moduli (GPa) = 126.89968 61.02277 50.74038
#
# Poissons Ratio (x) = 0.31577 -0.03534
# Poissons Ratio (y) = 0.65667 -0.01496
# Poissons Ratio (z) = -0.08837 -0.01799
#
# Static dielectric constant tensor:
#      x y z
#    x 1.893100 0.000000 0.000000 
#    y 0.000000 1.679600 0.000000 
#    z 0.000000 0.000000 1.717420 
# 
# From -- ./inp_files/5978.got.cif
#   From: 2010.05.17/outbox.cif.g08.bks.cpg/sg72_3_cif.got.tgz:5978.got - 2010.06.03 17:03:01.
