data_PCOD9525448
_publ_section_title
;
Structure prediction by ZEFSAII (Michael W. Deem and Ramdas Pophale) SiO2 
 PCOD9525448
Probable space group: I B A M
;
_chemical_formula_sum "Si O2"
_cell_formula_units_Z 88
_cell_length_a 5.191533
_cell_length_b 25.179686
_cell_length_c 27.599593
_cell_angle_alpha 90.000000
_cell_angle_beta 90.000000
_cell_angle_gamma 90.000000
_cell_volume 3607.851111
_symmetry_space_group_name_H-M "I B A M"
_symmetry_group_IT_number 72
_symmetry_cell_setting 'orthorhombic'
loop_
_space_group_symop_operation_xyz
x,y,z
-x,-y,z
x,-y,1/2-z
-x,y,1/2-z
-x,-y,-z
x,y,-z
-x,y,1/2+z
x,-y,1/2+z
1/2+x,1/2+y,1/2+z
1/2-x,1/2-y,1/2+z
1/2+x,1/2-y,-z
1/2-x,1/2+y,-z
1/2-x,1/2-y,1/2-z
1/2+x,1/2+y,1/2-z
1/2-x,1/2+y,z
1/2+x,1/2-y,z
loop_
_atom_site_type_symbol
_atom_site_label
_atom_site_fract_x
_atom_site_fract_y
_atom_site_fract_z
Si Si1 0.468622 0.415111 0.803146
Si Si2 0.308318 0.935899 0.943756
Si Si3 0.315877 0.555054 0.096169
Si Si4 0.505857 0.783951 0.099660
Si Si5 0.467116 0.846657 0.303121
Si Si6 0.632739 0.785604 0.500000
O O1 0.500000 0.440258 0.750000
O O2 0.570648 0.446510 0.849888
O O3 0.174839 0.395028 0.805249
O O4 0.671956 0.366254 0.804423
O O5 0.537364 0.918582 0.908717
O O6 0.027352 0.912031 0.933949
O O7 0.243432 0.997407 0.927663
O O8 0.379255 0.934302 0.000000
O O9 0.299737 0.735725 0.097402
O O10 0.469311 0.811370 0.150902
O O11 0.430249 0.814868 0.050136
O O12 0.500000 0.821036 0.250000
O O13 0.920612 0.762410 0.500000
#
# Coordination Sequence:
#
# PCOD9525448 Si02
#       6
#    16  16  16  16  16   8
#     4  10  21  37  55  74 105 150 185 214 267 329
#     4  10  19  33  56  83 110 138 176 220 277 322
#     4  10  18  32  55  78 102 143 180 216 261 322
#     4  10  19  33  56  80 103 136 176 224 274 324
#     4  10  21  36  54  77 108 143 179 225 274 324
#     4   8  16  30  50  72  96 132 164 198 262 326
#
# _framework density 24.391249999999999
#
# number of rings (size 3 to 8) (size 9 to 14) (size 15 to 20)
#    0.000    2.182    0.000    4.909    0.000    0.727 
#    0.000    1.818   16.000    4.364    0.000    0.000 
#    0.000    0.000    0.000    0.000    0.000    0.000 
#
# Total GULP energy -245527.621110 kJ/mol
# GULP energy per Si atom -5580.173207 kJ/mol
# Density = 2.433573 g / cm^3
# Si number density = 24.391250 Si / 1000 Ang^3
#
#
#
# Elastic Constant Matrix: (Units=GPa)
#
#
# Indices 1 2 3 4 5 6 
#
# 1 150.9885 -1.1294 20.6925 0.0000 0.0000 0.0000
# 2 -1.1294 21.3339 25.7896 0.0000 0.0000 0.0000
# 3 20.6925 25.7896 237.8922 0.0000 0.0000 0.0000
# 4 0.0000 0.0000 0.0000 33.9995 0.0000 0.0000
# 5 0.0000 0.0000 0.0000 0.0000 41.6912 0.0000
# 6 0.0000 0.0000 0.0000 0.0000 0.0000 12.8610
#
#
#
# Elastic Compliance Matrix: (Units=1/GPa)
#
#
# Indices 1 2 3 4 5 6 
#
# 1 0.006731 0.001224 -0.000718 0.000000 0.000000 0.000000
# 2 0.001224 0.054166 -0.005979 0.000000 0.000000 0.000000
# 3 -0.000718 -0.005979 0.004914 0.000000 0.000000 0.000000
# 4 0.000000 0.000000 0.000000 0.029412 0.000000 0.000000
# 5 0.000000 0.000000 0.000000 0.000000 0.023986 0.000000
# 6 0.000000 0.000000 0.000000 0.000000 0.000000 0.077754
#
#
# Mechanical properties :
#
#
# Convention : Reuss Voigt Hill
#
# Bulk Modulus (GPa) = 18.22621 55.65780 36.94200
# Shear Modulus (GPa) = 22.10471 42.03445 32.06958
#
# Velocity S-wave (km/s) = 3.01367 4.15582 3.62995
# Velocity P-wave (km/s) = 4.42700 6.77466 5.72252
#
# Compressibility (1/GPa) = 0.05486603
#
# Stress axis : x y z
#
# Youngs Moduli (GPa) = 148.57500 18.46185 203.49252
#
# Poissons Ratio (x) = -0.02261 0.14615
# Poissons Ratio (y) = -0.18193 1.21659
# Poissons Ratio (z) = 0.10671 0.11038
#
# Static dielectric constant tensor:
#      x y z
#    x 2.069720 0.000000 0.000000 
#    y 0.000000 2.099620 0.000000 
#    z 0.000000 0.000000 1.983930 
# 
# From -- ./inp_files/41602.got.cif
#   From: 2010.05.17/outbox.cif.g08.bks.cpg/sg72_21_cif.got.tgz:41602.got - 2010.06.03 17:03:01.
