data_PCOD9525400
_publ_section_title
;
Structure prediction by ZEFSAII (Michael W. Deem and Ramdas Pophale) SiO2 
 PCOD9525400
Probable space group: I B A M
;
_chemical_formula_sum "Si O2"
_cell_formula_units_Z 80
_cell_length_a 28.881935
_cell_length_b 8.843407
_cell_length_c 17.001521
_cell_angle_alpha 90.000000
_cell_angle_beta 90.000000
_cell_angle_gamma 90.000000
_cell_volume 4342.438490
_symmetry_space_group_name_H-M "I B A M"
_symmetry_group_IT_number 72
_symmetry_cell_setting 'orthorhombic'
loop_
_space_group_symop_operation_xyz
x,y,z
-x,-y,z
x,-y,1/2-z
-x,y,1/2-z
-x,-y,-z
x,y,-z
-x,y,1/2+z
x,-y,1/2+z
1/2+x,1/2+y,1/2+z
1/2-x,1/2-y,1/2+z
1/2+x,1/2-y,-z
1/2-x,1/2+y,-z
1/2-x,1/2-y,1/2-z
1/2+x,1/2+y,1/2-z
1/2-x,1/2+y,z
1/2+x,1/2-y,z
loop_
_atom_site_type_symbol
_atom_site_label
_atom_site_fract_x
_atom_site_fract_y
_atom_site_fract_z
Si Si1 0.203207 0.683894 0.656831
Si Si2 0.945564 0.673250 0.265077
Si Si3 0.378097 0.600986 0.825415
Si Si4 0.895870 0.196585 0.091128
Si Si5 0.699905 0.834916 0.847919
O O1 0.162315 0.799509 0.636531
O O2 0.252113 0.753361 0.630787
O O3 0.198885 0.511417 0.629131
O O4 0.199432 0.675246 0.752509
O O5 0.931484 0.500000 0.250000
O O6 0.916284 0.786171 0.210162
O O7 0.931908 0.716563 0.353522
O O8 0.000000 0.688882 0.250000
O O9 0.360753 0.500000 0.750000
O O10 0.398123 0.479627 0.885688
O O11 0.844745 0.253550 0.116550
O O12 0.903455 0.222288 0.000000
#
# Coordination Sequence:
#
# PCOD9525400 Si02
#       5
#    16  16  16  16  16
#     4  10  18  31  56  85 112 158 209 246 274 337
#     4  10  21  41  67  91 113 150 203 245 286 357
#     4  10  19  34  57  84 116 156 198 238 280 352
#     4  11  23  39  58  90 127 155 187 247 308 347
#     4  10  19  31  55  85 119 153 204 245 286 339
#
# _framework density 18.422829
#
# number of rings (size 3 to 8) (size 9 to 14) (size 15 to 20)
#    0.000    1.800    4.000    2.400    2.800    3.600 
#    0.000   12.000    0.000    0.000    0.000    0.000 
#    0.000    0.000    0.000    0.000    0.000    0.000 
#
# Total GULP energy -223308.989108 kJ/mol
# GULP energy per Si atom -5582.724728 kJ/mol
# Density = 1.838090 g / cm^3
# Si number density = 18.422829 Si / 1000 Ang^3
#
#
#
# Elastic Constant Matrix: (Units=GPa)
#
#
# Indices 1 2 3 4 5 6 
#
# 1 85.7428 59.8869 50.9089 0.0000 0.0000 0.0000
# 2 59.8869 157.2765 44.1648 0.0000 0.0000 0.0000
# 3 50.9089 44.1648 88.2341 0.0000 0.0000 0.0000
# 4 0.0000 0.0000 0.0000 5.5847 0.0000 0.0000
# 5 0.0000 0.0000 0.0000 0.0000 6.7607 0.0000
# 6 0.0000 0.0000 0.0000 0.0000 0.0000 31.1396
#
#
#
# Elastic Compliance Matrix: (Units=1/GPa)
#
#
# Indices 1 2 3 4 5 6 
#
# 1 0.021003 -0.005346 -0.009442 0.000000 0.000000 0.000000
# 2 -0.005346 0.008759 -0.001300 0.000000 0.000000 0.000000
# 3 -0.009442 -0.001300 0.017432 0.000000 0.000000 0.000000
# 4 0.000000 0.000000 0.000000 0.179061 0.000000 0.000000
# 5 0.000000 0.000000 0.000000 0.000000 0.147915 0.000000
# 6 0.000000 0.000000 0.000000 0.000000 0.000000 0.032113
#
#
# Mechanical properties :
#
#
# Convention : Reuss Voigt Hill
#
# Bulk Modulus (GPa) = 66.58710 71.24159 68.91435
# Shear Modulus (GPa) = 11.27485 20.44985 15.86235
#
# Velocity S-wave (km/s) = 2.47656 3.33532 2.93749
# Velocity P-wave (km/s) = 6.66334 7.32030 6.99953
#
# Compressibility (1/GPa) = 0.01501792
#
# Stress axis : x y z
#
# Youngs Moduli (GPa) = 47.61253 114.17141 57.36574
#
# Poissons Ratio (x) = 0.61035 0.54166
# Poissons Ratio (y) = 0.25453 0.07456
# Poissons Ratio (z) = 0.44957 0.14839
#
# Static dielectric constant tensor:
#      x y z
#    x 1.618980 0.000000 0.000000 
#    y 0.000000 1.650040 0.000000 
#    z 0.000000 0.000000 1.832760 
# 
# From -- ./inp_files/28325.got.cif
#   From: 2010.05.17/outbox.cif.g08.bks.cpg/sg72_15_cif.got.tgz:28325.got - 2010.06.03 17:03:01.
