data_PCOD9525473
_publ_section_title
;
Structure prediction by ZEFSAII (Michael W. Deem and Ramdas Pophale) SiO2 
 PCOD9525473
Probable space group: I B A M
;
_chemical_formula_sum "Si O2"
_cell_formula_units_Z 116
_cell_length_a 30.183443
_cell_length_b 11.591306
_cell_length_c 14.006293
_cell_angle_alpha 90.000000
_cell_angle_beta 90.000000
_cell_angle_gamma 90.000000
_cell_volume 4900.319039
_symmetry_space_group_name_H-M "I B A M"
_symmetry_group_IT_number 72
_symmetry_cell_setting 'orthorhombic'
loop_
_space_group_symop_operation_xyz
x,y,z
-x,-y,z
x,-y,1/2-z
-x,y,1/2-z
-x,-y,-z
x,y,-z
-x,y,1/2+z
x,-y,1/2+z
1/2+x,1/2+y,1/2+z
1/2-x,1/2-y,1/2+z
1/2+x,1/2-y,-z
1/2-x,1/2+y,-z
1/2-x,1/2-y,1/2-z
1/2+x,1/2+y,1/2-z
1/2-x,1/2+y,z
1/2+x,1/2-y,z
loop_
_atom_site_type_symbol
_atom_site_label
_atom_site_fract_x
_atom_site_fract_y
_atom_site_fract_z
Si Si1 0.489893 0.629515 0.388928
Si Si2 0.894845 0.153795 0.115240
Si Si3 0.433532 0.192078 0.659838
Si Si4 0.129014 0.890811 0.385107
Si Si5 0.683682 0.818149 0.883071
Si Si6 0.843943 0.567715 0.112279
Si Si7 0.000000 0.500000 0.750000
Si Si8 0.216488 0.222940 0.115700
O O1 0.500000 0.500000 0.351419
O O2 0.480945 0.609739 0.500000
O O3 0.444361 0.683620 0.348123
O O4 0.528487 0.722861 0.382979
O O5 0.852112 0.223902 0.147119
O O6 0.888135 0.018527 0.131308
O O7 0.895116 0.173006 0.000000
O O8 0.398463 0.299472 0.676330
O O9 0.394637 0.108478 0.618475
O O10 0.465445 0.092667 0.703783
O O11 0.122622 0.863779 0.500000
O O12 0.181244 0.878834 0.365079
O O13 0.733676 0.794407 0.850562
O O14 0.664903 0.940745 0.849160
O O15 0.684917 0.817935 0.000000
O O16 0.809190 0.662592 0.149414
O O17 0.833904 0.560527 0.000000
O O18 0.219295 0.229521 0.000000
#
# Coordination Sequence:
#
# PCOD9525473 Si02
#       8
#    16  16  16  16  16  16   4  16
#     4  10  18  32  59  88 110 135 170 221 286 347
#     4   9  17  26  44  79 114 142 169 206 263 325
#     4  11  22  41  55  72 106 140 190 236 275 335
#     4   9  16  31  56  81 108 142 177 220 280 336
#     4   9  17  26  40  74 121 151 174 205 249 330
#     4   9  18  32  52  79 111 150 184 220 279 338
#     4  12  32  44  56  72  96 152 208 240 292 320
#     4   8  15  25  42  70 111 155 180 201 251 331
#
# _framework density 23.671928000000001
#
# number of rings (size 3 to 8) (size 9 to 14) (size 15 to 20)
#    0.000    2.621    1.379    2.069    3.862    0.000 
#    0.000    2.759    0.000    0.000    0.000    3.862 
#    0.000    0.000    0.000    0.000    0.000    0.000 
#
# Total GULP energy -323067.141808 kJ/mol
# GULP energy per Si atom -5570.123135 kJ/mol
# Density = 2.361805 g / cm^3
# Si number density = 23.671928 Si / 1000 Ang^3
#
#
#
# Elastic Constant Matrix: (Units=GPa)
#
#
# Indices 1 2 3 4 5 6 
#
# 1 224.8944 69.2881 33.8157 0.0000 0.0000 0.0000
# 2 69.2881 95.4838 7.3964 0.0000 0.0000 0.0000
# 3 33.8157 7.3964 67.7858 0.0000 0.0000 0.0000
# 4 0.0000 0.0000 0.0000 0.2071 0.0000 0.0000
# 5 0.0000 0.0000 0.0000 0.0000 30.2728 0.0000
# 6 0.0000 0.0000 0.0000 0.0000 0.0000 27.2787
#
#
#
# Elastic Compliance Matrix: (Units=1/GPa)
#
#
# Indices 1 2 3 4 5 6 
#
# 1 0.006151 -0.004262 -0.002603 0.000000 0.000000 0.000000
# 2 -0.004262 0.013515 0.000651 0.000000 0.000000 0.000000
# 3 -0.002603 0.000651 0.015980 0.000000 0.000000 0.000000
# 4 0.000000 0.000000 0.000000 4.829383 0.000000 0.000000
# 5 0.000000 0.000000 0.000000 0.000000 0.033033 0.000000
# 6 0.000000 0.000000 0.000000 0.000000 0.000000 0.036659
#
#
# Mechanical properties :
#
#
# Convention : Reuss Voigt Hill
#
# Bulk Modulus (GPa) = 43.06944 67.68495 55.37720
# Shear Modulus (GPa) = 1.00910 30.06263 15.53587
#
# Velocity S-wave (km/s) = 0.65362 3.56753 2.56461
# Velocity P-wave (km/s) = 4.33629 6.75460 5.67574
#
# Compressibility (1/GPa) = 0.02321832
#
# Stress axis : x y z
#
# Youngs Moduli (GPa) = 162.57420 73.99110 62.57798
#
# Poissons Ratio (x) = 0.31534 0.16292
# Poissons Ratio (y) = 0.69287 -0.04076
# Poissons Ratio (z) = 0.42326 -0.04820
#
# Static dielectric constant tensor:
#      x y z
#    x 1.851880 0.000000 0.000000 
#    y 0.000000 1.879380 0.000000 
#    z 0.000000 0.000000 2.032630 
# 
# From -- ./inp_files/34307.got.cif
#   From: 2010.05.17/outbox.cif.g08.bks.cpg/sg72_18_cif.got.tgz:34307.got - 2010.06.03 17:03:01.
