data_PCOD9525223
_publ_section_title
;
Structure prediction by ZEFSAII (Michael W. Deem and Ramdas Pophale) SiO2 
 PCOD9525223
Probable space group: I B A M
;
_chemical_formula_sum "Si O2"
_cell_formula_units_Z 116
_cell_length_a 28.762361
_cell_length_b 27.371600
_cell_length_c 7.619973
_cell_angle_alpha 90.000000
_cell_angle_beta 90.000000
_cell_angle_gamma 90.000000
_cell_volume 5998.990167
_symmetry_space_group_name_H-M "I B A M"
_symmetry_group_IT_number 72
_symmetry_cell_setting 'orthorhombic'
loop_
_space_group_symop_operation_xyz
x,y,z
-x,-y,z
x,-y,1/2-z
-x,y,1/2-z
-x,-y,-z
x,y,-z
-x,y,1/2+z
x,-y,1/2+z
1/2+x,1/2+y,1/2+z
1/2-x,1/2-y,1/2+z
1/2+x,1/2-y,-z
1/2-x,1/2+y,-z
1/2-x,1/2-y,1/2-z
1/2+x,1/2+y,1/2-z
1/2-x,1/2+y,z
1/2+x,1/2-y,z
loop_
_atom_site_type_symbol
_atom_site_label
_atom_site_fract_x
_atom_site_fract_y
_atom_site_fract_z
Si Si1 0.208411 0.307666 0.300067
Si Si2 0.000000 0.500000 0.750000
Si Si3 0.224560 0.052846 0.791598
Si Si4 0.053620 0.313799 0.789991
Si Si5 0.676379 0.912596 0.297121
Si Si6 0.574730 0.925396 0.285354
Si Si7 0.128092 0.238493 0.199858
Si Si8 0.308352 0.342582 0.284571
O O1 0.210975 0.289988 0.500000
O O2 0.186605 0.361959 0.299917
O O3 0.173878 0.272714 0.197797
O O4 0.260503 0.315519 0.230001
O O5 0.038290 0.460151 0.689505
O O6 0.276901 0.056205 0.717367
O O7 0.196955 0.101012 0.729828
O O8 0.203997 0.000000 0.750000
O O9 0.229051 0.057283 0.000000
O O10 0.066143 0.368943 0.734536
O O11 0.087941 0.271998 0.717620
O O12 0.000000 0.303989 0.750000
O O13 0.060288 0.314360 0.000000
O O14 0.669147 0.898762 0.500000
O O15 0.628227 0.936838 0.240664
O O16 0.567530 0.930837 0.500000
O O17 0.147167 0.187855 0.277935
O O18 0.113582 0.227657 0.000000
O O19 0.308412 0.341473 0.500000
#
# Coordination Sequence:
#
# PCOD9525223 Si02
#       8
#    16   4  16  16  16  16  16  16
#     4  10  18  29  46  73 101 125 157 199 245 300
#     4  12  22  36  48  62  88 120 158 220 268 288
#     4  10  20  35  51  74 101 130 163 194 235 286
#     4  10  20  36  53  71  93 122 163 205 255 307
#     4  10  19  34  51  68  92 125 167 208 247 295
#     4  10  21  36  49  65  86 117 162 208 255 301
#     4  10  18  32  52  70  94 130 161 199 248 298
#     4   8  17  31  48  71  99 127 163 198 232 289
#
# _framework density 19.336587000000002
#
# number of rings (size 3 to 8) (size 9 to 14) (size 15 to 20)
#    0.000    2.207    2.069    2.690    0.966    0.552 
#    0.000    5.517    0.000    0.000    0.000    0.000 
#    0.000    0.552    0.000    6.897    0.000    0.000 
#
# Total GULP energy -323463.950448 kJ/mol
# GULP energy per Si atom -5576.964663 kJ/mol
# Density = 1.929258 g / cm^3
# Si number density = 19.336587 Si / 1000 Ang^3
#
#
#
# Elastic Constant Matrix: (Units=GPa)
#
#
# Indices 1 2 3 4 5 6 
#
# 1 90.8412 75.9088 5.2255 0.0000 0.0000 0.0000
# 2 75.9088 129.9473 3.5748 0.0000 0.0000 0.0000
# 3 5.2255 3.5748 53.9310 0.0000 0.0000 0.0000
# 4 0.0000 0.0000 0.0000 -13.9801 0.0000 0.0000
# 5 0.0000 0.0000 0.0000 0.0000 6.9201 0.0000
# 6 0.0000 0.0000 0.0000 0.0000 0.0000 10.5923
#
#
#
# Elastic Compliance Matrix: (Units=1/GPa)
#
#
# Indices 1 2 3 4 5 6 
#
# 1 0.021591 -0.012578 -0.001258 0.000000 0.000000 0.000000
# 2 -0.012578 0.015037 0.000222 0.000000 0.000000 0.000000
# 3 -0.001258 0.000222 0.018649 0.000000 0.000000 0.000000
# 4 0.000000 0.000000 0.000000 -0.071530 0.000000 0.000000
# 5 0.000000 0.000000 0.000000 0.000000 0.144507 0.000000
# 6 0.000000 0.000000 0.000000 0.000000 0.000000 0.094408
#
#
# Mechanical properties :
#
#
# Convention : Reuss Voigt Hill
#
# Bulk Modulus (GPa) = 35.65207 49.34863 42.50035
# Shear Modulus (GPa) = 19.28723 13.37382 16.33052
#
# Velocity S-wave (km/s) = 3.16167 2.63274 2.90925
# Velocity P-wave (km/s) = 5.63966 5.90068 5.77165
#
# Compressibility (1/GPa) = 0.02804886
#
# Stress axis : x y z
#
# Youngs Moduli (GPa) = 46.31619 66.50463 53.62098
#
# Poissons Ratio (x) = 0.83647 0.06747
# Poissons Ratio (y) = 0.58255 -0.01190
# Poissons Ratio (z) = 0.05828 -0.01476
#
# Static dielectric constant tensor:
#      x y z
#    x 1.671750 0.000000 0.000000 
#    y 0.000000 1.714470 0.000000 
#    z 0.000000 0.000000 1.794280 
# 
# From -- ./inp_files/8721.got.cif
#   From: 2010.05.17/outbox.cif.g08.bks.cpg/sg72_5_cif.got.tgz:8721.got - 2010.06.03 17:03:01.
