data_PCOD9525478
_publ_section_title
;
Structure prediction by ZEFSAII (Michael W. Deem and Ramdas Pophale) SiO2 
 PCOD9525478
Probable space group: I B A M
;
_chemical_formula_sum "Si O2"
_cell_formula_units_Z 128
_cell_length_a 17.962906
_cell_length_b 24.082583
_cell_length_c 18.223671
_cell_angle_alpha 90.000000
_cell_angle_beta 90.000000
_cell_angle_gamma 90.000000
_cell_volume 7883.435692
_symmetry_space_group_name_H-M "I B A M"
_symmetry_group_IT_number 72
_symmetry_cell_setting 'orthorhombic'
loop_
_space_group_symop_operation_xyz
x,y,z
-x,-y,z
x,-y,1/2-z
-x,y,1/2-z
-x,-y,-z
x,y,-z
-x,y,1/2+z
x,-y,1/2+z
1/2+x,1/2+y,1/2+z
1/2-x,1/2-y,1/2+z
1/2+x,1/2-y,-z
1/2-x,1/2+y,-z
1/2-x,1/2-y,1/2-z
1/2+x,1/2+y,1/2-z
1/2-x,1/2+y,z
1/2+x,1/2-y,z
loop_
_atom_site_type_symbol
_atom_site_label
_atom_site_fract_x
_atom_site_fract_y
_atom_site_fract_z
Si Si1 0.853697 0.785271 0.085917
Si Si2 0.116132 0.709192 0.085486
Si Si3 0.628019 0.625185 0.181206
Si Si4 0.085046 0.018955 0.413099
Si Si5 0.260285 0.279379 0.170819
Si Si6 0.994947 0.778046 0.667599
Si Si7 0.271628 0.882798 0.415997
Si Si8 0.185641 0.950305 0.693848
O O1 0.813595 0.732504 0.123938
O O2 0.927647 0.797448 0.132259
O O3 0.793470 0.835462 0.089432
O O4 0.870099 0.776285 0.000000
O O5 0.175256 0.745972 0.129292
O O6 0.148739 0.647422 0.092775
O O7 0.038095 0.729052 0.117266
O O8 0.119949 0.723394 0.000000
O O9 0.607746 0.578307 0.121521
O O10 0.706271 0.658696 0.173673
O O11 0.562511 0.670517 0.175488
O O12 0.637754 0.593382 0.258353
O O13 0.097298 0.019231 0.500000
O O14 0.135295 0.974851 0.370744
O O15 0.000000 0.000000 0.399514
O O16 0.250000 0.250000 0.250000
O O17 0.000000 0.755831 0.750000
O O18 0.267102 0.904970 0.500000
O O19 0.254419 0.923205 0.348888
O O20 0.205317 0.000000 0.750000
#
# Coordination Sequence:
#
# PCOD9525478 Si02
#       8
#    16  16  16  16  16  16  16  16
#     4  10  20  31  48  73  99 128 165 204 240 289
#     4   9  18  32  48  68  97 129 162 200 243 296
#     4  10  22  33  52  68  97 138 172 203 262 305
#     4  10  23  37  48  67  96 131 174 223 259 291
#     4  10  18  33  50  72  98 128 166 210 248 308
#     4  11  21  31  47  74 102 133 165 203 245 303
#     4   9  17  31  51  69  91 129 166 198 240 291
#     4  10  20  34  48  68  92 123 165 216 251 288
#
# _framework density 16.236574999999998
#
# number of rings (size 3 to 8) (size 9 to 14) (size 15 to 20)
#    0.000    2.125    0.000    5.625    3.500    4.750 
#    0.000    0.000    0.000    0.000    0.000    0.000 
#    0.000   11.500    0.000   31.625    0.000    0.000 
#
# Total GULP energy -356484.775063 kJ/mol
# GULP energy per Si atom -5570.074610 kJ/mol
# Density = 1.619962 g / cm^3
# Si number density = 16.236575 Si / 1000 Ang^3
#
#
#
# Elastic Constant Matrix: (Units=GPa)
#
#
# Indices 1 2 3 4 5 6 
#
# 1 26.4351 24.9443 10.7466 0.0000 0.0000 0.0000
# 2 24.9443 61.0755 37.6976 0.0000 0.0000 0.0000
# 3 10.7466 37.6976 91.2125 0.0000 0.0000 0.0000
# 4 0.0000 0.0000 0.0000 20.3549 0.0000 0.0000
# 5 0.0000 0.0000 0.0000 0.0000 21.7054 0.0000
# 6 0.0000 0.0000 0.0000 0.0000 0.0000 19.1208
#
#
#
# Elastic Compliance Matrix: (Units=1/GPa)
#
#
# Indices 1 2 3 4 5 6 
#
# 1 0.062778 -0.028291 0.004296 0.000000 0.000000 0.000000
# 2 -0.028291 0.034730 -0.011020 0.000000 0.000000 0.000000
# 3 0.004296 -0.011020 0.015012 0.000000 0.000000 0.000000
# 4 0.000000 0.000000 0.000000 0.049128 0.000000 0.000000
# 5 0.000000 0.000000 0.000000 0.000000 0.046071 0.000000
# 6 0.000000 0.000000 0.000000 0.000000 0.000000 0.052299
#
#
# Mechanical properties :
#
#
# Convention : Reuss Voigt Hill
#
# Bulk Modulus (GPa) = 23.53574 36.16668 29.85121
# Shear Modulus (GPa) = 14.52592 19.25852 16.89222
#
# Velocity S-wave (km/s) = 2.99430 3.44775 3.22899
# Velocity P-wave (km/s) = 5.14601 6.17838 5.68568
#
# Compressibility (1/GPa) = 0.04248857
#
# Stress axis : x y z
#
# Youngs Moduli (GPa) = 15.92924 28.79356 66.61370
#
# Poissons Ratio (x) = 0.81461 -0.28619
# Poissons Ratio (y) = 0.45066 0.73411
# Poissons Ratio (z) = -0.06844 0.31732
#
# Static dielectric constant tensor:
#      x y z
#    x 1.562930 0.000000 0.000000 
#    y 0.000000 1.584060 0.000000 
#    z 0.000000 0.000000 1.554220 
# 
# From -- ./inp_files/32047.got.cif
#   From: 2010.05.17/outbox.cif.g08.bks.cpg/sg72_17_cif.got.tgz:32047.got - 2010.06.03 17:03:01.
