data_PCOD9525887
_publ_section_title
;
Structure prediction by ZEFSAII (Michael W. Deem and Ramdas Pophale) SiO2 
 PCOD9525887
Probable space group: I B A M
;
_chemical_formula_sum "Si O2"
_cell_formula_units_Z 96
_cell_length_a 27.413792
_cell_length_b 10.199483
_cell_length_c 16.506847
_cell_angle_alpha 90.000000
_cell_angle_beta 90.000000
_cell_angle_gamma 90.000000
_cell_volume 4615.421806
_symmetry_space_group_name_H-M "I B A M"
_symmetry_group_IT_number 72
_symmetry_cell_setting 'orthorhombic'
loop_
_space_group_symop_operation_xyz
x,y,z
-x,-y,z
x,-y,1/2-z
-x,y,1/2-z
-x,-y,-z
x,y,-z
-x,y,1/2+z
x,-y,1/2+z
1/2+x,1/2+y,1/2+z
1/2-x,1/2-y,1/2+z
1/2+x,1/2-y,-z
1/2-x,1/2+y,-z
1/2-x,1/2-y,1/2-z
1/2+x,1/2+y,1/2-z
1/2-x,1/2+y,z
1/2+x,1/2-y,z
loop_
_atom_site_type_symbol
_atom_site_label
_atom_site_fract_x
_atom_site_fract_y
_atom_site_fract_z
Si Si1 0.239483 0.077220 0.500000
Si Si2 0.812473 0.350508 0.000000
Si Si3 0.616932 0.104667 0.645536
Si Si4 0.593157 0.802639 0.596597
Si Si5 0.734874 0.408495 0.677842
Si Si6 0.013620 0.654588 0.094446
Si Si7 0.830049 0.260788 0.713034
O O1 0.228019 0.234393 0.500000
O O2 0.221144 0.035912 0.409932
O O3 0.290522 0.997819 0.500000
O O4 0.846566 0.338537 0.078071
O O5 0.563495 0.171256 0.642888
O O6 0.642135 0.134543 0.730440
O O7 0.607398 0.953815 0.618783
O O8 0.596784 0.789102 0.500000
O O9 0.536822 0.778277 0.620430
O O10 0.631384 0.716635 0.646212
O O11 0.754121 0.500000 0.750000
O O12 0.781256 0.311965 0.667743
O O13 0.689553 0.342107 0.721931
O O14 0.000000 0.500000 0.097207
O O15 0.023450 0.685782 0.000000
#
# Coordination Sequence:
#
# PCOD9525887 Si02
#       7
#     8   8  16  16  16  16  16
#     4  12  26  42  68  88 123 178 217 256 326 372
#     4  12  22  38  63  96 121 172 218 250 306 382
#     4  11  18  35  56  82 122 160 198 252 316 384
#     4  10  19  32  53  85 119 160 196 250 322 393
#     4  11  25  43  56  85 121 162 212 268 304 376
#     4   8  15  28  50  80 118 154 193 243 310 399
#     4  11  23  36  56  80 117 152 208 253 313 366
#
# _framework density 20.799834000000001
#
# number of rings (size 3 to 8) (size 9 to 14) (size 15 to 20)
#    0.000    1.500    3.333    4.500    3.500    0.667 
#    1.500    2.500    0.000    0.000    0.000    2.333 
#    0.000    4.000    0.000    0.000    0.000    0.000 
#
# Total GULP energy -267430.600783 kJ/mol
# GULP energy per Si atom -5571.470850 kJ/mol
# Density = 2.075249 g / cm^3
# Si number density = 20.799834 Si / 1000 Ang^3
#
#
#
# Elastic Constant Matrix: (Units=GPa)
#
#
# Indices 1 2 3 4 5 6 
#
# 1 141.0173 26.5114 56.7330 0.0000 0.0000 0.0000
# 2 26.5114 12.6293 12.2037 0.0000 0.0000 0.0000
# 3 56.7330 12.2037 127.5074 0.0000 0.0000 0.0000
# 4 0.0000 0.0000 0.0000 10.5778 0.0000 0.0000
# 5 0.0000 0.0000 0.0000 0.0000 -61.9855 0.0000
# 6 0.0000 0.0000 0.0000 0.0000 0.0000 17.8519
#
#
#
# Elastic Compliance Matrix: (Units=1/GPa)
#
#
# Indices 1 2 3 4 5 6 
#
# 1 0.012987 -0.023889 -0.003492 0.000000 0.000000 0.000000
# 2 -0.023889 0.131191 -0.001927 0.000000 0.000000 0.000000
# 3 -0.003492 -0.001927 0.009581 0.000000 0.000000 0.000000
# 4 0.000000 0.000000 0.000000 0.094537 0.000000 0.000000
# 5 0.000000 0.000000 0.000000 0.000000 -0.016133 0.000000
# 6 0.000000 0.000000 0.000000 0.000000 0.000000 0.056017
#
#
# Mechanical properties :
#
#
# Convention : Reuss Voigt Hill
#
# Bulk Modulus (GPa) = 10.51049 52.45004 31.48026
# Shear Modulus (GPa) = 13.20965 5.66922 9.43944
#
# Velocity S-wave (km/s) = 2.52282 1.65273 2.13262
# Velocity P-wave (km/s) = 3.68107 5.37711 4.60780
#
# Compressibility (1/GPa) = 0.09514302
#
# Stress axis : x y z
#
# Youngs Moduli (GPa) = 76.99766 7.62247 104.37366
#
# Poissons Ratio (x) = 0.18209 0.36450
# Poissons Ratio (y) = 1.83938 0.20115
# Poissons Ratio (z) = 0.26889 0.01469
#
# Static dielectric constant tensor:
#      x y z
#    x 1.778790 0.000000 0.000000 
#    y 0.000000 1.854690 0.000000 
#    z 0.000000 0.000000 1.850310 
# 
# From -- ./inp_files/33312.got.cif
#   From: 2010.05.17/outbox.cif.g08.bks.cpg/sg72_17_cif.got.tgz:33312.got - 2010.06.03 17:03:01.
