data_PCOD9525496
_publ_section_title
;
Structure prediction by ZEFSAII (Michael W. Deem and Ramdas Pophale) SiO2 
 PCOD9525496
Probable space group: I B A M
;
_chemical_formula_sum "Si O2"
_cell_formula_units_Z 112
_cell_length_a 11.159851
_cell_length_b 29.722607
_cell_length_c 15.636713
_cell_angle_alpha 90.000000
_cell_angle_beta 90.000000
_cell_angle_gamma 90.000000
_cell_volume 5186.695598
_symmetry_space_group_name_H-M "I B A M"
_symmetry_group_IT_number 72
_symmetry_cell_setting 'orthorhombic'
loop_
_space_group_symop_operation_xyz
x,y,z
-x,-y,z
x,-y,1/2-z
-x,y,1/2-z
-x,-y,-z
x,y,-z
-x,y,1/2+z
x,-y,1/2+z
1/2+x,1/2+y,1/2+z
1/2-x,1/2-y,1/2+z
1/2+x,1/2-y,-z
1/2-x,1/2+y,-z
1/2-x,1/2-y,1/2-z
1/2+x,1/2+y,1/2-z
1/2-x,1/2+y,z
1/2+x,1/2-y,z
loop_
_atom_site_type_symbol
_atom_site_label
_atom_site_fract_x
_atom_site_fract_y
_atom_site_fract_z
Si Si1 0.587943 0.332889 0.332920
Si Si2 0.204788 0.729301 0.397532
Si Si3 0.301352 0.099563 0.850943
Si Si4 0.723237 0.906262 0.348807
Si Si5 0.851975 0.173314 0.595030
Si Si6 0.141401 0.501578 0.854214
Si Si7 0.019070 0.339012 0.853214
O O1 0.500000 0.329368 0.250000
O O2 0.699792 0.298907 0.341755
O O3 0.648705 0.381718 0.347818
O O4 0.493672 0.321044 0.405628
O O5 0.229874 0.726727 0.500000
O O6 0.205501 0.781231 0.368989
O O7 0.071285 0.708694 0.383189
O O8 0.319878 0.092619 0.750015
O O9 0.179232 0.126857 0.859141
O O10 0.309329 0.049406 0.887069
O O11 0.399881 0.135305 0.883309
O O12 0.624900 0.872291 0.385794
O O13 0.709015 0.956464 0.384221
O O14 0.805809 0.168300 0.500000
O O15 0.150528 0.500000 0.750000
O O16 0.000000 0.500000 0.874711
O O17 0.000000 0.335504 0.750000
#
# Coordination Sequence:
#
# PCOD9525496 Si02
#       7
#    16  16  16  16  16  16  16
#     4  11  22  41  63  86 121 157 209 262 308 365
#     4  10  24  42  61  86 119 169 217 252 309 381
#     4  10  18  33  56  89 121 150 193 247 304 364
#     4   9  17  34  56  91 119 149 189 245 308 361
#     4  11  25  41  58  82 121 165 203 252 308 368
#     4   9  15  28  58  90 119 147 184 243 309 359
#     4   9  18  33  58  91 122 149 193 253 305 357
#
# _framework density 21.593710000000002
#
# number of rings (size 3 to 8) (size 9 to 14) (size 15 to 20)
#    0.000    2.143    2.857    0.429    2.000    1.714 
#    0.000    0.714    0.000    5.571    0.000    0.000 
#    0.000    0.000    0.000    0.000    0.000    0.000 
#
# Total GULP energy -311877.753135 kJ/mol
# GULP energy per Si atom -5569.245592 kJ/mol
# Density = 2.154456 g / cm^3
# Si number density = 21.593710 Si / 1000 Ang^3
#
#
#
# Elastic Constant Matrix: (Units=GPa)
#
#
# Indices 1 2 3 4 5 6 
#
# 1 79.7398 39.5955 16.1495 -0.0201 0.0000 0.0000
# 2 39.5955 159.3411 24.6277 -0.0313 0.0000 0.0000
# 3 16.1495 24.6277 48.3736 -0.0727 0.0000 0.0000
# 4 -0.0201 -0.0313 -0.0727 6108.5054 0.0127 -0.0087
# 5 0.0000 0.0000 0.0000 0.0127 14.0921 0.0000
# 6 0.0000 0.0000 0.0000 -0.0087 0.0000 26.0716
#
#
#
# Elastic Compliance Matrix: (Units=1/GPa)
#
#
# Indices 1 2 3 4 5 6 
#
# 1 0.014783 -0.003159 -0.003327 0.000000 0.000000 0.000000
# 2 -0.003159 0.007487 -0.002757 0.000000 0.000000 0.000000
# 3 -0.003327 -0.002757 0.023187 0.000000 0.000000 0.000000
# 4 0.000000 0.000000 0.000000 0.000164 0.000000 0.000000
# 5 0.000000 0.000000 0.000000 0.000000 0.070962 0.000000
# 6 0.000000 0.000000 0.000000 0.000000 0.000000 0.038356
#
#
# Mechanical properties :
#
#
# Convention : Reuss Voigt Hill
#
# Bulk Modulus (GPa) = 37.07746 49.79998 43.43872
# Shear Modulus (GPa) = 27.40999 1243.53929 635.47464
#
# Velocity S-wave (km/s) = 3.56666 24.02354 17.17340
# Velocity P-wave (km/s) = 5.84544 28.15350 20.33210
#
# Compressibility (1/GPa) = 0.02697056
#
# Stress axis : x y z
#
# Youngs Moduli (GPa) = 67.64345 133.56375 43.12806
#
# Poissons Ratio (x) = 0.42198 0.14348
# Poissons Ratio (y) = 0.21371 0.11890
# Poissons Ratio (z) = 0.22504 0.36824
#
# Static dielectric constant tensor:
#      x y z
#    x 1.777660 0.000000 0.000000 
#    y 0.000000 1.832120 0.000000 
#    z 0.000000 0.000000 1.888410 
# 
# From -- ./inp_files/20747.got.cif
#   From: 2010.05.17/outbox.cif.g08.bks.cpg/sg72_11_cif.got.tgz:20747.got - 2010.06.03 17:03:01.
