data_PCOD9525098
_publ_section_title
;
Structure prediction by ZEFSAII (Michael W. Deem and Ramdas Pophale) SiO2 
 PCOD9525098
Probable space group: I B A M
;
_chemical_formula_sum "Si O2"
_cell_formula_units_Z 96
_cell_length_a 29.880916
_cell_length_b 5.286419
_cell_length_c 32.039480
_cell_angle_alpha 90.000000
_cell_angle_beta 90.000000
_cell_angle_gamma 90.000000
_cell_volume 5061.053727
_symmetry_space_group_name_H-M "I B A M"
_symmetry_group_IT_number 72
_symmetry_cell_setting 'orthorhombic'
loop_
_space_group_symop_operation_xyz
x,y,z
-x,-y,z
x,-y,1/2-z
-x,y,1/2-z
-x,-y,-z
x,y,-z
-x,y,1/2+z
x,-y,1/2+z
1/2+x,1/2+y,1/2+z
1/2-x,1/2-y,1/2+z
1/2+x,1/2-y,-z
1/2-x,1/2+y,-z
1/2-x,1/2-y,1/2-z
1/2+x,1/2+y,1/2-z
1/2-x,1/2+y,z
1/2+x,1/2-y,z
loop_
_atom_site_type_symbol
_atom_site_label
_atom_site_fract_x
_atom_site_fract_y
_atom_site_fract_z
Si Si1 0.349140 0.939841 0.922629
Si Si2 0.144495 0.058550 0.634846
Si Si3 0.933121 0.168163 0.454512
Si Si4 0.549302 0.376721 0.627554
Si Si5 0.000000 0.500000 0.415506
Si Si6 0.221895 0.005956 0.200678
Si Si7 0.780625 0.539315 0.000000
O O1 0.345652 0.693692 0.892554
O O2 0.395565 0.881402 0.947078
O O3 0.311266 0.953337 0.958288
O O4 0.349610 0.192405 0.894435
O O5 0.093519 0.068456 0.653724
O O6 0.179601 0.053579 0.672187
O O7 0.927742 0.056877 0.500000
O O8 0.981219 0.291101 0.446194
O O9 0.932073 0.975056 0.416852
O O10 0.500000 0.500000 0.636980
O O11 0.538250 0.088008 0.616635
O O12 0.242221 0.283194 0.191974
O O13 0.211278 0.000000 0.250000
O O14 0.751383 0.284115 0.000000
#
# Coordination Sequence:
#
# PCOD9525098 Si02
#       7
#    16  16  16  16   8  16   8
#     4  11  23  39  56  82 113 155 199 247 285 343
#     4  11  22  39  63  87 116 157 197 235 301 361
#     4  10  19  32  48  71 105 147 197 247 297 324
#     4   9  20  33  50  78 115 151 198 244 289 347
#     4  10  17  32  48  74 102 145 194 248 289 338
#     4  10  22  41  66  97 125 145 181 244 306 361
#     4  12  26  42  56  77 110 156 203 252 294 336
#
# _framework density 18.968382999999999
#
# number of rings (size 3 to 8) (size 9 to 14) (size 15 to 20)
#    0.000    1.667    2.500    2.250    0.000    7.667 
#    1.500    0.000    0.000    0.500    0.000    0.000 
#    0.000    0.000    0.000    0.000    0.000    0.000 
#
# Total GULP energy -267334.672320 kJ/mol
# GULP energy per Si atom -5569.472340 kJ/mol
# Density = 1.892521 g / cm^3
# Si number density = 18.968383 Si / 1000 Ang^3
#
#
#
# Elastic Constant Matrix: (Units=GPa)
#
#
# Indices 1 2 3 4 5 6 
#
# 1 125.5003 27.8666 52.0505 0.0000 0.0000 0.0000
# 2 27.8666 102.3395 17.4405 0.0000 0.0000 0.0000
# 3 52.0505 17.4405 42.4973 0.0000 0.0000 0.0000
# 4 0.0000 0.0000 0.0000 15.0164 0.0000 0.0000
# 5 0.0000 0.0000 0.0000 0.0000 14.4839 0.0000
# 6 0.0000 0.0000 0.0000 0.0000 0.0000 26.7923
#
#
#
# Elastic Compliance Matrix: (Units=1/GPa)
#
#
# Indices 1 2 3 4 5 6 
#
# 1 0.016312 -0.001115 -0.019521 0.000000 0.000000 0.000000
# 2 -0.001115 0.010582 -0.002977 0.000000 0.000000 0.000000
# 3 -0.019521 -0.002977 0.048662 0.000000 0.000000 0.000000
# 4 0.000000 0.000000 0.000000 0.066594 0.000000 0.000000
# 5 0.000000 0.000000 0.000000 0.000000 0.069042 0.000000
# 6 0.000000 0.000000 0.000000 0.000000 0.000000 0.037324
#
#
# Mechanical properties :
#
#
# Convention : Reuss Voigt Hill
#
# Bulk Modulus (GPa) = 35.29878 51.67247 43.48563
# Shear Modulus (GPa) = 16.38337 22.79048 19.58693
#
# Velocity S-wave (km/s) = 2.94210 3.47002 3.21691
# Velocity P-wave (km/s) = 5.49463 6.58447 6.06408
#
# Compressibility (1/GPa) = 0.02832959
#
# Stress axis : x y z
#
# Youngs Moduli (GPa) = 61.30448 94.49668 20.54974
#
# Poissons Ratio (x) = 0.10536 0.40116
# Poissons Ratio (y) = 0.06835 0.06118
# Poissons Ratio (z) = 1.19674 0.28135
#
# Static dielectric constant tensor:
#      x y z
#    x 1.759200 0.000000 0.000000 
#    y 0.000000 1.714880 0.000000 
#    z 0.000000 0.000000 1.642710 
# 
# From -- ./inp_files/52569.got.cif
#   From: 2010.05.17/outbox.cif.g08.bks.cpg/sg72_27_cif.got.tgz:52569.got - 2010.06.03 17:03:01.
