data_PCOD9525631
_publ_section_title
;
Structure prediction by ZEFSAII (Michael W. Deem and Ramdas Pophale) SiO2 
 PCOD9525631
Probable space group: I B A M
;
_chemical_formula_sum "Si O2"
_cell_formula_units_Z 112
_cell_length_a 30.087633
_cell_length_b 32.396429
_cell_length_c 9.793533
_cell_angle_alpha 90.000000
_cell_angle_beta 90.000000
_cell_angle_gamma 90.000000
_cell_volume 9546.068698
_symmetry_space_group_name_H-M "I B A M"
_symmetry_group_IT_number 72
_symmetry_cell_setting 'orthorhombic'
loop_
_space_group_symop_operation_xyz
x,y,z
-x,-y,z
x,-y,1/2-z
-x,y,1/2-z
-x,-y,-z
x,y,-z
-x,y,1/2+z
x,-y,1/2+z
1/2+x,1/2+y,1/2+z
1/2-x,1/2-y,1/2+z
1/2+x,1/2-y,-z
1/2-x,1/2+y,-z
1/2-x,1/2-y,1/2-z
1/2+x,1/2+y,1/2-z
1/2-x,1/2+y,z
1/2+x,1/2-y,z
loop_
_atom_site_type_symbol
_atom_site_label
_atom_site_fract_x
_atom_site_fract_y
_atom_site_fract_z
Si Si1 0.220023 0.307494 0.841787
Si Si2 0.182695 0.763244 0.158993
Si Si3 0.353264 0.666584 0.840742
Si Si4 0.197946 0.959792 0.340427
Si Si5 0.744428 0.624354 0.656047
Si Si6 0.562498 0.544086 0.000000
Si Si7 0.604206 0.417376 0.232167
Si Si8 0.957530 0.053103 0.500000
O O1 0.189926 0.278239 0.746563
O O2 0.268782 0.285608 0.844183
O O3 0.226552 0.351173 0.765997
O O4 0.205564 0.310408 0.000000
O O5 0.150618 0.793516 0.244661
O O6 0.170044 0.756833 0.000000
O O7 0.303451 0.647421 0.846252
O O8 0.383263 0.630840 0.773828
O O9 0.365810 0.674335 0.000000
O O10 0.201817 0.969851 0.500000
O O11 0.232476 0.922833 0.309310
O O12 0.148651 0.941201 0.316389
O O13 0.204308 0.000000 0.250000
O O14 0.761857 0.626812 0.500000
O O15 0.588354 0.562696 0.127869
O O16 0.510468 0.555864 0.000000
O O17 0.559599 0.494374 0.000000
O O18 0.564105 0.425544 0.129663
#
# Coordination Sequence:
#
# PCOD9525631 Si02
#       8
#    16  16  16  16  16   8  16   8
#     4   9  15  23  34  51  70  90 109 127 154 182
#     4   9  16  23  36  53  70  87 108 129 148 182
#     4   9  16  28  40  51  69  88 105 127 158 196
#     4  10  19  29  41  54  69  90 114 142 174 208
#     4   8  15  26  36  48  67  89 111 134 161 190
#     4  11  24  30  48  58  68  83 108 138 166 217
#     4  11  20  32  44  57  70  87 105 135 173 210
#     4  11  20  38  44  56  70  85 106 134 174 211
#
# _framework density 11.732578
#
# number of rings (size 3 to 8) (size 9 to 14) (size 15 to 20)
#    0.000    2.429    1.429    3.429    2.000    5.143 
#    2.571    0.000    0.000    0.000    0.000    0.000 
#    0.000    0.000    0.000    0.000    0.000    0.000 
#
# Total GULP energy -311807.880058 kJ/mol
# GULP energy per Si atom -5567.997858 kJ/mol
# Density = 1.170587 g / cm^3
# Si number density = 11.732578 Si / 1000 Ang^3
#
#
#
# Elastic Constant Matrix: (Units=GPa)
#
#
# Indices 1 2 3 4 5 6 
#
# 1 18.0203 26.7843 16.8269 0.0000 0.0000 0.0000
# 2 26.7843 77.1107 48.4974 0.0000 0.0000 0.0000
# 3 16.8269 48.4974 78.6209 0.0000 0.0000 0.0000
# 4 0.0000 0.0000 0.0000 18.7271 0.0000 0.0000
# 5 0.0000 0.0000 0.0000 0.0000 86.3037 0.0000
# 6 0.0000 0.0000 0.0000 0.0000 0.0000 16.5927
#
#
#
# Elastic Compliance Matrix: (Units=1/GPa)
#
#
# Indices 1 2 3 4 5 6 
#
# 1 0.114721 -0.039876 0.000044 0.000000 0.000000 0.000000
# 2 -0.039876 0.035049 -0.013086 0.000000 0.000000 0.000000
# 3 0.000044 -0.013086 0.020782 0.000000 0.000000 0.000000
# 4 0.000000 0.000000 0.000000 0.053399 0.000000 0.000000
# 5 0.000000 0.000000 0.000000 0.000000 0.011587 0.000000
# 6 0.000000 0.000000 0.000000 0.000000 0.000000 0.060267
#
#
# Mechanical properties :
#
#
# Convention : Reuss Voigt Hill
#
# Bulk Modulus (GPa) = 15.45181 39.77433 27.61307
# Shear Modulus (GPa) = 11.81438 29.76758 20.79098
#
# Velocity S-wave (km/s) = 3.17673 5.04250 4.21417
# Velocity P-wave (km/s) = 5.16275 8.23874 6.87498
#
# Compressibility (1/GPa) = 0.06471735
#
# Stress axis : x y z
#
# Youngs Moduli (GPa) = 8.71677 28.53117 48.11922
#
# Poissons Ratio (x) = 1.13772 -0.00214
# Poissons Ratio (y) = 0.34759 0.62968
# Poissons Ratio (z) = -0.00039 0.37335
#
# Static dielectric constant tensor:
#      x y z
#    x 1.346710 0.000000 0.000000 
#    y 0.000000 1.384590 0.000000 
#    z 0.000000 0.000000 1.380230 
# 
# From -- ./inp_files/9533.got.cif
#   From: 2010.05.17/outbox.cif.g08.bks.cpg/sg72_5_cif.got.tgz:9533.got - 2010.06.03 17:03:01.
