data_PCOD9525508
_publ_section_title
;
Structure prediction by ZEFSAII (Michael W. Deem and Ramdas Pophale) SiO2 
 PCOD9525508
Probable space group: I B A M
;
_chemical_formula_sum "Si O2"
_cell_formula_units_Z 96
_cell_length_a 11.084984
_cell_length_b 20.903779
_cell_length_c 18.523919
_cell_angle_alpha 90.000000
_cell_angle_beta 90.000000
_cell_angle_gamma 90.000000
_cell_volume 4292.326496
_symmetry_space_group_name_H-M "I B A M"
_symmetry_group_IT_number 72
_symmetry_cell_setting 'orthorhombic'
loop_
_space_group_symop_operation_xyz
x,y,z
-x,-y,z
x,-y,1/2-z
-x,y,1/2-z
-x,-y,-z
x,y,-z
-x,y,1/2+z
x,-y,1/2+z
1/2+x,1/2+y,1/2+z
1/2-x,1/2-y,1/2+z
1/2+x,1/2-y,-z
1/2-x,1/2+y,-z
1/2-x,1/2-y,1/2-z
1/2+x,1/2+y,1/2-z
1/2-x,1/2+y,z
1/2+x,1/2-y,z
loop_
_atom_site_type_symbol
_atom_site_label
_atom_site_fract_x
_atom_site_fract_y
_atom_site_fract_z
Si Si1 0.753366 0.864578 0.000000
Si Si2 0.010707 0.635769 0.500000
Si Si3 0.636893 0.392830 0.750583
Si Si4 0.364178 0.505856 0.631525
Si Si5 0.978741 0.857494 0.500000
Si Si6 0.244942 0.451555 0.000000
Si Si7 0.753125 0.707211 0.656808
Si Si8 0.003536 0.253336 0.118433
O O1 0.749669 0.822946 0.074810
O O2 0.889939 0.891884 0.000000
O O3 0.621381 0.896643 0.000000
O O4 0.016051 0.684235 0.432289
O O5 0.121974 0.587619 0.500000
O O6 0.500000 0.366524 0.750000
O O7 0.653774 0.427774 0.674664
O O8 0.639998 0.449435 0.810359
O O9 0.734070 0.344185 0.780345
O O10 0.500000 0.500000 0.601524
O O11 0.264771 0.505569 0.570476
O O12 0.860924 0.902192 0.500000
O O13 0.981504 0.809386 0.431648
O O14 0.881463 0.740356 0.663559
O O15 0.630632 0.747554 0.657917
#
# Coordination Sequence:
#
# PCOD9525508 Si02
#       8
#     8   8  16  16   8   8  16  16
#     4   8  18  30  53  84 116 165 199 223 286 369
#     4   9  18  35  51  83 135 164 179 248 324 344
#     4   9  20  39  58  79 123 165 190 249 325 366
#     4   9  21  38  57  89 119 149 200 265 315 357
#     4   9  18  29  54  88 123 158 195 250 294 343
#     4  12  21  32  66  97 115 137 209 273 298 354
#     4  10  18  33  61  85 120 163 202 242 302 366
#     4   9  18  33  54  88 125 161 200 239 294 366
#
# _framework density 22.365493000000001
#
# number of rings (size 3 to 8) (size 9 to 14) (size 15 to 20)
#    0.000    2.667    0.000    3.250    9.333    2.000 
#    0.000    0.833    0.000   11.000    0.000    9.333 
#    0.000    0.000    0.000    0.000    0.000    0.000 
#
# Total GULP energy -268166.731985 kJ/mol
# GULP energy per Si atom -5586.806916 kJ/mol
# Density = 2.231459 g / cm^3
# Si number density = 22.365493 Si / 1000 Ang^3
#
#
#
# Elastic Constant Matrix: (Units=GPa)
#
#
# Indices 1 2 3 4 5 6 
#
# 1 200.3784 59.2835 39.9685 0.0000 0.0000 0.0000
# 2 59.2835 55.2848 29.0716 0.0000 0.0000 0.0000
# 3 39.9685 29.0716 91.0844 0.0000 0.0000 0.0000
# 4 0.0000 0.0000 0.0000 35.6903 0.0000 0.0000
# 5 0.0000 0.0000 0.0000 0.0000 15.7728 0.0000
# 6 0.0000 0.0000 0.0000 0.0000 0.0000 48.5402
#
#
#
# Elastic Compliance Matrix: (Units=1/GPa)
#
#
# Indices 1 2 3 4 5 6 
#
# 1 0.007364 -0.007448 -0.000854 0.000000 0.000000 0.000000
# 2 -0.007448 0.029268 -0.006074 0.000000 0.000000 0.000000
# 3 -0.000854 -0.006074 0.013292 0.000000 0.000000 0.000000
# 4 0.000000 0.000000 0.000000 0.028019 0.000000 0.000000
# 5 0.000000 0.000000 0.000000 0.000000 0.063400 0.000000
# 6 0.000000 0.000000 0.000000 0.000000 0.000000 0.020601
#
#
# Mechanical properties :
#
#
# Convention : Reuss Voigt Hill
#
# Bulk Modulus (GPa) = 47.22859 67.04387 57.13623
# Shear Modulus (GPa) = 25.28378 34.56226 29.92302
#
# Velocity S-wave (km/s) = 3.36591 3.93534 3.66171
# Velocity P-wave (km/s) = 6.02232 7.11975 6.59391
#
# Compressibility (1/GPa) = 0.02117361
#
# Stress axis : x y z
#
# Youngs Moduli (GPa) = 135.78656 34.16645 75.23173
#
# Poissons Ratio (x) = 0.25447 0.06428
# Poissons Ratio (y) = 1.01132 0.45692
# Poissons Ratio (z) = 0.11602 0.20751
#
# Static dielectric constant tensor:
#      x y z
#    x 1.779550 0.000000 0.000000 
#    y 0.000000 1.893280 0.000000 
#    z 0.000000 0.000000 1.850300 
# 
# From -- ./inp_files/29538.got.cif
#   From: 2010.05.17/outbox.cif.g08.bks.cpg/sg72_15_cif.got.tgz:29538.got - 2010.06.03 17:03:01.
