data_PCOD9525837
_publ_section_title
;
Structure prediction by ZEFSAII (Michael W. Deem and Ramdas Pophale) SiO2 
 PCOD9525837
Probable space group: I B A M
;
_chemical_formula_sum "Si O2"
_cell_formula_units_Z 116
_cell_length_a 26.994669
_cell_length_b 27.368010
_cell_length_c 9.166832
_cell_angle_alpha 90.000000
_cell_angle_beta 90.000000
_cell_angle_gamma 90.000000
_cell_volume 6772.367215
_symmetry_space_group_name_H-M "I B A M"
_symmetry_group_IT_number 72
_symmetry_cell_setting 'orthorhombic'
loop_
_space_group_symop_operation_xyz
x,y,z
-x,-y,z
x,-y,1/2-z
-x,y,1/2-z
-x,-y,-z
x,y,-z
-x,y,1/2+z
x,-y,1/2+z
1/2+x,1/2+y,1/2+z
1/2-x,1/2-y,1/2+z
1/2+x,1/2-y,-z
1/2-x,1/2+y,-z
1/2-x,1/2-y,1/2-z
1/2+x,1/2+y,1/2-z
1/2-x,1/2+y,z
1/2+x,1/2-y,z
loop_
_atom_site_type_symbol
_atom_site_label
_atom_site_fract_x
_atom_site_fract_y
_atom_site_fract_z
Si Si1 0.926622 0.818316 0.668094
Si Si2 0.185710 0.786118 0.830110
Si Si3 0.242109 0.639076 0.174590
Si Si4 0.315800 0.550829 0.174306
Si Si5 0.073837 0.915642 0.666764
Si Si6 0.951797 0.717351 0.172792
Si Si7 0.342721 0.185311 0.673925
Si Si8 0.000000 0.000000 0.750000
O O1 0.942579 0.813639 0.500000
O O2 0.866704 0.814731 0.672696
O O3 0.942235 0.870129 0.734221
O O4 0.944116 0.771547 0.759899
O O5 0.225928 0.817051 0.743673
O O6 0.176339 0.735150 0.749386
O O7 0.199388 0.778746 0.000000
O O8 0.274232 0.590985 0.208043
O O9 0.188638 0.642604 0.250418
O O10 0.238164 0.644202 0.000000
O O11 0.304745 0.500000 0.250000
O O12 0.371251 0.568000 0.216906
O O13 0.317108 0.544563 0.000000
O O14 0.077784 0.898033 0.500000
O O15 0.037090 0.961984 0.671048
O O16 0.901696 0.686770 0.199714
O O17 0.000000 0.695918 0.250000
O O18 0.834205 0.686448 0.000000
O O19 0.541216 0.221445 0.000000
#
# Coordination Sequence:
#
# PCOD9525837 Si02
#       8
#    16  16  16  16  16  16  16   4
#     4  10  21  35  54  76  99 133 176 218 267 319
#     4  10  19  32  51  76 104 137 173 213 260 318
#     4  11  21  34  53  77 104 137 173 215 267 321
#     4  10  22  39  58  77 100 135 175 221 277 329
#     4  11  23  40  56  72  97 129 173 230 285 328
#     4  10  21  37  56  77 106 141 176 212 255 304
#     4  10  21  35  52  77 108 140 173 213 257 310
#     4  12  26  40  56  74  94 132 180 238 292 328
#
# _framework density 17.128428
#
# number of rings (size 3 to 8) (size 9 to 14) (size 15 to 20)
#    0.000    1.655    2.069    2.690    0.966    5.517 
#    0.000    0.000    0.000    0.000    0.000    0.000 
#    0.000    0.552    0.000    6.069    0.000    4.414 
#
# Total GULP energy -323885.972466 kJ/mol
# GULP energy per Si atom -5584.240905 kJ/mol
# Density = 1.708944 g / cm^3
# Si number density = 17.128428 Si / 1000 Ang^3
#
#
#
# Elastic Constant Matrix: (Units=GPa)
#
#
# Indices 1 2 3 4 5 6 
#
# 1 127.8032 51.5545 63.1990 0.0000 0.0000 0.0000
# 2 51.5545 54.6248 32.4609 0.0000 0.0000 0.0000
# 3 63.1990 32.4609 87.3743 0.0000 0.0000 0.0000
# 4 0.0000 0.0000 0.0000 22.6807 0.0000 0.0000
# 5 0.0000 0.0000 0.0000 0.0000 20.4418 0.0000
# 6 0.0000 0.0000 0.0000 0.0000 0.0000 21.8226
#
#
#
# Elastic Compliance Matrix: (Units=1/GPa)
#
#
# Indices 1 2 3 4 5 6 
#
# 1 0.015730 -0.010375 -0.007523 0.000000 0.000000 0.000000
# 2 -0.010375 0.030337 -0.003766 0.000000 0.000000 0.000000
# 3 -0.007523 -0.003766 0.018286 0.000000 0.000000 0.000000
# 4 0.000000 0.000000 0.000000 0.044090 0.000000 0.000000
# 5 0.000000 0.000000 0.000000 0.000000 0.048919 0.000000
# 6 0.000000 0.000000 0.000000 0.000000 0.000000 0.045824
#
#
# Mechanical properties :
#
#
# Convention : Reuss Voigt Hill
#
# Bulk Modulus (GPa) = 47.56548 62.69235 55.12891
# Shear Modulus (GPa) = 19.72208 21.16155 20.44181
#
# Velocity S-wave (km/s) = 3.39694 3.51873 3.45837
# Velocity P-wave (km/s) = 6.57388 7.29311 6.94281
#
# Compressibility (1/GPa) = 0.02102365
#
# Stress axis : x y z
#
# Youngs Moduli (GPa) = 63.57275 32.96339 54.68729
#
# Poissons Ratio (x) = 0.34200 0.41142
# Poissons Ratio (y) = 0.65958 0.20595
# Poissons Ratio (z) = 0.47827 0.12414
#
# Static dielectric constant tensor:
#      x y z
#    x 1.641820 0.000000 0.000000 
#    y 0.000000 1.550600 0.000000 
#    z 0.000000 0.000000 1.575680 
# 
# From -- ./inp_files/7556.got.cif
#   From: 2010.05.17/outbox.cif.g08.bks.cpg/sg72_4_cif.got.tgz:7556.got - 2010.06.03 17:03:01.
