data_PCOD9525794
_publ_section_title
;
Structure prediction by ZEFSAII (Michael W. Deem and Ramdas Pophale) SiO2 
 PCOD9525794
Probable space group: I B A M
;
_chemical_formula_sum "Si O2"
_cell_formula_units_Z 104
_cell_length_a 24.652293
_cell_length_b 26.112499
_cell_length_c 7.689453
_cell_angle_alpha 90.000000
_cell_angle_beta 90.000000
_cell_angle_gamma 90.000000
_cell_volume 4949.954466
_symmetry_space_group_name_H-M "I B A M"
_symmetry_group_IT_number 72
_symmetry_cell_setting 'orthorhombic'
loop_
_space_group_symop_operation_xyz
x,y,z
-x,-y,z
x,-y,1/2-z
-x,y,1/2-z
-x,-y,-z
x,y,-z
-x,y,1/2+z
x,-y,1/2+z
1/2+x,1/2+y,1/2+z
1/2-x,1/2-y,1/2+z
1/2+x,1/2-y,-z
1/2-x,1/2+y,-z
1/2-x,1/2-y,1/2-z
1/2+x,1/2+y,1/2-z
1/2-x,1/2+y,z
1/2+x,1/2-y,z
loop_
_atom_site_type_symbol
_atom_site_label
_atom_site_fract_x
_atom_site_fract_y
_atom_site_fract_z
Si Si1 0.061301 0.264518 0.209551
Si Si2 0.868202 0.826838 0.792961
Si Si3 0.218038 0.909365 0.205544
Si Si4 0.146617 0.000000 0.250000
Si Si5 0.939500 0.618404 0.209179
Si Si6 0.062131 0.923966 0.294095
Si Si7 0.165422 0.559773 0.708319
O O1 0.108911 0.227056 0.274891
O O2 0.065516 0.322945 0.274061
O O3 0.000000 0.246204 0.250000
O O4 0.065653 0.265189 0.000000
O O5 0.815100 0.856559 0.724644
O O6 0.917640 0.866512 0.763879
O O7 0.859820 0.822286 0.000000
O O8 0.188157 0.955458 0.308237
O O9 0.280481 0.909538 0.262008
O O10 0.215583 0.924193 0.000000
O O11 0.101223 0.959989 0.182364
O O12 0.890454 0.583721 0.277046
O O13 0.000000 0.599465 0.250000
O O14 0.935646 0.620470 0.000000
O O15 0.071588 0.934996 0.500000
O O16 0.000000 0.931331 0.250000
O O17 0.171251 0.500000 0.750000
O O18 0.163235 0.563916 0.500000
#
# Coordination Sequence:
#
# PCOD9525794 Si02
#       7
#    16  16  16   8  16  16  16
#     4   9  17  32  54  78 105 140 177 217 263 313
#     4   9  19  33  49  71 101 136 174 214 259 305
#     4  10  20  34  52  73  98 133 177 218 259 306
#     4  10  19  32  48  64  89 126 172 212 258 304
#     4   9  19  36  58  83 111 138 170 211 260 316
#     4  10  20  30  42  63  91 123 162 209 254 300
#     4  10  21  37  57  81 107 139 175 215 261 314
#
# _framework density 21.010294999999999
#
# number of rings (size 3 to 8) (size 9 to 14) (size 15 to 20)
#    0.000    2.462    0.769    1.154    0.000    6.462 
#    0.000    2.308    0.000    0.000    0.000    0.000 
#    0.000    0.000    0.000    0.000    0.000    0.000 
#
# Total GULP energy -289518.702195 kJ/mol
# GULP energy per Si atom -5567.667350 kJ/mol
# Density = 2.096247 g / cm^3
# Si number density = 21.010295 Si / 1000 Ang^3
#
#
#
# Elastic Constant Matrix: (Units=GPa)
#
#
# Indices 1 2 3 4 5 6 
#
# 1 196.4079 63.1883 11.9291 0.0000 0.0000 0.0000
# 2 63.1883 53.4428 3.0115 0.0000 0.0000 0.0000
# 3 11.9291 3.0115 55.4631 0.0000 0.0000 0.0000
# 4 0.0000 0.0000 0.0000 8.2233 0.0000 0.0000
# 5 0.0000 0.0000 0.0000 0.0000 14.5880 0.0000
# 6 0.0000 0.0000 0.0000 0.0000 0.0000 31.6420
#
#
#
# Elastic Compliance Matrix: (Units=1/GPa)
#
#
# Indices 1 2 3 4 5 6 
#
# 1 0.008304 -0.009747 -0.001257 0.000000 0.000000 0.000000
# 2 -0.009747 0.030210 0.000456 0.000000 0.000000 0.000000
# 3 -0.001257 0.000456 0.018276 0.000000 0.000000 0.000000
# 4 0.000000 0.000000 0.000000 0.121605 0.000000 0.000000
# 5 0.000000 0.000000 0.000000 0.000000 0.068549 0.000000
# 6 0.000000 0.000000 0.000000 0.000000 0.000000 0.031604
#
#
# Mechanical properties :
#
#
# Convention : Reuss Voigt Hill
#
# Bulk Modulus (GPa) = 28.01581 51.28575 39.65078
# Shear Modulus (GPa) = 16.04928 26.03633 21.04280
#
# Velocity S-wave (km/s) = 2.76683 3.52407 3.16816
# Velocity P-wave (km/s) = 4.85494 6.40481 5.68296
#
# Compressibility (1/GPa) = 0.03569414
#
# Stress axis : x y z
#
# Youngs Moduli (GPa) = 120.43042 33.10141 54.71794
#
# Poissons Ratio (x) = 0.32264 0.06876
# Poissons Ratio (y) = 1.17383 -0.02495
# Poissons Ratio (z) = 0.15135 -0.01510
#
# Static dielectric constant tensor:
#      x y z
#    x 1.748860 0.000000 0.000000 
#    y 0.000000 1.764670 0.000000 
#    z 0.000000 0.000000 1.903090 
# 
# From -- ./inp_files/7202.got.cif
#   From: 2010.05.17/outbox.cif.g08.bks.cpg/sg72_4_cif.got.tgz:7202.got - 2010.06.03 17:03:01.
