data_PCOD9525397
_publ_section_title
;
Structure prediction by ZEFSAII (Michael W. Deem and Ramdas Pophale) SiO2 
 PCOD9525397
Probable space group: I B A M
;
_chemical_formula_sum "Si O2"
_cell_formula_units_Z 84
_cell_length_a 8.638409
_cell_length_b 24.816598
_cell_length_c 18.214253
_cell_angle_alpha 90.000000
_cell_angle_beta 90.000000
_cell_angle_gamma 90.000000
_cell_volume 3904.697308
_symmetry_space_group_name_H-M "I B A M"
_symmetry_group_IT_number 72
_symmetry_cell_setting 'orthorhombic'
loop_
_space_group_symop_operation_xyz
x,y,z
-x,-y,z
x,-y,1/2-z
-x,y,1/2-z
-x,-y,-z
x,y,-z
-x,y,1/2+z
x,-y,1/2+z
1/2+x,1/2+y,1/2+z
1/2-x,1/2-y,1/2+z
1/2+x,1/2-y,-z
1/2-x,1/2+y,-z
1/2-x,1/2-y,1/2-z
1/2+x,1/2+y,1/2-z
1/2-x,1/2+y,z
1/2+x,1/2-y,z
loop_
_atom_site_type_symbol
_atom_site_label
_atom_site_fract_x
_atom_site_fract_y
_atom_site_fract_z
Si Si1 0.651543 0.124175 0.911663
Si Si2 0.665565 0.329196 0.910669
Si Si3 0.000000 0.500000 0.750000
Si Si4 0.149906 0.026794 0.583466
Si Si5 0.832409 0.570003 0.631744
Si Si6 0.836617 0.775470 0.588927
O O1 0.482041 0.102844 0.894710
O O2 0.703142 0.183032 0.886047
O O3 0.773725 0.079730 0.883006
O O4 0.663539 0.124849 0.000000
O O5 0.697385 0.385532 0.870773
O O6 0.795318 0.285084 0.888854
O O7 0.501465 0.301569 0.892724
O O8 0.671152 0.338111 0.000000
O O9 0.111516 0.460676 0.704127
O O10 0.103862 0.041787 0.500000
O O11 0.278294 0.979980 0.581933
O O12 0.000000 0.000000 0.620064
O O13 0.832652 0.773496 0.500000
#
# Coordination Sequence:
#
# PCOD9525397 Si02
#       6
#    16  16   4  16  16  16
#     4  10  18  31  55  84 116 147 179 229 297 367
#     4  10  19  33  58  90 124 153 183 232 300 370
#     4  12  28  44  56  76 108 160 226 270 278 332
#     4  10  19  32  55  88 116 141 179 234 303 372
#     4  12  22  39  57  77 113 159 202 252 296 334
#     4   9  18  32  55  96 131 152 178 221 297 383
#
# _framework density 21.512550000000001
#
# number of rings (size 3 to 8) (size 9 to 14) (size 15 to 20)
#    0.000    1.714    1.905    4.000    0.000    7.619 
#    0.000    0.476    0.000    4.571    0.000    0.000 
#    0.000    0.000    0.000    0.000    0.000    0.000 
#
# Total GULP energy -234307.787442 kJ/mol
# GULP energy per Si atom -5578.756844 kJ/mol
# Density = 2.146359 g / cm^3
# Si number density = 21.512550 Si / 1000 Ang^3
#
#
#
# Elastic Constant Matrix: (Units=GPa)
#
#
# Indices 1 2 3 4 5 6 
#
# 1 57.7321 10.9878 9.6857 0.0000 0.0004 0.0000
# 2 10.9878 134.5802 20.8897 0.0001 0.0004 0.0000
# 3 9.6857 20.8897 23.9346 0.0003 0.0024 0.0000
# 4 0.0000 0.0001 0.0003 -46.8312 0.0031 0.0000
# 5 0.0004 0.0004 0.0024 0.0031 -381.2345 0.0000
# 6 0.0000 0.0000 0.0000 0.0000 0.0000 43.6026
#
#
#
# Elastic Compliance Matrix: (Units=1/GPa)
#
#
# Indices 1 2 3 4 5 6 
#
# 1 0.018602 -0.000405 -0.007174 0.000000 0.000000 0.000000
# 2 -0.000405 0.008604 -0.007345 0.000000 0.000000 0.000000
# 3 -0.007174 -0.007345 0.051094 0.000000 0.000000 0.000000
# 4 0.000000 0.000000 0.000000 -0.021353 0.000000 0.000000
# 5 0.000000 0.000000 0.000000 0.000000 -0.002623 0.000000
# 6 0.000000 0.000000 0.000000 0.000000 0.000000 0.022934
#
#
# Mechanical properties :
#
#
# Convention : Reuss Voigt Hill
#
# Bulk Modulus (GPa) = 20.63930 33.26369 26.95149
# Shear Modulus (GPa) = 40.56541 -65.24703 -12.34081
#
# Velocity S-wave (km/s) = 4.34713 -5.51322 -2.39771
# Velocity P-wave (km/s) = 5.90014 5.00314 2.21136
#
# Compressibility (1/GPa) = 0.04845126
#
# Stress axis : x y z
#
# Youngs Moduli (GPa) = 53.75742 116.22874 19.57160
#
# Poissons Ratio (x) = 0.04710 0.14041
# Poissons Ratio (y) = 0.02178 0.14376
# Poissons Ratio (z) = 0.38566 0.85372
#
# Static dielectric constant tensor:
#      x y z
#    x 1.848100 0.000000 0.000000 
#    y 0.000000 1.792500 0.000000 
#    z 0.000000 0.000000 1.779130 
# 
# From -- ./inp_files/42356.got.cif
#   From: 2010.05.17/outbox.cif.g08.bks.cpg/sg72_22_cif.got.tgz:42356.got - 2010.06.03 17:03:01.
