data_PCOD9525988
_publ_section_title
;
Structure prediction by ZEFSAII (Michael W. Deem and Ramdas Pophale) SiO2 
 PCOD9525988
Probable space group: I B A M
;
_chemical_formula_sum "Si O2"
_cell_formula_units_Z 80
_cell_length_a 13.418336
_cell_length_b 18.270113
_cell_length_c 16.921311
_cell_angle_alpha 90.000000
_cell_angle_beta 90.000000
_cell_angle_gamma 90.000000
_cell_volume 4148.335791
_symmetry_space_group_name_H-M "I B A M"
_symmetry_group_IT_number 72
_symmetry_cell_setting 'orthorhombic'
loop_
_space_group_symop_operation_xyz
x,y,z
-x,-y,z
x,-y,1/2-z
-x,y,1/2-z
-x,-y,-z
x,y,-z
-x,y,1/2+z
x,-y,1/2+z
1/2+x,1/2+y,1/2+z
1/2-x,1/2-y,1/2+z
1/2+x,1/2-y,-z
1/2-x,1/2+y,-z
1/2-x,1/2-y,1/2-z
1/2+x,1/2+y,1/2-z
1/2-x,1/2+y,z
1/2+x,1/2-y,z
loop_
_atom_site_type_symbol
_atom_site_label
_atom_site_fract_x
_atom_site_fract_y
_atom_site_fract_z
Si Si1 0.114969 0.976610 0.905755
Si Si2 0.430730 0.807546 0.590482
Si Si3 0.874909 0.255090 0.673865
Si Si4 0.731305 0.621015 0.405487
Si Si5 0.836650 0.177478 0.164586
O O1 0.136169 0.904996 0.854447
O O2 0.184173 0.044466 0.879770
O O3 0.132749 0.962407 0.000000
O O4 0.000000 0.000000 0.897933
O O5 0.455118 0.826692 0.500000
O O6 0.530117 0.797737 0.641142
O O7 0.343629 0.860927 0.622998
O O8 0.376768 0.728419 0.593992
O O9 0.841001 0.187786 0.617936
O O10 0.885129 0.214626 0.757956
O O11 0.780686 0.309481 0.676288
O O12 0.737105 0.619521 0.500000
#
# Coordination Sequence:
#
# PCOD9525988 Si02
#       5
#    16  16  16  16  16
#     4  10  20  35  56  82 113 147 183 228 281 334
#     4  10  19  33  54  78 107 144 184 229 277 325
#     4  10  20  35  55  79 107 142 184 228 274 326
#     4   9  19  34  52  78 110 143 184 229 274 331
#     4  10  21  35  54  80 109 142 183 227 272 328
#
# _framework density 19.284842999999999
#
# number of rings (size 3 to 8) (size 9 to 14) (size 15 to 20)
#    0.000    2.200    0.000    3.000    0.000    4.800 
#    0.000    2.000    0.000    3.600    0.000    8.400 
#    0.000    0.000    0.000    0.000    0.000    1.200 
#
# Total GULP energy -223154.497758 kJ/mol
# GULP energy per Si atom -5578.862444 kJ/mol
# Density = 1.924095 g / cm^3
# Si number density = 19.284843 Si / 1000 Ang^3
#
#
#
# Elastic Constant Matrix: (Units=GPa)
#
#
# Indices 1 2 3 4 5 6 
#
# 1 145.2447 57.7578 50.1768 0.0000 0.0000 0.0000
# 2 57.7578 104.5491 35.8082 0.0000 0.0000 0.0000
# 3 50.1768 35.8082 55.2787 0.0000 0.0000 0.0000
# 4 0.0000 0.0000 0.0000 20.5308 0.0000 0.0000
# 5 0.0000 0.0000 0.0000 0.0000 25.2641 0.0000
# 6 0.0000 0.0000 0.0000 0.0000 0.0000 21.7514
#
#
#
# Elastic Compliance Matrix: (Units=1/GPa)
#
#
# Indices 1 2 3 4 5 6 
#
# 1 0.010886 -0.003379 -0.007692 0.000000 0.000000 0.000000
# 2 -0.003379 0.013341 -0.005575 0.000000 0.000000 0.000000
# 3 -0.007692 -0.005575 0.028684 0.000000 0.000000 0.000000
# 4 0.000000 0.000000 0.000000 0.048707 0.000000 0.000000
# 5 0.000000 0.000000 0.000000 0.000000 0.039582 0.000000
# 6 0.000000 0.000000 0.000000 0.000000 0.000000 0.045974
#
#
# Mechanical properties :
#
#
# Convention : Reuss Voigt Hill
#
# Bulk Modulus (GPa) = 50.97286 65.83978 58.40632
# Shear Modulus (GPa) = 22.02582 24.26458 23.14520
#
# Velocity S-wave (km/s) = 3.38321 3.55099 3.46811
# Velocity P-wave (km/s) = 6.46146 7.14335 6.81094
#
# Compressibility (1/GPa) = 0.01961828
#
# Stress axis : x y z
#
# Youngs Moduli (GPa) = 91.85924 74.95630 34.86314
#
# Poissons Ratio (x) = 0.25331 0.26818
# Poissons Ratio (y) = 0.31043 0.19435
# Poissons Ratio (z) = 0.70662 0.41785
#
# Static dielectric constant tensor:
#      x y z
#    x 1.702390 0.000000 0.000000 
#    y 0.000000 1.646140 0.000000 
#    z 0.000000 0.000000 1.735100 
# 
# From -- ./inp_files/30471.got.cif
#   From: 2010.05.17/outbox.cif.g08.bks.cpg/sg72_16_cif.got.tgz:30471.got - 2010.06.03 17:03:01.
