data_PCOD9525952
_publ_section_title
;
Structure prediction by ZEFSAII (Michael W. Deem and Ramdas Pophale) SiO2 
 PCOD9525952
Probable space group: I B A M
;
_chemical_formula_sum "Si O2"
_cell_formula_units_Z 80
_cell_length_a 27.933253
_cell_length_b 18.488790
_cell_length_c 8.563426
_cell_angle_alpha 90.000000
_cell_angle_beta 90.000000
_cell_angle_gamma 90.000000
_cell_volume 4422.598902
_symmetry_space_group_name_H-M "I B A M"
_symmetry_group_IT_number 72
_symmetry_cell_setting 'orthorhombic'
loop_
_space_group_symop_operation_xyz
x,y,z
-x,-y,z
x,-y,1/2-z
-x,y,1/2-z
-x,-y,-z
x,y,-z
-x,y,1/2+z
x,-y,1/2+z
1/2+x,1/2+y,1/2+z
1/2-x,1/2-y,1/2+z
1/2+x,1/2-y,-z
1/2-x,1/2+y,-z
1/2-x,1/2-y,1/2-z
1/2+x,1/2+y,1/2-z
1/2-x,1/2+y,z
1/2+x,1/2-y,z
loop_
_atom_site_type_symbol
_atom_site_label
_atom_site_fract_x
_atom_site_fract_y
_atom_site_fract_z
Si Si1 0.708319 0.921164 0.312601
Si Si2 0.050663 0.228800 0.185997
Si Si3 0.850486 0.287016 0.187582
Si Si4 0.915278 0.077099 0.187551
Si Si5 0.811749 0.867404 0.689207
O O1 0.708734 0.922203 0.500000
O O2 0.672840 0.858923 0.254862
O O3 0.761990 0.900530 0.254966
O O4 0.695379 0.000000 0.250000
O O5 0.095829 0.272339 0.253768
O O6 0.057529 0.146051 0.243418
O O7 0.000000 0.255803 0.250000
O O8 0.051499 0.230927 0.000000
O O9 0.819989 0.215888 0.237586
O O10 0.850442 0.289287 0.000000
O O11 0.859466 0.089107 0.235402
O O12 0.932130 0.000000 0.250000
O O13 0.918282 0.079505 0.000000
O O14 0.810688 0.867991 0.500000
#
# Coordination Sequence:
#
# PCOD9525952 Si02
#       5
#    16  16  16  16  16
#     4  11  21  34  52  79 111 146 182 220 264 314
#     4  11  22  38  58  80 103 135 176 222 271 323
#     4  10  20  37  57  80 108 140 177 223 268 316
#     4  10  19  33  51  77 111 147 183 223 265 312
#     4   8  17  32  52  77 109 145 183 219 259 309
#
# _framework density 18.088911
#
# number of rings (size 3 to 8) (size 9 to 14) (size 15 to 20)
#    0.000    2.000    0.000    6.000    0.000    0.400 
#    0.000   12.000    0.000    0.600    0.000    4.200 
#    0.000    0.000    0.000    0.000    0.000    0.000 
#
# Total GULP energy -223448.027688 kJ/mol
# GULP energy per Si atom -5586.200692 kJ/mol
# Density = 1.804774 g / cm^3
# Si number density = 18.088911 Si / 1000 Ang^3
#
#
#
# Elastic Constant Matrix: (Units=GPa)
#
#
# Indices 1 2 3 4 5 6 
#
# 1 65.9405 21.7165 12.7744 0.0000 0.0000 0.0000
# 2 21.7165 79.0441 18.8759 0.0000 0.0000 0.0000
# 3 12.7744 18.8759 78.0894 0.0000 0.0000 0.0000
# 4 0.0000 0.0000 0.0000 24.5151 0.0000 0.0000
# 5 0.0000 0.0000 0.0000 0.0000 24.6479 0.0000
# 6 0.0000 0.0000 0.0000 0.0000 0.0000 -0.7004
#
#
#
# Elastic Compliance Matrix: (Units=1/GPa)
#
#
# Indices 1 2 3 4 5 6 
#
# 1 0.016894 -0.004225 -0.001742 0.000000 0.000000 0.000000
# 2 -0.004225 0.014483 -0.002810 0.000000 0.000000 0.000000
# 3 -0.001742 -0.002810 0.013770 0.000000 0.000000 0.000000
# 4 0.000000 0.000000 0.000000 0.040791 0.000000 0.000000
# 5 0.000000 0.000000 0.000000 0.000000 0.040571 0.000000
# 6 0.000000 0.000000 0.000000 0.000000 0.000000 -1.427833
#
#
# Mechanical properties :
#
#
# Convention : Reuss Voigt Hill
#
# Bulk Modulus (GPa) = 36.24167 36.64527 36.44347
# Shear Modulus (GPa) = -3.92289 21.00635 8.54173
#
# Velocity S-wave (km/s) = -1.47424 3.41146 2.17539
# Velocity P-wave (km/s) = 4.14499 5.98496 5.14785
#
# Compressibility (1/GPa) = 0.02759255
#
# Stress axis : x y z
#
# Youngs Moduli (GPa) = 59.19154 69.04646 72.62161
#
# Poissons Ratio (x) = 0.29175 0.12653
# Poissons Ratio (y) = 0.25011 0.20404
# Poissons Ratio (z) = 0.10313 0.19399
#
# Static dielectric constant tensor:
#      x y z
#    x 1.626400 0.000000 0.000000 
#    y 0.000000 1.593690 0.000000 
#    z 0.000000 0.000000 1.600610 
# 
# From -- ./inp_files/4769.got.cif
#   From: 2010.05.17/outbox.cif.g08.bks.cpg/sg72_3_cif.got.tgz:4769.got - 2010.06.03 17:03:01.
