data_PCOD9525667
_publ_section_title
;
Structure prediction by ZEFSAII (Michael W. Deem and Ramdas Pophale) SiO2 
 PCOD9525667
Probable space group: I B A M
;
_chemical_formula_sum "Si O2"
_cell_formula_units_Z 112
_cell_length_a 18.313582
_cell_length_b 19.931133
_cell_length_c 14.785976
_cell_angle_alpha 90.000000
_cell_angle_beta 90.000000
_cell_angle_gamma 90.000000
_cell_volume 5397.035584
_symmetry_space_group_name_H-M "I B A M"
_symmetry_group_IT_number 72
_symmetry_cell_setting 'orthorhombic'
loop_
_space_group_symop_operation_xyz
x,y,z
-x,-y,z
x,-y,1/2-z
-x,y,1/2-z
-x,-y,-z
x,y,-z
-x,y,1/2+z
x,-y,1/2+z
1/2+x,1/2+y,1/2+z
1/2-x,1/2-y,1/2+z
1/2+x,1/2-y,-z
1/2-x,1/2+y,-z
1/2-x,1/2-y,1/2-z
1/2+x,1/2+y,1/2-z
1/2-x,1/2+y,z
1/2+x,1/2-y,z
loop_
_atom_site_type_symbol
_atom_site_label
_atom_site_fract_x
_atom_site_fract_y
_atom_site_fract_z
Si Si1 0.529916 0.350900 0.851792
Si Si2 0.665733 0.255980 0.394528
Si Si3 0.872485 0.896635 0.396483
Si Si4 0.844329 0.955405 0.110199
Si Si5 0.038330 0.565991 0.894616
Si Si6 0.999406 0.709272 0.357870
Si Si7 0.195741 0.385713 0.389014
O O1 0.500000 0.345034 0.750000
O O2 0.458866 0.381241 0.900557
O O3 0.596419 0.401493 0.857780
O O4 0.547291 0.274617 0.883137
O O5 0.686208 0.262671 0.500000
O O6 0.665316 0.330633 0.353498
O O7 0.581178 0.231740 0.390558
O O8 0.706757 0.191164 0.356189
O O9 0.845664 0.900604 0.500000
O O10 0.859863 0.969471 0.355423
O O11 0.763615 0.931557 0.135198
O O12 0.849909 0.955602 0.000000
O O13 0.989363 0.633592 0.891153
O O14 0.117859 0.585686 0.855761
O O15 0.000000 0.500000 0.855723
O O16 0.052402 0.551164 0.000000
O O17 0.000000 0.703425 0.250000
O O18 0.192436 0.382260 0.500000
#
# Coordination Sequence:
#
# PCOD9525667 Si02
#       7
#    16  16  16  16  16  16  16
#     4  10  20  32  47  67  95 129 163 196 232 281
#     4   8  14  28  49  67  88 123 158 186 228 289
#     4   9  17  29  47  70  93 121 158 195 233 283
#     4  10  19  30  47  72  99 124 155 201 249 287
#     4   9  17  31  53  76  96 124 161 199 241 289
#     4   9  17  29  47  69  93 121 157 198 237 277
#     4   8  15  29  48  70  95 123 155 193 241 292
#
# _framework density 20.752133000000001
#
# number of rings (size 3 to 8) (size 9 to 14) (size 15 to 20)
#    0.000    3.000    0.000    2.143    0.000    4.286 
#    0.000    1.429    0.000   33.429    0.000    0.000 
#    0.000    0.000    0.000    0.000    0.000    0.000 
#
# Total GULP energy -311803.293782 kJ/mol
# GULP energy per Si atom -5567.915960 kJ/mol
# Density = 2.070490 g / cm^3
# Si number density = 20.752133 Si / 1000 Ang^3
#
#
#
# Elastic Constant Matrix: (Units=GPa)
#
#
# Indices 1 2 3 4 5 6 
#
# 1 61.5367 78.8949 3.7734 0.0000 0.0000 0.0000
# 2 78.8949 237.3743 -0.6588 0.0000 0.0000 0.0000
# 3 3.7734 -0.6588 32.7883 0.0000 0.0000 0.0000
# 4 0.0000 0.0000 0.0000 -53.7508 0.0000 0.0000
# 5 0.0000 0.0000 0.0000 0.0000 -6.1787 0.0000
# 6 0.0000 0.0000 0.0000 0.0000 0.0000 19.6650
#
#
#
# Elastic Compliance Matrix: (Units=1/GPa)
#
#
# Indices 1 2 3 4 5 6 
#
# 1 0.028712 -0.009553 -0.003496 0.000000 0.000000 0.000000
# 2 -0.009553 0.007391 0.001248 0.000000 0.000000 0.000000
# 3 -0.003496 0.001248 0.030926 0.000000 0.000000 0.000000
# 4 0.000000 0.000000 0.000000 -0.018604 0.000000 0.000000
# 5 0.000000 0.000000 0.000000 0.000000 -0.161846 0.000000
# 6 0.000000 0.000000 0.000000 0.000000 0.000000 0.050852
#
#
# Mechanical properties :
#
#
# Convention : Reuss Voigt Hill
#
# Bulk Modulus (GPa) = 23.02689 55.07979 39.05334
# Shear Modulus (GPa) = -204.14992 8.59307 -97.77842
#
# Velocity S-wave (km/s) = -9.92920 2.03711 -6.87165
# Velocity P-wave (km/s) = 10.96958 5.66855 6.64076
#
# Compressibility (1/GPa) = 0.04342749
#
# Stress axis : x y z
#
# Youngs Moduli (GPa) = 34.82860 135.29666 32.33509
#
# Poissons Ratio (x) = 1.29243 0.11305
# Poissons Ratio (y) = 0.33270 -0.04035
# Poissons Ratio (z) = 0.12177 -0.16883
#
# Static dielectric constant tensor:
#      x y z
#    x 1.707240 0.000000 0.000000 
#    y 0.000000 1.818880 0.000000 
#    z 0.000000 0.000000 1.833010 
# 
# From -- ./inp_files/32760.got.cif
#   From: 2010.05.17/outbox.cif.g08.bks.cpg/sg72_17_cif.got.tgz:32760.got - 2010.06.03 17:03:01.
