data_PCOD9525379
_publ_section_title
;
Structure prediction by ZEFSAII (Michael W. Deem and Ramdas Pophale) SiO2 
 PCOD9525379
Probable space group: I B A M
;
_chemical_formula_sum "Si O2"
_cell_formula_units_Z 88
_cell_length_a 11.117393
_cell_length_b 14.552961
_cell_length_c 21.783468
_cell_angle_alpha 90.000000
_cell_angle_beta 90.000000
_cell_angle_gamma 90.000000
_cell_volume 3524.368783
_symmetry_space_group_name_H-M "I B A M"
_symmetry_group_IT_number 72
_symmetry_cell_setting 'orthorhombic'
loop_
_space_group_symop_operation_xyz
x,y,z
-x,-y,z
x,-y,1/2-z
-x,y,1/2-z
-x,-y,-z
x,y,-z
-x,y,1/2+z
x,-y,1/2+z
1/2+x,1/2+y,1/2+z
1/2-x,1/2-y,1/2+z
1/2+x,1/2-y,-z
1/2-x,1/2+y,-z
1/2-x,1/2-y,1/2-z
1/2+x,1/2+y,1/2-z
1/2-x,1/2+y,z
1/2+x,1/2-y,z
loop_
_atom_site_type_symbol
_atom_site_label
_atom_site_fract_x
_atom_site_fract_y
_atom_site_fract_z
Si Si1 0.500000 0.128692 0.750000
Si Si2 0.911646 0.864187 0.929081
Si Si3 0.214193 0.671332 0.329262
Si Si4 0.067485 0.645259 0.433620
Si Si5 0.946787 0.899963 0.689707
Si Si6 0.172028 0.371353 0.642457
O O1 0.589950 0.183482 0.794136
O O2 0.402795 0.085298 0.799300
O O3 0.900460 0.753972 0.935546
O O4 0.794638 0.903305 0.892288
O O5 0.020844 0.870087 0.879840
O O6 0.925583 0.898688 0.000000
O O7 0.171198 0.613689 0.388333
O O8 0.307031 0.605424 0.296835
O O9 0.284620 0.767912 0.336885
O O10 0.077173 0.603378 0.500000
O O11 0.933539 0.634376 0.408050
O O12 0.000000 0.852038 0.750000
O O13 0.000000 0.000000 0.689926
#
# Coordination Sequence:
#
# PCOD9525379 Si02
#       6
#     8  16  16  16  16  16
#     4  10  20  30  52  83 117 148 184 236 308 358
#     4  10  20  35  56  82 115 153 192 240 302 365
#     4  10  20  33  52  81 112 149 190 241 294 362
#     4   9  18  32  53  83 115 148 180 234 302 356
#     4  11  24  40  58  80 115 158 206 252 299 352
#     4  10  18  31  52  85 115 148 182 237 298 366
#
# _framework density 24.969010000000001
#
# number of rings (size 3 to 8) (size 9 to 14) (size 15 to 20)
#    0.000    2.000    1.818    2.182    1.273    1.818 
#    0.000    0.000    0.000   16.364    0.000    6.364 
#    0.000    0.000    0.000    0.000    0.000    0.000 
#
# Total GULP energy -245015.280977 kJ/mol
# GULP energy per Si atom -5568.529113 kJ/mol
# Density = 2.491218 g / cm^3
# Si number density = 24.969010 Si / 1000 Ang^3
#
#
#
# Elastic Constant Matrix: (Units=GPa)
#
#
# Indices 1 2 3 4 5 6 
#
# 1 155.5684 10.2029 58.1682 0.0000 0.0000 0.0000
# 2 10.2029 31.0299 -0.5173 0.0000 0.0000 0.0000
# 3 58.1682 -0.5173 171.9306 0.0000 0.0000 0.0000
# 4 0.0000 0.0000 0.0000 -4.7581 0.0000 0.0000
# 5 0.0000 0.0000 0.0000 0.0000 38.8714 0.0000
# 6 0.0000 0.0000 0.0000 0.0000 0.0000 -7.4191
#
#
#
# Elastic Compliance Matrix: (Units=1/GPa)
#
#
# Indices 1 2 3 4 5 6 
#
# 1 0.007552 -0.002526 -0.002563 0.000000 0.000000 0.000000
# 2 -0.002526 0.033073 0.000954 0.000000 0.000000 0.000000
# 3 -0.002563 0.000954 0.006686 0.000000 0.000000 0.000000
# 4 0.000000 0.000000 0.000000 -0.210169 0.000000 0.000000
# 5 0.000000 0.000000 0.000000 0.000000 0.025726 0.000000
# 6 0.000000 0.000000 0.000000 0.000000 0.000000 -0.134787
#
#
# Mechanical properties :
#
#
# Convention : Reuss Voigt Hill
#
# Bulk Modulus (GPa) = 25.61295 54.91517 40.26406
# Shear Modulus (GPa) = -19.94922 24.71720 2.38399
#
# Velocity S-wave (km/s) = -2.82965 3.14970 0.97819
# Velocity P-wave (km/s) = 0.62909 5.93874 4.17569
#
# Compressibility (1/GPa) = 0.03904274
#
# Stress axis : x y z
#
# Youngs Moduli (GPa) = 132.41768 30.23574 149.56294
#
# Poissons Ratio (x) = 0.07637 0.38327
# Poissons Ratio (y) = 0.33447 -0.14269
# Poissons Ratio (z) = 0.33933 -0.02885
#
# Static dielectric constant tensor:
#      x y z
#    x 1.915880 0.000000 0.000000 
#    y 0.000000 2.080970 0.000000 
#    z 0.000000 0.000000 2.205380 
# 
# From -- ./inp_files/36868.got.cif
#   From: 2010.05.17/outbox.cif.g08.bks.cpg/sg72_19_cif.got.tgz:36868.got - 2010.06.03 17:03:01.
