data_PCOD9525655
_publ_section_title
;
Structure prediction by ZEFSAII (Michael W. Deem and Ramdas Pophale) SiO2 
 PCOD9525655
Probable space group: I B A M
;
_chemical_formula_sum "Si O2"
_cell_formula_units_Z 80
_cell_length_a 25.180894
_cell_length_b 22.811190
_cell_length_c 10.134850
_cell_angle_alpha 90.000000
_cell_angle_beta 90.000000
_cell_angle_gamma 90.000000
_cell_volume 5821.520244
_symmetry_space_group_name_H-M "I B A M"
_symmetry_group_IT_number 72
_symmetry_cell_setting 'orthorhombic'
loop_
_space_group_symop_operation_xyz
x,y,z
-x,-y,z
x,-y,1/2-z
-x,y,1/2-z
-x,-y,-z
x,y,-z
-x,y,1/2+z
x,-y,1/2+z
1/2+x,1/2+y,1/2+z
1/2-x,1/2-y,1/2+z
1/2+x,1/2-y,-z
1/2-x,1/2+y,-z
1/2-x,1/2-y,1/2-z
1/2+x,1/2+y,1/2-z
1/2-x,1/2+y,z
1/2+x,1/2-y,z
loop_
_atom_site_type_symbol
_atom_site_label
_atom_site_fract_x
_atom_site_fract_y
_atom_site_fract_z
Si Si1 0.766164 0.054443 0.655173
Si Si2 0.710157 0.175021 0.350913
Si Si3 0.377188 0.615577 0.765669
Si Si4 0.426545 0.564766 0.500000
Si Si5 0.947536 0.926380 0.000000
Si Si6 0.327524 0.266123 0.346973
O O1 0.765978 0.038646 0.500000
O O2 0.724329 0.107317 0.675280
O O3 0.824175 0.080742 0.689889
O O4 0.755722 0.000000 0.750000
O O5 0.688384 0.180892 0.500000
O O6 0.675996 0.207419 0.239710
O O7 0.767723 0.207238 0.351876
O O8 0.397181 0.591050 0.626943
O O9 0.362065 0.684006 0.774721
O O10 0.422612 0.602852 0.871623
O O11 0.427798 0.494015 0.500000
O O12 0.489189 0.579075 0.500000
O O13 0.344042 0.258293 0.500000
#
# Coordination Sequence:
#
# PCOD9525655 Si02
#       6
#    16  16  16   8   8  16
#     4  10  19  30  44  63  88 114 140 176 210 246
#     4   8  16  28  42  61  83 105 134 171 207 243
#     4  11  20  32  45  63  80 107 145 185 216 254
#     4  11  24  30  48  61  76 112 145 178 231 265
#     4  11  20  38  44  57  84 106 141 188 225 263
#     4   9  16  29  44  59  81 105 133 174 213 246
#
# _framework density 13.742115
#
# number of rings (size 3 to 8) (size 9 to 14) (size 15 to 20)
#    0.000    2.200    2.000    3.600    2.800    2.400 
#    3.600    0.000    0.000    0.000    0.000    0.000 
#    0.000    0.000    0.000    0.000    0.000    6.000 
#
# Total GULP energy -222904.272214 kJ/mol
# GULP energy per Si atom -5572.606805 kJ/mol
# Density = 1.371084 g / cm^3
# Si number density = 13.742115 Si / 1000 Ang^3
#
#
#
# Elastic Constant Matrix: (Units=GPa)
#
#
# Indices 1 2 3 4 5 6 
#
# 1 30.7699 27.4883 28.5339 0.0000 0.0000 0.0000
# 2 27.4883 88.4048 63.7446 0.0000 0.0000 0.0000
# 3 28.5339 63.7446 113.9394 0.0000 0.0000 0.0000
# 4 0.0000 0.0000 0.0000 30.3045 0.0000 0.0000
# 5 0.0000 0.0000 0.0000 0.0000 9.8742 0.0000
# 6 0.0000 0.0000 0.0000 0.0000 0.0000 19.3919
#
#
#
# Elastic Compliance Matrix: (Units=1/GPa)
#
#
# Indices 1 2 3 4 5 6 
#
# 1 0.047380 -0.010353 -0.006073 0.000000 0.000000 0.000000
# 2 -0.010353 0.021222 -0.009280 0.000000 0.000000 0.000000
# 3 -0.006073 -0.009280 0.015490 0.000000 0.000000 0.000000
# 4 0.000000 0.000000 0.000000 0.032998 0.000000 0.000000
# 5 0.000000 0.000000 0.000000 0.000000 0.101274 0.000000
# 6 0.000000 0.000000 0.000000 0.000000 0.000000 0.051568
#
#
# Mechanical properties :
#
#
# Convention : Reuss Voigt Hill
#
# Bulk Modulus (GPa) = 30.60101 52.51640 41.55871
# Shear Modulus (GPa) = 15.04940 19.47060 17.26000
#
# Velocity S-wave (km/s) = 3.31286 3.76820 3.54784
# Velocity P-wave (km/s) = 6.07864 7.56512 6.86225
#
# Compressibility (1/GPa) = 0.03267866
#
# Stress axis : x y z
#
# Youngs Moduli (GPa) = 21.10585 47.12003 64.55969
#
# Poissons Ratio (x) = 0.48784 0.39209
# Poissons Ratio (y) = 0.21851 0.59914
# Poissons Ratio (z) = 0.12818 0.43729
#
# Static dielectric constant tensor:
#      x y z
#    x 1.427350 0.000000 0.000000 
#    y 0.000000 1.453550 0.000000 
#    z 0.000000 0.000000 1.375530 
# 
# From -- ./inp_files/5907.got.cif
#   From: 2010.05.17/outbox.cif.g08.bks.cpg/sg72_3_cif.got.tgz:5907.got - 2010.06.03 17:03:01.
