data_PCOD9525172
_publ_section_title
;
Structure prediction by ZEFSAII (Michael W. Deem and Ramdas Pophale) SiO2 
 PCOD9525172
Probable space group: I B A M
;
_chemical_formula_sum "Si O2"
_cell_formula_units_Z 96
_cell_length_a 24.754510
_cell_length_b 30.881621
_cell_length_c 8.744854
_cell_angle_alpha 90.000000
_cell_angle_beta 90.000000
_cell_angle_gamma 90.000000
_cell_volume 6685.085806
_symmetry_space_group_name_H-M "I B A M"
_symmetry_group_IT_number 72
_symmetry_cell_setting 'orthorhombic'
loop_
_space_group_symop_operation_xyz
x,y,z
-x,-y,z
x,-y,1/2-z
-x,y,1/2-z
-x,-y,-z
x,y,-z
-x,y,1/2+z
x,-y,1/2+z
1/2+x,1/2+y,1/2+z
1/2-x,1/2-y,1/2+z
1/2+x,1/2-y,-z
1/2-x,1/2+y,-z
1/2-x,1/2-y,1/2-z
1/2+x,1/2+y,1/2-z
1/2-x,1/2+y,z
1/2+x,1/2-y,z
loop_
_atom_site_type_symbol
_atom_site_label
_atom_site_fract_x
_atom_site_fract_y
_atom_site_fract_z
Si Si1 0.558451 0.451999 0.317389
Si Si2 0.557019 0.780791 0.819665
Si Si3 0.170799 0.278639 0.183342
Si Si4 0.550610 0.312452 0.174246
Si Si5 0.640686 0.385243 0.824529
Si Si6 0.219811 0.185385 0.185428
O O1 0.567420 0.500000 0.250000
O O2 0.500000 0.437713 0.250000
O O3 0.554131 0.453413 0.500000
O O4 0.608327 0.421552 0.267720
O O5 0.500000 0.797179 0.750000
O O6 0.613851 0.795550 0.747861
O O7 0.558343 0.729748 0.776778
O O8 0.556956 0.787331 0.000000
O O9 0.184229 0.228250 0.227640
O O10 0.221320 0.305663 0.246607
O O11 0.168970 0.279618 0.000000
O O12 0.500000 0.336167 0.250000
O O13 0.599965 0.344573 0.169924
O O14 0.539764 0.298217 0.000000
O O15 0.694085 0.360540 0.764653
O O16 0.649296 0.400238 0.000000
O O17 0.221717 0.184763 0.000000
#
# Coordination Sequence:
#
# PCOD9525172 Si02
#       6
#    16  16  16  16  16  16
#     4  11  22  36  52  68  87 113 145 181 230 279
#     4  11  20  29  42  58  79 107 140 177 217 257
#     4  10  18  31  45  61  84 111 143 178 217 260
#     4  10  18  28  39  56  79 104 132 171 216 256
#     4  10  19  32  47  64  86 108 139 178 218 264
#     4   9  18  31  45  62  84 112 141 175 217 259
#
# _framework density 14.360325
#
# number of rings (size 3 to 8) (size 9 to 14) (size 15 to 20)
#    0.000    1.833    1.667    6.000    0.000    4.000 
#    0.000    0.000    0.000    0.000    0.000    0.000 
#    0.000    0.000    0.000    0.000    0.000    0.833 
#
# Total GULP energy -267430.041810 kJ/mol
# GULP energy per Si atom -5571.459204 kJ/mol
# Density = 1.432764 g / cm^3
# Si number density = 14.360325 Si / 1000 Ang^3
#
#
#
# Elastic Constant Matrix: (Units=GPa)
#
#
# Indices 1 2 3 4 5 6 
#
# 1 118.6217 33.7037 43.0671 0.0000 0.0000 0.0000
# 2 33.7037 52.0105 25.1345 0.0000 0.0000 0.0000
# 3 43.0671 25.1345 78.0760 0.0000 0.0000 0.0000
# 4 0.0000 0.0000 0.0000 12.9490 0.0000 0.0000
# 5 0.0000 0.0000 0.0000 0.0000 20.4712 0.0000
# 6 0.0000 0.0000 0.0000 0.0000 0.0000 22.4629
#
#
#
# Elastic Compliance Matrix: (Units=1/GPa)
#
#
# Indices 1 2 3 4 5 6 
#
# 1 0.011641 -0.005259 -0.004728 0.000000 0.000000 0.000000
# 2 -0.005259 0.025145 -0.005194 0.000000 0.000000 0.000000
# 3 -0.004728 -0.005194 0.017088 0.000000 0.000000 0.000000
# 4 0.000000 0.000000 0.000000 0.077226 0.000000 0.000000
# 5 0.000000 0.000000 0.000000 0.000000 0.048849 0.000000
# 6 0.000000 0.000000 0.000000 0.000000 0.000000 0.044518
#
#
# Mechanical properties :
#
#
# Convention : Reuss Voigt Hill
#
# Bulk Modulus (GPa) = 42.53141 50.27986 46.40564
# Shear Modulus (GPa) = 19.03559 20.96348 19.99953
#
# Velocity S-wave (km/s) = 3.64479 3.82490 3.73593
# Velocity P-wave (km/s) = 6.88435 7.38888 7.14107
#
# Compressibility (1/GPa) = 0.02351203
#
# Stress axis : x y z
#
# Youngs Moduli (GPa) = 85.90364 39.77002 58.51957
#
# Poissons Ratio (x) = 0.20913 0.27670
# Poissons Ratio (y) = 0.45173 0.30395
# Poissons Ratio (z) = 0.40618 0.20657
#
# Static dielectric constant tensor:
#      x y z
#    x 1.544660 0.000000 0.000000 
#    y 0.000000 1.464400 0.000000 
#    z 0.000000 0.000000 1.501490 
# 
# From -- ./inp_files/7080.got.cif
#   From: 2010.05.17/outbox.cif.g08.bks.cpg/sg72_4_cif.got.tgz:7080.got - 2010.06.03 17:03:01.
