data_PCOD9525608
_publ_section_title
;
Structure prediction by ZEFSAII (Michael W. Deem and Ramdas Pophale) SiO2 
 PCOD9525608
Probable space group: I B A M
;
_chemical_formula_sum "Si O2"
_cell_formula_units_Z 64
_cell_length_a 5.548146
_cell_length_b 18.185090
_cell_length_c 28.250674
_cell_angle_alpha 90.000000
_cell_angle_beta 90.000000
_cell_angle_gamma 90.000000
_cell_volume 2850.310347
_symmetry_space_group_name_H-M "I B A M"
_symmetry_group_IT_number 72
_symmetry_cell_setting 'orthorhombic'
loop_
_space_group_symop_operation_xyz
x,y,z
-x,-y,z
x,-y,1/2-z
-x,y,1/2-z
-x,-y,-z
x,y,-z
-x,y,1/2+z
x,-y,1/2+z
1/2+x,1/2+y,1/2+z
1/2-x,1/2-y,1/2+z
1/2+x,1/2-y,-z
1/2-x,1/2+y,-z
1/2-x,1/2-y,1/2-z
1/2+x,1/2+y,1/2-z
1/2-x,1/2+y,z
1/2+x,1/2-y,z
loop_
_atom_site_type_symbol
_atom_site_label
_atom_site_fract_x
_atom_site_fract_y
_atom_site_fract_z
Si Si1 0.000000 0.500000 0.000000
Si Si2 0.848819 0.073320 0.177952
Si Si3 0.022033 0.774581 0.695842
Si Si4 0.838860 0.075668 0.930259
Si Si5 0.487475 0.701795 0.500000
Si Si6 0.500000 0.000000 0.750000
O O1 0.898860 0.556527 0.959296
O O2 0.016949 0.138227 0.196135
O O3 0.776322 0.089935 0.124174
O O4 0.643596 0.054384 0.215172
O O5 0.000000 0.000000 0.175315
O O6 0.768250 0.752022 0.673084
O O7 0.000000 0.745303 0.750000
O O8 0.969689 0.144840 0.955296
O O9 0.000000 0.000000 0.935475
O O10 0.741259 0.747493 0.500000
#
# Coordination Sequence:
#
# PCOD9525608 Si02
#       6
#     4  16  16  16   8   4
#     4  10  18  40  68  92 120 166 226 276 330 430
#     4  11  25  43  66 101 138 183 241 297 347 415
#     4  10  23  41  65  92 131 183 230 282 346 410
#     4  10  24  43  71 100 137 188 234 283 356 432
#     4  11  26  45  74 108 146 181 228 299 367 427
#     4  12  24  40  68 100 136 184 242 308 346 394
#
# _framework density 22.453696000000001
#
# number of rings (size 3 to 8) (size 9 to 14) (size 15 to 20)
#    0.000    1.500    0.000    4.125   15.750    2.000 
#    0.000    0.000    0.000    0.000    0.000    0.000 
#    0.000    0.000    0.000    0.000    0.000    0.000 
#
# Total GULP energy -178149.942652 kJ/mol
# GULP energy per Si atom -5567.185708 kJ/mol
# Density = 2.240259 g / cm^3
# Si number density = 22.453696 Si / 1000 Ang^3
#
#
#
# Elastic Constant Matrix: (Units=GPa)
#
#
# Indices 1 2 3 4 5 6 
#
# 1 108.1537 45.7114 33.4401 0.0000 0.0000 0.0000
# 2 45.7114 128.1044 24.5215 0.0000 0.0000 0.0000
# 3 33.4401 24.5215 162.6703 0.0000 0.0000 0.0000
# 4 0.0000 0.0000 0.0000 54.8300 0.0000 0.0000
# 5 0.0000 0.0000 0.0000 0.0000 -3.2274 0.0000
# 6 0.0000 0.0000 0.0000 0.0000 0.0000 48.9254
#
#
#
# Elastic Compliance Matrix: (Units=1/GPa)
#
#
# Indices 1 2 3 4 5 6 
#
# 1 0.011366 -0.003716 -0.001776 0.000000 0.000000 0.000000
# 2 -0.003716 0.009253 -0.000631 0.000000 0.000000 0.000000
# 3 -0.001776 -0.000631 0.006608 0.000000 0.000000 0.000000
# 4 0.000000 0.000000 0.000000 0.018238 0.000000 0.000000
# 5 0.000000 0.000000 0.000000 0.000000 -0.309842 0.000000
# 6 0.000000 0.000000 0.000000 0.000000 0.000000 0.020439
#
#
# Mechanical properties :
#
#
# Convention : Reuss Voigt Hill
#
# Bulk Modulus (GPa) = 66.75429 67.36383 67.05906
# Shear Modulus (GPa) = -22.05565 39.78929 8.86682
#
# Velocity S-wave (km/s) = -3.13752 4.21415 1.98935
# Velocity P-wave (km/s) = 4.08276 7.33111 5.93355
#
# Compressibility (1/GPa) = 0.01498031
#
# Stress axis : x y z
#
# Youngs Moduli (GPa) = 87.98368 108.07591 151.33897
#
# Poissons Ratio (x) = 0.40157 0.26883
# Poissons Ratio (y) = 0.32691 0.09549
# Poissons Ratio (z) = 0.15629 0.06819
#
# Static dielectric constant tensor:
#      x y z
#    x 1.913810 0.000000 0.000000 
#    y 0.000000 1.832370 0.000000 
#    z 0.000000 0.000000 1.862040 
# 
# From -- ./inp_files/50183.got.cif
#   From: 2010.05.17/outbox.cif.g08.bks.cpg/sg72_26_cif.got.tgz:50183.got - 2010.06.03 17:03:01.
