data_PCOD9525507
_publ_section_title
;
Structure prediction by ZEFSAII (Michael W. Deem and Ramdas Pophale) SiO2 
 PCOD9525507
Probable space group: I B A M
;
_chemical_formula_sum "Si O2"
_cell_formula_units_Z 112
_cell_length_a 11.953795
_cell_length_b 30.648145
_cell_length_c 17.554396
_cell_angle_alpha 90.000000
_cell_angle_beta 90.000000
_cell_angle_gamma 90.000000
_cell_volume 6431.257351
_symmetry_space_group_name_H-M "I B A M"
_symmetry_group_IT_number 72
_symmetry_cell_setting 'orthorhombic'
loop_
_space_group_symop_operation_xyz
x,y,z
-x,-y,z
x,-y,1/2-z
-x,y,1/2-z
-x,-y,-z
x,y,-z
-x,y,1/2+z
x,-y,1/2+z
1/2+x,1/2+y,1/2+z
1/2-x,1/2-y,1/2+z
1/2+x,1/2-y,-z
1/2-x,1/2+y,-z
1/2-x,1/2-y,1/2-z
1/2+x,1/2+y,1/2-z
1/2-x,1/2+y,z
1/2+x,1/2-y,z
loop_
_atom_site_type_symbol
_atom_site_label
_atom_site_fract_x
_atom_site_fract_y
_atom_site_fract_z
Si Si1 0.352873 0.899168 0.913077
Si Si2 0.023941 0.668746 0.840604
Si Si3 0.814320 0.169910 0.852858
Si Si4 0.565536 0.665714 0.589943
Si Si5 0.633167 0.950123 0.265216
Si Si6 0.754011 0.868419 0.811208
Si Si7 0.361888 0.763619 0.090320
O O1 0.454896 0.869130 0.883169
O O2 0.246260 0.867548 0.902894
O O3 0.344460 0.937996 0.852983
O O4 0.367765 0.912097 0.000000
O O5 0.154207 0.659408 0.849417
O O6 0.000000 0.666412 0.750000
O O7 0.970671 0.712897 0.873313
O O8 0.792157 0.156155 0.765855
O O9 0.746407 0.214064 0.871733
O O10 0.943569 0.170988 0.873433
O O11 0.555105 0.657380 0.500000
O O12 0.640824 0.630125 0.632866
O O13 0.627515 0.712188 0.600503
O O14 0.500000 0.945219 0.250000
O O15 0.699899 0.914394 0.215070
O O16 0.664343 0.000000 0.250000
O O17 0.359513 0.773275 0.000000
#
# Coordination Sequence:
#
# PCOD9525507 Si02
#       7
#    16  16  16  16  16  16  16
#     4  10  18  33  60  84 109 152 190 224 278 347
#     4  11  17  34  55  81 111 145 189 232 283 333
#     4  10  20  39  57  75 108 150 200 232 275 342
#     4  11  25  38  52  80 115 153 194 244 291 327
#     4  10  19  38  62  86 120 149 177 233 293 357
#     4  11  21  37  58  85 109 150 188 233 295 345
#     4  10  22  36  54  76 108 154 197 241 285 330
#
# _framework density 17.414946
#
# number of rings (size 3 to 8) (size 9 to 14) (size 15 to 20)
#    0.000    1.571    5.714    3.000    2.000    2.857 
#    0.000    2.143    0.000    6.857    0.000    5.000 
#    0.000    0.000    0.000    0.000    0.000    0.000 
#
# Total GULP energy -312581.311751 kJ/mol
# GULP energy per Si atom -5581.809138 kJ/mol
# Density = 1.737531 g / cm^3
# Si number density = 17.414946 Si / 1000 Ang^3
#
#
#
# Elastic Constant Matrix: (Units=GPa)
#
#
# Indices 1 2 3 4 5 6 
#
# 1 118.4697 32.7502 27.9133 -0.0001 0.0000 0.0000
# 2 32.7502 68.5899 40.2652 -0.0001 0.0000 0.0000
# 3 27.9133 40.2652 42.3384 -0.0004 0.0001 0.0000
# 4 -0.0001 -0.0001 -0.0004 16.5437 0.0000 0.0000
# 5 0.0000 0.0000 0.0001 0.0000 17.1680 0.0000
# 6 0.0000 0.0000 0.0000 0.0000 0.0000 15.3969
#
#
#
# Elastic Compliance Matrix: (Units=1/GPa)
#
#
# Indices 1 2 3 4 5 6 
#
# 1 0.010122 -0.002073 -0.004702 0.000000 0.000000 0.000000
# 2 -0.002073 0.033432 -0.030428 -0.000001 0.000000 0.000000
# 3 -0.004702 -0.030428 0.055657 0.000001 0.000000 0.000000
# 4 0.000000 -0.000001 0.000001 0.060446 0.000000 0.000000
# 5 0.000000 0.000000 0.000000 0.000000 0.058248 0.000000
# 6 0.000000 0.000000 0.000000 0.000000 0.000000 0.064948
#
#
# Mechanical properties :
#
#
# Convention : Reuss Voigt Hill
#
# Bulk Modulus (GPa) = 40.31414 47.91727 44.11571
# Shear Modulus (GPa) = 13.67890 18.38636 16.03263
#
# Velocity S-wave (km/s) = 2.80566 3.25280 3.03747
# Velocity P-wave (km/s) = 5.80475 6.45619 6.13911
#
# Compressibility (1/GPa) = 0.02480519
#
# Stress axis : x y z
#
# Youngs Moduli (GPa) = 98.79645 29.91181 17.96709
#
# Poissons Ratio (x) = 0.06200 0.08448
# Poissons Ratio (y) = 0.20477 0.54670
# Poissons Ratio (z) = 0.46455 0.91016
#
# Static dielectric constant tensor:
#      x y z
#    x 1.601030 0.000000 0.000000 
#    y 0.000000 1.588500 0.000000 
#    z 0.000000 0.000000 1.598190 
# 
# From -- ./inp_files/20719.got.cif
#   From: 2010.05.17/outbox.cif.g08.bks.cpg/sg72_11_cif.got.tgz:20719.got - 2010.06.03 17:03:01.
