data_PCOD9525350
_publ_section_title
;
Structure prediction by ZEFSAII (Michael W. Deem and Ramdas Pophale) SiO2 
 PCOD9525350
Probable space group: I B A M
;
_chemical_formula_sum "Si O2"
_cell_formula_units_Z 80
_cell_length_a 8.887699
_cell_length_b 30.561704
_cell_length_c 16.068866
_cell_angle_alpha 90.000000
_cell_angle_beta 90.000000
_cell_angle_gamma 90.000000
_cell_volume 4364.677222
_symmetry_space_group_name_H-M "I B A M"
_symmetry_group_IT_number 72
_symmetry_cell_setting 'orthorhombic'
loop_
_space_group_symop_operation_xyz
x,y,z
-x,-y,z
x,-y,1/2-z
-x,y,1/2-z
-x,-y,-z
x,y,-z
-x,y,1/2+z
x,-y,1/2+z
1/2+x,1/2+y,1/2+z
1/2-x,1/2-y,1/2+z
1/2+x,1/2-y,-z
1/2-x,1/2+y,-z
1/2-x,1/2-y,1/2-z
1/2+x,1/2+y,1/2-z
1/2-x,1/2+y,z
1/2+x,1/2-y,z
loop_
_atom_site_type_symbol
_atom_site_label
_atom_site_fract_x
_atom_site_fract_y
_atom_site_fract_z
Si Si1 0.182511 0.049080 0.256378
Si Si2 0.302232 0.210302 0.898592
Si Si3 0.350742 0.199501 0.601055
Si Si4 0.196741 0.109984 0.405491
Si Si5 0.393513 0.631093 0.168843
O O1 0.225538 0.069702 0.344710
O O2 0.208612 0.088423 0.190222
O O3 0.000000 0.045473 0.250000
O O4 0.243772 0.000000 0.250000
O O5 0.475994 0.204452 0.874944
O O6 0.243307 0.258098 0.872511
O O7 0.202172 0.172523 0.857968
O O8 0.290595 0.207370 0.000000
O O9 0.344551 0.199197 0.500000
O O10 0.279483 0.153575 0.627496
O O11 0.242553 0.101829 0.500000
O O12 0.018076 0.119443 0.400226
O O13 0.500000 0.639564 0.250000
#
# Coordination Sequence:
#
# PCOD9525350 Si02
#       5
#    16  16  16  16  16
#     4   8  16  32  49  69  99 125 152 200 249 283
#     4  10  18  31  49  70  98 131 162 196 236 283
#     4   9  18  30  49  73  97 125 161 200 236 276
#     4   9  16  30  51  73  94 125 164 199 234 281
#     4   9  18  31  47  70  99 129 159 198 240 282
#
# _framework density 18.328962000000001
#
# number of rings (size 3 to 8) (size 9 to 14) (size 15 to 20)
#    0.000    3.400    0.000    1.800    0.000    3.200 
#    0.000   22.000    0.000    2.400    0.000    4.200 
#    0.000    0.000    0.000    0.000    0.000    0.000 
#
# Total GULP energy -222755.968071 kJ/mol
# GULP energy per Si atom -5568.899202 kJ/mol
# Density = 1.828724 g / cm^3
# Si number density = 18.328962 Si / 1000 Ang^3
#
#
#
# Elastic Constant Matrix: (Units=GPa)
#
#
# Indices 1 2 3 4 5 6 
#
# 1 57.6740 57.9929 25.1225 0.0000 0.0000 0.0000
# 2 57.9929 196.4776 59.0572 0.0000 0.0000 0.0000
# 3 25.1225 59.0572 45.7281 0.0002 -0.0001 0.0000
# 4 0.0000 0.0000 0.0002 19.9933 0.0000 0.0000
# 5 0.0000 0.0000 -0.0001 0.0000 13.2231 0.0000
# 6 0.0000 0.0000 0.0000 0.0000 0.0000 10.8757
#
#
#
# Elastic Compliance Matrix: (Units=1/GPa)
#
#
# Indices 1 2 3 4 5 6 
#
# 1 0.026013 -0.005529 -0.007151 0.000000 0.000000 0.000000
# 2 -0.005529 0.009494 -0.009224 0.000000 0.000000 0.000000
# 3 -0.007151 -0.009224 0.037710 0.000000 0.000000 0.000000
# 4 0.000000 0.000000 0.000000 0.050017 0.000000 0.000000
# 5 0.000000 0.000000 0.000000 0.000000 0.075625 0.000000
# 6 0.000000 0.000000 0.000000 0.000000 0.000000 0.091948
#
#
# Mechanical properties :
#
#
# Convention : Reuss Voigt Hill
#
# Bulk Modulus (GPa) = 34.00285 64.91386 49.45836
# Shear Modulus (GPa) = 14.51723 19.33222 16.92473
#
# Velocity S-wave (km/s) = 2.81737 3.25119 3.04203
# Velocity P-wave (km/s) = 5.40140 7.04177 6.27542
#
# Compressibility (1/GPa) = 0.02940930
#
# Stress axis : x y z
#
# Youngs Moduli (GPa) = 38.44230 105.32931 26.51818
#
# Poissons Ratio (x) = 0.58232 0.18964
# Poissons Ratio (y) = 0.21253 0.24461
# Poissons Ratio (z) = 0.27491 0.97157
#
# Static dielectric constant tensor:
#      x y z
#    x 1.632120 0.000000 0.000000 
#    y 0.000000 1.640040 0.000000 
#    z 0.000000 0.000000 1.674230 
# 
# From -- ./inp_files/28139.got.cif
#   From: 2010.05.17/outbox.cif.g08.bks.cpg/sg72_15_cif.got.tgz:28139.got - 2010.06.03 17:03:01.
