data_PCOD9525972
_publ_section_title
;
Structure prediction by ZEFSAII (Michael W. Deem and Ramdas Pophale) SiO2 
 PCOD9525972
Probable space group: I B A M
;
_chemical_formula_sum "Si O2"
_cell_formula_units_Z 72
_cell_length_a 26.511435
_cell_length_b 17.268790
_cell_length_c 7.835501
_cell_angle_alpha 90.000000
_cell_angle_beta 90.000000
_cell_angle_gamma 90.000000
_cell_volume 3587.252230
_symmetry_space_group_name_H-M "I B A M"
_symmetry_group_IT_number 72
_symmetry_cell_setting 'orthorhombic'
loop_
_space_group_symop_operation_xyz
x,y,z
-x,-y,z
x,-y,1/2-z
-x,y,1/2-z
-x,-y,-z
x,y,-z
-x,y,1/2+z
x,-y,1/2+z
1/2+x,1/2+y,1/2+z
1/2-x,1/2-y,1/2+z
1/2+x,1/2-y,-z
1/2-x,1/2+y,-z
1/2-x,1/2-y,1/2-z
1/2+x,1/2+y,1/2-z
1/2-x,1/2+y,z
1/2+x,1/2-y,z
loop_
_atom_site_type_symbol
_atom_site_label
_atom_site_fract_x
_atom_site_fract_y
_atom_site_fract_z
Si Si1 0.703549 0.620475 0.700543
Si Si2 0.633282 0.758806 0.295670
Si Si3 0.127656 0.000000 0.250000
Si Si4 0.181929 0.412468 0.204020
Si Si5 0.942180 0.129832 0.802152
O O1 0.691862 0.603674 0.500000
O O2 0.683342 0.706572 0.736029
O O3 0.669582 0.562416 0.812744
O O4 0.762079 0.606252 0.728712
O O5 0.625456 0.760451 0.500000
O O6 0.644177 0.845378 0.233921
O O7 0.587079 0.710817 0.218673
O O8 0.087455 0.065413 0.191593
O O9 0.168051 0.500000 0.250000
O O10 0.184522 0.406544 0.000000
O O11 0.000000 0.135664 0.750000
O O12 0.938049 0.104558 0.000000
#
# Coordination Sequence:
#
# PCOD9525972 Si02
#       5
#    16  16   8  16  16
#     4  10  19  33  53  78 112 149 187 228 270 325
#     4   9  21  39  56  78 109 145 187 235 283 331
#     4  10  21  34  54  84 118 154 189 222 268 326
#     4  11  22  35  54  80 112 148 186 230 280 334
#     4  11  23  38  59  84 112 149 191 235 283 334
#
# _framework density 20.071072000000001
#
# number of rings (size 3 to 8) (size 9 to 14) (size 15 to 20)
#    0.000    1.778    1.111    3.000    0.000    8.889 
#    0.000    0.000    0.000    0.667    0.000    4.667 
#    0.000    0.000    0.000    0.000    0.000    0.000 
#
# Total GULP energy -200514.908985 kJ/mol
# GULP energy per Si atom -5569.858583 kJ/mol
# Density = 2.002539 g / cm^3
# Si number density = 20.071072 Si / 1000 Ang^3
#
#
#
# Elastic Constant Matrix: (Units=GPa)
#
#
# Indices 1 2 3 4 5 6 
#
# 1 102.6235 53.2377 16.1302 0.0000 0.0000 0.0000
# 2 53.2377 141.9534 25.6737 0.0000 0.0000 0.0000
# 3 16.1302 25.6737 83.6814 0.0000 0.0000 0.0000
# 4 0.0000 0.0000 0.0000 1.9135 0.0000 0.0000
# 5 0.0000 0.0000 0.0000 0.0000 14.0072 0.0000
# 6 0.0000 0.0000 0.0000 0.0000 0.0000 14.8266
#
#
#
# Elastic Compliance Matrix: (Units=1/GPa)
#
#
# Indices 1 2 3 4 5 6 
#
# 1 0.012177 -0.004386 -0.001002 0.000000 0.000000 0.000000
# 2 -0.004386 0.009038 -0.001928 0.000000 0.000000 0.000000
# 3 -0.001002 -0.001928 0.012735 0.000000 0.000000 0.000000
# 4 0.000000 0.000000 0.000000 0.522594 0.000000 0.000000
# 5 0.000000 0.000000 0.000000 0.000000 0.071392 0.000000
# 6 0.000000 0.000000 0.000000 0.000000 0.000000 0.067447
#
#
# Mechanical properties :
#
#
# Convention : Reuss Voigt Hill
#
# Bulk Modulus (GPa) = 51.76038 57.59349 54.67694
# Shear Modulus (GPa) = 6.97884 21.69723 14.33803
#
# Velocity S-wave (km/s) = 1.86671 3.29145 2.67566
# Velocity P-wave (km/s) = 5.52184 6.57282 6.07012
#
# Compressibility (1/GPa) = 0.01931980
#
# Stress axis : x y z
#
# Youngs Moduli (GPa) = 82.12260 110.64457 78.52662
#
# Poissons Ratio (x) = 0.48525 0.07866
# Poissons Ratio (y) = 0.36016 0.15136
# Poissons Ratio (z) = 0.08226 0.21327
#
# Static dielectric constant tensor:
#      x y z
#    x 1.662720 0.000000 0.000000 
#    y 0.000000 1.726370 0.000000 
#    z 0.000000 0.000000 1.860320 
# 
# From -- ./inp_files/3683.got.cif
#   From: 2010.05.17/outbox.cif.g08.bks.cpg/sg72_2_cif.got.tgz:3683.got - 2010.06.03 17:03:01.
