data_PCOD9525979
_publ_section_title
;
Structure prediction by ZEFSAII (Michael W. Deem and Ramdas Pophale) SiO2 
 PCOD9525979
Probable space group: I B A M
;
_chemical_formula_sum "Si O2"
_cell_formula_units_Z 96
_cell_length_a 9.341464
_cell_length_b 20.268777
_cell_length_c 26.819407
_cell_angle_alpha 90.000000
_cell_angle_beta 90.000000
_cell_angle_gamma 90.000000
_cell_volume 5077.987880
_symmetry_space_group_name_H-M "I B A M"
_symmetry_group_IT_number 72
_symmetry_cell_setting 'orthorhombic'
loop_
_space_group_symop_operation_xyz
x,y,z
-x,-y,z
x,-y,1/2-z
-x,y,1/2-z
-x,-y,-z
x,y,-z
-x,y,1/2+z
x,-y,1/2+z
1/2+x,1/2+y,1/2+z
1/2-x,1/2-y,1/2+z
1/2+x,1/2-y,-z
1/2-x,1/2+y,-z
1/2-x,1/2-y,1/2-z
1/2+x,1/2+y,1/2-z
1/2-x,1/2+y,z
1/2+x,1/2-y,z
loop_
_atom_site_type_symbol
_atom_site_label
_atom_site_fract_x
_atom_site_fract_y
_atom_site_fract_z
Si Si1 0.316656 0.640314 0.301940
Si Si2 0.626725 0.552995 0.054959
Si Si3 0.560617 0.704269 0.942567
Si Si4 0.835795 0.143423 0.688648
Si Si5 0.187165 0.739205 0.381020
Si Si6 0.326076 0.497231 0.842683
O O1 0.292245 0.660907 0.245017
O O2 0.488674 0.647032 0.312345
O O3 0.224138 0.680835 0.342125
O O4 0.284505 0.562450 0.306682
O O5 0.500000 0.500000 0.050911
O O6 0.559024 0.624934 0.066521
O O7 0.717244 0.526834 0.101772
O O8 0.696249 0.558029 0.000000
O O9 0.720492 0.725922 0.930108
O O10 0.468256 0.745263 0.903022
O O11 0.521221 0.715422 0.000000
O O12 0.774719 0.195082 0.649512
O O13 0.785221 0.070096 0.674037
O O14 0.500000 0.500000 0.842767
#
# Coordination Sequence:
#
# PCOD9525979 Si02
#       6
#    16  16  16  16  16  16
#     4  10  19  33  53  82 112 147 184 229 278 325
#     4   9  16  29  51  80 107 135 175 229 281 321
#     4  11  23  37  57  83 112 146 183 228 281 335
#     4  10  20  32  54  82 114 144 184 229 280 325
#     4  12  20  38  53  83 112 147 183 228 274 330
#     4   9  15  30  50  79 111 139 175 232 282 321
#
# _framework density 18.905125999999999
#
# number of rings (size 3 to 8) (size 9 to 14) (size 15 to 20)
#    0.000    1.833    3.333    3.500    0.000    2.000 
#    0.000    0.833    0.000    1.000    0.000    3.500 
#    0.000    0.000    0.000    0.000    0.000    0.000 
#
# Total GULP energy -267291.822697 kJ/mol
# GULP energy per Si atom -5568.579640 kJ/mol
# Density = 1.886210 g / cm^3
# Si number density = 18.905126 Si / 1000 Ang^3
#
#
#
# Elastic Constant Matrix: (Units=GPa)
#
#
# Indices 1 2 3 4 5 6 
#
# 1 10.8452 13.3482 0.3981 0.0000 0.0000 0.0000
# 2 13.3482 101.7091 12.5582 0.0000 0.0000 0.0000
# 3 0.3981 12.5582 90.5018 0.0000 0.0000 0.0000
# 4 0.0000 0.0000 0.0000 111.8933 0.0000 0.0000
# 5 0.0000 0.0000 0.0000 0.0000 11.5155 0.0000
# 6 0.0000 0.0000 0.0000 0.0000 0.0000 13.2269
#
#
#
# Elastic Compliance Matrix: (Units=1/GPa)
#
#
# Indices 1 2 3 4 5 6 
#
# 1 0.110183 -0.014652 0.001548 0.000000 0.000000 0.000000
# 2 -0.014652 0.011952 -0.001594 0.000000 0.000000 0.000000
# 3 0.001548 -0.001594 0.011264 0.000000 0.000000 0.000000
# 4 0.000000 0.000000 0.000000 0.008937 0.000000 0.000000
# 5 0.000000 0.000000 0.000000 0.000000 0.086840 0.000000
# 6 0.000000 0.000000 0.000000 0.000000 0.000000 0.075603
#
#
# Mechanical properties :
#
#
# Convention : Reuss Voigt Hill
#
# Bulk Modulus (GPa) = 9.61496 28.40721 19.01109
# Shear Modulus (GPa) = 13.55597 39.11059 26.33328
#
# Velocity S-wave (km/s) = 2.68069 4.55332 3.73623
# Velocity P-wave (km/s) = 3.83124 6.53471 5.35634
#
# Compressibility (1/GPa) = 0.10400462
#
# Stress axis : x y z
#
# Youngs Moduli (GPa) = 9.07579 83.67062 88.77938
#
# Poissons Ratio (x) = 1.22590 -0.13747
# Poissons Ratio (y) = 0.13297 0.14151
# Poissons Ratio (z) = -0.01405 0.13337
#
# Static dielectric constant tensor:
#      x y z
#    x 1.660760 0.000000 0.000000 
#    y 0.000000 1.655610 0.000000 
#    z 0.000000 0.000000 1.725090 
# 
# From -- ./inp_files/48112.got.cif
#   From: 2010.05.17/outbox.cif.g08.bks.cpg/sg72_25_cif.got.tgz:48112.got - 2010.06.03 17:03:01.
