data_PCOD9525773
_publ_section_title
;
Structure prediction by ZEFSAII (Michael W. Deem and Ramdas Pophale) SiO2 
 PCOD9525773
Probable space group: I B A M
;
_chemical_formula_sum "Si O2"
_cell_formula_units_Z 64
_cell_length_a 20.273176
_cell_length_b 21.253032
_cell_length_c 8.604631
_cell_angle_alpha 90.000000
_cell_angle_beta 90.000000
_cell_angle_gamma 90.000000
_cell_volume 3707.446884
_symmetry_space_group_name_H-M "I B A M"
_symmetry_group_IT_number 72
_symmetry_cell_setting 'orthorhombic'
loop_
_space_group_symop_operation_xyz
x,y,z
-x,-y,z
x,-y,1/2-z
-x,y,1/2-z
-x,-y,-z
x,y,-z
-x,y,1/2+z
x,-y,1/2+z
1/2+x,1/2+y,1/2+z
1/2-x,1/2-y,1/2+z
1/2+x,1/2-y,-z
1/2-x,1/2+y,-z
1/2-x,1/2-y,1/2-z
1/2+x,1/2+y,1/2-z
1/2-x,1/2+y,z
1/2+x,1/2-y,z
loop_
_atom_site_type_symbol
_atom_site_label
_atom_site_fract_x
_atom_site_fract_y
_atom_site_fract_z
Si Si1 0.710116 0.567300 0.687425
Si Si2 0.430451 0.761776 0.313562
Si Si3 0.789822 0.309953 0.187601
Si Si4 0.569809 0.380419 0.813561
O O1 0.731572 0.500000 0.750000
O O2 0.711252 0.566269 0.500000
O O3 0.755496 0.625538 0.740136
O O4 0.634573 0.581566 0.736267
O O5 0.500000 0.786494 0.250000
O O6 0.433518 0.757773 0.500000
O O7 0.366269 0.801635 0.267818
O O8 0.422505 0.691117 0.247129
O O9 0.750000 0.250000 0.250000
O O10 0.786370 0.308417 0.000000
O O11 0.500000 0.404853 0.750000
O O12 0.567213 0.378967 0.000000
#
# Coordination Sequence:
#
# PCOD9525773 Si02
#       4
#    16  16  16  16
#     4  10  22  37  52  74 105 139 176 217 259 308
#     4  10  19  31  52  79 106 135 169 212 261 309
#     4  10  20  35  55  79 105 136 174 217 261 308
#     4  10  19  32  50  73 105 139 174 213 252 303
#
# _framework density 17.262554000000002
#
# number of rings (size 3 to 8) (size 9 to 14) (size 15 to 20)
#    0.000    2.000    2.500    3.000    0.000    4.500 
#    0.000    2.500    0.000    0.750    0.000    5.250 
#    0.000    0.000    0.000    0.000    0.000    0.000 
#
# Total GULP energy -178591.125605 kJ/mol
# GULP energy per Si atom -5580.972675 kJ/mol
# Density = 1.722326 g / cm^3
# Si number density = 17.262554 Si / 1000 Ang^3
#
#
#
# Elastic Constant Matrix: (Units=GPa)
#
#
# Indices 1 2 3 4 5 6 
#
# 1 136.2036 72.2493 25.2526 0.0000 0.0000 0.0000
# 2 72.2493 117.8154 15.0128 0.0000 0.0000 0.0000
# 3 25.2526 15.0128 23.9945 0.0000 0.0000 0.0000
# 4 0.0000 0.0000 0.0000 23.2991 0.0000 0.0000
# 5 0.0000 0.0000 0.0000 0.0000 22.9921 0.0000
# 6 0.0000 0.0000 0.0000 0.0000 0.0000 23.5109
#
#
#
# Elastic Compliance Matrix: (Units=1/GPa)
#
#
# Indices 1 2 3 4 5 6 
#
# 1 0.012463 -0.006489 -0.009057 0.000000 0.000000 0.000000
# 2 -0.006489 0.012602 -0.001055 0.000000 0.000000 0.000000
# 3 -0.009057 -0.001055 0.051868 0.000000 0.000000 0.000000
# 4 0.000000 0.000000 0.000000 0.042920 0.000000 0.000000
# 5 0.000000 0.000000 0.000000 0.000000 0.043493 0.000000
# 6 0.000000 0.000000 0.000000 0.000000 0.000000 0.042533
#
#
# Mechanical properties :
#
#
# Convention : Reuss Voigt Hill
#
# Bulk Modulus (GPa) = 22.86716 55.89366 39.38041
# Shear Modulus (GPa) = 19.71157 24.99368 22.35263
#
# Velocity S-wave (km/s) = 3.38282 3.80920 3.60232
# Velocity P-wave (km/s) = 5.34167 7.19691 6.33754
#
# Compressibility (1/GPa) = 0.04373084
#
# Stress axis : x y z
#
# Youngs Moduli (GPa) = 80.23697 79.35525 19.27971
#
# Poissons Ratio (x) = 0.51492 0.17461
# Poissons Ratio (y) = 0.52064 0.02035
# Poissons Ratio (z) = 0.72668 0.08375
#
# Static dielectric constant tensor:
#      x y z
#    x 1.612170 0.000000 0.000000 
#    y 0.000000 1.559910 0.000000 
#    z 0.000000 0.000000 1.594430 
# 
# From -- ./inp_files/4320.got.cif
#   From: 2010.05.17/outbox.cif.g08.bks.cpg/sg72_3_cif.got.tgz:4320.got - 2010.06.03 17:03:01.
