data_PCOD9525342
_publ_section_title
;
Structure prediction by ZEFSAII (Michael W. Deem and Ramdas Pophale) SiO2 
 PCOD9525342
Probable space group: I B A M
;
_chemical_formula_sum "Si O2"
_cell_formula_units_Z 60
_cell_length_a 15.377428
_cell_length_b 13.448819
_cell_length_c 10.592549
_cell_angle_alpha 90.000000
_cell_angle_beta 90.000000
_cell_angle_gamma 90.000000
_cell_volume 2190.626478
_symmetry_space_group_name_H-M "I B A M"
_symmetry_group_IT_number 72
_symmetry_cell_setting 'orthorhombic'
loop_
_space_group_symop_operation_xyz
x,y,z
-x,-y,z
x,-y,1/2-z
-x,y,1/2-z
-x,-y,-z
x,y,-z
-x,y,1/2+z
x,-y,1/2+z
1/2+x,1/2+y,1/2+z
1/2-x,1/2-y,1/2+z
1/2+x,1/2-y,-z
1/2-x,1/2+y,-z
1/2-x,1/2-y,1/2-z
1/2+x,1/2+y,1/2-z
1/2-x,1/2+y,z
1/2+x,1/2-y,z
loop_
_atom_site_type_symbol
_atom_site_label
_atom_site_fract_x
_atom_site_fract_y
_atom_site_fract_z
Si Si1 0.956674 0.167113 0.000000
Si Si2 0.346008 0.628781 0.725549
Si Si3 0.000000 0.500000 0.750000
Si Si4 0.351561 0.625669 0.000000
Si Si5 0.849682 0.366571 0.279555
Si Si6 0.837598 0.356217 0.000000
O O1 0.922021 0.113631 0.125233
O O2 0.907452 0.270618 0.000000
O O3 0.058072 0.181744 0.000000
O O4 0.248254 0.616607 0.669979
O O5 0.356332 0.746948 0.764677
O O6 0.350327 0.574748 0.861539
O O7 0.063069 0.578426 0.674314
O O8 0.261008 0.684957 0.000000
O O9 0.845596 0.407528 0.134307
#
# Coordination Sequence:
#
# PCOD9525342 Si02
#       6
#     8  16   4   8  16   8
#     4  10  18  30  56  87 109 151 207 253 289 348
#     4   9  19  37  55  78 120 160 196 243 296 355
#     4  12  24  34  60  96 126 160 204 250 320 366
#     4  10  18  30  58  83 109 154 208 252 286 349
#     4   9  20  36  52  79 121 158 195 241 304 364
#     4   8  18  35  48  76 119 158 192 248 303 351
#
# _framework density 27.389424000000002
#
# number of rings (size 3 to 8) (size 9 to 14) (size 15 to 20)
#    0.000    2.667    0.000    2.400    7.467    0.533 
#    0.000    2.667    0.000    0.000    0.000   22.400 
#    0.000    0.000    0.000    0.000    0.000    0.000 
#
# Total GULP energy -167323.132158 kJ/mol
# GULP energy per Si atom -5577.437739 kJ/mol
# Density = 2.732708 g / cm^3
# Si number density = 27.389424 Si / 1000 Ang^3
#
#
#
# Elastic Constant Matrix: (Units=GPa)
#
#
# Indices 1 2 3 4 5 6 
#
# 1 217.0233 56.7024 8.0704 0.0000 0.0000 0.0000
# 2 56.7024 115.8346 -50.4233 0.0000 0.0000 0.0000
# 3 8.0704 -50.4233 140.6672 0.0000 0.0000 0.0000
# 4 0.0000 0.0000 0.0000 -37.6067 0.0000 0.0000
# 5 0.0000 0.0000 0.0000 0.0000 38.9458 0.0000
# 6 0.0000 0.0000 0.0000 0.0000 0.0000 50.8316
#
#
#
# Elastic Compliance Matrix: (Units=1/GPa)
#
#
# Indices 1 2 3 4 5 6 
#
# 1 0.005548 -0.003382 -0.001531 0.000000 0.000000 0.000000
# 2 -0.003382 0.012291 0.004600 0.000000 0.000000 0.000000
# 3 -0.001531 0.004600 0.008846 0.000000 0.000000 0.000000
# 4 0.000000 0.000000 0.000000 -0.026591 0.000000 0.000000
# 5 0.000000 0.000000 0.000000 0.000000 0.025677 0.000000
# 6 0.000000 0.000000 0.000000 0.000000 0.000000 0.019673
#
#
# Mechanical properties :
#
#
# Convention : Reuss Voigt Hill
#
# Bulk Modulus (GPa) = 38.37495 55.80268 47.08882
# Shear Modulus (GPa) = 91.31355 41.04586 66.17971
#
# Velocity S-wave (km/s) = 5.78026 3.87538 4.92087
# Velocity P-wave (km/s) = 7.65439 6.35946 7.03678
#
# Compressibility (1/GPa) = 0.02605866
#
# Stress axis : x y z
#
# Youngs Moduli (GPa) = 180.23043 81.35985 113.04964
#
# Poissons Ratio (x) = 0.27519 0.17305
# Poissons Ratio (y) = 0.60961 -0.52002
# Poissons Ratio (z) = 0.27589 -0.37425
#
# Static dielectric constant tensor:
#      x y z
#    x 2.084710 0.000000 0.000000 
#    y 0.000000 2.324310 0.000000 
#    z 0.000000 0.000000 2.222750 
# 
# From -- ./inp_files/12323.got.cif
#   From: 2010.05.17/outbox.cif.g08.bks.cpg/sg72_7_cif.got.tgz:12323.got - 2010.06.03 17:03:01.
