data_PCOD9525135
_publ_section_title
;
Structure prediction by ZEFSAII (Michael W. Deem and Ramdas Pophale) SiO2 
 PCOD9525135
Probable space group: I B A M
;
_chemical_formula_sum "Si O2"
_cell_formula_units_Z 88
_cell_length_a 15.783063
_cell_length_b 14.608700
_cell_length_c 20.660638
_cell_angle_alpha 90.000000
_cell_angle_beta 90.000000
_cell_angle_gamma 90.000000
_cell_volume 4763.723974
_symmetry_space_group_name_H-M "I B A M"
_symmetry_group_IT_number 72
_symmetry_cell_setting 'orthorhombic'
loop_
_space_group_symop_operation_xyz
x,y,z
-x,-y,z
x,-y,1/2-z
-x,y,1/2-z
-x,-y,-z
x,y,-z
-x,y,1/2+z
x,-y,1/2+z
1/2+x,1/2+y,1/2+z
1/2-x,1/2-y,1/2+z
1/2+x,1/2-y,-z
1/2-x,1/2+y,-z
1/2-x,1/2-y,1/2-z
1/2+x,1/2+y,1/2-z
1/2-x,1/2+y,z
1/2+x,1/2-y,z
loop_
_atom_site_type_symbol
_atom_site_label
_atom_site_fract_x
_atom_site_fract_y
_atom_site_fract_z
Si Si1 0.313223 0.109971 0.757714
Si Si2 0.000000 0.311517 0.250000
Si Si3 0.899634 0.008399 0.322770
Si Si4 0.936168 0.202136 0.624885
Si Si5 0.759362 0.254423 0.357835
Si Si6 0.886475 0.852117 0.426835
O O1 0.414001 0.132363 0.762109
O O2 0.269278 0.162654 0.818393
O O3 0.274154 0.166363 0.696749
O O4 0.306293 0.000000 0.750000
O O5 0.977293 0.248366 0.311438
O O6 0.893973 0.107202 0.353598
O O7 0.864849 0.000000 0.250000
O O8 0.874079 0.931941 0.373949
O O9 0.000000 0.000000 0.315763
O O10 0.850426 0.254451 0.605540
O O11 0.016582 0.183858 0.579576
O O12 0.682595 0.277857 0.405490
O O13 0.872890 0.883797 0.500000
#
# Coordination Sequence:
#
# PCOD9525135 Si02
#       6
#    16   8  16  16  16  16
#     4  10  21  35  61  91 122 154 199 253 311 362
#     4  10  17  36  59  90 122 152 201 256 311 350
#     4   9  19  32  58  87 117 154 193 251 308 359
#     4  10  20  35  57  84 118 155 201 250 302 364
#     4  10  23  36  57  90 120 156 199 255 306 362
#     4  11  23  40  57  83 125 164 206 251 306 374
#
# _framework density 18.472943000000001
#
# number of rings (size 3 to 8) (size 9 to 14) (size 15 to 20)
#    0.000    2.000    1.818    2.455    7.636    4.000 
#    0.000    0.000    0.000    0.000    0.000    2.545 
#    0.000    0.000    0.000    0.000    0.000    0.000 
#
# Total GULP energy -244937.665054 kJ/mol
# GULP energy per Si atom -5566.765115 kJ/mol
# Density = 1.843090 g / cm^3
# Si number density = 18.472943 Si / 1000 Ang^3
#
#
#
# Elastic Constant Matrix: (Units=GPa)
#
#
# Indices 1 2 3 4 5 6 
#
# 1 145.1823 28.3010 38.4119 0.0000 0.0000 0.0000
# 2 28.3010 87.4168 22.0412 0.0000 0.0000 0.0000
# 3 38.4119 22.0412 88.7157 0.0000 0.0000 0.0000
# 4 0.0000 0.0000 0.0000 20.0965 0.0000 0.0000
# 5 0.0000 0.0000 0.0000 0.0000 15.3159 0.0000
# 6 0.0000 0.0000 0.0000 0.0000 0.0000 -4.7124
#
#
#
# Elastic Compliance Matrix: (Units=1/GPa)
#
#
# Indices 1 2 3 4 5 6 
#
# 1 0.008048 -0.001842 -0.003027 0.000000 0.000000 0.000000
# 2 -0.001842 0.012626 -0.002339 0.000000 0.000000 0.000000
# 3 -0.003027 -0.002339 0.013164 0.000000 0.000000 0.000000
# 4 0.000000 0.000000 0.000000 0.049760 0.000000 0.000000
# 5 0.000000 0.000000 0.000000 0.000000 0.065292 0.000000
# 6 0.000000 0.000000 0.000000 0.000000 0.000000 -0.212204
#
#
# Mechanical properties :
#
#
# Convention : Reuss Voigt Hill
#
# Bulk Modulus (GPa) = 51.49153 55.42476 53.45815
# Shear Modulus (GPa) = -117.85455 21.64405 -48.10525
#
# Velocity S-wave (km/s) = -7.99606 3.42667 -5.10857
# Velocity P-wave (km/s) = 7.57065 6.76198 2.40732
#
# Compressibility (1/GPa) = 0.01942067
#
# Stress axis : x y z
#
# Youngs Moduli (GPa) = 124.25695 79.20370 75.96672
#
# Poissons Ratio (x) = 0.14592 0.22994
# Poissons Ratio (y) = 0.22892 0.17770
# Poissons Ratio (z) = 0.37610 0.18527
#
# Static dielectric constant tensor:
#      x y z
#    x 1.630600 0.000000 0.000000 
#    y 0.000000 2.080770 0.000000 
#    z 0.000000 0.000000 1.624100 
# 
# From -- ./inp_files/39007.got.cif
#   From: 2010.05.17/outbox.cif.g08.bks.cpg/sg72_20_cif.got.tgz:39007.got - 2010.06.03 17:03:01.
