data_PCOD9525433
_publ_section_title
;
Structure prediction by ZEFSAII (Michael W. Deem and Ramdas Pophale) SiO2 
 PCOD9525433
Probable space group: I B A M
;
_chemical_formula_sum "Si O2"
_cell_formula_units_Z 96
_cell_length_a 11.703216
_cell_length_b 23.855425
_cell_length_c 18.576093
_cell_angle_alpha 90.000000
_cell_angle_beta 90.000000
_cell_angle_gamma 90.000000
_cell_volume 5186.170082
_symmetry_space_group_name_H-M "I B A M"
_symmetry_group_IT_number 72
_symmetry_cell_setting 'orthorhombic'
loop_
_space_group_symop_operation_xyz
x,y,z
-x,-y,z
x,-y,1/2-z
-x,y,1/2-z
-x,-y,-z
x,y,-z
-x,y,1/2+z
x,-y,1/2+z
1/2+x,1/2+y,1/2+z
1/2-x,1/2-y,1/2+z
1/2+x,1/2-y,-z
1/2-x,1/2+y,-z
1/2-x,1/2-y,1/2-z
1/2+x,1/2+y,1/2-z
1/2-x,1/2+y,z
1/2+x,1/2-y,z
loop_
_atom_site_type_symbol
_atom_site_label
_atom_site_fract_x
_atom_site_fract_y
_atom_site_fract_z
Si Si1 0.371241 0.943739 0.719789
Si Si2 0.064647 0.777065 0.322144
Si Si3 0.835341 0.652023 0.825710
Si Si4 0.241880 0.815896 0.421932
Si Si5 0.854530 0.197275 0.919648
Si Si6 0.545718 0.897505 0.917136
O O1 0.500000 0.943863 0.750000
O O2 0.324312 0.886820 0.755290
O O3 0.391121 0.942464 0.634286
O O4 0.313917 0.000000 0.750000
O O5 0.117355 0.714806 0.308499
O O6 0.160553 0.818990 0.353001
O O7 0.000000 0.794561 0.250000
O O8 0.969481 0.778641 0.384640
O O9 0.714886 0.656699 0.866720
O O10 0.929978 0.623820 0.878707
O O11 0.190804 0.832819 0.500000
O O12 0.270071 0.750247 0.425757
O O13 0.361766 0.847403 0.415916
O O14 0.873813 0.174873 0.000000
O O15 0.526591 0.913948 0.000000
#
# Coordination Sequence:
#
# PCOD9525433 Si02
#       6
#    16  16  16  16  16  16
#     4   9  19  35  52  73 103 136 170 221 269 306
#     4  11  21  30  46  72 105 142 173 206 243 304
#     4  10  20  33  51  74 106 138 175 211 255 308
#     4   9  19  31  47  69  99 136 172 207 246 299
#     4  10  20  32  48  71 104 141 174 210 252 304
#     4  10  18  32  53  75 100 135 172 209 256 310
#
# _framework density 18.510769
#
# number of rings (size 3 to 8) (size 9 to 14) (size 15 to 20)
#    0.000    2.167    1.667    2.500    2.333    2.667 
#    0.000    7.500    0.000    0.000    0.000    2.333 
#    0.000    4.000    0.000    0.000    0.000    0.000 
#
# Total GULP energy -267242.350709 kJ/mol
# GULP energy per Si atom -5567.548973 kJ/mol
# Density = 1.846864 g / cm^3
# Si number density = 18.510769 Si / 1000 Ang^3
#
#
#
# Elastic Constant Matrix: (Units=GPa)
#
#
# Indices 1 2 3 4 5 6 
#
# 1 38.5698 12.3642 14.6869 0.0000 0.0000 0.0000
# 2 12.3642 39.4401 21.3119 0.0000 0.0000 0.0000
# 3 14.6869 21.3119 100.1547 0.0000 0.0000 0.0000
# 4 0.0000 0.0000 0.0000 -5.4809 0.0000 0.0000
# 5 0.0000 0.0000 0.0000 0.0000 25.1034 0.0000
# 6 0.0000 0.0000 0.0000 0.0000 0.0000 8.6384
#
#
#
# Elastic Compliance Matrix: (Units=1/GPa)
#
#
# Indices 1 2 3 4 5 6 
#
# 1 0.029437 -0.007792 -0.002659 0.000000 0.000000 0.000000
# 2 -0.007792 0.030711 -0.005393 0.000000 0.000000 0.000000
# 3 -0.002659 -0.005393 0.011522 0.000000 0.000000 0.000000
# 4 0.000000 0.000000 0.000000 -0.182451 0.000000 0.000000
# 5 0.000000 0.000000 0.000000 0.000000 0.039835 0.000000
# 6 0.000000 0.000000 0.000000 0.000000 0.000000 0.115762
#
#
# Mechanical properties :
#
#
# Convention : Reuss Voigt Hill
#
# Bulk Modulus (GPa) = 25.00955 30.54339 27.77647
# Shear Modulus (GPa) = 55.66016 14.30561 34.98289
#
# Velocity S-wave (km/s) = 5.48948 2.78299 4.35198
# Velocity P-wave (km/s) = 7.32934 5.18294 6.34753
#
# Compressibility (1/GPa) = 0.03998473
#
# Stress axis : x y z
#
# Youngs Moduli (GPa) = 33.97059 32.56111 86.79120
#
# Poissons Ratio (x) = 0.25371 0.23075
# Poissons Ratio (y) = 0.26469 0.46802
# Poissons Ratio (z) = 0.09032 0.17559
#
# Static dielectric constant tensor:
#      x y z
#    x 1.647850 0.000000 0.000000 
#    y 0.000000 1.682120 0.000000 
#    z 0.000000 0.000000 1.721470 
# 
# From -- ./inp_files/29427.got.cif
#   From: 2010.05.17/outbox.cif.g08.bks.cpg/sg72_15_cif.got.tgz:29427.got - 2010.06.03 17:03:01.
