data_PCOD9525978
_publ_section_title
;
Structure prediction by ZEFSAII (Michael W. Deem and Ramdas Pophale) SiO2 
 PCOD9525978
Probable space group: I B A M
;
_chemical_formula_sum "Si O2"
_cell_formula_units_Z 96
_cell_length_a 22.467272
_cell_length_b 8.693737
_cell_length_c 23.773342
_cell_angle_alpha 90.000000
_cell_angle_beta 90.000000
_cell_angle_gamma 90.000000
_cell_volume 4643.517420
_symmetry_space_group_name_H-M "I B A M"
_symmetry_group_IT_number 72
_symmetry_cell_setting 'orthorhombic'
loop_
_space_group_symop_operation_xyz
x,y,z
-x,-y,z
x,-y,1/2-z
-x,y,1/2-z
-x,-y,-z
x,y,-z
-x,y,1/2+z
x,-y,1/2+z
1/2+x,1/2+y,1/2+z
1/2-x,1/2-y,1/2+z
1/2+x,1/2-y,-z
1/2-x,1/2+y,-z
1/2-x,1/2-y,1/2-z
1/2+x,1/2+y,1/2-z
1/2-x,1/2+y,z
1/2+x,1/2-y,z
loop_
_atom_site_type_symbol
_atom_site_label
_atom_site_fract_x
_atom_site_fract_y
_atom_site_fract_z
Si Si1 0.716776 0.480139 0.935723
Si Si2 0.362354 0.162146 0.773623
Si Si3 0.562554 0.571747 0.825420
Si Si4 0.103235 0.201325 0.562320
Si Si5 0.155884 0.798921 0.662244
Si Si6 0.655685 0.011461 0.388581
O O1 0.668252 0.617790 0.932939
O O2 0.699472 0.366072 0.884983
O O3 0.784028 0.526048 0.921731
O O4 0.713731 0.418323 0.000000
O O5 0.412912 0.285548 0.789199
O O6 0.323012 0.235757 0.723274
O O7 0.331384 0.114256 0.832241
O O8 0.386380 0.000000 0.750000
O O9 0.500000 0.500000 0.810022
O O10 0.562211 0.632617 0.889397
O O11 0.610878 0.435932 0.824358
O O12 0.080712 0.172664 0.500000
O O13 0.114354 0.380419 0.574138
O O14 0.127893 0.647807 0.632932
#
# Coordination Sequence:
#
# PCOD9525978 Si02
#       6
#    16  16  16  16  16  16
#     4  10  20  34  55  82 111 149 191 228 275 334
#     4   9  20  38  56  82 114 144 184 233 286 337
#     4  10  21  39  62  83 108 145 188 235 286 337
#     4   9  19  35  54  80 115 150 188 235 281 331
#     4  10  21  36  55  82 113 144 188 235 278 336
#     4  10  19  33  53  80 115 150 185 229 277 332
#
# _framework density 20.673983
#
# number of rings (size 3 to 8) (size 9 to 14) (size 15 to 20)
#    0.000    2.333    0.000    2.000    0.000    5.000 
#    0.000   18.333    0.000    1.000    0.000    0.000 
#    0.000    0.000    0.000    0.000    0.000    0.000 
#
# Total GULP energy -267523.876399 kJ/mol
# GULP energy per Si atom -5573.414092 kJ/mol
# Density = 2.062693 g / cm^3
# Si number density = 20.673983 Si / 1000 Ang^3
#
#
#
# Elastic Constant Matrix: (Units=GPa)
#
#
# Indices 1 2 3 4 5 6 
#
# 1 47.3597 27.4480 23.3568 0.0000 0.0000 0.0000
# 2 27.4480 109.9054 38.1922 0.0000 0.0000 0.0000
# 3 23.3568 38.1922 145.2817 0.0000 0.0000 0.0000
# 4 0.0000 0.0000 0.0000 27.1201 0.0000 0.0000
# 5 0.0000 0.0000 0.0000 0.0000 -4.6095 0.0000
# 6 0.0000 0.0000 0.0000 0.0000 0.0000 -6.0458
#
#
#
# Elastic Compliance Matrix: (Units=1/GPa)
#
#
# Indices 1 2 3 4 5 6 
#
# 1 0.025603 -0.005463 -0.002680 0.000000 0.000000 0.000000
# 2 -0.005463 0.011179 -0.002061 0.000000 0.000000 0.000000
# 3 -0.002680 -0.002061 0.007856 0.000000 0.000000 0.000000
# 4 0.000000 0.000000 0.000000 0.036873 0.000000 0.000000
# 5 0.000000 0.000000 0.000000 0.000000 -0.216943 0.000000
# 6 0.000000 0.000000 0.000000 0.000000 0.000000 -0.165405
#
#
# Mechanical properties :
#
#
# Convention : Reuss Voigt Hill
#
# Bulk Modulus (GPa) = 41.26976 53.39341 47.33159
# Shear Modulus (GPa) = -18.35851 17.52960 -0.41446
#
# Velocity S-wave (km/s) = -2.98317 2.91504 -0.44823
# Velocity P-wave (km/s) = 2.85303 6.10020 4.76194
#
# Compressibility (1/GPa) = 0.02423082
#
# Stress axis : x y z
#
# Youngs Moduli (GPa) = 39.05822 89.45293 127.29548
#
# Poissons Ratio (x) = 0.48866 0.34116
# Poissons Ratio (y) = 0.21337 0.26230
# Poissons Ratio (z) = 0.10468 0.18432
#
# Static dielectric constant tensor:
#      x y z
#    x 1.686530 0.000000 0.000000 
#    y 0.000000 1.754430 0.000000 
#    z 0.000000 0.000000 1.782690 
# 
# From -- ./inp_files/45641.got.cif
#   From: 2010.05.17/outbox.cif.g08.bks.cpg/sg72_23_cif.got.tgz:45641.got - 2010.06.03 17:03:01.
