data_PCOD9525989
_publ_section_title
;
Structure prediction by ZEFSAII (Michael W. Deem and Ramdas Pophale) SiO2 
 PCOD9525989
Probable space group: I B A M
;
_chemical_formula_sum "Si O2"
_cell_formula_units_Z 96
_cell_length_a 13.023345
_cell_length_b 17.477184
_cell_length_c 19.035192
_cell_angle_alpha 90.000000
_cell_angle_beta 90.000000
_cell_angle_gamma 90.000000
_cell_volume 4332.626641
_symmetry_space_group_name_H-M "I B A M"
_symmetry_group_IT_number 72
_symmetry_cell_setting 'orthorhombic'
loop_
_space_group_symop_operation_xyz
x,y,z
-x,-y,z
x,-y,1/2-z
-x,y,1/2-z
-x,-y,-z
x,y,-z
-x,y,1/2+z
x,-y,1/2+z
1/2+x,1/2+y,1/2+z
1/2-x,1/2-y,1/2+z
1/2+x,1/2-y,-z
1/2-x,1/2+y,-z
1/2-x,1/2-y,1/2-z
1/2+x,1/2+y,1/2-z
1/2-x,1/2+y,z
1/2+x,1/2-y,z
loop_
_atom_site_type_symbol
_atom_site_label
_atom_site_fract_x
_atom_site_fract_y
_atom_site_fract_z
Si Si1 0.893857 0.149396 0.423376
Si Si2 0.621730 0.776411 0.190754
Si Si3 0.341835 0.207709 0.653791
Si Si4 0.845041 0.601651 0.578971
Si Si5 0.750717 0.559044 0.085079
Si Si6 0.552138 0.400923 0.323708
O O1 0.939205 0.145903 0.500000
O O2 0.905056 0.234208 0.393444
O O3 0.774185 0.129005 0.425624
O O4 0.957561 0.092570 0.376291
O O5 0.609400 0.807540 0.270090
O O6 0.741338 0.757020 0.175253
O O7 0.598207 0.842922 0.134023
O O8 0.577715 0.690161 0.185096
O O9 0.309606 0.135783 0.607850
O O10 0.889019 0.607136 0.500000
O O11 0.826044 0.513018 0.598547
O O12 0.651986 0.561918 0.138405
O O13 0.725489 0.558400 0.000000
O O14 0.500000 0.423173 0.250000
#
# Coordination Sequence:
#
# PCOD9525989 Si02
#       6
#    16  16  16  16  16  16
#     4  10  19  33  54  78 108 147 181 220 277 334
#     4   9  18  33  54  76 105 140 184 231 273 315
#     4   9  17  32  54  77 103 137 187 233 269 316
#     4   9  20  36  54  79 112 145 183 229 275 327
#     4  10  21  36  55  81 112 146 185 228 275 332
#     4  11  21  35  54  81 116 145 180 228 274 331
#
# _framework density 22.157461000000001
#
# number of rings (size 3 to 8) (size 9 to 14) (size 15 to 20)
#    0.000    2.333    1.667    1.000    2.333    6.000 
#    0.000    3.333    0.000    1.000    0.000    3.500 
#    0.000    0.000    0.000    0.000    0.000    0.000 
#
# Total GULP energy -267461.242092 kJ/mol
# GULP energy per Si atom -5572.109210 kJ/mol
# Density = 2.210703 g / cm^3
# Si number density = 22.157461 Si / 1000 Ang^3
#
#
#
# Elastic Constant Matrix: (Units=GPa)
#
#
# Indices 1 2 3 4 5 6 
#
# 1 20.8813 -1.1855 3.8168 0.0000 0.0000 0.0000
# 2 -1.1855 105.8965 50.1197 0.0000 0.0000 0.0000
# 3 3.8168 50.1197 145.4280 0.0000 0.0000 0.0000
# 4 0.0000 0.0000 0.0000 83.5702 0.0000 0.0000
# 5 0.0000 0.0000 0.0000 0.0000 25.3170 0.0000
# 6 0.0000 0.0000 0.0000 0.0000 0.0000 -22.4699
#
#
#
# Elastic Compliance Matrix: (Units=1/GPa)
#
#
# Indices 1 2 3 4 5 6 
#
# 1 0.048285 0.001363 -0.001737 0.000000 0.000000 0.000000
# 2 0.001363 0.011322 -0.003938 0.000000 0.000000 0.000000
# 3 -0.001737 -0.003938 0.008279 0.000000 0.000000 0.000000
# 4 0.000000 0.000000 0.000000 0.011966 0.000000 0.000000
# 5 0.000000 0.000000 0.000000 0.000000 0.039499 0.000000
# 6 0.000000 0.000000 0.000000 0.000000 0.000000 -0.044504
#
#
# Mechanical properties :
#
#
# Convention : Reuss Voigt Hill
#
# Bulk Modulus (GPa) = 16.87434 41.96754 29.42094
# Shear Modulus (GPa) = 48.43801 31.91378 40.17589
#
# Velocity S-wave (km/s) = 4.68063 3.79927 4.26279
# Velocity P-wave (km/s) = 6.06986 6.18285 6.12662
#
# Compressibility (1/GPa) = 0.05926157
#
# Stress axis : x y z
#
# Youngs Moduli (GPa) = 20.71054 88.32243 120.78844
#
# Poissons Ratio (x) = -0.12034 0.20979
# Poissons Ratio (y) = -0.02822 0.47564
# Poissons Ratio (z) = 0.03597 0.34779
#
# Static dielectric constant tensor:
#      x y z
#    x 1.400110 0.000000 0.000000 
#    y 0.000000 1.883760 0.000000 
#    z 0.000000 0.000000 1.882970 
# 
# From -- ./inp_files/31595.got.cif
#   From: 2010.05.17/outbox.cif.g08.bks.cpg/sg72_16_cif.got.tgz:31595.got - 2010.06.03 17:03:01.
