data_PCOD9525671
_publ_section_title
;
Structure prediction by ZEFSAII (Michael W. Deem and Ramdas Pophale) SiO2 
 PCOD9525671
Probable space group: I B A M
;
_chemical_formula_sum "Si O2"
_cell_formula_units_Z 80
_cell_length_a 24.765665
_cell_length_b 23.767138
_cell_length_c 8.856024
_cell_angle_alpha 90.000000
_cell_angle_beta 90.000000
_cell_angle_gamma 90.000000
_cell_volume 5212.735233
_symmetry_space_group_name_H-M "I B A M"
_symmetry_group_IT_number 72
_symmetry_cell_setting 'orthorhombic'
loop_
_space_group_symop_operation_xyz
x,y,z
-x,-y,z
x,-y,1/2-z
-x,y,1/2-z
-x,-y,-z
x,y,-z
-x,y,1/2+z
x,-y,1/2+z
1/2+x,1/2+y,1/2+z
1/2-x,1/2-y,1/2+z
1/2+x,1/2-y,-z
1/2-x,1/2+y,-z
1/2-x,1/2-y,1/2-z
1/2+x,1/2+y,1/2-z
1/2-x,1/2+y,z
1/2+x,1/2-y,z
loop_
_atom_site_type_symbol
_atom_site_label
_atom_site_fract_x
_atom_site_fract_y
_atom_site_fract_z
Si Si1 0.771533 0.661946 0.820614
Si Si2 0.442406 0.887987 0.179672
Si Si3 0.834456 0.560619 0.319864
Si Si4 0.667635 0.731157 0.820544
Si Si5 0.557302 0.753175 0.678995
O O1 0.791373 0.606656 0.736179
O O2 0.709633 0.680407 0.793877
O O3 0.807057 0.714352 0.761395
O O4 0.780326 0.655643 0.000000
O O5 0.500000 0.904754 0.250000
O O6 0.392619 0.919004 0.257633
O O7 0.436271 0.820661 0.204703
O O8 0.441903 0.898045 0.000000
O O9 0.822352 0.500000 0.250000
O O10 0.835798 0.558130 0.500000
O O11 0.607946 0.723251 0.756581
O O12 0.665939 0.741770 0.000000
O O13 0.500000 0.736843 0.750000
O O14 0.557367 0.743943 0.500000
#
# Coordination Sequence:
#
# PCOD9525671 Si02
#       5
#    16  16  16  16  16
#     4  10  20  34  50  72  98 126 162 201 243 292
#     4  10  20  34  50  69  94 126 165 208 247 288
#     4  12  24  37  53  70  94 127 165 209 250 292
#     4  10  19  31  51  74  99 128 160 198 242 292
#     4  10  19  30  48  71 101 131 162 201 242 289
#
# _framework density 15.347028999999999
#
# number of rings (size 3 to 8) (size 9 to 14) (size 15 to 20)
#    0.000    1.600    2.000    4.200    0.000    4.400 
#    0.000    2.000    0.000    0.000    0.000    0.000 
#    0.000    0.800    0.000    8.400    0.000    3.600 
#
# Total GULP energy -223416.941108 kJ/mol
# GULP energy per Si atom -5585.423528 kJ/mol
# Density = 1.531210 g / cm^3
# Si number density = 15.347029 Si / 1000 Ang^3
#
#
#
# Elastic Constant Matrix: (Units=GPa)
#
#
# Indices 1 2 3 4 5 6 
#
# 1 123.5613 52.5914 65.3393 0.0000 0.0000 0.0000
# 2 52.5914 65.7658 53.9160 0.0000 0.0000 0.0000
# 3 65.3393 53.9160 106.8744 0.0000 0.0000 0.0000
# 4 0.0000 0.0000 0.0000 20.8934 0.0000 0.0000
# 5 0.0000 0.0000 0.0000 0.0000 30.1694 0.0000
# 6 0.0000 0.0000 0.0000 0.0000 0.0000 13.4794
#
#
#
# Elastic Compliance Matrix: (Units=1/GPa)
#
#
# Indices 1 2 3 4 5 6 
#
# 1 0.013582 -0.006913 -0.004816 0.000000 0.000000 0.000000
# 2 -0.006913 0.029448 -0.010630 0.000000 0.000000 0.000000
# 3 -0.004816 -0.010630 0.017664 0.000000 0.000000 0.000000
# 4 0.000000 0.000000 0.000000 0.047862 0.000000 0.000000
# 5 0.000000 0.000000 0.000000 0.000000 0.033146 0.000000
# 6 0.000000 0.000000 0.000000 0.000000 0.000000 0.074188
#
#
# Mechanical properties :
#
#
# Convention : Reuss Voigt Hill
#
# Bulk Modulus (GPa) = 62.59272 71.09943 66.84607
# Shear Modulus (GPa) = 18.80173 21.19875 20.00024
#
# Velocity S-wave (km/s) = 3.50395 3.72061 3.61390
# Velocity P-wave (km/s) = 7.56595 8.05516 7.81439
#
# Compressibility (1/GPa) = 0.01597630
#
# Stress axis : x y z
#
# Youngs Moduli (GPa) = 73.62458 33.95824 56.61325
#
# Poissons Ratio (x) = 0.23475 0.27267
# Poissons Ratio (y) = 0.50897 0.60177
# Poissons Ratio (z) = 0.35460 0.36096
#
# Static dielectric constant tensor:
#      x y z
#    x 1.515620 0.000000 0.000000 
#    y 0.000000 1.486920 0.000000 
#    z 0.000000 0.000000 1.507270 
# 
# From -- ./inp_files/4827.got.cif
#   From: 2010.05.17/outbox.cif.g08.bks.cpg/sg72_3_cif.got.tgz:4827.got - 2010.06.03 17:03:01.
