data_PCOD9525241
_publ_section_title
;
Structure prediction by ZEFSAII (Michael W. Deem and Ramdas Pophale) SiO2 
 PCOD9525241
Probable space group: I B A M
;
_chemical_formula_sum "Si O2"
_cell_formula_units_Z 68
_cell_length_a 20.925525
_cell_length_b 9.166421
_cell_length_c 20.648952
_cell_angle_alpha 90.000000
_cell_angle_beta 90.000000
_cell_angle_gamma 90.000000
_cell_volume 3960.720328
_symmetry_space_group_name_H-M "I B A M"
_symmetry_group_IT_number 72
_symmetry_cell_setting 'orthorhombic'
loop_
_space_group_symop_operation_xyz
x,y,z
-x,-y,z
x,-y,1/2-z
-x,y,1/2-z
-x,-y,-z
x,y,-z
-x,y,1/2+z
x,-y,1/2+z
1/2+x,1/2+y,1/2+z
1/2-x,1/2-y,1/2+z
1/2+x,1/2-y,-z
1/2-x,1/2+y,-z
1/2-x,1/2-y,1/2-z
1/2+x,1/2+y,1/2-z
1/2-x,1/2+y,z
1/2+x,1/2-y,z
loop_
_atom_site_type_symbol
_atom_site_label
_atom_site_fract_x
_atom_site_fract_y
_atom_site_fract_z
Si Si1 0.298048 0.671576 0.578178
Si Si2 0.420625 0.149364 0.923159
Si Si3 0.170124 0.162953 0.078562
Si Si4 0.500000 0.000000 0.250000
Si Si5 0.556199 0.834283 0.632731
O O1 0.298146 0.683513 0.500000
O O2 0.357005 0.771068 0.601482
O O3 0.229288 0.733223 0.597709
O O4 0.310083 0.502973 0.593149
O O5 0.485925 0.209291 0.892461
O O6 0.420997 0.977471 0.907315
O O7 0.424231 0.168302 0.000000
O O8 0.107790 0.211918 0.117786
O O9 0.159283 0.174822 0.000000
O O10 0.456421 0.102243 0.295647
#
# Coordination Sequence:
#
# PCOD9525241 Si02
#       5
#    16  16  16   4  16
#     4   9  18  29  45  74 110 130 151 184 236 292
#     4   9  16  28  47  73  98 125 152 191 237 290
#     4  10  18  29  48  75 101 131 156 190 235 287
#     4   8  20  36  50  70  88 128 164 210 248 268
#     4  10  18  31  52  67  94 123 166 201 236 287
#
# _framework density 17.168595
#
# number of rings (size 3 to 8) (size 9 to 14) (size 15 to 20)
#    0.000    2.824    0.000    4.235    0.000    4.706 
#    0.000    3.529    0.000   24.000    0.000    0.000 
#    0.000    0.000    0.000    0.000    0.000    0.000 
#
# Total GULP energy -189416.171835 kJ/mol
# GULP energy per Si atom -5571.063877 kJ/mol
# Density = 1.712952 g / cm^3
# Si number density = 17.168595 Si / 1000 Ang^3
#
#
#
# Elastic Constant Matrix: (Units=GPa)
#
#
# Indices 1 2 3 4 5 6 
#
# 1 47.4546 1.5051 6.1158 0.0000 0.0000 0.0000
# 2 1.5051 16.0840 -2.5537 0.0000 0.0000 0.0000
# 3 6.1158 -2.5537 49.4963 0.0000 0.0000 0.0000
# 4 0.0000 0.0000 0.0000 30.8271 0.0000 0.0000
# 5 0.0000 0.0000 0.0000 0.0000 -2.6855 0.0000
# 6 0.0000 0.0000 0.0000 0.0000 0.0000 38.8404
#
#
#
# Elastic Compliance Matrix: (Units=1/GPa)
#
#
# Indices 1 2 3 4 5 6 
#
# 1 0.021509 -0.002455 -0.002784 0.000000 0.000000 0.000000
# 2 -0.002455 0.062967 0.003552 0.000000 0.000000 0.000000
# 3 -0.002784 0.003552 0.020731 0.000000 0.000000 0.000000
# 4 0.000000 0.000000 0.000000 0.032439 0.000000 0.000000
# 5 0.000000 0.000000 0.000000 0.000000 -0.372363 0.000000
# 6 0.000000 0.000000 0.000000 0.000000 0.000000 0.025746
#
#
# Mechanical properties :
#
#
# Convention : Reuss Voigt Hill
#
# Bulk Modulus (GPa) = 9.81998 13.68546 11.75272
# Shear Modulus (GPa) = -29.12876 20.59424 -4.26726
#
# Velocity S-wave (km/s) = -4.12349 3.46718 -1.57826
# Velocity P-wave (km/s) = 4.11567 4.90071 1.88126
#
# Compressibility (1/GPa) = 0.10183320
#
# Stress axis : x y z
#
# Youngs Moduli (GPa) = 46.49109 15.88128 48.23729
#
# Poissons Ratio (x) = 0.03899 0.13431
# Poissons Ratio (y) = 0.11413 -0.17134
# Poissons Ratio (z) = 0.12945 -0.05641
#
# Static dielectric constant tensor:
#      x y z
#    x 1.595580 0.000000 0.000000 
#    y 0.000000 1.586620 0.000000 
#    z 0.000000 0.000000 1.574880 
# 
# From -- ./inp_files/32315.got.cif
#   From: 2010.05.17/outbox.cif.g08.bks.cpg/sg72_17_cif.got.tgz:32315.got - 2010.06.03 17:03:01.
