data_PCOD9525388
_publ_section_title
;
Structure prediction by ZEFSAII (Michael W. Deem and Ramdas Pophale) SiO2 
 PCOD9525388
Probable space group: I B A M
;
_chemical_formula_sum "Si O2"
_cell_formula_units_Z 96
_cell_length_a 7.719929
_cell_length_b 20.855091
_cell_length_c 24.087099
_cell_angle_alpha 90.000000
_cell_angle_beta 90.000000
_cell_angle_gamma 90.000000
_cell_volume 3878.018647
_symmetry_space_group_name_H-M "I B A M"
_symmetry_group_IT_number 72
_symmetry_cell_setting 'orthorhombic'
loop_
_space_group_symop_operation_xyz
x,y,z
-x,-y,z
x,-y,1/2-z
-x,y,1/2-z
-x,-y,-z
x,y,-z
-x,y,1/2+z
x,-y,1/2+z
1/2+x,1/2+y,1/2+z
1/2-x,1/2-y,1/2+z
1/2+x,1/2-y,-z
1/2-x,1/2+y,-z
1/2-x,1/2-y,1/2-z
1/2+x,1/2+y,1/2-z
1/2-x,1/2+y,z
1/2+x,1/2-y,z
loop_
_atom_site_type_symbol
_atom_site_label
_atom_site_fract_x
_atom_site_fract_y
_atom_site_fract_z
Si Si1 0.480219 0.111163 0.333204
Si Si2 0.203707 0.190922 0.062644
Si Si3 0.161325 0.549298 0.438476
Si Si4 0.561737 0.248325 0.363165
Si Si5 0.617636 0.377483 0.696470
Si Si6 0.324013 0.439680 0.622687
O O1 0.393185 0.103213 0.394796
O O2 0.544318 0.184154 0.327041
O O3 0.313594 0.096037 0.294972
O O4 0.651656 0.067277 0.337976
O O5 0.385074 0.225174 0.074517
O O6 0.119694 0.219675 0.118957
O O7 0.200207 0.115687 0.076093
O O8 0.147154 0.201081 0.000000
O O9 0.204184 0.572945 0.500000
O O10 0.307657 0.505635 0.410625
O O11 0.000000 0.500000 0.442450
O O12 0.647027 0.308427 0.332382
O O13 0.500000 0.367133 0.750000
O O14 0.492271 0.421686 0.658521
#
# Coordination Sequence:
#
# PCOD9525388 Si02
#       6
#    16  16  16  16  16  16
#     4  10  21  40  59  88 123 152 203 256 298 367
#     4  10  18  31  54  81 119 154 181 235 303 357
#     4   9  18  37  67  93 124 166 200 242 306 374
#     4  10  20  37  53  85 119 150 202 247 294 367
#     4  11  24  42  62  87 119 163 209 260 314 355
#     4   9  21  39  60  91 122 155 204 252 296 371
#
# _framework density 24.754909999999999
#
# number of rings (size 3 to 8) (size 9 to 14) (size 15 to 20)
#    0.000    2.167    1.667    1.000    0.000    6.667 
#    0.000    4.167    0.000    3.000    0.000    0.000 
#    0.000    0.000    0.000    0.000    0.000    0.000 
#
# Total GULP energy -267558.134142 kJ/mol
# GULP energy per Si atom -5574.127795 kJ/mol
# Density = 2.469857 g / cm^3
# Si number density = 24.754910 Si / 1000 Ang^3
#
#
#
# Elastic Constant Matrix: (Units=GPa)
#
#
# Indices 1 2 3 4 5 6 
#
# 1 53.7743 -25.4959 -7.0754 0.0000 0.0000 0.0000
# 2 -25.4959 39.7101 12.6945 0.0000 0.0000 0.0000
# 3 -7.0754 12.6945 77.5447 0.0000 0.0000 0.0000
# 4 0.0000 0.0000 0.0000 5.3317 0.0000 0.0000
# 5 0.0000 0.0000 0.0000 0.0000 23.9791 0.0000
# 6 0.0000 0.0000 0.0000 0.0000 0.0000 29.4038
#
#
#
# Elastic Compliance Matrix: (Units=1/GPa)
#
#
# Indices 1 2 3 4 5 6 
#
# 1 0.026746 0.017297 -0.000391 0.000000 0.000000 0.000000
# 2 0.017297 0.037760 -0.004603 0.000000 0.000000 0.000000
# 3 -0.000391 -0.004603 0.013614 0.000000 0.000000 0.000000
# 4 0.000000 0.000000 0.000000 0.187557 0.000000 0.000000
# 5 0.000000 0.000000 0.000000 0.000000 0.041703 0.000000
# 6 0.000000 0.000000 0.000000 0.000000 0.000000 0.034009
#
#
# Mechanical properties :
#
#
# Convention : Reuss Voigt Hill
#
# Bulk Modulus (GPa) = 9.73471 14.58615 12.16043
# Shear Modulus (GPa) = 14.24401 24.46999 19.35700
#
# Velocity S-wave (km/s) = 2.40136 3.14744 2.79936
# Velocity P-wave (km/s) = 3.41023 4.37190 3.92066
#
# Compressibility (1/GPa) = 0.10272520
#
# Stress axis : x y z
#
# Youngs Moduli (GPa) = 37.38887 26.48309 73.45562
#
# Poissons Ratio (x) = -0.45809 0.02874
# Poissons Ratio (y) = -0.64673 0.33813
# Poissons Ratio (z) = 0.01463 0.12191
#
# Static dielectric constant tensor:
#      x y z
#    x 2.238650 0.000000 0.000000 
#    y 0.000000 2.015860 0.000000 
#    z 0.000000 0.000000 1.945250 
# 
# From -- ./inp_files/42407.got.cif
#   From: 2010.05.17/outbox.cif.g08.bks.cpg/sg72_22_cif.got.tgz:42407.got - 2010.06.03 17:03:01.
