data_PCOD9525144
_publ_section_title
;
Structure prediction by ZEFSAII (Michael W. Deem and Ramdas Pophale) SiO2 
 PCOD9525144
Probable space group: I B A M
;
_chemical_formula_sum "Si O2"
_cell_formula_units_Z 88
_cell_length_a 26.947209
_cell_length_b 10.274598
_cell_length_c 13.571691
_cell_angle_alpha 90.000000
_cell_angle_beta 90.000000
_cell_angle_gamma 90.000000
_cell_volume 3757.617698
_symmetry_space_group_name_H-M "I B A M"
_symmetry_group_IT_number 72
_symmetry_cell_setting 'orthorhombic'
loop_
_space_group_symop_operation_xyz
x,y,z
-x,-y,z
x,-y,1/2-z
-x,y,1/2-z
-x,-y,-z
x,y,-z
-x,y,1/2+z
x,-y,1/2+z
1/2+x,1/2+y,1/2+z
1/2-x,1/2-y,1/2+z
1/2+x,1/2-y,-z
1/2-x,1/2+y,-z
1/2-x,1/2-y,1/2-z
1/2+x,1/2+y,1/2-z
1/2-x,1/2+y,z
1/2+x,1/2-y,z
loop_
_atom_site_type_symbol
_atom_site_label
_atom_site_fract_x
_atom_site_fract_y
_atom_site_fract_z
Si Si1 0.232639 0.166757 0.379585
Si Si2 0.413017 0.137002 0.883484
Si Si3 0.541829 0.388368 0.117413
Si Si4 0.303579 0.945001 0.619704
Si Si5 0.500000 0.162956 0.250000
Si Si6 0.625904 0.425801 0.618192
O O1 0.232251 0.164664 0.500000
O O2 0.228958 0.318171 0.352413
O O3 0.181391 0.099296 0.345202
O O4 0.278953 0.079498 0.348566
O O5 0.360732 0.074487 0.852590
O O6 0.459613 0.095407 0.819803
O O7 0.405087 0.292586 0.869440
O O8 0.420709 0.114139 0.000000
O O9 0.500000 0.500000 0.134027
O O10 0.529352 0.259269 0.175854
O O11 0.594230 0.450172 0.150060
O O12 0.542350 0.363904 0.000000
O O13 0.304060 0.943917 0.500000
O O14 0.630538 0.441087 0.500000
#
# Coordination Sequence:
#
# PCOD9525144 Si02
#       6
#    16  16  16  16   8  16
#     4   8  13  23  41  63  90 127 164 201 249 305
#     4   9  17  27  38  59  93 128 161 203 250 301
#     4  10  18  26  36  56  87 121 157 199 245 302
#     4   8  14  25  42  65  95 130 166 205 253 305
#     4  12  19  24  40  60  86 129 168 191 248 317
#     4   8  14  24  36  54  84 120 153 189 238 293
#
# _framework density 23.419094000000001
#
# number of rings (size 3 to 8) (size 9 to 14) (size 15 to 20)
#    0.000    3.091    1.818    3.000    0.000    0.000 
#    0.000    0.000    0.000    1.091    0.000    0.000 
#    0.000    8.727    0.000   37.455    0.000    2.909 
#
# Total GULP energy -246037.903099 kJ/mol
# GULP energy per Si atom -5591.770525 kJ/mol
# Density = 2.336579 g / cm^3
# Si number density = 23.419094 Si / 1000 Ang^3
#
#
#
# Elastic Constant Matrix: (Units=GPa)
#
#
# Indices 1 2 3 4 5 6 
#
# 1 127.8433 63.1976 30.3257 0.0000 0.0000 0.0000
# 2 63.1976 77.4384 52.7943 0.0000 0.0000 0.0000
# 3 30.3257 52.7943 98.8029 0.0000 0.0000 0.0000
# 4 0.0000 0.0000 0.0000 31.5345 0.0000 0.0000
# 5 0.0000 0.0000 0.0000 0.0000 -0.3190 0.0000
# 6 0.0000 0.0000 0.0000 0.0000 0.0000 24.4211
#
#
#
# Elastic Compliance Matrix: (Units=1/GPa)
#
#
# Indices 1 2 3 4 5 6 
#
# 1 0.013573 -0.012957 0.002757 0.000000 0.000000 0.000000
# 2 -0.012957 0.032682 -0.013487 0.000000 0.000000 0.000000
# 3 0.002757 -0.013487 0.016481 0.000000 0.000000 0.000000
# 4 0.000000 0.000000 0.000000 0.031711 0.000000 0.000000
# 5 0.000000 0.000000 0.000000 0.000000 -3.134478 0.000000
# 6 0.000000 0.000000 0.000000 0.000000 0.000000 0.040948
#
#
# Mechanical properties :
#
#
# Convention : Reuss Voigt Hill
#
# Bulk Modulus (GPa) = 65.08540 66.30220 65.69380
# Shear Modulus (GPa) = -1.69688 21.64510 9.97411
#
# Velocity S-wave (km/s) = -0.85214 3.04345 2.06597
# Velocity P-wave (km/s) = 5.18495 6.38144 5.81405
#
# Compressibility (1/GPa) = 0.01536443
#
# Stress axis : x y z
#
# Youngs Moduli (GPa) = 73.67544 30.59773 60.67510
#
# Poissons Ratio (x) = 0.39645 -0.16730
# Poissons Ratio (y) = 0.95460 0.81830
# Poissons Ratio (z) = -0.20315 0.41266
#
# Static dielectric constant tensor:
#      x y z
#    x 1.863140 0.000000 0.000000 
#    y 0.000000 1.861230 0.000000 
#    z 0.000000 0.000000 1.907320 
# 
# From -- ./inp_files/25010.got.cif
#   From: 2010.05.17/outbox.cif.g08.bks.cpg/sg72_13_cif.got.tgz:25010.got - 2010.06.03 17:03:01.
