data_PCOD9525681
_publ_section_title
;
Structure prediction by ZEFSAII (Michael W. Deem and Ramdas Pophale) SiO2 
 PCOD9525681
Probable space group: I B A M
;
_chemical_formula_sum "Si O2"
_cell_formula_units_Z 72
_cell_length_a 20.942691
_cell_length_b 20.494596
_cell_length_c 10.100640
_cell_angle_alpha 90.000000
_cell_angle_beta 90.000000
_cell_angle_gamma 90.000000
_cell_volume 4335.315807
_symmetry_space_group_name_H-M "I B A M"
_symmetry_group_IT_number 72
_symmetry_cell_setting 'orthorhombic'
loop_
_space_group_symop_operation_xyz
x,y,z
-x,-y,z
x,-y,1/2-z
-x,y,1/2-z
-x,-y,-z
x,y,-z
-x,y,1/2+z
x,-y,1/2+z
1/2+x,1/2+y,1/2+z
1/2-x,1/2-y,1/2+z
1/2+x,1/2-y,-z
1/2-x,1/2+y,-z
1/2-x,1/2-y,1/2-z
1/2+x,1/2+y,1/2-z
1/2-x,1/2+y,z
1/2+x,1/2-y,z
loop_
_atom_site_type_symbol
_atom_site_label
_atom_site_fract_x
_atom_site_fract_y
_atom_site_fract_z
Si Si1 0.298209 0.292958 0.340255
Si Si2 0.162973 0.500000 0.750000
Si Si3 0.054339 0.590570 0.647877
Si Si4 0.786979 0.945765 0.851056
Si Si5 0.941854 0.746422 0.846580
O O1 0.286381 0.283443 0.500000
O O2 0.250000 0.250000 0.250000
O O3 0.292398 0.370263 0.311050
O O4 0.371968 0.274130 0.313828
O O5 0.118363 0.551490 0.677228
O O6 0.211621 0.463048 0.653046
O O7 0.031820 0.577223 0.500000
O O8 0.064772 0.667965 0.661343
O O9 0.000000 0.571775 0.750000
O O10 0.814945 0.000000 0.750000
O O11 0.812017 0.953172 0.000000
O O12 0.000000 0.765898 0.750000
O O13 0.956635 0.763101 0.000000
#
# Coordination Sequence:
#
# PCOD9525681 Si02
#       5
#    16   8  16  16  16
#     4  10  20  35  55  82 109 140 180 226 271 320
#     4  10  19  30  50  68  97 132 174 200 258 308
#     4  10  20  32  46  67  96 133 170 207 248 302
#     4   9  20  34  51  74 103 134 169 212 262 314
#     4   9  19  35  54  75 104 137 174 219 266 313
#
# _framework density 16.607786999999998
#
# number of rings (size 3 to 8) (size 9 to 14) (size 15 to 20)
#    0.667    1.778    0.000    2.333    0.000    4.444 
#    0.000    4.444    0.000    0.667    0.000    4.667 
#    0.000    0.000    0.000    0.000    0.000    0.000 
#
# Total GULP energy -200422.391112 kJ/mol
# GULP energy per Si atom -5567.288642 kJ/mol
# Density = 1.656999 g / cm^3
# Si number density = 16.607787 Si / 1000 Ang^3
#
#
#
# Elastic Constant Matrix: (Units=GPa)
#
#
# Indices 1 2 3 4 5 6 
#
# 1 94.4527 40.2349 46.1608 0.0000 0.0000 0.0000
# 2 40.2349 98.5973 56.5668 0.0000 0.0000 0.0000
# 3 46.1608 56.5668 97.6637 0.0000 0.0000 0.0000
# 4 0.0000 0.0000 0.0000 18.5271 0.0000 0.0000
# 5 0.0000 0.0000 0.0000 0.0000 24.8237 0.0000
# 6 0.0000 0.0000 0.0000 0.0000 0.0000 37.6594
#
#
#
# Elastic Compliance Matrix: (Units=1/GPa)
#
#
# Indices 1 2 3 4 5 6 
#
# 1 0.014313 -0.002935 -0.005065 0.000000 0.000000 0.000000
# 2 -0.002935 0.015791 -0.007759 0.000000 0.000000 0.000000
# 3 -0.005065 -0.007759 0.017127 0.000000 0.000000 0.000000
# 4 0.000000 0.000000 0.000000 0.053975 0.000000 0.000000
# 5 0.000000 0.000000 0.000000 0.000000 0.040284 0.000000
# 6 0.000000 0.000000 0.000000 0.000000 0.000000 0.026554
#
#
# Mechanical properties :
#
#
# Convention : Reuss Voigt Hill
#
# Bulk Modulus (GPa) = 63.64008 64.07095 63.85552
# Shear Modulus (GPa) = 24.41396 26.05214 25.23305
#
# Velocity S-wave (km/s) = 3.83826 3.96494 3.90211
# Velocity P-wave (km/s) = 7.61876 7.72163 7.67037
#
# Compressibility (1/GPa) = 0.01571337
#
# Stress axis : x y z
#
# Youngs Moduli (GPa) = 69.86705 63.32521 58.38572
#
# Poissons Ratio (x) = 0.18584 0.29574
# Poissons Ratio (y) = 0.20504 0.45303
# Poissons Ratio (z) = 0.35389 0.49136
#
# Static dielectric constant tensor:
#      x y z
#    x 1.537970 0.000000 0.000000 
#    y 0.000000 1.562750 0.000000 
#    z 0.000000 0.000000 1.579490 
# 
# From -- ./inp_files/13698.got.cif
#   From: 2010.05.17/outbox.cif.g08.bks.cpg/sg72_7_cif.got.tgz:13698.got - 2010.06.03 17:03:01.
