data_PCOD9525663
_publ_section_title
;
Structure prediction by ZEFSAII (Michael W. Deem and Ramdas Pophale) SiO2 
 PCOD9525663
Probable space group: I B A M
;
_chemical_formula_sum "Si O2"
_cell_formula_units_Z 96
_cell_length_a 20.005789
_cell_length_b 31.855293
_cell_length_c 9.126341
_cell_angle_alpha 90.000000
_cell_angle_beta 90.000000
_cell_angle_gamma 90.000000
_cell_volume 5816.128323
_symmetry_space_group_name_H-M "I B A M"
_symmetry_group_IT_number 72
_symmetry_cell_setting 'orthorhombic'
loop_
_space_group_symop_operation_xyz
x,y,z
-x,-y,z
x,-y,1/2-z
-x,y,1/2-z
-x,-y,-z
x,y,-z
-x,y,1/2+z
x,-y,1/2+z
1/2+x,1/2+y,1/2+z
1/2-x,1/2-y,1/2+z
1/2+x,1/2-y,-z
1/2-x,1/2+y,-z
1/2-x,1/2-y,1/2-z
1/2+x,1/2+y,1/2-z
1/2-x,1/2+y,z
1/2+x,1/2-y,z
loop_
_atom_site_type_symbol
_atom_site_label
_atom_site_fract_x
_atom_site_fract_y
_atom_site_fract_z
Si Si1 0.163381 0.041484 0.832732
Si Si2 0.570774 0.704899 0.324108
Si Si3 0.173756 0.542326 0.169542
Si Si4 0.176468 0.133567 0.821936
Si Si5 0.820674 0.628804 0.176228
Si Si6 0.570679 0.801102 0.324364
O O1 0.244783 0.041053 0.830337
O O2 0.146518 0.088089 0.776498
O O3 0.140030 0.000000 0.750000
O O4 0.141272 0.038447 0.000000
O O5 0.500000 0.695142 0.250000
O O6 0.563116 0.703156 0.500000
O O7 0.627393 0.671487 0.283674
O O8 0.588786 0.753003 0.284310
O O9 0.150674 0.500000 0.250000
O O10 0.155541 0.584445 0.256507
O O11 0.152630 0.543831 0.000000
O O12 0.248290 0.138059 0.746131
O O13 0.185207 0.132207 0.000000
O O14 0.872301 0.665681 0.214676
O O15 0.815286 0.625576 0.000000
O O16 0.500000 0.811030 0.250000
O O17 0.562459 0.802492 0.500000
#
# Coordination Sequence:
#
# PCOD9525663 Si02
#       6
#    16  16  16  16  16  16
#     4   8  14  24  39  61  88 118 150 183 222 269
#     4   9  18  34  52  69  92 123 160 199 240 289
#     4   9  16  27  44  67  95 127 159 191 232 279
#     4   9  18  31  47  69  97 126 156 195 243 287
#     4  10  19  30  46  72 101 125 156 197 237 280
#     4   9  19  34  51  70  93 124 160 197 238 287
#
# _framework density 16.505825000000002
#
# number of rings (size 3 to 8) (size 9 to 14) (size 15 to 20)
#    0.000    3.000    0.000    2.000    0.000    6.667 
#    0.000    0.000    0.000    1.000    0.000    7.000 
#    0.000    0.000    0.000    0.000    0.000    0.000 
#
# Total GULP energy -267315.110774 kJ/mol
# GULP energy per Si atom -5569.064808 kJ/mol
# Density = 1.646826 g / cm^3
# Si number density = 16.505825 Si / 1000 Ang^3
#
#
#
# Elastic Constant Matrix: (Units=GPa)
#
#
# Indices 1 2 3 4 5 6 
#
# 1 65.1392 90.1561 36.8369 0.0000 0.0000 0.0000
# 2 90.1561 174.5487 63.5552 0.0000 0.0000 0.0000
# 3 36.8369 63.5552 48.5081 0.0002 0.0004 0.0001
# 4 0.0000 0.0000 0.0002 27.3849 0.0001 -0.0001
# 5 0.0000 0.0000 0.0004 0.0001 20.4545 0.0001
# 6 0.0000 0.0000 0.0001 -0.0001 0.0001 -4.9468
#
#
#
# Elastic Compliance Matrix: (Units=1/GPa)
#
#
# Indices 1 2 3 4 5 6 
#
# 1 0.055745 -0.025584 -0.008812 0.000000 0.000000 0.000000
# 2 -0.025584 0.022697 -0.010309 0.000000 0.000000 0.000000
# 3 -0.008812 -0.010309 0.040814 0.000000 -0.000001 0.000001
# 4 0.000000 0.000000 0.000000 0.036516 0.000000 -0.000001
# 5 0.000000 0.000000 -0.000001 0.000000 0.048889 0.000001
# 6 0.000000 0.000000 0.000001 -0.000001 0.000001 -0.202151
#
#
# Mechanical properties :
#
#
# Convention : Reuss Voigt Hill
#
# Bulk Modulus (GPa) = 33.50633 74.36585 53.93609
# Shear Modulus (GPa) = 49.08144 15.08837 32.08491
#
# Velocity S-wave (km/s) = 5.45897 3.02673 4.41370
# Velocity P-wave (km/s) = 7.75098 7.57409 7.66304
#
# Compressibility (1/GPa) = 0.02984511
#
# Stress axis : x y z
#
# Youngs Moduli (GPa) = 17.93877 44.05800 24.50112
#
# Poissons Ratio (x) = 1.12719 0.21591
# Poissons Ratio (y) = 0.45895 0.25259
# Poissons Ratio (z) = 0.15808 0.45421
#
# Static dielectric constant tensor:
#      x y z
#    x 1.515500 0.000000 0.000000 
#    y 0.000000 1.578300 0.000000 
#    z 0.000000 0.000000 1.560580 
# 
# From -- ./inp_files/6016.got.cif
#   From: 2010.05.17/outbox.cif.g08.bks.cpg/sg72_4_cif.got.tgz:6016.got - 2010.06.03 17:03:01.
