data_PCOD9525133
_publ_section_title
;
Structure prediction by ZEFSAII (Michael W. Deem and Ramdas Pophale) SiO2 
 PCOD9525133
Probable space group: I B A M
;
_chemical_formula_sum "Si O2"
_cell_formula_units_Z 68
_cell_length_a 20.146058
_cell_length_b 13.324698
_cell_length_c 10.304262
_cell_angle_alpha 90.000000
_cell_angle_beta 90.000000
_cell_angle_gamma 90.000000
_cell_volume 2766.077521
_symmetry_space_group_name_H-M "I B A M"
_symmetry_group_IT_number 72
_symmetry_cell_setting 'orthorhombic'
loop_
_space_group_symop_operation_xyz
x,y,z
-x,-y,z
x,-y,1/2-z
-x,y,1/2-z
-x,-y,-z
x,y,-z
-x,y,1/2+z
x,-y,1/2+z
1/2+x,1/2+y,1/2+z
1/2-x,1/2-y,1/2+z
1/2+x,1/2-y,-z
1/2-x,1/2+y,-z
1/2-x,1/2-y,1/2-z
1/2+x,1/2+y,1/2-z
1/2-x,1/2+y,z
1/2+x,1/2-y,z
loop_
_atom_site_type_symbol
_atom_site_label
_atom_site_fract_x
_atom_site_fract_y
_atom_site_fract_z
Si Si1 0.000000 0.500000 0.750000
Si Si2 0.293774 0.649283 0.000000
Si Si3 0.234649 0.621971 0.738458
Si Si4 0.000000 0.840740 0.750000
Si Si5 0.568868 0.573857 0.500000
Si Si6 0.097007 0.668383 0.848301
Si Si7 0.682368 0.577657 0.000000
O O1 0.047025 0.574127 0.832526
O O2 0.265384 0.678530 0.862839
O O3 0.372434 0.656573 0.000000
O O4 0.280248 0.529628 0.000000
O O5 0.232351 0.500000 0.750000
O O6 0.157327 0.651269 0.747598
O O7 0.289310 0.632628 0.624902
O O8 0.030377 0.904606 0.632156
O O9 0.056166 0.767668 0.810297
O O10 0.892615 0.965913 0.500000
O O11 0.119156 0.673592 0.000000
#
# Coordination Sequence:
#
# PCOD9525133 Si02
#       7
#     4   8  16   8   8  16   8
#     4  10  22  28  52  94 132 168 208 270 356 388
#     4   8  18  35  66  86 125 162 212 282 335 391
#     4  10  17  35  64  95 121 156 207 293 354 373
#     4  11  24  43  62  91 138 199 224 260 316 417
#     4  10  22  44  64  86 134 184 235 259 316 414
#     4  11  21  36  60  93 134 167 223 280 334 407
#     4   8  20  35  66  96 123 161 211 285 348 390
#
# _framework density 24.583546999999999
#
# number of rings (size 3 to 8) (size 9 to 14) (size 15 to 20)
#    0.706    1.412    3.529    0.353    0.000    0.941 
#    2.118    3.529    0.000    8.471    0.000    0.000 
#    0.000    0.000    0.000    0.000    0.000    0.000 
#
# Total GULP energy -189813.403907 kJ/mol
# GULP energy per Si atom -5582.747174 kJ/mol
# Density = 2.452759 g / cm^3
# Si number density = 24.583547 Si / 1000 Ang^3
#
#
#
# Elastic Constant Matrix: (Units=GPa)
#
#
# Indices 1 2 3 4 5 6 
#
# 1 169.8639 62.6804 94.5251 0.0000 0.0000 0.0000
# 2 62.6804 137.0092 61.9745 0.0000 0.0000 0.0000
# 3 94.5251 61.9745 185.1806 0.0000 0.0000 0.0000
# 4 0.0000 0.0000 0.0000 -9.6656 0.0000 0.0000
# 5 0.0000 0.0000 0.0000 0.0000 50.1038 0.0000
# 6 0.0000 0.0000 0.0000 0.0000 0.0000 47.1622
#
#
#
# Elastic Compliance Matrix: (Units=1/GPa)
#
#
# Indices 1 2 3 4 5 6 
#
# 1 0.008824 -0.002356 -0.003716 0.000000 0.000000 0.000000
# 2 -0.002356 0.009230 -0.001886 0.000000 0.000000 0.000000
# 3 -0.003716 -0.001886 0.007928 0.000000 0.000000 0.000000
# 4 0.000000 0.000000 0.000000 -0.103460 0.000000 0.000000
# 5 0.000000 0.000000 0.000000 0.000000 0.019959 0.000000
# 6 0.000000 0.000000 0.000000 0.000000 0.000000 0.021203
#
#
# Mechanical properties :
#
#
# Convention : Reuss Voigt Hill
#
# Bulk Modulus (GPa) = 99.34611 103.37928 101.36269
# Shear Modulus (GPa) = -293.35986 35.71167 -128.82409
#
# Velocity S-wave (km/s) = -10.93576 3.81552 -7.24682
# Velocity P-wave (km/s) = 10.90665 7.84566 5.35727
#
# Compressibility (1/GPa) = 0.01006582
#
# Stress axis : x y z
#
# Youngs Moduli (GPa) = 113.32402 108.34276 126.13341
#
# Poissons Ratio (x) = 0.25528 0.46868
# Poissons Ratio (y) = 0.26702 0.23792
# Poissons Ratio (z) = 0.42108 0.20436
#
# Static dielectric constant tensor:
#      x y z
#    x 1.947550 0.000000 0.000000 
#    y 0.000000 1.957400 0.000000 
#    z 0.000000 0.000000 1.997530 
# 
# From -- ./inp_files/14553.got.cif
#   From: 2010.05.17/outbox.cif.g08.bks.cpg/sg72_8_cif.got.tgz:14553.got - 2010.06.03 17:03:01.
