data_PCOD9525040
_publ_section_title
;
Structure prediction by ZEFSAII (Michael W. Deem and Ramdas Pophale) SiO2 
 PCOD9525040
Probable space group: I B A M
;
_chemical_formula_sum "Si O2"
_cell_formula_units_Z 80
_cell_length_a 18.231506
_cell_length_b 29.011794
_cell_length_c 8.612152
_cell_angle_alpha 90.000000
_cell_angle_beta 90.000000
_cell_angle_gamma 90.000000
_cell_volume 4555.214330
_symmetry_space_group_name_H-M "I B A M"
_symmetry_group_IT_number 72
_symmetry_cell_setting 'orthorhombic'
loop_
_space_group_symop_operation_xyz
x,y,z
-x,-y,z
x,-y,1/2-z
-x,y,1/2-z
-x,-y,-z
x,y,-z
-x,y,1/2+z
x,-y,1/2+z
1/2+x,1/2+y,1/2+z
1/2-x,1/2-y,1/2+z
1/2+x,1/2-y,-z
1/2-x,1/2+y,-z
1/2-x,1/2-y,1/2-z
1/2+x,1/2+y,1/2-z
1/2-x,1/2+y,z
1/2+x,1/2-y,z
loop_
_atom_site_type_symbol
_atom_site_label
_atom_site_fract_x
_atom_site_fract_y
_atom_site_fract_z
Si Si1 0.768986 0.448468 0.184938
Si Si2 0.291695 0.639554 0.313999
Si Si3 0.574807 0.947620 0.685606
Si Si4 0.809607 0.713739 0.313221
Si Si5 0.919089 0.788869 0.686717
O O1 0.756078 0.500000 0.250000
O O2 0.710002 0.410965 0.239965
O O3 0.847231 0.430834 0.251993
O O4 0.773420 0.450818 0.000000
O O5 0.292083 0.636333 0.500000
O O6 0.218162 0.666437 0.260057
O O7 0.360827 0.671472 0.264561
O O8 0.500000 0.925153 0.750000
O O9 0.573658 0.947863 0.500000
O O10 0.573768 0.000000 0.750000
O O11 0.806070 0.710539 0.500000
O O12 0.750000 0.750000 0.250000
O O13 0.885766 0.738638 0.269050
O O14 0.920652 0.790100 0.500000
O O15 0.000000 0.796078 0.750000
#
# Coordination Sequence:
#
# PCOD9525040 Si02
#       5
#    16  16  16  16  16
#     4  11  21  34  52  75 102 138 180 223 266 313
#     4  10  20  35  53  77 105 137 175 218 261 310
#     4  10  17  28  45  66  92 123 160 205 251 299
#     4   9  17  31  50  75 102 132 166 205 251 306
#     4   9  19  33  53  79 108 136 169 209 256 312
#
# _framework density 17.562290999999998
#
# number of rings (size 3 to 8) (size 9 to 14) (size 15 to 20)
#    0.000    2.200    0.000    7.800    0.000    4.800 
#    0.000    1.000    0.000    3.000    0.000    4.200 
#    0.000    0.000    0.000    0.000    0.000    0.000 
#
# Total GULP energy -222854.072531 kJ/mol
# GULP energy per Si atom -5571.351813 kJ/mol
# Density = 1.752232 g / cm^3
# Si number density = 17.562291 Si / 1000 Ang^3
#
#
#
# Elastic Constant Matrix: (Units=GPa)
#
#
# Indices 1 2 3 4 5 6 
#
# 1 102.6603 49.0262 32.1255 0.0000 0.0000 0.0000
# 2 49.0262 102.8899 32.9779 0.0000 0.0000 0.0000
# 3 32.1255 32.9779 107.8517 0.0000 0.0002 0.0000
# 4 0.0000 0.0000 0.0000 25.0367 0.0000 0.0000
# 5 0.0000 0.0000 0.0002 0.0000 28.3964 0.0000
# 6 0.0000 0.0000 0.0000 0.0000 0.0000 20.4397
#
#
#
# Elastic Compliance Matrix: (Units=1/GPa)
#
#
# Indices 1 2 3 4 5 6 
#
# 1 0.013067 -0.005520 -0.002204 0.000000 0.000000 0.000000
# 2 -0.005520 0.013107 -0.002364 0.000000 0.000000 0.000000
# 3 -0.002204 -0.002364 0.010651 0.000000 0.000000 0.000000
# 4 0.000000 0.000000 0.000000 0.039941 0.000000 0.000000
# 5 0.000000 0.000000 0.000000 0.000000 0.035216 0.000000
# 6 0.000000 0.000000 0.000000 0.000000 0.000000 0.048924
#
#
# Mechanical properties :
#
#
# Convention : Reuss Voigt Hill
#
# Bulk Modulus (GPa) = 60.06155 60.18458 60.12306
# Shear Modulus (GPa) = 26.79083 28.05939 27.42511
#
# Velocity S-wave (km/s) = 3.90997 4.00147 3.95598
# Velocity P-wave (km/s) = 7.39305 7.46275 7.42798
#
# Compressibility (1/GPa) = 0.01664959
#
# Stress axis : x y z
#
# Youngs Moduli (GPa) = 76.53094 76.29676 93.88517
#
# Poissons Ratio (x) = 0.42113 0.20696
# Poissons Ratio (y) = 0.42242 0.22190
# Poissons Ratio (z) = 0.16870 0.18033
#
# Static dielectric constant tensor:
#      x y z
#    x 1.627970 0.000000 0.000000 
#    y 0.000000 1.583710 0.000000 
#    z 0.000000 0.000000 1.583370 
# 
# From -- ./inp_files/4999.got.cif
#   From: 2010.05.17/outbox.cif.g08.bks.cpg/sg72_3_cif.got.tgz:4999.got - 2010.06.03 17:03:01.
