data_PCOD9525838
_publ_section_title
;
Structure prediction by ZEFSAII (Michael W. Deem and Ramdas Pophale) SiO2 
 PCOD9525838
Probable space group: I B A M
;
_chemical_formula_sum "Si O2"
_cell_formula_units_Z 88
_cell_length_a 12.708121
_cell_length_b 18.659036
_cell_length_c 22.077168
_cell_angle_alpha 90.000000
_cell_angle_beta 90.000000
_cell_angle_gamma 90.000000
_cell_volume 5234.966495
_symmetry_space_group_name_H-M "I B A M"
_symmetry_group_IT_number 72
_symmetry_cell_setting 'orthorhombic'
loop_
_space_group_symop_operation_xyz
x,y,z
-x,-y,z
x,-y,1/2-z
-x,y,1/2-z
-x,-y,-z
x,y,-z
-x,y,1/2+z
x,-y,1/2+z
1/2+x,1/2+y,1/2+z
1/2-x,1/2-y,1/2+z
1/2+x,1/2-y,-z
1/2-x,1/2+y,-z
1/2-x,1/2-y,1/2-z
1/2+x,1/2+y,1/2-z
1/2-x,1/2+y,z
1/2+x,1/2-y,z
loop_
_atom_site_type_symbol
_atom_site_label
_atom_site_fract_x
_atom_site_fract_y
_atom_site_fract_z
Si Si1 0.500000 0.303984 0.750000
Si Si2 0.445113 0.210195 0.071069
Si Si3 0.134600 0.271138 0.150751
Si Si4 0.145434 0.845576 0.856069
Si Si5 0.276907 0.358580 0.428669
Si Si6 0.374654 0.488557 0.929326
O O1 0.420166 0.254481 0.712144
O O2 0.568058 0.348041 0.701512
O O3 0.547176 0.189499 0.109711
O O4 0.404693 0.286224 0.098256
O O5 0.347606 0.155659 0.078202
O O6 0.468822 0.217333 0.000000
O O7 0.239846 0.315939 0.161128
O O8 0.166041 0.200399 0.112324
O O9 0.154791 0.921153 0.888816
O O10 0.302588 0.346684 0.500000
O O11 0.315556 0.437913 0.412735
O O12 0.500000 0.500000 0.924195
O O13 0.351167 0.473366 0.000000
#
# Coordination Sequence:
#
# PCOD9525838 Si02
#       6
#     8  16  16  16  16  16
#     4  10  20  34  51  72  99 128 168 218 252 276
#     4   9  17  30  50  76 102 129 163 203 245 294
#     4  10  19  33  53  73  97 131 170 207 244 292
#     4  10  20  33  51  74  98 131 170 205 245 295
#     4   9  18  32  50  75 106 133 158 197 251 302
#     4  10  19  32  51  76 105 130 155 196 251 304
#
# _framework density 16.810040999999998
#
# number of rings (size 3 to 8) (size 9 to 14) (size 15 to 20)
#    0.000    2.364    0.000    3.818    0.000    3.636 
#    0.000    5.000    0.000    3.273    0.000   11.455 
#    0.000    0.000    0.000    0.000    0.000    0.000 
#
# Total GULP energy -245477.197231 kJ/mol
# GULP energy per Si atom -5579.027210 kJ/mol
# Density = 1.677178 g / cm^3
# Si number density = 16.810041 Si / 1000 Ang^3
#
#
#
# Elastic Constant Matrix: (Units=GPa)
#
#
# Indices 1 2 3 4 5 6 
#
# 1 88.5327 49.6787 37.4346 0.0000 0.0000 0.0000
# 2 49.6787 106.9233 48.8251 0.0000 0.0000 0.0000
# 3 37.4346 48.8251 71.9274 0.0000 0.0000 0.0000
# 4 0.0000 0.0000 0.0000 13.2176 0.0000 0.0000
# 5 0.0000 0.0000 0.0000 0.0000 22.3385 0.0000
# 6 0.0000 0.0000 0.0000 0.0000 0.0000 15.2070
#
#
#
# Elastic Compliance Matrix: (Units=1/GPa)
#
#
# Indices 1 2 3 4 5 6 
#
# 1 0.016375 -0.005386 -0.004866 0.000000 0.000000 0.000000
# 2 -0.005386 0.015325 -0.007600 0.000000 0.000000 0.000000
# 3 -0.004866 -0.007600 0.021594 0.000000 0.000000 0.000000
# 4 0.000000 0.000000 0.000000 0.075657 0.000000 0.000000
# 5 0.000000 0.000000 0.000000 0.000000 0.044766 0.000000
# 6 0.000000 0.000000 0.000000 0.000000 0.000000 0.065759
#
#
# Mechanical properties :
#
#
# Convention : Reuss Voigt Hill
#
# Bulk Modulus (GPa) = 56.84890 59.91780 58.38335
# Shear Modulus (GPa) = 17.79078 18.91564 18.35321
#
# Velocity S-wave (km/s) = 3.25675 3.35813 3.30783
# Velocity P-wave (km/s) = 6.93064 7.12443 7.02820
#
# Compressibility (1/GPa) = 0.01759049
#
# Stress axis : x y z
#
# Youngs Moduli (GPa) = 61.06779 65.25142 46.30818
#
# Poissons Ratio (x) = 0.35145 0.22535
# Poissons Ratio (y) = 0.32892 0.35193
# Poissons Ratio (z) = 0.29718 0.49590
#
# Static dielectric constant tensor:
#      x y z
#    x 1.582340 0.000000 0.000000 
#    y 0.000000 1.529880 0.000000 
#    z 0.000000 0.000000 1.567070 
# 
# From -- ./inp_files/36852.got.cif
#   From: 2010.05.17/outbox.cif.g08.bks.cpg/sg72_19_cif.got.tgz:36852.got - 2010.06.03 17:03:01.
