data_PCOD9525638
_publ_section_title
;
Structure prediction by ZEFSAII (Michael W. Deem and Ramdas Pophale) SiO2 
 PCOD9525638
Probable space group: I B A M
;
_chemical_formula_sum "Si O2"
_cell_formula_units_Z 112
_cell_length_a 13.092431
_cell_length_b 30.328528
_cell_length_c 14.278030
_cell_angle_alpha 90.000000
_cell_angle_beta 90.000000
_cell_angle_gamma 90.000000
_cell_volume 5669.436771
_symmetry_space_group_name_H-M "I B A M"
_symmetry_group_IT_number 72
_symmetry_cell_setting 'orthorhombic'
loop_
_space_group_symop_operation_xyz
x,y,z
-x,-y,z
x,-y,1/2-z
-x,y,1/2-z
-x,-y,-z
x,y,-z
-x,y,1/2+z
x,-y,1/2+z
1/2+x,1/2+y,1/2+z
1/2-x,1/2-y,1/2+z
1/2+x,1/2-y,-z
1/2-x,1/2+y,-z
1/2-x,1/2-y,1/2-z
1/2+x,1/2+y,1/2-z
1/2-x,1/2+y,z
1/2+x,1/2-y,z
loop_
_atom_site_type_symbol
_atom_site_label
_atom_site_fract_x
_atom_site_fract_y
_atom_site_fract_z
Si Si1 0.722763 0.747604 0.608035
Si Si2 0.719491 0.935880 0.887960
Si Si3 0.869270 0.339422 0.391974
Si Si4 0.510202 0.078888 0.110593
Si Si5 0.693614 0.385430 0.276434
Si Si6 0.386984 0.703885 0.729003
Si Si7 0.272507 0.962402 0.111880
O O1 0.733059 0.734557 0.500000
O O2 0.638297 0.787073 0.614752
O O3 0.683712 0.710744 0.679048
O O4 0.827118 0.769364 0.647985
O O5 0.601646 0.932027 0.853768
O O6 0.786605 0.902061 0.828403
O O7 0.747889 0.986596 0.868589
O O8 0.724383 0.928221 0.000000
O O9 0.836109 0.349697 0.500000
O O10 0.969567 0.368739 0.377631
O O11 0.791177 0.359008 0.317410
O O12 0.611477 0.052159 0.141416
O O13 0.504662 0.069144 0.000000
O O14 0.608691 0.348358 0.290948
O O15 0.693906 0.429597 0.338358
O O16 0.500000 0.720590 0.750000
O O17 0.268234 0.956266 0.000000
#
# Coordination Sequence:
#
# PCOD9525638 Si02
#       7
#    16  16  16  16  16  16  16
#     4   9  19  39  62  86 116 149 183 231 290 352
#     4  10  19  29  43  70 109 147 183 226 280 337
#     4   8  15  30  50  73 103 138 178 219 263 327
#     4   8  14  26  43  69 103 138 177 221 266 326
#     4  10  19  32  50  72 100 139 178 227 276 331
#     4  10  22  40  60  87 114 143 190 241 285 344
#     4   9  17  30  49  71 100 141 188 234 279 336
#
# _framework density 19.755047999999999
#
# number of rings (size 3 to 8) (size 9 to 14) (size 15 to 20)
#    0.000    2.857    0.000    2.143    0.000    5.714 
#    7.714    2.857    0.000    1.714    0.000    2.000 
#    0.000    0.000    0.000    0.000    0.000    0.000 
#
# Total GULP energy -311863.129247 kJ/mol
# GULP energy per Si atom -5568.984451 kJ/mol
# Density = 1.971009 g / cm^3
# Si number density = 19.755048 Si / 1000 Ang^3
#
#
#
# Elastic Constant Matrix: (Units=GPa)
#
#
# Indices 1 2 3 4 5 6 
#
# 1 37.4654 3.3760 7.5323 -0.0002 -0.0001 0.0008
# 2 3.3760 36.6296 2.9335 -0.0003 -0.0002 0.0004
# 3 7.5323 2.9335 90.2972 -0.0012 0.0000 0.0024
# 4 -0.0002 -0.0003 -0.0012 29.0178 0.0000 0.0004
# 5 -0.0001 -0.0002 0.0000 0.0000 10.8284 -0.0005
# 6 0.0008 0.0004 0.0024 0.0004 -0.0005 4.1680
#
#
#
# Elastic Compliance Matrix: (Units=1/GPa)
#
#
# Indices 1 2 3 4 5 6 
#
# 1 0.027346 -0.002344 -0.002205 0.000000 0.000000 -0.000004
# 2 -0.002344 0.027572 -0.000700 0.000000 0.000000 -0.000002
# 3 -0.002205 -0.000700 0.011281 0.000000 0.000000 -0.000006
# 4 0.000000 0.000000 0.000000 0.034462 0.000000 -0.000004
# 5 0.000000 0.000000 0.000000 0.000000 0.092350 0.000012
# 6 -0.000004 -0.000002 -0.000006 -0.000004 0.000012 0.239924
#
#
# Mechanical properties :
#
#
# Convention : Reuss Voigt Hill
#
# Bulk Modulus (GPa) = 17.95284 21.34176 19.64730
# Shear Modulus (GPa) = 10.82251 18.83954 14.83102
#
# Velocity S-wave (km/s) = 2.34313 3.09148 2.74295
# Velocity P-wave (km/s) = 4.05312 4.85486 4.47199
#
# Compressibility (1/GPa) = 0.05570148
#
# Stress axis : x y z
#
# Youngs Moduli (GPa) = 36.56870 36.26810 88.64290
#
# Poissons Ratio (x) = 0.08500 0.19545
# Poissons Ratio (y) = 0.08571 0.06207
# Poissons Ratio (z) = 0.08063 0.02540
#
# Static dielectric constant tensor:
#      x y z
#    x 1.682470 0.000000 0.000000 
#    y 0.000000 1.742060 0.000000 
#    z 0.000000 0.000000 1.726820 
# 
# From -- ./inp_files/20667.got.cif
#   From: 2010.05.17/outbox.cif.g08.bks.cpg/sg72_11_cif.got.tgz:20667.got - 2010.06.03 17:03:01.
