data_PCOD9525766
_publ_section_title
;
Structure prediction by ZEFSAII (Michael W. Deem and Ramdas Pophale) SiO2 
 PCOD9525766
Probable space group: I B A M
;
_chemical_formula_sum "Si O2"
_cell_formula_units_Z 112
_cell_length_a 26.588060
_cell_length_b 14.595185
_cell_length_c 16.293419
_cell_angle_alpha 90.000000
_cell_angle_beta 90.000000
_cell_angle_gamma 90.000000
_cell_volume 6322.785961
_symmetry_space_group_name_H-M "I B A M"
_symmetry_group_IT_number 72
_symmetry_cell_setting 'orthorhombic'
loop_
_space_group_symop_operation_xyz
x,y,z
-x,-y,z
x,-y,1/2-z
-x,y,1/2-z
-x,-y,-z
x,y,-z
-x,y,1/2+z
x,-y,1/2+z
1/2+x,1/2+y,1/2+z
1/2-x,1/2-y,1/2+z
1/2+x,1/2-y,-z
1/2-x,1/2+y,-z
1/2-x,1/2-y,1/2-z
1/2+x,1/2+y,1/2-z
1/2-x,1/2+y,z
1/2+x,1/2-y,z
loop_
_atom_site_type_symbol
_atom_site_label
_atom_site_fract_x
_atom_site_fract_y
_atom_site_fract_z
Si Si1 0.939397 0.888850 0.000000
Si Si2 0.784458 0.461438 0.593032
Si Si3 0.224836 0.740861 0.660855
Si Si4 0.315315 0.520457 0.337634
Si Si5 0.885227 0.810687 0.341204
Si Si6 0.319708 0.154349 0.903592
Si Si7 0.440445 0.607541 0.500000
Si Si8 0.618615 0.653290 0.339412
O O1 0.916244 0.841575 0.081043
O O2 0.999513 0.883743 0.000000
O O3 0.926996 0.998682 0.000000
O O4 0.800776 0.443702 0.500000
O O5 0.783805 0.365622 0.640135
O O6 0.726177 0.493670 0.594234
O O7 0.813904 0.549725 0.626066
O O8 0.250000 0.750000 0.750000
O O9 0.266383 0.792288 0.605274
O O10 0.170568 0.789421 0.655144
O O11 0.289525 0.500000 0.250000
O O12 0.336887 0.621722 0.341934
O O13 0.361722 0.451408 0.338785
O O14 0.862521 0.710746 0.356726
O O15 0.918480 0.844930 0.417677
O O16 0.906094 0.823090 0.248786
O O17 0.332047 0.152901 0.000000
#
# Coordination Sequence:
#
# PCOD9525766 Si02
#       8
#     8  16  16  16  16  16   8  16
#     4  11  26  40  59  93 115 157 195 254 325 355
#     4  11  24  33  50  83 122 160 200 245 281 343
#     4  12  22  36  54  83 122 167 201 236 287 353
#     4  10  19  31  51  79 114 156 196 235 283 348
#     4  11  21  38  60  82 111 162 203 243 293 361
#     4  11  22  34  53  84 115 157 207 234 289 353
#     4  11  24  42  65  83 117 151 205 258 309 379
#     4  11  23  37  56  85 120 158 201 241 297 361
#
# _framework density 17.713711
#
# number of rings (size 3 to 8) (size 9 to 14) (size 15 to 20)
#    0.000    1.000    6.429    1.286    4.000    0.571 
#    0.000    1.429    0.000    0.000    0.000    2.000 
#    0.000    2.286    0.000    0.000    0.000    0.000 
#
# Total GULP energy -312385.094316 kJ/mol
# GULP energy per Si atom -5578.305256 kJ/mol
# Density = 1.767339 g / cm^3
# Si number density = 17.713711 Si / 1000 Ang^3
#
#
#
# Elastic Constant Matrix: (Units=GPa)
#
#
# Indices 1 2 3 4 5 6 
#
# 1 57.7298 27.0443 50.6402 0.0000 0.0000 0.0000
# 2 27.0443 129.8734 48.0332 0.0000 0.0000 0.0000
# 3 50.6402 48.0332 130.4587 0.0000 0.0000 0.0000
# 4 0.0000 0.0000 0.0000 26.0857 0.0000 0.0000
# 5 0.0000 0.0000 0.0000 0.0000 13.2881 0.0000
# 6 0.0000 0.0000 0.0000 0.0000 0.0000 22.6282
#
#
#
# Elastic Compliance Matrix: (Units=1/GPa)
#
#
# Indices 1 2 3 4 5 6 
#
# 1 0.026707 -0.001999 -0.009631 0.000000 0.000000 0.000000
# 2 -0.001999 0.009063 -0.002561 0.000000 0.000000 0.000000
# 3 -0.009631 -0.002561 0.012346 0.000000 0.000000 0.000000
# 4 0.000000 0.000000 0.000000 0.038335 0.000000 0.000000
# 5 0.000000 0.000000 0.000000 0.000000 0.075255 0.000000
# 6 0.000000 0.000000 0.000000 0.000000 0.000000 0.044193
#
#
# Mechanical properties :
#
#
# Convention : Reuss Voigt Hill
#
# Bulk Modulus (GPa) = 50.67240 63.27748 56.97494
# Shear Modulus (GPa) = 20.75899 25.22334 22.99117
#
# Velocity S-wave (km/s) = 3.42704 3.77761 3.60659
# Velocity P-wave (km/s) = 6.65792 7.40453 7.04113
#
# Compressibility (1/GPa) = 0.01973461
#
# Stress axis : x y z
#
# Youngs Moduli (GPa) = 37.44398 110.33525 80.99508
#
# Poissons Ratio (x) = 0.22061 0.78003
# Poissons Ratio (y) = 0.07487 0.20742
# Poissons Ratio (z) = 0.36061 0.28255
#
# Static dielectric constant tensor:
#      x y z
#    x 1.572430 0.000000 0.000000 
#    y 0.000000 1.630760 0.000000 
#    z 0.000000 0.000000 1.681030 
# 
# From -- ./inp_files/25982.got.cif
#   From: 2010.05.17/outbox.cif.g08.bks.cpg/sg72_13_cif.got.tgz:25982.got - 2010.06.03 17:03:01.
