data_PCOD9525468
_publ_section_title
;
Structure prediction by ZEFSAII (Michael W. Deem and Ramdas Pophale) SiO2 
 PCOD9525468
Probable space group: I B A M
;
_chemical_formula_sum "Si O2"
_cell_formula_units_Z 60
_cell_length_a 18.314208
_cell_length_b 17.033485
_cell_length_c 9.188286
_cell_angle_alpha 90.000000
_cell_angle_beta 90.000000
_cell_angle_gamma 90.000000
_cell_volume 2866.329804
_symmetry_space_group_name_H-M "I B A M"
_symmetry_group_IT_number 72
_symmetry_cell_setting 'orthorhombic'
loop_
_space_group_symop_operation_xyz
x,y,z
-x,-y,z
x,-y,1/2-z
-x,y,1/2-z
-x,-y,-z
x,y,-z
-x,y,1/2+z
x,-y,1/2+z
1/2+x,1/2+y,1/2+z
1/2-x,1/2-y,1/2+z
1/2+x,1/2-y,-z
1/2-x,1/2+y,-z
1/2-x,1/2-y,1/2-z
1/2+x,1/2+y,1/2-z
1/2-x,1/2+y,z
1/2+x,1/2-y,z
loop_
_atom_site_type_symbol
_atom_site_label
_atom_site_fract_x
_atom_site_fract_y
_atom_site_fract_z
Si Si1 0.500000 0.500000 0.250000
Si Si2 0.655098 0.843918 0.750867
Si Si3 0.420205 0.769968 0.500000
Si Si4 0.654776 0.972068 0.000000
Si Si5 0.572222 0.601103 0.000000
Si Si6 0.452849 0.893575 0.000000
Si Si7 0.744404 0.373517 0.500000
O O1 0.547728 0.446231 0.357554
O O2 0.630397 0.775347 0.858007
O O3 0.587657 0.861607 0.643742
O O4 0.723413 0.832362 0.644604
O O5 0.665690 0.918370 0.858007
O O6 0.462631 0.688444 0.500000
O O7 0.469674 0.849014 0.500000
O O8 0.713159 0.042397 0.000000
O O9 0.575222 0.015316 0.000000
O O10 0.658957 0.613530 0.000000
#
# Coordination Sequence:
#
# PCOD9525468 Si02
#       7
#     4  16   8   8   8   8   8
#     4  10  28  54  68 106 104 148 226 278 332 418
#     4   9  20  35  58  97 132 166 223 237 300 386
#     4  11  23  38  60  93 134 176 200 263 308 370
#     4   9  18  35  59  96 131 169 223 243 286 392
#     4  11  27  47  75  92 122 154 214 275 344 381
#     4  10  18  32  57  87 131 185 203 250 295 348
#     4  10  20  39  65  90 128 175 198 267 306 361
#
# _framework density 20.932693
#
# number of rings (size 3 to 8) (size 9 to 14) (size 15 to 20)
#    0.000    2.400    0.000    4.000    7.467    3.200 
#    0.000   10.667    0.000    1.600    0.000    0.000 
#    0.000    0.000    0.000    0.000    0.000    0.000 
#
# Total GULP energy -167406.986103 kJ/mol
# GULP energy per Si atom -5580.232870 kJ/mol
# Density = 2.088505 g / cm^3
# Si number density = 20.932693 Si / 1000 Ang^3
#
#
#
# Elastic Constant Matrix: (Units=GPa)
#
#
# Indices 1 2 3 4 5 6 
#
# 1 113.1162 19.2451 44.2597 0.0000 0.0000 0.0000
# 2 19.2451 107.9932 41.3846 0.0000 0.0000 0.0000
# 3 44.2597 41.3846 179.1473 0.0000 0.0000 0.0000
# 4 0.0000 0.0000 0.0000 10.8397 0.0000 0.0000
# 5 0.0000 0.0000 0.0000 0.0000 -2.8534 0.0000
# 6 0.0000 0.0000 0.0000 0.0000 0.0000 27.0680
#
#
#
# Elastic Compliance Matrix: (Units=1/GPa)
#
#
# Indices 1 2 3 4 5 6 
#
# 1 0.009866 -0.000904 -0.002229 0.000000 0.000000 0.000000
# 2 -0.000904 0.010242 -0.002143 0.000000 0.000000 0.000000
# 3 -0.002229 -0.002143 0.006628 0.000000 0.000000 0.000000
# 4 0.000000 0.000000 0.000000 0.092253 0.000000 0.000000
# 5 0.000000 0.000000 0.000000 0.000000 -0.350456 0.000000
# 6 0.000000 0.000000 0.000000 0.000000 0.000000 0.036944
#
#
# Mechanical properties :
#
#
# Convention : Reuss Voigt Hill
#
# Bulk Modulus (GPa) = 61.78562 67.78174 64.78368
# Shear Modulus (GPa) = -27.99910 26.70203 -0.64854
#
# Velocity S-wave (km/s) = -3.66126 3.57545 -0.55722
# Velocity P-wave (km/s) = 3.42160 7.03535 5.53189
#
# Compressibility (1/GPa) = 0.01618500
#
# Stress axis : x y z
#
# Youngs Moduli (GPa) = 101.35483 97.63669 150.88479
#
# Poissons Ratio (x) = 0.08828 0.33627
# Poissons Ratio (y) = 0.09164 0.32329
# Poissons Ratio (z) = 0.22589 0.20920
#
# Static dielectric constant tensor:
#      x y z
#    x 1.759360 0.000000 0.000000 
#    y 0.000000 1.783970 0.000000 
#    z 0.000000 0.000000 1.768200 
# 
# From -- ./inp_files/4244.got.cif
#   From: 2010.05.17/outbox.cif.g08.bks.cpg/sg72_3_cif.got.tgz:4244.got - 2010.06.03 17:03:01.
