data_PCOD9525804
_publ_section_title
;
Structure prediction by ZEFSAII (Michael W. Deem and Ramdas Pophale) SiO2 
 PCOD9525804
Probable space group: I B A M
;
_chemical_formula_sum "Si O2"
_cell_formula_units_Z 116
_cell_length_a 25.700622
_cell_length_b 25.679315
_cell_length_c 7.786068
_cell_angle_alpha 90.000000
_cell_angle_beta 90.000000
_cell_angle_gamma 90.000000
_cell_volume 5138.605308
_symmetry_space_group_name_H-M "I B A M"
_symmetry_group_IT_number 72
_symmetry_cell_setting 'orthorhombic'
loop_
_space_group_symop_operation_xyz
x,y,z
-x,-y,z
x,-y,1/2-z
-x,y,1/2-z
-x,-y,-z
x,y,-z
-x,y,1/2+z
x,-y,1/2+z
1/2+x,1/2+y,1/2+z
1/2-x,1/2-y,1/2+z
1/2+x,1/2-y,-z
1/2-x,1/2+y,-z
1/2-x,1/2-y,1/2-z
1/2+x,1/2+y,1/2-z
1/2-x,1/2+y,z
1/2+x,1/2-y,z
loop_
_atom_site_type_symbol
_atom_site_label
_atom_site_fract_x
_atom_site_fract_y
_atom_site_fract_z
Si Si1 0.919652 0.921858 0.704639
Si Si2 0.442120 0.149848 0.805484
Si Si3 0.000000 0.000000 0.750000
Si Si4 0.618628 0.940325 0.703798
Si Si5 0.787039 0.635174 0.209942
Si Si6 0.856298 0.724339 0.193808
Si Si7 0.941110 0.196499 0.706068
Si Si8 0.198847 0.059015 0.293911
O O1 0.925487 0.934642 0.500000
O O2 0.934534 0.862039 0.728747
O O3 0.860690 0.932966 0.759754
O O4 0.958090 0.957804 0.813660
O O5 0.500000 0.161193 0.750000
O O6 0.429843 0.088856 0.788835
O O7 0.400592 0.179474 0.688910
O O8 0.433158 0.166909 0.000000
O O9 0.613557 0.935794 0.500000
O O10 0.669142 0.907268 0.758190
O O11 0.623780 0.000000 0.750000
O O12 0.807197 0.692193 0.270844
O O13 0.734163 0.607285 0.269162
O O14 0.785892 0.638693 0.000000
O O15 0.890998 0.770673 0.273569
O O16 0.841591 0.740111 0.000000
O O17 0.937863 0.197902 0.500000
O O18 0.000000 0.215052 0.750000
O O19 0.200085 0.062005 0.500000
O O20 0.216515 0.000000 0.250000
#
# Coordination Sequence:
#
# PCOD9525804 Si02
#       8
#    16  16   4  16  16  16  16  16
#     4  11  24  39  60  90 124 160 198 238 293 353
#     4  11  21  33  50  73 101 138 181 232 288 350
#     4  12  22  40  64  90 126 164 194 236 294 348
#     4  10  19  32  49  72 101 138 181 231 289 352
#     4   8  16  33  57  80 110 147 189 237 290 343
#     4   9  19  37  58  82 110 148 190 237 291 347
#     4  11  23  38  60  87 119 154 197 243 294 353
#     4  10  20  36  58  87 118 155 198 245 293 351
#
# _framework density 22.574218999999999
#
# number of rings (size 3 to 8) (size 9 to 14) (size 15 to 20)
#    0.000    1.931    1.379    3.931    0.000    3.586 
#    0.000    4.828    0.000    0.000    0.000    0.000 
#    0.000    0.000    0.000    0.000    0.000    0.000 
#
# Total GULP energy -323397.277034 kJ/mol
# GULP energy per Si atom -5575.815121 kJ/mol
# Density = 2.252284 g / cm^3
# Si number density = 22.574219 Si / 1000 Ang^3
#
#
#
# Elastic Constant Matrix: (Units=GPa)
#
#
# Indices 1 2 3 4 5 6 
#
# 1 122.8502 50.2495 9.5582 0.0000 0.0000 0.0000
# 2 50.2495 140.7242 4.3325 0.0000 0.0000 0.0000
# 3 9.5582 4.3325 70.2942 0.0000 0.0000 0.0000
# 4 0.0000 0.0000 0.0000 377.5203 0.0000 0.0000
# 5 0.0000 0.0000 0.0000 0.0000 3.4006 0.0000
# 6 0.0000 0.0000 0.0000 0.0000 0.0000 41.1835
#
#
#
# Elastic Compliance Matrix: (Units=1/GPa)
#
#
# Indices 1 2 3 4 5 6 
#
# 1 0.009616 -0.003400 -0.001098 0.000000 0.000000 0.000000
# 2 -0.003400 0.008322 -0.000051 0.000000 0.000000 0.000000
# 3 -0.001098 -0.000051 0.014378 0.000000 0.000000 0.000000
# 4 0.000000 0.000000 0.000000 0.002649 0.000000 0.000000
# 5 0.000000 0.000000 0.000000 0.000000 0.294067 0.000000
# 6 0.000000 0.000000 0.000000 0.000000 0.000000 0.024282
#
#
# Mechanical properties :
#
#
# Convention : Reuss Voigt Hill
#
# Bulk Modulus (GPa) = 43.06791 51.34988 47.20889
# Shear Modulus (GPa) = 13.50802 102.40276 57.95539
#
# Velocity S-wave (km/s) = 2.44884 6.74249 5.07238
# Velocity P-wave (km/s) = 5.20726 9.13299 7.43394
#
# Compressibility (1/GPa) = 0.02321915
#
# Stress axis : x y z
#
# Youngs Moduli (GPa) = 103.99251 120.16801 69.54908
#
# Poissons Ratio (x) = 0.40856 0.07636
# Poissons Ratio (y) = 0.35356 0.00352
# Poissons Ratio (z) = 0.11418 0.00608
#
# Static dielectric constant tensor:
#      x y z
#    x 1.851840 0.000000 0.000000 
#    y 0.000000 1.855420 0.000000 
#    z 0.000000 0.000000 1.918460 
# 
# From -- ./inp_files/8372.got.cif
#   From: 2010.05.17/outbox.cif.g08.bks.cpg/sg72_5_cif.got.tgz:8372.got - 2010.06.03 17:03:01.
