data_PCOD9525089
_publ_section_title
;
Structure prediction by ZEFSAII (Michael W. Deem and Ramdas Pophale) SiO2 
 PCOD9525089
Probable space group: I B A M
;
_chemical_formula_sum "Si O2"
_cell_formula_units_Z 72
_cell_length_a 5.538450
_cell_length_b 29.355255
_cell_length_c 18.859713
_cell_angle_alpha 90.000000
_cell_angle_beta 90.000000
_cell_angle_gamma 90.000000
_cell_volume 3066.261402
_symmetry_space_group_name_H-M "I B A M"
_symmetry_group_IT_number 72
_symmetry_cell_setting 'orthorhombic'
loop_
_space_group_symop_operation_xyz
x,y,z
-x,-y,z
x,-y,1/2-z
-x,y,1/2-z
-x,-y,-z
x,y,-z
-x,y,1/2+z
x,-y,1/2+z
1/2+x,1/2+y,1/2+z
1/2-x,1/2-y,1/2+z
1/2+x,1/2-y,-z
1/2-x,1/2+y,-z
1/2-x,1/2-y,1/2-z
1/2+x,1/2+y,1/2-z
1/2-x,1/2+y,z
1/2+x,1/2-y,z
loop_
_atom_site_type_symbol
_atom_site_label
_atom_site_fract_x
_atom_site_fract_y
_atom_site_fract_z
Si Si1 0.723107 0.602189 0.377025
Si Si2 0.436621 0.233925 0.670717
Si Si3 0.716418 0.130552 0.152855
Si Si4 0.740547 0.169444 0.000000
Si Si5 0.260085 0.321505 0.500000
Si Si6 0.247302 0.028168 0.000000
O O1 0.478190 0.609260 0.331936
O O2 0.735683 0.645500 0.430706
O O3 0.731792 0.559463 0.429641
O O4 0.971008 0.603384 0.332709
O O5 0.500000 0.251311 0.750000
O O6 0.707510 0.238990 0.638025
O O7 0.339071 0.182295 0.676921
O O8 0.734192 0.136615 0.067390
O O9 0.502487 0.199417 0.000000
O O10 0.977816 0.199500 0.000000
O O11 0.500000 0.000000 0.000000
O O12 0.000000 0.000000 0.000000
#
# Coordination Sequence:
#
# PCOD9525089 Si02
#       6
#    16  16  16   8   8   8
#     4   9  17  28  45  69  95 132 169 200 239 293
#     4  10  21  36  52  72  99 131 169 219 274 314
#     4  10  17  31  50  68  96 133 171 209 252 302
#     4   8  14  23  40  61  82 112 150 190 230 275
#     4   7  12  22  36  56  82 111 146 179 218 262
#     4  11  20  31  48  75 112 145 170 201 252 315
#
# _framework density 23.481365
#
# number of rings (size 3 to 8) (size 9 to 14) (size 15 to 20)
#    0.000    2.667    0.000    4.000    0.000    1.778 
#    0.000    1.111    0.000    0.000    0.000    0.000 
#    0.000   13.333    0.000    0.000    0.000    0.000 
#
# Total GULP energy -200670.982476 kJ/mol
# GULP energy per Si atom -5574.193958 kJ/mol
# Density = 2.342792 g / cm^3
# Si number density = 23.481365 Si / 1000 Ang^3
#
#
#
# Elastic Constant Matrix: (Units=GPa)
#
#
# Indices 1 2 3 4 5 6 
#
# 1 310.7026 65.6423 30.6035 0.0000 0.0000 0.0000
# 2 65.6423 108.6861 12.6845 0.0000 0.0000 0.0000
# 3 30.6035 12.6845 71.7543 0.0000 0.0000 0.0000
# 4 0.0000 0.0000 0.0000 -22.6457 0.0000 0.0000
# 5 0.0000 0.0000 0.0000 0.0000 3.5473 0.0000
# 6 0.0000 0.0000 0.0000 0.0000 0.0000 33.8691
#
#
#
# Elastic Compliance Matrix: (Units=1/GPa)
#
#
# Indices 1 2 3 4 5 6 
#
# 1 0.003794 -0.002147 -0.001239 0.000000 0.000000 0.000000
# 2 -0.002147 0.010609 -0.000960 0.000000 0.000000 0.000000
# 3 -0.001239 -0.000960 0.014634 0.000000 0.000000 0.000000
# 4 0.000000 0.000000 0.000000 -0.044159 0.000000 0.000000
# 5 0.000000 0.000000 0.000000 0.000000 0.281906 0.000000
# 6 0.000000 0.000000 0.000000 0.000000 0.000000 0.029525
#
#
# Mechanical properties :
#
#
# Convention : Reuss Voigt Hill
#
# Bulk Modulus (GPa) = 49.14699 78.77821 63.96260
# Shear Modulus (GPa) = 16.03673 28.43499 22.23586
#
# Velocity S-wave (km/s) = 2.61618 3.48366 3.08061
# Velocity P-wave (km/s) = 5.48648 7.05714 6.32079
#
# Compressibility (1/GPa) = 0.02034713
#
# Stress axis : x y z
#
# Youngs Moduli (GPa) = 263.56698 94.25518 68.33205
#
# Poissons Ratio (x) = 0.20236 0.08464
# Poissons Ratio (y) = 0.56586 0.06559
# Poissons Ratio (z) = 0.32647 0.09047
#
# Static dielectric constant tensor:
#      x y z
#    x 2.173230 0.000000 0.000000 
#    y 0.000000 1.838950 0.000000 
#    z 0.000000 0.000000 1.958980 
# 
# From -- ./inp_files/41532.got.cif
#   From: 2010.05.17/outbox.cif.g08.bks.cpg/sg72_21_cif.got.tgz:41532.got - 2010.06.03 17:03:01.
