data_PCOD9525968
_publ_section_title
;
Structure prediction by ZEFSAII (Michael W. Deem and Ramdas Pophale) SiO2 
 PCOD9525968
Probable space group: I B A M
;
_chemical_formula_sum "Si O2"
_cell_formula_units_Z 112
_cell_length_a 32.442830
_cell_length_b 10.902127
_cell_length_c 17.045394
_cell_angle_alpha 90.000000
_cell_angle_beta 90.000000
_cell_angle_gamma 90.000000
_cell_volume 6028.885169
_symmetry_space_group_name_H-M "I B A M"
_symmetry_group_IT_number 72
_symmetry_cell_setting 'orthorhombic'
loop_
_space_group_symop_operation_xyz
x,y,z
-x,-y,z
x,-y,1/2-z
-x,y,1/2-z
-x,-y,-z
x,y,-z
-x,y,1/2+z
x,-y,1/2+z
1/2+x,1/2+y,1/2+z
1/2-x,1/2-y,1/2+z
1/2+x,1/2-y,-z
1/2-x,1/2+y,-z
1/2-x,1/2-y,1/2-z
1/2+x,1/2+y,1/2-z
1/2-x,1/2+y,z
1/2+x,1/2-y,z
loop_
_atom_site_type_symbol
_atom_site_label
_atom_site_fract_x
_atom_site_fract_y
_atom_site_fract_z
Si Si1 0.637609 0.663322 0.091157
Si Si2 0.627410 0.950979 0.907869
Si Si3 0.957770 0.438838 0.594903
Si Si4 0.987617 0.826128 0.091108
Si Si5 0.060003 0.047326 0.661987
Si Si6 0.217818 0.511293 0.157344
Si Si7 0.730680 0.717362 0.094125
O O1 0.623035 0.804315 0.094594
O O2 0.606213 0.583253 0.140977
O O3 0.685078 0.668361 0.117226
O O4 0.636026 0.623774 0.000000
O O5 0.669353 0.986213 0.864281
O O6 0.585525 0.009673 0.875645
O O7 0.632665 0.984990 0.000000
O O8 0.956927 0.458958 0.500000
O O9 0.962685 0.295593 0.609831
O O10 0.000000 0.500000 0.624182
O O11 0.028206 0.842456 0.143969
O O12 0.957920 0.940967 0.106123
O O13 0.000586 0.820621 0.000000
O O14 0.055894 0.000000 0.750000
O O15 0.223547 0.500000 0.250000
O O16 0.238122 0.390212 0.118785
O O17 0.235504 0.644374 0.128597
O O18 0.730800 0.731211 0.000000
#
# Coordination Sequence:
#
# PCOD9525968 Si02
#       7
#    16  16  16  16  16  16  16
#     4   9  18  35  59  81 105 144 191 230 277 345
#     4   9  18  36  60  85 114 149 192 237 288 347
#     4   9  17  31  55  84 106 134 184 239 280 327
#     4  10  19  33  53  74 103 142 188 232 279 333
#     4  11  21  34  51  75 109 146 181 231 285 338
#     4  11  22  39  61  91 126 160 196 249 309 365
#     4  10  21  40  64  89 118 159 208 247 295 362
#
# _framework density 18.577231999999999
#
# number of rings (size 3 to 8) (size 9 to 14) (size 15 to 20)
#    0.000    2.143    0.000    6.000    0.000    2.857 
#    7.714    0.000    0.000    0.000    0.000    0.000 
#    0.000    0.000    0.000    0.000    0.000    0.000 
#
# Total GULP energy -312356.238578 kJ/mol
# GULP energy per Si atom -5577.789975 kJ/mol
# Density = 1.853495 g / cm^3
# Si number density = 18.577232 Si / 1000 Ang^3
#
#
#
# Elastic Constant Matrix: (Units=GPa)
#
#
# Indices 1 2 3 4 5 6 
#
# 1 94.6032 57.9846 24.7785 0.0000 0.0000 0.0000
# 2 57.9846 70.6689 21.9244 0.0000 0.0000 0.0000
# 3 24.7785 21.9244 57.5489 0.0000 0.0000 0.0000
# 4 0.0000 0.0000 0.0000 14.2158 0.0000 0.0000
# 5 0.0000 0.0000 0.0000 0.0000 16.2080 0.0000
# 6 0.0000 0.0000 0.0000 0.0000 0.0000 39.6352
#
#
#
# Elastic Compliance Matrix: (Units=1/GPa)
#
#
# Indices 1 2 3 4 5 6 
#
# 1 0.021684 -0.016892 -0.002901 0.000000 0.000000 0.000000
# 2 -0.016892 0.029206 -0.003854 0.000000 0.000000 0.000000
# 3 -0.002901 -0.003854 0.020094 0.000000 0.000000 0.000000
# 4 0.000000 0.000000 0.000000 0.070344 0.000000 0.000000
# 5 0.000000 0.000000 0.000000 0.000000 0.061698 0.000000
# 6 0.000000 0.000000 0.000000 0.000000 0.000000 0.025230
#
#
# Mechanical properties :
#
#
# Convention : Reuss Voigt Hill
#
# Bulk Modulus (GPa) = 42.21069 48.02178 45.11623
# Shear Modulus (GPa) = 17.64013 21.88735 19.76374
#
# Velocity S-wave (km/s) = 3.08483 3.43619 3.26524
# Velocity P-wave (km/s) = 5.95477 6.45361 6.20920
#
# Compressibility (1/GPa) = 0.02369068
#
# Stress axis : x y z
#
# Youngs Moduli (GPa) = 46.11792 34.23981 49.76682
#
# Poissons Ratio (x) = 0.57836 0.14437
# Poissons Ratio (y) = 0.77900 0.19178
# Poissons Ratio (z) = 0.13379 0.13195
#
# Static dielectric constant tensor:
#      x y z
#    x 1.643660 0.000000 0.000000 
#    y 0.000000 1.645300 0.000000 
#    z 0.000000 0.000000 1.641270 
# 
# From -- ./inp_files/26395.got.cif
#   From: 2010.05.17/outbox.cif.g08.bks.cpg/sg72_14_cif.got.tgz:26395.got - 2010.06.03 17:03:01.
