data_PCOD9525576
_publ_section_title
;
Structure prediction by ZEFSAII (Michael W. Deem and Ramdas Pophale) SiO2 
 PCOD9525576
Probable space group: I B A M
;
_chemical_formula_sum "Si O2"
_cell_formula_units_Z 80
_cell_length_a 16.915492
_cell_length_b 25.185101
_cell_length_c 10.242659
_cell_angle_alpha 90.000000
_cell_angle_beta 90.000000
_cell_angle_gamma 90.000000
_cell_volume 4363.560938
_symmetry_space_group_name_H-M "I B A M"
_symmetry_group_IT_number 72
_symmetry_cell_setting 'orthorhombic'
loop_
_space_group_symop_operation_xyz
x,y,z
-x,-y,z
x,-y,1/2-z
-x,y,1/2-z
-x,-y,-z
x,y,-z
-x,y,1/2+z
x,-y,1/2+z
1/2+x,1/2+y,1/2+z
1/2-x,1/2-y,1/2+z
1/2+x,1/2-y,-z
1/2-x,1/2+y,-z
1/2-x,1/2-y,1/2-z
1/2+x,1/2+y,1/2-z
1/2-x,1/2+y,z
1/2+x,1/2-y,z
loop_
_atom_site_type_symbol
_atom_site_label
_atom_site_fract_x
_atom_site_fract_y
_atom_site_fract_z
Si Si1 0.903783 0.232303 0.740417
Si Si2 0.314411 0.440185 0.000000
Si Si3 0.805494 0.940128 0.000000
Si Si4 0.099407 0.828123 0.000000
Si Si5 0.409082 0.661086 0.000000
Si Si6 0.921333 0.651553 0.840172
Si Si7 0.197767 0.440149 0.755920
O O1 0.875793 0.206784 0.875221
O O2 0.880325 0.192389 0.626640
O O3 0.882000 0.291978 0.699473
O O4 0.000000 0.233049 0.750000
O O5 0.260229 0.437780 0.872732
O O6 0.344479 0.501042 0.000000
O O7 0.368103 0.387973 0.000000
O O8 0.747915 0.932548 0.875913
O O9 0.874649 0.897347 0.000000
O O10 0.004232 0.834917 0.000000
O O11 0.866874 0.603479 0.791897
O O12 0.000000 0.648542 0.750000
O O13 0.934276 0.650592 0.000000
O O14 0.163331 0.500000 0.750000
#
# Coordination Sequence:
#
# PCOD9525576 Si02
#       7
#    16   8   8   8   8  16  16
#     4   9  19  34  56  83 119 152 187 238 298 343
#     4  10  20  40  58  83 117 161 195 237 301 342
#     4  10  22  36  60  83 119 159 197 239 291 350
#     4  10  20  34  61  86 115 157 199 239 286 344
#     4  10  18  36  55  88 117 151 201 245 280 340
#     4  11  23  40  64  89 117 149 193 242 287 352
#     4  10  22  41  60  82 118 158 191 236 296 349
#
# _framework density 18.333649999999999
#
# number of rings (size 3 to 8) (size 9 to 14) (size 15 to 20)
#    0.000    2.000    2.000    1.200    5.600    0.800 
#    0.000    7.000    0.000    7.200    0.000    0.000 
#    0.000    0.000    0.000    0.000    0.000    0.000 
#
# Total GULP energy -222917.749687 kJ/mol
# GULP energy per Si atom -5572.943742 kJ/mol
# Density = 1.829192 g / cm^3
# Si number density = 18.333650 Si / 1000 Ang^3
#
#
#
# Elastic Constant Matrix: (Units=GPa)
#
#
# Indices 1 2 3 4 5 6 
#
# 1 21.0804 48.4479 29.7826 0.0000 0.0000 0.0000
# 2 48.4479 176.7680 76.6941 0.0000 0.0000 0.0000
# 3 29.7826 76.6941 184.9834 -0.0001 0.0000 0.0000
# 4 0.0000 0.0000 -0.0001 31.9361 0.0000 0.0000
# 5 0.0000 0.0000 0.0000 0.0000 8.3082 0.0000
# 6 0.0000 0.0000 0.0000 0.0000 0.0000 60.6028
#
#
#
# Elastic Compliance Matrix: (Units=1/GPa)
#
#
# Indices 1 2 3 4 5 6 
#
# 1 0.137063 -0.034131 -0.007917 0.000000 0.000000 0.000000
# 2 -0.034131 0.015397 -0.000889 0.000000 0.000000 0.000000
# 3 -0.007917 -0.000889 0.007049 0.000000 0.000000 0.000000
# 4 0.000000 0.000000 0.000000 0.031313 0.000000 0.000000
# 5 0.000000 0.000000 0.000000 0.000000 0.120363 0.000000
# 6 0.000000 0.000000 0.000000 0.000000 0.000000 0.016501
#
#
# Mechanical properties :
#
#
# Convention : Reuss Voigt Hill
#
# Bulk Modulus (GPa) = 13.58012 76.96456 45.27234
# Shear Modulus (GPa) = 11.41281 35.36322 23.38802
#
# Velocity S-wave (km/s) = 2.49771 4.39665 3.57555
# Velocity P-wave (km/s) = 3.96754 8.23682 6.46477
#
# Compressibility (1/GPa) = 0.07363704
#
# Stress axis : x y z
#
# Youngs Moduli (GPa) = 7.29589 64.94714 141.86688
#
# Poissons Ratio (x) = 2.21671 1.12311
# Poissons Ratio (y) = 0.24902 0.12605
# Poissons Ratio (z) = 0.05776 0.05771
#
# Static dielectric constant tensor:
#      x y z
#    x 1.613380 0.000000 0.000000 
#    y 0.000000 1.655080 0.000000 
#    z 0.000000 0.000000 1.571180 
# 
# From -- ./inp_files/4889.got.cif
#   From: 2010.05.17/outbox.cif.g08.bks.cpg/sg72_3_cif.got.tgz:4889.got - 2010.06.03 17:03:01.
