data_PCOD9525688
_publ_section_title
;
Structure prediction by ZEFSAII (Michael W. Deem and Ramdas Pophale) SiO2 
 PCOD9525688
Probable space group: I B A M
;
_chemical_formula_sum "Si O2"
_cell_formula_units_Z 96
_cell_length_a 13.271085
_cell_length_b 18.320733
_cell_length_c 22.872943
_cell_angle_alpha 90.000000
_cell_angle_beta 90.000000
_cell_angle_gamma 90.000000
_cell_volume 5561.235981
_symmetry_space_group_name_H-M "I B A M"
_symmetry_group_IT_number 72
_symmetry_cell_setting 'orthorhombic'
loop_
_space_group_symop_operation_xyz
x,y,z
-x,-y,z
x,-y,1/2-z
-x,y,1/2-z
-x,-y,-z
x,y,-z
-x,y,1/2+z
x,-y,1/2+z
1/2+x,1/2+y,1/2+z
1/2-x,1/2-y,1/2+z
1/2+x,1/2-y,-z
1/2-x,1/2+y,-z
1/2-x,1/2-y,1/2-z
1/2+x,1/2+y,1/2-z
1/2-x,1/2+y,z
1/2+x,1/2-y,z
loop_
_atom_site_type_symbol
_atom_site_label
_atom_site_fract_x
_atom_site_fract_y
_atom_site_fract_z
Si Si1 0.186843 0.194028 0.569836
Si Si2 0.622361 0.084421 0.747391
Si Si3 0.399495 0.460298 0.070749
Si Si4 0.880867 0.629777 0.127202
Si Si5 0.612705 0.842344 0.875177
Si Si6 0.321482 0.987621 0.568388
O O1 0.178927 0.205507 0.500000
O O2 0.116468 0.124603 0.586422
O O3 0.299737 0.169357 0.586640
O O4 0.158531 0.266204 0.604839
O O5 0.500000 0.081952 0.750000
O O6 0.656101 0.125730 0.805892
O O7 0.647510 0.126864 0.687995
O O8 0.657297 0.000000 0.750000
O O9 0.500000 0.500000 0.093077
O O10 0.295318 0.500904 0.086511
O O11 0.404112 0.461926 0.000000
O O12 0.885618 0.545863 0.105179
O O13 0.991571 0.663226 0.125053
O O14 0.643604 0.906163 0.919797
O O15 0.330097 0.006055 0.500000
#
# Coordination Sequence:
#
# PCOD9525688 Si02
#       6
#    16  16  16  16  16  16
#     4  10  22  35  49  79 114 143 180 223 274 336
#     4   9  17  33  56  80 103 135 183 223 270 332
#     4   8  16  33  52  68  98 145 185 213 251 317
#     4  10  20  36  54  74 107 141 176 225 273 321
#     4  11  21  33  54  81 108 139 178 230 278 320
#     4  10  19  30  50  80 105 134 178 220 271 336
#
# _framework density 17.262349
#
# number of rings (size 3 to 8) (size 9 to 14) (size 15 to 20)
#    0.000    2.333    1.667    2.500    0.000    5.333 
#    0.000    1.667    0.000    0.000    0.000    8.167 
#    0.000    0.000    0.000    0.000    0.000    0.000 
#
# Total GULP energy -267594.387566 kJ/mol
# GULP energy per Si atom -5574.883074 kJ/mol
# Density = 1.722306 g / cm^3
# Si number density = 17.262349 Si / 1000 Ang^3
#
#
#
# Elastic Constant Matrix: (Units=GPa)
#
#
# Indices 1 2 3 4 5 6 
#
# 1 40.9813 39.0968 16.3157 0.0000 0.0000 0.0000
# 2 39.0968 114.3264 29.9304 0.0000 0.0000 0.0000
# 3 16.3157 29.9304 76.0681 0.0000 0.0000 0.0000
# 4 0.0000 0.0000 0.0000 26.9770 0.0000 0.0000
# 5 0.0000 0.0000 0.0000 0.0000 15.1493 0.0000
# 6 0.0000 0.0000 0.0000 0.0000 0.0000 18.0402
#
#
#
# Elastic Compliance Matrix: (Units=1/GPa)
#
#
# Indices 1 2 3 4 5 6 
#
# 1 0.036942 -0.011772 -0.003292 0.000000 0.000000 0.000000
# 2 -0.011772 0.013502 -0.002788 0.000000 0.000000 0.000000
# 3 -0.003292 -0.002788 0.014949 0.000000 0.000000 0.000000
# 4 0.000000 0.000000 0.000000 0.037069 0.000000 0.000000
# 5 0.000000 0.000000 0.000000 0.000000 0.066010 0.000000
# 6 0.000000 0.000000 0.000000 0.000000 0.000000 0.055432
#
#
# Mechanical properties :
#
#
# Convention : Reuss Voigt Hill
#
# Bulk Modulus (GPa) = 33.68024 44.67352 39.17688
# Shear Modulus (GPa) = 18.55262 21.76881 20.16072
#
# Velocity S-wave (km/s) = 3.28189 3.55499 3.42116
# Velocity P-wave (km/s) = 5.82359 6.54110 6.19274
#
# Compressibility (1/GPa) = 0.02969100
#
# Stress axis : x y z
#
# Youngs Moduli (GPa) = 27.06929 74.06129 66.89344
#
# Poissons Ratio (x) = 0.87181 0.22021
# Poissons Ratio (y) = 0.31865 0.18649
# Poissons Ratio (z) = 0.08911 0.20648
#
# Static dielectric constant tensor:
#      x y z
#    x 1.589370 0.000000 0.000000 
#    y 0.000000 1.579160 0.000000 
#    z 0.000000 0.000000 1.605990 
# 
# From -- ./inp_files/43343.got.cif
#   From: 2010.05.17/outbox.cif.g08.bks.cpg/sg72_22_cif.got.tgz:43343.got - 2010.06.03 17:03:01.
