data_PCOD9525187
_publ_section_title
;
Structure prediction by ZEFSAII (Michael W. Deem and Ramdas Pophale) SiO2 
 PCOD9525187
Probable space group: I B A M
;
_chemical_formula_sum "Si O2"
_cell_formula_units_Z 96
_cell_length_a 29.424440
_cell_length_b 27.059666
_cell_length_c 8.895256
_cell_angle_alpha 90.000000
_cell_angle_beta 90.000000
_cell_angle_gamma 90.000000
_cell_volume 7082.540869
_symmetry_space_group_name_H-M "I B A M"
_symmetry_group_IT_number 72
_symmetry_cell_setting 'orthorhombic'
loop_
_space_group_symop_operation_xyz
x,y,z
-x,-y,z
x,-y,1/2-z
-x,y,1/2-z
-x,-y,-z
x,y,-z
-x,y,1/2+z
x,-y,1/2+z
1/2+x,1/2+y,1/2+z
1/2-x,1/2-y,1/2+z
1/2+x,1/2-y,-z
1/2-x,1/2+y,-z
1/2-x,1/2-y,1/2-z
1/2+x,1/2+y,1/2-z
1/2-x,1/2+y,z
1/2+x,1/2-y,z
loop_
_atom_site_type_symbol
_atom_site_label
_atom_site_fract_x
_atom_site_fract_y
_atom_site_fract_z
Si Si1 0.047536 0.594528 0.680079
Si Si2 0.855917 0.552184 0.819985
Si Si3 0.279218 0.705232 0.180232
Si Si4 0.859846 0.743931 0.320327
Si Si5 0.196027 0.642941 0.179294
Si Si6 0.951927 0.288791 0.319873
O O1 0.044250 0.591073 0.500000
O O2 0.092514 0.565775 0.730073
O O3 0.053611 0.652701 0.718250
O O4 0.000000 0.577362 0.750000
O O5 0.842602 0.500000 0.750000
O O6 0.823616 0.596360 0.765859
O O7 0.855657 0.549651 0.000000
O O8 0.250000 0.750000 0.250000
O O9 0.328742 0.712840 0.250488
O O10 0.248294 0.657404 0.214247
O O11 0.281125 0.710488 0.000000
O O12 0.861604 0.748636 0.500000
O O13 0.834426 0.691619 0.285801
O O14 0.909533 0.740030 0.249579
O O15 0.192453 0.634740 0.000000
O O16 0.952506 0.284484 0.500000
O O17 0.000000 0.273137 0.250000
#
# Coordination Sequence:
#
# PCOD9525187 Si02
#       6
#    16  16  16  16  16  16
#     4   9  19  32  45  59  74  99 132 171 216 257
#     4  11  22  34  46  61  78 102 135 172 217 260
#     4   9  17  28  43  64  85 105 130 162 203 247
#     4  10  18  28  44  65  85 108 135 166 205 247
#     4   9  18  31  45  61  81 104 131 167 207 248
#     4  10  18  29  43  61  83 109 140 172 210 252
#
# _framework density 13.554456999999999
#
# number of rings (size 3 to 8) (size 9 to 14) (size 15 to 20)
#    0.000    2.333    1.667    3.000    0.000    5.667 
#    0.000    1.667    0.000    0.000    0.000    0.000 
#    0.000    0.000    0.000    0.000    0.000    0.833 
#
# Total GULP energy -267568.450273 kJ/mol
# GULP energy per Si atom -5574.342714 kJ/mol
# Density = 1.352361 g / cm^3
# Si number density = 13.554457 Si / 1000 Ang^3
#
#
#
# Elastic Constant Matrix: (Units=GPa)
#
#
# Indices 1 2 3 4 5 6 
#
# 1 100.6072 47.2799 47.1739 0.0000 0.0000 0.0000
# 2 47.2799 51.0374 32.2981 0.0000 0.0000 0.0000
# 3 47.1739 32.2981 45.9532 0.0000 0.0000 0.0000
# 4 0.0000 0.0000 0.0000 15.2850 0.0000 0.0000
# 5 0.0000 0.0000 0.0000 0.0000 25.7903 0.0000
# 6 0.0000 0.0000 0.0000 0.0000 0.0000 14.6111
#
#
#
# Elastic Compliance Matrix: (Units=1/GPa)
#
#
# Indices 1 2 3 4 5 6 
#
# 1 0.022153 -0.011042 -0.014981 0.000000 0.000000 0.000000
# 2 -0.011042 0.040793 -0.017336 0.000000 0.000000 0.000000
# 3 -0.014981 -0.017336 0.049325 0.000000 0.000000 0.000000
# 4 0.000000 0.000000 0.000000 0.065423 0.000000 0.000000
# 5 0.000000 0.000000 0.000000 0.000000 0.038774 0.000000
# 6 0.000000 0.000000 0.000000 0.000000 0.000000 0.068441
#
#
# Mechanical properties :
#
#
# Convention : Reuss Voigt Hill
#
# Bulk Modulus (GPa) = 39.13394 50.12242 44.62818
# Shear Modulus (GPa) = 13.15282 15.86033 14.50658
#
# Velocity S-wave (km/s) = 3.11845 3.42441 3.27501
# Velocity P-wave (km/s) = 6.47307 7.25908 6.87732
#
# Compressibility (1/GPa) = 0.02555327
#
# Stress axis : x y z
#
# Youngs Moduli (GPa) = 45.14032 24.51380 20.27366
#
# Poissons Ratio (x) = 0.27068 0.30372
# Poissons Ratio (y) = 0.49843 0.35147
# Poissons Ratio (z) = 0.67625 0.42498
#
# Static dielectric constant tensor:
#      x y z
#    x 1.468220 0.000000 0.000000 
#    y 0.000000 1.421830 0.000000 
#    z 0.000000 0.000000 1.446890 
# 
# From -- ./inp_files/7083.got.cif
#   From: 2010.05.17/outbox.cif.g08.bks.cpg/sg72_4_cif.got.tgz:7083.got - 2010.06.03 17:03:01.
