data_PCOD9525514
_publ_section_title
;
Structure prediction by ZEFSAII (Michael W. Deem and Ramdas Pophale) SiO2 
 PCOD9525514
Probable space group: I B A M
;
_chemical_formula_sum "Si O2"
_cell_formula_units_Z 128
_cell_length_a 22.315604
_cell_length_b 18.472983
_cell_length_c 18.703523
_cell_angle_alpha 90.000000
_cell_angle_beta 90.000000
_cell_angle_gamma 90.000000
_cell_volume 7710.261268
_symmetry_space_group_name_H-M "I B A M"
_symmetry_group_IT_number 72
_symmetry_cell_setting 'orthorhombic'
loop_
_space_group_symop_operation_xyz
x,y,z
-x,-y,z
x,-y,1/2-z
-x,y,1/2-z
-x,-y,-z
x,y,-z
-x,y,1/2+z
x,-y,1/2+z
1/2+x,1/2+y,1/2+z
1/2-x,1/2-y,1/2+z
1/2+x,1/2-y,-z
1/2-x,1/2+y,-z
1/2-x,1/2-y,1/2-z
1/2+x,1/2+y,1/2-z
1/2-x,1/2+y,z
1/2+x,1/2-y,z
loop_
_atom_site_type_symbol
_atom_site_label
_atom_site_fract_x
_atom_site_fract_y
_atom_site_fract_z
Si Si1 0.870922 0.904723 0.670755
Si Si2 0.491567 0.585985 0.581020
Si Si3 0.189244 0.792406 0.922259
Si Si4 0.744148 0.505402 0.333495
Si Si5 0.438390 0.342035 0.294247
Si Si6 0.658131 0.780295 0.700431
Si Si7 0.811309 0.614720 0.080547
Si Si8 0.732440 0.171257 0.664199
O O1 0.927201 0.908294 0.618457
O O2 0.841660 0.828685 0.646413
O O3 0.820856 0.966121 0.660439
O O4 0.896494 0.898619 0.750636
O O5 0.500000 0.500000 0.579679
O O6 0.492120 0.613620 0.500000
O O7 0.541168 0.625889 0.629738
O O8 0.251180 0.836562 0.925924
O O9 0.202030 0.709686 0.903633
O O10 0.159326 0.801486 0.000000
O O11 0.761135 0.500000 0.250000
O O12 0.789078 0.459637 0.383238
O O13 0.746262 0.590168 0.350005
O O14 0.500000 0.334452 0.250000
O O15 0.401867 0.267230 0.293459
O O16 0.650712 0.838637 0.636904
O O17 0.685781 0.821690 0.769480
O O18 0.710090 0.721302 0.682269
O O19 0.835358 0.605434 0.000000
#
# Coordination Sequence:
#
# PCOD9525514 Si02
#       8
#    16  16  16  16  16  16  16  16
#     4  10  20  33  55  74 103 144 182 220 269 325
#     4  10  23  38  48  71 109 145 183 228 271 313
#     4   9  17  32  50  72 103 139 172 213 269 323
#     4  11  20  30  52  80 105 140 178 217 271 331
#     4  10  21  35  56  80 101 139 191 233 258 315
#     4  10  18  34  51  74 107 137 176 227 271 318
#     4   9  19  33  49  73 106 140 171 210 269 330
#     4  10  19  30  51  79 104 136 175 222 272 326
#
# _framework density 16.601254000000001
#
# number of rings (size 3 to 8) (size 9 to 14) (size 15 to 20)
#    0.000    2.125    2.500    1.125    3.500    3.250 
#    0.000    0.000    0.000    0.000    0.000    1.750 
#    0.000    1.000    0.000    0.000    0.000    0.000 
#
# Total GULP energy -356452.789428 kJ/mol
# GULP energy per Si atom -5569.574835 kJ/mol
# Density = 1.656347 g / cm^3
# Si number density = 16.601254 Si / 1000 Ang^3
#
#
#
# Elastic Constant Matrix: (Units=GPa)
#
#
# Indices 1 2 3 4 5 6 
#
# 1 40.8272 30.5024 15.6642 0.0000 0.0000 0.0000
# 2 30.5024 108.4551 36.2326 0.0000 0.0000 0.0000
# 3 15.6642 36.2326 101.5878 0.0000 0.0000 0.0000
# 4 0.0000 0.0000 0.0000 15.8186 0.0000 0.0000
# 5 0.0000 0.0000 0.0000 0.000026346.8991 0.0000
# 6 0.0000 0.0000 0.0000 0.0000 0.0000 23.1390
#
#
#
# Elastic Compliance Matrix: (Units=1/GPa)
#
#
# Indices 1 2 3 4 5 6 
#
# 1 0.031335 -0.008172 -0.001917 0.000000 0.000000 0.000000
# 2 -0.008172 0.012599 -0.003233 0.000000 0.000000 0.000000
# 3 -0.001917 -0.003233 0.011293 0.000000 0.000000 0.000000
# 4 0.000000 0.000000 0.000000 0.063217 0.000000 0.000000
# 5 0.000000 0.000000 0.000000 0.000000 0.000038 0.000000
# 6 0.000000 0.000000 0.000000 0.000000 0.000000 0.043217
#
#
# Mechanical properties :
#
#
# Convention : Reuss Voigt Hill
#
# Bulk Modulus (GPa) = 34.98844 46.18540 40.58692
# Shear Modulus (GPa) = 25.26911 5288.40273 2656.83592
#
# Velocity S-wave (km/s) = 3.90567 56.50186 40.04818
# Velocity P-wave (km/s) = 6.43899 65.45604 46.50782
#
# Compressibility (1/GPa) = 0.02858087
#
# Stress axis : x y z
#
# Youngs Moduli (GPa) = 31.91364 79.37102 88.55408
#
# Poissons Ratio (x) = 0.64864 0.16975
# Poissons Ratio (y) = 0.26081 0.28634
# Poissons Ratio (z) = 0.06117 0.25665
#
# Static dielectric constant tensor:
#      x y z
#    x 1.573930 0.000000 0.000000 
#    y 0.000000 1.596950 0.000000 
#    z 0.000000 0.000000 1.611960 
# 
# From -- ./inp_files/33538.got.cif
#   From: 2010.05.17/outbox.cif.g08.bks.cpg/sg72_17_cif.got.tgz:33538.got - 2010.06.03 17:03:01.
