data_PCOD9525056
_publ_section_title
;
Structure prediction by ZEFSAII (Michael W. Deem and Ramdas Pophale) SiO2 
 PCOD9525056
Probable space group: I B A M
;
_chemical_formula_sum "Si O2"
_cell_formula_units_Z 72
_cell_length_a 28.893335
_cell_length_b 7.112068
_cell_length_c 15.024976
_cell_angle_alpha 90.000000
_cell_angle_beta 90.000000
_cell_angle_gamma 90.000000
_cell_volume 3087.502801
_symmetry_space_group_name_H-M "I B A M"
_symmetry_group_IT_number 72
_symmetry_cell_setting 'orthorhombic'
loop_
_space_group_symop_operation_xyz
x,y,z
-x,-y,z
x,-y,1/2-z
-x,y,1/2-z
-x,-y,-z
x,y,-z
-x,y,1/2+z
x,-y,1/2+z
1/2+x,1/2+y,1/2+z
1/2-x,1/2-y,1/2+z
1/2+x,1/2-y,-z
1/2-x,1/2+y,-z
1/2-x,1/2-y,1/2-z
1/2+x,1/2+y,1/2-z
1/2-x,1/2+y,z
1/2+x,1/2-y,z
loop_
_atom_site_type_symbol
_atom_site_label
_atom_site_fract_x
_atom_site_fract_y
_atom_site_fract_z
Si Si1 0.487936 0.223501 0.149159
Si Si2 0.816700 0.200383 0.000000
Si Si3 0.361176 0.786002 0.139750
Si Si4 0.789741 0.636378 0.000000
Si Si5 0.879524 0.264744 0.841641
Si Si6 0.059796 0.828740 0.500000
O O1 0.500000 0.275326 0.250000
O O2 0.433564 0.262349 0.135868
O O3 0.519723 0.319106 0.077231
O O4 0.500000 0.000000 0.140181
O O5 0.808450 0.424599 0.000000
O O6 0.846968 0.162049 0.087390
O O7 0.765220 0.121812 0.000000
O O8 0.366139 0.715999 0.240649
O O9 0.400275 0.700587 0.077296
O O10 0.371951 0.010379 0.147282
O O11 0.312197 0.769970 0.088156
#
# Coordination Sequence:
#
# PCOD9525056 Si02
#       6
#    16   8  16   8  16   8
#     4  11  17  22  36  62  97 133 160 182 237 307
#     4  10  21  34  52  69 100 128 171 208 252 289
#     4   9  17  28  43  61  91 126 167 194 241 289
#     4   9  20  34  51  72  89 133 165 213 251 295
#     4  10  17  29  41  66  96 134 156 202 239 301
#     4  11  16  22  36  56  92 131 160 196 224 300
#
# _framework density 23.319818000000001
#
# number of rings (size 3 to 8) (size 9 to 14) (size 15 to 20)
#    0.000    2.000    4.444    3.000    0.000    0.889 
#    0.000    0.000    0.000    0.000    0.000    0.000 
#    0.000   14.222    2.667    0.444    0.000    0.000 
#
# Total GULP energy -200543.981414 kJ/mol
# GULP energy per Si atom -5570.666150 kJ/mol
# Density = 2.326674 g / cm^3
# Si number density = 23.319818 Si / 1000 Ang^3
#
#
#
# Elastic Constant Matrix: (Units=GPa)
#
#
# Indices 1 2 3 4 5 6 
#
# 1 238.2449 20.0492 137.0241 0.0000 0.0000 0.0000
# 2 20.0492 88.9297 30.9877 0.0000 0.0000 0.0000
# 3 137.0241 30.9877 238.0041 0.0000 0.0000 0.0000
# 4 0.0000 0.0000 0.0000 -634.1517 0.0000 0.0000
# 5 0.0000 0.0000 0.0000 0.0000 83.9658 0.0000
# 6 0.0000 0.0000 0.0000 0.0000 0.0000 16.0285
#
#
#
# Elastic Compliance Matrix: (Units=1/GPa)
#
#
# Indices 1 2 3 4 5 6 
#
# 1 0.006277 -0.000163 -0.003593 0.000000 0.000000 0.000000
# 2 -0.000163 0.011783 -0.001440 0.000000 0.000000 0.000000
# 3 -0.003593 -0.001440 0.006458 0.000000 0.000000 0.000000
# 4 0.000000 0.000000 0.000000 -0.001577 0.000000 0.000000
# 5 0.000000 0.000000 0.000000 0.000000 0.011910 0.000000
# 6 0.000000 0.000000 0.000000 0.000000 0.000000 0.062389
#
#
# Mechanical properties :
#
#
# Convention : Reuss Voigt Hill
#
# Bulk Modulus (GPa) = 70.79179 104.58897 87.69038
# Shear Modulus (GPa) = 44.50718 -81.69030 -18.59156
#
# Velocity S-wave (km/s) = 4.37344 -5.92507 -2.82661
# Velocity P-wave (km/s) = 7.47833 1.36434 5.19923
#
# Compressibility (1/GPa) = 0.01412593
#
# Stress axis : x y z
#
# Youngs Moduli (GPa) = 159.29972 84.86453 154.85694
#
# Poissons Ratio (x) = 0.01386 0.55637
# Poissons Ratio (y) = 0.02602 0.22302
# Poissons Ratio (z) = 0.57233 0.12222
#
# Static dielectric constant tensor:
#      x y z
#    x 1.820290 0.000000 0.000000 
#    y 0.000000 1.874540 0.000000 
#    z 0.000000 0.000000 1.809860 
# 
# From -- ./inp_files/20131.got.cif
#   From: 2010.05.17/outbox.cif.g08.bks.cpg/sg72_11_cif.got.tgz:20131.got - 2010.06.03 17:03:01.
