data_PCOD9525882
_publ_section_title
;
Structure prediction by ZEFSAII (Michael W. Deem and Ramdas Pophale) SiO2 
 PCOD9525882
Probable space group: I B A M
;
_chemical_formula_sum "Si O2"
_cell_formula_units_Z 104
_cell_length_a 18.281227
_cell_length_b 12.882660
_cell_length_c 27.392010
_cell_angle_alpha 90.000000
_cell_angle_beta 90.000000
_cell_angle_gamma 90.000000
_cell_volume 6451.115060
_symmetry_space_group_name_H-M "I B A M"
_symmetry_group_IT_number 72
_symmetry_cell_setting 'orthorhombic'
loop_
_space_group_symop_operation_xyz
x,y,z
-x,-y,z
x,-y,1/2-z
-x,y,1/2-z
-x,-y,-z
x,y,-z
-x,y,1/2+z
x,-y,1/2+z
1/2+x,1/2+y,1/2+z
1/2-x,1/2-y,1/2+z
1/2+x,1/2-y,-z
1/2-x,1/2+y,-z
1/2-x,1/2-y,1/2-z
1/2+x,1/2+y,1/2-z
1/2-x,1/2+y,z
1/2+x,1/2-y,z
loop_
_atom_site_type_symbol
_atom_site_label
_atom_site_fract_x
_atom_site_fract_y
_atom_site_fract_z
Si Si1 0.995171 0.114675 0.416193
Si Si2 0.665094 0.859297 0.500000
Si Si3 0.084961 0.126664 0.751603
Si Si4 0.650979 0.379523 0.145256
Si Si5 0.344391 0.107453 0.000000
Si Si6 0.363757 0.381612 0.148394
Si Si7 0.737619 0.756864 0.080964
Si Si8 0.503074 0.217868 0.500000
O O1 0.916021 0.129323 0.392702
O O2 0.053952 0.111344 0.372650
O O3 0.011420 0.206344 0.453487
O O4 0.000000 0.000000 0.439827
O O5 0.669342 0.984280 0.500000
O O6 0.707582 0.809653 0.546463
O O7 0.579319 0.827502 0.500000
O O8 0.123328 0.158137 0.801938
O O9 0.128215 0.161047 0.703208
O O10 0.000000 0.159889 0.750000
O O11 0.083993 0.000000 0.750000
O O12 0.667383 0.501830 0.150234
O O13 0.716853 0.317914 0.121649
O O14 0.306220 0.163250 0.046345
O O15 0.430814 0.135444 0.000000
O O16 0.317973 0.316394 0.109880
#
# Coordination Sequence:
#
# PCOD9525882 Si02
#       8
#    16   8  16  16   8  16  16   8
#     4  10  19  32  53  81 107 133 172 215 260 305
#     4  11  24  38  53  74 102 140 179 219 257 309
#     4   9  16  29  52  80 105 129 167 211 253 303
#     4  10  19  33  54  78 106 137 167 210 261 308
#     4  11  24  38  53  74 102 140 179 219 257 309
#     4  10  19  33  54  78 106 137 167 210 261 308
#     4  11  22  37  52  74 110 135 170 213 264 320
#     4  12  20  38  54  76 100 140 184 218 248 312
#
# _framework density 16.121244000000001
#
# number of rings (size 3 to 8) (size 9 to 14) (size 15 to 20)
#    0.000    1.692    4.615    1.385    0.000    0.615 
#    0.000    0.000    0.000    0.000    0.000    0.000 
#    0.000    4.923    0.000    0.000    0.000    0.000 
#
# Total GULP energy -289980.947285 kJ/mol
# GULP energy per Si atom -5576.556679 kJ/mol
# Density = 1.608455 g / cm^3
# Si number density = 16.121244 Si / 1000 Ang^3
#
#
#
# Elastic Constant Matrix: (Units=GPa)
#
#
# Indices 1 2 3 4 5 6 
#
# 1 71.9805 24.5878 15.8787 0.0000 0.0000 0.0000
# 2 24.5878 72.2030 26.9173 0.0000 0.0000 0.0000
# 3 15.8787 26.9173 92.2554 0.0000 0.0000 0.0000
# 4 0.0000 0.0000 0.0000 -10.5016 0.0000 0.0000
# 5 0.0000 0.0000 0.0000 0.0000 20.7598 0.0000
# 6 0.0000 0.0000 0.0000 0.0000 0.0000 18.7345
#
#
#
# Elastic Compliance Matrix: (Units=1/GPa)
#
#
# Indices 1 2 3 4 5 6 
#
# 1 0.015858 -0.004918 -0.001295 0.000000 0.000000 0.000000
# 2 -0.004918 0.017065 -0.004133 0.000000 0.000000 0.000000
# 3 -0.001295 -0.004133 0.012268 0.000000 0.000000 0.000000
# 4 0.000000 0.000000 0.000000 -0.095224 0.000000 0.000000
# 5 0.000000 0.000000 0.000000 0.000000 0.048170 0.000000
# 6 0.000000 0.000000 0.000000 0.000000 0.000000 0.053377
#
#
# Mechanical properties :
#
#
# Convention : Reuss Voigt Hill
#
# Bulk Modulus (GPa) = 40.81393 41.24516 41.02954
# Shear Modulus (GPa) = 62.21069 17.06888 39.63979
#
# Velocity S-wave (km/s) = 6.21876 3.25742 4.96406
# Velocity P-wave (km/s) = 8.77131 6.30774 7.63949
#
# Compressibility (1/GPa) = 0.02450144
#
# Stress axis : x y z
#
# Youngs Moduli (GPa) = 63.05945 58.59901 81.51222
#
# Poissons Ratio (x) = 0.28817 0.10553
# Poissons Ratio (y) = 0.31010 0.33686
# Poissons Ratio (z) = 0.08164 0.24217
#
# Static dielectric constant tensor:
#      x y z
#    x 1.527850 0.000000 0.000000 
#    y 0.000000 1.524580 0.000000 
#    z 0.000000 0.000000 1.538250 
# 
# From -- ./inp_files/49171.got.cif
#   From: 2010.05.17/outbox.cif.g08.bks.cpg/sg72_25_cif.got.tgz:49171.got - 2010.06.03 17:03:01.
