data_PCOD9525916
_publ_section_title
;
Structure prediction by ZEFSAII (Michael W. Deem and Ramdas Pophale) SiO2 
 PCOD9525916
Probable space group: I B A M
;
_chemical_formula_sum "Si O2"
_cell_formula_units_Z 52
_cell_length_a 22.403427
_cell_length_b 7.083655
_cell_length_c 15.553193
_cell_angle_alpha 90.000000
_cell_angle_beta 90.000000
_cell_angle_gamma 90.000000
_cell_volume 2468.262920
_symmetry_space_group_name_H-M "I B A M"
_symmetry_group_IT_number 72
_symmetry_cell_setting 'orthorhombic'
loop_
_space_group_symop_operation_xyz
x,y,z
-x,-y,z
x,-y,1/2-z
-x,y,1/2-z
-x,-y,-z
x,y,-z
-x,y,1/2+z
x,-y,1/2+z
1/2+x,1/2+y,1/2+z
1/2-x,1/2-y,1/2+z
1/2+x,1/2-y,-z
1/2-x,1/2+y,-z
1/2-x,1/2-y,1/2-z
1/2+x,1/2+y,1/2-z
1/2-x,1/2+y,z
1/2+x,1/2-y,z
loop_
_atom_site_type_symbol
_atom_site_label
_atom_site_fract_x
_atom_site_fract_y
_atom_site_fract_z
Si Si1 0.707909 0.411827 0.845319
Si Si2 0.000000 0.500000 0.750000
Si Si3 0.662441 0.788487 0.905861
Si Si4 0.598301 0.272813 0.234143
O O1 0.719002 0.500000 0.750000
O O2 0.674923 0.563920 0.903594
O O3 0.771216 0.361898 0.883820
O O4 0.657481 0.256433 0.825113
O O5 0.957089 0.349196 0.701890
O O6 0.617436 0.812031 0.826773
O O7 0.643143 0.852658 0.000000
O O8 0.586975 0.500000 0.250000
#
# Coordination Sequence:
#
# PCOD9525916 Si02
#       4
#    16   4  16  16
#     4   9  18  33  53  81 117 146 184 231 282 343
#     4  12  22  36  66  78 104 164 204 234 268 322
#     4  10  19  32  55  86 117 144 176 234 301 342
#     4   9  21  37  56  83 112 146 200 236 274 334
#
# _framework density 21.067447999999999
#
# number of rings (size 3 to 8) (size 9 to 14) (size 15 to 20)
#    0.000    3.077    0.000    5.077    6.462    0.000 
#    0.000    0.769    0.000   16.615    0.000    0.000 
#    0.000    0.000    0.000    0.000    0.000    0.000 
#
# Total GULP energy -144743.034322 kJ/mol
# GULP energy per Si atom -5567.039782 kJ/mol
# Density = 2.101950 g / cm^3
# Si number density = 21.067448 Si / 1000 Ang^3
#
#
#
# Elastic Constant Matrix: (Units=GPa)
#
#
# Indices 1 2 3 4 5 6 
#
# 1 75.2602 36.8127 4.2245 0.0000 0.0000 0.0000
# 2 36.8127 69.2334 -15.6768 0.0000 0.0000 0.0000
# 3 4.2245 -15.6768 62.2005 0.0000 0.0000 0.0000
# 4 0.0000 0.0000 0.0000 4.8496 0.0000 0.0000
# 5 0.0000 0.0000 0.0000 0.0000 0.2675 0.0000
# 6 0.0000 0.0000 0.0000 0.0000 0.0000 47.9873
#
#
#
# Elastic Compliance Matrix: (Units=1/GPa)
#
#
# Indices 1 2 3 4 5 6 
#
# 1 0.018869 -0.010948 -0.004041 0.000000 0.000000 0.000000
# 2 -0.010948 0.021670 0.006205 0.000000 0.000000 0.000000
# 3 -0.004041 0.006205 0.017915 0.000000 0.000000 0.000000
# 4 0.000000 0.000000 0.000000 0.206205 0.000000 0.000000
# 5 0.000000 0.000000 0.000000 0.000000 3.738832 0.000000
# 6 0.000000 0.000000 0.000000 0.000000 0.000000 0.020839
#
#
# Mechanical properties :
#
#
# Convention : Reuss Voigt Hill
#
# Bulk Modulus (GPa) = 24.45734 28.60166 26.52950
# Shear Modulus (GPa) = 1.23289 22.70977 11.97133
#
# Velocity S-wave (km/s) = 0.76582 3.28679 2.38636
# Velocity P-wave (km/s) = 3.52367 5.29241 4.49588
#
# Compressibility (1/GPa) = 0.04088752
#
# Stress axis : x y z
#
# Youngs Moduli (GPa) = 52.99640 46.14613 55.81783
#
# Poissons Ratio (x) = 0.50521 0.22555
# Poissons Ratio (y) = 0.58021 -0.34636
# Poissons Ratio (z) = 0.21415 -0.28635
#
# Static dielectric constant tensor:
#      x y z
#    x 1.791260 0.000000 0.000000 
#    y 0.000000 1.915030 0.000000 
#    z 0.000000 0.000000 1.775520 
# 
# From -- ./inp_files/18326.got.cif
#   From: 2010.05.17/outbox.cif.g08.bks.cpg/sg72_10_cif.got.tgz:18326.got - 2010.06.03 17:03:01.
