data_PCOD9525183
_publ_section_title
;
Structure prediction by ZEFSAII (Michael W. Deem and Ramdas Pophale) SiO2 
 PCOD9525183
Probable space group: I B A M
;
_chemical_formula_sum "Si O2"
_cell_formula_units_Z 88
_cell_length_a 28.742659
_cell_length_b 19.817755
_cell_length_c 10.484679
_cell_angle_alpha 90.000000
_cell_angle_beta 90.000000
_cell_angle_gamma 90.000000
_cell_volume 5972.230157
_symmetry_space_group_name_H-M "I B A M"
_symmetry_group_IT_number 72
_symmetry_cell_setting 'orthorhombic'
loop_
_space_group_symop_operation_xyz
x,y,z
-x,-y,z
x,-y,1/2-z
-x,y,1/2-z
-x,-y,-z
x,y,-z
-x,y,1/2+z
x,-y,1/2+z
1/2+x,1/2+y,1/2+z
1/2-x,1/2-y,1/2+z
1/2+x,1/2-y,-z
1/2-x,1/2+y,-z
1/2-x,1/2-y,1/2-z
1/2+x,1/2+y,1/2-z
1/2-x,1/2+y,z
1/2+x,1/2-y,z
loop_
_atom_site_type_symbol
_atom_site_label
_atom_site_fract_x
_atom_site_fract_y
_atom_site_fract_z
Si Si1 0.640226 0.813748 0.144601
Si Si2 0.271567 0.551886 0.644303
Si Si3 0.413500 0.000000 0.250000
Si Si4 0.539198 0.134242 0.352023
Si Si5 0.217632 0.210109 0.649302
Si Si6 0.334266 0.084519 0.637276
O O1 0.584775 0.818419 0.161389
O O2 0.666321 0.742858 0.158334
O O3 0.662232 0.864076 0.246680
O O4 0.649385 0.838250 0.000000
O O5 0.289150 0.500000 0.750000
O O6 0.288017 0.537526 0.500000
O O7 0.282017 0.630253 0.674472
O O8 0.215197 0.547907 0.641731
O O9 0.443377 0.941311 0.315353
O O10 0.377907 0.965208 0.151305
O O11 0.500000 0.152680 0.250000
O O12 0.523852 0.135481 0.500000
O O13 0.232886 0.219123 0.500000
O O14 0.250000 0.250000 0.750000
O O15 0.336841 0.119951 0.500000
#
# Coordination Sequence:
#
# PCOD9525183 Si02
#       6
#    16  16   8  16  16  16
#     4   9  19  33  48  65  88 117 150 190 237 279
#     4  10  20  31  44  66  95 126 159 192 229 274
#     4  10  19  30  44  62  90 124 158 194 235 270
#     4  10  21  34  47  64  86 118 156 195 239 278
#     4  10  19  32  49  70  94 122 158 196 234 282
#     4  10  18  28  43  64  88 117 157 196 224 262
#
# _framework density 14.734864
#
# number of rings (size 3 to 8) (size 9 to 14) (size 15 to 20)
#    0.000    2.182    2.727    0.818    0.000    6.545 
#    0.000    0.000    0.000    0.000    0.000    0.000 
#    0.000    0.727    0.000    9.091    0.000    0.000 
#
# Total GULP energy -245085.327055 kJ/mol
# GULP energy per Si atom -5570.121069 kJ/mol
# Density = 1.470133 g / cm^3
# Si number density = 14.734864 Si / 1000 Ang^3
#
#
#
# Elastic Constant Matrix: (Units=GPa)
#
#
# Indices 1 2 3 4 5 6 
#
# 1 51.7027 27.2027 41.9213 0.0000 0.0000 0.0000
# 2 27.2027 74.8295 65.3265 0.0000 0.0000 0.0000
# 3 41.9213 65.3265 114.4939 0.0000 0.0000 0.0000
# 4 0.0000 0.0000 0.0000 21.0107 0.0000 0.0000
# 5 0.0000 0.0000 0.0000 0.0000 16.9223 0.0000
# 6 0.0000 0.0000 0.0000 0.0000 0.0000 15.1668
#
#
#
# Elastic Compliance Matrix: (Units=1/GPa)
#
#
# Indices 1 2 3 4 5 6 
#
# 1 0.027727 -0.002424 -0.008769 0.000000 0.000000 0.000000
# 2 -0.002424 0.026839 -0.014426 0.000000 0.000000 0.000000
# 3 -0.008769 -0.014426 0.020176 0.000000 0.000000 0.000000
# 4 0.000000 0.000000 0.000000 0.047595 0.000000 0.000000
# 5 0.000000 0.000000 0.000000 0.000000 0.059094 0.000000
# 6 0.000000 0.000000 0.000000 0.000000 0.000000 0.065933
#
#
# Mechanical properties :
#
#
# Convention : Reuss Voigt Hill
#
# Bulk Modulus (GPa) = 42.54680 56.65856 49.60268
# Shear Modulus (GPa) = 16.31670 17.72501 17.02086
#
# Velocity S-wave (km/s) = 3.33130 3.47209 3.40242
# Velocity P-wave (km/s) = 6.61320 7.38982 7.01227
#
# Compressibility (1/GPa) = 0.02350353
#
# Stress axis : x y z
#
# Youngs Moduli (GPa) = 36.06629 37.25976 49.56506
#
# Poissons Ratio (x) = 0.09033 0.43462
# Poissons Ratio (y) = 0.08743 0.71501
# Poissons Ratio (z) = 0.31626 0.53749
#
# Static dielectric constant tensor:
#      x y z
#    x 1.494190 0.000000 0.000000 
#    y 0.000000 1.480370 0.000000 
#    z 0.000000 0.000000 1.516810 
# 
# From -- ./inp_files/6281.got.cif
#   From: 2010.05.17/outbox.cif.g08.bks.cpg/sg72_4_cif.got.tgz:6281.got - 2010.06.03 17:03:01.
