data_PCOD9525427
_publ_section_title
;
Structure prediction by ZEFSAII (Michael W. Deem and Ramdas Pophale) SiO2 
 PCOD9525427
Probable space group: I B A M
;
_chemical_formula_sum "Si O2"
_cell_formula_units_Z 56
_cell_length_a 8.197309
_cell_length_b 12.102644
_cell_length_c 24.131098
_cell_angle_alpha 90.000000
_cell_angle_beta 90.000000
_cell_angle_gamma 90.000000
_cell_volume 2394.024818
_symmetry_space_group_name_H-M "I B A M"
_symmetry_group_IT_number 72
_symmetry_cell_setting 'orthorhombic'
loop_
_space_group_symop_operation_xyz
x,y,z
-x,-y,z
x,-y,1/2-z
-x,y,1/2-z
-x,-y,-z
x,y,-z
-x,y,1/2+z
x,-y,1/2+z
1/2+x,1/2+y,1/2+z
1/2-x,1/2-y,1/2+z
1/2+x,1/2-y,-z
1/2-x,1/2+y,-z
1/2-x,1/2-y,1/2-z
1/2+x,1/2+y,1/2-z
1/2-x,1/2+y,z
1/2+x,1/2-y,z
loop_
_atom_site_type_symbol
_atom_site_label
_atom_site_fract_x
_atom_site_fract_y
_atom_site_fract_z
Si Si1 0.234734 0.188937 0.829281
Si Si2 0.272601 0.478380 0.000000
Si Si3 0.500000 0.825215 0.750000
Si Si4 0.053496 0.153446 0.404427
Si Si5 0.543770 0.170531 0.500000
O O1 0.374446 0.121571 0.795121
O O2 0.321034 0.291107 0.861098
O O3 0.114485 0.246124 0.785985
O O4 0.113323 0.125943 0.871358
O O5 0.365565 0.435626 0.945442
O O6 0.217132 0.605939 0.000000
O O7 0.104464 0.412858 0.000000
O O8 0.022935 0.255068 0.446176
#
# Coordination Sequence:
#
# PCOD9525427 Si02
#       5
#    16   8   8  16   8
#     4   9  16  29  50  76 108 135 185 227 289 336
#     4  10  20  33  50  77 112 149 195 232 280 348
#     4   8  16  28  48  80 102 134 180 236 272 356
#     4  10  18  32  52  78 108 152 182 239 279 346
#     4  10  20  33  50  77 112 151 195 230 280 354
#
# _framework density 23.391570000000002
#
# number of rings (size 3 to 8) (size 9 to 14) (size 15 to 20)
#    0.000    2.571    2.857    0.000    0.000    0.000 
#    0.000    2.857    0.000    0.000    0.000   56.000 
#    0.000    0.000    0.000    0.000    0.000   14.286 
#
# Total GULP energy -156208.948810 kJ/mol
# GULP energy per Si atom -5578.891029 kJ/mol
# Density = 2.333833 g / cm^3
# Si number density = 23.391570 Si / 1000 Ang^3
#
#
#
# Elastic Constant Matrix: (Units=GPa)
#
#
# Indices 1 2 3 4 5 6 
#
# 1 175.3085 39.4882 93.1278 0.0000 0.0000 0.0000
# 2 39.4882 38.4666 34.9502 0.0000 0.0000 0.0000
# 3 93.1278 34.9502 162.3519 0.0000 0.0000 0.0000
# 4 0.0000 0.0000 0.0000 4.4625 0.0000 0.0000
# 5 0.0000 0.0000 0.0000 0.0000 47.0777 0.0000
# 6 0.0000 0.0000 0.0000 0.0000 0.0000 31.0134
#
#
#
# Elastic Compliance Matrix: (Units=1/GPa)
#
#
# Indices 1 2 3 4 5 6 
#
# 1 0.009118 -0.005728 -0.003997 0.000000 0.000000 0.000000
# 2 -0.005728 0.035917 -0.004446 0.000000 0.000000 0.000000
# 3 -0.003997 -0.004446 0.009409 0.000000 0.000000 0.000000
# 4 0.000000 0.000000 0.000000 0.224090 0.000000 0.000000
# 5 0.000000 0.000000 0.000000 0.000000 0.021241 0.000000
# 6 0.000000 0.000000 0.000000 0.000000 0.000000 0.032244
#
#
# Mechanical properties :
#
#
# Convention : Reuss Voigt Hill
#
# Bulk Modulus (GPa) = 38.31262 79.02883 58.67072
# Shear Modulus (GPa) = 13.54782 30.41478 21.98130
#
# Velocity S-wave (km/s) = 2.40922 3.60980 3.06880
# Velocity P-wave (km/s) = 4.91462 7.15771 6.13947
#
# Compressibility (1/GPa) = 0.02610106
#
# Stress axis : x y z
#
# Youngs Moduli (GPa) = 109.67531 27.84216 106.27777
#
# Poissons Ratio (x) = 0.15949 0.42479
# Poissons Ratio (y) = 0.62826 0.47252
# Poissons Ratio (z) = 0.43837 0.12379
#
# Static dielectric constant tensor:
#      x y z
#    x 1.947220 0.000000 0.000000 
#    y 0.000000 1.836770 0.000000 
#    z 0.000000 0.000000 1.965110 
# 
# From -- ./inp_files/41855.got.cif
#   From: 2010.05.17/outbox.cif.g08.bks.cpg/sg72_21_cif.got.tgz:41855.got - 2010.06.03 17:03:01.
