data_PCOD9525298
_publ_section_title
;
Structure prediction by ZEFSAII (Michael W. Deem and Ramdas Pophale) SiO2 
 PCOD9525298
Probable space group: I B A M
;
_chemical_formula_sum "Si O2"
_cell_formula_units_Z 112
_cell_length_a 27.125249
_cell_length_b 14.404563
_cell_length_c 17.885310
_cell_angle_alpha 90.000000
_cell_angle_beta 90.000000
_cell_angle_gamma 90.000000
_cell_volume 6988.279925
_symmetry_space_group_name_H-M "I B A M"
_symmetry_group_IT_number 72
_symmetry_cell_setting 'orthorhombic'
loop_
_space_group_symop_operation_xyz
x,y,z
-x,-y,z
x,-y,1/2-z
-x,y,1/2-z
-x,-y,-z
x,y,-z
-x,y,1/2+z
x,-y,1/2+z
1/2+x,1/2+y,1/2+z
1/2-x,1/2-y,1/2+z
1/2+x,1/2-y,-z
1/2-x,1/2+y,-z
1/2-x,1/2-y,1/2-z
1/2+x,1/2+y,1/2-z
1/2-x,1/2+y,z
1/2+x,1/2-y,z
loop_
_atom_site_type_symbol
_atom_site_label
_atom_site_fract_x
_atom_site_fract_y
_atom_site_fract_z
Si Si1 0.697916 0.660235 0.090438
Si Si2 0.300803 0.748326 0.851080
Si Si3 0.943007 0.390737 0.268077
Si Si4 0.789057 0.047321 0.414719
Si Si5 0.610523 0.140027 0.082902
Si Si6 0.351019 0.202341 0.804289
Si Si7 0.326232 0.952780 0.418768
O O1 0.750628 0.701349 0.120424
O O2 0.689272 0.551728 0.108334
O O3 0.656600 0.717935 0.134459
O O4 0.697732 0.670641 0.000000
O O5 0.295761 0.637936 0.863952
O O6 0.347841 0.784121 0.898114
O O7 0.315719 0.775179 0.766343
O O8 0.932137 0.500000 0.250000
O O9 0.930688 0.369255 0.354198
O O10 0.905571 0.323140 0.223960
O O11 0.000000 0.375068 0.250000
O O12 0.804736 0.070804 0.500000
O O13 0.731102 0.023912 0.418609
O O14 0.640771 0.043643 0.085524
O O15 0.590668 0.154139 0.000000
O O16 0.334399 0.110918 0.848027
O O17 0.336528 0.906551 0.500000
#
# Coordination Sequence:
#
# PCOD9525298 Si02
#       7
#    16  16  16  16  16  16  16
#     4  11  21  34  49  73 107 141 177 210 248 301
#     4  11  21  32  49  74 107 139 179 212 251 298
#     4  10  21  38  55  76 107 133 164 222 276 308
#     4  10  20  32  48  71 106 146 175 211 246 284
#     4  10  19  34  55  77 102 143 183 209 250 316
#     4  11  22  34  50  76  99 142 175 209 259 314
#     4  10  18  30  49  73 105 141 177 212 247 297
#
# _framework density 16.026833
#
# number of rings (size 3 to 8) (size 9 to 14) (size 15 to 20)
#    0.000    1.571    4.286    2.143    0.000    0.571 
#    0.000    2.857    0.000    0.000    0.000    8.000 
#    0.000   10.286    0.000    0.000    0.000    0.000 
#
# Total GULP energy -312092.839639 kJ/mol
# GULP energy per Si atom -5573.086422 kJ/mol
# Density = 1.599036 g / cm^3
# Si number density = 16.026833 Si / 1000 Ang^3
#
#
#
# Elastic Constant Matrix: (Units=GPa)
#
#
# Indices 1 2 3 4 5 6 
#
# 1 73.9279 34.4130 50.3382 0.0000 0.0000 0.0000
# 2 34.4130 88.9275 43.7272 0.0000 0.0000 0.0000
# 3 50.3382 43.7272 101.4595 0.0000 0.0000 0.0000
# 4 0.0000 0.0000 0.0000 6.4857 0.0000 0.0000
# 5 0.0000 0.0000 0.0000 0.0000 9.7574 0.0000
# 6 0.0000 0.0000 0.0000 0.0000 0.0000 -3.3602
#
#
#
# Elastic Compliance Matrix: (Units=1/GPa)
#
#
# Indices 1 2 3 4 5 6 
#
# 1 0.021439 -0.003891 -0.008960 0.000000 0.000000 0.000000
# 2 -0.003891 0.014975 -0.004524 0.000000 0.000000 0.000000
# 3 -0.008960 -0.004524 0.016251 0.000000 0.000000 0.000000
# 4 0.000000 0.000000 0.000000 0.154184 0.000000 0.000000
# 5 0.000000 0.000000 0.000000 0.000000 0.102486 0.000000
# 6 0.000000 0.000000 0.000000 0.000000 0.000000 -0.297605
#
#
# Mechanical properties :
#
#
# Convention : Reuss Voigt Hill
#
# Bulk Modulus (GPa) = 55.81419 57.91909 56.86664
# Shear Modulus (GPa) = 95.32913 11.63237 53.48075
#
# Velocity S-wave (km/s) = 7.72076 2.69700 5.78290
# Velocity P-wave (km/s) = 10.69491 6.77611 8.95257
#
# Compressibility (1/GPa) = 0.01791659
#
# Stress axis : x y z
#
# Youngs Moduli (GPa) = 46.64504 66.77763 61.53432
#
# Poissons Ratio (x) = 0.25980 0.55133
# Poissons Ratio (y) = 0.18148 0.27836
# Poissons Ratio (z) = 0.41793 0.30208
#
# Static dielectric constant tensor:
#      x y z
#    x 1.511260 0.000000 0.000000 
#    y 0.000000 1.555580 0.000000 
#    z 0.000000 0.000000 1.597240 
# 
# From -- ./inp_files/25932.got.cif
#   From: 2010.05.17/outbox.cif.g08.bks.cpg/sg72_13_cif.got.tgz:25932.got - 2010.06.03 17:03:01.
