data_PCOD9525330
_publ_section_title
;
Structure prediction by ZEFSAII (Michael W. Deem and Ramdas Pophale) SiO2 
 PCOD9525330
Probable space group: I B A M
;
_chemical_formula_sum "Si O2"
_cell_formula_units_Z 96
_cell_length_a 14.796502
_cell_length_b 17.319808
_cell_length_c 19.270898
_cell_angle_alpha 90.000000
_cell_angle_beta 90.000000
_cell_angle_gamma 90.000000
_cell_volume 4938.602628
_symmetry_space_group_name_H-M "I B A M"
_symmetry_group_IT_number 72
_symmetry_cell_setting 'orthorhombic'
loop_
_space_group_symop_operation_xyz
x,y,z
-x,-y,z
x,-y,1/2-z
-x,y,1/2-z
-x,-y,-z
x,y,-z
-x,y,1/2+z
x,-y,1/2+z
1/2+x,1/2+y,1/2+z
1/2-x,1/2-y,1/2+z
1/2+x,1/2-y,-z
1/2-x,1/2+y,-z
1/2-x,1/2-y,1/2-z
1/2+x,1/2+y,1/2-z
1/2-x,1/2+y,z
1/2+x,1/2-y,z
loop_
_atom_site_type_symbol
_atom_site_label
_atom_site_fract_x
_atom_site_fract_y
_atom_site_fract_z
Si Si1 0.797491 0.337339 0.579038
Si Si2 0.716528 0.923294 0.713087
Si Si3 0.405273 0.800463 0.720509
Si Si4 0.899524 0.877805 0.230165
Si Si5 0.399403 0.262442 0.923210
Si Si6 0.597933 0.674971 0.420008
O O1 0.814521 0.361223 0.500000
O O2 0.810737 0.405161 0.634287
O O3 0.693195 0.309695 0.585269
O O4 0.857244 0.259900 0.591815
O O5 0.677448 0.849705 0.753269
O O6 0.823777 0.920188 0.725255
O O7 0.680987 0.000000 0.750000
O O8 0.500000 0.830995 0.750000
O O9 0.396912 0.712436 0.746881
O O10 0.406087 0.798407 0.637932
O O11 0.879618 0.877421 0.147091
O O12 0.000000 0.904773 0.250000
O O13 0.489459 0.314113 0.917691
O O14 0.398465 0.227719 0.000000
O O15 0.622314 0.651815 0.500000
#
# Coordination Sequence:
#
# PCOD9525330 Si02
#       6
#    16  16  16  16  16  16
#     4  10  19  33  52  76 107 139 172 213 265 317
#     4  12  24  36  53  79 110 148 180 213 261 320
#     4  11  19  35  58  81 106 135 179 227 266 305
#     4  11  19  35  58  81 106 135 179 227 266 305
#     4  10  18  30  53  84 107 130 169 223 275 311
#     4  10  18  30  53  84 107 130 169 223 275 311
#
# _framework density 19.438697999999999
#
# number of rings (size 3 to 8) (size 9 to 14) (size 15 to 20)
#    0.000    1.333    6.667    1.500    0.000    0.667 
#    0.000    1.667    0.000    0.000    0.000   11.667 
#    0.000    0.000    0.000    0.000    0.000    0.000 
#
# Total GULP energy -267768.721404 kJ/mol
# GULP energy per Si atom -5578.515029 kJ/mol
# Density = 1.939445 g / cm^3
# Si number density = 19.438698 Si / 1000 Ang^3
#
#
#
# Elastic Constant Matrix: (Units=GPa)
#
#
# Indices 1 2 3 4 5 6 
#
# 1 29.3717 -8.1750 -15.2313 0.0000 0.0000 0.0000
# 2 -8.1750 24.6129 12.5404 0.0000 0.0000 0.0000
# 3 -15.2313 12.5404 163.5953 0.0000 0.0000 0.0000
# 4 0.0000 0.0000 0.0000 13.5225 0.0000 0.0000
# 5 0.0000 0.0000 0.0000 0.0000 24.7567 0.0000
# 6 0.0000 0.0000 0.0000 0.0000 0.0000 -10.9075
#
#
#
# Elastic Compliance Matrix: (Units=1/GPa)
#
#
# Indices 1 2 3 4 5 6 
#
# 1 0.038644 0.011449 0.002720 0.000000 0.000000 0.000000
# 2 0.011449 0.045673 -0.002435 0.000000 0.000000 0.000000
# 3 0.002720 -0.002435 0.006553 0.000000 0.000000 0.000000
# 4 0.000000 0.000000 0.000000 0.073951 0.000000 0.000000
# 5 0.000000 0.000000 0.000000 0.000000 0.040393 0.000000
# 6 0.000000 0.000000 0.000000 0.000000 0.000000 -0.091680
#
#
# Mechanical properties :
#
#
# Convention : Reuss Voigt Hill
#
# Bulk Modulus (GPa) = 8.74602 21.76090 15.25346
# Shear Modulus (GPa) = 39.00861 20.70406 29.85633
#
# Velocity S-wave (km/s) = 4.48454 3.26712 3.92334
# Velocity P-wave (km/s) = 5.59677 5.04490 5.32798
#
# Compressibility (1/GPa) = 0.11433778
#
# Stress axis : x y z
#
# Youngs Moduli (GPa) = 25.87748 21.89495 152.61200
#
# Poissons Ratio (x) = -0.25068 -0.41514
# Poissons Ratio (y) = -0.29628 0.37162
# Poissons Ratio (z) = -0.07039 0.05332
#
# Static dielectric constant tensor:
#      x y z
#    x 1.726330 0.000000 0.000000 
#    y 0.000000 1.642510 0.000000 
#    z 0.000000 0.000000 1.746370 
# 
# From -- ./inp_files/38352.got.cif
#   From: 2010.05.17/outbox.cif.g08.bks.cpg/sg72_20_cif.got.tgz:38352.got - 2010.06.03 17:03:01.
