data_PCOD9525822
_publ_section_title
;
Structure prediction by ZEFSAII (Michael W. Deem and Ramdas Pophale) SiO2 
 PCOD9525822
Probable space group: I B A M
;
_chemical_formula_sum "Si O2"
_cell_formula_units_Z 80
_cell_length_a 28.782201
_cell_length_b 9.235019
_cell_length_c 17.047308
_cell_angle_alpha 90.000000
_cell_angle_beta 90.000000
_cell_angle_gamma 90.000000
_cell_volume 4531.245606
_symmetry_space_group_name_H-M "I B A M"
_symmetry_group_IT_number 72
_symmetry_cell_setting 'orthorhombic'
loop_
_space_group_symop_operation_xyz
x,y,z
-x,-y,z
x,-y,1/2-z
-x,y,1/2-z
-x,-y,-z
x,y,-z
-x,y,1/2+z
x,-y,1/2+z
1/2+x,1/2+y,1/2+z
1/2-x,1/2-y,1/2+z
1/2+x,1/2-y,-z
1/2-x,1/2+y,-z
1/2-x,1/2-y,1/2-z
1/2+x,1/2+y,1/2-z
1/2-x,1/2+y,z
1/2+x,1/2-y,z
loop_
_atom_site_type_symbol
_atom_site_label
_atom_site_fract_x
_atom_site_fract_y
_atom_site_fract_z
Si Si1 0.291756 0.280809 0.410949
Si Si2 0.444954 0.170090 0.740289
Si Si3 0.779186 0.923158 0.665738
Si Si4 0.598902 0.681641 0.409914
Si Si5 0.883925 0.103381 0.826823
O O1 0.281352 0.237146 0.500000
O O2 0.262200 0.185632 0.351296
O O3 0.278544 0.447367 0.396974
O O4 0.347073 0.273191 0.398254
O O5 0.500000 0.190627 0.750000
O O6 0.430068 0.232699 0.655367
O O7 0.416849 0.264214 0.804510
O O8 0.434379 0.000000 0.750000
O O9 0.830446 0.852130 0.659236
O O10 0.775303 0.000000 0.750000
O O11 0.585823 0.710381 0.500000
O O12 0.598107 0.508483 0.392604
O O13 0.882540 0.000000 0.750000
#
# Coordination Sequence:
#
# PCOD9525822 Si02
#       5
#    16  16  16  16  16
#     4  10  20  33  50  75 108 141 171 211 259 300
#     4  10  21  38  57  79 106 136 169 216 273 323
#     4  10  19  32  50  75 104 139 179 214 247 298
#     4   9  19  36  56  78 106 139 178 219 256 303
#     4   8  17  34  54  76 103 138 178 215 255 305
#
# _framework density 17.655189
#
# number of rings (size 3 to 8) (size 9 to 14) (size 15 to 20)
#    0.000    2.600    0.000    2.400    0.000    6.800 
#    0.000    5.000    0.000    0.000    0.000    0.000 
#    0.000    0.000    0.000    0.000    0.000    0.000 
#
# Total GULP energy -223003.422820 kJ/mol
# GULP energy per Si atom -5575.085571 kJ/mol
# Density = 1.761501 g / cm^3
# Si number density = 17.655189 Si / 1000 Ang^3
#
#
#
# Elastic Constant Matrix: (Units=GPa)
#
#
# Indices 1 2 3 4 5 6 
#
# 1 87.9101 78.2035 49.1515 0.0000 0.0000 0.0000
# 2 78.2035 94.8169 46.6604 0.0000 0.0000 0.0000
# 3 49.1515 46.6604 87.3080 0.0000 0.0000 0.0000
# 4 0.0000 0.0000 0.0000 21.9877 0.0000 0.0000
# 5 0.0000 0.0000 0.0000 0.0000 13.4222 0.0000
# 6 0.0000 0.0000 0.0000 0.0000 0.0000 26.4304
#
#
#
# Elastic Compliance Matrix: (Units=1/GPa)
#
#
# Indices 1 2 3 4 5 6 
#
# 1 0.046209 -0.034343 -0.007660 0.000000 0.000000 0.000000
# 2 -0.034343 0.039834 -0.001955 0.000000 0.000000 0.000000
# 3 -0.007660 -0.001955 0.016811 0.000000 0.000000 0.000000
# 4 0.000000 0.000000 0.000000 0.045480 0.000000 0.000000
# 5 0.000000 0.000000 0.000000 0.000000 0.074504 0.000000
# 6 0.000000 0.000000 0.000000 0.000000 0.000000 0.037835
#
#
# Mechanical properties :
#
#
# Convention : Reuss Voigt Hill
#
# Bulk Modulus (GPa) = 66.94199 68.67398 67.80799
# Shear Modulus (GPa) = 14.14157 18.76935 16.45546
#
# Velocity S-wave (km/s) = 2.83324 3.26407 3.05626
# Velocity P-wave (km/s) = 6.97866 7.29296 7.13754
#
# Compressibility (1/GPa) = 0.01493831
#
# Stress axis : x y z
#
# Youngs Moduli (GPa) = 21.64087 25.10420 59.48544
#
# Poissons Ratio (x) = 0.86215 0.45567
# Poissons Ratio (y) = 0.74321 0.11628
# Poissons Ratio (z) = 0.16577 0.04907
#
# Static dielectric constant tensor:
#      x y z
#    x 1.589050 0.000000 0.000000 
#    y 0.000000 1.598860 0.000000 
#    z 0.000000 0.000000 1.627150 
# 
# From -- ./inp_files/28118.got.cif
#   From: 2010.05.17/outbox.cif.g08.bks.cpg/sg72_15_cif.got.tgz:28118.got - 2010.06.03 17:03:01.
