data_PCOD9525748
_publ_section_title
;
Structure prediction by ZEFSAII (Michael W. Deem and Ramdas Pophale) SiO2 
 PCOD9525748
Probable space group: I B A M
;
_chemical_formula_sum "Si O2"
_cell_formula_units_Z 96
_cell_length_a 30.723344
_cell_length_b 20.366914
_cell_length_c 8.720174
_cell_angle_alpha 90.000000
_cell_angle_beta 90.000000
_cell_angle_gamma 90.000000
_cell_volume 5456.559107
_symmetry_space_group_name_H-M "I B A M"
_symmetry_group_IT_number 72
_symmetry_cell_setting 'orthorhombic'
loop_
_space_group_symop_operation_xyz
x,y,z
-x,-y,z
x,-y,1/2-z
-x,y,1/2-z
-x,-y,-z
x,y,-z
-x,y,1/2+z
x,-y,1/2+z
1/2+x,1/2+y,1/2+z
1/2-x,1/2-y,1/2+z
1/2+x,1/2-y,-z
1/2-x,1/2+y,-z
1/2-x,1/2-y,1/2-z
1/2+x,1/2+y,1/2-z
1/2-x,1/2+y,z
1/2+x,1/2-y,z
loop_
_atom_site_type_symbol
_atom_site_label
_atom_site_fract_x
_atom_site_fract_y
_atom_site_fract_z
Si Si1 0.165815 0.568791 0.184253
Si Si2 0.236568 0.930958 0.815968
Si Si3 0.451497 0.289013 0.316853
Si Si4 0.049170 0.933945 0.683422
Si Si5 0.375679 0.205871 0.184712
Si Si6 0.208404 0.788548 0.185044
O O1 0.148879 0.500000 0.250000
O O2 0.214313 0.577526 0.252339
O O3 0.136853 0.631483 0.226368
O O4 0.169258 0.565453 0.000000
O O5 0.210804 0.865181 0.771152
O O6 0.219701 0.000000 0.750000
O O7 0.238211 0.935272 0.000000
O O8 0.500000 0.282959 0.250000
O O9 0.454231 0.286649 0.500000
O O10 0.433104 0.361924 0.274537
O O11 0.419618 0.233627 0.255148
O O12 0.047344 0.939471 0.500000
O O13 0.000000 0.932763 0.750000
O O14 0.070536 0.000000 0.750000
O O15 0.335474 0.252107 0.234550
O O16 0.378571 0.209141 0.000000
O O17 0.250000 0.750000 0.250000
O O18 0.210582 0.785126 0.000000
#
# Coordination Sequence:
#
# PCOD9525748 Si02
#       6
#    16  16  16  16  16  16
#     4  10  19  32  52  77 106 138 174 217 262 311
#     4  10  19  31  50  74 104 143 181 218 262 310
#     4  10  21  36  55  79 106 138 178 222 269 319
#     4   9  16  27  46  72  98 127 165 208 254 303
#     4  10  21  36  54  78 108 141 176 218 268 317
#     4  10  20  34  52  76 106 140 175 216 263 311
#
# _framework density 17.593503999999999
#
# number of rings (size 3 to 8) (size 9 to 14) (size 15 to 20)
#    0.000    2.167    1.667    3.500    0.000    4.667 
#    0.000    0.833    0.000    4.500    0.000    3.500 
#    0.000    0.000    0.000    0.000    0.000    0.000 
#
# Total GULP energy -267728.322460 kJ/mol
# GULP energy per Si atom -5577.673385 kJ/mol
# Density = 1.755346 g / cm^3
# Si number density = 17.593504 Si / 1000 Ang^3
#
#
#
# Elastic Constant Matrix: (Units=GPa)
#
#
# Indices 1 2 3 4 5 6 
#
# 1 64.3992 61.2185 19.0875 0.0000 0.0000 0.0000
# 2 61.2185 185.5946 50.1029 0.0000 0.0000 0.0000
# 3 19.0875 50.1029 42.2571 0.0000 0.0000 0.0000
# 4 0.0000 0.0000 0.0000 32.7355 0.0000 0.0000
# 5 0.0000 0.0000 0.0000 0.0000 20.1019 0.0000
# 6 0.0000 0.0000 0.0000 0.0000 0.0000 23.6276
#
#
#
# Elastic Compliance Matrix: (Units=1/GPa)
#
#
# Indices 1 2 3 4 5 6 
#
# 1 0.022739 -0.006953 -0.002027 0.000000 0.000000 0.000000
# 2 -0.006953 0.010051 -0.008776 0.000000 0.000000 0.000000
# 3 -0.002027 -0.008776 0.034986 0.000000 0.000000 0.000000
# 4 0.000000 0.000000 0.000000 0.030548 0.000000 0.000000
# 5 0.000000 0.000000 0.000000 0.000000 0.049747 0.000000
# 6 0.000000 0.000000 0.000000 0.000000 0.000000 0.042323
#
#
# Mechanical properties :
#
#
# Convention : Reuss Voigt Hill
#
# Bulk Modulus (GPa) = 30.99539 61.45208 46.22373
# Shear Modulus (GPa) = 21.12738 26.08247 23.60492
#
# Velocity S-wave (km/s) = 3.46911 3.85451 3.66687
# Velocity P-wave (km/s) = 5.80534 7.40367 6.65268
#
# Compressibility (1/GPa) = 0.03226286
#
# Stress axis : x y z
#
# Youngs Moduli (GPa) = 43.97792 99.49437 28.58304
#
# Poissons Ratio (x) = 0.69181 0.05793
# Poissons Ratio (y) = 0.30579 0.25085
# Poissons Ratio (z) = 0.08914 0.87318
#
# Static dielectric constant tensor:
#      x y z
#    x 1.565130 0.000000 0.000000 
#    y 0.000000 1.641730 0.000000 
#    z 0.000000 0.000000 1.582280 
# 
# From -- ./inp_files/8072.got.cif
#   From: 2010.05.17/outbox.cif.g08.bks.cpg/sg72_5_cif.got.tgz:8072.got - 2010.06.03 17:03:01.
