data_PCOD9525398
_publ_section_title
;
Structure prediction by ZEFSAII (Michael W. Deem and Ramdas Pophale) SiO2 
 PCOD9525398
Probable space group: I B A M
;
_chemical_formula_sum "Si O2"
_cell_formula_units_Z 80
_cell_length_a 16.498325
_cell_length_b 14.378705
_cell_length_c 14.067599
_cell_angle_alpha 90.000000
_cell_angle_beta 90.000000
_cell_angle_gamma 90.000000
_cell_volume 3337.179817
_symmetry_space_group_name_H-M "I B A M"
_symmetry_group_IT_number 72
_symmetry_cell_setting 'orthorhombic'
loop_
_space_group_symop_operation_xyz
x,y,z
-x,-y,z
x,-y,1/2-z
-x,y,1/2-z
-x,-y,-z
x,y,-z
-x,y,1/2+z
x,-y,1/2+z
1/2+x,1/2+y,1/2+z
1/2-x,1/2-y,1/2+z
1/2+x,1/2-y,-z
1/2-x,1/2+y,-z
1/2-x,1/2-y,1/2-z
1/2+x,1/2+y,1/2-z
1/2-x,1/2+y,z
1/2+x,1/2-y,z
loop_
_atom_site_type_symbol
_atom_site_label
_atom_site_fract_x
_atom_site_fract_y
_atom_site_fract_z
Si Si1 0.605612 0.645238 0.698671
Si Si2 0.724926 0.187940 0.389896
Si Si3 0.602898 0.539767 0.892960
Si Si4 0.779618 0.402828 0.395786
Si Si5 0.089503 0.353486 0.756025
O O1 0.701832 0.651673 0.676369
O O2 0.585961 0.606426 0.803579
O O3 0.572966 0.565183 0.627936
O O4 0.578764 0.751871 0.692468
O O5 0.730087 0.157122 0.500000
O O6 0.741688 0.298832 0.390425
O O7 0.639212 0.166105 0.340922
O O8 0.701199 0.533432 0.887969
O O9 0.583586 0.570906 0.000000
O O10 0.816134 0.414058 0.500000
O O11 0.849120 0.412754 0.319439
O O12 0.000000 0.392499 0.750000
#
# Coordination Sequence:
#
# PCOD9525398 Si02
#       5
#    16  16  16  16  16
#     4  10  19  34  54  80 106 139 185 226 272 322
#     4  10  18  33  54  76 101 137 187 234 270 315
#     4  10  18  31  56  81 103 133 181 236 273 310
#     4   9  17  33  56  77 101 137 186 233 271 313
#     4  11  21  34  51  79 115 147 176 220 278 341
#
# _framework density 23.972337
#
# number of rings (size 3 to 8) (size 9 to 14) (size 15 to 20)
#    0.000    2.000    4.000    1.800    0.000    1.600 
#    0.000    2.000    0.000    3.600    0.000    4.200 
#    0.000    0.000    0.000    0.000    0.000    0.000 
#
# Total GULP energy -223659.732655 kJ/mol
# GULP energy per Si atom -5591.493316 kJ/mol
# Density = 2.391778 g / cm^3
# Si number density = 23.972337 Si / 1000 Ang^3
#
#
#
# Elastic Constant Matrix: (Units=GPa)
#
#
# Indices 1 2 3 4 5 6 
#
# 1 151.5978 -2.7045 52.9296 0.0000 0.0000 0.0000
# 2 -2.7045 88.1771 21.1508 0.0000 0.0000 0.0000
# 3 52.9296 21.1508 146.5409 0.0000 0.0000 0.0000
# 4 0.0000 0.0000 0.0000 19.9901 0.0000 0.0000
# 5 0.0000 0.0000 0.0000 0.0000 22.1220 0.0000
# 6 0.0000 0.0000 0.0000 0.0000 0.0000 23.7120
#
#
#
# Elastic Compliance Matrix: (Units=1/GPa)
#
#
# Indices 1 2 3 4 5 6 
#
# 1 0.007621 0.000926 -0.002886 0.000000 0.000000 0.000000
# 2 0.000926 0.011860 -0.002046 0.000000 0.000000 0.000000
# 3 -0.002886 -0.002046 0.008162 0.000000 0.000000 0.000000
# 4 0.000000 0.000000 0.000000 0.050025 0.000000 0.000000
# 5 0.000000 0.000000 0.000000 0.000000 0.045204 0.000000
# 6 0.000000 0.000000 0.000000 0.000000 0.000000 0.042173
#
#
# Mechanical properties :
#
#
# Convention : Reuss Voigt Hill
#
# Bulk Modulus (GPa) = 50.94328 58.78527 54.86427
# Shear Modulus (GPa) = 27.83967 34.16082 31.00025
#
# Velocity S-wave (km/s) = 3.41152 3.77903 3.59996
# Velocity P-wave (km/s) = 6.06753 6.60430 6.34160
#
# Compressibility (1/GPa) = 0.01962967
#
# Stress axis : x y z
#
# Youngs Moduli (GPa) = 131.22300 84.31664 122.52128
#
# Poissons Ratio (x) = -0.07808 0.35362
# Poissons Ratio (y) = -0.12152 0.25071
# Poissons Ratio (z) = 0.37873 0.17254
#
# Static dielectric constant tensor:
#      x y z
#    x 1.954310 0.000000 0.000000 
#    y 0.000000 1.989320 0.000000 
#    z 0.000000 0.000000 1.887300 
# 
# From -- ./inp_files/21563.got.cif
#   From: 2010.05.17/outbox.cif.g08.bks.cpg/sg72_11_cif.got.tgz:21563.got - 2010.06.03 17:03:01.
