data_PCOD9525889
_publ_section_title
;
Structure prediction by ZEFSAII (Michael W. Deem and Ramdas Pophale) SiO2 
 PCOD9525889
Probable space group: I B A M
;
_chemical_formula_sum "Si O2"
_cell_formula_units_Z 80
_cell_length_a 13.025252
_cell_length_b 23.471478
_cell_length_c 13.839376
_cell_angle_alpha 90.000000
_cell_angle_beta 90.000000
_cell_angle_gamma 90.000000
_cell_volume 4231.000544
_symmetry_space_group_name_H-M "I B A M"
_symmetry_group_IT_number 72
_symmetry_cell_setting 'orthorhombic'
loop_
_space_group_symop_operation_xyz
x,y,z
-x,-y,z
x,-y,1/2-z
-x,y,1/2-z
-x,-y,-z
x,y,-z
-x,y,1/2+z
x,-y,1/2+z
1/2+x,1/2+y,1/2+z
1/2-x,1/2-y,1/2+z
1/2+x,1/2-y,-z
1/2-x,1/2+y,-z
1/2-x,1/2-y,1/2-z
1/2+x,1/2+y,1/2-z
1/2-x,1/2+y,z
1/2+x,1/2-y,z
loop_
_atom_site_type_symbol
_atom_site_label
_atom_site_fract_x
_atom_site_fract_y
_atom_site_fract_z
Si Si1 0.622426 0.988541 0.110282
Si Si2 0.251098 0.106515 0.612680
Si Si3 0.379949 0.319055 0.772775
Si Si4 0.783647 0.714577 0.387705
Si Si5 0.115838 0.378825 0.721534
O O1 0.656251 0.939358 0.183053
O O2 0.500000 0.000000 0.127650
O O3 0.695003 0.044128 0.114753
O O4 0.627902 0.967254 0.000000
O O5 0.242041 0.122000 0.500000
O O6 0.148578 0.120905 0.673888
O O7 0.329899 0.141965 0.680090
O O8 0.500000 0.314314 0.750000
O O9 0.314763 0.305873 0.675303
O O10 0.336406 0.271429 0.846460
O O11 0.760107 0.719429 0.500000
O O12 0.866064 0.665458 0.363448
O O13 0.000000 0.386107 0.750000
#
# Coordination Sequence:
#
# PCOD9525889 Si02
#       5
#    16  16  16  16  16
#     4  10  19  32  53  85 122 159 196 240 301 359
#     4  10  21  34  54  84 117 158 203 245 292 358
#     4  10  22  42  62  85 116 160 205 251 300 355
#     4  10  22  38  59  89 120 154 201 253 302 356
#     4  11  20  32  54  84 125 163 196 244 300 362
#
# _framework density 18.908055999999998
#
# number of rings (size 3 to 8) (size 9 to 14) (size 15 to 20)
#    0.000    1.800    2.000    2.400    0.000    2.400 
#    0.000    0.000    0.000    9.600    0.000   19.600 
#    0.000    0.000    0.000    0.000    0.000    0.000 
#
# Total GULP energy -222690.815563 kJ/mol
# GULP energy per Si atom -5567.270389 kJ/mol
# Density = 1.886502 g / cm^3
# Si number density = 18.908056 Si / 1000 Ang^3
#
#
#
# Elastic Constant Matrix: (Units=GPa)
#
#
# Indices 1 2 3 4 5 6 
#
# 1 96.7304 38.0237 58.3772 0.0000 0.0000 0.0000
# 2 38.0237 80.9363 35.3792 0.0000 0.0000 0.0000
# 3 58.3772 35.3792 176.8805 0.0000 0.0000 0.0000
# 4 0.0000 0.0000 0.0000 31.6747 0.0000 0.0000
# 5 0.0000 0.0000 0.0000 0.0000 14.0149 0.0000
# 6 0.0000 0.0000 0.0000 0.0000 0.0000 16.4664
#
#
#
# Elastic Compliance Matrix: (Units=1/GPa)
#
#
# Indices 1 2 3 4 5 6 
#
# 1 0.014692 -0.005241 -0.003801 0.000000 0.000000 0.000000
# 2 -0.005241 0.015409 -0.001352 0.000000 0.000000 0.000000
# 3 -0.003801 -0.001352 0.007178 0.000000 0.000000 0.000000
# 4 0.000000 0.000000 0.000000 0.031571 0.000000 0.000000
# 5 0.000000 0.000000 0.000000 0.000000 0.071353 0.000000
# 6 0.000000 0.000000 0.000000 0.000000 0.000000 0.060730
#
#
# Mechanical properties :
#
#
# Convention : Reuss Voigt Hill
#
# Bulk Modulus (GPa) = 60.63802 68.67862 64.65832
# Shear Modulus (GPa) = 22.00540 27.28233 24.64387
#
# Velocity S-wave (km/s) = 3.41517 3.80267 3.61411
# Velocity P-wave (km/s) = 6.90585 7.46201 7.18931
#
# Compressibility (1/GPa) = 0.01649130
#
# Stress axis : x y z
#
# Youngs Moduli (GPa) = 68.06512 64.89851 139.30760
#
# Poissons Ratio (x) = 0.34012 0.52945
# Poissons Ratio (y) = 0.35672 0.18839
# Poissons Ratio (z) = 0.25869 0.08776
#
# Static dielectric constant tensor:
#      x y z
#    x 1.683720 0.000000 0.000000 
#    y 0.000000 2.018590 0.000000 
#    z 0.000000 0.000000 1.696570 
# 
# From -- ./inp_files/20446.got.cif
#   From: 2010.05.17/outbox.cif.g08.bks.cpg/sg72_11_cif.got.tgz:20446.got - 2010.06.03 17:03:01.
