data_PCOD9525293
_publ_section_title
;
Structure prediction by ZEFSAII (Michael W. Deem and Ramdas Pophale) SiO2 
 PCOD9525293
Probable space group: I B A M
;
_chemical_formula_sum "Si O2"
_cell_formula_units_Z 104
_cell_length_a 27.641825
_cell_length_b 14.226674
_cell_length_c 14.445289
_cell_angle_alpha 90.000000
_cell_angle_beta 90.000000
_cell_angle_gamma 90.000000
_cell_volume 5680.627711
_symmetry_space_group_name_H-M "I B A M"
_symmetry_group_IT_number 72
_symmetry_cell_setting 'orthorhombic'
loop_
_space_group_symop_operation_xyz
x,y,z
-x,-y,z
x,-y,1/2-z
-x,y,1/2-z
-x,-y,-z
x,y,-z
-x,y,1/2+z
x,-y,1/2+z
1/2+x,1/2+y,1/2+z
1/2-x,1/2-y,1/2+z
1/2+x,1/2-y,-z
1/2-x,1/2+y,-z
1/2-x,1/2-y,1/2-z
1/2+x,1/2+y,1/2-z
1/2-x,1/2+y,z
1/2+x,1/2-y,z
loop_
_atom_site_type_symbol
_atom_site_label
_atom_site_fract_x
_atom_site_fract_y
_atom_site_fract_z
Si Si1 0.500000 0.352314 0.750000
Si Si2 0.322542 0.343244 0.390808
Si Si3 0.221635 0.346194 0.113238
Si Si4 0.924495 0.826833 0.604731
Si Si5 0.912617 0.962351 0.156486
Si Si6 0.774319 0.443796 0.113432
Si Si7 0.821287 0.251438 0.887357
O O1 0.466265 0.299722 0.823400
O O2 0.462415 0.413876 0.688910
O O3 0.312850 0.335301 0.500000
O O4 0.313654 0.237743 0.353853
O O5 0.375287 0.387634 0.382521
O O6 0.279754 0.412196 0.357019
O O7 0.212699 0.451907 0.145994
O O8 0.275700 0.312847 0.139651
O O9 0.220002 0.349339 0.000000
O O10 0.932866 0.793478 0.500000
O O11 0.872907 0.789527 0.640605
O O12 0.922427 0.941237 0.602441
O O13 0.888145 0.000000 0.250000
O O14 0.809340 0.358118 0.140595
O O15 0.774753 0.446641 0.000000
O O16 0.821790 0.249448 0.000000
#
# Coordination Sequence:
#
# PCOD9525293 Si02
#       7
#     8  16  16  16  16  16  16
#     4  10  23  36  46  68  95 120 155 198 244 286
#     4   9  16  25  43  69  91 119 156 186 225 278
#     4   8  13  22  38  66 100 124 148 187 225 263
#     4  10  18  30  49  69  92 124 158 192 232 280
#     4  10  19  31  44  62  90 121 152 190 236 281
#     4   8  13  23  40  66  99 124 147 185 222 264
#     4   8  14  23  40  68  95 124 158 181 216 275
#
# _framework density 18.307836000000002
#
# number of rings (size 3 to 8) (size 9 to 14) (size 15 to 20)
#    0.000    3.077    0.000    5.308    0.000    4.308 
#    0.000    0.000    0.000   23.077    0.000    2.154 
#    0.000    6.154    0.000    0.000    0.000    0.615 
#
# Total GULP energy -289736.676421 kJ/mol
# GULP energy per Si atom -5571.859162 kJ/mol
# Density = 1.826617 g / cm^3
# Si number density = 18.307836 Si / 1000 Ang^3
#
#
#
# Elastic Constant Matrix: (Units=GPa)
#
#
# Indices 1 2 3 4 5 6 
#
# 1 99.6927 35.6388 9.3269 0.0000 0.0000 0.0000
# 2 35.6388 96.5012 8.7360 0.0000 0.0000 0.0000
# 3 9.3269 8.7360 40.2819 0.0000 0.0000 0.0000
# 4 0.0000 0.0000 0.0000 15.2259 0.0000 0.0000
# 5 0.0000 0.0000 0.0000 0.0000 1.5822 0.0000
# 6 0.0000 0.0000 0.0000 0.0000 0.0000 18.1199
#
#
#
# Elastic Compliance Matrix: (Units=1/GPa)
#
#
# Indices 1 2 3 4 5 6 
#
# 1 0.011684 -0.004152 -0.001805 0.000000 0.000000 0.000000
# 2 -0.004152 0.012045 -0.001651 0.000000 0.000000 0.000000
# 3 -0.001805 -0.001651 0.025601 0.000000 0.000000 0.000000
# 4 0.000000 0.000000 0.000000 0.065678 0.000000 0.000000
# 5 0.000000 0.000000 0.000000 0.000000 0.632038 0.000000
# 6 0.000000 0.000000 0.000000 0.000000 0.000000 0.055188
#
#
# Mechanical properties :
#
#
# Convention : Reuss Voigt Hill
#
# Bulk Modulus (GPa) = 29.31256 38.20880 33.76068
# Shear Modulus (GPa) = 6.03267 19.17053 12.60160
#
# Velocity S-wave (km/s) = 1.81722 3.23944 2.62643
# Velocity P-wave (km/s) = 4.52203 5.90825 5.26100
#
# Compressibility (1/GPa) = 0.03411506
#
# Stress axis : x y z
#
# Youngs Moduli (GPa) = 85.58849 83.02036 39.06096
#
# Poissons Ratio (x) = 0.34466 0.07050
# Poissons Ratio (y) = 0.35532 0.06449
# Poissons Ratio (z) = 0.15448 0.13707
#
# Static dielectric constant tensor:
#      x y z
#    x 1.607140 0.000000 0.000000 
#    y 0.000000 1.643710 0.000000 
#    z 0.000000 0.000000 1.734600 
# 
# From -- ./inp_files/33380.got.cif
#   From: 2010.05.17/outbox.cif.g08.bks.cpg/sg72_17_cif.got.tgz:33380.got - 2010.06.03 17:03:01.
