data_PCOD9525150
_publ_section_title
;
Structure prediction by ZEFSAII (Michael W. Deem and Ramdas Pophale) SiO2 
 PCOD9525150
Probable space group: I B A M
;
_chemical_formula_sum "Si O2"
_cell_formula_units_Z 64
_cell_length_a 5.409911
_cell_length_b 33.900301
_cell_length_c 14.296935
_cell_angle_alpha 90.000000
_cell_angle_beta 90.000000
_cell_angle_gamma 90.000000
_cell_volume 2622.023728
_symmetry_space_group_name_H-M "I B A M"
_symmetry_group_IT_number 72
_symmetry_cell_setting 'orthorhombic'
loop_
_space_group_symop_operation_xyz
x,y,z
-x,-y,z
x,-y,1/2-z
-x,y,1/2-z
-x,-y,-z
x,y,-z
-x,y,1/2+z
x,-y,1/2+z
1/2+x,1/2+y,1/2+z
1/2-x,1/2-y,1/2+z
1/2+x,1/2-y,-z
1/2-x,1/2+y,-z
1/2-x,1/2-y,1/2-z
1/2+x,1/2+y,1/2-z
1/2-x,1/2+y,z
1/2+x,1/2-y,z
loop_
_atom_site_type_symbol
_atom_site_label
_atom_site_fract_x
_atom_site_fract_y
_atom_site_fract_z
Si Si1 0.043326 0.232896 0.861305
Si Si2 0.250324 0.523995 0.387516
Si Si3 0.765259 0.855031 0.138159
Si Si4 0.259975 0.887396 0.848930
O O1 0.261100 0.262129 0.895992
O O2 0.165956 0.190312 0.876588
O O3 0.000000 0.238539 0.750000
O O4 0.500000 0.500000 0.363572
O O5 0.259659 0.531671 0.500000
O O6 0.227357 0.565870 0.336621
O O7 0.000000 0.500000 0.369019
O O8 0.502678 0.870023 0.102820
O O9 0.751869 0.864807 0.249389
O O10 0.000125 0.879035 0.102782
#
# Coordination Sequence:
#
# PCOD9525150 Si02
#       4
#    16  16  16  16
#     4  10  18  26  43  66 100 138 163 190 223 275
#     4  10  21  38  56  72  91 120 164 209 243 284
#     4  10  19  32  45  73 108 129 156 194 238 294
#     4  10  19  32  49  69  99 130 152 196 249 285
#
# _framework density 24.408628
#
# number of rings (size 3 to 8) (size 9 to 14) (size 15 to 20)
#    0.000    2.000    2.500    3.000    7.000    0.000 
#    0.000   15.000    0.000    0.000    0.000    0.000 
#    0.000   34.000    0.000    0.000    0.000    0.000 
#
# Total GULP energy -178803.455190 kJ/mol
# GULP energy per Si atom -5587.607975 kJ/mol
# Density = 2.435307 g / cm^3
# Si number density = 24.408628 Si / 1000 Ang^3
#
#
#
# Elastic Constant Matrix: (Units=GPa)
#
#
# Indices 1 2 3 4 5 6 
#
# 1 275.7585 77.9478 -6.4329 0.0000 0.0000 0.0000
# 2 77.9478 152.7152 -5.3024 0.0000 0.0000 0.0000
# 3 -6.4329 -5.3024 92.2980 0.0000 0.0000 0.0000
# 4 0.0000 0.0000 0.0000 -84.8804 0.0000 0.0000
# 5 0.0000 0.0000 0.0000 0.0000 -27.5528 0.0000
# 6 0.0000 0.0000 0.0000 0.0000 0.0000 50.0711
#
#
#
# Elastic Compliance Matrix: (Units=1/GPa)
#
#
# Indices 1 2 3 4 5 6 
#
# 1 0.004240 -0.002158 0.000172 0.000000 0.000000 0.000000
# 2 -0.002158 0.007660 0.000290 0.000000 0.000000 0.000000
# 3 0.000172 0.000290 0.010863 0.000000 0.000000 0.000000
# 4 0.000000 0.000000 0.000000 -0.011781 0.000000 0.000000
# 5 0.000000 0.000000 0.000000 0.000000 -0.036294 0.000000
# 6 0.000000 0.000000 0.000000 0.000000 0.000000 0.019972
#
#
# Mechanical properties :
#
#
# Convention : Reuss Voigt Hill
#
# Bulk Modulus (GPa) = 51.62921 72.57741 62.10331
# Shear Modulus (GPa) = 1108.47107 17.83151 563.15129
#
# Velocity S-wave (km/s) = 21.33346 2.70579 15.20589
# Velocity P-wave (km/s) = 25.06033 6.28972 18.26993
#
# Compressibility (1/GPa) = 0.01936888
#
# Stress axis : x y z
#
# Youngs Moduli (GPa) = 235.82217 130.55026 92.05502
#
# Poissons Ratio (x) = 0.28178 -0.01579
# Poissons Ratio (y) = 0.50901 -0.02666
# Poissons Ratio (z) = -0.04046 -0.03781
#
# Static dielectric constant tensor:
#      x y z
#    x 2.009810 0.000000 0.000000 
#    y 0.000000 1.869710 0.000000 
#    z 0.000000 0.000000 1.961220 
# 
# From -- ./inp_files/27028.got.cif
#   From: 2010.05.17/outbox.cif.g08.bks.cpg/sg72_14_cif.got.tgz:27028.got - 2010.06.03 17:03:01.
