data_PCOD9525170
_publ_section_title
;
Structure prediction by ZEFSAII (Michael W. Deem and Ramdas Pophale) SiO2 
 PCOD9525170
Probable space group: I B A M
;
_chemical_formula_sum "Si O2"
_cell_formula_units_Z 48
_cell_length_a 19.887448
_cell_length_b 7.566278
_cell_length_c 12.770502
_cell_angle_alpha 90.000000
_cell_angle_beta 90.000000
_cell_angle_gamma 90.000000
_cell_volume 1921.628011
_symmetry_space_group_name_H-M "I B A M"
_symmetry_group_IT_number 72
_symmetry_cell_setting 'orthorhombic'
loop_
_space_group_symop_operation_xyz
x,y,z
-x,-y,z
x,-y,1/2-z
-x,y,1/2-z
-x,-y,-z
x,y,-z
-x,y,1/2+z
x,-y,1/2+z
1/2+x,1/2+y,1/2+z
1/2-x,1/2-y,1/2+z
1/2+x,1/2-y,-z
1/2-x,1/2+y,-z
1/2-x,1/2-y,1/2-z
1/2+x,1/2+y,1/2-z
1/2-x,1/2+y,z
1/2+x,1/2-y,z
loop_
_atom_site_type_symbol
_atom_site_label
_atom_site_fract_x
_atom_site_fract_y
_atom_site_fract_z
Si Si1 0.622502 0.393438 0.385917
Si Si2 0.770462 0.079436 0.500000
Si Si3 0.429078 0.761402 0.193660
Si Si4 0.636261 0.073231 0.000000
O O1 0.596549 0.333141 0.500000
O O2 0.696964 0.472573 0.402908
O O3 0.620922 0.256072 0.292321
O O4 0.577313 0.565608 0.357447
O O5 0.810453 0.262590 0.500000
O O6 0.690865 0.083619 0.500000
O O7 0.500000 0.790236 0.250000
O O8 0.408439 0.897268 0.103365
#
# Coordination Sequence:
#
# PCOD9525170 Si02
#       4
#    16   8  16   8
#     4   8  16  29  44  71 101 142 166 212 265 311
#     4   8  18  33  51  73 109 136 184 214 260 322
#     4  10  18  27  48  75 109 134 170 225 269 317
#     4  10  20  35  51  83 107 144 176 214 272 314
#
# _framework density 24.978819000000001
#
# number of rings (size 3 to 8) (size 9 to 14) (size 15 to 20)
#    1.000    2.000    1.667    2.000    2.333    2.667 
#    0.000    0.000    0.000    0.000    0.000   16.333 
#    0.000    0.000    0.000    0.000    0.000    0.000 
#
# Total GULP energy -133941.105887 kJ/mol
# GULP energy per Si atom -5580.879412 kJ/mol
# Density = 2.492197 g / cm^3
# Si number density = 24.978819 Si / 1000 Ang^3
#
#
#
# Elastic Constant Matrix: (Units=GPa)
#
#
# Indices 1 2 3 4 5 6 
#
# 1 152.2368 29.8654 57.9441 0.0000 0.0000 0.0000
# 2 29.8654 73.3770 34.1291 0.0000 0.0000 0.0000
# 3 57.9441 34.1291 176.0053 0.0000 0.0000 0.0000
# 4 0.0000 0.0000 0.0000 -14.2379 0.0000 0.0000
# 5 0.0000 0.0000 0.0000 0.0000 -3.0652 0.0000
# 6 0.0000 0.0000 0.0000 0.0000 0.0000 29.1573
#
#
#
# Elastic Compliance Matrix: (Units=1/GPa)
#
#
# Indices 1 2 3 4 5 6 
#
# 1 0.007815 -0.002181 -0.002150 0.000000 0.000000 0.000000
# 2 -0.002181 0.015588 -0.002305 0.000000 0.000000 0.000000
# 3 -0.002150 -0.002305 0.006836 0.000000 0.000000 0.000000
# 4 0.000000 0.000000 0.000000 -0.070235 0.000000 0.000000
# 5 0.000000 0.000000 0.000000 0.000000 -0.326246 0.000000
# 6 0.000000 0.000000 0.000000 0.000000 0.000000 0.034297
#
#
# Mechanical properties :
#
#
# Convention : Reuss Voigt Hill
#
# Bulk Modulus (GPa) = 58.93358 71.72182 65.32770
# Shear Modulus (GPa) = -15.97352 21.01621 2.52135
#
# Velocity S-wave (km/s) = -2.53154 2.90377 1.00578
# Velocity P-wave (km/s) = 3.88583 6.32597 5.24965
#
# Compressibility (1/GPa) = 0.01696825
#
# Stress axis : x y z
#
# Youngs Moduli (GPa) = 127.96187 64.15266 146.27726
#
# Poissons Ratio (x) = 0.13990 0.31448
# Poissons Ratio (y) = 0.27906 0.33712
# Poissons Ratio (z) = 0.27511 0.14785
#
# Static dielectric constant tensor:
#      x y z
#    x 1.951910 0.000000 0.000000 
#    y 0.000000 2.139210 0.000000 
#    z 0.000000 0.000000 1.998250 
# 
# From -- ./inp_files/22638.got.cif
#   From: 2010.05.17/outbox.cif.g08.bks.cpg/sg72_12_cif.got.tgz:22638.got - 2010.06.03 17:03:01.
