data_PCOD9525991
_publ_section_title
;
Structure prediction by ZEFSAII (Michael W. Deem and Ramdas Pophale) SiO2 
 PCOD9525991
Probable space group: I B A M
;
_chemical_formula_sum "Si O2"
_cell_formula_units_Z 80
_cell_length_a 17.043482
_cell_length_b 26.112564
_cell_length_c 9.279063
_cell_angle_alpha 90.000000
_cell_angle_beta 90.000000
_cell_angle_gamma 90.000000
_cell_volume 4129.637844
_symmetry_space_group_name_H-M "I B A M"
_symmetry_group_IT_number 72
_symmetry_cell_setting 'orthorhombic'
loop_
_space_group_symop_operation_xyz
x,y,z
-x,-y,z
x,-y,1/2-z
-x,y,1/2-z
-x,-y,-z
x,y,-z
-x,y,1/2+z
x,-y,1/2+z
1/2+x,1/2+y,1/2+z
1/2-x,1/2-y,1/2+z
1/2+x,1/2-y,-z
1/2-x,1/2+y,-z
1/2-x,1/2-y,1/2-z
1/2+x,1/2+y,1/2-z
1/2-x,1/2+y,z
1/2+x,1/2-y,z
loop_
_atom_site_type_symbol
_atom_site_label
_atom_site_fract_x
_atom_site_fract_y
_atom_site_fract_z
Si Si1 0.886825 0.448613 0.166331
Si Si2 0.806288 0.150940 0.834128
Si Si3 0.423332 0.740690 0.672561
Si Si4 0.382594 0.154801 0.668389
Si Si5 0.195389 0.949711 0.336393
O O1 0.910850 0.500000 0.250000
O O2 0.908204 0.397761 0.254920
O O3 0.791111 0.449346 0.163471
O O4 0.913670 0.447547 0.000000
O O5 0.850170 0.203393 0.796616
O O6 0.712397 0.156526 0.826097
O O7 0.829930 0.103148 0.736458
O O8 0.825857 0.138806 0.000000
O O9 0.500000 0.718192 0.750000
O O10 0.432875 0.744853 0.500000
O O11 0.410849 0.796121 0.743397
O O12 0.406292 0.156381 0.500000
O O13 0.168805 0.952663 0.500000
O O14 0.170742 0.000000 0.250000
#
# Coordination Sequence:
#
# PCOD9525991 Si02
#       5
#    16  16  16  16  16
#     4   9  16  27  45  73 106 137 168 206 251 300
#     4   9  19  34  53  77 105 135 171 213 257 304
#     4  11  23  38  54  74 102 137 174 215 260 308
#     4  10  19  33  54  79 105 135 171 213 257 304
#     4   9  16  26  45  73 105 136 167 205 252 302
#
# _framework density 19.372159
#
# number of rings (size 3 to 8) (size 9 to 14) (size 15 to 20)
#    0.000    2.400    0.000    3.000    0.000    7.200 
#    0.000    0.000    0.000    1.200    0.000    8.400 
#    0.000    0.000    0.000    0.000    0.000    0.000 
#
# Total GULP energy -223381.546754 kJ/mol
# GULP energy per Si atom -5584.538669 kJ/mol
# Density = 1.932807 g / cm^3
# Si number density = 19.372159 Si / 1000 Ang^3
#
#
#
# Elastic Constant Matrix: (Units=GPa)
#
#
# Indices 1 2 3 4 5 6 
#
# 1 38.0562 38.0362 35.0975 0.0000 0.0000 0.0000
# 2 38.0362 149.5106 96.9649 0.0000 0.0000 0.0000
# 3 35.0975 96.9649 153.4544 0.0000 0.0000 0.0000
# 4 0.0000 0.0000 0.0000 41.2436 0.0000 0.0000
# 5 0.0000 0.0000 0.0000 0.0000 14.1723 0.0000
# 6 0.0000 0.0000 0.0000 0.0000 0.0000 -19.1038
#
#
#
# Elastic Compliance Matrix: (Units=1/GPa)
#
#
# Indices 1 2 3 4 5 6 
#
# 1 0.036794 -0.006613 -0.004237 0.000000 0.000000 0.000000
# 2 -0.006613 0.012521 -0.006399 0.000000 0.000000 0.000000
# 3 -0.004237 -0.006399 0.011529 0.000000 0.000000 0.000000
# 4 0.000000 0.000000 0.000000 0.024246 0.000000 0.000000
# 5 0.000000 0.000000 0.000000 0.000000 0.070560 0.000000
# 6 0.000000 0.000000 0.000000 0.000000 0.000000 -0.052346
#
#
# Mechanical properties :
#
#
# Convention : Reuss Voigt Hill
#
# Bulk Modulus (GPa) = 37.95625 75.69094 56.82360
# Shear Modulus (GPa) = 34.10996 18.65727 26.38361
#
# Velocity S-wave (km/s) = 4.20071 3.10675 3.69444
# Velocity P-wave (km/s) = 6.56991 7.21291 6.89890
#
# Compressibility (1/GPa) = 0.02634612
#
# Stress axis : x y z
#
# Youngs Moduli (GPa) = 27.17863 79.86502 86.73532
#
# Poissons Ratio (x) = 0.52812 0.36749
# Poissons Ratio (y) = 0.17972 0.55506
# Poissons Ratio (z) = 0.11515 0.51109
#
# Static dielectric constant tensor:
#      x y z
#    x 1.693290 0.000000 0.000000 
#    y 0.000000 1.647520 0.000000 
#    z 0.000000 0.000000 1.654150 
# 
# From -- ./inp_files/4751.got.cif
#   From: 2010.05.17/outbox.cif.g08.bks.cpg/sg72_3_cif.got.tgz:4751.got - 2010.06.03 17:03:01.
