data_PCOD9525194
_publ_section_title
;
Structure prediction by ZEFSAII (Michael W. Deem and Ramdas Pophale) SiO2 
 PCOD9525194
Probable space group: I B A M
;
_chemical_formula_sum "Si O2"
_cell_formula_units_Z 88
_cell_length_a 21.512143
_cell_length_b 12.394351
_cell_length_c 22.044276
_cell_angle_alpha 90.000000
_cell_angle_beta 90.000000
_cell_angle_gamma 90.000000
_cell_volume 5877.644392
_symmetry_space_group_name_H-M "I B A M"
_symmetry_group_IT_number 72
_symmetry_cell_setting 'orthorhombic'
loop_
_space_group_symop_operation_xyz
x,y,z
-x,-y,z
x,-y,1/2-z
-x,y,1/2-z
-x,-y,-z
x,y,-z
-x,y,1/2+z
x,-y,1/2+z
1/2+x,1/2+y,1/2+z
1/2-x,1/2-y,1/2+z
1/2+x,1/2-y,-z
1/2-x,1/2+y,-z
1/2-x,1/2-y,1/2-z
1/2+x,1/2+y,1/2-z
1/2-x,1/2+y,z
1/2+x,1/2-y,z
loop_
_atom_site_type_symbol
_atom_site_label
_atom_site_fract_x
_atom_site_fract_y
_atom_site_fract_z
Si Si1 0.301880 0.428450 0.071567
Si Si2 0.427799 0.002191 0.927600
Si Si3 0.326059 0.869696 0.860964
Si Si4 0.165411 0.307809 0.428340
Si Si5 0.727678 0.000000 0.250000
Si Si6 0.211379 0.870890 0.353484
O O1 0.232439 0.399010 0.095187
O O2 0.341592 0.319968 0.082913
O O3 0.321493 0.533523 0.109044
O O4 0.300583 0.450327 0.000000
O O5 0.387734 0.913963 0.892069
O O6 0.500000 0.000000 0.910719
O O7 0.393693 0.116883 0.915803
O O8 0.423409 0.982558 0.000000
O O9 0.312247 0.933005 0.798596
O O10 0.324373 0.741671 0.851244
O O11 0.180921 0.319699 0.500000
O O12 0.223634 0.348042 0.388893
O O13 0.769995 0.082594 0.288153
#
# Coordination Sequence:
#
# PCOD9525194 Si02
#       6
#    16  16  16  16   8  16
#     4   9  16  26  45  70  95 121 149 193 241 286
#     4  10  19  32  50  70  96 126 156 192 235 285
#     4  10  19  30  45  68  97 124 158 192 236 281
#     4   9  16  28  45  67  95 124 156 189 236 286
#     4  10  18  30  45  68  96 127 154 194 240 280
#     4  10  18  28  46  70  96 124 153 193 241 283
#
# _framework density 14.971984000000001
#
# number of rings (size 3 to 8) (size 9 to 14) (size 15 to 20)
#    0.000    2.364    3.636    1.636    0.000    2.182 
#    0.000    0.455    0.000    1.091    0.000    5.091 
#    0.000    0.000    0.000    0.000    0.000    0.000 
#
# Total GULP energy -245143.611563 kJ/mol
# GULP energy per Si atom -5571.445717 kJ/mol
# Density = 1.493791 g / cm^3
# Si number density = 14.971984 Si / 1000 Ang^3
#
#
#
# Elastic Constant Matrix: (Units=GPa)
#
#
# Indices 1 2 3 4 5 6 
#
# 1 81.4570 60.2837 38.4602 0.0000 0.0000 0.0000
# 2 60.2837 143.0146 50.6193 0.0000 0.0000 0.0000
# 3 38.4602 50.6193 63.3672 0.0000 0.0000 0.0000
# 4 0.0000 0.0000 0.0000 23.7713 0.0000 0.0000
# 5 0.0000 0.0000 0.0000 0.0000 11.8131 0.0000
# 6 0.0000 0.0000 0.0000 0.0000 0.0000 14.8758
#
#
#
# Elastic Compliance Matrix: (Units=1/GPa)
#
#
# Indices 1 2 3 4 5 6 
#
# 1 0.020163 -0.005811 -0.007596 0.000000 0.000000 0.000000
# 2 -0.005811 0.011423 -0.005598 0.000000 0.000000 0.000000
# 3 -0.007596 -0.005598 0.024864 0.000000 0.000000 0.000000
# 4 0.000000 0.000000 0.000000 0.042067 0.000000 0.000000
# 5 0.000000 0.000000 0.000000 0.000000 0.084652 0.000000
# 6 0.000000 0.000000 0.000000 0.000000 0.000000 0.067223
#
#
# Mechanical properties :
#
#
# Convention : Reuss Voigt Hill
#
# Bulk Modulus (GPa) = 54.23129 65.17392 59.70260
# Shear Modulus (GPa) = 16.97508 19.32375 18.14941
#
# Velocity S-wave (km/s) = 3.37083 3.59647 3.48548
# Velocity P-wave (km/s) = 7.17290 7.80200 7.49406
#
# Compressibility (1/GPa) = 0.01843954
#
# Stress axis : x y z
#
# Youngs Moduli (GPa) = 49.59518 87.54200 40.21934
#
# Poissons Ratio (x) = 0.50867 0.30552
# Poissons Ratio (y) = 0.28818 0.22516
# Poissons Ratio (z) = 0.37674 0.49009
#
# Static dielectric constant tensor:
#      x y z
#    x 1.455940 0.000000 0.000000 
#    y 0.000000 1.533670 0.000000 
#    z 0.000000 0.000000 1.499960 
# 
# From -- ./inp_files/38881.got.cif
#   From: 2010.05.17/outbox.cif.g08.bks.cpg/sg72_20_cif.got.tgz:38881.got - 2010.06.03 17:03:01.
