data_PCOD9525157
_publ_section_title
;
Structure prediction by ZEFSAII (Michael W. Deem and Ramdas Pophale) SiO2 
 PCOD9525157
Probable space group: I B A M
;
_chemical_formula_sum "Si O2"
_cell_formula_units_Z 96
_cell_length_a 24.139309
_cell_length_b 18.754715
_cell_length_c 13.266814
_cell_angle_alpha 90.000000
_cell_angle_beta 90.000000
_cell_angle_gamma 90.000000
_cell_volume 6006.229785
_symmetry_space_group_name_H-M "I B A M"
_symmetry_group_IT_number 72
_symmetry_cell_setting 'orthorhombic'
loop_
_space_group_symop_operation_xyz
x,y,z
-x,-y,z
x,-y,1/2-z
-x,y,1/2-z
-x,-y,-z
x,y,-z
-x,y,1/2+z
x,-y,1/2+z
1/2+x,1/2+y,1/2+z
1/2-x,1/2-y,1/2+z
1/2+x,1/2-y,-z
1/2-x,1/2+y,-z
1/2-x,1/2-y,1/2-z
1/2+x,1/2+y,1/2-z
1/2-x,1/2+y,z
1/2+x,1/2-y,z
loop_
_atom_site_type_symbol
_atom_site_label
_atom_site_fract_x
_atom_site_fract_y
_atom_site_fract_z
Si Si1 0.685110 0.954276 0.878779
Si Si2 0.733968 0.330941 0.879256
Si Si3 0.088509 0.339001 0.620741
Si Si4 0.479911 0.920799 0.879001
Si Si5 0.352379 0.892316 0.121330
Si Si6 0.670097 0.759951 0.241236
O O1 0.739527 0.908157 0.855647
O O2 0.631481 0.904435 0.858001
O O3 0.678293 0.035423 0.844292
O O4 0.684540 0.960256 0.000000
O O5 0.683336 0.309943 0.806344
O O6 0.782361 0.276112 0.842065
O O7 0.724453 0.325042 0.000000
O O8 0.090504 0.326599 0.500000
O O9 0.112688 0.272337 0.682415
O O10 0.027555 0.365093 0.649658
O O11 0.417159 0.902839 0.851284
O O12 0.500000 0.000000 0.851237
O O13 0.479584 0.920726 0.000000
O O14 0.328529 0.823518 0.176200
O O15 0.348514 0.884879 0.000000
#
# Coordination Sequence:
#
# PCOD9525157 Si02
#       6
#    16  16  16  16  16  16
#     4   8  14  26  42  56  76 107 142 180 217 253
#     4   9  18  32  44  54  73 103 140 184 231 274
#     4   9  16  27  40  56  80 110 143 176 210 252
#     4   9  15  26  41  57  86 122 148 176 212 247
#     4  10  18  27  41  63  87 111 145 186 213 245
#     4  10  19  28  42  60  77 103 140 185 227 260
#
# _framework density 15.983404999999999
#
# number of rings (size 3 to 8) (size 9 to 14) (size 15 to 20)
#    0.000    2.833    1.667    2.000    0.000    3.333 
#    0.000    0.833    0.000    0.000    0.000    2.333 
#    0.000    0.000    0.000    0.000    0.000   81.667 
#
# Total GULP energy -267470.724289 kJ/mol
# GULP energy per Si atom -5572.306756 kJ/mol
# Density = 1.594703 g / cm^3
# Si number density = 15.983405 Si / 1000 Ang^3
#
#
#
# Elastic Constant Matrix: (Units=GPa)
#
#
# Indices 1 2 3 4 5 6 
#
# 1 62.1393 38.6151 28.9715 0.0000 0.0000 0.0000
# 2 38.6151 49.2972 24.6094 0.0000 0.0000 0.0000
# 3 28.9715 24.6094 96.1814 0.0000 0.0000 0.0000
# 4 0.0000 0.0000 0.0000 23.3054 0.0000 0.0000
# 5 0.0000 0.0000 0.0000 0.0000 29.6501 0.0000
# 6 0.0000 0.0000 0.0000 0.0000 0.0000 26.6585
#
#
#
# Elastic Compliance Matrix: (Units=1/GPa)
#
#
# Indices 1 2 3 4 5 6 
#
# 1 0.032498 -0.023581 -0.003755 0.000000 0.000000 0.000000
# 2 -0.023581 0.040367 -0.003225 0.000000 0.000000 0.000000
# 3 -0.003755 -0.003225 0.012353 0.000000 0.000000 0.000000
# 4 0.000000 0.000000 0.000000 0.042909 0.000000 0.000000
# 5 0.000000 0.000000 0.000000 0.000000 0.033727 0.000000
# 6 0.000000 0.000000 0.000000 0.000000 0.000000 0.037511
#
#
# Mechanical properties :
#
#
# Convention : Reuss Voigt Hill
#
# Bulk Modulus (GPa) = 41.50380 43.55666 42.53023
# Shear Modulus (GPa) = 18.62058 23.61758 21.11908
#
# Velocity S-wave (km/s) = 3.41691 3.84817 3.63893
# Velocity P-wave (km/s) = 6.44904 6.85965 6.65752
#
# Compressibility (1/GPa) = 0.02409418
#
# Stress axis : x y z
#
# Youngs Moduli (GPa) = 30.77128 24.77285 80.94918
#
# Poissons Ratio (x) = 0.58418 0.30399
# Poissons Ratio (y) = 0.72563 0.26109
# Poissons Ratio (z) = 0.11556 0.07990
#
# Static dielectric constant tensor:
#      x y z
#    x 1.557190 0.000000 0.000000 
#    y 0.000000 1.527110 0.000000 
#    z 0.000000 0.000000 1.639700 
# 
# From -- ./inp_files/24403.got.cif
#   From: 2010.05.17/outbox.cif.g08.bks.cpg/sg72_13_cif.got.tgz:24403.got - 2010.06.03 17:03:01.
