data_PCOD9525597
_publ_section_title
;
Structure prediction by ZEFSAII (Michael W. Deem and Ramdas Pophale) SiO2 
 PCOD9525597
Probable space group: I B A M
;
_chemical_formula_sum "Si O2"
_cell_formula_units_Z 116
_cell_length_a 12.792481
_cell_length_b 14.003294
_cell_length_c 26.580168
_cell_angle_alpha 90.000000
_cell_angle_beta 90.000000
_cell_angle_gamma 90.000000
_cell_volume 4761.488164
_symmetry_space_group_name_H-M "I B A M"
_symmetry_group_IT_number 72
_symmetry_cell_setting 'orthorhombic'
loop_
_space_group_symop_operation_xyz
x,y,z
-x,-y,z
x,-y,1/2-z
-x,y,1/2-z
-x,-y,-z
x,y,-z
-x,y,1/2+z
x,-y,1/2+z
1/2+x,1/2+y,1/2+z
1/2-x,1/2-y,1/2+z
1/2+x,1/2-y,-z
1/2-x,1/2+y,-z
1/2-x,1/2-y,1/2-z
1/2+x,1/2+y,1/2-z
1/2-x,1/2+y,z
1/2+x,1/2-y,z
loop_
_atom_site_type_symbol
_atom_site_label
_atom_site_fract_x
_atom_site_fract_y
_atom_site_fract_z
Si Si1 0.520386 0.133986 0.191116
Si Si2 0.681606 0.282935 0.444046
Si Si3 0.523028 0.361173 0.306689
Si Si4 0.535279 0.395888 0.056032
Si Si5 0.179702 0.874789 0.639476
Si Si6 0.876555 0.572942 0.403078
Si Si7 0.254205 0.832597 0.158172
Si Si8 0.000000 0.500000 0.000000
O O1 0.500000 0.107916 0.250000
O O2 0.496927 0.247123 0.186242
O O3 0.456204 0.088544 0.144156
O O4 0.643343 0.121046 0.181271
O O5 0.726044 0.283473 0.500000
O O6 0.569867 0.335543 0.444690
O O7 0.650612 0.177981 0.425100
O O8 0.750816 0.334448 0.402244
O O9 0.500000 0.384490 0.250000
O O10 0.424497 0.410440 0.333444
O O11 0.643487 0.370522 0.322134
O O12 0.500000 0.500000 0.074442
O O13 0.623778 0.343479 0.087559
O O14 0.576431 0.410321 0.000000
O O15 0.266485 0.951281 0.624106
O O16 0.231270 0.783762 0.667786
O O17 0.913596 0.517111 0.453050
#
# Coordination Sequence:
#
# PCOD9525597 Si02
#       8
#    16  16  16  16  16  16  16   4
#     4  10  21  36  61  94 138 178 225 289 343 423
#     4  10  18  37  62  91 135 173 222 287 343 413
#     4  10  19  32  61 104 135 170 230 291 349 411
#     4  10  21  37  60  92 126 168 216 271 342 407
#     4  10  20  36  62  87 135 176 218 286 343 409
#     4  11  23  44  62  97 133 181 236 285 356 415
#     4  10  19  35  59  98 136 175 228 279 343 416
#     4  12  28  48  66  92 136 184 240 292 344 448
#
# _framework density 24.362131999999999
#
# number of rings (size 3 to 8) (size 9 to 14) (size 15 to 20)
#    0.000    1.793    4.828    0.828    2.897    2.207 
#    3.724    0.345    0.000    0.414    3.586    0.000 
#    0.000    0.000    0.000    0.000    0.000    0.000 
#
# Total GULP energy -323202.281962 kJ/mol
# GULP energy per Si atom -5572.453137 kJ/mol
# Density = 2.430668 g / cm^3
# Si number density = 24.362132 Si / 1000 Ang^3
#
#
#
# Elastic Constant Matrix: (Units=GPa)
#
#
# Indices 1 2 3 4 5 6 
#
# 1 211.4264 27.5355 113.9667 0.0000 0.0000 0.0000
# 2 27.5355 58.7703 9.4944 0.0000 0.0000 0.0000
# 3 113.9667 9.4944 215.0397 0.0000 0.0000 0.0000
# 4 0.0000 0.0000 0.0000 0.8377 0.0000 0.0000
# 5 0.0000 0.0000 0.0000 0.0000 7.1763 0.0000
# 6 0.0000 0.0000 0.0000 0.0000 0.0000 24.0217
#
#
#
# Elastic Compliance Matrix: (Units=1/GPa)
#
#
# Indices 1 2 3 4 5 6 
#
# 1 0.007025 -0.002709 -0.003604 0.000000 0.000000 0.000000
# 2 -0.002709 0.018182 0.000633 0.000000 0.000000 0.000000
# 3 -0.003604 0.000633 0.006532 0.000000 0.000000 0.000000
# 4 0.000000 0.000000 0.000000 1.193811 0.000000 0.000000
# 5 0.000000 0.000000 0.000000 0.000000 0.139348 0.000000
# 6 0.000000 0.000000 0.000000 0.000000 0.000000 0.041629
#
#
# Mechanical properties :
#
#
# Convention : Reuss Voigt Hill
#
# Bulk Modulus (GPa) = 49.06712 87.46997 68.26854
# Shear Modulus (GPa) = 3.50956 28.68977 16.09967
#
# Velocity S-wave (km/s) = 1.20154 3.43540 2.57349
# Velocity P-wave (km/s) = 4.70206 7.19152 6.07566
#
# Compressibility (1/GPa) = 0.02038025
#
# Stress axis : x y z
#
# Youngs Moduli (GPa) = 142.34761 54.99794 153.08904
#
# Poissons Ratio (x) = 0.14900 0.55166
# Poissons Ratio (y) = 0.38566 -0.09692
# Poissons Ratio (z) = 0.51295 -0.03482
#
# Static dielectric constant tensor:
#      x y z
#    x 1.989990 0.000000 0.000000 
#    y 0.000000 2.003510 0.000000 
#    z 0.000000 0.000000 2.234930 
# 
# From -- ./inp_files/48209.got.cif
#   From: 2010.05.17/outbox.cif.g08.bks.cpg/sg72_25_cif.got.tgz:48209.got - 2010.06.03 17:03:01.
