data_PCOD9525820
_publ_section_title
;
Structure prediction by ZEFSAII (Michael W. Deem and Ramdas Pophale) SiO2 
 PCOD9525820
Probable space group: I B A M
;
_chemical_formula_sum "Si O2"
_cell_formula_units_Z 64
_cell_length_a 7.635084
_cell_length_b 23.270824
_cell_length_c 14.401125
_cell_angle_alpha 90.000000
_cell_angle_beta 90.000000
_cell_angle_gamma 90.000000
_cell_volume 2558.715506
_symmetry_space_group_name_H-M "I B A M"
_symmetry_group_IT_number 72
_symmetry_cell_setting 'orthorhombic'
loop_
_space_group_symop_operation_xyz
x,y,z
-x,-y,z
x,-y,1/2-z
-x,y,1/2-z
-x,-y,-z
x,y,-z
-x,y,1/2+z
x,-y,1/2+z
1/2+x,1/2+y,1/2+z
1/2-x,1/2-y,1/2+z
1/2+x,1/2-y,-z
1/2-x,1/2+y,-z
1/2-x,1/2-y,1/2-z
1/2+x,1/2+y,1/2-z
1/2-x,1/2+y,z
1/2+x,1/2-y,z
loop_
_atom_site_type_symbol
_atom_site_label
_atom_site_fract_x
_atom_site_fract_y
_atom_site_fract_z
Si Si1 0.266644 0.139886 0.102733
Si Si2 0.573535 0.441926 0.396682
Si Si3 0.294890 0.157434 0.686710
Si Si4 0.001272 0.237891 0.393092
O O1 0.329623 0.134827 0.209159
O O2 0.181649 0.203167 0.104315
O O3 0.096618 0.098554 0.100272
O O4 0.353317 0.130556 0.000000
O O5 0.500000 0.500000 0.350438
O O6 0.629820 0.459298 0.500000
O O7 0.728871 0.400927 0.361555
O O8 0.442679 0.198042 0.637745
O O9 0.129239 0.201901 0.674872
O O10 0.063459 0.233874 0.500000
#
# Coordination Sequence:
#
# PCOD9525820 Si02
#       4
#    16  16  16  16
#     4   9  19  32  47  71 103 138 175 212 252 303
#     4   9  17  30  49  74 102 131 167 212 259 306
#     4  11  20  33  52  76 106 139 171 209 260 309
#     4  10  19  32  50  74 103 133 168 210 258 312
#
# _framework density 25.012549
#
# number of rings (size 3 to 8) (size 9 to 14) (size 15 to 20)
#    0.000    2.250    0.000    7.500    0.000    2.000 
#    0.000    6.250    0.000    0.000    0.000    7.000 
#    0.000   50.000    0.000    7.000    0.000   25.500 
#
# Total GULP energy -178267.694973 kJ/mol
# GULP energy per Si atom -5570.865468 kJ/mol
# Density = 2.495562 g / cm^3
# Si number density = 25.012549 Si / 1000 Ang^3
#
#
#
# Elastic Constant Matrix: (Units=GPa)
#
#
# Indices 1 2 3 4 5 6 
#
# 1 39.4087 -0.6353 35.7449 0.0000 0.0000 0.0000
# 2 -0.6353 138.8880 22.1928 -0.0002 0.0000 0.0000
# 3 35.7449 22.1928 179.8841 -0.0001 0.0000 0.0000
# 4 0.0000 -0.0002 -0.0001 -622.8320 0.0000 0.0000
# 5 0.0000 0.0000 0.0000 0.0000 9.3479 0.0000
# 6 0.0000 0.0000 0.0000 0.0000 0.0000 42.1395
#
#
#
# Elastic Compliance Matrix: (Units=1/GPa)
#
#
# Indices 1 2 3 4 5 6 
#
# 1 0.031134 0.001154 -0.006329 0.000000 0.000000 0.000000
# 2 0.001154 0.007388 -0.001141 0.000000 0.000000 0.000000
# 3 -0.006329 -0.001141 0.006958 0.000000 0.000000 0.000000
# 4 0.000000 0.000000 0.000000 -0.001606 0.000000 0.000000
# 5 0.000000 0.000000 0.000000 0.000000 0.106976 0.000000
# 6 0.000000 0.000000 0.000000 0.000000 0.000000 0.023731
#
#
# Mechanical properties :
#
#
# Convention : Reuss Voigt Hill
#
# Bulk Modulus (GPa) = 30.44379 52.53175 41.48777
# Shear Modulus (GPa) = 25.23185 -94.21036 -34.48925
#
# Velocity S-wave (km/s) = 3.17956 -6.14386 -3.71735
# Velocity P-wave (km/s) = 5.06727 5.41125 1.34245
#
# Compressibility (1/GPa) = 0.03284742
#
# Stress axis : x y z
#
# Youngs Moduli (GPa) = 32.11884 135.36212 143.72935
#
# Poissons Ratio (x) = -0.15617 0.90967
# Poissons Ratio (y) = -0.03706 0.16395
# Poissons Ratio (z) = 0.20328 0.15441
#
# Static dielectric constant tensor:
#      x y z
#    x 2.189860 0.000000 0.000000 
#    y 0.000000 2.023130 0.000000 
#    z 0.000000 0.000000 2.033130 
# 
# From -- ./inp_files/18622.got.cif
#   From: 2010.05.17/outbox.cif.g08.bks.cpg/sg72_10_cif.got.tgz:18622.got - 2010.06.03 17:03:01.
