data_PCOD9525572
_publ_section_title
;
Structure prediction by ZEFSAII (Michael W. Deem and Ramdas Pophale) SiO2 
 PCOD9525572
Probable space group: I B A M
;
_chemical_formula_sum "Si O2"
_cell_formula_units_Z 92
_cell_length_a 18.300465
_cell_length_b 18.716959
_cell_length_c 14.770298
_cell_angle_alpha 90.000000
_cell_angle_beta 90.000000
_cell_angle_gamma 90.000000
_cell_volume 5059.256188
_symmetry_space_group_name_H-M "I B A M"
_symmetry_group_IT_number 72
_symmetry_cell_setting 'orthorhombic'
loop_
_space_group_symop_operation_xyz
x,y,z
-x,-y,z
x,-y,1/2-z
-x,y,1/2-z
-x,-y,-z
x,y,-z
-x,y,1/2+z
x,-y,1/2+z
1/2+x,1/2+y,1/2+z
1/2-x,1/2-y,1/2+z
1/2+x,1/2-y,-z
1/2-x,1/2+y,-z
1/2-x,1/2-y,1/2-z
1/2+x,1/2+y,1/2-z
1/2-x,1/2+y,z
1/2+x,1/2-y,z
loop_
_atom_site_type_symbol
_atom_site_label
_atom_site_fract_x
_atom_site_fract_y
_atom_site_fract_z
Si Si1 0.459716 0.745553 0.344340
Si Si2 0.246115 0.342205 0.356788
Si Si3 0.203616 0.813410 0.156607
Si Si4 0.000000 0.500000 0.750000
Si Si5 0.155359 0.082552 0.000000
Si Si6 0.414710 0.098108 0.895977
Si Si7 0.166342 0.083124 0.500000
Si Si8 0.001592 0.140195 0.500000
O O1 0.500000 0.751595 0.250000
O O2 0.379080 0.713622 0.326856
O O3 0.451991 0.823819 0.387584
O O4 0.498720 0.691661 0.412855
O O5 0.240533 0.258306 0.383010
O O6 0.260105 0.338370 0.249602
O O7 0.310191 0.379094 0.412585
O O8 0.170878 0.383795 0.378345
O O9 0.200142 0.877488 0.086417
O O10 0.949965 0.547888 0.681633
O O11 0.178168 0.000446 0.000000
O O12 0.068354 0.090168 0.000000
O O13 0.423128 0.071603 0.000000
O O14 0.079409 0.100078 0.500000
#
# Coordination Sequence:
#
# PCOD9525572 Si02
#       8
#    16  16  16   4   8  16   8   8
#     4  10  18  35  62  87 114 154 202 247 288 345
#     4  10  21  39  63  85 116 158 200 251 288 353
#     4   9  20  38  61  86 116 156 205 244 296 347
#     4  12  26  40  64  86 124 152 194 252 296 370
#     4  12  22  35  59  89 123 155 198 241 299 360
#     4  11  22  41  61  86 120 157 193 239 311 355
#     4  10  22  37  57  86 124 164 188 248 304 351
#     4  10  21  36  58  85 121 157 202 247 284 348
#
# _framework density 18.184491999999999
#
# number of rings (size 3 to 8) (size 9 to 14) (size 15 to 20)
#    0.000    1.739    2.609    2.087    2.435    2.087 
#    0.000    0.000    5.739    3.130    0.000    0.000 
#    0.000    0.000    0.000    0.000    0.000    0.000 
#
# Total GULP energy -256724.628696 kJ/mol
# GULP energy per Si atom -5580.970189 kJ/mol
# Density = 1.814310 g / cm^3
# Si number density = 18.184492 Si / 1000 Ang^3
#
#
#
# Elastic Constant Matrix: (Units=GPa)
#
#
# Indices 1 2 3 4 5 6 
#
# 1 30.7239 31.7152 38.6295 0.0000 0.0000 0.0000
# 2 31.7152 98.2097 48.0768 0.0000 0.0000 0.0000
# 3 38.6295 48.0768 123.4998 0.0000 0.0000 0.0000
# 4 0.0000 0.0000 0.0000 -8.4605 0.0000 0.0000
# 5 0.0000 0.0000 0.0000 0.0000 37.3779 0.0000
# 6 0.0000 0.0000 0.0000 0.0000 0.0000 17.4892
#
#
#
# Elastic Compliance Matrix: (Units=1/GPa)
#
#
# Indices 1 2 3 4 5 6 
#
# 1 0.066041 -0.013855 -0.015263 0.000000 0.000000 0.000000
# 2 -0.013855 0.015486 -0.001695 0.000000 0.000000 0.000000
# 3 -0.015263 -0.001695 0.013531 0.000000 0.000000 0.000000
# 4 0.000000 0.000000 0.000000 -0.118196 0.000000 0.000000
# 5 0.000000 0.000000 0.000000 0.000000 0.026754 0.000000
# 6 0.000000 0.000000 0.000000 0.000000 0.000000 0.057178
#
#
# Mechanical properties :
#
#
# Convention : Reuss Voigt Hill
#
# Bulk Modulus (GPa) = 29.91161 54.36404 42.13782
# Shear Modulus (GPa) = 37.43538 18.21546 27.82542
#
# Velocity S-wave (km/s) = 4.54215 3.16840 3.91599
# Velocity P-wave (km/s) = 6.63271 6.58375 6.60828
#
# Compressibility (1/GPa) = 0.03343184
#
# Stress axis : x y z
#
# Youngs Moduli (GPa) = 15.14222 64.57374 73.90324
#
# Poissons Ratio (x) = 0.89465 1.12801
# Poissons Ratio (y) = 0.20979 0.12526
# Poissons Ratio (z) = 0.23112 0.10945
#
# Static dielectric constant tensor:
#      x y z
#    x 1.616650 0.000000 0.000000 
#    y 0.000000 1.599390 0.000000 
#    z 0.000000 0.000000 1.604800 
# 
# From -- ./inp_files/24210.got.cif
#   From: 2010.05.17/outbox.cif.g08.bks.cpg/sg72_13_cif.got.tgz:24210.got - 2010.06.03 17:03:01.
