data_PCOD9525962
_publ_section_title
;
Structure prediction by ZEFSAII (Michael W. Deem and Ramdas Pophale) SiO2 
 PCOD9525962
Probable space group: I B A M
;
_chemical_formula_sum "Si O2"
_cell_formula_units_Z 112
_cell_length_a 29.592642
_cell_length_b 13.144893
_cell_length_c 13.213245
_cell_angle_alpha 90.000000
_cell_angle_beta 90.000000
_cell_angle_gamma 90.000000
_cell_volume 5139.848088
_symmetry_space_group_name_H-M "I B A M"
_symmetry_group_IT_number 72
_symmetry_cell_setting 'orthorhombic'
loop_
_space_group_symop_operation_xyz
x,y,z
-x,-y,z
x,-y,1/2-z
-x,y,1/2-z
-x,-y,-z
x,y,-z
-x,y,1/2+z
x,-y,1/2+z
1/2+x,1/2+y,1/2+z
1/2-x,1/2-y,1/2+z
1/2+x,1/2-y,-z
1/2-x,1/2+y,-z
1/2-x,1/2-y,1/2-z
1/2+x,1/2+y,1/2-z
1/2-x,1/2+y,z
1/2+x,1/2-y,z
loop_
_atom_site_type_symbol
_atom_site_label
_atom_site_fract_x
_atom_site_fract_y
_atom_site_fract_z
Si Si1 0.899893 0.168024 0.382049
Si Si2 0.061128 0.434116 0.378291
Si Si3 0.192279 0.738753 0.318149
Si Si4 0.762108 0.906824 0.298318
Si Si5 0.859781 0.722082 0.380449
Si Si6 0.138569 0.047930 0.379740
Si Si7 0.035489 0.343692 0.123385
O O1 0.910854 0.152173 0.500000
O O2 0.854022 0.234714 0.373167
O O3 0.940128 0.240184 0.340107
O O4 0.886079 0.055356 0.340956
O O5 0.057532 0.443380 0.500000
O O6 0.104336 0.365517 0.359922
O O7 0.060977 0.551970 0.343798
O O8 0.016371 0.369770 0.349979
O O9 0.220494 0.839783 0.296025
O O10 0.227020 0.658152 0.363158
O O11 0.178837 0.707712 0.202847
O O12 0.808437 0.944162 0.350011
O O13 0.736244 0.000000 0.250000
O O14 0.846930 0.720401 0.500000
O O15 0.878929 0.836801 0.358444
O O16 0.136804 0.037790 0.500000
O O17 0.037367 0.338300 0.000000
#
# Coordination Sequence:
#
# PCOD9525962 Si02
#       7
#    16  16  16  16  16  16  16
#     4  10  19  33  52  77 104 135 175 211 253 314
#     4   8  14  29  51  75 104 139 171 212 261 305
#     4  10  21  33  52  76  97 133 172 212 259 308
#     4  10  19  35  51  69  99 129 166 210 262 307
#     4   9  18  33  53  75 101 133 175 215 259 312
#     4   9  18  33  53  74  99 135 172 211 260 311
#     4   8  15  28  50  76 106 139 171 209 259 309
#
# _framework density 21.790526
#
# number of rings (size 3 to 8) (size 9 to 14) (size 15 to 20)
#    0.000    2.857    1.429    0.857    0.000    1.714 
#    0.000    4.286    0.000    6.000    0.000    2.000 
#    0.000    0.000    0.000    0.000    0.000    0.000 
#
# Total GULP energy -311927.172901 kJ/mol
# GULP energy per Si atom -5570.128088 kJ/mol
# Density = 2.174093 g / cm^3
# Si number density = 21.790526 Si / 1000 Ang^3
#
#
#
# Elastic Constant Matrix: (Units=GPa)
#
#
# Indices 1 2 3 4 5 6 
#
# 1 56.5372 69.3764 1.2263 0.0000 0.0000 0.0000
# 2 69.3764 137.3389 13.3882 0.0000 0.0000 0.0000
# 3 1.2263 13.3882 55.5353 0.0000 0.0000 0.0000
# 4 0.0000 0.0000 0.0000 26.5428 0.0000 0.0000
# 5 0.0000 0.0000 0.0000 0.0000 13.3888 0.0000
# 6 0.0000 0.0000 0.0000 0.0000 0.0000 42.4245
#
#
#
# Elastic Compliance Matrix: (Units=1/GPa)
#
#
# Indices 1 2 3 4 5 6 
#
# 1 0.047786 -0.024615 0.004879 0.000000 0.000000 0.000000
# 2 -0.024615 0.020136 -0.004311 0.000000 0.000000 0.000000
# 3 0.004879 -0.004311 0.018938 0.000000 0.000000 0.000000
# 4 0.000000 0.000000 0.000000 0.037675 0.000000 0.000000
# 5 0.000000 0.000000 0.000000 0.000000 0.074689 0.000000
# 6 0.000000 0.000000 0.000000 0.000000 0.000000 0.023571
#
#
# Mechanical properties :
#
#
# Convention : Reuss Voigt Hill
#
# Bulk Modulus (GPa) = 25.79532 46.37702 36.08617
# Shear Modulus (GPa) = 17.61740 27.49927 22.55834
#
# Velocity S-wave (km/s) = 2.84648 3.55629 3.22100
# Velocity P-wave (km/s) = 4.76097 6.17999 5.51630
#
# Compressibility (1/GPa) = 0.03876673
#
# Stress axis : x y z
#
# Youngs Moduli (GPa) = 20.92655 49.66347 52.80381
#
# Poissons Ratio (x) = 1.22245 -0.25762
# Poissons Ratio (y) = 0.51510 0.22762
# Poissons Ratio (z) = -0.10210 0.21408
#
# Static dielectric constant tensor:
#      x y z
#    x 1.768510 0.000000 0.000000 
#    y 0.000000 1.875000 0.000000 
#    z 0.000000 0.000000 1.881770 
# 
# From -- ./inp_files/26382.got.cif
#   From: 2010.05.17/outbox.cif.g08.bks.cpg/sg72_14_cif.got.tgz:26382.got - 2010.06.03 17:03:01.
