data_PCOD9525261
_publ_section_title
;
Structure prediction by ZEFSAII (Michael W. Deem and Ramdas Pophale) SiO2 
 PCOD9525261
Probable space group: I B A M
;
_chemical_formula_sum "Si O2"
_cell_formula_units_Z 104
_cell_length_a 28.806735
_cell_length_b 8.887652
_cell_length_c 19.825399
_cell_angle_alpha 90.000000
_cell_angle_beta 90.000000
_cell_angle_gamma 90.000000
_cell_volume 5075.782631
_symmetry_space_group_name_H-M "I B A M"
_symmetry_group_IT_number 72
_symmetry_cell_setting 'orthorhombic'
loop_
_space_group_symop_operation_xyz
x,y,z
-x,-y,z
x,-y,1/2-z
-x,y,1/2-z
-x,-y,-z
x,y,-z
-x,y,1/2+z
x,-y,1/2+z
1/2+x,1/2+y,1/2+z
1/2-x,1/2-y,1/2+z
1/2+x,1/2-y,-z
1/2-x,1/2+y,-z
1/2-x,1/2-y,1/2-z
1/2+x,1/2+y,1/2-z
1/2-x,1/2+y,z
1/2+x,1/2-y,z
loop_
_atom_site_type_symbol
_atom_site_label
_atom_site_fract_x
_atom_site_fract_y
_atom_site_fract_z
Si Si1 0.928491 0.921905 0.500000
Si Si2 0.354498 0.024581 0.572457
Si Si3 0.221548 0.696365 0.922674
Si Si4 0.672933 0.645834 0.421051
Si Si5 0.916008 0.614555 0.311761
Si Si6 0.026526 0.255197 0.000000
Si Si7 0.500000 0.000000 0.391526
Si Si8 0.633270 0.369989 0.366992
O O1 0.899547 0.872717 0.566168
O O2 0.976188 0.827153 0.500000
O O3 0.939861 0.105091 0.500000
O O4 0.372450 0.970018 0.500000
O O5 0.355213 0.201228 0.575076
O O6 0.301351 0.969287 0.576353
O O7 0.382577 0.952298 0.631338
O O8 0.274266 0.682143 0.900392
O O9 0.183171 0.791181 0.882435
O O10 0.222221 0.752683 0.000000
O O11 0.674493 0.586661 0.500000
O O12 0.648766 0.542207 0.365618
O O13 0.913002 0.500000 0.250000
O O14 0.966626 0.598307 0.343941
O O15 0.895494 0.784282 0.308788
O O16 0.026976 0.375171 0.062516
#
# Coordination Sequence:
#
# PCOD9525261 Si02
#       8
#     8  16  16  16  16   8   8  16
#     4  11  20  38  56 100 129 153 181 251 310 366
#     4   9  20  33  57  85 114 150 196 246 291 362
#     4   9  16  29  50  85 124 156 193 239 299 366
#     4  10  18  29  53  90 123 152 189 251 309 357
#     4  11  25  42  59  81 115 157 209 248 300 369
#     4  10  24  36  66  98 127 143 193 247 308 366
#     4  11  23  40  66  88 116 160 196 246 302 376
#     4  11  20  34  58  82 125 162 196 241 311 355
#
# _framework density 20.489452
#
# number of rings (size 3 to 8) (size 9 to 14) (size 15 to 20)
#    0.000    1.846    3.077    1.154    5.385    2.462 
#    0.000    0.769    0.000   14.769    0.000    0.000 
#    0.000    0.000    0.000    0.000    0.000    0.000 
#
# Total GULP energy -289661.014714 kJ/mol
# GULP energy per Si atom -5570.404129 kJ/mol
# Density = 2.044282 g / cm^3
# Si number density = 20.489452 Si / 1000 Ang^3
#
#
#
# Elastic Constant Matrix: (Units=GPa)
#
#
# Indices 1 2 3 4 5 6 
#
# 1 61.5595 -7.6346 0.2047 0.0000 0.0000 0.0000
# 2 -7.6346 91.8787 2.0203 0.0000 0.0000 0.0000
# 3 0.2047 2.0203 41.5798 0.0000 0.0000 0.0000
# 4 0.0000 0.0000 0.0000 17.2810 0.0000 0.0000
# 5 0.0000 0.0000 0.0000 0.0000 66.4514 0.0000
# 6 0.0000 0.0000 0.0000 0.0000 0.0000 31.8192
#
#
#
# Elastic Compliance Matrix: (Units=1/GPa)
#
#
# Indices 1 2 3 4 5 6 
#
# 1 0.016414 0.001367 -0.000147 0.000000 0.000000 0.000000
# 2 0.001367 0.011009 -0.000542 0.000000 0.000000 0.000000
# 3 -0.000147 -0.000542 0.024077 0.000000 0.000000 0.000000
# 4 0.000000 0.000000 0.000000 0.057867 0.000000 0.000000
# 5 0.000000 0.000000 0.000000 0.000000 0.015049 0.000000
# 6 0.000000 0.000000 0.000000 0.000000 0.000000 0.031428
#
#
# Mechanical properties :
#
#
# Convention : Reuss Voigt Hill
#
# Bulk Modulus (GPa) = 18.91873 20.46654 19.69264
# Shear Modulus (GPa) = 29.05171 36.47217 32.76194
#
# Velocity S-wave (km/s) = 3.76957 4.22364 4.00305
# Velocity P-wave (km/s) = 5.31033 5.81343 5.56757
#
# Compressibility (1/GPa) = 0.05285766
#
# Stress axis : x y z
#
# Youngs Moduli (GPa) = 60.92175 90.83123 41.53310
#
# Poissons Ratio (x) = -0.12418 0.00612
# Poissons Ratio (y) = -0.08329 0.02250
# Poissons Ratio (z) = 0.00897 0.04920
#
# Static dielectric constant tensor:
#      x y z
#    x 1.767200 0.000000 0.000000 
#    y 0.000000 1.861450 0.000000 
#    z 0.000000 0.000000 1.719340 
# 
# From -- ./inp_files/41082.got.cif
#   From: 2010.05.17/outbox.cif.g08.bks.cpg/sg72_21_cif.got.tgz:41082.got - 2010.06.03 17:03:01.
