data_PCOD9525707
_publ_section_title
;
Structure prediction by ZEFSAII (Michael W. Deem and Ramdas Pophale) SiO2 
 PCOD9525707
Probable space group: I B A M
;
_chemical_formula_sum "Si O2"
_cell_formula_units_Z 80
_cell_length_a 13.818651
_cell_length_b 22.256335
_cell_length_c 14.389355
_cell_angle_alpha 90.000000
_cell_angle_beta 90.000000
_cell_angle_gamma 90.000000
_cell_volume 4425.482476
_symmetry_space_group_name_H-M "I B A M"
_symmetry_group_IT_number 72
_symmetry_cell_setting 'orthorhombic'
loop_
_space_group_symop_operation_xyz
x,y,z
-x,-y,z
x,-y,1/2-z
-x,y,1/2-z
-x,-y,-z
x,y,-z
-x,y,1/2+z
x,-y,1/2+z
1/2+x,1/2+y,1/2+z
1/2-x,1/2-y,1/2+z
1/2+x,1/2-y,-z
1/2-x,1/2+y,-z
1/2-x,1/2-y,1/2-z
1/2+x,1/2+y,1/2-z
1/2-x,1/2+y,z
1/2+x,1/2-y,z
loop_
_atom_site_type_symbol
_atom_site_label
_atom_site_fract_x
_atom_site_fract_y
_atom_site_fract_z
Si Si1 0.000000 0.249260 0.750000
Si Si2 0.656971 0.000000 0.250000
Si Si3 0.446538 0.909195 0.891952
Si Si4 0.864543 0.725026 0.890754
Si Si5 0.833353 0.278883 0.107588
Si Si6 0.818801 0.587194 0.396384
O O1 0.925258 0.227692 0.670727
O O2 0.919759 0.277825 0.819370
O O3 0.595682 0.042588 0.180016
O O4 0.716453 0.043842 0.316356
O O5 0.404055 0.842622 0.871133
O O6 0.563244 0.909624 0.886707
O O7 0.422134 0.923513 0.000000
O O8 0.750544 0.731153 0.871603
O O9 0.877993 0.735891 0.000000
O O10 0.785608 0.344535 0.112446
O O11 0.867467 0.271853 0.000000
O O12 0.797659 0.565185 0.500000
#
# Coordination Sequence:
#
# PCOD9525707 Si02
#       6
#     8   8  16  16  16  16
#     4  12  18  30  50  73  96 131 164 200 248 294
#     4  12  21  28  44  66  94 133 170 203 232 276
#     4  10  19  31  46  67  96 131 166 198 239 291
#     4  10  21  35  51  72 100 134 170 208 251 299
#     4  10  21  35  51  72 100 134 170 208 251 299
#     4  10  19  31  46  67  96 131 166 198 239 291
#
# _framework density 18.077124999999999
#
# number of rings (size 3 to 8) (size 9 to 14) (size 15 to 20)
#    0.000    1.600    2.000    4.800    0.000    1.600 
#    0.000    0.000    0.000    0.000    0.000    0.000 
#    0.000   12.800    0.000   59.200    0.000    0.000 
#
# Total GULP energy -222719.227702 kJ/mol
# GULP energy per Si atom -5567.980693 kJ/mol
# Density = 1.803598 g / cm^3
# Si number density = 18.077125 Si / 1000 Ang^3
#
#
#
# Elastic Constant Matrix: (Units=GPa)
#
#
# Indices 1 2 3 4 5 6 
#
# 1 47.4112 18.4005 42.7261 0.0000 0.0000 0.0000
# 2 18.4005 47.4678 27.7631 -0.0002 0.0001 0.0000
# 3 42.7261 27.7631 115.1544 -0.0005 0.0002 0.0001
# 4 0.0000 -0.0002 -0.0005 16.7070 0.0001 0.0000
# 5 0.0000 0.0001 0.0002 0.0001 20.4883 0.0000
# 6 0.0000 0.0000 0.0001 0.0000 0.0000 13.9000
#
#
#
# Elastic Compliance Matrix: (Units=1/GPa)
#
#
# Indices 1 2 3 4 5 6 
#
# 1 0.033389 -0.006633 -0.010790 0.000000 0.000000 0.000000
# 2 -0.006633 0.025843 -0.003770 0.000000 0.000000 0.000000
# 3 -0.010790 -0.003770 0.013596 0.000000 0.000000 0.000000
# 4 0.000000 0.000000 0.000000 0.059855 0.000000 0.000000
# 5 0.000000 0.000000 0.000000 0.000000 0.048808 0.000000
# 6 0.000000 0.000000 0.000000 0.000000 0.000000 0.071943
#
#
# Mechanical properties :
#
#
# Convention : Reuss Voigt Hill
#
# Bulk Modulus (GPa) = 32.84622 43.09030 37.96826
# Shear Modulus (GPa) = 16.34168 18.29531 17.31849
#
# Velocity S-wave (km/s) = 3.00992 3.18476 3.09857
# Velocity P-wave (km/s) = 5.50354 6.11655 5.81813
#
# Compressibility (1/GPa) = 0.03044491
#
# Stress axis : x y z
#
# Youngs Moduli (GPa) = 29.94954 38.69557 73.55045
#
# Poissons Ratio (x) = 0.25665 0.79358
# Poissons Ratio (y) = 0.19864 0.27726
# Poissons Ratio (z) = 0.32314 0.14587
#
# Static dielectric constant tensor:
#      x y z
#    x 1.620150 0.000000 0.000000 
#    y 0.000000 1.659300 0.000000 
#    z 0.000000 0.000000 1.695060 
# 
# From -- ./inp_files/20233.got.cif
#   From: 2010.05.17/outbox.cif.g08.bks.cpg/sg72_11_cif.got.tgz:20233.got - 2010.06.03 17:03:01.
