data_PCOD9525764
_publ_section_title
;
Structure prediction by ZEFSAII (Michael W. Deem and Ramdas Pophale) SiO2 
 PCOD9525764
Probable space group: I B A M
;
_chemical_formula_sum "Si O2"
_cell_formula_units_Z 112
_cell_length_a 28.644347
_cell_length_b 14.885039
_cell_length_c 14.956736
_cell_angle_alpha 90.000000
_cell_angle_beta 90.000000
_cell_angle_gamma 90.000000
_cell_volume 6377.136766
_symmetry_space_group_name_H-M "I B A M"
_symmetry_group_IT_number 72
_symmetry_cell_setting 'orthorhombic'
loop_
_space_group_symop_operation_xyz
x,y,z
-x,-y,z
x,-y,1/2-z
-x,y,1/2-z
-x,-y,-z
x,y,-z
-x,y,1/2+z
x,-y,1/2+z
1/2+x,1/2+y,1/2+z
1/2-x,1/2-y,1/2+z
1/2+x,1/2-y,-z
1/2-x,1/2+y,-z
1/2-x,1/2-y,1/2-z
1/2+x,1/2+y,1/2-z
1/2-x,1/2+y,z
1/2+x,1/2-y,z
loop_
_atom_site_type_symbol
_atom_site_label
_atom_site_fract_x
_atom_site_fract_y
_atom_site_fract_z
Si Si1 0.946804 0.886537 0.000000
Si Si2 0.790995 0.474143 0.600597
Si Si3 0.215866 0.727308 0.607572
Si Si4 0.311295 0.512799 0.355809
Si Si5 0.874643 0.823919 0.351996
Si Si6 0.309076 0.165855 0.891176
Si Si7 0.443387 0.604347 0.500000
Si Si8 0.625293 0.653147 0.355435
O O1 0.920397 0.842610 0.915647
O O2 0.002044 0.872086 0.000000
O O3 0.939906 0.995394 0.000000
O O4 0.810290 0.462856 0.500000
O O5 0.788486 0.374969 0.643029
O O6 0.736848 0.503089 0.595734
O O7 0.813510 0.563150 0.642297
O O8 0.221723 0.721224 0.500000
O O9 0.261063 0.784132 0.640251
O O10 0.167181 0.776896 0.627037
O O11 0.302659 0.500000 0.250000
O O12 0.331207 0.610591 0.375729
O O13 0.350670 0.441600 0.379595
O O14 0.853543 0.725423 0.365078
O O15 0.916687 0.853213 0.415265
O O16 0.886184 0.843039 0.249064
O O17 0.306724 0.162068 0.000000
#
# Coordination Sequence:
#
# PCOD9525764 Si02
#       8
#     8  16  16  16  16  16   8  16
#     4  11  24  40  61  83 109 143 177 226 285 333
#     4  10  20  30  48  78 113 152 192 229 256 306
#     4  10  19  31  51  78 112 153 190 224 265 317
#     4  10  20  30  46  75 112 147 182 224 262 311
#     4  11  22  36  56  81 110 149 189 223 267 326
#     4  10  19  31  51  78 112 153 190 224 265 317
#     4  11  24  40  61  83 109 143 177 226 285 333
#     4  11  22  36  56  81 110 149 189 223 267 326
#
# _framework density 17.562742
#
# number of rings (size 3 to 8) (size 9 to 14) (size 15 to 20)
#    0.000    1.571    5.714    0.000    2.000    2.286 
#    0.000    1.429    0.000    0.000    0.000    2.000 
#    0.000    2.286    0.000    0.000    0.000    0.000 
#
# Total GULP energy -312457.696817 kJ/mol
# GULP energy per Si atom -5579.601729 kJ/mol
# Density = 1.752277 g / cm^3
# Si number density = 17.562742 Si / 1000 Ang^3
#
#
#
# Elastic Constant Matrix: (Units=GPa)
#
#
# Indices 1 2 3 4 5 6 
#
# 1 86.6234 19.6407 24.8618 0.0000 0.0000 0.0000
# 2 19.6407 93.0033 7.5485 0.0000 0.0000 0.0000
# 3 24.8618 7.5485 44.3973 0.0000 0.0000 0.0000
# 4 0.0000 0.0000 0.0000 10.7852 0.0000 0.0000
# 5 0.0000 0.0000 0.0000 0.0000 -3.9618 0.0000
# 6 0.0000 0.0000 0.0000 0.0000 0.0000 19.5847
#
#
#
# Elastic Compliance Matrix: (Units=1/GPa)
#
#
# Indices 1 2 3 4 5 6 
#
# 1 0.014263 -0.002397 -0.007580 0.000000 0.000000 0.000000
# 2 -0.002397 0.011306 -0.000580 0.000000 0.000000 0.000000
# 3 -0.007580 -0.000580 0.026867 0.000000 0.000000 0.000000
# 4 0.000000 0.000000 0.000000 0.092719 0.000000 0.000000
# 5 0.000000 0.000000 0.000000 0.000000 -0.252412 0.000000
# 6 0.000000 0.000000 0.000000 0.000000 0.000000 0.051060
#
#
# Mechanical properties :
#
#
# Convention : Reuss Voigt Hill
#
# Bulk Modulus (GPa) = 31.92576 36.45846 34.19211
# Shear Modulus (GPa) = -202.89742 16.74650 -93.07546
#
# Velocity S-wave (km/s) = -10.76002 3.09127 -7.28773
# Velocity P-wave (km/s) = 11.66846 5.79183 7.16267
#
# Compressibility (1/GPa) = 0.03132267
#
# Stress axis : x y z
#
# Youngs Moduli (GPa) = 70.11091 88.45202 37.22047
#
# Poissons Ratio (x) = 0.21201 0.28212
# Poissons Ratio (y) = 0.16805 0.02159
# Poissons Ratio (z) = 0.53141 0.05130
#
# Static dielectric constant tensor:
#      x y z
#    x 1.545980 0.000000 0.000000 
#    y 0.000000 1.652860 0.000000 
#    z 0.000000 0.000000 1.634470 
# 
# From -- ./inp_files/22272.got.cif
#   From: 2010.05.17/outbox.cif.g08.bks.cpg/sg72_12_cif.got.tgz:22272.got - 2010.06.03 17:03:01.
