data_PCOD9525922
_publ_section_title
;
Structure prediction by ZEFSAII (Michael W. Deem and Ramdas Pophale) SiO2 
 PCOD9525922
Probable space group: I B A M
;
_chemical_formula_sum "Si O2"
_cell_formula_units_Z 116
_cell_length_a 8.053481
_cell_length_b 27.253686
_cell_length_c 26.286656
_cell_angle_alpha 90.000000
_cell_angle_beta 90.000000
_cell_angle_gamma 90.000000
_cell_volume 5769.580380
_symmetry_space_group_name_H-M "I B A M"
_symmetry_group_IT_number 72
_symmetry_cell_setting 'orthorhombic'
loop_
_space_group_symop_operation_xyz
x,y,z
-x,-y,z
x,-y,1/2-z
-x,y,1/2-z
-x,-y,-z
x,y,-z
-x,y,1/2+z
x,-y,1/2+z
1/2+x,1/2+y,1/2+z
1/2-x,1/2-y,1/2+z
1/2+x,1/2-y,-z
1/2-x,1/2+y,-z
1/2-x,1/2-y,1/2-z
1/2+x,1/2+y,1/2-z
1/2-x,1/2+y,z
1/2+x,1/2-y,z
loop_
_atom_site_type_symbol
_atom_site_label
_atom_site_fract_x
_atom_site_fract_y
_atom_site_fract_z
Si Si1 0.119918 0.891675 0.906232
Si Si2 0.064447 0.196421 0.943320
Si Si3 0.150992 0.735627 0.876285
Si Si4 0.337019 0.177104 0.339148
Si Si5 0.830058 0.479305 0.602346
Si Si6 0.483069 0.084013 0.694875
Si Si7 0.160627 0.063935 0.162493
Si Si8 0.000000 0.000000 0.750000
O O1 0.260035 0.854867 0.884936
O O2 0.217141 0.939328 0.925974
O O3 0.007339 0.858459 0.942091
O O4 0.997577 0.907584 0.859928
O O5 0.202337 0.203528 0.899933
O O6 0.923514 0.233917 0.923910
O O7 0.121654 0.208563 0.000000
O O8 0.213922 0.776330 0.835440
O O9 0.009405 0.701901 0.853803
O O10 0.378033 0.134403 0.299018
O O11 0.715630 0.523897 0.620475
O O12 0.000000 0.500000 0.578031
O O13 0.893211 0.451071 0.653917
O O14 0.500000 0.060380 0.750000
O O15 0.669779 0.093260 0.674157
O O16 0.106897 0.034592 0.212915
#
# Coordination Sequence:
#
# PCOD9525922 Si02
#       8
#    16  16  16  16  16  16  16   4
#     4  10  19  33  50  77 107 135 170 209 264 314
#     4  10  19  32  56  82 104 127 163 211 258 315
#     4   9  18  35  55  75 103 131 164 208 261 319
#     4   9  19  34  52  73 100 139 171 207 265 314
#     4   9  18  33  49  70 100 141 174 207 258 301
#     4  10  20  32  49  76 106 137 176 220 257 299
#     4  11  20  31  51  75 107 139 171 217 255 300
#     4  12  20  28  50  80 102 132 182 212 252 288
#
# _framework density 20.105447000000002
#
# number of rings (size 3 to 8) (size 9 to 14) (size 15 to 20)
#    0.000    2.207    1.379    2.069    1.931    1.931 
#    0.000    1.379    0.000    2.069    0.000    0.000 
#    0.000    0.000    0.000    0.000    0.000    0.000 
#
# Total GULP energy -323073.925496 kJ/mol
# GULP energy per Si atom -5570.240095 kJ/mol
# Density = 2.005969 g / cm^3
# Si number density = 20.105447 Si / 1000 Ang^3
#
#
#
# Elastic Constant Matrix: (Units=GPa)
#
#
# Indices 1 2 3 4 5 6 
#
# 1 74.1864 28.1189 -12.2406 0.0000 0.0000 0.0000
# 2 28.1189 77.8837 -0.1525 0.0000 0.0000 0.0000
# 3 -12.2406 -0.1525 12.8430 0.0000 0.0000 0.0000
# 4 0.0000 0.0000 0.0000 11.2709 0.0000 0.0000
# 5 0.0000 0.0000 0.0000 0.0000 1.4043 0.0000
# 6 0.0000 0.0000 0.0000 0.0000 0.0000 27.9931
#
#
#
# Elastic Compliance Matrix: (Units=1/GPa)
#
#
# Indices 1 2 3 4 5 6 
#
# 1 0.019058 -0.006845 0.018082 0.000000 0.000000 0.000000
# 2 -0.006845 0.015299 -0.006342 0.000000 0.000000 0.000000
# 3 0.018082 -0.006342 0.095022 0.000000 0.000001 0.000000
# 4 0.000000 0.000000 0.000000 0.088724 0.000000 0.000000
# 5 0.000000 0.000000 0.000001 0.000000 0.712108 0.000000
# 6 0.000000 0.000000 0.000000 0.000000 0.000000 0.035723
#
#
# Mechanical properties :
#
#
# Convention : Reuss Voigt Hill
#
# Bulk Modulus (GPa) = 7.18552 21.81828 14.50190
# Shear Modulus (GPa) = 4.98737 18.07950 11.53343
#
# Velocity S-wave (km/s) = 1.57670 3.00198 2.39769
# Velocity P-wave (km/s) = 2.62609 4.78448 3.85925
#
# Compressibility (1/GPa) = 0.13916873
#
# Stress axis : x y z
#
# Youngs Moduli (GPa) = 52.47243 65.36567 10.52383
#
# Poissons Ratio (x) = 0.44743 -0.19030
# Poissons Ratio (y) = 0.35918 0.06675
# Poissons Ratio (z) = -0.94883 0.41457
#
# Static dielectric constant tensor:
#      x y z
#    x 1.752700 0.000000 0.000000 
#    y 0.000000 1.749890 0.000000 
#    z 0.000000 0.000000 1.670390 
# 
# From -- ./inp_files/51015.got.cif
#   From: 2010.05.17/outbox.cif.g08.bks.cpg/sg72_26_cif.got.tgz:51015.got - 2010.06.03 17:03:01.
