data_PCOD9525179
_publ_section_title
;
Structure prediction by ZEFSAII (Michael W. Deem and Ramdas Pophale) SiO2 
 PCOD9525179
Probable space group: I B A M
;
_chemical_formula_sum "Si O2"
_cell_formula_units_Z 96
_cell_length_a 22.799254
_cell_length_b 21.069141
_cell_length_c 8.062084
_cell_angle_alpha 90.000000
_cell_angle_beta 90.000000
_cell_angle_gamma 90.000000
_cell_volume 3872.708291
_symmetry_space_group_name_H-M "I B A M"
_symmetry_group_IT_number 72
_symmetry_cell_setting 'orthorhombic'
loop_
_space_group_symop_operation_xyz
x,y,z
-x,-y,z
x,-y,1/2-z
-x,y,1/2-z
-x,-y,-z
x,y,-z
-x,y,1/2+z
x,-y,1/2+z
1/2+x,1/2+y,1/2+z
1/2-x,1/2-y,1/2+z
1/2+x,1/2-y,-z
1/2-x,1/2+y,-z
1/2-x,1/2-y,1/2-z
1/2+x,1/2+y,1/2-z
1/2-x,1/2+y,z
1/2+x,1/2-y,z
loop_
_atom_site_type_symbol
_atom_site_label
_atom_site_fract_x
_atom_site_fract_y
_atom_site_fract_z
Si Si1 0.817843 0.732521 0.189248
Si Si2 0.565307 0.426281 0.197788
Si Si3 0.063443 0.416897 0.313343
Si Si4 0.311072 0.907045 0.307974
Si Si5 0.309777 0.371684 0.703922
Si Si6 0.561888 0.763671 0.813893
O O1 0.817067 0.669805 0.300596
O O2 0.793155 0.799206 0.255937
O O3 0.886760 0.751709 0.188886
O O4 0.801075 0.718987 0.000000
O O5 0.569029 0.500000 0.250000
O O6 0.500000 0.403890 0.250000
O O7 0.625628 0.393099 0.260529
O O8 0.567190 0.422051 0.000000
O O9 0.067765 0.441300 0.500000
O O10 0.127126 0.429990 0.229349
O O11 0.059020 0.340377 0.319084
O O12 0.000000 0.436562 0.250000
O O13 0.310448 0.927134 0.500000
O O14 0.245130 0.915996 0.239752
O O15 0.309004 0.371023 0.500000
O O16 0.500000 0.740269 0.750000
O O17 0.574688 0.741200 0.000000
#
# Coordination Sequence:
#
# PCOD9525179 Si02
#       6
#    16  16  16  16  16  16
#     4  10  18  28  42  64  93 127 162 199 241 291
#     4  10  20  38  60  80 100 126 160 210 269 325
#     4   8  14  23  38  56  79 113 153 188 221 257
#     4   9  17  31  46  64  93 132 170 204 239 284
#     4   9  19  33  50  70  95 125 161 200 246 302
#     4   9  16  26  38  54  78 113 155 199 238 275
#
# _framework density 24.788854000000001
#
# number of rings (size 3 to 8) (size 9 to 14) (size 15 to 20)
#    0.000    2.833    0.000    3.500    0.000    4.667 
#    0.000    7.500    0.000    0.000    0.000    0.000 
#    0.000    0.667    0.000    8.333    0.000    0.167 
#
# Total GULP energy -267495.181971 kJ/mol
# GULP energy per Si atom -5572.816291 kJ/mol
# Density = 2.473243 g / cm^3
# Si number density = 24.788854 Si / 1000 Ang^3
#
#
#
# Elastic Constant Matrix: (Units=GPa)
#
#
# Indices 1 2 3 4 5 6 
#
# 1 170.6013 18.1849 7.7201 0.0000 0.0000 0.0000
# 2 18.1849 92.8597 -4.7603 0.0000 0.0000 0.0000
# 3 7.7201 -4.7603 64.7686 0.0000 0.0000 0.0000
# 4 0.0000 0.0000 0.0000 78.1926 0.0000 0.0000
# 5 0.0000 0.0000 0.0000 0.0000 35.4975 0.0000
# 6 0.0000 0.0000 0.0000 0.0000 0.0000 62.3053
#
#
#
# Elastic Compliance Matrix: (Units=1/GPa)
#
#
# Indices 1 2 3 4 5 6 
#
# 1 0.006028 -0.001222 -0.000808 0.000000 0.000000 0.000000
# 2 -0.001222 0.011057 0.000958 0.000000 0.000000 0.000000
# 3 -0.000808 0.000958 0.015606 0.000000 0.000000 0.000000
# 4 0.000000 0.000000 0.000000 0.012789 0.000000 0.000000
# 5 0.000000 0.000000 0.000000 0.000000 0.028171 0.000000
# 6 0.000000 0.000000 0.000000 0.000000 0.000000 0.016050
#
#
# Mechanical properties :
#
#
# Convention : Reuss Voigt Hill
#
# Bulk Modulus (GPa) = 32.73526 41.16878 36.95202
# Shear Modulus (GPa) = 49.00574 55.67142 52.33858
#
# Velocity S-wave (km/s) = 4.45109 4.74415 4.59996
# Velocity P-wave (km/s) = 6.29687 6.83031 6.56901
#
# Compressibility (1/GPa) = 0.03054810
#
# Stress axis : x y z
#
# Youngs Moduli (GPa) = 165.87996 90.43747 64.07642
#
# Poissons Ratio (x) = 0.11051 0.05180
# Poissons Ratio (y) = 0.20271 -0.06141
# Poissons Ratio (z) = 0.13409 -0.08667
#
# Static dielectric constant tensor:
#      x y z
#    x 2.158910 0.000000 0.000000 
#    y 0.000000 1.967200 0.000000 
#    z 0.000000 0.000000 1.886960 
# 
# From -- ./inp_files/6959.got.cif
#   From: 2010.05.17/outbox.cif.g08.bks.cpg/sg72_4_cif.got.tgz:6959.got - 2010.06.03 17:03:01.
