data_PCOD9525815
_publ_section_title
;
Structure prediction by ZEFSAII (Michael W. Deem and Ramdas Pophale) SiO2 
 PCOD9525815
Probable space group: I B A M
;
_chemical_formula_sum "Si O2"
_cell_formula_units_Z 88
_cell_length_a 19.803454
_cell_length_b 18.747897
_cell_length_c 14.011871
_cell_angle_alpha 90.000000
_cell_angle_beta 90.000000
_cell_angle_gamma 90.000000
_cell_volume 5202.231005
_symmetry_space_group_name_H-M "I B A M"
_symmetry_group_IT_number 72
_symmetry_cell_setting 'orthorhombic'
loop_
_space_group_symop_operation_xyz
x,y,z
-x,-y,z
x,-y,1/2-z
-x,y,1/2-z
-x,-y,-z
x,y,-z
-x,y,1/2+z
x,-y,1/2+z
1/2+x,1/2+y,1/2+z
1/2-x,1/2-y,1/2+z
1/2+x,1/2-y,-z
1/2-x,1/2+y,-z
1/2-x,1/2-y,1/2-z
1/2+x,1/2+y,1/2-z
1/2-x,1/2+y,z
1/2+x,1/2-y,z
loop_
_atom_site_type_symbol
_atom_site_label
_atom_site_fract_x
_atom_site_fract_y
_atom_site_fract_z
Si Si1 0.208496 0.950360 0.887101
Si Si2 0.052878 0.937840 0.887194
Si Si3 0.253503 0.388505 0.611399
Si Si4 0.000000 0.819171 0.250000
Si Si5 0.285851 0.177510 0.715560
Si Si6 0.879264 0.220941 0.387685
O O1 0.129246 0.960075 0.868113
O O2 0.238967 0.882818 0.832205
O O3 0.239552 0.027825 0.866841
O O4 0.216517 0.936731 0.000000
O O5 0.038098 0.869240 0.825209
O O6 0.045441 0.922992 0.000000
O O7 0.000000 0.000000 0.863635
O O8 0.237616 0.379016 0.500000
O O9 0.197098 0.357022 0.682046
O O10 0.325188 0.345229 0.625997
O O11 0.057766 0.782895 0.315083
O O12 0.250000 0.250000 0.750000
O O13 0.340264 0.206443 0.640978
O O14 0.897954 0.219399 0.500000
#
# Coordination Sequence:
#
# PCOD9525815 Si02
#       6
#    16  16  16   8  16  16
#     4  10  19  32  51  75 102 134 173 213 254 303
#     4  10  20  31  45  70 104 139 173 208 246 297
#     4   9  18  32  51  76 105 132 162 207 257 307
#     4  12  21  32  48  66  93 136 180 212 252 306
#     4  10  19  32  50  72 100 137 174 209 255 306
#     4  10  21  36  51  72 104 137 171 215 265 309
#
# _framework density 16.915818999999999
#
# number of rings (size 3 to 8) (size 9 to 14) (size 15 to 20)
#    0.000    2.000    0.000    5.182    0.000    5.091 
#    0.000    1.818    0.000    0.000    0.000    2.545 
#    0.000    8.727    0.000    0.000    0.000    0.000 
#
# Total GULP energy -245040.587142 kJ/mol
# GULP energy per Si atom -5569.104253 kJ/mol
# Density = 1.687732 g / cm^3
# Si number density = 16.915819 Si / 1000 Ang^3
#
#
#
# Elastic Constant Matrix: (Units=GPa)
#
#
# Indices 1 2 3 4 5 6 
#
# 1 33.8179 30.6517 40.4049 0.0000 0.0000 0.0000
# 2 30.6517 92.6272 52.0202 0.0000 0.0000 0.0000
# 3 40.4049 52.0202 94.6779 0.0000 0.0000 0.0000
# 4 0.0000 0.0000 0.0000 35.4703 0.0000 0.0000
# 5 0.0000 0.0000 0.0000 0.0000 29.9706 0.0000
# 6 0.0000 0.0000 0.0000 0.0000 0.0000 19.9881
#
#
#
# Elastic Compliance Matrix: (Units=1/GPa)
#
#
# Indices 1 2 3 4 5 6 
#
# 1 0.064686 -0.008536 -0.022915 0.000000 0.000000 0.000000
# 2 -0.008536 0.016740 -0.005555 0.000000 0.000000 0.000000
# 3 -0.022915 -0.005555 0.023394 0.000000 0.000000 0.000000
# 4 0.000000 0.000000 0.000000 0.028193 0.000000 0.000000
# 5 0.000000 0.000000 0.000000 0.000000 0.033366 0.000000
# 6 0.000000 0.000000 0.000000 0.000000 0.000000 0.050030
#
#
# Mechanical properties :
#
#
# Convention : Reuss Voigt Hill
#
# Bulk Modulus (GPa) = 32.46007 51.91963 42.18985
# Shear Modulus (GPa) = 16.62837 23.62220 20.12529
#
# Velocity S-wave (km/s) = 3.13870 3.74097 3.45299
# Velocity P-wave (km/s) = 5.68912 7.02989 6.39474
#
# Compressibility (1/GPa) = 0.03080708
#
# Stress axis : x y z
#
# Youngs Moduli (GPa) = 15.45929 59.73561 42.74637
#
# Poissons Ratio (x) = 0.50991 0.97955
# Poissons Ratio (y) = 0.13196 0.23746
# Poissons Ratio (z) = 0.35426 0.33184
#
# Static dielectric constant tensor:
#      x y z
#    x 1.584890 0.000000 0.000000 
#    y 0.000000 1.582530 0.000000 
#    z 0.000000 0.000000 1.637410 
# 
# From -- ./inp_files/23216.got.cif
#   From: 2010.05.17/outbox.cif.g08.bks.cpg/sg72_12_cif.got.tgz:23216.got - 2010.06.03 17:03:01.
