data_PCOD9525863
_publ_section_title
;
Structure prediction by ZEFSAII (Michael W. Deem and Ramdas Pophale) SiO2 
 PCOD9525863
Probable space group: I B A M
;
_chemical_formula_sum "Si O2"
_cell_formula_units_Z 64
_cell_length_a 7.812925
_cell_length_b 18.684225
_cell_length_c 19.728413
_cell_angle_alpha 90.000000
_cell_angle_beta 90.000000
_cell_angle_gamma 90.000000
_cell_volume 2879.923123
_symmetry_space_group_name_H-M "I B A M"
_symmetry_group_IT_number 72
_symmetry_cell_setting 'orthorhombic'
loop_
_space_group_symop_operation_xyz
x,y,z
-x,-y,z
x,-y,1/2-z
-x,y,1/2-z
-x,-y,-z
x,y,-z
-x,y,1/2+z
x,-y,1/2+z
1/2+x,1/2+y,1/2+z
1/2-x,1/2-y,1/2+z
1/2+x,1/2-y,-z
1/2-x,1/2+y,-z
1/2-x,1/2-y,1/2-z
1/2+x,1/2+y,1/2-z
1/2-x,1/2+y,z
1/2+x,1/2-y,z
loop_
_atom_site_type_symbol
_atom_site_label
_atom_site_fract_x
_atom_site_fract_y
_atom_site_fract_z
Si Si1 0.274984 0.024533 0.421331
Si Si2 0.417029 0.387865 0.577968
Si Si3 0.583648 0.720571 0.175666
Si Si4 0.444208 0.865445 0.175326
O O1 0.326609 0.020999 0.500000
O O2 0.402641 0.070351 0.375552
O O3 0.095902 0.068037 0.421848
O O4 0.223417 0.945048 0.396976
O O5 0.377030 0.368834 0.500000
O O6 0.461966 0.320942 0.623692
O O7 0.500000 0.716447 0.250000
O O8 0.580979 0.804148 0.155169
O O9 0.765835 0.680559 0.178867
O O10 0.500000 0.891075 0.250000
#
# Coordination Sequence:
#
# PCOD9525863 Si02
#       4
#    16  16  16  16
#     4   8  15  30  52  77 107 142 182 231 282 332
#     4   8  15  30  52  78 106 138 182 234 283 335
#     4  10  19  32  53  77 108 145 183 228 278 335
#     4  10  19  32  52  78 110 147 184 229 280 332
#
# _framework density 22.222816000000002
#
# number of rings (size 3 to 8) (size 9 to 14) (size 15 to 20)
#    0.000    3.000    0.000    4.500    0.000    1.000 
#    0.000   10.000    0.000   16.500    0.000   14.000 
#    0.000    2.000    0.000    4.500    0.000    4.750 
#
# Total GULP energy -178726.481234 kJ/mol
# GULP energy per Si atom -5585.202539 kJ/mol
# Density = 2.217224 g / cm^3
# Si number density = 22.222816 Si / 1000 Ang^3
#
#
#
# Elastic Constant Matrix: (Units=GPa)
#
#
# Indices 1 2 3 4 5 6 
#
# 1 122.2406 13.1476 17.7111 0.0000 0.0000 0.0000
# 2 13.1476 105.4657 69.0000 0.0000 0.0000 0.0000
# 3 17.7111 69.0000 88.1557 0.0000 0.0000 0.0000
# 4 0.0000 0.0000 0.0000 31.8843 0.0000 0.0000
# 5 0.0000 0.0000 0.0000 0.0000 29.0895 0.0000
# 6 0.0000 0.0000 0.0000 0.0000 0.0000 42.4818
#
#
#
# Elastic Compliance Matrix: (Units=1/GPa)
#
#
# Indices 1 2 3 4 5 6 
#
# 1 0.008427 0.000117 -0.001785 0.000000 0.000000 0.000000
# 2 0.000117 0.019435 -0.015235 0.000000 0.000000 0.000000
# 3 -0.001785 -0.015235 0.023627 0.000000 0.000000 0.000000
# 4 0.000000 0.000000 0.000000 0.031363 0.000000 0.000000
# 5 0.000000 0.000000 0.000000 0.000000 0.034377 0.000000
# 6 0.000000 0.000000 0.000000 0.000000 0.000000 0.023539
#
#
# Mechanical properties :
#
#
# Convention : Reuss Voigt Hill
#
# Bulk Modulus (GPa) = 56.55263 57.28659 56.91961
# Shear Modulus (GPa) = 27.70592 35.09134 31.39863
#
# Velocity S-wave (km/s) = 3.53474 3.97806 3.76293
# Velocity P-wave (km/s) = 6.49326 6.85085 6.67445
#
# Compressibility (1/GPa) = 0.01768264
#
# Stress axis : x y z
#
# Youngs Moduli (GPa) = 118.67237 51.45468 42.32498
#
# Poissons Ratio (x) = -0.00602 0.07553
# Poissons Ratio (y) = -0.01389 0.64482
# Poissons Ratio (z) = 0.21178 0.78392
#
# Static dielectric constant tensor:
#      x y z
#    x 1.900840 0.000000 0.000000 
#    y 0.000000 1.805780 0.000000 
#    z 0.000000 0.000000 1.769230 
# 
# From -- ./inp_files/35378.got.cif
#   From: 2010.05.17/outbox.cif.g08.bks.cpg/sg72_18_cif.got.tgz:35378.got - 2010.06.03 17:03:01.
