data_PCOD9525331
_publ_section_title
;
Structure prediction by ZEFSAII (Michael W. Deem and Ramdas Pophale) SiO2 
 PCOD9525331
Probable space group: I B A M
;
_chemical_formula_sum "Si O2"
_cell_formula_units_Z 112
_cell_length_a 24.227850
_cell_length_b 13.454383
_cell_length_c 18.681184
_cell_angle_alpha 90.000000
_cell_angle_beta 90.000000
_cell_angle_gamma 90.000000
_cell_volume 6089.519992
_symmetry_space_group_name_H-M "I B A M"
_symmetry_group_IT_number 72
_symmetry_cell_setting 'orthorhombic'
loop_
_space_group_symop_operation_xyz
x,y,z
-x,-y,z
x,-y,1/2-z
-x,y,1/2-z
-x,-y,-z
x,y,-z
-x,y,1/2+z
x,-y,1/2+z
1/2+x,1/2+y,1/2+z
1/2-x,1/2-y,1/2+z
1/2+x,1/2-y,-z
1/2-x,1/2+y,-z
1/2-x,1/2-y,1/2-z
1/2+x,1/2+y,1/2-z
1/2-x,1/2+y,z
1/2+x,1/2-y,z
loop_
_atom_site_type_symbol
_atom_site_label
_atom_site_fract_x
_atom_site_fract_y
_atom_site_fract_z
Si Si1 0.493251 0.882326 0.664929
Si Si2 0.704291 0.622187 0.085338
Si Si3 0.675230 0.601461 0.586623
Si Si4 0.327439 0.076574 0.420064
Si Si5 0.083295 0.250860 0.918248
Si Si6 0.275259 0.799824 0.679923
Si Si7 0.378380 0.073610 0.186385
O O1 0.500000 0.875283 0.750000
O O2 0.535575 0.807148 0.626460
O O3 0.428293 0.859858 0.657619
O O4 0.500000 0.000000 0.642835
O O5 0.673904 0.517544 0.098106
O O6 0.767500 0.601107 0.108804
O O7 0.692049 0.720071 0.130597
O O8 0.702862 0.642869 0.000000
O O9 0.683814 0.618377 0.500000
O O10 0.616430 0.652248 0.606703
O O11 0.726835 0.648052 0.631736
O O12 0.317718 0.039830 0.500000
O O13 0.365491 0.172726 0.420696
O O14 0.359751 0.995409 0.377516
O O15 0.063523 0.235495 0.000000
O O16 0.250000 0.750000 0.750000
O O17 0.322783 0.872326 0.709080
O O18 0.397615 0.000000 0.250000
#
# Coordination Sequence:
#
# PCOD9525331 Si02
#       7
#    16  16  16  16  16  16  16
#     4  11  21  36  57  78 115 155 195 234 297 362
#     4  10  20  38  57  81 115 159 200 239 298 358
#     4  10  21  38  60  82 115 162 205 248 301 359
#     4  10  18  30  54  80 110 145 189 238 282 349
#     4  10  20  35  57  86 115 151 198 244 292 350
#     4  12  25  33  56  86 124 154 196 245 297 363
#     4  12  23  37  53  83 121 156 191 230 305 358
#
# _framework density 18.392254999999999
#
# number of rings (size 3 to 8) (size 9 to 14) (size 15 to 20)
#    0.000    1.286    5.714    1.286    2.000    1.429 
#    0.000    0.000    0.000    0.857    0.000    4.000 
#    0.000    0.000    0.000    0.000    0.000    0.000 
#
# Total GULP energy -311981.066038 kJ/mol
# GULP energy per Si atom -5571.090465 kJ/mol
# Density = 1.835039 g / cm^3
# Si number density = 18.392255 Si / 1000 Ang^3
#
#
#
# Elastic Constant Matrix: (Units=GPa)
#
#
# Indices 1 2 3 4 5 6 
#
# 1 75.9037 15.7894 20.2858 0.0000 0.0000 0.0000
# 2 15.7894 62.1131 24.2719 0.0000 0.0000 0.0000
# 3 20.2858 24.2719 40.8696 0.0000 0.0000 0.0000
# 4 0.0000 0.0000 0.0000 5.1702 0.0000 0.0000
# 5 0.0000 0.0000 0.0000 0.0000 25.2457 0.0000
# 6 0.0000 0.0000 0.0000 0.0000 0.0000 52.1829
#
#
#
# Elastic Compliance Matrix: (Units=1/GPa)
#
#
# Indices 1 2 3 4 5 6 
#
# 1 0.015258 -0.001197 -0.006862 0.000000 0.000000 0.000000
# 2 -0.001197 0.021059 -0.011913 0.000000 0.000000 0.000000
# 3 -0.006862 -0.011913 0.034949 0.000000 0.000000 0.000000
# 4 0.000000 0.000000 0.000000 0.193416 0.000000 0.000000
# 5 0.000000 0.000000 0.000000 0.000000 0.039611 0.000000
# 6 0.000000 0.000000 0.000000 0.000000 0.000000 0.019163
#
#
# Mechanical properties :
#
#
# Convention : Reuss Voigt Hill
#
# Bulk Modulus (GPa) = 31.92657 33.28673 32.60665
# Shear Modulus (GPa) = 13.37472 24.42238 18.89855
#
# Velocity S-wave (km/s) = 2.69958 3.64794 3.20898
# Velocity P-wave (km/s) = 5.20705 5.99006 5.61222
#
# Compressibility (1/GPa) = 0.03132188
#
# Stress axis : x y z
#
# Youngs Moduli (GPa) = 65.54120 47.48568 28.61322
#
# Poissons Ratio (x) = 0.05684 0.19635
# Poissons Ratio (y) = 0.07845 0.34086
# Poissons Ratio (z) = 0.44976 0.56567
#
# Static dielectric constant tensor:
#      x y z
#    x 1.713580 0.000000 0.000000 
#    y 0.000000 1.695310 0.000000 
#    z 0.000000 0.000000 1.664820 
# 
# From -- ./inp_files/40376.got.cif
#   From: 2010.05.17/outbox.cif.g08.bks.cpg/sg72_21_cif.got.tgz:40376.got - 2010.06.03 17:03:01.
