data_PCOD9525984
_publ_section_title
;
Structure prediction by ZEFSAII (Michael W. Deem and Ramdas Pophale) SiO2 
 PCOD9525984
Probable space group: I B A M
;
_chemical_formula_sum "Si O2"
_cell_formula_units_Z 96
_cell_length_a 28.459937
_cell_length_b 21.175723
_cell_length_c 8.416293
_cell_angle_alpha 90.000000
_cell_angle_beta 90.000000
_cell_angle_gamma 90.000000
_cell_volume 5072.160972
_symmetry_space_group_name_H-M "I B A M"
_symmetry_group_IT_number 72
_symmetry_cell_setting 'orthorhombic'
loop_
_space_group_symop_operation_xyz
x,y,z
-x,-y,z
x,-y,1/2-z
-x,y,1/2-z
-x,-y,-z
x,y,-z
-x,y,1/2+z
x,-y,1/2+z
1/2+x,1/2+y,1/2+z
1/2-x,1/2-y,1/2+z
1/2+x,1/2-y,-z
1/2-x,1/2+y,-z
1/2-x,1/2-y,1/2-z
1/2+x,1/2+y,1/2-z
1/2-x,1/2+y,z
1/2+x,1/2-y,z
loop_
_atom_site_type_symbol
_atom_site_label
_atom_site_fract_x
_atom_site_fract_y
_atom_site_fract_z
Si Si1 0.889824 0.569159 0.690496
Si Si2 0.216391 0.569215 0.309459
Si Si3 0.222350 0.811372 0.807752
Si Si4 0.553058 0.808528 0.807925
Si Si5 0.052962 0.930660 0.190509
Si Si6 0.885630 0.188320 0.805963
O O1 0.904574 0.500000 0.750000
O O2 0.889158 0.568413 0.500000
O O3 0.836618 0.580509 0.749004
O O4 0.923482 0.625659 0.745170
O O5 0.231180 0.500000 0.250000
O O6 0.215411 0.568226 0.500000
O O7 0.250575 0.625279 0.255581
O O8 0.250000 0.750000 0.750000
O O9 0.168325 0.810036 0.753185
O O10 0.222200 0.811163 0.000000
O O11 0.500000 0.802007 0.750000
O O12 0.585174 0.749785 0.754678
O O13 0.552953 0.808330 0.000000
O O14 0.087504 0.875121 0.244622
O O15 0.000000 0.918528 0.250000
O O16 0.067191 0.000000 0.250000
O O17 0.052129 0.931470 0.000000
O O18 0.885364 0.188511 0.000000
#
# Coordination Sequence:
#
# PCOD9525984 Si02
#       6
#    16  16  16  16  16  16
#     4  10  20  35  56  79 106 140 174 212 259 311
#     4  10  20  34  55  81 108 140 176 216 261 310
#     4  10  21  37  56  79 107 139 177 219 263 312
#     4  10  21  36  55  77 102 136 174 214 260 307
#     4  10  19  33  54  77 104 137 171 211 256 305
#     4   9  19  36  55  75 103 138 173 211 258 308
#
# _framework density 18.926843999999999
#
# number of rings (size 3 to 8) (size 9 to 14) (size 15 to 20)
#    0.000    2.167    0.000    4.500    0.000    5.000 
#    0.000    5.000    0.000    0.000    0.000    0.000 
#    0.000    0.000    0.000    0.000    0.000    0.000 
#
# Total GULP energy -268066.893903 kJ/mol
# GULP energy per Si atom -5584.726956 kJ/mol
# Density = 1.888377 g / cm^3
# Si number density = 18.926844 Si / 1000 Ang^3
#
#
#
# Elastic Constant Matrix: (Units=GPa)
#
#
# Indices 1 2 3 4 5 6 
#
# 1 117.4989 97.5754 9.6689 0.0000 0.0000 0.0000
# 2 97.5754 149.9117 15.5341 0.0000 0.0000 0.0000
# 3 9.6689 15.5341 25.2507 0.0000 0.0000 0.0000
# 4 0.0000 0.0000 0.0000 25.7444 0.0000 0.0000
# 5 0.0000 0.0000 0.0000 0.0000 22.5972 0.0000
# 6 0.0000 0.0000 0.0000 0.0000 0.0000 44.0824
#
#
#
# Elastic Compliance Matrix: (Units=1/GPa)
#
#
# Indices 1 2 3 4 5 6 
#
# 1 0.018525 -0.012094 0.000346 0.000000 0.000000 0.000000
# 2 -0.012094 0.015020 -0.004609 0.000000 0.000000 0.000000
# 3 0.000346 -0.004609 0.042306 0.000000 0.000000 0.000000
# 4 0.000000 0.000000 0.000000 0.038843 0.000000 0.000000
# 5 0.000000 0.000000 0.000000 0.000000 0.044253 0.000000
# 6 0.000000 0.000000 0.000000 0.000000 0.000000 0.022685
#
#
# Mechanical properties :
#
#
# Convention : Reuss Voigt Hill
#
# Bulk Modulus (GPa) = 23.18157 59.80201 41.49179
# Shear Modulus (GPa) = 21.86030 29.81030 25.83530
#
# Velocity S-wave (km/s) = 3.40220 3.97297 3.69861
# Velocity P-wave (km/s) = 5.26383 7.26023 6.34109
#
# Compressibility (1/GPa) = 0.04313773
#
# Stress axis : x y z
#
# Youngs Moduli (GPa) = 53.98017 66.57845 23.63742
#
# Poissons Ratio (x) = 0.80518 -0.00819
# Poissons Ratio (y) = 0.65282 0.10895
# Poissons Ratio (z) = -0.01870 0.30688
#
# Static dielectric constant tensor:
#      x y z
#    x 1.624840 0.000000 0.000000 
#    y 0.000000 1.648770 0.000000 
#    z 0.000000 0.000000 1.653710 
# 
# From -- ./inp_files/8081.got.cif
#   From: 2010.05.17/outbox.cif.g08.bks.cpg/sg72_5_cif.got.tgz:8081.got - 2010.06.03 17:03:01.
