data_PCOD9525791
_publ_section_title
;
Structure prediction by ZEFSAII (Michael W. Deem and Ramdas Pophale) SiO2 
 PCOD9525791
Probable space group: I B A M
;
_chemical_formula_sum "Si O2"
_cell_formula_units_Z 96
_cell_length_a 27.412849
_cell_length_b 30.213231
_cell_length_c 8.214228
_cell_angle_alpha 90.000000
_cell_angle_beta 90.000000
_cell_angle_gamma 90.000000
_cell_volume 6803.276128
_symmetry_space_group_name_H-M "I B A M"
_symmetry_group_IT_number 72
_symmetry_cell_setting 'orthorhombic'
loop_
_space_group_symop_operation_xyz
x,y,z
-x,-y,z
x,-y,1/2-z
-x,y,1/2-z
-x,-y,-z
x,y,-z
-x,y,1/2+z
x,-y,1/2+z
1/2+x,1/2+y,1/2+z
1/2-x,1/2-y,1/2+z
1/2+x,1/2-y,-z
1/2-x,1/2+y,-z
1/2-x,1/2-y,1/2-z
1/2+x,1/2+y,1/2-z
1/2-x,1/2+y,z
1/2+x,1/2-y,z
loop_
_atom_site_type_symbol
_atom_site_label
_atom_site_fract_x
_atom_site_fract_y
_atom_site_fract_z
Si Si1 0.646735 0.194221 0.197520
Si Si2 0.201780 0.223254 0.803548
Si Si3 0.597120 0.048250 0.694435
Si Si4 0.756636 0.358839 0.803294
Si Si5 0.789975 0.548124 0.696245
Si Si6 0.053870 0.639956 0.693729
O O1 0.657714 0.244871 0.250840
O O2 0.692415 0.164507 0.254803
O O3 0.596813 0.172109 0.257126
O O4 0.646738 0.193557 0.000000
O O5 0.250000 0.250000 0.750000
O O6 0.212772 0.173279 0.745749
O O7 0.200006 0.221960 0.000000
O O8 0.597453 0.049256 0.500000
O O9 0.653537 0.052833 0.752943
O O10 0.566650 0.089831 0.755584
O O11 0.579265 0.000000 0.750000
O O12 0.759610 0.409404 0.745367
O O13 0.754789 0.359719 0.000000
O O14 0.772183 0.500000 0.750000
O O15 0.790882 0.548883 0.500000
O O16 0.055142 0.641962 0.500000
O O17 0.000000 0.652177 0.750000
#
# Coordination Sequence:
#
# PCOD9525791 Si02
#       6
#    16  16  16  16  16  16
#     4   9  17  28  41  57  75  94 117 150 187 222
#     4   8  14  24  39  58  77  94 114 142 178 218
#     4  10  19  32  46  58  73  93 123 159 198 234
#     4   9  15  25  41  59  77  97 120 146 179 219
#     4   9  17  26  38  56  76 100 125 150 181 217
#     4  11  22  33  44  57  73  95 125 158 196 233
#
# _framework density 14.110849
#
# number of rings (size 3 to 8) (size 9 to 14) (size 15 to 20)
#    0.000    2.667    1.667    1.000    0.000    2.333 
#    0.000    1.667    0.000    0.000    0.000    0.000 
#    0.000    0.000    0.000    0.000    0.000    0.833 
#
# Total GULP energy -267223.544344 kJ/mol
# GULP energy per Si atom -5567.157174 kJ/mol
# Density = 1.407873 g / cm^3
# Si number density = 14.110849 Si / 1000 Ang^3
#
#
#
# Elastic Constant Matrix: (Units=GPa)
#
#
# Indices 1 2 3 4 5 6 
#
# 1 57.2586 57.6260 6.8121 0.0000 0.0000 0.0000
# 2 57.6260 117.4334 7.1775 0.0000 0.0000 0.0000
# 3 6.8121 7.1775 9.3138 0.0000 0.0000 0.0000
# 4 0.0000 0.0000 0.0000 11.6724 0.0000 0.0000
# 5 0.0000 0.0000 0.0000 0.0000 8.8546 0.0000
# 6 0.0000 0.0000 0.0000 0.0000 0.0000 18.8251
#
#
#
# Elastic Compliance Matrix: (Units=1/GPa)
#
#
# Indices 1 2 3 4 5 6 
#
# 1 0.036021 -0.016860 -0.013353 0.000000 0.000000 0.000000
# 2 -0.016860 0.016828 -0.000637 0.000000 0.000000 0.000000
# 3 -0.013353 -0.000637 0.117625 0.000000 0.000000 0.000000
# 4 0.000000 0.000000 0.000000 0.085672 0.000000 0.000000
# 5 0.000000 0.000000 0.000000 0.000000 0.112936 0.000000
# 6 0.000000 0.000000 0.000000 0.000000 0.000000 0.053121
#
#
# Mechanical properties :
#
#
# Convention : Reuss Voigt Hill
#
# Bulk Modulus (GPa) = 9.19334 36.35967 22.77650
# Shear Modulus (GPa) = 9.61241 15.36309 12.48775
#
# Velocity S-wave (km/s) = 2.61283 3.30319 2.97808
# Velocity P-wave (km/s) = 3.95370 6.35383 5.29164
#
# Compressibility (1/GPa) = 0.10877444
#
# Stress axis : x y z
#
# Youngs Moduli (GPa) = 27.76124 59.42556 8.50159
#
# Poissons Ratio (x) = 1.00191 0.11352
# Poissons Ratio (y) = 0.46805 0.00541
# Poissons Ratio (z) = 0.37070 0.03783
#
# Static dielectric constant tensor:
#      x y z
#    x 1.454890 0.000000 0.000000 
#    y 0.000000 1.508250 0.000000 
#    z 0.000000 0.000000 1.465710 
# 
# From -- ./inp_files/8458.got.cif
#   From: 2010.05.17/outbox.cif.g08.bks.cpg/sg72_5_cif.got.tgz:8458.got - 2010.06.03 17:03:01.
