data_PCOD9525617
_publ_section_title
;
Structure prediction by ZEFSAII (Michael W. Deem and Ramdas Pophale) SiO2 
 PCOD9525617
Probable space group: I B A M
;
_chemical_formula_sum "Si O2"
_cell_formula_units_Z 80
_cell_length_a 23.344300
_cell_length_b 29.216357
_cell_length_c 8.937117
_cell_angle_alpha 90.000000
_cell_angle_beta 90.000000
_cell_angle_gamma 90.000000
_cell_volume 6095.430192
_symmetry_space_group_name_H-M "I B A M"
_symmetry_group_IT_number 72
_symmetry_cell_setting 'orthorhombic'
loop_
_space_group_symop_operation_xyz
x,y,z
-x,-y,z
x,-y,1/2-z
-x,y,1/2-z
-x,-y,-z
x,y,-z
-x,y,1/2+z
x,-y,1/2+z
1/2+x,1/2+y,1/2+z
1/2-x,1/2-y,1/2+z
1/2+x,1/2-y,-z
1/2-x,1/2+y,-z
1/2-x,1/2-y,1/2-z
1/2+x,1/2+y,1/2-z
1/2-x,1/2+y,z
1/2+x,1/2-y,z
loop_
_atom_site_type_symbol
_atom_site_label
_atom_site_fract_x
_atom_site_fract_y
_atom_site_fract_z
Si Si1 0.367227 0.629458 0.322337
Si Si2 0.062375 0.223013 0.322218
Si Si3 0.938356 0.950376 0.179667
Si Si4 0.163897 0.273765 0.827606
Si Si5 0.735328 0.678173 0.327621
O O1 0.367460 0.620562 0.500000
O O2 0.408129 0.673523 0.293915
O O3 0.392579 0.586939 0.232036
O O4 0.304304 0.643891 0.266246
O O5 0.058667 0.228841 0.500000
O O6 0.105002 0.260765 0.253353
O O7 0.000000 0.224497 0.250000
O O8 0.000000 0.936973 0.250000
O O9 0.924947 0.000000 0.250000
O O10 0.942530 0.953075 0.000000
O O11 0.203299 0.310752 0.744249
O O12 0.200782 0.226516 0.826162
O O13 0.154524 0.286324 0.000000
O O14 0.740260 0.663745 0.500000
#
# Coordination Sequence:
#
# PCOD9525617 Si02
#       5
#    16  16  16  16  16
#     4  10  19  30  43  59  77  98 127 162 198 234
#     4  10  19  28  39  55  76 101 129 161 195 231
#     4  11  21  33  46  59  76  99 127 160 199 240
#     4   9  16  26  39  54  74  98 124 155 190 227
#     4   9  16  26  40  57  75  96 123 155 191 228
#
# _framework density 13.124586000000001
#
# number of rings (size 3 to 8) (size 9 to 14) (size 15 to 20)
#    0.000    2.200    0.000    5.400    0.000    8.800 
#    0.000    0.000    0.000    0.000    0.000    0.000 
#    0.000    0.000    0.000    0.000    0.000    1.000 
#
# Total GULP energy -223053.088144 kJ/mol
# GULP energy per Si atom -5576.327204 kJ/mol
# Density = 1.309471 g / cm^3
# Si number density = 13.124586 Si / 1000 Ang^3
#
#
#
# Elastic Constant Matrix: (Units=GPa)
#
#
# Indices 1 2 3 4 5 6 
#
# 1 68.2530 28.5175 50.7118 0.0000 0.0000 0.0000
# 2 28.5175 39.1568 33.8985 0.0000 0.0000 0.0000
# 3 50.7118 33.8985 105.3684 0.0000 0.0000 0.0000
# 4 0.0000 0.0000 0.0000 18.1790 0.0000 0.0000
# 5 0.0000 0.0000 0.0000 0.0000 25.7211 0.0000
# 6 0.0000 0.0000 0.0000 0.0000 0.0000 18.9487
#
#
#
# Elastic Compliance Matrix: (Units=1/GPa)
#
#
# Indices 1 2 3 4 5 6 
#
# 1 0.025923 -0.011197 -0.008874 0.000000 0.000000 0.000000
# 2 -0.011197 0.040233 -0.007555 0.000000 0.000000 0.000000
# 3 -0.008874 -0.007555 0.016192 0.000000 0.000000 0.000000
# 4 0.000000 0.000000 0.000000 0.055008 0.000000 0.000000
# 5 0.000000 0.000000 0.000000 0.000000 0.038879 0.000000
# 6 0.000000 0.000000 0.000000 0.000000 0.000000 0.052774
#
#
# Mechanical properties :
#
#
# Convention : Reuss Voigt Hill
#
# Bulk Modulus (GPa) = 36.90505 48.78153 42.84329
# Shear Modulus (GPa) = 17.04779 19.21313 18.13046
#
# Velocity S-wave (km/s) = 3.60796 3.83025 3.72077
# Velocity P-wave (km/s) = 6.74808 7.53723 7.15355
#
# Compressibility (1/GPa) = 0.02709657
#
# Stress axis : x y z
#
# Youngs Moduli (GPa) = 38.57559 24.85510 61.75954
#
# Poissons Ratio (x) = 0.27831 0.54806
# Poissons Ratio (y) = 0.43194 0.46657
# Poissons Ratio (z) = 0.34232 0.18777
#
# Static dielectric constant tensor:
#      x y z
#    x 1.417530 0.000000 0.000000 
#    y 0.000000 1.407090 0.000000 
#    z 0.000000 0.000000 1.438070 
# 
# From -- ./inp_files/4985.got.cif
#   From: 2010.05.17/outbox.cif.g08.bks.cpg/sg72_3_cif.got.tgz:4985.got - 2010.06.03 17:03:01.
