data_PCOD9525483
_publ_section_title
;
Structure prediction by ZEFSAII (Michael W. Deem and Ramdas Pophale) SiO2 
 PCOD9525483
Probable space group: I B A M
;
_chemical_formula_sum "Si O2"
_cell_formula_units_Z 128
_cell_length_a 24.563488
_cell_length_b 13.199881
_cell_length_c 21.525550
_cell_angle_alpha 90.000000
_cell_angle_beta 90.000000
_cell_angle_gamma 90.000000
_cell_volume 6979.339256
_symmetry_space_group_name_H-M "I B A M"
_symmetry_group_IT_number 72
_symmetry_cell_setting 'orthorhombic'
loop_
_space_group_symop_operation_xyz
x,y,z
-x,-y,z
x,-y,1/2-z
-x,y,1/2-z
-x,-y,-z
x,y,-z
-x,y,1/2+z
x,-y,1/2+z
1/2+x,1/2+y,1/2+z
1/2-x,1/2-y,1/2+z
1/2+x,1/2-y,-z
1/2-x,1/2+y,-z
1/2-x,1/2-y,1/2-z
1/2+x,1/2+y,1/2-z
1/2-x,1/2+y,z
1/2+x,1/2-y,z
loop_
_atom_site_type_symbol
_atom_site_label
_atom_site_fract_x
_atom_site_fract_y
_atom_site_fract_z
Si Si1 0.063763 0.472821 0.679096
Si Si2 0.146640 0.057951 0.926033
Si Si3 0.328656 0.332610 0.926223
Si Si4 0.445631 0.310321 0.387048
Si Si5 0.614931 0.110371 0.072001
Si Si6 0.715133 0.248894 0.925195
Si Si7 0.434175 0.615368 0.753346
Si Si8 0.069411 0.241982 0.364330
O O1 0.081541 0.500000 0.750000
O O2 0.095498 0.533741 0.625193
O O3 0.065809 0.354812 0.662135
O O4 0.000000 0.500000 0.675565
O O5 0.083817 0.090716 0.915065
O O6 0.184944 0.149497 0.901492
O O7 0.162377 0.947275 0.901971
O O8 0.153752 0.055672 0.000000
O O9 0.275051 0.276533 0.900736
O O10 0.383327 0.270103 0.914109
O O11 0.320449 0.341443 0.000000
O O12 0.421802 0.211620 0.420571
O O13 0.425494 0.320061 0.315662
O O14 0.510708 0.299213 0.387312
O O15 0.675544 0.152725 0.084067
O O16 0.610953 0.074234 0.000000
O O17 0.718485 0.262081 0.000000
O O18 0.413972 0.500000 0.750000
O O19 0.500000 0.610087 0.750000
O O20 0.413669 0.673493 0.693810
#
# Coordination Sequence:
#
# PCOD9525483 Si02
#       8
#    16  16  16  16  16  16  16  16
#     4  11  23  39  59  83 118 161 194 237 302 371
#     4   9  18  33  54  77 106 145 182 221 283 352
#     4  10  21  35  53  82 116 148 185 239 294 345
#     4  10  18  33  53  78 110 145 182 236 290 349
#     4  10  20  36  59  85 110 151 203 247 290 353
#     4   8  17  35  57  79 108 150 198 238 285 349
#     4   9  18  31  51  75 103 142 186 226 274 342
#     4  11  22  34  53  82 112 143 187 237 284 350
#
# _framework density 18.339843999999999
#
# number of rings (size 3 to 8) (size 9 to 14) (size 15 to 20)
#    0.000    2.250    1.250    2.625    3.500    4.250 
#    0.000    3.750    0.000    9.000    0.000    0.000 
#    0.000    0.000    0.000    0.000    0.000    0.000 
#
# Total GULP energy -356449.091436 kJ/mol
# GULP energy per Si atom -5569.517054 kJ/mol
# Density = 1.829810 g / cm^3
# Si number density = 18.339844 Si / 1000 Ang^3
#
#
#
# Elastic Constant Matrix: (Units=GPa)
#
#
# Indices 1 2 3 4 5 6 
#
# 1 104.2835 34.6639 21.8728 0.0000 0.0000 0.0000
# 2 34.6639 95.9716 21.3204 0.0000 0.0000 0.0000
# 3 21.8728 21.3204 49.9321 0.0000 0.0000 0.0000
# 4 0.0000 0.0000 0.0000 26.2580 0.0000 0.0000
# 5 0.0000 0.0000 0.0000 0.0000 3.6920 0.0000
# 6 0.0000 0.0000 0.0000 0.0000 0.0000 8.5091
#
#
#
# Elastic Compliance Matrix: (Units=1/GPa)
#
#
# Indices 1 2 3 4 5 6 
#
# 1 0.011452 -0.003339 -0.003591 0.000000 0.000000 0.000000
# 2 -0.003339 0.012485 -0.003868 0.000000 0.000000 0.000000
# 3 -0.003591 -0.003868 0.023252 0.000000 0.000000 0.000000
# 4 0.000000 0.000000 0.000000 0.038084 0.000000 0.000000
# 5 0.000000 0.000000 0.000000 0.000000 0.270858 0.000000
# 6 0.000000 0.000000 0.000000 0.000000 0.000000 0.117522
#
#
# Mechanical properties :
#
#
# Convention : Reuss Voigt Hill
#
# Bulk Modulus (GPa) = 39.07332 45.10018 42.08675
# Shear Modulus (GPa) = 9.92497 19.18048 14.55272
#
# Velocity S-wave (km/s) = 2.32883 3.23745 2.81997
# Velocity P-wave (km/s) = 5.34628 6.21446 5.79664
#
# Compressibility (1/GPa) = 0.02559291
#
# Stress axis : x y z
#
# Youngs Moduli (GPa) = 87.31926 80.09598 43.00690
#
# Poissons Ratio (x) = 0.26741 0.15444
# Poissons Ratio (y) = 0.29153 0.16637
# Poissons Ratio (z) = 0.31357 0.30985
#
# Static dielectric constant tensor:
#      x y z
#    x 1.633990 0.000000 0.000000 
#    y 0.000000 1.662500 0.000000 
#    z 0.000000 0.000000 1.654330 
# 
# From -- ./inp_files/45795.got.cif
#   From: 2010.05.17/outbox.cif.g08.bks.cpg/sg72_23_cif.got.tgz:45795.got - 2010.06.03 17:03:01.
