data_PCOD9525465
_publ_section_title
;
Structure prediction by ZEFSAII (Michael W. Deem and Ramdas Pophale) SiO2 
 PCOD9525465
Probable space group: I B A M
;
_chemical_formula_sum "Si O2"
_cell_formula_units_Z 112
_cell_length_a 14.039829
_cell_length_b 10.857844
_cell_length_c 30.007065
_cell_angle_alpha 90.000000
_cell_angle_beta 90.000000
_cell_angle_gamma 90.000000
_cell_volume 4574.345197
_symmetry_space_group_name_H-M "I B A M"
_symmetry_group_IT_number 72
_symmetry_cell_setting 'orthorhombic'
loop_
_space_group_symop_operation_xyz
x,y,z
-x,-y,z
x,-y,1/2-z
-x,y,1/2-z
-x,-y,-z
x,y,-z
-x,y,1/2+z
x,-y,1/2+z
1/2+x,1/2+y,1/2+z
1/2-x,1/2-y,1/2+z
1/2+x,1/2-y,-z
1/2-x,1/2+y,-z
1/2-x,1/2-y,1/2-z
1/2+x,1/2+y,1/2-z
1/2-x,1/2+y,z
1/2+x,1/2-y,z
loop_
_atom_site_type_symbol
_atom_site_label
_atom_site_fract_x
_atom_site_fract_y
_atom_site_fract_z
Si Si1 0.646769 0.675659 0.899348
Si Si2 0.890714 0.787189 0.200748
Si Si3 0.864970 0.438690 0.087327
Si Si4 0.150047 0.685287 0.550924
Si Si5 0.108612 0.491301 0.812083
Si Si6 0.378367 0.736718 0.701991
Si Si7 0.640613 0.407827 0.107257
O O1 0.597441 0.800013 0.917129
O O2 0.746325 0.669775 0.925790
O O3 0.660400 0.692926 0.845804
O O4 0.599249 0.542399 0.902761
O O5 0.854337 0.646026 0.195822
O O6 0.860311 0.827302 0.250463
O O7 0.862457 0.872926 0.159485
O O8 0.006125 0.774464 0.197791
O O9 0.890793 0.547111 0.053876
O O10 0.893318 0.490773 0.135150
O O11 0.750856 0.419057 0.091731
O O12 0.158872 0.724700 0.500000
O O13 0.101376 0.791996 0.579965
O O14 0.152071 0.618982 0.794095
O O15 0.000000 0.500000 0.796202
#
# Coordination Sequence:
#
# PCOD9525465 Si02
#       7
#    16  16  16  16  16  16  16
#     4   9  20  34  50  79 116 139 179 228 275 326
#     4  10  18  32  57  81 113 155 192 226 274 324
#     4   9  18  35  54  78 110 138 181 232 281 328
#     4  10  20  37  61  81 102 141 190 234 283 342
#     4   9  16  31  56  82 108 143 195 237 277 319
#     4   9  19  33  53  84 113 150 195 231 265 329
#     4  10  20  33  54  82 115 148 181 224 283 335
#
# _framework density 24.484376999999999
#
# number of rings (size 3 to 8) (size 9 to 14) (size 15 to 20)
#    0.000    2.571    1.429    0.429    0.000    8.000 
#    0.000    7.857    9.429    1.286    0.000    5.000 
#    0.000    0.000    0.000    0.000    0.000    0.000 
#
# Total GULP energy -312547.722775 kJ/mol
# GULP energy per Si atom -5581.209335 kJ/mol
# Density = 2.442865 g / cm^3
# Si number density = 24.484377 Si / 1000 Ang^3
#
#
#
# Elastic Constant Matrix: (Units=GPa)
#
#
# Indices 1 2 3 4 5 6 
#
# 1 63.5045 7.9817 0.5167 0.0000 0.0000 0.0000
# 2 7.9817 168.2716 48.1144 0.0000 0.0000 0.0000
# 3 0.5167 48.1144 93.4906 0.0000 0.0000 0.0000
# 4 0.0000 0.0000 0.0000 25.8919 0.0000 0.0000
# 5 0.0000 0.0000 0.0000 0.0000 28.8296 0.0000
# 6 0.0000 0.0000 0.0000 0.0000 0.0000 7.1112
#
#
#
# Elastic Compliance Matrix: (Units=1/GPa)
#
#
# Indices 1 2 3 4 5 6 
#
# 1 0.015851 -0.000852 0.000351 0.000000 0.000000 0.000000
# 2 -0.000852 0.007014 -0.003605 0.000000 0.000000 0.000000
# 3 0.000351 -0.003605 0.012550 0.000000 0.000000 0.000000
# 4 0.000000 0.000000 0.000000 0.038622 0.000000 0.000000
# 5 0.000000 0.000000 0.000000 0.000000 0.034687 0.000000
# 6 0.000000 0.000000 0.000000 0.000000 0.000000 0.140623
#
#
# Mechanical properties :
#
#
# Convention : Reuss Voigt Hill
#
# Bulk Modulus (GPa) = 36.76160 48.72137 42.74148
# Shear Modulus (GPa) = 18.75285 30.27681 24.51483
#
# Velocity S-wave (km/s) = 2.77051 3.52031 3.16768
# Velocity P-wave (km/s) = 5.02804 6.03868 5.55639
#
# Compressibility (1/GPa) = 0.02720230
#
# Stress axis : x y z
#
# Youngs Moduli (GPa) = 63.08677 142.57232 79.68374
#
# Poissons Ratio (x) = 0.12151 -0.02797
# Poissons Ratio (y) = 0.05377 0.28726
# Poissons Ratio (z) = -0.02214 0.51397
#
# Static dielectric constant tensor:
#      x y z
#    x 2.035920 0.000000 0.000000 
#    y 0.000000 2.057150 0.000000 
#    z 0.000000 0.000000 1.893080 
# 
# From -- ./inp_files/49508.got.cif
#   From: 2010.05.17/outbox.cif.g08.bks.cpg/sg72_25_cif.got.tgz:49508.got - 2010.06.03 17:03:01.
