data_PCOD9525828
_publ_section_title
;
Structure prediction by ZEFSAII (Michael W. Deem and Ramdas Pophale) SiO2 
 PCOD9525828
Probable space group: I B A M
;
_chemical_formula_sum "Si O2"
_cell_formula_units_Z 116
_cell_length_a 23.869185
_cell_length_b 28.390175
_cell_length_c 8.824586
_cell_angle_alpha 90.000000
_cell_angle_beta 90.000000
_cell_angle_gamma 90.000000
_cell_volume 5979.983697
_symmetry_space_group_name_H-M "I B A M"
_symmetry_group_IT_number 72
_symmetry_cell_setting 'orthorhombic'
loop_
_space_group_symop_operation_xyz
x,y,z
-x,-y,z
x,-y,1/2-z
-x,y,1/2-z
-x,-y,-z
x,y,-z
-x,y,1/2+z
x,-y,1/2+z
1/2+x,1/2+y,1/2+z
1/2-x,1/2-y,1/2+z
1/2+x,1/2-y,-z
1/2-x,1/2+y,-z
1/2-x,1/2-y,1/2-z
1/2+x,1/2+y,1/2-z
1/2-x,1/2+y,z
1/2+x,1/2-y,z
loop_
_atom_site_type_symbol
_atom_site_label
_atom_site_fract_x
_atom_site_fract_y
_atom_site_fract_z
Si Si1 0.937300 0.049809 0.683455
Si Si2 0.756210 0.150428 0.321953
Si Si3 0.559668 0.740744 0.682924
Si Si4 0.500000 0.000000 0.750000
Si Si5 0.638406 0.174531 0.817738
Si Si6 0.380141 0.352739 0.315380
Si Si7 0.898897 0.427857 0.681733
Si Si8 0.780818 0.544740 0.323600
O O1 0.939744 0.047254 0.500000
O O2 0.900514 0.095237 0.728571
O O3 0.000000 0.056308 0.750000
O O4 0.916428 0.000000 0.750000
O O5 0.752834 0.162595 0.500000
O O6 0.701736 0.171440 0.242031
O O7 0.817975 0.161788 0.262700
O O8 0.751171 0.093788 0.308736
O O9 0.500000 0.753636 0.750000
O O10 0.557075 0.741652 0.500000
O O11 0.606010 0.778815 0.731172
O O12 0.577240 0.688196 0.730824
O O13 0.450972 0.958928 0.764759
O O14 0.604520 0.127159 0.770292
O O15 0.640614 0.173946 0.000000
O O16 0.377685 0.353114 0.500000
O O17 0.899504 0.429807 0.500000
O O18 0.840436 0.448421 0.742058
O O19 0.751238 0.500000 0.250000
O O20 0.790691 0.535848 0.500000
#
# Coordination Sequence:
#
# PCOD9525828 Si02
#       8
#    16  16  16   4  16  16  16  16
#     4  10  19  33  54  80 113 149 185 224 271 325
#     4   9  19  36  56  78 105 141 182 221 267 325
#     4  10  21  38  60  83 111 145 180 222 273 323
#     4  12  22  28  52  78 102 140 178 216 262 312
#     4   9  20  38  56  78 109 142 177 226 278 320
#     4   9  19  36  57  82 112 145 181 223 270 324
#     4  10  21  35  49  71 105 138 175 219 265 317
#     4  10  19  32  51  72  99 136 175 216 263 315
#
# _framework density 19.398046000000001
#
# number of rings (size 3 to 8) (size 9 to 14) (size 15 to 20)
#    0.000    2.345    0.690    1.862    0.966    2.759 
#    0.000    2.759    0.000    0.000    0.000    0.000 
#    0.000    0.000    0.000    0.000    0.000    0.000 
#
# Total GULP energy -323026.230402 kJ/mol
# GULP energy per Si atom -5569.417766 kJ/mol
# Density = 1.935390 g / cm^3
# Si number density = 19.398046 Si / 1000 Ang^3
#
#
#
# Elastic Constant Matrix: (Units=GPa)
#
#
# Indices 1 2 3 4 5 6 
#
# 1 86.9093 37.2017 11.5305 0.0000 0.0000 0.0000
# 2 37.2017 110.6081 23.7475 0.0000 0.0000 0.0000
# 3 11.5305 23.7475 49.1941 0.0000 0.0000 0.0000
# 4 0.0000 0.0000 0.0000 20.3055 0.0000 0.0000
# 5 0.0000 0.0000 0.0000 0.0000 10.7752 0.0000
# 6 0.0000 0.0000 0.0000 0.0000 0.0000 3.2805
#
#
#
# Elastic Compliance Matrix: (Units=1/GPa)
#
#
# Indices 1 2 3 4 5 6 
#
# 1 0.013493 -0.004305 -0.001084 0.000000 0.000000 0.000000
# 2 -0.004305 0.011460 -0.004523 0.000000 0.000000 0.000000
# 3 -0.001084 -0.004523 0.022765 0.000000 0.000000 0.000000
# 4 0.000000 0.000000 0.000000 0.049248 0.000000 0.000000
# 5 0.000000 0.000000 0.000000 0.000000 0.092806 0.000000
# 6 0.000000 0.000000 0.000000 0.000000 0.000000 0.304833
#
#
# Mechanical properties :
#
#
# Convention : Reuss Voigt Hill
#
# Bulk Modulus (GPa) = 35.85136 43.51899 39.68518
# Shear Modulus (GPa) = 9.54694 18.48769 14.01732
#
# Velocity S-wave (km/s) = 2.22087 3.09053 2.69107
# Velocity P-wave (km/s) = 5.00984 5.93453 5.49168
#
# Compressibility (1/GPa) = 0.02789294
#
# Stress axis : x y z
#
# Youngs Moduli (GPa) = 74.11221 87.25941 43.92682
#
# Poissons Ratio (x) = 0.37569 0.04763
# Poissons Ratio (y) = 0.31908 0.19868
# Poissons Ratio (z) = 0.08036 0.39467
#
# Static dielectric constant tensor:
#      x y z
#    x 1.654300 0.000000 0.000000 
#    y 0.000000 1.706450 0.000000 
#    z 0.000000 0.000000 1.672790 
# 
# From -- ./inp_files/7305.got.cif
#   From: 2010.05.17/outbox.cif.g08.bks.cpg/sg72_4_cif.got.tgz:7305.got - 2010.06.03 17:03:01.
