data_PCOD9525408
_publ_section_title
;
Structure prediction by ZEFSAII (Michael W. Deem and Ramdas Pophale) SiO2 
 PCOD9525408
Probable space group: I B A M
;
_chemical_formula_sum "Si O2"
_cell_formula_units_Z 88
_cell_length_a 21.043917
_cell_length_b 5.604345
_cell_length_c 31.149152
_cell_angle_alpha 90.000000
_cell_angle_beta 90.000000
_cell_angle_gamma 90.000000
_cell_volume 3673.649096
_symmetry_space_group_name_H-M "I B A M"
_symmetry_group_IT_number 72
_symmetry_cell_setting 'orthorhombic'
loop_
_space_group_symop_operation_xyz
x,y,z
-x,-y,z
x,-y,1/2-z
-x,y,1/2-z
-x,-y,-z
x,y,-z
-x,y,1/2+z
x,-y,1/2+z
1/2+x,1/2+y,1/2+z
1/2-x,1/2-y,1/2+z
1/2+x,1/2-y,-z
1/2-x,1/2+y,-z
1/2-x,1/2-y,1/2-z
1/2+x,1/2+y,1/2-z
1/2-x,1/2+y,z
1/2+x,1/2-y,z
loop_
_atom_site_type_symbol
_atom_site_label
_atom_site_fract_x
_atom_site_fract_y
_atom_site_fract_z
Si Si1 0.925760 0.956775 0.949601
Si Si2 0.569708 0.954696 0.079342
Si Si3 0.595900 0.500000 0.750000
Si Si4 0.689933 0.119909 0.209216
Si Si5 0.598820 0.736343 0.166198
Si Si6 0.727060 0.632240 0.873347
O O1 0.900488 0.719133 0.925407
O O2 0.897780 0.223955 0.942614
O O3 0.923415 0.902665 0.000000
O O4 0.000000 0.000000 0.936344
O O5 0.560584 0.863535 0.128256
O O6 0.500000 0.000000 0.059204
O O7 0.643197 0.315277 0.772212
O O8 0.564329 0.616165 0.792792
O O9 0.737924 0.184625 0.172124
O O10 0.723720 0.000000 0.250000
O O11 0.641356 0.936422 0.188082
O O12 0.653412 0.587801 0.140113
O O13 0.759443 0.395894 0.894107
#
# Coordination Sequence:
#
# PCOD9525408 Si02
#       6
#    16  16   8  16  16  16
#     4   9  18  35  60  87 108 129 161 210 282 348
#     4  10  21  35  56  82 112 143 169 217 267 322
#     4  10  18  32  48  71 102 146 189 234 264 314
#     4   9  19  30  46  69 102 137 183 232 283 313
#     4  10  21  31  49  73 108 144 187 219 270 313
#     4  10  19  30  45  70 100 134 173 220 277 324
#
# _framework density 23.954384999999998
#
# number of rings (size 3 to 8) (size 9 to 14) (size 15 to 20)
#    0.000    2.364    1.818    0.545    3.818    4.364 
#    0.000    0.000    0.000    6.000    0.000    0.000 
#    0.000   58.182    0.000    0.000    0.000    0.000 
#
# Total GULP energy -245010.089887 kJ/mol
# GULP energy per Si atom -5568.411134 kJ/mol
# Density = 2.389986 g / cm^3
# Si number density = 23.954385 Si / 1000 Ang^3
#
#
#
# Elastic Constant Matrix: (Units=GPa)
#
#
# Indices 1 2 3 4 5 6 
#
# 1 39.1363 16.0021 8.4684 0.0000 0.0000 0.0000
# 2 16.0021 188.0281 52.1528 0.0000 0.0000 0.0000
# 3 8.4684 52.1528 100.6570 0.0000 0.0000 0.0000
# 4 0.0000 0.0000 0.0000 39.1167 0.0000 0.0000
# 5 0.0000 0.0000 0.0000 0.0000 22.0548 0.0000
# 6 0.0000 0.0000 0.0000 0.0000 0.0000 26.4650
#
#
#
# Elastic Compliance Matrix: (Units=1/GPa)
#
#
# Indices 1 2 3 4 5 6 
#
# 1 0.026606 -0.001919 -0.001244 0.000000 0.000000 0.000000
# 2 -0.001919 0.006349 -0.003128 0.000000 0.000000 0.000000
# 3 -0.001244 -0.003128 0.011660 0.000000 0.000000 0.000000
# 4 0.000000 0.000000 0.000000 0.025565 0.000000 0.000000
# 5 0.000000 0.000000 0.000000 0.000000 0.045342 0.000000
# 6 0.000000 0.000000 0.000000 0.000000 0.000000 0.037786
#
#
# Mechanical properties :
#
#
# Convention : Reuss Voigt Hill
#
# Bulk Modulus (GPa) = 31.21853 53.45202 42.33528
# Shear Modulus (GPa) = 28.31779 34.27385 31.29582
#
# Velocity S-wave (km/s) = 3.44198 3.78669 3.61844
# Velocity P-wave (km/s) = 5.37188 6.44059 5.93036
#
# Compressibility (1/GPa) = 0.03203225
#
# Stress axis : x y z
#
# Youngs Moduli (GPa) = 37.58599 157.49580 85.76156
#
# Poissons Ratio (x) = 0.30227 0.10669
# Poissons Ratio (y) = 0.07214 0.26829
# Poissons Ratio (z) = 0.04676 0.49269
#
# Static dielectric constant tensor:
#      x y z
#    x 1.926760 0.000000 0.000000 
#    y 0.000000 2.119750 0.000000 
#    z 0.000000 0.000000 1.957070 
# 
# From -- ./inp_files/52548.got.cif
#   From: 2010.05.17/outbox.cif.g08.bks.cpg/sg72_27_cif.got.tgz:52548.got - 2010.06.03 17:03:01.
