data_PCOD9525592
_publ_section_title
;
Structure prediction by ZEFSAII (Michael W. Deem and Ramdas Pophale) SiO2 
 PCOD9525592
Probable space group: I B A M
;
_chemical_formula_sum "Si O2"
_cell_formula_units_Z 96
_cell_length_a 13.858035
_cell_length_b 14.520997
_cell_length_c 19.936956
_cell_angle_alpha 90.000000
_cell_angle_beta 90.000000
_cell_angle_gamma 90.000000
_cell_volume 4011.963192
_symmetry_space_group_name_H-M "I B A M"
_symmetry_group_IT_number 72
_symmetry_cell_setting 'orthorhombic'
loop_
_space_group_symop_operation_xyz
x,y,z
-x,-y,z
x,-y,1/2-z
-x,y,1/2-z
-x,-y,-z
x,y,-z
-x,y,1/2+z
x,-y,1/2+z
1/2+x,1/2+y,1/2+z
1/2-x,1/2-y,1/2+z
1/2+x,1/2-y,-z
1/2-x,1/2+y,-z
1/2-x,1/2-y,1/2-z
1/2+x,1/2+y,1/2-z
1/2-x,1/2+y,z
1/2+x,1/2-y,z
loop_
_atom_site_type_symbol
_atom_site_label
_atom_site_fract_x
_atom_site_fract_y
_atom_site_fract_z
Si Si1 0.580368 0.648251 0.692320
Si Si2 0.371000 0.532895 0.609756
Si Si3 0.522774 0.129790 0.500000
Si Si4 0.242304 0.560154 0.000000
Si Si5 0.595039 0.832619 0.378295
Si Si6 0.937182 0.161020 0.000000
Si Si7 0.248411 0.604205 0.723063
Si Si8 0.779705 0.267887 0.500000
O O1 0.500000 0.637428 0.750000
O O2 0.589556 0.553873 0.651031
O O3 0.551766 0.736448 0.648276
O O4 0.691137 0.661304 0.720964
O O5 0.283128 0.494417 0.563727
O O6 0.441056 0.591294 0.562102
O O7 0.325150 0.601727 0.662900
O O8 0.629252 0.085367 0.500000
O O9 0.475566 0.108338 0.426904
O O10 0.506719 0.242597 0.500000
O O11 0.294077 0.658871 0.000000
O O12 0.646651 0.872350 0.311704
O O13 0.676481 0.807667 0.432428
O O14 0.830631 0.203994 0.000000
O O15 0.240543 0.500000 0.750000
#
# Coordination Sequence:
#
# PCOD9525592 Si02
#       8
#    16  16   8   8  16   8  16   8
#     4  11  25  42  66  99 134 180 222 270 328 399
#     4  10  21  40  69  97 133 167 222 278 340 400
#     4  10  26  40  70 102 133 170 226 287 325 403
#     4  10  20  41  68  97 121 176 221 276 334 387
#     4  11  22  44  64  98 134 173 225 267 334 397
#     4  10  20  39  68 101 129 170 209 289 339 381
#     4  10  23  43  68  94 129 181 224 267 330 399
#     4  10  18  36  72  88 125 169 218 272 320 397
#
# _framework density 23.928435
#
# number of rings (size 3 to 8) (size 9 to 14) (size 15 to 20)
#    0.000    1.667    3.333    0.500    2.333    3.000 
#    6.000    2.500    0.000    0.000    0.000    0.000 
#    0.000    0.000    0.000    0.000    0.000    0.000 
#
# Total GULP energy -268035.979736 kJ/mol
# GULP energy per Si atom -5584.082911 kJ/mol
# Density = 2.387397 g / cm^3
# Si number density = 23.928435 Si / 1000 Ang^3
#
#
#
# Elastic Constant Matrix: (Units=GPa)
#
#
# Indices 1 2 3 4 5 6 
#
# 1 90.7577 22.3649 36.0854 0.0000 0.0000 0.0000
# 2 22.3649 86.1402 33.7014 0.0000 0.0000 0.0000
# 3 36.0854 33.7014 105.1481 0.0000 0.0000 0.0000
# 4 0.0000 0.0000 0.0000 23.5724 0.0000 0.0000
# 5 0.0000 0.0000 0.0000 0.0000 253.9555 0.0000
# 6 0.0000 0.0000 0.0000 0.0000 0.0000 32.4982
#
#
#
# Elastic Compliance Matrix: (Units=1/GPa)
#
#
# Indices 1 2 3 4 5 6 
#
# 1 0.013016 -0.001866 -0.003869 0.000000 0.000000 0.000000
# 2 -0.001866 0.013541 -0.003700 0.000000 0.000000 0.000000
# 3 -0.003869 -0.003700 0.012024 0.000000 0.000000 0.000000
# 4 0.000000 0.000000 0.000000 0.042423 0.000000 0.000000
# 5 0.000000 0.000000 0.000000 0.000000 0.003938 0.000000
# 6 0.000000 0.000000 0.000000 0.000000 0.000000 0.030771
#
#
# Mechanical properties :
#
#
# Convention : Reuss Voigt Hill
#
# Bulk Modulus (GPa) = 50.72995 51.81659 51.27327
# Shear Modulus (GPa) = 35.42271 74.66483 55.04377
#
# Velocity S-wave (km/s) = 3.85172 5.59206 4.80140
# Velocity P-wave (km/s) = 6.40529 7.96220 7.22580
#
# Compressibility (1/GPa) = 0.01971222
#
# Stress axis : x y z
#
# Youngs Moduli (GPa) = 76.82570 73.85042 83.16689
#
# Poissons Ratio (x) = 0.13779 0.32178
# Poissons Ratio (y) = 0.14334 0.30769
# Poissons Ratio (z) = 0.29724 0.27323
#
# Static dielectric constant tensor:
#      x y z
#    x 1.986180 0.000000 0.000000 
#    y 0.000000 1.960630 0.000000 
#    z 0.000000 0.000000 1.946080 
# 
# From -- ./inp_files/38115.got.cif
#   From: 2010.05.17/outbox.cif.g08.bks.cpg/sg72_20_cif.got.tgz:38115.got - 2010.06.03 17:03:01.
