data_PCOD9525315
_publ_section_title
;
Structure prediction by ZEFSAII (Michael W. Deem and Ramdas Pophale) SiO2 
 PCOD9525315
Probable space group: I B A M
;
_chemical_formula_sum "Si O2"
_cell_formula_units_Z 112
_cell_length_a 24.575305
_cell_length_b 13.130571
_cell_length_c 19.516576
_cell_angle_alpha 90.000000
_cell_angle_beta 90.000000
_cell_angle_gamma 90.000000
_cell_volume 6297.760722
_symmetry_space_group_name_H-M "I B A M"
_symmetry_group_IT_number 72
_symmetry_cell_setting 'orthorhombic'
loop_
_space_group_symop_operation_xyz
x,y,z
-x,-y,z
x,-y,1/2-z
-x,y,1/2-z
-x,-y,-z
x,y,-z
-x,y,1/2+z
x,-y,1/2+z
1/2+x,1/2+y,1/2+z
1/2-x,1/2-y,1/2+z
1/2+x,1/2-y,-z
1/2-x,1/2+y,-z
1/2-x,1/2-y,1/2-z
1/2+x,1/2+y,1/2-z
1/2-x,1/2+y,z
1/2+x,1/2-y,z
loop_
_atom_site_type_symbol
_atom_site_label
_atom_site_fract_x
_atom_site_fract_y
_atom_site_fract_z
Si Si1 0.440854 0.793233 0.180959
Si Si2 0.634670 0.032739 0.170271
Si Si3 0.056749 0.348358 0.341588
Si Si4 0.849003 0.761626 0.580742
Si Si5 0.557741 0.450806 0.824731
Si Si6 0.341163 0.504445 0.418792
Si Si7 0.224232 0.570071 0.081981
O O1 0.386321 0.852456 0.159028
O O2 0.493488 0.836281 0.140557
O O3 0.443179 0.825867 0.260603
O O4 0.444523 0.671597 0.179220
O O5 0.645039 0.000000 0.250000
O O6 0.584881 0.957795 0.148022
O O7 0.686728 0.006801 0.124775
O O8 0.096766 0.268671 0.378221
O O9 0.861192 0.752186 0.500000
O O10 0.801946 0.680243 0.596838
O O11 0.830479 0.876054 0.593998
O O12 0.500000 0.500000 0.846532
O O13 0.568836 0.500000 0.750000
O O14 0.605906 0.476473 0.876264
O O15 0.350747 0.490727 0.500000
O O16 0.287282 0.441822 0.399536
O O17 0.219639 0.551246 0.000000
#
# Coordination Sequence:
#
# PCOD9525315 Si02
#       7
#    16  16  16  16  16  16  16
#     4  10  18  30  51  75 101 133 165 204 251 290
#     4   9  18  31  51  78 103 129 165 207 246 292
#     4   9  16  31  51  74 103 132 165 199 243 302
#     4   9  17  32  53  72  96 133 169 203 246 294
#     4  11  22  36  53  75 103 133 167 205 247 295
#     4  10  21  36  54  75  99 131 170 207 246 295
#     4   9  19  35  53  74 101 132 166 205 249 296
#
# _framework density 17.784099000000001
#
# number of rings (size 3 to 8) (size 9 to 14) (size 15 to 20)
#    0.000    2.429    0.000    3.857    0.000    3.714 
#    0.000    3.571    0.000   10.286    0.000    0.000 
#    0.000    0.000    0.000    0.000    0.000    0.000 
#
# Total GULP energy -312048.416580 kJ/mol
# GULP energy per Si atom -5572.293153 kJ/mol
# Density = 1.774362 g / cm^3
# Si number density = 17.784099 Si / 1000 Ang^3
#
#
#
# Elastic Constant Matrix: (Units=GPa)
#
#
# Indices 1 2 3 4 5 6 
#
# 1 135.6016 39.2985 50.1892 0.0000 0.0000 0.0000
# 2 39.2985 55.3793 11.4794 0.0000 0.0000 0.0000
# 3 50.1892 11.4794 23.4015 0.0000 0.0000 0.0000
# 4 0.0000 0.0000 0.0000 18.6192 0.0000 0.0000
# 5 0.0000 0.0000 0.0000 0.0000 29.7530 0.0000
# 6 0.0000 0.0000 0.0000 0.0000 0.0000 16.7274
#
#
#
# Elastic Compliance Matrix: (Units=1/GPa)
#
#
# Indices 1 2 3 4 5 6 
#
# 1 0.042319 -0.012487 -0.084637 0.000000 0.000000 0.000000
# 2 -0.012487 0.023786 0.015112 0.000000 0.000000 0.000000
# 3 -0.084637 0.015112 0.216840 0.000000 0.000000 0.000000
# 4 0.000000 0.000000 0.000000 0.053708 0.000000 0.000000
# 5 0.000000 0.000000 0.000000 0.000000 0.033610 0.000000
# 6 0.000000 0.000000 0.000000 0.000000 0.000000 0.059782
#
#
# Mechanical properties :
#
#
# Convention : Reuss Voigt Hill
#
# Bulk Modulus (GPa) = 8.40886 46.25741 27.33313
# Shear Modulus (GPa) = 7.89006 20.58093 14.23550
#
# Velocity S-wave (km/s) = 2.10860 3.40555 2.83231
# Velocity P-wave (km/s) = 3.26601 6.44443 5.10870
#
# Compressibility (1/GPa) = 0.11892219
#
# Stress axis : x y z
#
# Youngs Moduli (GPa) = 23.62987 42.04235 4.61170
#
# Poissons Ratio (x) = 0.52497 0.39032
# Poissons Ratio (y) = 0.29506 -0.06969
# Poissons Ratio (z) = 1.99996 -0.63536
#
# Static dielectric constant tensor:
#      x y z
#    x 1.606670 0.000000 0.000000 
#    y 0.000000 1.629920 0.000000 
#    z 0.000000 0.000000 1.593480 
# 
# From -- ./inp_files/40320.got.cif
#   From: 2010.05.17/outbox.cif.g08.bks.cpg/sg72_21_cif.got.tgz:40320.got - 2010.06.03 17:03:01.
