data_PCOD9525747
_publ_section_title
;
Structure prediction by ZEFSAII (Michael W. Deem and Ramdas Pophale) SiO2 
 PCOD9525747
Probable space group: I B A M
;
_chemical_formula_sum "Si O2"
_cell_formula_units_Z 64
_cell_length_a 14.099191
_cell_length_b 5.062689
_cell_length_c 39.831703
_cell_angle_alpha 90.000000
_cell_angle_beta 90.000000
_cell_angle_gamma 90.000000
_cell_volume 2843.179758
_symmetry_space_group_name_H-M "I B A M"
_symmetry_group_IT_number 72
_symmetry_cell_setting 'orthorhombic'
loop_
_space_group_symop_operation_xyz
x,y,z
-x,-y,z
x,-y,1/2-z
-x,y,1/2-z
-x,-y,-z
x,y,-z
-x,y,1/2+z
x,-y,1/2+z
1/2+x,1/2+y,1/2+z
1/2-x,1/2-y,1/2+z
1/2+x,1/2-y,-z
1/2-x,1/2+y,-z
1/2-x,1/2-y,1/2-z
1/2+x,1/2+y,1/2-z
1/2-x,1/2+y,z
1/2+x,1/2-y,z
loop_
_atom_site_type_symbol
_atom_site_label
_atom_site_fract_x
_atom_site_fract_y
_atom_site_fract_z
Si Si1 0.612897 0.006995 0.641252
Si Si2 0.116008 0.014254 0.102447
Si Si3 0.568198 0.751922 0.537165
Si Si4 0.312248 0.962174 0.213813
O O1 0.647533 0.718840 0.630714
O O2 0.634720 0.046954 0.680149
O O3 0.500000 0.000000 0.637692
O O4 0.647279 0.226410 0.614531
O O5 0.137773 0.152914 0.066645
O O6 0.000000 0.000000 0.102439
O O7 0.500000 0.500000 0.533203
O O8 0.609079 0.812475 0.500000
O O9 0.500000 0.000000 0.546948
O O10 0.278274 0.659315 0.213470
O O11 0.361349 0.000000 0.250000
#
# Coordination Sequence:
#
# PCOD9525747 Si02
#       4
#    16  16  16  16
#     4  10  19  31  50  73  98 127 159 199 245 291
#     4   9  16  27  42  66  98 127 157 197 242 283
#     4   9  15  23  37  59  92 133 166 192 234 290
#     4  10  21  37  54  72  97 127 159 199 245 294
#
# _framework density 22.510007999999999
#
# number of rings (size 3 to 8) (size 9 to 14) (size 15 to 20)
#    0.000    2.500    0.000    5.250    0.000    0.500 
#    0.000    0.000    0.000    9.000    0.000    0.000 
#    0.000   20.000    0.000    0.000    0.000    0.000 
#
# Total GULP energy -178288.022203 kJ/mol
# GULP energy per Si atom -5571.500694 kJ/mol
# Density = 2.245877 g / cm^3
# Si number density = 22.510008 Si / 1000 Ang^3
#
#
#
# Elastic Constant Matrix: (Units=GPa)
#
#
# Indices 1 2 3 4 5 6 
#
# 1 40.6587 -8.4306 5.7665 0.0000 0.0000 0.0000
# 2 -8.4306 120.7453 34.5452 0.0000 0.0000 0.0000
# 3 5.7665 34.5452 196.1035 0.0000 0.0000 0.0000
# 4 0.0000 0.0000 0.0000 36.5281 0.0000 0.0000
# 5 0.0000 0.0000 0.0000 0.0000 22.4435 0.0000
# 6 0.0000 0.0000 0.0000 0.0000 0.0000 -4.1267
#
#
#
# Elastic Compliance Matrix: (Units=1/GPa)
#
#
# Indices 1 2 3 4 5 6 
#
# 1 0.025182 0.002075 -0.001106 0.000000 0.000000 0.000000
# 2 0.002075 0.008892 -0.001627 0.000000 0.000000 0.000000
# 3 -0.001106 -0.001627 0.005419 0.000000 0.000000 0.000000
# 4 0.000000 0.000000 0.000000 0.027376 0.000000 0.000000
# 5 0.000000 0.000000 0.000000 0.000000 0.044556 0.000000
# 6 0.000000 0.000000 0.000000 0.000000 0.000000 -0.242323
#
#
# Mechanical properties :
#
#
# Convention : Reuss Voigt Hill
#
# Bulk Modulus (GPa) = 26.19486 46.80772 36.50129
# Shear Modulus (GPa) = -42.78824 32.67740 -5.05542
#
# Velocity S-wave (km/s) = -4.36461 3.81423 -1.50024
# Velocity P-wave (km/s) = 3.70641 6.34327 3.64003
#
# Compressibility (1/GPa) = 0.03817543
#
# Stress axis : x y z
#
# Youngs Moduli (GPa) = 39.71088 112.45593 184.55083
#
# Poissons Ratio (x) = -0.23331 0.20411
# Poissons Ratio (y) = -0.08239 0.30035
# Poissons Ratio (z) = 0.04392 0.18302
#
# Static dielectric constant tensor:
#      x y z
#    x 1.813970 0.000000 0.000000 
#    y 0.000000 1.826810 0.000000 
#    z 0.000000 0.000000 1.934370 
# 
# From -- ./inp_files/52149.got.cif
#   From: 2010.05.17/outbox.cif.g08.bks.cpg/sg72_27_cif.got.tgz:52149.got - 2010.06.03 17:03:01.
