data_PCOD9525553
_publ_section_title
;
Structure prediction by ZEFSAII (Michael W. Deem and Ramdas Pophale) SiO2 
 PCOD9525553
Probable space group: I B A M
;
_chemical_formula_sum "Si O2"
_cell_formula_units_Z 60
_cell_length_a 9.198370
_cell_length_b 11.269940
_cell_length_c 25.274228
_cell_angle_alpha 90.000000
_cell_angle_beta 90.000000
_cell_angle_gamma 90.000000
_cell_volume 2620.054817
_symmetry_space_group_name_H-M "I B A M"
_symmetry_group_IT_number 72
_symmetry_cell_setting 'orthorhombic'
loop_
_space_group_symop_operation_xyz
x,y,z
-x,-y,z
x,-y,1/2-z
-x,y,1/2-z
-x,-y,-z
x,y,-z
-x,y,1/2+z
x,-y,1/2+z
1/2+x,1/2+y,1/2+z
1/2-x,1/2-y,1/2+z
1/2+x,1/2-y,-z
1/2-x,1/2+y,-z
1/2-x,1/2-y,1/2-z
1/2+x,1/2+y,1/2-z
1/2-x,1/2+y,z
1/2+x,1/2-y,z
loop_
_atom_site_type_symbol
_atom_site_label
_atom_site_fract_x
_atom_site_fract_y
_atom_site_fract_z
Si Si1 0.500000 0.000000 0.250000
Si Si2 0.000000 0.500000 0.583849
Si Si3 0.258131 0.053434 0.000000
Si Si4 0.969439 0.140178 0.878513
Si Si5 0.847534 0.667316 0.166149
Si Si6 0.972913 0.162023 0.000000
O O1 0.601414 0.908884 0.283307
O O2 0.134137 0.456220 0.548706
O O3 0.065129 0.600674 0.620085
O O4 0.138741 0.949783 0.000000
O O5 0.150843 0.164252 0.000000
O O6 0.821758 0.158597 0.846096
O O7 0.096620 0.198726 0.843024
O O8 0.950932 0.196210 0.937827
O O9 0.000000 0.000000 0.886941
#
# Coordination Sequence:
#
# PCOD9525553 Si02
#       6
#     4   8   8  16  16   8
#     4  10  28  58  80 102 140 186 274 320 384 414
#     4  10  20  40  64 102 140 200 254 290 360 428
#     4  10  18  34  66  95 151 201 241 291 347 438
#     4  12  26  46  73 113 156 196 246 298 373 451
#     4  11  27  47  77 102 147 193 250 322 367 436
#     4  11  20  38  64 106 159 196 236 288 360 455
#
# _framework density 22.900283999999999
#
# number of rings (size 3 to 8) (size 9 to 14) (size 15 to 20)
#    0.000    1.067    5.333    0.000   11.200    4.267 
#    0.000    0.000    0.000    0.000    0.000    0.000 
#    0.000    0.000    0.000    0.000    0.000    0.000 
#
# Total GULP energy -167297.567813 kJ/mol
# GULP energy per Si atom -5576.585594 kJ/mol
# Density = 2.284816 g / cm^3
# Si number density = 22.900284 Si / 1000 Ang^3
#
#
#
# Elastic Constant Matrix: (Units=GPa)
#
#
# Indices 1 2 3 4 5 6 
#
# 1 150.6598 18.6382 44.9113 0.0000 0.0000 0.0000
# 2 18.6382 94.1521 31.9400 0.0000 0.0000 0.0000
# 3 44.9113 31.9400 120.6504 0.0000 0.0000 0.0000
# 4 0.0000 0.0000 0.0000 12.8117 0.0000 0.0000
# 5 0.0000 0.0000 0.0000 0.0000 57.0427 0.0000
# 6 0.0000 0.0000 0.0000 0.0000 0.0000 18.0261
#
#
#
# Elastic Compliance Matrix: (Units=1/GPa)
#
#
# Indices 1 2 3 4 5 6 
#
# 1 0.007496 -0.000590 -0.002634 0.000000 0.000000 0.000000
# 2 -0.000590 0.011716 -0.002882 0.000000 0.000000 0.000000
# 3 -0.002634 -0.002882 0.010032 0.000000 0.000000 0.000000
# 4 0.000000 0.000000 0.000000 0.078054 0.000000 0.000000
# 5 0.000000 0.000000 0.000000 0.000000 0.017531 0.000000
# 6 0.000000 0.000000 0.000000 0.000000 0.000000 0.055475
#
#
# Mechanical properties :
#
#
# Convention : Reuss Voigt Hill
#
# Bulk Modulus (GPa) = 58.71639 61.82684 60.27162
# Shear Modulus (GPa) = 25.22813 35.57429 30.40121
#
# Velocity S-wave (km/s) = 3.32271 3.94565 3.64751
# Velocity P-wave (km/s) = 6.35738 6.91480 6.64194
#
# Compressibility (1/GPa) = 0.01703102
#
# Stress axis : x y z
#
# Youngs Moduli (GPa) = 133.41038 85.35654 99.68335
#
# Poissons Ratio (x) = 0.05039 0.26256
# Poissons Ratio (y) = 0.07875 0.28726
# Poissons Ratio (z) = 0.35140 0.24598
#
# Static dielectric constant tensor:
#      x y z
#    x 1.809800 0.000000 0.000000 
#    y 0.000000 2.446330 0.000000 
#    z 0.000000 0.000000 1.852890 
# 
# From -- ./inp_files/46920.got.cif
#   From: 2010.05.17/outbox.cif.g08.bks.cpg/sg72_24_cif.got.tgz:46920.got - 2010.06.03 17:03:01.
