data_PCOD9525499
_publ_section_title
;
Structure prediction by ZEFSAII (Michael W. Deem and Ramdas Pophale) SiO2 
 PCOD9525499
Probable space group: I B A M
;
_chemical_formula_sum "Si O2"
_cell_formula_units_Z 52
_cell_length_a 16.483956
_cell_length_b 15.175630
_cell_length_c 9.943156
_cell_angle_alpha 90.000000
_cell_angle_beta 90.000000
_cell_angle_gamma 90.000000
_cell_volume 2487.324394
_symmetry_space_group_name_H-M "I B A M"
_symmetry_group_IT_number 72
_symmetry_cell_setting 'orthorhombic'
loop_
_space_group_symop_operation_xyz
x,y,z
-x,-y,z
x,-y,1/2-z
-x,y,1/2-z
-x,-y,-z
x,y,-z
-x,y,1/2+z
x,-y,1/2+z
1/2+x,1/2+y,1/2+z
1/2-x,1/2-y,1/2+z
1/2+x,1/2-y,-z
1/2-x,1/2+y,-z
1/2-x,1/2-y,1/2-z
1/2+x,1/2+y,1/2-z
1/2-x,1/2+y,z
1/2+x,1/2-y,z
loop_
_atom_site_type_symbol
_atom_site_label
_atom_site_fract_x
_atom_site_fract_y
_atom_site_fract_z
Si Si1 0.595730 0.429022 0.500000
Si Si2 0.000000 0.000000 0.250000
Si Si3 0.312377 0.168446 0.772177
Si Si4 0.617593 0.212824 0.000000
Si Si5 0.575726 0.766450 0.000000
Si Si6 0.790043 0.096480 0.500000
O O1 0.548168 0.440641 0.642086
O O2 0.620290 0.328654 0.500000
O O3 0.657189 0.509302 0.500000
O O4 0.250000 0.250000 0.750000
O O5 0.350856 0.157144 0.626783
O O6 0.261779 0.099789 0.862318
O O7 0.388201 0.189968 0.867630
O O8 0.521326 0.232103 0.000000
O O9 0.658083 0.311662 0.000000
#
# Coordination Sequence:
#
# PCOD9525499 Si02
#       6
#     8   4  16   8   8   8
#     4  11  24  36  55  82 125 165 198 231 298 370
#     4  10  24  38  48  86 124 170 186 236 292 366
#     4   9  20  36  54  77 115 160 198 249 289 353
#     4  10  18  33  57  84 108 151 206 245 289 353
#     4  11  22  33  58  86 120 155 196 244 306 361
#     4   9  20  39  50  76 121 158 200 242 287 354
#
# _framework density 20.905999000000001
#
# number of rings (size 3 to 8) (size 9 to 14) (size 15 to 20)
#    0.000    2.154    0.000    3.692   12.923    0.000 
#    0.000    0.000    0.000    0.000    0.000    0.000 
#    0.000  204.308    0.000    0.000    0.000    0.000 
#
# Total GULP energy -144884.133816 kJ/mol
# GULP energy per Si atom -5572.466685 kJ/mol
# Density = 2.085842 g / cm^3
# Si number density = 20.905999 Si / 1000 Ang^3
#
#
#
# Elastic Constant Matrix: (Units=GPa)
#
#
# Indices 1 2 3 4 5 6 
#
# 1 105.3527 21.3261 69.1589 0.0000 0.0000 0.0000
# 2 21.3261 29.2877 36.2416 0.0000 0.0000 0.0000
# 3 69.1589 36.2416 232.5405 0.0000 0.0000 0.0000
# 4 0.0000 0.0000 0.0000 -2.8142 0.0000 0.0000
# 5 0.0000 0.0000 0.0000 0.0000 -24.4885 0.0000
# 6 0.0000 0.0000 0.0000 0.0000 0.0000 -31.9348
#
#
#
# Elastic Compliance Matrix: (Units=1/GPa)
#
#
# Indices 1 2 3 4 5 6 
#
# 1 0.012488 -0.005572 -0.002846 0.000000 0.000000 0.000000
# 2 -0.005572 0.044788 -0.005323 0.000000 0.000000 0.000000
# 3 -0.002846 -0.005323 0.005976 0.000000 0.000000 0.000000
# 4 0.000000 0.000000 0.000000 -0.355344 0.000000 0.000000
# 5 0.000000 0.000000 0.000000 0.000000 -0.040836 0.000000
# 6 0.000000 0.000000 0.000000 0.000000 0.000000 -0.031314
#
#
# Mechanical properties :
#
#
# Convention : Reuss Voigt Hill
#
# Bulk Modulus (GPa) = 27.95551 68.95934 48.45742
# Shear Modulus (GPa) = -15.39238 4.18280 -5.60479
#
# Velocity S-wave (km/s) = -2.71637 1.41602 -1.63914
# Velocity P-wave (km/s) = 1.88755 5.97750 4.43246
#
# Compressibility (1/GPa) = 0.03577113
#
# Stress axis : x y z
#
# Youngs Moduli (GPa) = 80.07826 22.32721 167.32951
#
# Poissons Ratio (x) = 0.12440 0.47614
# Poissons Ratio (y) = 0.44619 0.89073
# Poissons Ratio (z) = 0.22787 0.11885
#
# Static dielectric constant tensor:
#      x y z
#    x 1.786450 0.000000 0.000000 
#    y 0.000000 1.718160 0.000000 
#    z 0.000000 0.000000 1.800400 
# 
# From -- ./inp_files/3185.got.cif
#   From: 2010.05.17/outbox.cif.g08.bks.cpg/sg72_2_cif.got.tgz:3185.got - 2010.06.03 17:03:01.
