data_PCOD9525622
_publ_section_title
;
Structure prediction by ZEFSAII (Michael W. Deem and Ramdas Pophale) SiO2 
 PCOD9525622
Probable space group: I B A M
;
_chemical_formula_sum "Si O2"
_cell_formula_units_Z 116
_cell_length_a 26.886236
_cell_length_b 19.368543
_cell_length_c 13.329704
_cell_angle_alpha 90.000000
_cell_angle_beta 90.000000
_cell_angle_gamma 90.000000
_cell_volume 6941.406276
_symmetry_space_group_name_H-M "I B A M"
_symmetry_group_IT_number 72
_symmetry_cell_setting 'orthorhombic'
loop_
_space_group_symop_operation_xyz
x,y,z
-x,-y,z
x,-y,1/2-z
-x,y,1/2-z
-x,-y,-z
x,y,-z
-x,y,1/2+z
x,-y,1/2+z
1/2+x,1/2+y,1/2+z
1/2-x,1/2-y,1/2+z
1/2+x,1/2-y,-z
1/2-x,1/2+y,-z
1/2-x,1/2-y,1/2-z
1/2+x,1/2+y,1/2-z
1/2-x,1/2+y,z
1/2+x,1/2-y,z
loop_
_atom_site_type_symbol
_atom_site_label
_atom_site_fract_x
_atom_site_fract_y
_atom_site_fract_z
Si Si1 0.226324 0.249257 0.883534
Si Si2 0.500000 0.000000 0.250000
Si Si3 0.657168 0.293758 0.617921
Si Si4 0.802980 0.888956 0.770265
Si Si5 0.728050 0.511030 0.111612
Si Si6 0.080745 0.576310 0.382769
Si Si7 0.160938 0.547043 0.889357
Si Si8 0.357068 0.172510 0.742382
O O1 0.283829 0.272506 0.879779
O O2 0.219724 0.173871 0.833620
O O3 0.189198 0.298725 0.822413
O O4 0.211825 0.247028 0.000000
O O5 0.534907 0.046727 0.180005
O O6 0.644322 0.304016 0.500000
O O7 0.654661 0.357702 0.696702
O O8 0.630035 0.231137 0.675496
O O9 0.810022 0.952858 0.846991
O O10 0.768546 0.925756 0.687558
O O11 0.782310 0.477452 0.109950
O O12 0.714884 0.534313 0.000000
O O13 0.069136 0.584383 0.500000
O O14 0.124505 0.518128 0.375497
O O15 0.100850 0.646807 0.334083
O O16 0.155148 0.604822 0.806528
O O17 0.149894 0.576862 0.000000
#
# Coordination Sequence:
#
# PCOD9525622 Si02
#       8
#    16   4  16  16  16  16  16  16
#     4  10  20  30  43  62  89 121 155 197 242 293
#     4  12  22  44  60  70 100 124 150 210 272 314
#     4  10  20  30  43  65  91 121 157 193 240 294
#     4  10  19  28  42  56  85 118 152 195 237 282
#     4  10  20  29  43  63  88 121 161 203 243 284
#     4  11  24  37  54  75  93 119 157 201 256 316
#     4  10  20  31  46  68  90 113 152 201 246 296
#     4  11  19  33  49  67  90 120 155 200 251 295
#
# _framework density 16.711312
#
# number of rings (size 3 to 8) (size 9 to 14) (size 15 to 20)
#    0.000    1.655    1.379    5.172    7.724    2.207 
#    0.000    0.000    0.000    0.000    0.000    0.000 
#    0.000    0.000    0.000    0.000    0.000   44.138 
#
# Total GULP energy -323426.863017 kJ/mol
# GULP energy per Si atom -5576.325224 kJ/mol
# Density = 1.667328 g / cm^3
# Si number density = 16.711312 Si / 1000 Ang^3
#
#
#
# Elastic Constant Matrix: (Units=GPa)
#
#
# Indices 1 2 3 4 5 6 
#
# 1 31.7993 20.2660 24.8310 0.0000 0.0000 0.0000
# 2 20.2660 46.6528 27.6464 0.0000 0.0000 0.0000
# 3 24.8310 27.6464 141.8373 0.0000 0.0000 0.0000
# 4 0.0000 0.0000 0.0000 25.4004 0.0000 0.0000
# 5 0.0000 0.0000 0.0000 0.0000 9.5934 0.0000
# 6 0.0000 0.0000 0.0000 0.0000 0.0000 10.8952
#
#
#
# Elastic Compliance Matrix: (Units=1/GPa)
#
#
# Indices 1 2 3 4 5 6 
#
# 1 0.046114 -0.017239 -0.004713 0.000000 0.000000 0.000000
# 2 -0.017239 0.030679 -0.002962 0.000000 0.000000 0.000000
# 3 -0.004713 -0.002962 0.008453 0.000000 0.000000 0.000000
# 4 0.000000 0.000000 0.000000 0.039369 0.000000 0.000000
# 5 0.000000 0.000000 0.000000 0.000000 0.104238 0.000000
# 6 0.000000 0.000000 0.000000 0.000000 0.000000 0.091783
#
#
# Mechanical properties :
#
#
# Convention : Reuss Voigt Hill
#
# Bulk Modulus (GPa) = 28.23427 40.64180 34.43803
# Shear Modulus (GPa) = 13.07978 19.01422 16.04700
#
# Velocity S-wave (km/s) = 2.80069 3.37680 3.10215
# Velocity P-wave (km/s) = 5.23359 6.29098 5.78649
#
# Compressibility (1/GPa) = 0.03541795
#
# Stress axis : x y z
#
# Youngs Moduli (GPa) = 21.68542 32.59581 118.30545
#
# Poissons Ratio (x) = 0.56192 0.55755
# Poissons Ratio (y) = 0.37384 0.35040
# Poissons Ratio (z) = 0.10220 0.09654
#
# Static dielectric constant tensor:
#      x y z
#    x 1.527330 0.000000 0.000000 
#    y 0.000000 1.614030 0.000000 
#    z 0.000000 0.000000 1.634050 
# 
# From -- ./inp_files/25376.got.cif
#   From: 2010.05.17/outbox.cif.g08.bks.cpg/sg72_13_cif.got.tgz:25376.got - 2010.06.03 17:03:01.
