data_PCOD9525061
_publ_section_title
;
Structure prediction by ZEFSAII (Michael W. Deem and Ramdas Pophale) SiO2 
 PCOD9525061
Probable space group: I B A M
;
_chemical_formula_sum "Si O2"
_cell_formula_units_Z 112
_cell_length_a 26.567077
_cell_length_b 12.513144
_cell_length_c 18.720765
_cell_angle_alpha 90.000000
_cell_angle_beta 90.000000
_cell_angle_gamma 90.000000
_cell_volume 6223.487313
_symmetry_space_group_name_H-M "I B A M"
_symmetry_group_IT_number 72
_symmetry_cell_setting 'orthorhombic'
loop_
_space_group_symop_operation_xyz
x,y,z
-x,-y,z
x,-y,1/2-z
-x,y,1/2-z
-x,-y,-z
x,y,-z
-x,y,1/2+z
x,-y,1/2+z
1/2+x,1/2+y,1/2+z
1/2-x,1/2-y,1/2+z
1/2+x,1/2-y,-z
1/2-x,1/2+y,-z
1/2-x,1/2-y,1/2-z
1/2+x,1/2+y,1/2-z
1/2-x,1/2+y,z
1/2+x,1/2-y,z
loop_
_atom_site_type_symbol
_atom_site_label
_atom_site_fract_x
_atom_site_fract_y
_atom_site_fract_z
Si Si1 0.329213 0.368396 0.084641
Si Si2 0.718878 0.181141 0.916223
Si Si3 0.360947 0.444523 0.680944
Si Si4 0.056854 0.487978 0.163321
Si Si5 0.119437 0.292462 0.831822
Si Si6 0.753235 0.153122 0.690984
Si Si7 0.856817 0.347005 0.830548
O O1 0.269218 0.386418 0.098687
O O2 0.357223 0.467555 0.119777
O O3 0.346448 0.257354 0.121152
O O4 0.335605 0.361151 0.000000
O O5 0.669351 0.161501 0.870235
O O6 0.736167 0.296902 0.887277
O O7 0.708248 0.178855 0.000000
O O8 0.385457 0.500000 0.750000
O O9 0.385025 0.333578 0.655012
O O10 0.304243 0.409956 0.705721
O O11 0.055960 0.500000 0.250000
O O12 0.074751 0.368937 0.145298
O O13 0.100345 0.572658 0.140969
O O14 0.000000 0.500000 0.136947
O O15 0.125907 0.305356 0.746882
O O16 0.750000 0.250000 0.750000
O O17 0.698303 0.100732 0.684920
#
# Coordination Sequence:
#
# PCOD9525061 Si02
#       7
#    16  16  16  16  16  16  16
#     4  10  21  34  50  79 116 154 184 220 276 339
#     4   9  18  31  45  71 111 147 185 222 262 323
#     4  11  19  28  50  78 115 146 182 221 263 333
#     4   9  20  36  59  87 109 139 185 249 298 335
#     4  10  19  33  54  79 106 143 188 230 283 327
#     4  10  17  29  47  76 106 147 186 219 261 327
#     4  10  18  34  55  79 108 145 189 231 277 334
#
# _framework density 17.996341000000001
#
# number of rings (size 3 to 8) (size 9 to 14) (size 15 to 20)
#    0.000    2.143    4.286    0.857    2.000    2.857 
#    0.000    0.714    0.000    2.571    0.000    1.000 
#    0.000    0.000    0.000    0.000    0.000    0.000 
#
# Total GULP energy -311858.828662 kJ/mol
# GULP energy per Si atom -5568.907655 kJ/mol
# Density = 1.795538 g / cm^3
# Si number density = 17.996341 Si / 1000 Ang^3
#
#
#
# Elastic Constant Matrix: (Units=GPa)
#
#
# Indices 1 2 3 4 5 6 
#
# 1 99.7308 54.7889 14.3217 0.0000 0.0000 0.0000
# 2 54.7889 112.7528 31.5592 0.0000 0.0000 0.0000
# 3 14.3217 31.5592 67.3916 0.0000 0.0000 0.0000
# 4 0.0000 0.0000 0.0000 12.3462 0.0000 0.0000
# 5 0.0000 0.0000 0.0000 0.0000 6.4085 0.0000
# 6 0.0000 0.0000 0.0000 0.0000 0.0000 23.5325
#
#
#
# Elastic Compliance Matrix: (Units=1/GPa)
#
#
# Indices 1 2 3 4 5 6 
#
# 1 0.013682 -0.006715 0.000237 0.000000 0.000000 0.000000
# 2 -0.006715 0.013502 -0.004896 0.000000 0.000000 0.000000
# 3 0.000237 -0.004896 0.017081 0.000000 0.000000 0.000000
# 4 0.000000 0.000000 0.000000 0.080996 0.000000 0.000000
# 5 0.000000 0.000000 0.000000 0.000000 0.156044 0.000000
# 6 0.000000 0.000000 0.000000 0.000000 0.000000 0.042494
#
#
# Mechanical properties :
#
#
# Convention : Reuss Voigt Hill
#
# Bulk Modulus (GPa) = 46.47395 53.46832 49.97113
# Shear Modulus (GPa) = 14.13549 20.40447 17.26998
#
# Velocity S-wave (km/s) = 2.80566 3.37087 3.10116
# Velocity P-wave (km/s) = 6.03123 6.70265 6.37578
#
# Compressibility (1/GPa) = 0.02151743
#
# Stress axis : x y z
#
# Youngs Moduli (GPa) = 73.09019 74.06281 58.54422
#
# Poissons Ratio (x) = 0.49730 -0.01386
# Poissons Ratio (y) = 0.49076 0.28663
# Poissons Ratio (z) = -0.01731 0.36261
#
# Static dielectric constant tensor:
#      x y z
#    x 1.642020 0.000000 0.000000 
#    y 0.000000 1.671230 0.000000 
#    z 0.000000 0.000000 1.618670 
# 
# From -- ./inp_files/40871.got.cif
#   From: 2010.05.17/outbox.cif.g08.bks.cpg/sg72_21_cif.got.tgz:40871.got - 2010.06.03 17:03:01.
