data_PCOD9525402
_publ_section_title
;
Structure prediction by ZEFSAII (Michael W. Deem and Ramdas Pophale) SiO2 
 PCOD9525402
Probable space group: I B A M
;
_chemical_formula_sum "Si O2"
_cell_formula_units_Z 96
_cell_length_a 23.633312
_cell_length_b 11.689599
_cell_length_c 20.250367
_cell_angle_alpha 90.000000
_cell_angle_beta 90.000000
_cell_angle_gamma 90.000000
_cell_volume 5594.446180
_symmetry_space_group_name_H-M "I B A M"
_symmetry_group_IT_number 72
_symmetry_cell_setting 'orthorhombic'
loop_
_space_group_symop_operation_xyz
x,y,z
-x,-y,z
x,-y,1/2-z
-x,y,1/2-z
-x,-y,-z
x,y,-z
-x,y,1/2+z
x,-y,1/2+z
1/2+x,1/2+y,1/2+z
1/2-x,1/2-y,1/2+z
1/2+x,1/2-y,-z
1/2-x,1/2+y,-z
1/2-x,1/2-y,1/2-z
1/2+x,1/2+y,1/2-z
1/2-x,1/2+y,z
1/2+x,1/2-y,z
loop_
_atom_site_type_symbol
_atom_site_label
_atom_site_fract_x
_atom_site_fract_y
_atom_site_fract_z
Si Si1 0.271296 0.761634 0.652983
Si Si2 0.080998 0.785179 0.702427
Si Si3 0.677411 0.128470 0.777652
Si Si4 0.639697 0.355009 0.577131
Si Si5 0.817099 0.953203 0.824547
Si Si6 0.528204 0.628520 0.158793
O O1 0.307337 0.780251 0.719864
O O2 0.224798 0.660830 0.667123
O O3 0.317215 0.747991 0.595464
O O4 0.234172 0.876078 0.650121
O O5 0.113722 0.664873 0.704116
O O6 0.127863 0.873502 0.677814
O O7 0.060151 0.836799 0.772961
O O8 0.025977 0.788818 0.656675
O O9 0.680359 0.000000 0.750000
O O10 0.641060 0.379395 0.500000
O O11 0.668014 0.449582 0.624004
O O12 0.575003 0.350817 0.602775
O O13 0.807716 0.000000 0.750000
O O14 0.500000 0.500000 0.160300
#
# Coordination Sequence:
#
# PCOD9525402 Si02
#       6
#    16  16  16  16  16  16
#     4  10  20  33  52  78 116 144 175 225 284 327
#     4  10  18  31  57  83 110 139 177 233 290 320
#     4  10  18  32  56  86 110 139 183 232 277 332
#     4  12  24  36  53  83 116 148 187 225 279 346
#     4  11  18  35  59  83 108 145 187 230 276 332
#     4  11  19  34  56  79 109 145 181 232 285 327
#
# _framework density 17.159876000000001
#
# number of rings (size 3 to 8) (size 9 to 14) (size 15 to 20)
#    0.000    1.333    5.000    4.500    0.000    1.000 
#    0.000    1.667    0.000    0.000    0.000    1.167 
#    0.000    0.000    0.000    0.000    0.000    0.000 
#
# Total GULP energy -267344.223794 kJ/mol
# GULP energy per Si atom -5569.671329 kJ/mol
# Density = 1.712082 g / cm^3
# Si number density = 17.159876 Si / 1000 Ang^3
#
#
#
# Elastic Constant Matrix: (Units=GPa)
#
#
# Indices 1 2 3 4 5 6 
#
# 1 146.6945 46.3185 43.2531 0.0000 0.0000 0.0000
# 2 46.3185 70.1953 18.6846 0.0000 0.0000 0.0000
# 3 43.2531 18.6846 89.5186 0.0000 0.0000 0.0000
# 4 0.0000 0.0000 0.0000 11.2939 0.0000 0.0000
# 5 0.0000 0.0000 0.0000 0.0000 17.6785 0.0000
# 6 0.0000 0.0000 0.0000 0.0000 0.0000 26.8134
#
#
#
# Elastic Compliance Matrix: (Units=1/GPa)
#
#
# Indices 1 2 3 4 5 6 
#
# 1 0.009540 -0.005366 -0.003490 0.000000 0.000000 0.000000
# 2 -0.005366 0.018102 -0.001186 0.000000 0.000000 0.000000
# 3 -0.003490 -0.001186 0.013104 0.000000 0.000000 0.000000
# 4 0.000000 0.000000 0.000000 0.088544 0.000000 0.000000
# 5 0.000000 0.000000 0.000000 0.000000 0.056566 0.000000
# 6 0.000000 0.000000 0.000000 0.000000 0.000000 0.037295
#
#
# Mechanical properties :
#
#
# Convention : Reuss Voigt Hill
#
# Bulk Modulus (GPa) = 48.39253 58.10231 53.24742
# Shear Modulus (GPa) = 19.99025 24.36731 22.17878
#
# Velocity S-wave (km/s) = 3.41683 3.77240 3.59901
# Velocity P-wave (km/s) = 6.62031 7.27376 6.95471
#
# Compressibility (1/GPa) = 0.02066435
#
# Stress axis : x y z
#
# Youngs Moduli (GPa) = 104.82011 55.24112 76.31047
#
# Poissons Ratio (x) = 0.29644 0.26629
# Poissons Ratio (y) = 0.56249 0.09047
# Poissons Ratio (z) = 0.36577 0.06549
#
# Static dielectric constant tensor:
#      x y z
#    x 1.650090 0.000000 0.000000 
#    y 0.000000 1.656200 0.000000 
#    z 0.000000 0.000000 1.565980 
# 
# From -- ./inp_files/40283.got.cif
#   From: 2010.05.17/outbox.cif.g08.bks.cpg/sg72_21_cif.got.tgz:40283.got - 2010.06.03 17:03:01.
