data_PCOD9525524
_publ_section_title
;
Structure prediction by ZEFSAII (Michael W. Deem and Ramdas Pophale) SiO2 
 PCOD9525524
Probable space group: I B A M
;
_chemical_formula_sum "Si O2"
_cell_formula_units_Z 88
_cell_length_a 29.589563
_cell_length_b 14.020562
_cell_length_c 8.799765
_cell_angle_alpha 90.000000
_cell_angle_beta 90.000000
_cell_angle_gamma 90.000000
_cell_volume 3650.690770
_symmetry_space_group_name_H-M "I B A M"
_symmetry_group_IT_number 72
_symmetry_cell_setting 'orthorhombic'
loop_
_space_group_symop_operation_xyz
x,y,z
-x,-y,z
x,-y,1/2-z
-x,y,1/2-z
-x,-y,-z
x,y,-z
-x,y,1/2+z
x,-y,1/2+z
1/2+x,1/2+y,1/2+z
1/2-x,1/2-y,1/2+z
1/2+x,1/2-y,-z
1/2-x,1/2+y,-z
1/2-x,1/2-y,1/2-z
1/2+x,1/2+y,1/2-z
1/2-x,1/2+y,z
1/2+x,1/2-y,z
loop_
_atom_site_type_symbol
_atom_site_label
_atom_site_fract_x
_atom_site_fract_y
_atom_site_fract_z
Si Si1 0.862642 0.352908 0.694004
Si Si2 0.952134 0.367900 0.822793
Si Si3 0.291095 0.037892 0.500000
Si Si4 0.047768 0.864575 0.824097
Si Si5 0.817736 0.664366 0.500000
Si Si6 0.859174 0.872891 0.828483
Si Si7 0.191957 0.119914 0.500000
O O1 0.913288 0.392545 0.697072
O O2 0.823056 0.419581 0.631426
O O3 0.857285 0.242176 0.649585
O O4 0.852018 0.345841 0.866642
O O5 0.950207 0.251421 0.827870
O O6 0.000000 0.393740 0.750000
O O7 0.948054 0.399751 0.000000
O O8 0.240627 0.073453 0.500000
O O9 0.285517 0.924921 0.500000
O O10 0.089205 0.895418 0.716896
O O11 0.000000 0.890847 0.750000
O O12 0.052423 0.896418 0.000000
O O13 0.796488 0.767115 0.500000
O O14 0.832563 0.895967 0.667225
O O15 0.846986 0.912053 0.000000
#
# Coordination Sequence:
#
# PCOD9525524 Si02
#       7
#    16  16   8  16   8  16   8
#     4  10  20  37  56  84 117 154 209 256 307 371
#     4   9  17  28  50  79 111 155 201 253 307 354
#     4  12  24  40  63  92 113 163 214 257 329 381
#     4   9  15  24  43  76 115 158 209 257 304 364
#     4  10  22  42  65  82 121 159 198 271 318 372
#     4  10  18  34  55  81 120 162 206 263 319 368
#     4  10  24  42  62  90 124 158 216 270 315 387
#
# _framework density 24.105025999999999
#
# number of rings (size 3 to 8) (size 9 to 14) (size 15 to 20)
#    0.000    2.182    2.727    1.091    1.273    5.091 
#    1.636    0.000    0.000    3.273    0.000    0.000 
#    0.000    0.000    0.000    1.636    0.364   75.818 
#
# Total GULP energy -245206.647470 kJ/mol
# GULP energy per Si atom -5572.878352 kJ/mol
# Density = 2.405016 g / cm^3
# Si number density = 24.105026 Si / 1000 Ang^3
#
#
#
# Elastic Constant Matrix: (Units=GPa)
#
#
# Indices 1 2 3 4 5 6 
#
# 1 187.5156 26.0825 67.9491 0.0000 0.0000 0.0000
# 2 26.0825 77.3230 26.5318 0.0000 0.0000 0.0000
# 3 67.9491 26.5318 221.1397 0.0000 0.0000 0.0000
# 4 0.0000 0.0000 0.0000 37.2542 0.0000 0.0000
# 5 0.0000 0.0000 0.0000 0.0000 268.1402 0.0000
# 6 0.0000 0.0000 0.0000 0.0000 0.0000 -50.7178
#
#
#
# Elastic Compliance Matrix: (Units=1/GPa)
#
#
# Indices 1 2 3 4 5 6 
#
# 1 0.006161 -0.001490 -0.001714 0.000000 0.000000 0.000000
# 2 -0.001490 0.013848 -0.001204 0.000000 0.000000 0.000000
# 3 -0.001714 -0.001204 0.005193 0.000000 0.000000 0.000000
# 4 0.000000 0.000000 0.000000 0.026843 0.000000 0.000000
# 5 0.000000 0.000000 0.000000 0.000000 0.003729 0.000000
# 6 0.000000 0.000000 0.000000 0.000000 0.000000 -0.019717
#
#
# Mechanical properties :
#
#
# Convention : Reuss Voigt Hill
#
# Bulk Modulus (GPa) = 61.02501 80.78944 70.90723
# Shear Modulus (GPa) = 99.33133 75.29633 87.31383
#
# Velocity S-wave (km/s) = 6.42629 5.59505 6.02502
# Velocity P-wave (km/s) = 8.96851 8.67916 8.82502
#
# Compressibility (1/GPa) = 0.01638672
#
# Stress axis : x y z
#
# Youngs Moduli (GPa) = 162.30084 72.21055 192.55865
#
# Poissons Ratio (x) = 0.10760 0.33013
# Poissons Ratio (y) = 0.24184 0.23177
# Poissons Ratio (z) = 0.27825 0.08692
#
# Static dielectric constant tensor:
#      x y z
#    x 2.068390 0.000000 0.000000 
#    y 0.000000 1.977670 0.000000 
#    z 0.000000 0.000000 1.956560 
# 
# From -- ./inp_files/9090.got.cif
#   From: 2010.05.17/outbox.cif.g08.bks.cpg/sg72_5_cif.got.tgz:9090.got - 2010.06.03 17:03:01.
