data_PCOD9525713
_publ_section_title
;
Structure prediction by ZEFSAII (Michael W. Deem and Ramdas Pophale) SiO2 
 PCOD9525713
Probable space group: I B A M
;
_chemical_formula_sum "Si O2"
_cell_formula_units_Z 128
_cell_length_a 19.578942
_cell_length_b 24.151397
_cell_length_c 16.132258
_cell_angle_alpha 90.000000
_cell_angle_beta 90.000000
_cell_angle_gamma 90.000000
_cell_volume 7628.280177
_symmetry_space_group_name_H-M "I B A M"
_symmetry_group_IT_number 72
_symmetry_cell_setting 'orthorhombic'
loop_
_space_group_symop_operation_xyz
x,y,z
-x,-y,z
x,-y,1/2-z
-x,y,1/2-z
-x,-y,-z
x,y,-z
-x,y,1/2+z
x,-y,1/2+z
1/2+x,1/2+y,1/2+z
1/2-x,1/2-y,1/2+z
1/2+x,1/2-y,-z
1/2-x,1/2+y,-z
1/2-x,1/2-y,1/2-z
1/2+x,1/2+y,1/2-z
1/2-x,1/2+y,z
1/2+x,1/2-y,z
loop_
_atom_site_type_symbol
_atom_site_label
_atom_site_fract_x
_atom_site_fract_y
_atom_site_fract_z
Si Si1 0.217699 0.667047 0.853618
Si Si2 0.001757 0.252527 0.904703
Si Si3 0.491039 0.879580 0.101440
Si Si4 0.347149 0.733288 0.135087
Si Si5 0.851603 0.439438 0.399920
Si Si6 0.369339 0.936240 0.598967
Si Si7 0.764670 0.658906 0.155188
Si Si8 0.135207 0.774824 0.833348
O O1 0.290211 0.688044 0.888614
O O2 0.188028 0.609532 0.884539
O O3 0.226030 0.663045 0.754308
O O4 0.163787 0.716659 0.869729
O O5 0.077758 0.228301 0.901199
O O6 0.006467 0.315666 0.871469
O O7 0.943547 0.219810 0.856056
O O8 0.979355 0.255440 0.000000
O O9 0.421525 0.909397 0.128205
O O10 0.558220 0.912362 0.130328
O O11 0.490759 0.879322 0.000000
O O12 0.314213 0.793631 0.116943
O O13 0.356068 0.729530 0.234486
O O14 0.852368 0.440091 0.500000
O O15 0.851593 0.502618 0.369279
O O16 0.789083 0.400979 0.372740
O O17 0.377443 0.941367 0.500000
O O18 0.687371 0.677799 0.136519
#
# Coordination Sequence:
#
# PCOD9525713 Si02
#       8
#    16  16  16  16  16  16  16  16
#     4   9  18  32  48  66  90 122 159 196 233 274
#     4  11  19  28  47  73  95 123 158 192 229 275
#     4   9  17  29  42  63  95 128 160 188 221 266
#     4   9  18  32  48  66  92 124 154 191 239 281
#     4  10  19  31  47  66  93 129 163 195 231 269
#     4  10  19  31  47  66  93 129 163 195 231 269
#     4   9  18  32  48  66  90 122 159 196 233 274
#     4   9  18  32  48  66  92 124 154 191 239 281
#
# _framework density 16.779667
#
# number of rings (size 3 to 8) (size 9 to 14) (size 15 to 20)
#    0.000    2.500    2.500    2.250    0.000    3.000 
#    0.000    3.125    0.000    1.500    0.000    0.875 
#    0.000    7.000    0.000    0.000    0.000    0.000 
#
# Total GULP energy -356886.246157 kJ/mol
# GULP energy per Si atom -5576.347596 kJ/mol
# Density = 1.674148 g / cm^3
# Si number density = 16.779667 Si / 1000 Ang^3
#
#
#
# Elastic Constant Matrix: (Units=GPa)
#
#
# Indices 1 2 3 4 5 6 
#
# 1 95.2840 50.5863 6.2769 0.0000 0.0000 0.0000
# 2 50.5863 90.9001 3.8873 0.0000 0.0000 0.0000
# 3 6.2769 3.8873 11.4043 0.0000 0.0000 0.0000
# 4 0.0000 0.0000 0.0000 18.3534 0.0000 0.0000
# 5 0.0000 0.0000 0.0000 0.0000 9.4180 0.0000
# 6 0.0000 0.0000 0.0000 0.0000 0.0000 20.6416
#
#
#
# Elastic Compliance Matrix: (Units=1/GPa)
#
#
# Indices 1 2 3 4 5 6 
#
# 1 0.015238 -0.008241 -0.005578 0.000000 0.000000 0.000000
# 2 -0.008241 0.015621 -0.000789 0.000000 0.000000 0.000000
# 3 -0.005578 -0.000789 0.091025 0.000000 0.000000 0.000000
# 4 0.000000 0.000000 0.000000 0.054486 0.000000 0.000000
# 5 0.000000 0.000000 0.000000 0.000000 0.106180 0.000000
# 6 0.000000 0.000000 0.000000 0.000000 0.000000 0.048446
#
#
# Mechanical properties :
#
#
# Convention : Reuss Voigt Hill
#
# Bulk Modulus (GPa) = 10.79116 35.45439 23.12278
# Shear Modulus (GPa) = 12.78445 18.80512 15.79479
#
# Velocity S-wave (km/s) = 2.76325 3.35133 3.07140
# Velocity P-wave (km/s) = 4.07747 6.01253 5.13694
#
# Compressibility (1/GPa) = 0.09266842
#
# Stress axis : x y z
#
# Youngs Moduli (GPa) = 65.62669 64.01576 10.98601
#
# Poissons Ratio (x) = 0.52757 0.06128
# Poissons Ratio (y) = 0.54085 0.00866
# Poissons Ratio (z) = 0.36604 0.05049
#
# Static dielectric constant tensor:
#      x y z
#    x 1.568780 0.000000 0.000000 
#    y 0.000000 1.553020 0.000000 
#    z 0.000000 0.000000 1.605190 
# 
# From -- ./inp_files/32075.got.cif
#   From: 2010.05.17/outbox.cif.g08.bks.cpg/sg72_17_cif.got.tgz:32075.got - 2010.06.03 17:03:01.
