data_PCOD9525052
_publ_section_title
;
Structure prediction by ZEFSAII (Michael W. Deem and Ramdas Pophale) SiO2 
 PCOD9525052
Probable space group: I B A M
;
_chemical_formula_sum "Si O2"
_cell_formula_units_Z 116
_cell_length_a 22.336241
_cell_length_b 27.709060
_cell_length_c 8.968440
_cell_angle_alpha 90.000000
_cell_angle_beta 90.000000
_cell_angle_gamma 90.000000
_cell_volume 5550.713182
_symmetry_space_group_name_H-M "I B A M"
_symmetry_group_IT_number 72
_symmetry_cell_setting 'orthorhombic'
loop_
_space_group_symop_operation_xyz
x,y,z
-x,-y,z
x,-y,1/2-z
-x,y,1/2-z
-x,-y,-z
x,y,-z
-x,y,1/2+z
x,-y,1/2+z
1/2+x,1/2+y,1/2+z
1/2-x,1/2-y,1/2+z
1/2+x,1/2-y,-z
1/2-x,1/2+y,-z
1/2-x,1/2-y,1/2-z
1/2+x,1/2+y,1/2-z
1/2-x,1/2+y,z
1/2+x,1/2-y,z
loop_
_atom_site_type_symbol
_atom_site_label
_atom_site_fract_x
_atom_site_fract_y
_atom_site_fract_z
Si Si1 0.567109 0.953516 0.823218
Si Si2 0.395496 0.573193 0.670995
Si Si3 0.255243 0.156605 0.820856
Si Si4 0.561269 0.863334 0.667489
Si Si5 0.127413 0.821599 0.823260
Si Si6 0.000000 0.000000 0.250000
Si Si7 0.648926 0.775026 0.667827
Si Si8 0.769737 0.950386 0.822844
O O1 0.500000 0.951540 0.750000
O O2 0.593803 0.903535 0.767329
O O3 0.596717 0.000000 0.750000
O O4 0.564399 0.957687 0.000000
O O5 0.373453 0.573860 0.500000
O O6 0.409356 0.629252 0.711551
O O7 0.452334 0.537529 0.677154
O O8 0.339316 0.556685 0.771315
O O9 0.194388 0.166580 0.731490
O O10 0.300523 0.198281 0.766606
O O11 0.265293 0.099449 0.785988
O O12 0.247923 0.159589 0.000000
O O13 0.500000 0.851500 0.750000
O O14 0.550157 0.882495 0.500000
O O15 0.599664 0.816137 0.656273
O O16 0.117315 0.771707 0.737809
O O17 0.124334 0.813422 0.000000
O O18 0.671910 0.764039 0.500000
O O19 0.747688 0.000000 0.750000
O O20 0.768513 0.955927 0.000000
#
# Coordination Sequence:
#
# PCOD9525052 Si02
#       8
#    16  16  16  16  16   4  16  16
#     4  10  17  28  49  75 103 135 175 219 266 317
#     4  10  22  38  58  87 120 160 205 249 301 354
#     4  10  21  37  60  89 117 151 195 245 300 359
#     4  10  21  37  56  79 109 146 190 233 284 345
#     4  10  21  39  61  85 117 154 195 245 299 358
#     4  12  22  36  64  94 130 164 214 260 302 348
#     4  11  23  39  60  86 115 150 193 245 299 357
#     4  10  20  35  58  86 120 159 200 244 300 363
#
# _framework density 20.898216000000001
#
# number of rings (size 3 to 8) (size 9 to 14) (size 15 to 20)
#    0.000    1.793    0.690    5.172    0.000    4.966 
#    1.241    0.690    0.000    1.655    0.000    0.000 
#    0.000    0.000    0.000    0.000    0.000    0.000 
#
# Total GULP energy -323339.121020 kJ/mol
# GULP energy per Si atom -5574.812431 kJ/mol
# Density = 2.085065 g / cm^3
# Si number density = 20.898216 Si / 1000 Ang^3
#
#
#
# Elastic Constant Matrix: (Units=GPa)
#
#
# Indices 1 2 3 4 5 6 
#
# 1 46.8906 15.4105 4.0554 0.0000 0.0000 0.0000
# 2 15.4105 173.3022 56.5174 0.0000 0.0000 0.0000
# 3 4.0554 56.5174 113.9161 0.0000 0.0000 0.0000
# 4 0.0000 0.0000 0.0000 31.5368 0.0000 0.0000
# 5 0.0000 0.0000 0.0000 0.0000 26.6172 0.0000
# 6 0.0000 0.0000 0.0000 0.0000 0.0000 14.2411
#
#
#
# Elastic Compliance Matrix: (Units=1/GPa)
#
#
# Indices 1 2 3 4 5 6 
#
# 1 0.021973 -0.002027 0.000223 0.000000 0.000000 0.000000
# 2 -0.002027 0.007071 -0.003436 0.000000 0.000000 0.000000
# 3 0.000223 -0.003436 0.010475 0.000000 0.000000 0.000000
# 4 0.000000 0.000000 0.000000 0.031709 0.000000 0.000000
# 5 0.000000 0.000000 0.000000 0.000000 0.037570 0.000000
# 6 0.000000 0.000000 0.000000 0.000000 0.000000 0.070219
#
#
# Mechanical properties :
#
#
# Convention : Reuss Voigt Hill
#
# Bulk Modulus (GPa) = 34.43489 54.00838 44.22164
# Shear Modulus (GPa) = 25.10340 31.68740 28.39540
#
# Velocity S-wave (km/s) = 3.46963 3.89816 3.69012
# Velocity P-wave (km/s) = 5.70651 6.79415 6.27395
#
# Compressibility (1/GPa) = 0.02904031
#
# Stress axis : x y z
#
# Youngs Moduli (GPa) = 45.51039 141.42182 95.46390
#
# Poissons Ratio (x) = 0.28662 -0.02132
# Poissons Ratio (y) = 0.09224 0.32802
# Poissons Ratio (z) = -0.01016 0.48593
#
# Static dielectric constant tensor:
#      x y z
#    x 1.757190 0.000000 0.000000 
#    y 0.000000 1.853580 0.000000 
#    z 0.000000 0.000000 1.722310 
# 
# From -- ./inp_files/7365.got.cif
#   From: 2010.05.17/outbox.cif.g08.bks.cpg/sg72_4_cif.got.tgz:7365.got - 2010.06.03 17:03:01.
