data_PCOD9525369
_publ_section_title
;
Structure prediction by ZEFSAII (Michael W. Deem and Ramdas Pophale) SiO2 
 PCOD9525369
Probable space group: I B A M
;
_chemical_formula_sum "Si O2"
_cell_formula_units_Z 80
_cell_length_a 26.878661
_cell_length_b 19.179467
_cell_length_c 8.615398
_cell_angle_alpha 90.000000
_cell_angle_beta 90.000000
_cell_angle_gamma 90.000000
_cell_volume 4441.396120
_symmetry_space_group_name_H-M "I B A M"
_symmetry_group_IT_number 72
_symmetry_cell_setting 'orthorhombic'
loop_
_space_group_symop_operation_xyz
x,y,z
-x,-y,z
x,-y,1/2-z
-x,y,1/2-z
-x,-y,-z
x,y,-z
-x,y,1/2+z
x,-y,1/2+z
1/2+x,1/2+y,1/2+z
1/2-x,1/2-y,1/2+z
1/2+x,1/2-y,-z
1/2-x,1/2+y,-z
1/2-x,1/2-y,1/2-z
1/2+x,1/2+y,1/2-z
1/2-x,1/2+y,z
1/2+x,1/2-y,z
loop_
_atom_site_type_symbol
_atom_site_label
_atom_site_fract_x
_atom_site_fract_y
_atom_site_fract_z
Si Si1 0.053191 0.669989 0.813531
Si Si2 0.147544 0.421265 0.686928
Si Si3 0.446199 0.332500 0.186649
Si Si4 0.854939 0.921239 0.814693
Si Si5 0.751276 0.920676 0.685480
O O1 0.099966 0.623817 0.763519
O O2 0.059669 0.751012 0.768268
O O3 0.000000 0.645394 0.750000
O O4 0.051219 0.667611 0.000000
O O5 0.142377 0.500000 0.750000
O O6 0.150200 0.423336 0.500000
O O7 0.199442 0.390544 0.751595
O O8 0.500000 0.355623 0.250000
O O9 0.401716 0.377005 0.257674
O O10 0.445439 0.337601 0.000000
O O11 0.803005 0.890470 0.748783
O O12 0.859778 0.000000 0.750000
O O13 0.852429 0.923873 0.000000
O O14 0.751464 0.921585 0.500000
O O15 0.751132 0.000000 0.750000
#
# Coordination Sequence:
#
# PCOD9525369 Si02
#       5
#    16  16  16  16  16
#     4   9  20  36  55  75 103 138 174 213 259 308
#     4  10  19  33  52  78 106 137 173 214 257 304
#     4  10  20  37  56  77 103 136 173 213 258 308
#     4  11  21  35  55  80 106 136 170 211 255 304
#     4  10  18  31  51  76 104 137 170 209 256 306
#
# _framework density 18.012353000000001
#
# number of rings (size 3 to 8) (size 9 to 14) (size 15 to 20)
#    0.000    2.000    0.000    7.200    0.000    3.200 
#    0.000    5.000    0.000    0.000    0.000    0.000 
#    0.000    0.000    0.000    0.000    0.000    0.000 
#
# Total GULP energy -223229.498623 kJ/mol
# GULP energy per Si atom -5580.737466 kJ/mol
# Density = 1.797136 g / cm^3
# Si number density = 18.012353 Si / 1000 Ang^3
#
#
#
# Elastic Constant Matrix: (Units=GPa)
#
#
# Indices 1 2 3 4 5 6 
#
# 1 228.8482 74.0900 69.6132 0.0000 0.0000 0.0000
# 2 74.0900 44.0817 28.2821 0.0000 0.0000 0.0000
# 3 69.6132 28.2821 115.8319 0.0000 0.0000 0.0000
# 4 0.0000 0.0000 0.0000 18.4789 0.0000 0.0000
# 5 0.0000 0.0000 0.0000 0.0000 35.5825 0.0000
# 6 0.0000 0.0000 0.0000 0.0000 0.0000 -100.0639
#
#
#
# Elastic Compliance Matrix: (Units=1/GPa)
#
#
# Indices 1 2 3 4 5 6 
#
# 1 0.010067 -0.015461 -0.002275 0.000000 0.000000 0.000000
# 2 -0.015461 0.050642 -0.003074 0.000000 0.000000 0.000000
# 3 -0.002275 -0.003074 0.010751 0.000000 0.000000 0.000000
# 4 0.000000 0.000000 0.000000 0.054116 0.000000 0.000000
# 5 0.000000 0.000000 0.000000 0.000000 0.028104 0.000000
# 6 0.000000 0.000000 0.000000 0.000000 0.000000 -0.009994
#
#
# Mechanical properties :
#
#
# Convention : Reuss Voigt Hill
#
# Bulk Modulus (GPa) = 33.51001 81.41470 57.46235
# Shear Modulus (GPa) = 25.60781 5.25127 15.42954
#
# Velocity S-wave (km/s) = 3.77461 1.70930 2.92996
# Velocity P-wave (km/s) = 6.13524 7.01378 6.58917
#
# Compressibility (1/GPa) = 0.02984183
#
# Stress axis : x y z
#
# Youngs Moduli (GPa) = 99.33213 19.74627 93.01403
#
# Poissons Ratio (x) = 0.30529 0.21163
# Poissons Ratio (y) = 1.53574 0.28588
# Poissons Ratio (z) = 0.22601 0.06069
#
# Static dielectric constant tensor:
#      x y z
#    x 1.641740 0.000000 0.000000 
#    y 0.000000 1.606650 0.000000 
#    z 0.000000 0.000000 1.603980 
# 
# From -- ./inp_files/7929.got.cif
#   From: 2010.05.17/outbox.cif.g08.bks.cpg/sg72_4_cif.got.tgz:7929.got - 2010.06.03 17:03:01.
