data_PCOD9525662
_publ_section_title
;
Structure prediction by ZEFSAII (Michael W. Deem and Ramdas Pophale) SiO2 
 PCOD9525662
Probable space group: I B A M
;
_chemical_formula_sum "Si O2"
_cell_formula_units_Z 96
_cell_length_a 23.050552
_cell_length_b 9.574716
_cell_length_c 23.195609
_cell_angle_alpha 90.000000
_cell_angle_beta 90.000000
_cell_angle_gamma 90.000000
_cell_volume 5119.328641
_symmetry_space_group_name_H-M "I B A M"
_symmetry_group_IT_number 72
_symmetry_cell_setting 'orthorhombic'
loop_
_space_group_symop_operation_xyz
x,y,z
-x,-y,z
x,-y,1/2-z
-x,y,1/2-z
-x,-y,-z
x,y,-z
-x,y,1/2+z
x,-y,1/2+z
1/2+x,1/2+y,1/2+z
1/2-x,1/2-y,1/2+z
1/2+x,1/2-y,-z
1/2-x,1/2+y,-z
1/2-x,1/2-y,1/2-z
1/2+x,1/2+y,1/2-z
1/2-x,1/2+y,z
1/2+x,1/2-y,z
loop_
_atom_site_type_symbol
_atom_site_label
_atom_site_fract_x
_atom_site_fract_y
_atom_site_fract_z
Si Si1 0.629340 0.817347 0.125567
Si Si2 0.147695 0.893192 0.436286
Si Si3 0.809612 0.335785 0.247648
Si Si4 0.147863 0.360282 0.127726
Si Si5 0.273558 0.372458 0.069508
Si Si6 0.546437 0.385370 0.434387
O O1 0.652380 0.799775 0.191281
O O2 0.681150 0.748197 0.087696
O O3 0.570063 0.738829 0.106444
O O4 0.625027 0.984262 0.117627
O O5 0.164259 0.843715 0.500000
O O6 0.117126 0.767046 0.403944
O O7 0.202435 0.975417 0.409647
O O8 0.103031 0.018847 0.441111
O O9 0.793970 0.500000 0.250000
O O10 0.750000 0.250000 0.250000
O O11 0.846641 0.319609 0.305684
O O12 0.212208 0.351546 0.099792
O O13 0.269640 0.377959 0.000000
O O14 0.500000 0.500000 0.412908
O O15 0.529416 0.338859 0.500000
#
# Coordination Sequence:
#
# PCOD9525662 Si02
#       6
#    16  16  16  16  16  16
#     4  10  20  34  51  75 105 143 182 222 272 324
#     4   9  19  32  49  76 104 135 176 220 272 327
#     4  10  21  33  49  74 107 146 184 217 258 319
#     4  11  20  30  48  75 110 143 177 218 266 321
#     4  10  19  30  46  71 107 148 182 213 258 325
#     4   9  19  38  60  78 100 134 180 234 287 337
#
# _framework density 18.752459999999999
#
# number of rings (size 3 to 8) (size 9 to 14) (size 15 to 20)
#    0.000    2.167    1.667    3.000    2.333    4.000 
#    0.000    0.833    0.000    5.000    0.000    3.500 
#    0.000    0.000    0.000    0.000    0.000    0.000 
#
# Total GULP energy -267230.897374 kJ/mol
# GULP energy per Si atom -5567.310362 kJ/mol
# Density = 1.870978 g / cm^3
# Si number density = 18.752460 Si / 1000 Ang^3
#
#
#
# Elastic Constant Matrix: (Units=GPa)
#
#
# Indices 1 2 3 4 5 6 
#
# 1 25.6486 2.1075 3.1996 0.0000 0.0000 0.0000
# 2 2.1075 95.0252 45.8306 0.0000 0.0000 0.0000
# 3 3.1996 45.8306 84.3601 0.0000 0.0000 0.0000
# 4 0.0000 0.0000 0.0000 25.1616 0.0000 0.0000
# 5 0.0000 0.0000 0.0000 0.0000 15.8983 0.0000
# 6 0.0000 0.0000 0.0000 0.0000 0.0000 26.6653
#
#
#
# Elastic Compliance Matrix: (Units=1/GPa)
#
#
# Indices 1 2 3 4 5 6 
#
# 1 0.039177 -0.000206 -0.001374 0.000000 0.000000 0.000000
# 2 -0.000206 0.014261 -0.007740 0.000000 0.000000 0.000000
# 3 -0.001374 -0.007740 0.016111 0.000000 0.000000 0.000000
# 4 0.000000 0.000000 0.000000 0.039743 0.000000 0.000000
# 5 0.000000 0.000000 0.000000 0.000000 0.062900 0.000000
# 6 0.000000 0.000000 0.000000 0.000000 0.000000 0.037502
#
#
# Mechanical properties :
#
#
# Convention : Reuss Voigt Hill
#
# Bulk Modulus (GPa) = 19.64296 34.14549 26.89423
# Shear Modulus (GPa) = 20.38296 23.80479 22.09388
#
# Velocity S-wave (km/s) = 3.30047 3.56676 3.43619
# Velocity P-wave (km/s) = 5.00217 5.93384 5.48781
#
# Compressibility (1/GPa) = 0.05090882
#
# Stress axis : x y z
#
# Youngs Moduli (GPa) = 25.52533 70.12128 62.06990
#
# Poissons Ratio (x) = 0.01446 0.08527
# Poissons Ratio (y) = 0.00526 0.48041
# Poissons Ratio (z) = 0.03507 0.54272
#
# Static dielectric constant tensor:
#      x y z
#    x 1.712510 0.000000 0.000000 
#    y 0.000000 1.748670 0.000000 
#    z 0.000000 0.000000 1.702400 
# 
# From -- ./inp_files/42568.got.cif
#   From: 2010.05.17/outbox.cif.g08.bks.cpg/sg72_22_cif.got.tgz:42568.got - 2010.06.03 17:03:01.
