data_PCOD9525057
_publ_section_title
;
Structure prediction by ZEFSAII (Michael W. Deem and Ramdas Pophale) SiO2 
 PCOD9525057
Probable space group: I B A M
;
_chemical_formula_sum "Si O2"
_cell_formula_units_Z 84
_cell_length_a 12.450844
_cell_length_b 24.083947
_cell_length_c 18.929188
_cell_angle_alpha 90.000000
_cell_angle_beta 90.000000
_cell_angle_gamma 90.000000
_cell_volume 5676.209800
_symmetry_space_group_name_H-M "I B A M"
_symmetry_group_IT_number 72
_symmetry_cell_setting 'orthorhombic'
loop_
_space_group_symop_operation_xyz
x,y,z
-x,-y,z
x,-y,1/2-z
-x,y,1/2-z
-x,-y,-z
x,y,-z
-x,y,1/2+z
x,-y,1/2+z
1/2+x,1/2+y,1/2+z
1/2-x,1/2-y,1/2+z
1/2+x,1/2-y,-z
1/2-x,1/2+y,-z
1/2-x,1/2-y,1/2-z
1/2+x,1/2+y,1/2-z
1/2-x,1/2+y,z
1/2+x,1/2-y,z
loop_
_atom_site_type_symbol
_atom_site_label
_atom_site_fract_x
_atom_site_fract_y
_atom_site_fract_z
Si Si1 0.500000 0.500000 0.750000
Si Si2 0.532422 0.794934 0.583514
Si Si3 0.399031 0.666502 0.083260
Si Si4 0.812949 0.695419 0.664335
Si Si5 0.729765 0.821516 0.324639
Si Si6 0.560158 0.392419 0.680354
O O1 0.565358 0.457298 0.700768
O O2 0.525798 0.805160 0.500000
O O3 0.551835 0.728536 0.593665
O O4 0.423615 0.811588 0.622939
O O5 0.634628 0.824640 0.618811
O O6 0.286438 0.666101 0.124818
O O7 0.481727 0.622699 0.116283
O O8 0.382681 0.658586 0.000000
O O9 0.784338 0.760995 0.665836
O O10 0.817576 0.676561 0.745501
O O11 0.824286 0.865970 0.331077
O O12 0.500000 0.366568 0.750000
#
# Coordination Sequence:
#
# PCOD9525057 Si02
#       6
#     4  16  16  16  16  16
#     4   8  20  32  58  68  90 120 166 216 264 288
#     4  10  20  29  41  70 105 137 163 188 229 290
#     4  10  19  29  46  69  99 134 161 191 240 290
#     4  10  17  29  44  68  98 135 164 194 219 293
#     4  10  19  27  49  66  96 129 169 195 238 287
#     4  10  18  35  50  71  93 124 159 211 251 287
#
# _framework density 14.798608
#
# number of rings (size 3 to 8) (size 9 to 14) (size 15 to 20)
#    0.571    1.524    3.810    1.143    0.000    1.524 
#    0.000    0.476    0.000    0.000    0.000   10.667 
#    0.000    7.619    0.000    0.000    0.000    0.000 
#
# Total GULP energy -233947.294279 kJ/mol
# GULP energy per Si atom -5570.173673 kJ/mol
# Density = 1.476493 g / cm^3
# Si number density = 14.798608 Si / 1000 Ang^3
#
#
#
# Elastic Constant Matrix: (Units=GPa)
#
#
# Indices 1 2 3 4 5 6 
#
# 1 112.0437 37.2177 48.3682 0.0000 0.0000 0.0000
# 2 37.2177 58.7527 25.1058 0.0000 0.0000 0.0000
# 3 48.3682 25.1058 76.6684 0.0000 0.0000 0.0000
# 4 0.0000 0.0000 0.0000 17.3273 0.0000 0.0000
# 5 0.0000 0.0000 0.0000 0.0000 24.6083 0.0000
# 6 0.0000 0.0000 0.0000 0.0000 0.0000 10.8230
#
#
#
# Elastic Compliance Matrix: (Units=1/GPa)
#
#
# Indices 1 2 3 4 5 6 
#
# 1 0.013796 -0.005837 -0.006792 0.000000 0.000000 0.000000
# 2 -0.005837 0.022259 -0.003607 0.000000 0.000000 0.000000
# 3 -0.006792 -0.003607 0.018509 0.000000 0.000000 0.000000
# 4 0.000000 0.000000 0.000000 0.057713 0.000000 0.000000
# 5 0.000000 0.000000 0.000000 0.000000 0.040637 0.000000
# 6 0.000000 0.000000 0.000000 0.000000 0.000000 0.092396
#
#
# Mechanical properties :
#
#
# Convention : Reuss Voigt Hill
#
# Bulk Modulus (GPa) = 45.26334 52.09426 48.67880
# Shear Modulus (GPa) = 17.53492 19.66991 18.60242
#
# Velocity S-wave (km/s) = 3.44598 3.64974 3.54932
# Velocity P-wave (km/s) = 6.81804 7.28281 7.05425
#
# Compressibility (1/GPa) = 0.02209293
#
# Stress axis : x y z
#
# Youngs Moduli (GPa) = 72.48417 44.92546 54.02691
#
# Poissons Ratio (x) = 0.26223 0.36697
# Poissons Ratio (y) = 0.42308 0.19485
# Poissons Ratio (z) = 0.49233 0.16203
#
# Static dielectric constant tensor:
#      x y z
#    x 1.475700 0.000000 0.000000 
#    y 0.000000 1.467380 0.000000 
#    z 0.000000 0.000000 1.496590 
# 
# From -- ./inp_files/37207.got.cif
#   From: 2010.05.17/outbox.cif.g08.bks.cpg/sg72_19_cif.got.tgz:37207.got - 2010.06.03 17:03:01.
