data_PCOD9525892
_publ_section_title
;
Structure prediction by ZEFSAII (Michael W. Deem and Ramdas Pophale) SiO2 
 PCOD9525892
Probable space group: I B A M
;
_chemical_formula_sum "Si O2"
_cell_formula_units_Z 88
_cell_length_a 21.095806
_cell_length_b 21.036291
_cell_length_c 9.104161
_cell_angle_alpha 90.000000
_cell_angle_beta 90.000000
_cell_angle_gamma 90.000000
_cell_volume 4040.221935
_symmetry_space_group_name_H-M "I B A M"
_symmetry_group_IT_number 72
_symmetry_cell_setting 'orthorhombic'
loop_
_space_group_symop_operation_xyz
x,y,z
-x,-y,z
x,-y,1/2-z
-x,y,1/2-z
-x,-y,-z
x,y,-z
-x,y,1/2+z
x,-y,1/2+z
1/2+x,1/2+y,1/2+z
1/2-x,1/2-y,1/2+z
1/2+x,1/2-y,-z
1/2-x,1/2+y,-z
1/2-x,1/2-y,1/2-z
1/2+x,1/2+y,1/2-z
1/2-x,1/2+y,z
1/2+x,1/2-y,z
loop_
_atom_site_type_symbol
_atom_site_label
_atom_site_fract_x
_atom_site_fract_y
_atom_site_fract_z
Si Si1 0.901123 0.562819 0.164981
Si Si2 0.889582 0.244911 0.168189
Si Si3 0.298012 0.435345 0.172683
Si Si4 0.936334 0.889255 0.673292
Si Si5 0.202142 0.351327 0.677449
Si Si6 0.000000 0.661765 0.750000
O O1 0.921883 0.500000 0.250000
O O2 0.846620 0.595719 0.261737
O O3 0.957262 0.614059 0.156244
O O4 0.879193 0.547945 0.000000
O O5 0.915056 0.179867 0.236711
O O6 0.829460 0.284483 0.227992
O O7 0.948937 0.293405 0.170748
O O8 0.872699 0.229058 0.000000
O O9 0.275154 0.500000 0.250000
O O10 0.373808 0.431357 0.187997
O O11 0.267415 0.373653 0.249983
O O12 0.282556 0.435243 0.000000
O O13 0.950244 0.882141 0.500000
O O14 0.000000 0.912071 0.750000
O O15 0.204955 0.351959 0.500000
#
# Coordination Sequence:
#
# PCOD9525892 Si02
#       6
#    16  16  16  16  16   8
#     4  11  22  34  51  78 114 157 202 248 295 347
#     4   9  18  35  58  86 120 154 192 240 295 352
#     4  11  24  42  64  89 121 158 201 251 303 360
#     4  10  22  41  65  93 123 157 197 246 301 360
#     4  10  21  38  61  87 119 157 197 244 296 356
#     4  10  19  32  54  78 113 152 198 242 292 350
#
# _framework density 21.780982999999999
#
# number of rings (size 3 to 8) (size 9 to 14) (size 15 to 20)
#    0.000    1.818    0.909    3.000    0.000    5.455 
#    0.000    2.727    0.000    0.000    0.000    0.000 
#    0.000    0.000    0.000    0.000    0.000    0.000 
#
# Total GULP energy -245597.541205 kJ/mol
# GULP energy per Si atom -5581.762300 kJ/mol
# Density = 2.173141 g / cm^3
# Si number density = 21.780983 Si / 1000 Ang^3
#
#
#
# Elastic Constant Matrix: (Units=GPa)
#
#
# Indices 1 2 3 4 5 6 
#
# 1 92.5174 -8.4391 29.5542 0.0000 0.0000 0.0000
# 2 -8.4391 46.5640 17.5346 0.0000 0.0000 0.0000
# 3 29.5542 17.5346 89.6982 0.0000 0.0000 0.0000
# 4 0.0000 0.0000 0.0000 15.1185 0.0000 0.0000
# 5 0.0000 0.0000 0.0000 0.0000 18.5397 0.0000
# 6 0.0000 0.0000 0.0000 0.0000 0.0000 17.0506
#
#
#
# Elastic Compliance Matrix: (Units=1/GPa)
#
#
# Indices 1 2 3 4 5 6 
#
# 1 0.012805 0.004220 -0.005044 0.000000 0.000000 0.000000
# 2 0.004220 0.024573 -0.006194 0.000000 0.000000 0.000000
# 3 -0.005044 -0.006194 0.014021 0.000000 0.000000 0.000000
# 4 0.000000 0.000000 0.000000 0.066144 0.000000 0.000000
# 5 0.000000 0.000000 0.000000 0.000000 0.053938 0.000000
# 6 0.000000 0.000000 0.000000 0.000000 0.000000 0.058649
#
#
# Mechanical properties :
#
#
# Convention : Reuss Voigt Hill
#
# Bulk Modulus (GPa) = 26.76411 34.00877 30.38644
# Shear Modulus (GPa) = 19.48395 22.81708 21.15051
#
# Velocity S-wave (km/s) = 2.99413 3.24013 3.11955
# Velocity P-wave (km/s) = 4.92622 5.44479 5.19198
#
# Compressibility (1/GPa) = 0.03736346
#
# Stress axis : x y z
#
# Youngs Moduli (GPa) = 78.09439 40.69472 71.32017
#
# Poissons Ratio (x) = -0.17174 0.35974
# Poissons Ratio (y) = -0.32957 0.44177
# Poissons Ratio (z) = 0.39391 0.25207
#
# Static dielectric constant tensor:
#      x y z
#    x 1.829080 0.000000 0.000000 
#    y 0.000000 1.814970 0.000000 
#    z 0.000000 0.000000 1.735230 
# 
# From -- ./inp_files/5795.got.cif
#   From: 2010.05.17/outbox.cif.g08.bks.cpg/sg72_3_cif.got.tgz:5795.got - 2010.06.03 17:03:01.
