data_PCOD9525356
_publ_section_title
;
Structure prediction by ZEFSAII (Michael W. Deem and Ramdas Pophale) SiO2 
 PCOD9525356
Probable space group: I B A M
;
_chemical_formula_sum "Si O2"
_cell_formula_units_Z 80
_cell_length_a 8.342246
_cell_length_b 27.028996
_cell_length_c 15.026603
_cell_angle_alpha 90.000000
_cell_angle_beta 90.000000
_cell_angle_gamma 90.000000
_cell_volume 3388.236518
_symmetry_space_group_name_H-M "I B A M"
_symmetry_group_IT_number 72
_symmetry_cell_setting 'orthorhombic'
loop_
_space_group_symop_operation_xyz
x,y,z
-x,-y,z
x,-y,1/2-z
-x,y,1/2-z
-x,-y,-z
x,y,-z
-x,y,1/2+z
x,-y,1/2+z
1/2+x,1/2+y,1/2+z
1/2-x,1/2-y,1/2+z
1/2+x,1/2-y,-z
1/2-x,1/2+y,-z
1/2-x,1/2-y,1/2-z
1/2+x,1/2+y,1/2-z
1/2-x,1/2+y,z
1/2+x,1/2-y,z
loop_
_atom_site_type_symbol
_atom_site_label
_atom_site_fract_x
_atom_site_fract_y
_atom_site_fract_z
Si Si1 0.728419 0.013662 0.500000
Si Si2 0.899374 0.405772 0.103040
Si Si3 0.423786 0.640798 0.154749
Si Si4 0.059621 0.923348 0.000000
Si Si5 0.426088 0.734094 0.605543
Si Si6 0.380642 0.174903 0.391460
O O1 0.631754 0.036056 0.584606
O O2 0.900236 0.042078 0.500000
O O3 0.780362 0.956725 0.500000
O O4 0.749214 0.384035 0.154370
O O5 0.063462 0.380365 0.134359
O O6 0.878027 0.387125 0.000000
O O7 0.500000 0.636811 0.250000
O O8 0.423712 0.697558 0.122882
O O9 0.536624 0.611369 0.084957
O O10 0.402821 0.738639 0.500000
O O11 0.474339 0.788442 0.636173
O O12 0.277389 0.702719 0.643696
O O13 0.362056 0.174976 0.500000
#
# Coordination Sequence:
#
# PCOD9525356 Si02
#       6
#     8  16  16   8  16  16
#     4   7  14  28  56  71 104 133 172 223 280 321
#     4   8  15  32  52  73 102 140 174 224 268 324
#     4  11  20  32  52  77 108 145 185 224 277 329
#     4   9  16  34  50  77 106 139 170 237 276 323
#     4  10  18  31  49  77 108 144 184 227 263 326
#     4   9  17  29  54  77 104 144 187 219 277 320
#
# _framework density 23.611103
#
# number of rings (size 3 to 8) (size 9 to 14) (size 15 to 20)
#    0.600    2.200    2.000    1.200    0.000    3.200 
#    0.000   13.000    0.000    2.400    0.000    0.000 
#    0.000   12.800    0.000    0.000    0.000    0.200 
#
# Total GULP energy -223011.835822 kJ/mol
# GULP energy per Si atom -5575.295896 kJ/mol
# Density = 2.355736 g / cm^3
# Si number density = 23.611103 Si / 1000 Ang^3
#
#
#
# Elastic Constant Matrix: (Units=GPa)
#
#
# Indices 1 2 3 4 5 6 
#
# 1 92.6964 29.7552 0.3519 0.0000 0.0000 0.0000
# 2 29.7552 111.7752 9.1681 0.0000 0.0000 0.0000
# 3 0.3519 9.1681 61.5342 0.0000 -0.0001 0.0000
# 4 0.0000 0.0000 0.0000 -16.1461 0.0000 0.0000
# 5 0.0000 0.0000 -0.0001 0.0000 -4.9227 0.0000
# 6 0.0000 0.0000 0.0000 0.0000 0.0000 32.5407
#
#
#
# Elastic Compliance Matrix: (Units=1/GPa)
#
#
# Indices 1 2 3 4 5 6 
#
# 1 0.011806 -0.003176 0.000406 0.000000 0.000000 0.000000
# 2 -0.003176 0.009912 -0.001459 0.000000 0.000000 0.000000
# 3 0.000406 -0.001459 0.016466 0.000000 0.000000 0.000000
# 4 0.000000 0.000000 0.000000 -0.061934 0.000000 0.000000
# 5 0.000000 0.000000 0.000000 0.000000 -0.203140 0.000000
# 6 0.000000 0.000000 0.000000 0.000000 0.000000 0.030731
#
#
# Mechanical properties :
#
#
# Convention : Reuss Voigt Hill
#
# Bulk Modulus (GPa) = 33.64088 38.28401 35.96245
# Shear Modulus (GPa) = -28.12245 17.40975 -5.35635
#
# Velocity S-wave (km/s) = -3.45493 2.71837 -1.50781
# Velocity P-wave (km/s) = 1.27928 5.10905 3.49756
#
# Compressibility (1/GPa) = 0.02972573
#
# Stress axis : x y z
#
# Youngs Moduli (GPa) = 84.70367 100.89141 60.73069
#
# Poissons Ratio (x) = 0.32044 -0.02464
# Poissons Ratio (y) = 0.26902 0.08858
# Poissons Ratio (z) = -0.03436 0.14716
#
# Static dielectric constant tensor:
#      x y z
#    x 1.999900 0.000000 0.000000 
#    y 0.000000 1.906340 0.000000 
#    z 0.000000 0.000000 1.847970 
# 
# From -- ./inp_files/28334.got.cif
#   From: 2010.05.17/outbox.cif.g08.bks.cpg/sg72_15_cif.got.tgz:28334.got - 2010.06.03 17:03:01.
