data_PCOD9525511
_publ_section_title
;
Structure prediction by ZEFSAII (Michael W. Deem and Ramdas Pophale) SiO2 
 PCOD9525511
Probable space group: I B A M
;
_chemical_formula_sum "Si O2"
_cell_formula_units_Z 64
_cell_length_a 32.423314
_cell_length_b 9.158596
_cell_length_c 10.642357
_cell_angle_alpha 90.000000
_cell_angle_beta 90.000000
_cell_angle_gamma 90.000000
_cell_volume 3160.269557
_symmetry_space_group_name_H-M "I B A M"
_symmetry_group_IT_number 72
_symmetry_cell_setting 'orthorhombic'
loop_
_space_group_symop_operation_xyz
x,y,z
-x,-y,z
x,-y,1/2-z
-x,y,1/2-z
-x,-y,-z
x,y,-z
-x,y,1/2+z
x,-y,1/2+z
1/2+x,1/2+y,1/2+z
1/2-x,1/2-y,1/2+z
1/2+x,1/2-y,-z
1/2-x,1/2+y,-z
1/2-x,1/2-y,1/2-z
1/2+x,1/2+y,1/2-z
1/2-x,1/2+y,z
1/2+x,1/2-y,z
loop_
_atom_site_type_symbol
_atom_site_label
_atom_site_fract_x
_atom_site_fract_y
_atom_site_fract_z
Si Si1 0.696003 0.292000 0.000000
Si Si2 0.928389 0.879567 0.644217
Si Si3 0.661099 0.674744 0.767487
Si Si4 0.955121 0.573729 0.366719
Si Si5 0.783604 0.857200 0.500000
O O1 0.670987 0.264501 0.870700
O O2 0.736445 0.191678 0.000000
O O3 0.709358 0.465720 0.000000
O O4 0.926330 0.936717 0.500000
O O5 0.884703 0.803375 0.678616
O O6 0.960148 0.746486 0.648901
O O7 0.936386 0.000000 0.750000
O O8 0.662874 0.500000 0.750000
O O9 0.694289 0.707341 0.875559
O O10 0.933019 0.500000 0.250000
O O11 0.933766 0.549082 0.500000
O O12 0.000000 0.500000 0.373321
#
# Coordination Sequence:
#
# PCOD9525511 Si02
#       5
#     8  16  16  16   8
#     4  10  20  32  52  74 105 145 185 229 286 334
#     4  10  20  35  59  88 112 145 195 243 283 338
#     4   9  18  32  52  76 106 141 184 235 281 329
#     4   9  19  38  60  83 116 152 182 221 283 346
#     4  10  18  34  50  74 105 143 181 231 280 336
#
# _framework density 20.251436999999999
#
# number of rings (size 3 to 8) (size 9 to 14) (size 15 to 20)
#    0.000    2.500    1.250    0.750    5.250    1.000 
#    0.000    5.000    0.000   13.500    0.000    0.000 
#    0.000    0.000    0.000    0.000    0.000    0.000 
#
# Total GULP energy -178227.335752 kJ/mol
# GULP energy per Si atom -5569.604242 kJ/mol
# Density = 2.020534 g / cm^3
# Si number density = 20.251437 Si / 1000 Ang^3
#
#
#
# Elastic Constant Matrix: (Units=GPa)
#
#
# Indices 1 2 3 4 5 6 
#
# 1 50.2841 23.3207 26.8291 0.0000 0.0000 0.0000
# 2 23.3207 50.4059 54.1474 0.0000 0.0000 0.0000
# 3 26.8291 54.1474 207.3271 0.0000 0.0000 0.0000
# 4 0.0000 0.0000 0.0000 22.5152 0.0000 0.0000
# 5 0.0000 0.0000 0.0000 0.0000 -45.2161 0.0000
# 6 0.0000 0.0000 0.0000 0.0000 0.0000 27.0979
#
#
#
# Elastic Compliance Matrix: (Units=1/GPa)
#
#
# Indices 1 2 3 4 5 6 
#
# 1 0.025333 -0.011396 -0.000302 0.000000 0.000000 0.000000
# 2 -0.011396 0.032702 -0.007066 0.000000 0.000000 0.000000
# 3 -0.000302 -0.007066 0.006708 0.000000 0.000000 0.000000
# 4 0.000000 0.000000 0.000000 0.044414 0.000000 0.000000
# 5 0.000000 0.000000 0.000000 0.000000 -0.022116 0.000000
# 6 0.000000 0.000000 0.000000 0.000000 0.000000 0.036903
#
#
# Mechanical properties :
#
#
# Convention : Reuss Voigt Hill
#
# Bulk Modulus (GPa) = 36.74489 57.40129 47.07309
# Shear Modulus (GPa) = 29.31775 14.46074 21.88924
#
# Velocity S-wave (km/s) = 3.80898 2.67509 3.29123
# Velocity P-wave (km/s) = 6.12602 6.16014 6.14310
#
# Compressibility (1/GPa) = 0.02721467
#
# Stress axis : x y z
#
# Youngs Moduli (GPa) = 39.47346 30.57910 149.08061
#
# Poissons Ratio (x) = 0.34849 0.04500
# Poissons Ratio (y) = 0.44986 1.05340
# Poissons Ratio (z) = 0.01192 0.21607
#
# Static dielectric constant tensor:
#      x y z
#    x 1.764060 0.000000 0.000000 
#    y 0.000000 1.727500 0.000000 
#    z 0.000000 0.000000 1.665200 
# 
# From -- ./inp_files/16616.got.cif
#   From: 2010.05.17/outbox.cif.g08.bks.cpg/sg72_9_cif.got.tgz:16616.got - 2010.06.03 17:03:01.
