data_PCOD9525220
_publ_section_title
;
Structure prediction by ZEFSAII (Michael W. Deem and Ramdas Pophale) SiO2 
 PCOD9525220
Probable space group: I B A M
;
_chemical_formula_sum "Si O2"
_cell_formula_units_Z 80
_cell_length_a 24.033756
_cell_length_b 24.910621
_cell_length_c 8.811407
_cell_angle_alpha 90.000000
_cell_angle_beta 90.000000
_cell_angle_gamma 90.000000
_cell_volume 5275.352248
_symmetry_space_group_name_H-M "I B A M"
_symmetry_group_IT_number 72
_symmetry_cell_setting 'orthorhombic'
loop_
_space_group_symop_operation_xyz
x,y,z
-x,-y,z
x,-y,1/2-z
-x,y,1/2-z
-x,-y,-z
x,y,-z
-x,y,1/2+z
x,-y,1/2+z
1/2+x,1/2+y,1/2+z
1/2-x,1/2-y,1/2+z
1/2+x,1/2-y,-z
1/2-x,1/2+y,-z
1/2-x,1/2-y,1/2-z
1/2+x,1/2+y,1/2-z
1/2-x,1/2+y,z
1/2+x,1/2-y,z
loop_
_atom_site_type_symbol
_atom_site_label
_atom_site_fract_x
_atom_site_fract_y
_atom_site_fract_z
Si Si1 0.661709 0.733277 0.319214
Si Si2 0.762416 0.944231 0.182337
Si Si3 0.224127 0.671157 0.818218
Si Si4 0.440062 0.669155 0.681392
Si Si5 0.886524 0.055964 0.817706
O O1 0.655376 0.732099 0.500000
O O2 0.715333 0.696306 0.279092
O O3 0.678388 0.792532 0.263355
O O4 0.607474 0.708760 0.242223
O O5 0.726823 0.891557 0.221014
O O6 0.824409 0.937104 0.250420
O O7 0.740479 0.000000 0.250000
O O8 0.766921 0.947698 0.000000
O O9 0.217478 0.676428 0.000000
O O10 0.500000 0.681499 0.750000
O O11 0.442033 0.672035 0.500000
O O12 0.421986 0.608290 0.723774
O O13 0.908639 0.000000 0.750000
O O14 0.883121 0.052020 0.000000
#
# Coordination Sequence:
#
# PCOD9525220 Si02
#       5
#    16  16  16  16  16
#     4  10  19  32  50  70  93 121 157 197 238 284
#     4  10  18  29  46  69  97 126 156 193 234 280
#     4   9  18  31  48  70  96 124 154 192 236 285
#     4  11  23  36  50  67  91 123 161 203 244 285
#     4  10  20  32  47  65  88 121 160 202 241 280
#
# _framework density 15.164864
#
# number of rings (size 3 to 8) (size 9 to 14) (size 15 to 20)
#    0.000    2.000    2.000    3.600    0.000    5.200 
#    0.000    2.000    0.000    0.000    0.000    0.000 
#    0.000    0.800    0.000    8.400    0.000    4.600 
#
# Total GULP energy -223206.035747 kJ/mol
# GULP energy per Si atom -5580.150894 kJ/mol
# Density = 1.513035 g / cm^3
# Si number density = 15.164864 Si / 1000 Ang^3
#
#
#
# Elastic Constant Matrix: (Units=GPa)
#
#
# Indices 1 2 3 4 5 6 
#
# 1 83.7610 61.8312 38.0344 0.0000 0.0000 0.0000
# 2 61.8312 117.7338 44.5785 0.0000 0.0000 0.0000
# 3 38.0344 44.5785 49.5084 0.0000 0.0000 0.0000
# 4 0.0000 0.0000 0.0000 25.7809 0.0000 0.0000
# 5 0.0000 0.0000 0.0000 0.0000 21.6880 0.0000
# 6 0.0000 0.0000 0.0000 0.0000 0.0000 17.6091
#
#
#
# Elastic Compliance Matrix: (Units=1/GPa)
#
#
# Indices 1 2 3 4 5 6 
#
# 1 0.022354 -0.007947 -0.010018 0.000000 0.000000 0.000000
# 2 -0.007947 0.015712 -0.008043 0.000000 0.000000 0.000000
# 3 -0.010018 -0.008043 0.035137 0.000000 0.000000 0.000000
# 4 0.000000 0.000000 0.000000 0.038788 0.000000 0.000000
# 5 0.000000 0.000000 0.000000 0.000000 0.046109 0.000000
# 6 0.000000 0.000000 0.000000 0.000000 0.000000 0.056789
#
#
# Mechanical properties :
#
#
# Convention : Reuss Voigt Hill
#
# Bulk Modulus (GPa) = 47.19588 59.98790 53.59189
# Shear Modulus (GPa) = 18.25045 20.11954 19.18500
#
# Velocity S-wave (km/s) = 3.47287 3.64637 3.56068
# Velocity P-wave (km/s) = 6.87536 7.57437 7.23331
#
# Compressibility (1/GPa) = 0.02118829
#
# Stress axis : x y z
#
# Youngs Moduli (GPa) = 44.73544 63.64370 28.46023
#
# Poissons Ratio (x) = 0.50575 0.28511
# Poissons Ratio (y) = 0.35549 0.22891
# Poissons Ratio (z) = 0.44815 0.51189
#
# Static dielectric constant tensor:
#      x y z
#    x 1.466040 0.000000 0.000000 
#    y 0.000000 1.521980 0.000000 
#    z 0.000000 0.000000 1.506680 
# 
# From -- ./inp_files/4757.got.cif
#   From: 2010.05.17/outbox.cif.g08.bks.cpg/sg72_3_cif.got.tgz:4757.got - 2010.06.03 17:03:01.
