data_PCOD9525163
_publ_section_title
;
Structure prediction by ZEFSAII (Michael W. Deem and Ramdas Pophale) SiO2 
 PCOD9525163
Probable space group: I B A M
;
_chemical_formula_sum "Si O2"
_cell_formula_units_Z 96
_cell_length_a 27.621477
_cell_length_b 23.774686
_cell_length_c 8.479576
_cell_angle_alpha 90.000000
_cell_angle_beta 90.000000
_cell_angle_gamma 90.000000
_cell_volume 5568.469235
_symmetry_space_group_name_H-M "I B A M"
_symmetry_group_IT_number 72
_symmetry_cell_setting 'orthorhombic'
loop_
_space_group_symop_operation_xyz
x,y,z
-x,-y,z
x,-y,1/2-z
-x,y,1/2-z
-x,-y,-z
x,y,-z
-x,y,1/2+z
x,-y,1/2+z
1/2+x,1/2+y,1/2+z
1/2-x,1/2-y,1/2+z
1/2+x,1/2-y,-z
1/2-x,1/2+y,-z
1/2-x,1/2-y,1/2-z
1/2+x,1/2+y,1/2-z
1/2-x,1/2+y,z
1/2+x,1/2-y,z
loop_
_atom_site_type_symbol
_atom_site_label
_atom_site_fract_x
_atom_site_fract_y
_atom_site_fract_z
Si Si1 0.447203 0.936110 0.690586
Si Si2 0.446998 0.563730 0.190471
Si Si3 0.050085 0.247638 0.677766
Si Si4 0.695677 0.247357 0.811665
Si Si5 0.628102 0.846222 0.178586
Si Si6 0.619529 0.338934 0.184098
O O1 0.500000 0.915196 0.750000
O O2 0.447798 0.934164 0.500000
O O3 0.400600 0.900003 0.745949
O O4 0.442905 0.000000 0.750000
O O5 0.441583 0.500000 0.250000
O O6 0.500000 0.583991 0.250000
O O7 0.402014 0.602397 0.247442
O O8 0.447937 0.564725 0.000000
O O9 0.044957 0.224727 0.500000
O O10 0.085616 0.300147 0.669947
O O11 0.074025 0.202246 0.791960
O O12 0.000000 0.265916 0.750000
O O13 0.750000 0.250000 0.750000
O O14 0.670302 0.188315 0.764783
O O15 0.663729 0.300921 0.748962
O O16 0.695213 0.250956 0.000000
O O17 0.644540 0.859352 0.000000
O O18 0.630205 0.347850 0.000000
#
# Coordination Sequence:
#
# PCOD9525163 Si02
#       6
#    16  16  16  16  16  16
#     4  10  19  31  48  71 102 137 171 204 238 283
#     4  10  19  31  47  69  98 131 164 194 227 270
#     4  10  18  27  42  65  94 125 156 191 233 282
#     4  10  20  35  55  76  97 122 156 201 252 302
#     4   9  19  33  48  69  96 127 162 200 242 288
#     4   9  19  33  48  68  94 124 157 194 237 283
#
# _framework density 17.239927000000002
#
# number of rings (size 3 to 8) (size 9 to 14) (size 15 to 20)
#    0.000    2.333    0.000    4.000    0.000    5.333 
#    0.000    0.000    0.000    1.000    0.000    2.333 
#    0.000    0.000    0.000    0.000    0.000    0.000 
#
# Total GULP energy -267215.849683 kJ/mol
# GULP energy per Si atom -5566.996868 kJ/mol
# Density = 1.720069 g / cm^3
# Si number density = 17.239927 Si / 1000 Ang^3
#
#
#
# Elastic Constant Matrix: (Units=GPa)
#
#
# Indices 1 2 3 4 5 6 
#
# 1 115.2101 53.4939 33.2309 0.0000 0.0000 0.0000
# 2 53.4939 82.6243 8.9274 0.0000 0.0000 0.0000
# 3 33.2309 8.9274 24.5837 0.0000 0.0000 0.0000
# 4 0.0000 0.0000 0.0000 18.7087 0.0000 0.0000
# 5 0.0000 0.0000 0.0000 0.0000 22.4499 0.0000
# 6 0.0000 0.0000 0.0000 0.0000 0.0000 24.5882
#
#
#
# Elastic Compliance Matrix: (Units=1/GPa)
#
#
# Indices 1 2 3 4 5 6 
#
# 1 0.020546 -0.010722 -0.023879 0.000000 0.000000 0.000000
# 2 -0.010722 0.018193 0.007887 0.000000 0.000000 0.000000
# 3 -0.023879 0.007887 0.070092 0.000000 0.000000 0.000000
# 4 0.000000 0.000000 0.000000 0.053451 0.000000 0.000000
# 5 0.000000 0.000000 0.000000 0.000000 0.044544 0.000000
# 6 0.000000 0.000000 0.000000 0.000000 0.000000 0.040670
#
#
# Mechanical properties :
#
#
# Convention : Reuss Voigt Hill
#
# Bulk Modulus (GPa) = 18.05000 45.96917 32.00958
# Shear Modulus (GPa) = 15.65484 21.60043 18.62764
#
# Velocity S-wave (km/s) = 3.01667 3.54352 3.29065
# Velocity P-wave (km/s) = 4.75671 6.59274 5.74850
#
# Compressibility (1/GPa) = 0.05540166
#
# Stress axis : x y z
#
# Youngs Moduli (GPa) = 48.67176 54.96739 14.26705
#
# Poissons Ratio (x) = 0.58936 0.34068
# Poissons Ratio (y) = 0.52186 -0.11252
# Poissons Ratio (z) = 1.16223 -0.43352
#
# Static dielectric constant tensor:
#      x y z
#    x 1.589810 0.000000 0.000000 
#    y 0.000000 1.620300 0.000000 
#    z 0.000000 0.000000 1.620610 
# 
# From -- ./inp_files/8471.got.cif
#   From: 2010.05.17/outbox.cif.g08.bks.cpg/sg72_5_cif.got.tgz:8471.got - 2010.06.03 17:03:01.
