data_PCOD9525425
_publ_section_title
;
Structure prediction by ZEFSAII (Michael W. Deem and Ramdas Pophale) SiO2 
 PCOD9525425
Probable space group: I B A M
;
_chemical_formula_sum "Si O2"
_cell_formula_units_Z 88
_cell_length_a 12.751380
_cell_length_b 27.408162
_cell_length_c 11.248980
_cell_angle_alpha 90.000000
_cell_angle_beta 90.000000
_cell_angle_gamma 90.000000
_cell_volume 3931.427267
_symmetry_space_group_name_H-M "I B A M"
_symmetry_group_IT_number 72
_symmetry_cell_setting 'orthorhombic'
loop_
_space_group_symop_operation_xyz
x,y,z
-x,-y,z
x,-y,1/2-z
-x,y,1/2-z
-x,-y,-z
x,y,-z
-x,y,1/2+z
x,-y,1/2+z
1/2+x,1/2+y,1/2+z
1/2-x,1/2-y,1/2+z
1/2+x,1/2-y,-z
1/2-x,1/2+y,-z
1/2-x,1/2-y,1/2-z
1/2+x,1/2+y,1/2-z
1/2-x,1/2+y,z
1/2+x,1/2-y,z
loop_
_atom_site_type_symbol
_atom_site_label
_atom_site_fract_x
_atom_site_fract_y
_atom_site_fract_z
Si Si1 0.903669 0.317031 0.370952
Si Si2 0.704126 0.935620 0.867490
Si Si3 0.000000 0.592477 0.250000
Si Si4 0.460494 0.289481 0.626134
Si Si5 0.780245 0.318886 0.128728
Si Si6 0.942555 0.947903 0.864274
O O1 0.849360 0.319163 0.500000
O O2 0.965732 0.367880 0.351078
O O3 0.975438 0.268992 0.374213
O O4 0.832283 0.308494 0.255575
O O5 0.601429 0.938885 0.785425
O O6 0.723048 0.877453 0.873004
O O7 0.819299 0.954956 0.835161
O O8 0.678396 0.953893 0.000000
O O9 0.500000 0.309815 0.750000
O O10 0.502856 0.308728 0.500000
O O11 0.336290 0.298031 0.627594
O O12 0.827288 0.303966 0.000000
O O13 0.000000 0.923384 0.750000
O O14 0.947268 0.926152 0.000000
O O15 0.000000 0.000000 0.873816
#
# Coordination Sequence:
#
# PCOD9525425 Si02
#       6
#    16  16   8  16  16  16
#     4  10  19  31  48  69  95 132 182 228 270 325
#     4   9  18  33  54  81 113 149 184 226 281 336
#     4  10  18  32  52  77 112 146 182 226 279 334
#     4  10  20  32  45  66  94 132 181 233 283 327
#     4   9  19  33  48  67  98 136 176 224 278 326
#     4   9  18  35  60  87 114 145 182 223 271 330
#
# _framework density 22.383728000000001
#
# number of rings (size 3 to 8) (size 9 to 14) (size 15 to 20)
#    0.000    2.545    0.909    1.091    0.000    2.909 
#    0.000    4.545    0.000    2.182    0.000   11.455 
#    0.000    0.000    0.000    0.000    0.000    0.000 
#
# Total GULP energy -245036.704575 kJ/mol
# GULP energy per Si atom -5569.016013 kJ/mol
# Density = 2.233278 g / cm^3
# Si number density = 22.383728 Si / 1000 Ang^3
#
#
#
# Elastic Constant Matrix: (Units=GPa)
#
#
# Indices 1 2 3 4 5 6 
#
# 1 151.4374 27.9110 72.6306 0.0000 0.0000 0.0000
# 2 27.9110 35.5575 22.0085 0.0002 0.0000 0.0001
# 3 72.6306 22.0085 242.3365 0.0010 -0.0001 0.0003
# 4 0.0000 0.0002 0.0010 18.0248 0.0000 0.0001
# 5 0.0000 0.0000 -0.0001 0.0000 39.5825 -0.0001
# 6 0.0000 0.0001 0.0003 0.0001 -0.0001 -3.7932
#
#
#
# Elastic Compliance Matrix: (Units=1/GPa)
#
#
# Indices 1 2 3 4 5 6 
#
# 1 0.008611 -0.005469 -0.002084 0.000000 0.000000 0.000000
# 2 -0.005469 0.033272 -0.001383 0.000000 0.000000 0.000000
# 3 -0.002084 -0.001383 0.004877 0.000000 0.000000 0.000000
# 4 0.000000 0.000000 0.000000 0.055479 0.000000 0.000002
# 5 0.000000 0.000000 0.000000 0.000000 0.025264 0.000000
# 6 0.000000 0.000000 0.000000 0.000002 0.000000 -0.263627
#
#
# Mechanical properties :
#
#
# Convention : Reuss Voigt Hill
#
# Bulk Modulus (GPa) = 34.61624 74.93684 54.77654
# Shear Modulus (GPa) = -46.03051 31.21490 -7.40781
#
# Velocity S-wave (km/s) = -4.53970 3.73840 -1.82117
# Velocity P-wave (km/s) = 3.46122 7.22393 4.48358
#
# Compressibility (1/GPa) = 0.02888817
#
# Stress axis : x y z
#
# Youngs Moduli (GPa) = 116.13120 30.05506 205.05790
#
# Poissons Ratio (x) = 0.16438 0.42736
# Poissons Ratio (y) = 0.63515 0.28350
# Poissons Ratio (z) = 0.24203 0.04155
#
# Static dielectric constant tensor:
#      x y z
#    x 1.869110 0.000000 0.000000 
#    y 0.000000 1.825120 0.000000 
#    z 0.000000 0.000000 1.846860 
# 
# From -- ./inp_files/11754.got.cif
#   From: 2010.05.17/outbox.cif.g08.bks.cpg/sg72_6_cif.got.tgz:11754.got - 2010.06.03 17:03:01.
