data_PCOD9525504
_publ_section_title
;
Structure prediction by ZEFSAII (Michael W. Deem and Ramdas Pophale) SiO2 
 PCOD9525504
Probable space group: I B A M
;
_chemical_formula_sum "Si O2"
_cell_formula_units_Z 112
_cell_length_a 19.352265
_cell_length_b 17.826240
_cell_length_c 17.587111
_cell_angle_alpha 90.000000
_cell_angle_beta 90.000000
_cell_angle_gamma 90.000000
_cell_volume 6067.168497
_symmetry_space_group_name_H-M "I B A M"
_symmetry_group_IT_number 72
_symmetry_cell_setting 'orthorhombic'
loop_
_space_group_symop_operation_xyz
x,y,z
-x,-y,z
x,-y,1/2-z
-x,y,1/2-z
-x,-y,-z
x,y,-z
-x,y,1/2+z
x,-y,1/2+z
1/2+x,1/2+y,1/2+z
1/2-x,1/2-y,1/2+z
1/2+x,1/2-y,-z
1/2-x,1/2+y,-z
1/2-x,1/2-y,1/2-z
1/2+x,1/2+y,1/2-z
1/2-x,1/2+y,z
1/2+x,1/2-y,z
loop_
_atom_site_type_symbol
_atom_site_label
_atom_site_fract_x
_atom_site_fract_y
_atom_site_fract_z
Si Si1 0.174349 0.115169 0.090042
Si Si2 0.313252 0.809438 0.591165
Si Si3 0.893916 0.260192 0.342497
Si Si4 0.315729 0.467525 0.173805
Si Si5 0.929284 0.155713 0.792487
Si Si6 0.233389 0.657008 0.591005
Si Si7 0.538501 0.227993 0.409080
O O1 0.251318 0.138097 0.120172
O O2 0.125799 0.185819 0.108630
O O3 0.153442 0.038125 0.128912
O O4 0.177158 0.105707 0.000000
O O5 0.311693 0.817431 0.500000
O O6 0.288480 0.724055 0.606136
O O7 0.393026 0.819456 0.612550
O O8 0.899922 0.225076 0.258419
O O9 0.833574 0.318473 0.361109
O O10 0.966945 0.293417 0.369183
O O11 0.281224 0.500000 0.250000
O O12 0.375165 0.410646 0.201029
O O13 0.264848 0.420432 0.120185
O O14 0.946883 0.189324 0.874939
O O15 0.000000 0.133086 0.750000
O O16 0.219382 0.656602 0.500000
O O17 0.531564 0.228304 0.500000
#
# Coordination Sequence:
#
# PCOD9525504 Si02
#       7
#    16  16  16  16  16  16  16
#     4  10  20  35  54  78 110 145 189 234 276 331
#     4   8  16  31  54  80 104 135 179 234 276 318
#     4  10  20  37  58  83 113 143 184 240 295 332
#     4  12  23  36  51  78 113 155 187 219 280 333
#     4  10  22  37  53  79 117 151 185 232 277 337
#     4  10  20  36  59  84 110 143 192 242 276 328
#     4  10  18  33  58  85 111 145 189 233 284 341
#
# _framework density 18.460011999999999
#
# number of rings (size 3 to 8) (size 9 to 14) (size 15 to 20)
#    0.000    2.000    2.857    2.571    0.000    2.571 
#    0.000    0.000    0.000    3.429    0.000    5.000 
#    0.000    0.000    0.000    0.000    0.000    0.000 
#
# Total GULP energy -312157.208639 kJ/mol
# GULP energy per Si atom -5574.235869 kJ/mol
# Density = 1.841800 g / cm^3
# Si number density = 18.460012 Si / 1000 Ang^3
#
#
#
# Elastic Constant Matrix: (Units=GPa)
#
#
# Indices 1 2 3 4 5 6 
#
# 1 91.5714 -4.9017 -5.1767 0.0000 0.0000 0.0000
# 2 -4.9017 20.5441 5.1858 0.0000 0.0000 0.0000
# 3 -5.1767 5.1858 47.3497 0.0000 0.0000 0.0000
# 4 0.0000 0.0000 0.0000 23.4387 0.0000 0.0000
# 5 0.0000 0.0000 0.0000 0.0000 19.9736 0.0000
# 6 0.0000 0.0000 0.0000 0.0000 0.0000 15.5395
#
#
#
# Elastic Compliance Matrix: (Units=1/GPa)
#
#
# Indices 1 2 3 4 5 6 
#
# 1 0.011103 0.002409 0.000950 0.000000 0.000000 0.000000
# 2 0.002409 0.050583 -0.005276 0.000000 0.000000 0.000000
# 3 0.000950 -0.005276 0.021801 0.000000 0.000000 0.000000
# 4 0.000000 0.000000 0.000000 0.042664 0.000000 0.000000
# 5 0.000000 0.000000 0.000000 0.000000 0.050066 0.000000
# 6 0.000000 0.000000 0.000000 0.000000 0.000000 0.064352
#
#
# Mechanical properties :
#
#
# Convention : Reuss Voigt Hill
#
# Bulk Modulus (GPa) = 12.55450 16.63110 14.59280
# Shear Modulus (GPa) = 18.45327 22.74755 20.60041
#
# Velocity S-wave (km/s) = 3.16513 3.51417 3.34420
# Velocity P-wave (km/s) = 4.49145 5.04922 4.77848
#
# Compressibility (1/GPa) = 0.07965270
#
# Stress axis : x y z
#
# Youngs Moduli (GPa) = 90.06482 19.76966 45.86901
#
# Poissons Ratio (x) = -0.04763 -0.04358
# Poissons Ratio (y) = -0.21700 0.24203
# Poissons Ratio (z) = -0.08556 0.10431
#
# Static dielectric constant tensor:
#      x y z
#    x 1.682940 0.000000 0.000000 
#    y 0.000000 1.603300 0.000000 
#    z 0.000000 0.000000 1.667080 
# 
# From -- ./inp_files/32883.got.cif
#   From: 2010.05.17/outbox.cif.g08.bks.cpg/sg72_17_cif.got.tgz:32883.got - 2010.06.03 17:03:01.
