data_PCOD9525195
_publ_section_title
;
Structure prediction by ZEFSAII (Michael W. Deem and Ramdas Pophale) SiO2 
 PCOD9525195
Probable space group: I B A M
;
_chemical_formula_sum "Si O2"
_cell_formula_units_Z 96
_cell_length_a 21.841355
_cell_length_b 20.819020
_cell_length_c 9.965889
_cell_angle_alpha 90.000000
_cell_angle_beta 90.000000
_cell_angle_gamma 90.000000
_cell_volume 4531.645262
_symmetry_space_group_name_H-M "I B A M"
_symmetry_group_IT_number 72
_symmetry_cell_setting 'orthorhombic'
loop_
_space_group_symop_operation_xyz
x,y,z
-x,-y,z
x,-y,1/2-z
-x,y,1/2-z
-x,-y,-z
x,y,-z
-x,y,1/2+z
x,-y,1/2+z
1/2+x,1/2+y,1/2+z
1/2-x,1/2-y,1/2+z
1/2+x,1/2-y,-z
1/2-x,1/2+y,-z
1/2-x,1/2-y,1/2-z
1/2+x,1/2+y,1/2-z
1/2-x,1/2+y,z
1/2+x,1/2-y,z
loop_
_atom_site_type_symbol
_atom_site_label
_atom_site_fract_x
_atom_site_fract_y
_atom_site_fract_z
Si Si1 0.871911 0.550781 0.352795
Si Si2 0.054592 0.673414 0.158161
Si Si3 0.232471 0.806554 0.849781
Si Si4 0.586096 0.319780 0.347075
Si Si5 0.261038 0.586399 0.145753
Si Si6 0.405032 0.439847 0.342298
O O1 0.897703 0.500000 0.250000
O O2 0.897550 0.538123 0.500000
O O3 0.888514 0.625018 0.322021
O O4 0.798457 0.542211 0.360843
O O5 0.065352 0.748227 0.192409
O O6 0.000000 0.648859 0.250000
O O7 0.039814 0.672485 0.000000
O O8 0.250000 0.750000 0.750000
O O9 0.159285 0.812339 0.856761
O O10 0.251362 0.871033 0.775225
O O11 0.256970 0.798694 0.000000
O O12 0.564150 0.335639 0.500000
O O13 0.574666 0.374960 0.236365
O O14 0.329917 0.559571 0.155881
O O15 0.260244 0.622386 0.000000
O O16 0.424467 0.500000 0.250000
O O17 0.423884 0.442438 0.500000
#
# Coordination Sequence:
#
# PCOD9525195 Si02
#       6
#    16  16  16  16  16  16
#     4  10  21  37  56  79 109 144 181 223 270 319
#     4  10  22  40  60  79 102 135 177 229 284 331
#     4  10  18  28  46  72 104 140 176 214 258 311
#     4   9  19  36  55  75 103 140 178 218 267 319
#     4   9  18  32  49  73 108 146 182 216 253 304
#     4  10  19  31  52  83 117 150 181 213 251 305
#
# _framework density 21.184360000000002
#
# number of rings (size 3 to 8) (size 9 to 14) (size 15 to 20)
#    0.000    2.333    0.000    2.500    0.000    6.333 
#    0.000    3.333    0.000    0.500    0.000    3.500 
#    0.000    0.000    0.000    0.000    0.000    0.000 
#
# Total GULP energy -267474.229215 kJ/mol
# GULP energy per Si atom -5572.379775 kJ/mol
# Density = 2.113614 g / cm^3
# Si number density = 21.184360 Si / 1000 Ang^3
#
#
#
# Elastic Constant Matrix: (Units=GPa)
#
#
# Indices 1 2 3 4 5 6 
#
# 1 48.1686 5.9451 20.4702 0.0000 0.0000 0.0000
# 2 5.9451 104.1150 84.6727 0.0000 0.0000 0.0000
# 3 20.4702 84.6727 157.9484 0.0000 0.0000 0.0000
# 4 0.0000 0.0000 0.0000 11.8046 0.0000 0.0000
# 5 0.0000 0.0000 0.0000 0.0000 13.0783 0.0000
# 6 0.0000 0.0000 0.0000 0.0000 0.0000 15.6322
#
#
#
# Elastic Compliance Matrix: (Units=1/GPa)
#
#
# Indices 1 2 3 4 5 6 
#
# 1 0.022180 0.001899 -0.003893 0.000000 0.000000 0.000000
# 2 0.001899 0.017191 -0.009462 0.000000 0.000000 0.000000
# 3 -0.003893 -0.009462 0.011908 0.000000 0.000000 0.000000
# 4 0.000000 0.000000 0.000000 0.084713 0.000000 0.000000
# 5 0.000000 0.000000 0.000000 0.000000 0.076462 0.000000
# 6 0.000000 0.000000 0.000000 0.000000 0.000000 0.063970
#
#
# Mechanical properties :
#
#
# Convention : Reuss Voigt Hill
#
# Bulk Modulus (GPa) = 35.25006 59.15644 47.20325
# Shear Modulus (GPa) = 16.19209 21.37931 18.78570
#
# Velocity S-wave (km/s) = 2.76767 3.18024 2.98110
# Velocity P-wave (km/s) = 5.18547 6.43976 5.84635
#
# Compressibility (1/GPa) = 0.02836874
#
# Stress axis : x y z
#
# Youngs Moduli (GPa) = 45.08508 58.16831 83.97625
#
# Poissons Ratio (x) = -0.11048 0.32690
# Poissons Ratio (y) = -0.08563 0.79459
# Poissons Ratio (z) = 0.17550 0.55040
#
# Static dielectric constant tensor:
#      x y z
#    x 1.720350 0.000000 0.000000 
#    y 0.000000 1.783210 0.000000 
#    z 0.000000 0.000000 1.796040 
# 
# From -- ./inp_files/6990.got.cif
#   From: 2010.05.17/outbox.cif.g08.bks.cpg/sg72_4_cif.got.tgz:6990.got - 2010.06.03 17:03:01.
