data_PCOD9525772
_publ_section_title
;
Structure prediction by ZEFSAII (Michael W. Deem and Ramdas Pophale) SiO2 
 PCOD9525772
Probable space group: I B A M
;
_chemical_formula_sum "Si O2"
_cell_formula_units_Z 80
_cell_length_a 12.925178
_cell_length_b 23.447288
_cell_length_c 14.622784
_cell_angle_alpha 90.000000
_cell_angle_beta 90.000000
_cell_angle_gamma 90.000000
_cell_volume 4431.586344
_symmetry_space_group_name_H-M "I B A M"
_symmetry_group_IT_number 72
_symmetry_cell_setting 'orthorhombic'
loop_
_space_group_symop_operation_xyz
x,y,z
-x,-y,z
x,-y,1/2-z
-x,y,1/2-z
-x,-y,-z
x,y,-z
-x,y,1/2+z
x,-y,1/2+z
1/2+x,1/2+y,1/2+z
1/2-x,1/2-y,1/2+z
1/2+x,1/2-y,-z
1/2-x,1/2+y,-z
1/2-x,1/2-y,1/2-z
1/2+x,1/2+y,1/2-z
1/2-x,1/2+y,z
1/2+x,1/2-y,z
loop_
_atom_site_type_symbol
_atom_site_label
_atom_site_fract_x
_atom_site_fract_y
_atom_site_fract_z
Si Si1 0.382192 0.616019 0.394570
Si Si2 0.377194 0.181745 0.245067
Si Si3 0.729987 0.734866 0.106664
Si Si4 0.076133 0.053335 0.108236
Si Si5 0.235447 0.562822 0.245704
O O1 0.371451 0.597547 0.500000
O O2 0.347917 0.681112 0.387785
O O3 0.501507 0.606638 0.369826
O O4 0.306750 0.577927 0.333340
O O5 0.500000 0.186982 0.250000
O O6 0.324277 0.213051 0.158581
O O7 0.327464 0.213010 0.333894
O O8 0.342215 0.115733 0.239776
O O9 0.753325 0.745939 0.000000
O O10 0.180815 0.058592 0.164096
O O11 0.096886 0.050670 0.000000
O O12 0.000000 0.000000 0.131487
O O13 0.186433 0.500000 0.250000
#
# Coordination Sequence:
#
# PCOD9525772 Si02
#       5
#    16  16  16  16  16
#     4   9  18  32  53  82 113 146 184 233 291 346
#     4  10  23  40  58  86 117 149 195 244 287 350
#     4   9  20  40  63  84 111 150 193 241 293 346
#     4  10  19  31  51  83 116 145 186 236 287 343
#     4  11  21  33  54  79 113 156 191 231 284 339
#
# _framework density 18.052226000000001
#
# number of rings (size 3 to 8) (size 9 to 14) (size 15 to 20)
#    0.000    2.200    2.000    0.600    0.000    6.800 
#    0.000    2.000    0.000    0.000    0.000    8.400 
#    0.000    0.000    0.000    0.000    0.000    0.000 
#
# Total GULP energy -223097.756254 kJ/mol
# GULP energy per Si atom -5577.443906 kJ/mol
# Density = 1.801114 g / cm^3
# Si number density = 18.052226 Si / 1000 Ang^3
#
#
#
# Elastic Constant Matrix: (Units=GPa)
#
#
# Indices 1 2 3 4 5 6 
#
# 1 116.1387 54.0057 43.2548 0.0000 0.0000 0.0000
# 2 54.0057 110.2383 50.7150 0.0000 0.0000 0.0000
# 3 43.2548 50.7150 109.3330 0.0000 0.0000 0.0000
# 4 0.0000 0.0000 0.0000 21.4198 0.0000 0.0000
# 5 0.0000 0.0000 0.0000 0.0000 15.3762 0.0000
# 6 0.0000 0.0000 0.0000 0.0000 0.0000 17.6017
#
#
#
# Elastic Compliance Matrix: (Units=1/GPa)
#
#
# Indices 1 2 3 4 5 6 
#
# 1 0.011663 -0.004565 -0.002497 0.000000 0.000000 0.000000
# 2 -0.004565 0.013319 -0.004372 0.000000 0.000000 0.000000
# 3 -0.002497 -0.004372 0.012162 0.000000 0.000000 0.000000
# 4 0.000000 0.000000 0.000000 0.046686 0.000000 0.000000
# 5 0.000000 0.000000 0.000000 0.000000 0.065036 0.000000
# 6 0.000000 0.000000 0.000000 0.000000 0.000000 0.056813
#
#
# Mechanical properties :
#
#
# Convention : Reuss Voigt Hill
#
# Bulk Modulus (GPa) = 70.04481 70.18455 70.11468
# Shear Modulus (GPa) = 21.43116 23.39516 22.41316
#
# Velocity S-wave (km/s) = 3.44928 3.60387 3.52742
# Velocity P-wave (km/s) = 7.39924 7.50201 7.45080
#
# Compressibility (1/GPa) = 0.01427658
#
# Stress axis : x y z
#
# Youngs Moduli (GPa) = 85.74063 75.08010 82.22254
#
# Poissons Ratio (x) = 0.34275 0.20528
# Poissons Ratio (y) = 0.39142 0.35948
# Poissons Ratio (z) = 0.21406 0.32826
#
# Static dielectric constant tensor:
#      x y z
#    x 1.579210 0.000000 0.000000 
#    y 0.000000 1.664540 0.000000 
#    z 0.000000 0.000000 1.633020 
# 
# From -- ./inp_files/20167.got.cif
#   From: 2010.05.17/outbox.cif.g08.bks.cpg/sg72_11_cif.got.tgz:20167.got - 2010.06.03 17:03:01.
