data_PCOD9525931
_publ_section_title
;
Structure prediction by ZEFSAII (Michael W. Deem and Ramdas Pophale) SiO2 
 PCOD9525931
Probable space group: I B A M
;
_chemical_formula_sum "Si O2"
_cell_formula_units_Z 96
_cell_length_a 20.721561
_cell_length_b 29.277167
_cell_length_c 8.648773
_cell_angle_alpha 90.000000
_cell_angle_beta 90.000000
_cell_angle_gamma 90.000000
_cell_volume 5246.939024
_symmetry_space_group_name_H-M "I B A M"
_symmetry_group_IT_number 72
_symmetry_cell_setting 'orthorhombic'
loop_
_space_group_symop_operation_xyz
x,y,z
-x,-y,z
x,-y,1/2-z
-x,y,1/2-z
-x,-y,-z
x,y,-z
-x,y,1/2+z
x,-y,1/2+z
1/2+x,1/2+y,1/2+z
1/2-x,1/2-y,1/2+z
1/2+x,1/2-y,-z
1/2-x,1/2+y,-z
1/2-x,1/2-y,1/2-z
1/2+x,1/2+y,1/2-z
1/2-x,1/2+y,z
1/2+x,1/2-y,z
loop_
_atom_site_type_symbol
_atom_site_label
_atom_site_fract_x
_atom_site_fract_y
_atom_site_fract_z
Si Si1 0.667642 0.948621 0.815838
Si Si2 0.299578 0.408224 0.818446
Si Si3 0.935373 0.949046 0.314888
Si Si4 0.199638 0.811877 0.321122
Si Si5 0.927632 0.629019 0.185139
Si Si6 0.335635 0.213584 0.684591
O O1 0.737686 0.928553 0.768338
O O2 0.614871 0.912882 0.750778
O O3 0.660259 0.000000 0.750000
O O4 0.662537 0.950367 0.000000
O O5 0.367066 0.429121 0.765270
O O6 0.308329 0.354659 0.789341
O O7 0.290016 0.417628 0.000000
O O8 0.938562 0.949164 0.500000
O O9 0.000000 0.925565 0.250000
O O10 0.935657 0.000000 0.250000
O O11 0.192642 0.825726 0.500000
O O12 0.273433 0.797178 0.288418
O O13 0.154313 0.767839 0.292896
O O14 0.891222 0.677064 0.221437
O O15 0.000000 0.628483 0.250000
O O16 0.929456 0.624873 0.000000
O O17 0.320149 0.208035 0.500000
#
# Coordination Sequence:
#
# PCOD9525931 Si02
#       6
#    16  16  16  16  16  16
#     4  12  25  41  62  89 118 154 200 250 303 359
#     4  11  22  37  57  87 121 156 193 242 296 347
#     4  10  21  36  56  79 109 148 191 233 285 343
#     4  10  19  32  57  88 115 149 191 235 284 342
#     4  11  23  41  63  87 120 159 200 250 303 360
#     4   9  19  36  57  83 116 150 189 236 286 341
#
# _framework density 18.296382999999999
#
# number of rings (size 3 to 8) (size 9 to 14) (size 15 to 20)
#    0.000    1.500    1.667    4.500    0.000    5.667 
#    0.000    2.500    0.000    4.000    0.000    0.000 
#    0.000    0.000    0.000    0.000    0.000    0.000 
#
# Total GULP energy -267815.470587 kJ/mol
# GULP energy per Si atom -5579.488971 kJ/mol
# Density = 1.825474 g / cm^3
# Si number density = 18.296383 Si / 1000 Ang^3
#
#
#
# Elastic Constant Matrix: (Units=GPa)
#
#
# Indices 1 2 3 4 5 6 
#
# 1 144.8390 71.8119 47.4809 0.0000 0.0000 0.0000
# 2 71.8119 105.7911 30.1897 0.0000 0.0000 0.0000
# 3 47.4809 30.1897 60.1622 0.0000 0.0000 0.0000
# 4 0.0000 0.0000 0.0000 18.9117 0.0000 0.0000
# 5 0.0000 0.0000 0.0000 0.0000 27.4455 0.0000
# 6 0.0000 0.0000 0.0000 0.0000 0.0000 19.6090
#
#
#
# Elastic Compliance Matrix: (Units=1/GPa)
#
#
# Indices 1 2 3 4 5 6 
#
# 1 0.012201 -0.006459 -0.006388 0.000000 0.000000 0.000000
# 2 -0.006459 0.014452 -0.002154 0.000000 0.000000 0.000000
# 3 -0.006388 -0.002154 0.022744 0.000000 0.000000 0.000000
# 4 0.000000 0.000000 0.000000 0.052877 0.000000 0.000000
# 5 0.000000 0.000000 0.000000 0.000000 0.036436 0.000000
# 6 0.000000 0.000000 0.000000 0.000000 0.000000 0.050997
#
#
# Mechanical properties :
#
#
# Convention : Reuss Voigt Hill
#
# Bulk Modulus (GPa) = 51.56184 67.75083 59.65634
# Shear Modulus (GPa) = 22.10687 23.94724 23.02705
#
# Velocity S-wave (km/s) = 3.47978 3.62173 3.55146
# Velocity P-wave (km/s) = 6.66242 7.38913 7.03516
#
# Compressibility (1/GPa) = 0.01939419
#
# Stress axis : x y z
#
# Youngs Moduli (GPa) = 81.96270 69.19530 43.96730
#
# Poissons Ratio (x) = 0.44693 0.28085
# Poissons Ratio (y) = 0.52940 0.09472
# Poissons Ratio (z) = 0.52356 0.14908
#
# Static dielectric constant tensor:
#      x y z
#    x 1.637630 0.000000 0.000000 
#    y 0.000000 1.676040 0.000000 
#    z 0.000000 0.000000 1.619610 
# 
# From -- ./inp_files/5968.got.cif
#   From: 2010.05.17/outbox.cif.g08.bks.cpg/sg72_3_cif.got.tgz:5968.got - 2010.06.03 17:03:01.
