data_PCOD9525453
_publ_section_title
;
Structure prediction by ZEFSAII (Michael W. Deem and Ramdas Pophale) SiO2 
 PCOD9525453
Probable space group: I B A M
;
_chemical_formula_sum "Si O2"
_cell_formula_units_Z 68
_cell_length_a 19.651762
_cell_length_b 10.021774
_cell_length_c 21.071831
_cell_angle_alpha 90.000000
_cell_angle_beta 90.000000
_cell_angle_gamma 90.000000
_cell_volume 4150.002660
_symmetry_space_group_name_H-M "I B A M"
_symmetry_group_IT_number 72
_symmetry_cell_setting 'orthorhombic'
loop_
_space_group_symop_operation_xyz
x,y,z
-x,-y,z
x,-y,1/2-z
-x,y,1/2-z
-x,-y,-z
x,y,-z
-x,y,1/2+z
x,-y,1/2+z
1/2+x,1/2+y,1/2+z
1/2-x,1/2-y,1/2+z
1/2+x,1/2-y,-z
1/2-x,1/2+y,-z
1/2-x,1/2-y,1/2-z
1/2+x,1/2+y,1/2-z
1/2-x,1/2+y,z
1/2+x,1/2-y,z
loop_
_atom_site_type_symbol
_atom_site_label
_atom_site_fract_x
_atom_site_fract_y
_atom_site_fract_z
Si Si1 0.500000 0.000000 0.750000
Si Si2 0.951630 0.129099 0.074617
Si Si3 0.964164 0.368334 0.627156
Si Si4 0.817086 0.287199 0.576728
Si Si5 0.804332 0.019260 0.077176
O O1 0.541820 0.092154 0.798668
O O2 0.876029 0.086806 0.094849
O O3 0.985027 0.246356 0.114924
O O4 0.949788 0.169478 0.000000
O O5 0.000000 0.000000 0.078478
O O6 0.891381 0.332835 0.598820
O O7 0.000000 0.500000 0.597706
O O8 0.816997 0.286255 0.500000
O O9 0.759072 0.390734 0.598066
O O10 0.802435 0.135088 0.597889
O O11 0.803473 0.017050 0.000000
#
# Coordination Sequence:
#
# PCOD9525453 Si02
#       5
#     4  16  16  16  16
#     4   8  24  40  52  76 100 140 192 250 256 292
#     4  10  18  32  55  85 113 137 171 217 271 331
#     4  10  21  37  56  73 106 143 184 232 266 309
#     4  10  19  32  52  81 112 144 171 209 271 331
#     4   9  19  31  48  82 122 142 164 205 264 339
#
# _framework density 16.385532000000001
#
# number of rings (size 3 to 8) (size 9 to 14) (size 15 to 20)
#    0.706    1.647    2.353    0.706    3.294    1.882 
#    0.000    0.588    0.000    5.647    0.000    0.000 
#    0.000    0.000    0.000    0.000    0.000    0.000 
#
# Total GULP energy -189286.957547 kJ/mol
# GULP energy per Si atom -5567.263457 kJ/mol
# Density = 1.634824 g / cm^3
# Si number density = 16.385532 Si / 1000 Ang^3
#
#
#
# Elastic Constant Matrix: (Units=GPa)
#
#
# Indices 1 2 3 4 5 6 
#
# 1 145.2854 92.6958 14.3270 0.0000 0.0000 0.0000
# 2 92.6958 147.3927 33.3298 0.0000 0.0000 0.0000
# 3 14.3270 33.3298 30.5557 0.0000 0.0000 0.0000
# 4 0.0000 0.0000 0.0000 15.4956 0.0000 0.0000
# 5 0.0000 0.0000 0.0000 0.0000 -0.4169 0.0000
# 6 0.0000 0.0000 0.0000 0.0000 0.0000 30.5852
#
#
#
# Elastic Compliance Matrix: (Units=1/GPa)
#
#
# Indices 1 2 3 4 5 6 
#
# 1 0.011754 -0.008158 0.003388 0.000000 0.000000 0.000000
# 2 -0.008158 0.014668 -0.012175 0.000000 0.000000 0.000000
# 3 0.003388 -0.012175 0.044419 0.000000 0.000000 0.000000
# 4 0.000000 0.000000 0.000000 0.064534 0.000000 0.000000
# 5 0.000000 0.000000 0.000000 0.000000 -2.398728 0.000000
# 6 0.000000 0.000000 0.000000 0.000000 0.000000 0.032696
#
#
# Mechanical properties :
#
#
# Convention : Reuss Voigt Hill
#
# Bulk Modulus (GPa) = 27.06323 67.10432 47.08377
# Shear Modulus (GPa) = -2.28891 21.32486 9.51798
#
# Velocity S-wave (km/s) = -1.18319 3.61147 2.41275
# Velocity P-wave (km/s) = 3.83221 7.64412 6.04642
#
# Compressibility (1/GPa) = 0.03695051
#
# Stress axis : x y z
#
# Youngs Moduli (GPa) = 85.07661 68.17344 22.51287
#
# Poissons Ratio (x) = 0.55618 -0.07627
# Poissons Ratio (y) = 0.69408 0.27409
# Poissons Ratio (z) = -0.28821 0.83001
#
# Static dielectric constant tensor:
#      x y z
#    x 1.533850 0.000000 0.000000 
#    y 0.000000 1.561650 0.000000 
#    z 0.000000 0.000000 1.536090 
# 
# From -- ./inp_files/48909.got.cif
#   From: 2010.05.17/outbox.cif.g08.bks.cpg/sg72_25_cif.got.tgz:48909.got - 2010.06.03 17:03:01.
