data_PCOD9525281
_publ_section_title
;
Structure prediction by ZEFSAII (Michael W. Deem and Ramdas Pophale) SiO2 
 PCOD9525281
Probable space group: I B A M
;
_chemical_formula_sum "Si O2"
_cell_formula_units_Z 96
_cell_length_a 23.447316
_cell_length_b 26.951957
_cell_length_c 7.924789
_cell_angle_alpha 90.000000
_cell_angle_beta 90.000000
_cell_angle_gamma 90.000000
_cell_volume 5008.078750
_symmetry_space_group_name_H-M "I B A M"
_symmetry_group_IT_number 72
_symmetry_cell_setting 'orthorhombic'
loop_
_space_group_symop_operation_xyz
x,y,z
-x,-y,z
x,-y,1/2-z
-x,y,1/2-z
-x,-y,-z
x,y,-z
-x,y,1/2+z
x,-y,1/2+z
1/2+x,1/2+y,1/2+z
1/2-x,1/2-y,1/2+z
1/2+x,1/2-y,-z
1/2-x,1/2+y,-z
1/2-x,1/2-y,1/2-z
1/2+x,1/2+y,1/2-z
1/2-x,1/2+y,z
1/2+x,1/2-y,z
loop_
_atom_site_type_symbol
_atom_site_label
_atom_site_fract_x
_atom_site_fract_y
_atom_site_fract_z
Si Si1 0.185198 0.443568 0.201388
Si Si2 0.132627 0.347576 0.804092
Si Si3 0.182079 0.943605 0.298640
Si Si4 0.740246 0.694406 0.807208
Si Si5 0.127437 0.848032 0.308619
Si Si6 0.933972 0.749184 0.795625
O O1 0.172034 0.500000 0.250000
O O2 0.140385 0.402792 0.271410
O O3 0.251750 0.434292 0.248274
O O4 0.183122 0.439451 0.000000
O O5 0.198299 0.330446 0.802973
O O6 0.096923 0.301248 0.731424
O O7 0.113422 0.352539 0.000000
O O8 0.180217 0.939736 0.500000
O O9 0.137700 0.902442 0.228905
O O10 0.168486 0.000000 0.250000
O O11 0.750000 0.750000 0.750000
O O12 0.692579 0.671044 0.690100
O O13 0.719086 0.691813 0.000000
O O14 0.105536 0.854652 0.500000
O O15 0.092750 0.801513 0.232588
O O16 0.000000 0.747285 0.750000
O O17 0.925951 0.749570 0.000000
#
# Coordination Sequence:
#
# PCOD9525281 Si02
#       6
#    16  16  16  16  16  16
#     4  10  18  30  47  73 105 140 169 199 245 299
#     4   9  18  32  51  71 103 138 163 203 256 301
#     4  10  19  30  47  74 106 140 168 201 244 299
#     4  11  19  30  48  75 106 137 167 202 254 311
#     4  10  20  34  52  74 105 137 168 210 257 304
#     4  10  21  39  55  73  99 130 170 217 264 304
#
# _framework density 19.169028000000001
#
# number of rings (size 3 to 8) (size 9 to 14) (size 15 to 20)
#    0.000    2.000    3.333    2.500    0.000    1.333 
#    0.000    1.667    0.000    1.000    0.000    7.000 
#    0.000    0.000    0.000    0.000    0.000    0.000 
#
# Total GULP energy -267285.961510 kJ/mol
# GULP energy per Si atom -5568.457531 kJ/mol
# Density = 1.912540 g / cm^3
# Si number density = 19.169028 Si / 1000 Ang^3
#
#
#
# Elastic Constant Matrix: (Units=GPa)
#
#
# Indices 1 2 3 4 5 6 
#
# 1 67.8085 57.5971 2.6975 0.0000 0.0000 0.0000
# 2 57.5971 199.3232 8.2827 0.0000 0.0000 0.0000
# 3 2.6975 8.2827 39.4166 0.0000 0.0000 0.0000
# 4 0.0000 0.0000 0.0000 4.1641 0.0000 0.0000
# 5 0.0000 0.0000 0.0000 0.0000 16.4528 0.0000
# 6 0.0000 0.0000 0.0000 0.0000 0.0000 11.3155
#
#
#
# Elastic Compliance Matrix: (Units=1/GPa)
#
#
# Indices 1 2 3 4 5 6 
#
# 1 0.019546 -0.005642 -0.000152 0.000000 0.000000 0.000000
# 2 -0.005642 0.006690 -0.001020 0.000000 0.000000 0.000000
# 3 -0.000152 -0.001020 0.025595 0.000000 0.000000 0.000000
# 4 0.000000 0.000000 0.000000 0.240150 0.000000 0.000000
# 5 0.000000 0.000000 0.000000 0.000000 0.060780 0.000000
# 6 0.000000 0.000000 0.000000 0.000000 0.000000 0.088375
#
#
# Mechanical properties :
#
#
# Convention : Reuss Voigt Hill
#
# Bulk Modulus (GPa) = 26.17592 49.30033 37.73812
# Shear Modulus (GPa) = 10.69530 22.25119 16.47325
#
# Velocity S-wave (km/s) = 2.36465 3.41073 2.93468
# Velocity P-wave (km/s) = 4.59787 6.42537 5.58685
#
# Compressibility (1/GPa) = 0.03820305
#
# Stress axis : x y z
#
# Youngs Moduli (GPa) = 51.16265 149.48656 39.07061
#
# Poissons Ratio (x) = 0.84335 0.00594
# Poissons Ratio (y) = 0.28864 0.03984
# Poissons Ratio (z) = 0.00778 0.15242
#
# Static dielectric constant tensor:
#      x y z
#    x 1.601720 0.000000 0.000000 
#    y 0.000000 1.783410 0.000000 
#    z 0.000000 0.000000 1.711650 
# 
# From -- ./inp_files/7103.got.cif
#   From: 2010.05.17/outbox.cif.g08.bks.cpg/sg72_4_cif.got.tgz:7103.got - 2010.06.03 17:03:01.
