data_PCOD9525110
_publ_section_title
;
Structure prediction by ZEFSAII (Michael W. Deem and Ramdas Pophale) SiO2 
 PCOD9525110
Probable space group: I B A M
;
_chemical_formula_sum "Si O2"
_cell_formula_units_Z 64
_cell_length_a 7.778307
_cell_length_b 17.511979
_cell_length_c 20.555143
_cell_angle_alpha 90.000000
_cell_angle_beta 90.000000
_cell_angle_gamma 90.000000
_cell_volume 2799.888975
_symmetry_space_group_name_H-M "I B A M"
_symmetry_group_IT_number 72
_symmetry_cell_setting 'orthorhombic'
loop_
_space_group_symop_operation_xyz
x,y,z
-x,-y,z
x,-y,1/2-z
-x,y,1/2-z
-x,-y,-z
x,y,-z
-x,y,1/2+z
x,-y,1/2+z
1/2+x,1/2+y,1/2+z
1/2-x,1/2-y,1/2+z
1/2+x,1/2-y,-z
1/2-x,1/2+y,-z
1/2-x,1/2-y,1/2-z
1/2+x,1/2+y,1/2-z
1/2-x,1/2+y,z
1/2+x,1/2-y,z
loop_
_atom_site_type_symbol
_atom_site_label
_atom_site_fract_x
_atom_site_fract_y
_atom_site_fract_z
Si Si1 0.152053 0.690090 0.293803
Si Si2 0.492178 0.813049 0.927867
Si Si3 0.295878 0.420683 0.885820
Si Si4 0.180912 0.914027 0.425373
O O1 0.250000 0.750000 0.250000
O O2 0.273718 0.622505 0.317850
O O3 0.000000 0.657714 0.250000
O O4 0.069526 0.725636 0.360495
O O5 0.359615 0.884492 0.927475
O O6 0.682890 0.846262 0.917235
O O7 0.483551 0.775859 0.000000
O O8 0.480400 0.397707 0.914550
O O9 0.279267 0.511419 0.882604
O O10 0.200606 0.940066 0.500000
#
# Coordination Sequence:
#
# PCOD9525110 Si02
#       4
#    16  16  16  16
#     4  10  24  44  64  83 124 181 230 278 325 377
#     4   9  19  36  64  97 131 166 213 266 331 393
#     4   9  19  33  62  97 139 165 209 255 337 396
#     4  10  17  32  64 110 141 164 197 268 345 410
#
# _framework density 22.858049000000001
#
# number of rings (size 3 to 8) (size 9 to 14) (size 15 to 20)
#    1.500    1.000    0.000    3.750    0.000    4.000 
#    0.000    3.750    0.000    3.000    0.000    0.000 
#    0.000    0.000    0.000    4.500    0.000    0.000 
#
# Total GULP energy -178498.783006 kJ/mol
# GULP energy per Si atom -5578.086969 kJ/mol
# Density = 2.280602 g / cm^3
# Si number density = 22.858049 Si / 1000 Ang^3
#
#
#
# Elastic Constant Matrix: (Units=GPa)
#
#
# Indices 1 2 3 4 5 6 
#
# 1 105.8756 24.2821 38.0267 0.0000 0.0000 0.0000
# 2 24.2821 45.7792 50.7267 0.0000 0.0000 0.0000
# 3 38.0267 50.7267 142.8496 0.0000 0.0000 0.0000
# 4 0.0000 0.0000 0.0000 42.9874 0.0000 0.0000
# 5 0.0000 0.0000 0.0000 0.0000 48.1841 0.0000
# 6 0.0000 0.0000 0.0000 0.0000 0.0000 26.7272
#
#
#
# Elastic Compliance Matrix: (Units=1/GPa)
#
#
# Indices 1 2 3 4 5 6 
#
# 1 0.010921 -0.004239 -0.001402 0.000000 0.000000 0.000000
# 2 -0.004239 0.037661 -0.012245 0.000000 0.000000 0.000000
# 3 -0.001402 -0.012245 0.011722 0.000000 0.000000 0.000000
# 4 0.000000 0.000000 0.000000 0.023263 0.000000 0.000000
# 5 0.000000 0.000000 0.000000 0.000000 0.020754 0.000000
# 6 0.000000 0.000000 0.000000 0.000000 0.000000 0.037415
#
#
# Mechanical properties :
#
#
# Convention : Reuss Voigt Hill
#
# Bulk Modulus (GPa) = 40.76427 57.84172 49.30299
# Shear Modulus (GPa) = 26.92735 35.67766 31.30251
#
# Velocity S-wave (km/s) = 3.43596 3.95503 3.70460
# Velocity P-wave (km/s) = 5.79771 6.79824 6.31781
#
# Compressibility (1/GPa) = 0.02453129
#
# Stress axis : x y z
#
# Youngs Moduli (GPa) = 91.56865 26.55252 85.31094
#
# Poissons Ratio (x) = 0.11257 0.11958
# Poissons Ratio (y) = 0.38820 1.04465
# Poissons Ratio (z) = 0.12835 0.32514
#
# Static dielectric constant tensor:
#      x y z
#    x 1.869540 0.000000 0.000000 
#    y 0.000000 1.897560 0.000000 
#    z 0.000000 0.000000 1.900060 
# 
# From -- ./inp_files/27899.got.cif
#   From: 2010.05.17/outbox.cif.g08.bks.cpg/sg72_14_cif.got.tgz:27899.got - 2010.06.03 17:03:01.
