data_PCOD9525182
_publ_section_title
;
Structure prediction by ZEFSAII (Michael W. Deem and Ramdas Pophale) SiO2 
 PCOD9525182
Probable space group: I B A M
;
_chemical_formula_sum "Si O2"
_cell_formula_units_Z 80
_cell_length_a 28.671630
_cell_length_b 19.796237
_cell_length_c 8.704609
_cell_angle_alpha 90.000000
_cell_angle_beta 90.000000
_cell_angle_gamma 90.000000
_cell_volume 4940.652353
_symmetry_space_group_name_H-M "I B A M"
_symmetry_group_IT_number 72
_symmetry_cell_setting 'orthorhombic'
loop_
_space_group_symop_operation_xyz
x,y,z
-x,-y,z
x,-y,1/2-z
-x,y,1/2-z
-x,-y,-z
x,y,-z
-x,y,1/2+z
x,-y,1/2+z
1/2+x,1/2+y,1/2+z
1/2-x,1/2-y,1/2+z
1/2+x,1/2-y,-z
1/2-x,1/2+y,-z
1/2-x,1/2-y,1/2-z
1/2+x,1/2+y,1/2-z
1/2-x,1/2+y,z
1/2+x,1/2-y,z
loop_
_atom_site_type_symbol
_atom_site_label
_atom_site_fract_x
_atom_site_fract_y
_atom_site_fract_z
Si Si1 0.448088 0.425641 0.186159
Si Si2 0.799216 0.939292 0.673120
Si Si3 0.299055 0.218279 0.681771
Si Si4 0.799354 0.428566 0.179862
Si Si5 0.370522 0.318389 0.174661
O O1 0.434534 0.500000 0.250000
O O2 0.500000 0.413431 0.250000
O O3 0.414615 0.362708 0.230519
O O4 0.447581 0.429149 0.000000
O O5 0.782699 0.954241 0.500000
O O6 0.756047 0.930327 0.786100
O O7 0.830157 0.874236 0.664237
O O8 0.827476 0.000000 0.750000
O O9 0.291739 0.216211 0.500000
O O10 0.250000 0.250000 0.750000
O O11 0.310773 0.142928 0.742001
O O12 0.344761 0.262075 0.724983
O O13 0.817345 0.500000 0.250000
O O14 0.809443 0.426315 0.000000
O O15 0.380017 0.293486 0.000000
#
# Coordination Sequence:
#
# PCOD9525182 Si02
#       5
#    16  16  16  16  16
#     4  10  20  35  54  76 104 138 177 221 267 315
#     4  10  18  28  43  63  91 124 165 208 249 294
#     4  12  23  35  51  72 100 134 172 214 261 309
#     4  11  21  34  50  68  94 129 168 208 249 296
#     4  10  21  34  49  70  98 132 171 215 261 310
#
# _framework density 16.192194000000001
#
# number of rings (size 3 to 8) (size 9 to 14) (size 15 to 20)
#    0.000    1.400    2.000    7.200    0.000    2.400 
#    0.000    0.000    0.000    0.000    0.000    0.000 
#    0.000    0.800    0.000    8.400    0.000    4.600 
#
# Total GULP energy -222726.479683 kJ/mol
# GULP energy per Si atom -5568.161992 kJ/mol
# Density = 1.615534 g / cm^3
# Si number density = 16.192194 Si / 1000 Ang^3
#
#
#
# Elastic Constant Matrix: (Units=GPa)
#
#
# Indices 1 2 3 4 5 6 
#
# 1 65.9113 44.3877 24.7016 0.0000 0.0000 0.0000
# 2 44.3877 133.7318 64.2540 0.0000 0.0000 0.0000
# 3 24.7016 64.2540 114.3730 0.0000 0.0000 0.0000
# 4 0.0000 0.0000 0.0000 25.1491 0.0000 0.0000
# 5 0.0000 0.0000 0.0000 0.0000 12.7372 0.0000
# 6 0.0000 0.0000 0.0000 0.0000 0.0000 33.4267
#
#
#
# Elastic Compliance Matrix: (Units=1/GPa)
#
#
# Indices 1 2 3 4 5 6 
#
# 1 0.019592 -0.006122 -0.000792 0.000000 0.000000 0.000000
# 2 -0.006122 0.012156 -0.005507 0.000000 0.000000 0.000000
# 3 -0.000792 -0.005507 0.012008 0.000000 0.000000 0.000000
# 4 0.000000 0.000000 0.000000 0.039763 0.000000 0.000000
# 5 0.000000 0.000000 0.000000 0.000000 0.078510 0.000000
# 6 0.000000 0.000000 0.000000 0.000000 0.000000 0.029916
#
#
# Mechanical properties :
#
#
# Convention : Reuss Voigt Hill
#
# Bulk Modulus (GPa) = 52.87201 64.52252 58.69727
# Shear Modulus (GPa) = 22.41242 26.30744 24.35993
#
# Velocity S-wave (km/s) = 3.72445 4.03513 3.88290
# Velocity P-wave (km/s) = 7.15675 7.85138 7.51210
#
# Compressibility (1/GPa) = 0.01891360
#
# Stress axis : x y z
#
# Youngs Moduli (GPa) = 51.04188 82.26703 83.27835
#
# Poissons Ratio (x) = 0.50367 0.06594
# Poissons Ratio (y) = 0.31250 0.45858
# Poissons Ratio (z) = 0.04041 0.45301
#
# Static dielectric constant tensor:
#      x y z
#    x 1.548790 0.000000 0.000000 
#    y 0.000000 1.646700 0.000000 
#    z 0.000000 0.000000 1.549980 
# 
# From -- ./inp_files/9109.got.cif
#   From: 2010.05.17/outbox.cif.g08.bks.cpg/sg72_5_cif.got.tgz:9109.got - 2010.06.03 17:03:01.
