data_PCOD9525123
_publ_section_title
;
Structure prediction by ZEFSAII (Michael W. Deem and Ramdas Pophale) SiO2 
 PCOD9525123
Probable space group: I B A M
;
_chemical_formula_sum "Si O2"
_cell_formula_units_Z 128
_cell_length_a 12.617259
_cell_length_b 24.049847
_cell_length_c 21.754435
_cell_angle_alpha 90.000000
_cell_angle_beta 90.000000
_cell_angle_gamma 90.000000
_cell_volume 6601.234250
_symmetry_space_group_name_H-M "I B A M"
_symmetry_group_IT_number 72
_symmetry_cell_setting 'orthorhombic'
loop_
_space_group_symop_operation_xyz
x,y,z
-x,-y,z
x,-y,1/2-z
-x,y,1/2-z
-x,-y,-z
x,y,-z
-x,y,1/2+z
x,-y,1/2+z
1/2+x,1/2+y,1/2+z
1/2-x,1/2-y,1/2+z
1/2+x,1/2-y,-z
1/2-x,1/2+y,-z
1/2-x,1/2-y,1/2-z
1/2+x,1/2+y,1/2-z
1/2-x,1/2+y,z
1/2+x,1/2-y,z
loop_
_atom_site_type_symbol
_atom_site_label
_atom_site_fract_x
_atom_site_fract_y
_atom_site_fract_z
Si Si1 0.250139 0.655309 0.569481
Si Si2 0.618894 0.732758 0.156428
Si Si3 0.228064 0.831131 0.615959
Si Si4 0.619054 0.928018 0.114606
Si Si5 0.881246 0.442288 0.386341
Si Si6 0.428888 0.753236 0.067231
Si Si7 0.804850 0.563172 0.246526
Si Si8 0.881868 0.853707 0.240702
O O1 0.289870 0.658367 0.500000
O O2 0.332794 0.683347 0.614940
O O3 0.212752 0.594080 0.586546
O O4 0.143596 0.692420 0.573773
O O5 0.693121 0.786511 0.148420
O O6 0.508012 0.748042 0.124433
O O7 0.617773 0.705928 0.224184
O O8 0.298947 0.881765 0.590569
O O9 0.155666 0.797010 0.569320
O O10 0.147807 0.850199 0.669278
O O11 0.497237 0.920215 0.094681
O O12 0.637524 0.923953 0.188899
O O13 0.637170 0.992884 0.098844
O O14 0.880354 0.436394 0.312340
O O15 0.483013 0.754425 0.000000
O O16 0.762432 0.500000 0.250000
O O17 0.710837 0.606549 0.234546
O O18 0.000000 0.876449 0.250000
#
# Coordination Sequence:
#
# PCOD9525123 Si02
#       8
#    16  16  16  16  16  16  16  16
#     4  10  21  35  55  80 106 140 185 227 264 316
#     4  11  20  36  56  78 109 142 180 223 271 326
#     4  10  21  36  52  82 114 141 177 221 278 328
#     4   9  19  32  54  80 109 142 172 218 274 330
#     4  10  17  34  54  79 109 138 181 221 265 322
#     4  10  21  37  57  78 106 147 188 225 267 322
#     4   9  18  32  52  78 108 143 179 217 265 324
#     4  11  20  34  53  80 112 142 174 223 276 330
#
# _framework density 19.390312999999999
#
# number of rings (size 3 to 8) (size 9 to 14) (size 15 to 20)
#    0.000    2.000    2.500    1.875    0.000    2.250 
#    0.000    2.500    0.000    0.750    0.000    1.750 
#    0.000    0.000    0.000    0.000    0.000    0.000 
#
# Total GULP energy -356852.607535 kJ/mol
# GULP energy per Si atom -5575.821993 kJ/mol
# Density = 1.934618 g / cm^3
# Si number density = 19.390313 Si / 1000 Ang^3
#
#
#
# Elastic Constant Matrix: (Units=GPa)
#
#
# Indices 1 2 3 4 5 6 
#
# 1 45.0008 -2.3979 -5.4112 0.0000 0.0000 0.0000
# 2 -2.3979 28.2798 2.1587 0.0000 0.0000 0.0000
# 3 -5.4112 2.1587 17.2140 0.0000 0.0000 0.0000
# 4 0.0000 0.0000 0.0000 -2.7663 0.0000 0.0000
# 5 0.0000 0.0000 0.0000 0.0000 10.8448 0.0000
# 6 0.0000 0.0000 0.0000 0.0000 0.0000 29.9034
#
#
#
# Elastic Compliance Matrix: (Units=1/GPa)
#
#
# Indices 1 2 3 4 5 6 
#
# 1 0.023151 0.001421 0.007099 0.000000 0.000000 0.000000
# 2 0.001421 0.035790 -0.004041 0.000000 0.000000 0.000000
# 3 0.007099 -0.004041 0.060831 0.000000 0.000000 0.000000
# 4 0.000000 0.000000 0.000000 -0.361499 0.000000 0.000000
# 5 0.000000 0.000000 0.000000 0.000000 0.092210 0.000000
# 6 0.000000 0.000000 0.000000 0.000000 0.000000 0.033441
#
#
# Mechanical properties :
#
#
# Convention : Reuss Voigt Hill
#
# Bulk Modulus (GPa) = 7.76819 8.79930 8.28375
# Shear Modulus (GPa) = -60.88300 14.00606 -23.43847
#
# Velocity S-wave (km/s) = -5.60953 2.69052 -3.48051
# Velocity P-wave (km/s) = 6.15961 3.76825 3.44537
#
# Compressibility (1/GPa) = 0.12873011
#
# Stress axis : x y z
#
# Youngs Moduli (GPa) = 43.19430 27.94079 16.43906
#
# Poissons Ratio (x) = -0.03971 -0.11671
# Poissons Ratio (y) = -0.06138 0.06644
# Poissons Ratio (z) = -0.30665 0.11292
#
# Static dielectric constant tensor:
#      x y z
#    x 1.664430 0.000000 0.000000 
#    y 0.000000 1.683380 0.000000 
#    z 0.000000 0.000000 1.697130 
# 
# From -- ./inp_files/43709.got.cif
#   From: 2010.05.17/outbox.cif.g08.bks.cpg/sg72_22_cif.got.tgz:43709.got - 2010.06.03 17:03:01.
