data_PCOD9525428
_publ_section_title
;
Structure prediction by ZEFSAII (Michael W. Deem and Ramdas Pophale) SiO2 
 PCOD9525428
Probable space group: I B A M
;
_chemical_formula_sum "Si O2"
_cell_formula_units_Z 88
_cell_length_a 10.827719
_cell_length_b 14.046781
_cell_length_c 23.910200
_cell_angle_alpha 90.000000
_cell_angle_beta 90.000000
_cell_angle_gamma 90.000000
_cell_volume 3636.612246
_symmetry_space_group_name_H-M "I B A M"
_symmetry_group_IT_number 72
_symmetry_cell_setting 'orthorhombic'
loop_
_space_group_symop_operation_xyz
x,y,z
-x,-y,z
x,-y,1/2-z
-x,y,1/2-z
-x,-y,-z
x,y,-z
-x,y,1/2+z
x,-y,1/2+z
1/2+x,1/2+y,1/2+z
1/2-x,1/2-y,1/2+z
1/2+x,1/2-y,-z
1/2-x,1/2+y,-z
1/2-x,1/2-y,1/2-z
1/2+x,1/2+y,1/2-z
1/2-x,1/2+y,z
1/2+x,1/2-y,z
loop_
_atom_site_type_symbol
_atom_site_label
_atom_site_fract_x
_atom_site_fract_y
_atom_site_fract_z
Si Si1 0.752473 0.388213 0.000000
Si Si2 0.436865 0.139592 0.623784
Si Si3 0.449354 0.658006 0.812354
Si Si4 0.282649 0.858761 0.625435
Si Si5 0.120026 0.068660 0.500000
Si Si6 0.026042 0.614737 0.500000
Si Si7 0.327111 0.634785 0.379232
O O1 0.713404 0.368899 0.064677
O O2 0.740743 0.501840 0.000000
O O3 0.887529 0.344542 0.000000
O O4 0.441934 0.236072 0.659856
O O5 0.577307 0.097999 0.626322
O O6 0.416826 0.152959 0.556957
O O7 0.305280 0.089614 0.637083
O O8 0.500000 0.666885 0.750000
O O9 0.314538 0.615361 0.826133
O O10 0.557217 0.601611 0.843751
O O11 0.308403 0.746549 0.631440
O O12 0.130137 0.124579 0.556995
O O13 0.000000 0.000000 0.500000
O O14 0.000000 0.500000 0.500000
#
# Coordination Sequence:
#
# PCOD9525428 Si02
#       7
#     8  16  16  16   8   8  16
#     4  10  19  32  53  81 113 145 180 225 281 350
#     4   9  19  32  54  83 108 140 186 236 284 341
#     4  10  21  36  54  78 111 150 195 247 294 332
#     4   9  19  35  56  82 114 151 192 237 291 348
#     4  12  23  34  55  87 122 153 184 229 289 363
#     4  10  18  32  52  78 112 142 167 214 291 361
#     4  10  20  35  55  82 114 147 188 234 286 346
#
# _framework density 24.198346000000001
#
# number of rings (size 3 to 8) (size 9 to 14) (size 15 to 20)
#    0.000    2.182    0.000    3.273    0.000   10.909 
#    0.000    0.000    0.000    5.455    0.000   17.818 
#    0.000    0.000    0.000    0.000    0.000    0.000 
#
# Total GULP energy -245121.277697 kJ/mol
# GULP energy per Si atom -5570.938129 kJ/mol
# Density = 2.414327 g / cm^3
# Si number density = 24.198346 Si / 1000 Ang^3
#
#
#
# Elastic Constant Matrix: (Units=GPa)
#
#
# Indices 1 2 3 4 5 6 
#
# 1 208.7322 24.6056 82.6324 0.0000 0.0000 0.0000
# 2 24.6056 46.7942 19.9647 0.0000 0.0000 0.0000
# 3 82.6324 19.9647 123.6517 0.0000 0.0000 0.0000
# 4 0.0000 0.0000 0.0000 -66.8620 0.0000 0.0000
# 5 0.0000 0.0000 0.0000 0.0000 14.0952 0.0000
# 6 0.0000 0.0000 0.0000 0.0000 0.0000 28.2563
#
#
#
# Elastic Compliance Matrix: (Units=1/GPa)
#
#
# Indices 1 2 3 4 5 6 
#
# 1 0.006640 -0.001717 -0.004160 0.000000 0.000000 0.000000
# 2 -0.001717 0.023395 -0.002630 0.000000 0.000000 0.000000
# 3 -0.004160 -0.002630 0.011292 0.000000 0.000000 0.000000
# 4 0.000000 0.000000 0.000000 -0.014956 0.000000 0.000000
# 5 0.000000 0.000000 0.000000 0.000000 0.070946 0.000000
# 6 0.000000 0.000000 0.000000 0.000000 0.000000 0.035390
#
#
# Mechanical properties :
#
#
# Convention : Reuss Voigt Hill
#
# Bulk Modulus (GPa) = 41.13004 70.39817 55.76410
# Shear Modulus (GPa) = 31.68051 11.89626 21.78838
#
# Velocity S-wave (km/s) = 3.62221 2.21964 3.00394
# Velocity P-wave (km/s) = 5.87604 5.97699 5.92673
#
# Compressibility (1/GPa) = 0.02431313
#
# Stress axis : x y z
#
# Youngs Moduli (GPa) = 150.59974 42.74421 88.55794
#
# Poissons Ratio (x) = 0.07337 0.36842
# Poissons Ratio (y) = 0.25852 0.23293
# Poissons Ratio (z) = 0.62653 0.11243
#
# Static dielectric constant tensor:
#      x y z
#    x 2.128040 0.000000 0.000000 
#    y 0.000000 1.938800 0.000000 
#    z 0.000000 0.000000 1.941880 
# 
# From -- ./inp_files/36931.got.cif
#   From: 2010.05.17/outbox.cif.g08.bks.cpg/sg72_19_cif.got.tgz:36931.got - 2010.06.03 17:03:01.
