data_PCOD9525219
_publ_section_title
;
Structure prediction by ZEFSAII (Michael W. Deem and Ramdas Pophale) SiO2 
 PCOD9525219
Probable space group: I B A M
;
_chemical_formula_sum "Si O2"
_cell_formula_units_Z 96
_cell_length_a 29.404770
_cell_length_b 26.889737
_cell_length_c 8.706876
_cell_angle_alpha 90.000000
_cell_angle_beta 90.000000
_cell_angle_gamma 90.000000
_cell_volume 6884.409588
_symmetry_space_group_name_H-M "I B A M"
_symmetry_group_IT_number 72
_symmetry_cell_setting 'orthorhombic'
loop_
_space_group_symop_operation_xyz
x,y,z
-x,-y,z
x,-y,1/2-z
-x,y,1/2-z
-x,-y,-z
x,y,-z
-x,y,1/2+z
x,-y,1/2+z
1/2+x,1/2+y,1/2+z
1/2-x,1/2-y,1/2+z
1/2+x,1/2-y,-z
1/2-x,1/2+y,-z
1/2-x,1/2-y,1/2-z
1/2+x,1/2+y,1/2-z
1/2-x,1/2+y,z
1/2+x,1/2-y,z
loop_
_atom_site_type_symbol
_atom_site_label
_atom_site_fract_x
_atom_site_fract_y
_atom_site_fract_z
Si Si1 0.138907 0.745241 0.683089
Si Si2 0.360306 0.947635 0.682211
Si Si3 0.278766 0.703742 0.684115
Si Si4 0.951519 0.403138 0.683884
Si Si5 0.305526 0.143005 0.316590
Si Si6 0.951928 0.291535 0.816633
O O1 0.133915 0.748715 0.500000
O O2 0.171628 0.788896 0.744296
O O3 0.164697 0.692672 0.716235
O O4 0.090388 0.741635 0.764179
O O5 0.365082 0.950485 0.500000
O O6 0.409192 0.934699 0.756367
O O7 0.326526 0.903153 0.728187
O O8 0.344328 0.000000 0.750000
O O9 0.281210 0.707826 0.500000
O O10 0.250000 0.750000 0.750000
O O11 0.246853 0.656528 0.720697
O O12 0.952666 0.402580 0.500000
O O13 0.945107 0.346689 0.745079
O O14 0.000000 0.420671 0.750000
O O15 0.309088 0.134290 0.500000
O O16 0.000000 0.273295 0.750000
O O17 0.954102 0.295847 0.000000
#
# Coordination Sequence:
#
# PCOD9525219 Si02
#       6
#    16  16  16  16  16  16
#     4  10  18  29  46  66  89 112 139 174 211 252
#     4  12  24  36  50  65  82 108 141 178 223 267
#     4   9  17  28  44  65  88 110 136 168 209 254
#     4  11  21  35  50  64  82 104 138 178 222 266
#     4   9  18  32  47  63  86 110 136 174 214 256
#     4  11  20  30  45  64  86 114 145 176 216 258
#
# _framework density 13.944551000000001
#
# number of rings (size 3 to 8) (size 9 to 14) (size 15 to 20)
#    0.000    1.667    1.667    7.500    0.000    3.667 
#    0.000    1.667    0.000    0.000    0.000    0.000 
#    0.000    0.000    0.000    0.000    0.000    0.833 
#
# Total GULP energy -267865.802551 kJ/mol
# GULP energy per Si atom -5580.537553 kJ/mol
# Density = 1.391281 g / cm^3
# Si number density = 13.944551 Si / 1000 Ang^3
#
#
#
# Elastic Constant Matrix: (Units=GPa)
#
#
# Indices 1 2 3 4 5 6 
#
# 1 84.3830 37.3946 52.5555 0.0000 0.0000 0.0000
# 2 37.3946 42.0928 37.0647 0.0000 0.0000 0.0000
# 3 52.5555 37.0647 113.7320 0.0000 0.0000 0.0000
# 4 0.0000 0.0000 0.0000 16.8337 0.0000 0.0000
# 5 0.0000 0.0000 0.0000 0.0000 25.9858 0.0000
# 6 0.0000 0.0000 0.0000 0.0000 0.0000 13.3854
#
#
#
# Elastic Compliance Matrix: (Units=1/GPa)
#
#
# Indices 1 2 3 4 5 6 
#
# 1 0.021546 -0.014549 -0.005215 0.000000 0.000000 0.000000
# 2 -0.014549 0.043143 -0.007337 0.000000 0.000000 0.000000
# 3 -0.005215 -0.007337 0.013593 0.000000 0.000000 0.000000
# 4 0.000000 0.000000 0.000000 0.059405 0.000000 0.000000
# 5 0.000000 0.000000 0.000000 0.000000 0.038482 0.000000
# 6 0.000000 0.000000 0.000000 0.000000 0.000000 0.074708
#
#
# Mechanical properties :
#
#
# Convention : Reuss Voigt Hill
#
# Bulk Modulus (GPa) = 41.52759 54.91524 48.22142
# Shear Modulus (GPa) = 15.96896 18.78718 17.37807
#
# Velocity S-wave (km/s) = 3.38772 3.67451 3.53402
# Velocity P-wave (km/s) = 6.71918 7.58085 7.16298
#
# Compressibility (1/GPa) = 0.02408038
#
# Stress axis : x y z
#
# Youngs Moduli (GPa) = 46.41162 23.17879 73.56478
#
# Poissons Ratio (x) = 0.33724 0.38364
# Poissons Ratio (y) = 0.67526 0.53973
# Poissons Ratio (z) = 0.24204 0.17006
#
# Static dielectric constant tensor:
#      x y z
#    x 1.474220 0.000000 0.000000 
#    y 0.000000 1.438610 0.000000 
#    z 0.000000 0.000000 1.461590 
# 
# From -- ./inp_files/7115.got.cif
#   From: 2010.05.17/outbox.cif.g08.bks.cpg/sg72_4_cif.got.tgz:7115.got - 2010.06.03 17:03:01.
