data_PCOD9525129
_publ_section_title
;
Structure prediction by ZEFSAII (Michael W. Deem and Ramdas Pophale) SiO2 
 PCOD9525129
Probable space group: I B A M
;
_chemical_formula_sum "Si O2"
_cell_formula_units_Z 84
_cell_length_a 22.813339
_cell_length_b 12.602098
_cell_length_c 18.593728
_cell_angle_alpha 90.000000
_cell_angle_beta 90.000000
_cell_angle_gamma 90.000000
_cell_volume 5345.621194
_symmetry_space_group_name_H-M "I B A M"
_symmetry_group_IT_number 72
_symmetry_cell_setting 'orthorhombic'
loop_
_space_group_symop_operation_xyz
x,y,z
-x,-y,z
x,-y,1/2-z
-x,y,1/2-z
-x,-y,-z
x,y,-z
-x,y,1/2+z
x,-y,1/2+z
1/2+x,1/2+y,1/2+z
1/2-x,1/2-y,1/2+z
1/2+x,1/2-y,-z
1/2-x,1/2+y,-z
1/2-x,1/2-y,1/2-z
1/2+x,1/2+y,1/2-z
1/2-x,1/2+y,z
1/2+x,1/2-y,z
loop_
_atom_site_type_symbol
_atom_site_label
_atom_site_fract_x
_atom_site_fract_y
_atom_site_fract_z
Si Si1 0.826210 0.110627 0.323922
Si Si2 0.500000 0.500000 0.750000
Si Si3 0.107802 0.900173 0.174391
Si Si4 0.157085 0.277123 0.583533
Si Si5 0.209026 0.693175 0.584550
Si Si6 0.806305 0.524686 0.329032
O O1 0.853507 0.131496 0.245022
O O2 0.825661 0.213261 0.374375
O O3 0.759123 0.072374 0.317484
O O4 0.862989 0.010094 0.352932
O O5 0.543308 0.428686 0.702061
O O6 0.113028 0.807682 0.117266
O O7 0.146193 0.297893 0.500000
O O8 0.222131 0.224651 0.589738
O O9 0.158618 0.385367 0.628412
O O10 0.194366 0.687591 0.500000
O O11 0.198987 0.582014 0.624353
O O12 0.830548 0.500000 0.250000
#
# Coordination Sequence:
#
# PCOD9525129 Si02
#       6
#    16   4  16  16  16  16
#     4   9  17  28  45  65  94 128 162 194 234 280
#     4   8  20  32  58  72  90 116 168 218 244 288
#     4  10  17  35  49  73  92 123 165 210 247 275
#     4  10  20  29  44  68 102 133 157 193 239 285
#     4  10  19  28  41  68 103 137 163 184 225 294
#     4  11  17  28  44  68  96 137 166 188 223 286
#
# _framework density 15.713796
#
# number of rings (size 3 to 8) (size 9 to 14) (size 15 to 20)
#    0.000    2.286    3.810    1.714    0.000    4.571 
#    0.000    0.476    0.000    1.143    0.000   16.667 
#    0.000   19.810    0.000    0.000    0.000    0.000 
#
# Total GULP energy -234154.231882 kJ/mol
# GULP energy per Si atom -5575.100759 kJ/mol
# Density = 1.567803 g / cm^3
# Si number density = 15.713796 Si / 1000 Ang^3
#
#
#
# Elastic Constant Matrix: (Units=GPa)
#
#
# Indices 1 2 3 4 5 6 
#
# 1 52.3120 16.7225 28.5043 0.0000 0.0000 0.0000
# 2 16.7225 92.2228 74.7934 0.0000 0.0000 0.0000
# 3 28.5043 74.7934 120.1996 0.0000 0.0000 0.0000
# 4 0.0000 0.0000 0.0000 26.6622 0.0000 0.0000
# 5 0.0000 0.0000 0.0000 0.0000 12.6283 0.0000
# 6 0.0000 0.0000 0.0000 0.0000 0.0000 10.4984
#
#
#
# Elastic Compliance Matrix: (Units=1/GPa)
#
#
# Indices 1 2 3 4 5 6 
#
# 1 0.021964 0.000488 -0.005512 0.000000 0.000000 0.000000
# 2 0.000488 0.021901 -0.013743 0.000000 0.000000 0.000000
# 3 -0.005512 -0.013743 0.018178 0.000000 0.000000 0.000000
# 4 0.000000 0.000000 0.000000 0.037506 0.000000 0.000000
# 5 0.000000 0.000000 0.000000 0.000000 0.079187 0.000000
# 6 0.000000 0.000000 0.000000 0.000000 0.000000 0.095253
#
#
# Mechanical properties :
#
#
# Convention : Reuss Voigt Hill
#
# Bulk Modulus (GPa) = 40.80384 56.08611 48.44498
# Shear Modulus (GPa) = 15.64002 19.60540 17.62271
#
# Velocity S-wave (km/s) = 3.15827 3.53605 3.35248
# Velocity P-wave (km/s) = 6.27079 7.24163 6.77363
#
# Compressibility (1/GPa) = 0.02450749
#
# Stress axis : x y z
#
# Youngs Moduli (GPa) = 45.52998 45.66044 55.01081
#
# Poissons Ratio (x) = -0.02226 0.30321
# Poissons Ratio (y) = -0.02220 0.75603
# Poissons Ratio (z) = 0.25095 0.62752
#
# Static dielectric constant tensor:
#      x y z
#    x 1.495710 0.000000 0.000000 
#    y 0.000000 1.527320 0.000000 
#    z 0.000000 0.000000 1.533620 
# 
# From -- ./inp_files/33210.got.cif
#   From: 2010.05.17/outbox.cif.g08.bks.cpg/sg72_17_cif.got.tgz:33210.got - 2010.06.03 17:03:01.
