data_PCOD9525691
_publ_section_title
;
Structure prediction by ZEFSAII (Michael W. Deem and Ramdas Pophale) SiO2 
 PCOD9525691
Probable space group: I B A M
;
_chemical_formula_sum "Si O2"
_cell_formula_units_Z 80
_cell_length_a 13.277826
_cell_length_b 20.034700
_cell_length_c 18.298762
_cell_angle_alpha 90.000000
_cell_angle_beta 90.000000
_cell_angle_gamma 90.000000
_cell_volume 4867.786539
_symmetry_space_group_name_H-M "I B A M"
_symmetry_group_IT_number 72
_symmetry_cell_setting 'orthorhombic'
loop_
_space_group_symop_operation_xyz
x,y,z
-x,-y,z
x,-y,1/2-z
-x,y,1/2-z
-x,-y,-z
x,y,-z
-x,y,1/2+z
x,-y,1/2+z
1/2+x,1/2+y,1/2+z
1/2-x,1/2-y,1/2+z
1/2+x,1/2-y,-z
1/2-x,1/2+y,-z
1/2-x,1/2-y,1/2-z
1/2+x,1/2+y,1/2-z
1/2-x,1/2+y,z
1/2+x,1/2-y,z
loop_
_atom_site_type_symbol
_atom_site_label
_atom_site_fract_x
_atom_site_fract_y
_atom_site_fract_z
Si Si1 0.462404 0.222657 0.331448
Si Si2 0.132618 0.849063 0.415096
Si Si3 0.614123 0.424901 0.225163
Si Si4 0.347058 0.221507 0.083888
Si Si5 0.752776 0.185747 0.196084
O O1 0.500000 0.240397 0.250000
O O2 0.427987 0.288216 0.376537
O O3 0.557189 0.192500 0.373825
O O4 0.363937 0.176254 0.324888
O O5 0.104135 0.857863 0.500000
O O6 0.119687 0.911792 0.361690
O O7 0.249223 0.825585 0.412985
O O8 0.636460 0.500000 0.250000
O O9 0.500000 0.409805 0.250000
O O10 0.691131 0.373812 0.263606
O O11 0.314861 0.288941 0.126044
O O12 0.371960 0.234314 0.000000
O O13 0.750000 0.250000 0.250000
#
# Coordination Sequence:
#
# PCOD9525691 Si02
#       5
#    16  16  16  16  16
#     4  11  17  28  51  77 104 135 173 219 267 311
#     4  10  19  32  50  75 106 138 173 217 268 313
#     4  11  22  37  55  77 107 146 179 213 258 319
#     4  10  19  30  50  81 108 134 171 223 278 311
#     4  11  19  33  54  78 106 137 181 222 261 307
#
# _framework density 16.434574000000001
#
# number of rings (size 3 to 8) (size 9 to 14) (size 15 to 20)
#    0.000    1.400    6.000    2.400    0.000    0.800 
#    0.000    3.000    0.000    5.400    0.000    2.800 
#    0.000    0.000    0.000    0.000    0.000    0.000 
#
# Total GULP energy -223105.181353 kJ/mol
# GULP energy per Si atom -5577.629534 kJ/mol
# Density = 1.639717 g / cm^3
# Si number density = 16.434574 Si / 1000 Ang^3
#
#
#
# Elastic Constant Matrix: (Units=GPa)
#
#
# Indices 1 2 3 4 5 6 
#
# 1 106.5419 25.9970 46.3858 0.0000 0.0000 0.0000
# 2 25.9970 77.5467 42.5682 0.0000 0.0000 0.0000
# 3 46.3858 42.5682 162.7349 0.0000 0.0000 0.0000
# 4 0.0000 0.0000 0.0000 15.8907 0.0000 0.0000
# 5 0.0000 0.0000 0.0000 0.0000 29.5071 0.0000
# 6 0.0000 0.0000 0.0000 0.0000 0.0000 17.2003
#
#
#
# Elastic Compliance Matrix: (Units=1/GPa)
#
#
# Indices 1 2 3 4 5 6 
#
# 1 0.011059 -0.002309 -0.002548 0.000000 0.000000 0.000000
# 2 -0.002309 0.015539 -0.003407 0.000000 0.000000 0.000000
# 3 -0.002548 -0.003407 0.007762 0.000000 0.000000 0.000000
# 4 0.000000 0.000000 0.000000 0.062930 0.000000 0.000000
# 5 0.000000 0.000000 0.000000 0.000000 0.033890 0.000000
# 6 0.000000 0.000000 0.000000 0.000000 0.000000 0.058139
#
#
# Mechanical properties :
#
#
# Convention : Reuss Voigt Hill
#
# Bulk Modulus (GPa) = 56.07437 64.08062 60.07750
# Shear Modulus (GPa) = 23.60817 27.97778 25.79298
#
# Velocity S-wave (km/s) = 3.79422 4.13046 3.96591
# Velocity P-wave (km/s) = 7.30675 7.86280 7.58987
#
# Compressibility (1/GPa) = 0.01783346
#
# Stress axis : x y z
#
# Youngs Moduli (GPa) = 90.42617 64.35220 128.82475
#
# Poissons Ratio (x) = 0.14856 0.32829
# Poissons Ratio (y) = 0.20875 0.43888
# Poissons Ratio (z) = 0.23043 0.21923
#
# Static dielectric constant tensor:
#      x y z
#    x 1.597930 0.000000 0.000000 
#    y 0.000000 1.520730 0.000000 
#    z 0.000000 0.000000 1.587230 
# 
# From -- ./inp_files/30630.got.cif
#   From: 2010.05.17/outbox.cif.g08.bks.cpg/sg72_16_cif.got.tgz:30630.got - 2010.06.03 17:03:01.
