data_PCOD9525407
_publ_section_title
;
Structure prediction by ZEFSAII (Michael W. Deem and Ramdas Pophale) SiO2 
 PCOD9525407
Probable space group: I B A M
;
_chemical_formula_sum "Si O2"
_cell_formula_units_Z 104
_cell_length_a 8.461013
_cell_length_b 18.736750
_cell_length_c 28.452967
_cell_angle_alpha 90.000000
_cell_angle_beta 90.000000
_cell_angle_gamma 90.000000
_cell_volume 4510.702502
_symmetry_space_group_name_H-M "I B A M"
_symmetry_group_IT_number 72
_symmetry_cell_setting 'orthorhombic'
loop_
_space_group_symop_operation_xyz
x,y,z
-x,-y,z
x,-y,1/2-z
-x,y,1/2-z
-x,-y,-z
x,y,-z
-x,y,1/2+z
x,-y,1/2+z
1/2+x,1/2+y,1/2+z
1/2-x,1/2-y,1/2+z
1/2+x,1/2-y,-z
1/2-x,1/2+y,-z
1/2-x,1/2-y,1/2-z
1/2+x,1/2+y,1/2-z
1/2-x,1/2+y,z
1/2+x,1/2-y,z
loop_
_atom_site_type_symbol
_atom_site_label
_atom_site_fract_x
_atom_site_fract_y
_atom_site_fract_z
Si Si1 0.456874 0.103767 0.424383
Si Si2 0.445888 0.134315 0.678976
Si Si3 0.455389 0.309738 0.000000
Si Si4 0.752612 0.836798 0.760319
Si Si5 0.067721 0.801923 0.653630
Si Si6 0.770635 0.386922 0.000000
Si Si7 0.262142 0.542476 0.500000
Si Si8 0.788015 0.772880 0.408916
O O1 0.466270 0.089689 0.368636
O O2 0.615042 0.112086 0.454680
O O3 0.348294 0.050010 0.453958
O O4 0.355176 0.176806 0.424468
O O5 0.287963 0.124851 0.710857
O O6 0.604101 0.133853 0.709799
O O7 0.441212 0.218283 0.666218
O O8 0.395771 0.268134 0.954616
O O9 0.641103 0.324885 0.000000
O O10 0.372366 0.387910 0.000000
O O11 0.750000 0.750000 0.750000
O O12 0.895876 0.842974 0.797924
O O13 0.215818 0.796813 0.617103
O O14 0.903791 0.815300 0.627281
O O15 0.676490 0.462328 0.000000
#
# Coordination Sequence:
#
# PCOD9525407 Si02
#       8
#    16  16   8  16  16   8   8  16
#     4   9  19  34  53  79 103 128 173 223 264 317
#     4   9  17  30  46  73 103 142 180 229 246 293
#     4  10  23  36  51  83 109 126 175 233 269 327
#     4   9  17  28  47  71 103 148 190 220 250 288
#     4  10  18  32  48  67 102 156 191 210 253 294
#     4  11  21  37  64  78  98 132 165 219 294 352
#     4   9  19  41  61  81  99 128 164 216 289 355
#     4  10  21  33  49  70 109 147 187 228 251 300
#
# _framework density 23.056276
#
# number of rings (size 3 to 8) (size 9 to 14) (size 15 to 20)
#    0.000    2.462    1.538    1.615    2.154    0.615 
#    0.000    1.538    0.000    0.000    0.000    8.615 
#    0.000    0.000   15.692    0.000    0.000    0.000 
#
# Total GULP energy -289781.076505 kJ/mol
# GULP energy per Si atom -5572.713010 kJ/mol
# Density = 2.300380 g / cm^3
# Si number density = 23.056276 Si / 1000 Ang^3
#
#
#
# Elastic Constant Matrix: (Units=GPa)
#
#
# Indices 1 2 3 4 5 6 
#
# 1 117.6314 23.7276 58.7865 0.0000 0.0000 0.0000
# 2 23.7276 54.4685 19.4162 0.0000 0.0000 0.0000
# 3 58.7865 19.4162 182.8956 0.0000 0.0000 0.0000
# 4 0.0000 0.0000 0.0000 2.2717 0.0000 0.0000
# 5 0.0000 0.0000 0.0000 0.0000 51.8324 0.0000
# 6 0.0000 0.0000 0.0000 0.0000 0.0000 27.0885
#
#
#
# Elastic Compliance Matrix: (Units=1/GPa)
#
#
# Indices 1 2 3 4 5 6 
#
# 1 0.010764 -0.003592 -0.003079 0.000000 0.000000 0.000000
# 2 -0.003592 0.020280 -0.000998 0.000000 0.000000 0.000000
# 3 -0.003079 -0.000998 0.006563 0.000000 0.000000 0.000000
# 4 0.000000 0.000000 0.000000 0.440189 0.000000 0.000000
# 5 0.000000 0.000000 0.000000 0.000000 0.019293 0.000000
# 6 0.000000 0.000000 0.000000 0.000000 0.000000 0.036916
#
#
# Mechanical properties :
#
#
# Convention : Reuss Voigt Hill
#
# Bulk Modulus (GPa) = 44.90415 62.09511 53.49963
# Shear Modulus (GPa) = 8.98044 33.10955 21.04499
#
# Velocity S-wave (km/s) = 1.97572 3.79361 3.02448
# Velocity P-wave (km/s) = 4.97220 6.79552 5.95407
#
# Compressibility (1/GPa) = 0.02226966
#
# Stress axis : x y z
#
# Youngs Moduli (GPa) = 92.90135 49.31027 152.36707
#
# Poissons Ratio (x) = 0.17711 0.46906
# Poissons Ratio (y) = 0.33367 0.15213
# Poissons Ratio (z) = 0.28600 0.04923
#
# Static dielectric constant tensor:
#      x y z
#    x 2.051700 0.000000 0.000000 
#    y 0.000000 1.827700 0.000000 
#    z 0.000000 0.000000 2.134580 
# 
# From -- ./inp_files/50978.got.cif
#   From: 2010.05.17/outbox.cif.g08.bks.cpg/sg72_26_cif.got.tgz:50978.got - 2010.06.03 17:03:01.
