data_PCOD9525260
_publ_section_title
;
Structure prediction by ZEFSAII (Michael W. Deem and Ramdas Pophale) SiO2 
 PCOD9525260
Probable space group: I B A M
;
_chemical_formula_sum "Si O2"
_cell_formula_units_Z 80
_cell_length_a 9.721947
_cell_length_b 18.815314
_cell_length_c 22.243909
_cell_angle_alpha 90.000000
_cell_angle_beta 90.000000
_cell_angle_gamma 90.000000
_cell_volume 4068.888878
_symmetry_space_group_name_H-M "I B A M"
_symmetry_group_IT_number 72
_symmetry_cell_setting 'orthorhombic'
loop_
_space_group_symop_operation_xyz
x,y,z
-x,-y,z
x,-y,1/2-z
-x,y,1/2-z
-x,-y,-z
x,y,-z
-x,y,1/2+z
x,-y,1/2+z
1/2+x,1/2+y,1/2+z
1/2-x,1/2-y,1/2+z
1/2+x,1/2-y,-z
1/2-x,1/2+y,-z
1/2-x,1/2-y,1/2-z
1/2+x,1/2+y,1/2-z
1/2-x,1/2+y,z
1/2+x,1/2-y,z
loop_
_atom_site_type_symbol
_atom_site_label
_atom_site_fract_x
_atom_site_fract_y
_atom_site_fract_z
Si Si1 0.537150 0.327537 0.111496
Si Si2 0.403362 0.754702 0.500000
Si Si3 0.345452 0.165036 0.500000
Si Si4 0.156406 0.967763 0.568541
Si Si5 0.244549 0.899567 0.873183
Si Si6 0.632531 0.214873 0.209012
O O1 0.643123 0.386013 0.087136
O O2 0.410375 0.371640 0.139689
O O3 0.602823 0.271250 0.156048
O O4 0.463924 0.285456 0.057808
O O5 0.489572 0.827381 0.500000
O O6 0.240018 0.740668 0.500000
O O7 0.294426 0.127866 0.560966
O O8 0.208607 0.974167 0.500000
O O9 0.237423 0.015999 0.616396
O O10 0.000000 0.000000 0.566959
O O11 0.331164 0.859909 0.822458
O O12 0.500000 0.206896 0.250000
O O13 0.750000 0.250000 0.250000
#
# Coordination Sequence:
#
# PCOD9525260 Si02
#       6
#    16   8   8  16  16  16
#     4  10  19  34  57  88 118 149 193 246 304 361
#     4  10  18  29  53  89 115 141 182 242 304 362
#     4  10  18  29  53  89 115 141 186 240 304 358
#     4   9  16  30  57  92 123 145 178 241 315 371
#     4  10  19  34  57  88 119 150 192 245 305 362
#     4  12  24  39  58  83 116 166 215 250 286 344
#
# _framework density 19.661387000000001
#
# number of rings (size 3 to 8) (size 9 to 14) (size 15 to 20)
#    0.000    1.800    6.000    0.000    0.000    0.000 
#    0.000    1.000    0.000    2.400    0.000    2.800 
#    0.000    0.000    0.000    0.000    0.000    0.000 
#
# Total GULP energy -223010.142693 kJ/mol
# GULP energy per Si atom -5575.253567 kJ/mol
# Density = 1.961664 g / cm^3
# Si number density = 19.661387 Si / 1000 Ang^3
#
#
#
# Elastic Constant Matrix: (Units=GPa)
#
#
# Indices 1 2 3 4 5 6 
#
# 1 50.2171 -1.3764 21.5278 0.0000 0.0000 0.0000
# 2 -1.3764 59.1764 25.8479 0.0000 0.0000 0.0000
# 3 21.5278 25.8479 91.1367 0.0000 0.0000 0.0000
# 4 0.0000 0.0000 0.0000 22.1198 0.0000 0.0000
# 5 0.0000 0.0000 0.0000 0.0000 21.2855 0.0000
# 6 0.0000 0.0000 0.0000 0.0000 0.0000 15.1502
#
#
#
# Elastic Compliance Matrix: (Units=1/GPa)
#
#
# Indices 1 2 3 4 5 6 
#
# 1 0.022700 0.003276 -0.006291 0.000000 0.000000 0.000000
# 2 0.003276 0.019761 -0.006378 0.000000 0.000000 0.000000
# 3 -0.006291 -0.006378 0.014268 0.000000 0.000000 0.000000
# 4 0.000000 0.000000 0.000000 0.045208 0.000000 0.000000
# 5 0.000000 0.000000 0.000000 0.000000 0.046980 0.000000
# 6 0.000000 0.000000 0.000000 0.000000 0.000000 0.066006
#
#
# Mechanical properties :
#
#
# Convention : Reuss Voigt Hill
#
# Bulk Modulus (GPa) = 26.35631 32.50319 29.42975
# Shear Modulus (GPa) = 20.29569 22.01317 21.15443
#
# Velocity S-wave (km/s) = 3.21637 3.34969 3.28371
# Velocity P-wave (km/s) = 5.21801 5.61498 5.42013
#
# Compressibility (1/GPa) = 0.03794158
#
# Stress axis : x y z
#
# Youngs Moduli (GPa) = 44.05220 50.60511 70.08879
#
# Poissons Ratio (x) = -0.16578 0.44095
# Poissons Ratio (y) = -0.14431 0.44705
# Poissons Ratio (z) = 0.27714 0.32278
#
# Static dielectric constant tensor:
#      x y z
#    x 1.729210 0.000000 0.000000 
#    y 0.000000 1.727360 0.000000 
#    z 0.000000 0.000000 1.668260 
# 
# From -- ./inp_files/29223.got.cif
#   From: 2010.05.17/outbox.cif.g08.bks.cpg/sg72_15_cif.got.tgz:29223.got - 2010.06.03 17:03:01.
