data_PCOD9525601
_publ_section_title
;
Structure prediction by ZEFSAII (Michael W. Deem and Ramdas Pophale) SiO2 
 PCOD9525601
Probable space group: I B A M
;
_chemical_formula_sum "Si O2"
_cell_formula_units_Z 92
_cell_length_a 26.255174
_cell_length_b 8.433522
_cell_length_c 19.325243
_cell_angle_alpha 90.000000
_cell_angle_beta 90.000000
_cell_angle_gamma 90.000000
_cell_volume 4279.064635
_symmetry_space_group_name_H-M "I B A M"
_symmetry_group_IT_number 72
_symmetry_cell_setting 'orthorhombic'
loop_
_space_group_symop_operation_xyz
x,y,z
-x,-y,z
x,-y,1/2-z
-x,y,1/2-z
-x,-y,-z
x,y,-z
-x,y,1/2+z
x,-y,1/2+z
1/2+x,1/2+y,1/2+z
1/2-x,1/2-y,1/2+z
1/2+x,1/2-y,-z
1/2-x,1/2+y,-z
1/2-x,1/2-y,1/2-z
1/2+x,1/2+y,1/2-z
1/2-x,1/2+y,z
1/2+x,1/2-y,z
loop_
_atom_site_type_symbol
_atom_site_label
_atom_site_fract_x
_atom_site_fract_y
_atom_site_fract_z
Si Si1 0.416165 0.763132 0.223939
Si Si2 0.127231 0.974339 0.500000
Si Si3 0.322316 0.064630 0.343256
Si Si4 0.278151 0.329706 0.000000
Si Si5 0.500000 0.000000 0.750000
Si Si6 0.841957 0.378985 0.500000
Si Si7 0.390284 0.433989 0.847232
Si Si8 0.212950 0.774403 0.848321
O O1 0.366174 0.855877 0.201085
O O2 0.412654 0.596402 0.183537
O O3 0.415416 0.711030 0.305036
O O4 0.462960 0.879493 0.209556
O O5 0.125777 0.784685 0.500000
O O6 0.188168 0.011217 0.500000
O O7 0.105614 0.051766 0.429970
O O8 0.347016 0.053895 0.421404
O O9 0.271013 0.171970 0.340182
O O10 0.302405 0.893938 0.318344
O O11 0.218881 0.355678 0.000000
O O12 0.292535 0.243749 0.930401
O O13 0.329538 0.407704 0.831360
#
# Coordination Sequence:
#
# PCOD9525601 Si02
#       8
#    16   8  16   8   4   8  16  16
#     4  11  24  44  68  95 122 165 218 275 322 395
#     4  10  18  38  60  93 132 176 212 266 301 374
#     4  11  21  34  59  91 136 177 223 259 316 371
#     4   8  19  26  50  82 132 183 232 242 289 367
#     4  12  28  50  76  94 124 162 212 266 344 404
#     4  10  19  28  56  87 131 183 216 261 301 365
#     4  10  22  41  68  98 133 169 216 253 321 378
#     4  10  20  33  55  94 136 183 215 262 302 377
#
# _framework density 21.500025999999998
#
# number of rings (size 3 to 8) (size 9 to 14) (size 15 to 20)
#    0.000    1.739    1.739    2.609   12.174    2.087 
#    0.000    1.739    0.000    5.739    0.000    0.000 
#    0.000    0.000    0.000    0.000    0.000    0.000 
#
# Total GULP energy -256495.611254 kJ/mol
# GULP energy per Si atom -5575.991549 kJ/mol
# Density = 2.145109 g / cm^3
# Si number density = 21.500026 Si / 1000 Ang^3
#
#
#
# Elastic Constant Matrix: (Units=GPa)
#
#
# Indices 1 2 3 4 5 6 
#
# 1 83.7228 58.7162 31.6530 0.0000 0.0000 0.0000
# 2 58.7162 114.8114 46.4798 0.0000 0.0000 0.0000
# 3 31.6530 46.4798 129.9164 0.0000 0.0000 0.0000
# 4 0.0000 0.0000 0.0000 25.0012 0.0000 0.0000
# 5 0.0000 0.0000 0.0000 0.0000 7.9543 0.0000
# 6 0.0000 0.0000 0.0000 0.0000 0.0000 36.3168
#
#
#
# Elastic Compliance Matrix: (Units=1/GPa)
#
#
# Indices 1 2 3 4 5 6 
#
# 1 0.018820 -0.009084 -0.001335 0.000000 0.000000 0.000000
# 2 -0.009084 0.014570 -0.002999 0.000000 0.000000 0.000000
# 3 -0.001335 -0.002999 0.009096 0.000000 0.000000 0.000000
# 4 0.000000 0.000000 0.000000 0.039998 0.000000 0.000000
# 5 0.000000 0.000000 0.000000 0.000000 0.125718 0.000000
# 6 0.000000 0.000000 0.000000 0.000000 0.000000 0.027535
#
#
# Mechanical properties :
#
#
# Convention : Reuss Voigt Hill
#
# Bulk Modulus (GPa) = 63.90657 66.90541 65.40599
# Shear Modulus (GPa) = 18.67130 26.62790 22.64960
#
# Velocity S-wave (km/s) = 2.95011 3.52306 3.24924
# Velocity P-wave (km/s) = 6.43372 6.90909 6.67564
#
# Compressibility (1/GPa) = 0.01564784
#
# Stress axis : x y z
#
# Youngs Moduli (GPa) = 53.13517 68.63418 109.94252
#
# Poissons Ratio (x) = 0.62349 0.14680
# Poissons Ratio (y) = 0.48269 0.32976
# Poissons Ratio (z) = 0.07095 0.20586
#
# Static dielectric constant tensor:
#      x y z
#    x 1.743210 0.000000 0.000000 
#    y 0.000000 1.823960 0.000000 
#    z 0.000000 0.000000 1.895900 
# 
# From -- ./inp_files/40746.got.cif
#   From: 2010.05.17/outbox.cif.g08.bks.cpg/sg72_21_cif.got.tgz:40746.got - 2010.06.03 17:03:01.
