data_PCOD9525737
_publ_section_title
;
Structure prediction by ZEFSAII (Michael W. Deem and Ramdas Pophale) SiO2 
 PCOD9525737
Probable space group: I B A M
;
_chemical_formula_sum "Si O2"
_cell_formula_units_Z 112
_cell_length_a 11.357196
_cell_length_b 16.770161
_cell_length_c 30.140085
_cell_angle_alpha 90.000000
_cell_angle_beta 90.000000
_cell_angle_gamma 90.000000
_cell_volume 5740.541033
_symmetry_space_group_name_H-M "I B A M"
_symmetry_group_IT_number 72
_symmetry_cell_setting 'orthorhombic'
loop_
_space_group_symop_operation_xyz
x,y,z
-x,-y,z
x,-y,1/2-z
-x,y,1/2-z
-x,-y,-z
x,y,-z
-x,y,1/2+z
x,-y,1/2+z
1/2+x,1/2+y,1/2+z
1/2-x,1/2-y,1/2+z
1/2+x,1/2-y,-z
1/2-x,1/2+y,-z
1/2-x,1/2-y,1/2-z
1/2+x,1/2+y,1/2-z
1/2-x,1/2+y,z
1/2+x,1/2-y,z
loop_
_atom_site_type_symbol
_atom_site_label
_atom_site_fract_x
_atom_site_fract_y
_atom_site_fract_z
Si Si1 0.095481 0.284784 0.171669
Si Si2 0.599519 0.796256 0.099086
Si Si3 0.068786 0.420363 0.052827
Si Si4 0.787774 0.139765 0.105387
Si Si5 0.624787 0.463693 0.318871
Si Si6 0.763843 0.867372 0.831901
Si Si7 0.667684 0.908494 0.742507
O O1 0.199535 0.317228 0.139871
O O2 0.135154 0.195113 0.182302
O O3 0.095149 0.350641 0.210269
O O4 0.979595 0.279681 0.142455
O O5 0.516820 0.847631 0.067099
O O6 0.645391 0.711850 0.080827
O O7 0.707689 0.844745 0.120833
O O8 0.000000 0.500000 0.068096
O O9 0.197124 0.410161 0.075215
O O10 0.081648 0.422998 0.000000
O O11 0.876195 0.090312 0.136794
O O12 0.500000 0.500000 0.304729
O O13 0.696786 0.541806 0.333088
O O14 0.702446 0.420147 0.280814
O O15 0.677372 0.866484 0.789799
O O16 0.627330 0.000000 0.750000
#
# Coordination Sequence:
#
# PCOD9525737 Si02
#       7
#    16  16  16  16  16  16  16
#     4   9  18  33  49  71 104 142 182 224 271 321
#     4  10  20  35  55  78 106 140 177 221 274 332
#     4  10  21  38  61  86 112 144 179 222 282 347
#     4   9  19  35  55  81 109 138 181 229 273 336
#     4  10  19  33  52  73 102 142 183 227 278 330
#     4  10  19  31  49  73 102 139 182 226 269 318
#     4   9  19  32  45  70 103 138 187 233 271 318
#
# _framework density 19.510356000000002
#
# number of rings (size 3 to 8) (size 9 to 14) (size 15 to 20)
#    0.000    2.429    0.000    2.143    0.000    4.857 
#    0.000    3.571    0.000    0.429    0.000    0.000 
#    0.000    0.000    0.000    0.000    0.000    0.000 
#
# Total GULP energy -312043.471616 kJ/mol
# GULP energy per Si atom -5572.204850 kJ/mol
# Density = 1.946595 g / cm^3
# Si number density = 19.510356 Si / 1000 Ang^3
#
#
#
# Elastic Constant Matrix: (Units=GPa)
#
#
# Indices 1 2 3 4 5 6 
#
# 1 64.6091 3.3556 2.5221 0.0000 0.0000 0.0000
# 2 3.3556 61.6451 11.5123 0.0000 0.0000 0.0000
# 3 2.5221 11.5123 34.8500 0.0000 0.0000 0.0000
# 4 0.0000 0.0000 0.0000 22.4676 0.0000 0.0000
# 5 0.0000 0.0000 0.0000 0.0000 17.3888 0.0000
# 6 0.0000 0.0000 0.0000 0.0000 0.0000 12.6652
#
#
#
# Elastic Compliance Matrix: (Units=1/GPa)
#
#
# Indices 1 2 3 4 5 6 
#
# 1 0.015548 -0.000678 -0.000901 0.000000 0.000000 0.000000
# 2 -0.000678 0.017318 -0.005672 0.000000 0.000000 0.000000
# 3 -0.000901 -0.005672 0.030633 0.000000 0.000000 0.000000
# 4 0.000000 0.000000 0.000000 0.044509 0.000000 0.000000
# 5 0.000000 0.000000 0.000000 0.000000 0.057508 0.000000
# 6 0.000000 0.000000 0.000000 0.000000 0.000000 0.078957
#
#
# Mechanical properties :
#
#
# Convention : Reuss Voigt Hill
#
# Bulk Modulus (GPa) = 20.40929 21.76491 21.08710
# Shear Modulus (GPa) = 18.16153 20.08527 19.12340
#
# Velocity S-wave (km/s) = 3.05432 3.21201 3.13416
# Velocity P-wave (km/s) = 4.78769 4.99358 4.89172
#
# Compressibility (1/GPa) = 0.04899730
#
# Stress axis : x y z
#
# Youngs Moduli (GPa) = 64.31662 57.74341 32.64432
#
# Poissons Ratio (x) = 0.03915 0.02942
# Poissons Ratio (y) = 0.04361 0.18515
# Poissons Ratio (z) = 0.05796 0.32750
#
# Static dielectric constant tensor:
#      x y z
#    x 1.754150 0.000000 0.000000 
#    y 0.000000 1.725560 0.000000 
#    z 0.000000 0.000000 1.676520 
# 
# From -- ./inp_files/51448.got.cif
#   From: 2010.05.17/outbox.cif.g08.bks.cpg/sg72_26_cif.got.tgz:51448.got - 2010.06.03 17:03:01.
