data_PCOD9525919
_publ_section_title
;
Structure prediction by ZEFSAII (Michael W. Deem and Ramdas Pophale) SiO2 
 PCOD9525919
Probable space group: I B A M
;
_chemical_formula_sum "Si O2"
_cell_formula_units_Z 96
_cell_length_a 17.301911
_cell_length_b 11.011271
_cell_length_c 25.984381
_cell_angle_alpha 90.000000
_cell_angle_beta 90.000000
_cell_angle_gamma 90.000000
_cell_volume 4950.441132
_symmetry_space_group_name_H-M "I B A M"
_symmetry_group_IT_number 72
_symmetry_cell_setting 'orthorhombic'
loop_
_space_group_symop_operation_xyz
x,y,z
-x,-y,z
x,-y,1/2-z
-x,y,1/2-z
-x,-y,-z
x,y,-z
-x,y,1/2+z
x,-y,1/2+z
1/2+x,1/2+y,1/2+z
1/2-x,1/2-y,1/2+z
1/2+x,1/2-y,-z
1/2-x,1/2+y,-z
1/2-x,1/2-y,1/2-z
1/2+x,1/2+y,1/2-z
1/2-x,1/2+y,z
1/2+x,1/2-y,z
loop_
_atom_site_type_symbol
_atom_site_label
_atom_site_fract_x
_atom_site_fract_y
_atom_site_fract_z
Si Si1 0.043679 0.743700 0.302385
Si Si2 0.705249 0.153733 0.560761
Si Si3 0.341836 0.035226 0.302209
Si Si4 0.093045 0.014129 0.810722
Si Si5 0.778909 0.914557 0.615410
Si Si6 0.559897 0.888606 0.123224
O O1 0.086201 0.619779 0.288286
O O2 0.105679 0.842850 0.319118
O O3 0.000000 0.782554 0.250000
O O4 0.988843 0.718432 0.350921
O O5 0.718306 0.153271 0.500000
O O6 0.720473 0.289891 0.582941
O O7 0.614485 0.132247 0.574672
O O8 0.753808 0.039316 0.585145
O O9 0.286729 0.101088 0.341599
O O10 0.300192 0.000000 0.250000
O O11 0.378502 0.922845 0.332282
O O12 0.110991 0.000000 0.750000
O O13 0.143172 0.938680 0.851292
O O14 0.000000 0.000000 0.818051
O O15 0.500000 0.000000 0.115239
#
# Coordination Sequence:
#
# PCOD9525919 Si02
#       6
#    16  16  16  16  16  16
#     4  11  18  32  56  84 128 165 199 238 296 369
#     4  11  24  44  66  87 118 164 214 273 321 355
#     4  10  19  32  55  88 123 163 195 245 301 367
#     4  11  22  35  55  86 126 167 192 237 307 378
#     4  11  24  41  62  91 123 159 215 260 313 377
#     4   9  20  35  59  92 122 160 207 251 302 372
#
# _framework density 19.392209999999999
#
# number of rings (size 3 to 8) (size 9 to 14) (size 15 to 20)
#    0.000    1.500    3.333    3.000    0.000    0.333 
#    0.000    4.167    0.000   15.000    0.000    0.000 
#    0.000    0.000    0.000    0.000    0.000    0.000 
#
# Total GULP energy -267405.353133 kJ/mol
# GULP energy per Si atom -5570.944857 kJ/mol
# Density = 1.934807 g / cm^3
# Si number density = 19.392210 Si / 1000 Ang^3
#
#
#
# Elastic Constant Matrix: (Units=GPa)
#
#
# Indices 1 2 3 4 5 6 
#
# 1 79.6473 32.7027 50.6054 0.0000 0.0000 0.0000
# 2 32.7027 113.5166 54.6962 0.0000 0.0000 0.0000
# 3 50.6054 54.6962 124.6665 0.0000 0.0000 0.0000
# 4 0.0000 0.0000 0.0000 27.2555 0.0000 0.0000
# 5 0.0000 0.0000 0.0000 0.0000 18.9339 0.0000
# 6 0.0000 0.0000 0.0000 0.0000 0.0000 10.3518
#
#
#
# Elastic Compliance Matrix: (Units=1/GPa)
#
#
# Indices 1 2 3 4 5 6 
#
# 1 0.017279 -0.002027 -0.006125 0.000000 0.000000 0.000000
# 2 -0.002027 0.011409 -0.004183 0.000000 0.000000 0.000000
# 3 -0.006125 -0.004183 0.012343 0.000000 0.000000 0.000000
# 4 0.000000 0.000000 0.000000 0.036690 0.000000 0.000000
# 5 0.000000 0.000000 0.000000 0.000000 0.052815 0.000000
# 6 0.000000 0.000000 0.000000 0.000000 0.000000 0.096601
#
#
# Mechanical properties :
#
#
# Convention : Reuss Voigt Hill
#
# Bulk Modulus (GPa) = 61.11777 65.98213 63.54995
# Shear Modulus (GPa) = 19.43566 23.29666 21.36616
#
# Velocity S-wave (km/s) = 3.16925 3.46980 3.32292
# Velocity P-wave (km/s) = 6.70651 7.08178 6.89670
#
# Compressibility (1/GPa) = 0.01636185
#
# Stress axis : x y z
#
# Youngs Moduli (GPa) = 57.87367 87.65383 81.01937
#
# Poissons Ratio (x) = 0.17765 0.49623
# Poissons Ratio (y) = 0.11729 0.33888
# Poissons Ratio (z) = 0.35446 0.36663
#
# Static dielectric constant tensor:
#      x y z
#    x 1.697690 0.000000 0.000000 
#    y 0.000000 1.755470 0.000000 
#    z 0.000000 0.000000 1.687240 
# 
# From -- ./inp_files/49038.got.cif
#   From: 2010.05.17/outbox.cif.g08.bks.cpg/sg72_25_cif.got.tgz:49038.got - 2010.06.03 17:03:01.
