data_PCOD9525895
_publ_section_title
;
Structure prediction by ZEFSAII (Michael W. Deem and Ramdas Pophale) SiO2 
 PCOD9525895
Probable space group: I B A M
;
_chemical_formula_sum "Si O2"
_cell_formula_units_Z 64
_cell_length_a 22.053962
_cell_length_b 8.953272
_cell_length_c 15.198121
_cell_angle_alpha 90.000000
_cell_angle_beta 90.000000
_cell_angle_gamma 90.000000
_cell_volume 3000.946813
_symmetry_space_group_name_H-M "I B A M"
_symmetry_group_IT_number 72
_symmetry_cell_setting 'orthorhombic'
loop_
_space_group_symop_operation_xyz
x,y,z
-x,-y,z
x,-y,1/2-z
-x,y,1/2-z
-x,-y,-z
x,y,-z
-x,y,1/2+z
x,-y,1/2+z
1/2+x,1/2+y,1/2+z
1/2-x,1/2-y,1/2+z
1/2+x,1/2-y,-z
1/2-x,1/2+y,-z
1/2-x,1/2-y,1/2-z
1/2+x,1/2+y,1/2-z
1/2-x,1/2+y,z
1/2+x,1/2-y,z
loop_
_atom_site_type_symbol
_atom_site_label
_atom_site_fract_x
_atom_site_fract_y
_atom_site_fract_z
Si Si1 0.553940 0.393777 0.897982
Si Si2 0.938938 0.563480 0.848699
Si Si3 0.806907 0.571758 0.848260
Si Si4 0.686244 0.430752 0.152493
O O1 0.500000 0.500000 0.867827
O O2 0.554773 0.241197 0.844298
O O3 0.621407 0.460745 0.891683
O O4 0.542193 0.355220 0.000000
O O5 0.936976 0.500000 0.750000
O O6 0.872543 0.532566 0.889237
O O7 0.000000 0.500000 0.891725
O O8 0.807745 0.500000 0.750000
O O9 0.745772 0.505814 0.889610
O O10 0.803855 0.751707 0.843594
O O11 0.680919 0.500000 0.250000
#
# Coordination Sequence:
#
# PCOD9525895 Si02
#       4
#    16  16  16  16
#     4  10  23  40  56  80 117 153 185 230 286 336
#     4   9  19  35  58  86 112 144 189 232 274 332
#     4   9  17  30  50  81 112 137 175 229 280 320
#     4  10  19  32  54  79 108 144 184 227 271 329
#
# _framework density 21.326602999999999
#
# number of rings (size 3 to 8) (size 9 to 14) (size 15 to 20)
#    0.000    2.500    0.000    3.000    0.000   13.000 
#    0.000    5.000    0.000    0.000    0.000    0.000 
#    0.000    0.000    0.000    0.000    0.000    0.000 
#
# Total GULP energy -178423.964108 kJ/mol
# GULP energy per Si atom -5575.748878 kJ/mol
# Density = 2.127806 g / cm^3
# Si number density = 21.326603 Si / 1000 Ang^3
#
#
#
# Elastic Constant Matrix: (Units=GPa)
#
#
# Indices 1 2 3 4 5 6 
#
# 1 247.6394 92.0420 10.9332 0.0000 0.0000 0.0000
# 2 92.0420 99.2689 22.4525 0.0000 0.0000 0.0000
# 3 10.9332 22.4525 53.0048 0.0000 0.0000 0.0000
# 4 0.0000 0.0000 0.0000 9.7567 0.0000 0.0000
# 5 0.0000 0.0000 0.0000 0.0000 93.6806 0.0000
# 6 0.0000 0.0000 0.0000 0.0000 0.0000 44.3870
#
#
#
# Elastic Compliance Matrix: (Units=1/GPa)
#
#
# Indices 1 2 3 4 5 6 
#
# 1 0.006240 -0.006077 0.001287 0.000000 0.000000 0.000000
# 2 -0.006077 0.017059 -0.005973 0.000000 0.000000 0.000000
# 3 0.001287 -0.005973 0.021131 0.000000 0.000000 0.000000
# 4 0.000000 0.000000 0.000000 0.102493 0.000000 0.000000
# 5 0.000000 0.000000 0.000000 0.000000 0.010675 0.000000
# 6 0.000000 0.000000 0.000000 0.000000 0.000000 0.022529
#
#
# Mechanical properties :
#
#
# Convention : Reuss Voigt Hill
#
# Bulk Modulus (GPa) = 43.65900 72.30761 57.98331
# Shear Modulus (GPa) = 23.89076 47.86390 35.87733
#
# Velocity S-wave (km/s) = 3.35062 4.74257 4.10601
# Velocity P-wave (km/s) = 5.95692 7.99799 7.05169
#
# Compressibility (1/GPa) = 0.02290478
#
# Stress axis : x y z
#
# Youngs Moduli (GPa) = 160.25951 58.62075 47.32451
#
# Poissons Ratio (x) = 0.35622 -0.06090
# Poissons Ratio (y) = 0.97385 0.28265
# Poissons Ratio (z) = -0.20625 0.35012
#
# Static dielectric constant tensor:
#      x y z
#    x 1.876940 0.000000 0.000000 
#    y 0.000000 1.726120 0.000000 
#    z 0.000000 0.000000 1.787310 
# 
# From -- ./inp_files/18627.got.cif
#   From: 2010.05.17/outbox.cif.g08.bks.cpg/sg72_10_cif.got.tgz:18627.got - 2010.06.03 17:03:01.
