data_PCOD9525751
_publ_section_title
;
Structure prediction by ZEFSAII (Michael W. Deem and Ramdas Pophale) SiO2 
 PCOD9525751
Probable space group: I B A M
;
_chemical_formula_sum "Si O2"
_cell_formula_units_Z 120
_cell_length_a 19.089352
_cell_length_b 22.858921
_cell_length_c 14.328174
_cell_angle_alpha 90.000000
_cell_angle_beta 90.000000
_cell_angle_gamma 90.000000
_cell_volume 6252.270510
_symmetry_space_group_name_H-M "I B A M"
_symmetry_group_IT_number 72
_symmetry_cell_setting 'orthorhombic'
loop_
_space_group_symop_operation_xyz
x,y,z
-x,-y,z
x,-y,1/2-z
-x,y,1/2-z
-x,-y,-z
x,y,-z
-x,y,1/2+z
x,-y,1/2+z
1/2+x,1/2+y,1/2+z
1/2-x,1/2-y,1/2+z
1/2+x,1/2-y,-z
1/2-x,1/2+y,-z
1/2-x,1/2-y,1/2-z
1/2+x,1/2+y,1/2-z
1/2-x,1/2+y,z
1/2+x,1/2-y,z
loop_
_atom_site_type_symbol
_atom_site_label
_atom_site_fract_x
_atom_site_fract_y
_atom_site_fract_z
Si Si1 0.778301 0.278546 0.603555
Si Si2 0.442793 0.323304 0.608427
Si Si3 0.169504 0.673058 0.105574
Si Si4 0.223855 0.000000 0.250000
Si Si5 0.231257 0.912741 0.893767
Si Si6 0.092073 0.855919 0.890566
Si Si7 0.105584 0.253905 0.255000
Si Si8 0.193143 0.902815 0.610365
O O1 0.811768 0.272276 0.500000
O O2 0.714701 0.233109 0.602528
O O3 0.756201 0.345849 0.613436
O O4 0.826714 0.262272 0.689424
O O5 0.444756 0.306478 0.500000
O O6 0.509390 0.365772 0.623286
O O7 0.449398 0.266846 0.675208
O O8 0.369811 0.356759 0.626499
O O9 0.108572 0.688525 0.179492
O O10 0.230298 0.625989 0.129832
O O11 0.144362 0.661164 0.000000
O O12 0.264209 0.955659 0.181487
O O13 0.184032 0.958084 0.322903
O O14 0.147571 0.907301 0.873934
O O15 0.242211 0.932350 0.000000
O O16 0.108111 0.802114 0.822716
O O17 0.102731 0.839435 0.000000
O O18 0.191222 0.917125 0.500000
#
# Coordination Sequence:
#
# PCOD9525751 Si02
#       8
#    16  16  16   8  16  16  16  16
#     4  10  19  31  50  75  99 121 154 203 254 306
#     4  10  21  35  49  68  98 134 170 209 252 294
#     4  10  19  31  50  75  99 121 154 203 254 306
#     4  12  22  34  51  68  92 130 169 220 256 288
#     4  10  21  36  51  70  96 130 171 209 251 297
#     4  10  21  35  49  68  98 134 170 209 252 294
#     4  12  18  27  48  76  96 122 156 201 244 301
#     4  10  21  36  51  70  96 130 171 209 251 297
#
# _framework density 19.193027000000001
#
# number of rings (size 3 to 8) (size 9 to 14) (size 15 to 20)
#    0.000    1.600    2.667    3.600    0.000    0.000 
#    0.000    1.333    0.000    3.200    0.000    0.000 
#    0.000    0.000    0.000   38.400    0.000  288.000 
#
# Total GULP energy -334256.969615 kJ/mol
# GULP energy per Si atom -5570.949494 kJ/mol
# Density = 1.914934 g / cm^3
# Si number density = 19.193027 Si / 1000 Ang^3
#
#
#
# Elastic Constant Matrix: (Units=GPa)
#
#
# Indices 1 2 3 4 5 6 
#
# 1 11.7060 20.8986 20.8156 0.0000 0.0000 0.0000
# 2 20.8986 66.5397 47.3942 0.0000 0.0000 0.0000
# 3 20.8156 47.3942 116.3762 0.0000 0.0000 0.0000
# 4 0.0000 0.0000 0.0000 33.0056 0.0000 0.0000
# 5 0.0000 0.0000 0.0000 0.0000 26.4607 0.0000
# 6 0.0000 0.0000 0.0000 0.0000 0.0000 5.3411
#
#
#
# Elastic Compliance Matrix: (Units=1/GPa)
#
#
# Indices 1 2 3 4 5 6 
#
# 1 0.212018 -0.055751 -0.015218 0.000000 0.000000 0.000000
# 2 -0.055751 0.035829 -0.004620 0.000000 0.000000 0.000000
# 3 -0.015218 -0.004620 0.013196 0.000000 0.000000 0.000000
# 4 0.000000 0.000000 0.000000 0.030298 0.000000 0.000000
# 5 0.000000 0.000000 0.000000 0.000000 0.037792 0.000000
# 6 0.000000 0.000000 0.000000 0.000000 0.000000 0.187226
#
#
# Mechanical properties :
#
#
# Convention : Reuss Voigt Hill
#
# Bulk Modulus (GPa) = 9.10196 41.42651 25.26424
# Shear Modulus (GPa) = 7.10068 19.99571 13.54819
#
# Velocity S-wave (km/s) = 1.92552 3.23123 2.65974
# Velocity P-wave (km/s) = 3.11386 5.96256 4.75648
#
# Compressibility (1/GPa) = 0.10986643
#
# Stress axis : x y z
#
# Youngs Moduli (GPa) = 4.71658 27.91025 75.78008
#
# Poissons Ratio (x) = 1.55602 1.15322
# Poissons Ratio (y) = 0.26295 0.35007
# Poissons Ratio (z) = 0.07178 0.12893
#
# Static dielectric constant tensor:
#      x y z
#    x 1.724360 0.000000 0.000000 
#    y 0.000000 1.678560 0.000000 
#    z 0.000000 0.000000 1.758190 
# 
# From -- ./inp_files/24515.got.cif
#   From: 2010.05.17/outbox.cif.g08.bks.cpg/sg72_13_cif.got.tgz:24515.got - 2010.06.03 17:03:01.
