data_PCOD9525710
_publ_section_title
;
Structure prediction by ZEFSAII (Michael W. Deem and Ramdas Pophale) SiO2 
 PCOD9525710
Probable space group: I B A M
;
_chemical_formula_sum "Si O2"
_cell_formula_units_Z 120
_cell_length_a 26.941588
_cell_length_b 28.251851
_cell_length_c 7.709239
_cell_angle_alpha 90.000000
_cell_angle_beta 90.000000
_cell_angle_gamma 90.000000
_cell_volume 5867.885182
_symmetry_space_group_name_H-M "I B A M"
_symmetry_group_IT_number 72
_symmetry_cell_setting 'orthorhombic'
loop_
_space_group_symop_operation_xyz
x,y,z
-x,-y,z
x,-y,1/2-z
-x,y,1/2-z
-x,-y,-z
x,y,-z
-x,y,1/2+z
x,-y,1/2+z
1/2+x,1/2+y,1/2+z
1/2-x,1/2-y,1/2+z
1/2+x,1/2-y,-z
1/2-x,1/2+y,-z
1/2-x,1/2-y,1/2-z
1/2+x,1/2+y,1/2-z
1/2-x,1/2+y,z
1/2+x,1/2-y,z
loop_
_atom_site_type_symbol
_atom_site_label
_atom_site_fract_x
_atom_site_fract_y
_atom_site_fract_z
Si Si1 0.732205 0.039588 0.000000
Si Si2 0.285028 0.835683 0.707587
Si Si3 0.945226 0.307250 0.293801
Si Si4 0.348879 0.749957 0.296298
Si Si5 0.661729 0.065920 0.303513
Si Si6 0.555020 0.916972 0.292793
Si Si7 0.817098 0.047517 0.301909
Si Si8 0.172078 0.147748 0.299472
O O1 0.689272 0.039703 0.849188
O O2 0.774266 0.047313 0.843889
O O3 0.277694 0.832303 0.500000
O O4 0.308341 0.786870 0.775661
O O5 0.323487 0.878710 0.735394
O O6 0.232046 0.847567 0.788347
O O7 0.938826 0.308085 0.500000
O O8 0.901513 0.275628 0.218496
O O9 0.943444 0.361801 0.231652
O O10 0.000000 0.288913 0.250000
O O11 0.336727 0.744616 0.500000
O O12 0.347684 0.697103 0.222686
O O13 0.679891 0.057093 0.500000
O O14 0.602801 0.059324 0.292223
O O15 0.500000 0.935374 0.250000
O O16 0.561418 0.917909 0.500000
O O17 0.797335 0.042734 0.500000
O O18 0.842145 0.098610 0.290270
O O19 0.846860 0.000000 0.250000
O O20 0.157179 0.143779 0.500000
#
# Coordination Sequence:
#
# PCOD9525710 Si02
#       8
#     8  16  16  16  16  16  16  16
#     4  12  22  38  56  82 110 139 176 217 280 328
#     4  10  19  31  46  70 102 145 184 221 261 308
#     4  10  20  32  49  68  98 140 191 240 277 317
#     4  10  21  33  49  71 105 145 189 223 264 317
#     4  11  20  32  53  76 109 145 180 228 273 318
#     4  10  19  31  47  71 102 144 187 233 281 325
#     4  12  23  40  62  83 109 142 175 223 277 331
#     4  11  21  35  51  75 108 145 179 223 266 322
#
# _framework density 20.450298
#
# number of rings (size 3 to 8) (size 9 to 14) (size 15 to 20)
#    0.000    1.333    4.667    2.000    0.000    2.667 
#    0.000    0.000    0.000    0.000    0.000    0.000 
#    0.000    2.133    0.000    5.600    0.000    2.400 
#
# Total GULP energy -334260.609129 kJ/mol
# GULP energy per Si atom -5571.010152 kJ/mol
# Density = 2.040375 g / cm^3
# Si number density = 20.450298 Si / 1000 Ang^3
#
#
#
# Elastic Constant Matrix: (Units=GPa)
#
#
# Indices 1 2 3 4 5 6 
#
# 1 15.9397 -7.9716 -5.6638 0.0000 0.0000 0.0000
# 2 -7.9716 114.9791 25.3084 0.0000 0.0000 0.0000
# 3 -5.6638 25.3084 117.2077 0.0000 0.0000 0.0000
# 4 0.0000 0.0000 0.0000 12.7291 0.0000 0.0000
# 5 0.0000 0.0000 0.0000 0.0000 20.5989 0.0000
# 6 0.0000 0.0000 0.0000 0.0000 0.0000 -245.5719
#
#
#
# Elastic Compliance Matrix: (Units=1/GPa)
#
#
# Indices 1 2 3 4 5 6 
#
# 1 0.065573 0.004041 0.002296 0.000000 0.000000 0.000000
# 2 0.004041 0.009380 -0.001830 0.000000 0.000000 0.000000
# 3 0.002296 -0.001830 0.009038 0.000000 0.000000 0.000000
# 4 0.000000 0.000000 0.000000 0.078560 0.000000 0.000000
# 5 0.000000 0.000000 0.000000 0.000000 0.048546 0.000000
# 6 0.000000 0.000000 0.000000 0.000000 0.000000 -0.004072
#
#
# Mechanical properties :
#
#
# Convention : Reuss Voigt Hill
#
# Bulk Modulus (GPa) = 10.75211 30.16360 20.45786
# Shear Modulus (GPa) = 21.83275 -26.68520 -2.42622
#
# Velocity S-wave (km/s) = 3.27096 -3.61623 -1.09040
# Velocity P-wave (km/s) = 4.41980 1.62925 2.90519
#
# Compressibility (1/GPa) = 0.09300497
#
# Stress axis : x y z
#
# Youngs Moduli (GPa) = 15.25015 106.60714 110.64387
#
# Poissons Ratio (x) = -0.43078 -0.25406
# Poissons Ratio (y) = -0.06162 0.20250
# Poissons Ratio (z) = -0.03502 0.19511
#
# Static dielectric constant tensor:
#      x y z
#    x 1.685960 0.000000 0.000000 
#    y 0.000000 1.887870 0.000000 
#    z 0.000000 0.000000 1.731680 
# 
# From -- ./inp_files/8594.got.cif
#   From: 2010.05.17/outbox.cif.g08.bks.cpg/sg72_5_cif.got.tgz:8594.got - 2010.06.03 17:03:01.
