data_PCOD9525812
_publ_section_title
;
Structure prediction by ZEFSAII (Michael W. Deem and Ramdas Pophale) SiO2 
 PCOD9525812
Probable space group: I B A M
;
_chemical_formula_sum "Si O2"
_cell_formula_units_Z 80
_cell_length_a 7.865689
_cell_length_b 26.441741
_cell_length_c 15.070615
_cell_angle_alpha 90.000000
_cell_angle_beta 90.000000
_cell_angle_gamma 90.000000
_cell_volume 3134.424355
_symmetry_space_group_name_H-M "I B A M"
_symmetry_group_IT_number 72
_symmetry_cell_setting 'orthorhombic'
loop_
_space_group_symop_operation_xyz
x,y,z
-x,-y,z
x,-y,1/2-z
-x,y,1/2-z
-x,-y,-z
x,y,-z
-x,y,1/2+z
x,-y,1/2+z
1/2+x,1/2+y,1/2+z
1/2-x,1/2-y,1/2+z
1/2+x,1/2-y,-z
1/2-x,1/2+y,-z
1/2-x,1/2-y,1/2-z
1/2+x,1/2+y,1/2-z
1/2-x,1/2+y,z
1/2+x,1/2-y,z
loop_
_atom_site_type_symbol
_atom_site_label
_atom_site_fract_x
_atom_site_fract_y
_atom_site_fract_z
Si Si1 0.421885 0.276237 0.653356
Si Si2 0.020011 0.119574 0.356415
Si Si3 0.180986 0.021452 0.606687
Si Si4 0.151928 0.573533 0.101468
Si Si5 0.430780 0.822105 0.395788
O O1 0.500000 0.270364 0.750000
O O2 0.528705 0.322725 0.610443
O O3 0.427873 0.220852 0.611736
O O4 0.232241 0.297950 0.652692
O O5 0.172366 0.080867 0.375054
O O6 0.000000 0.121463 0.250000
O O7 0.846454 0.095628 0.396692
O O8 0.182144 0.016115 0.500000
O O9 0.321543 0.982226 0.641451
O O10 0.000000 0.000000 0.640585
O O11 0.046234 0.620808 0.139223
O O12 0.091634 0.566193 0.000000
O O13 0.388236 0.826912 0.500000
#
# Coordination Sequence:
#
# PCOD9525812 Si02
#       5
#    16  16  16  16  16
#     4  10  20  33  48  69 100 132 162 199 251 301
#     4   9  16  24  38  62  90 119 151 189 236 288
#     4   8  13  22  36  55  83 116 145 180 232 284
#     4   8  15  26  39  58  86 118 150 187 234 280
#     4  10  19  32  50  71  95 127 169 210 243 289
#
# _framework density 25.523029000000001
#
# number of rings (size 3 to 8) (size 9 to 14) (size 15 to 20)
#    0.000    3.000    0.000    3.000    0.000    6.000 
#    0.000    0.000    0.000    0.000    0.000    1.400 
#    0.000    8.000    0.000    0.400    0.000    0.000 
#
# Total GULP energy -223091.241129 kJ/mol
# GULP energy per Si atom -5577.281028 kJ/mol
# Density = 2.546494 g / cm^3
# Si number density = 25.523029 Si / 1000 Ang^3
#
#
#
# Elastic Constant Matrix: (Units=GPa)
#
#
# Indices 1 2 3 4 5 6 
#
# 1 82.0116 52.7927 -2.1407 0.0000 0.0000 0.0000
# 2 52.7927 203.1231 -24.9271 -0.0001 0.0000 0.0000
# 3 -2.1407 -24.9271 66.1227 -0.0002 0.0001 0.0000
# 4 0.0000 -0.0001 -0.0002 12.6963 0.0001 0.0000
# 5 0.0000 0.0000 0.0001 0.0001 -0.9601 0.0000
# 6 0.0000 0.0000 0.0000 0.0000 0.0000 14.2458
#
#
#
# Elastic Compliance Matrix: (Units=1/GPa)
#
#
# Indices 1 2 3 4 5 6 
#
# 1 0.014708 -0.003947 -0.001012 0.000000 0.000000 0.000000
# 2 -0.003947 0.006221 0.002217 0.000000 0.000000 0.000000
# 3 -0.001012 0.002217 0.015927 0.000000 0.000001 0.000000
# 4 0.000000 0.000000 0.000000 0.078763 0.000004 0.000000
# 5 0.000000 0.000000 0.000001 0.000004 -1.041574 -0.000001
# 6 0.000000 0.000000 0.000000 0.000000 -0.000001 0.070196
#
#
# Mechanical properties :
#
#
# Convention : Reuss Voigt Hill
#
# Bulk Modulus (GPa) = 31.87432 44.74524 38.30978
# Shear Modulus (GPa) = -5.95366 26.89858 10.47246
#
# Velocity S-wave (km/s) = -1.52896 3.24990 2.02782
# Velocity P-wave (km/s) = 3.06571 5.62599 4.53048
#
# Compressibility (1/GPa) = 0.03137322
#
# Stress axis : x y z
#
# Youngs Moduli (GPa) = 67.99212 160.74537 62.78814
#
# Poissons Ratio (x) = 0.63442 0.06352
# Poissons Ratio (y) = 0.26835 -0.13923
# Poissons Ratio (z) = 0.06879 -0.35644
#
# Static dielectric constant tensor:
#      x y z
#    x 2.095580 0.000000 0.000000 
#    y 0.000000 2.133300 0.000000 
#    z 0.000000 0.000000 1.984380 
# 
# From -- ./inp_files/28113.got.cif
#   From: 2010.05.17/outbox.cif.g08.bks.cpg/sg72_15_cif.got.tgz:28113.got - 2010.06.03 17:03:01.
