data_PCOD9525781
_publ_section_title
;
Structure prediction by ZEFSAII (Michael W. Deem and Ramdas Pophale) SiO2 
 PCOD9525781
Probable space group: I B A M
;
_chemical_formula_sum "Si O2"
_cell_formula_units_Z 96
_cell_length_a 18.233558
_cell_length_b 19.470041
_cell_length_c 16.155544
_cell_angle_alpha 90.000000
_cell_angle_beta 90.000000
_cell_angle_gamma 90.000000
_cell_volume 5735.349333
_symmetry_space_group_name_H-M "I B A M"
_symmetry_group_IT_number 72
_symmetry_cell_setting 'orthorhombic'
loop_
_space_group_symop_operation_xyz
x,y,z
-x,-y,z
x,-y,1/2-z
-x,y,1/2-z
-x,-y,-z
x,y,-z
-x,y,1/2+z
x,-y,1/2+z
1/2+x,1/2+y,1/2+z
1/2-x,1/2-y,1/2+z
1/2+x,1/2-y,-z
1/2-x,1/2+y,-z
1/2-x,1/2-y,1/2-z
1/2+x,1/2+y,1/2-z
1/2-x,1/2+y,z
1/2+x,1/2-y,z
loop_
_atom_site_type_symbol
_atom_site_label
_atom_site_fract_x
_atom_site_fract_y
_atom_site_fract_z
Si Si1 0.375257 0.496261 0.500000
Si Si2 0.936138 0.672495 0.820782
Si Si3 0.452016 0.328895 0.333335
Si Si4 0.164347 0.578350 0.219008
Si Si5 0.171344 0.054097 0.824337
Si Si6 0.989807 0.887086 0.500000
Si Si7 0.965127 0.429802 0.904780
O O1 0.331999 0.482809 0.414431
O O2 0.414560 0.570190 0.500000
O O3 0.442881 0.441856 0.500000
O O4 0.921461 0.751595 0.840104
O O5 0.865822 0.631348 0.787342
O O6 0.000000 0.670811 0.750000
O O7 0.974638 0.629482 0.893281
O O8 0.500000 0.333119 0.250000
O O9 0.389032 0.386105 0.326429
O O10 0.499511 0.344765 0.415538
O O11 0.156234 0.500000 0.250000
O O12 0.248630 0.585360 0.193421
O O13 0.108927 0.587514 0.142944
O O14 0.155492 0.000000 0.750000
O O15 0.000000 0.500000 0.868785
O O16 0.948448 0.441649 0.000000
#
# Coordination Sequence:
#
# PCOD9525781 Si02
#       7
#     8  16  16  16  16   8  16
#     4   9  18  34  52  80 105 138 194 226 274 329
#     4   9  19  33  52  77 104 138 179 224 272 334
#     4  10  20  35  54  80 110 145 188 230 282 332
#     4  10  19  34  52  76 108 140 177 225 277 328
#     4  10  21  34  55  81 109 149 185 231 280 334
#     4   9  18  32  56  76 105 144 180 242 272 317
#     4  10  19  31  54  79  99 134 174 221 271 324
#
# _framework density 16.738301
#
# number of rings (size 3 to 8) (size 9 to 14) (size 15 to 20)
#    0.000    2.333    1.667    1.000    2.333    2.333 
#    0.000    0.000    0.000    0.000    0.000    0.000 
#    0.000    0.000    0.000    0.000    0.000    0.000 
#
# Total GULP energy -267463.774352 kJ/mol
# GULP energy per Si atom -5572.161966 kJ/mol
# Density = 1.670020 g / cm^3
# Si number density = 16.738301 Si / 1000 Ang^3
#
#
#
# Elastic Constant Matrix: (Units=GPa)
#
#
# Indices 1 2 3 4 5 6 
#
# 1 86.7262 44.6737 32.2967 0.0000 0.0000 0.0000
# 2 44.6737 110.7916 37.1875 0.0000 0.0000 0.0000
# 3 32.2967 37.1875 90.4226 0.0000 0.0000 0.0000
# 4 0.0000 0.0000 0.0000 13.1906 0.0000 0.0000
# 5 0.0000 0.0000 0.0000 0.0000 19.8390 0.0000
# 6 0.0000 0.0000 0.0000 0.0000 0.0000 8.3798
#
#
#
# Elastic Compliance Matrix: (Units=1/GPa)
#
#
# Indices 1 2 3 4 5 6 
#
# 1 0.015415 -0.005067 -0.003422 0.000000 0.000000 0.000000
# 2 -0.005067 0.012137 -0.003182 0.000000 0.000000 0.000000
# 3 -0.003422 -0.003182 0.013590 0.000000 0.000000 0.000000
# 4 0.000000 0.000000 0.000000 0.075811 0.000000 0.000000
# 5 0.000000 0.000000 0.000000 0.000000 0.050406 0.000000
# 6 0.000000 0.000000 0.000000 0.000000 0.000000 0.119335
#
#
# Mechanical properties :
#
#
# Convention : Reuss Voigt Hill
#
# Bulk Modulus (GPa) = 56.17809 57.36180 56.76994
# Shear Modulus (GPa) = 15.82432 19.86737 17.84585
#
# Velocity S-wave (km/s) = 3.07807 3.44894 3.26877
# Velocity P-wave (km/s) = 6.80207 7.08551 6.94523
#
# Compressibility (1/GPa) = 0.01780054
#
# Stress axis : x y z
#
# Youngs Moduli (GPa) = 64.87190 82.39216 73.58389
#
# Poissons Ratio (x) = 0.41749 0.25180
# Poissons Ratio (y) = 0.32871 0.23412
# Poissons Ratio (z) = 0.22199 0.26215
#
# Static dielectric constant tensor:
#      x y z
#    x 1.542390 0.000000 0.000000 
#    y 0.000000 1.571820 0.000000 
#    z 0.000000 0.000000 1.569820 
# 
# From -- ./inp_files/31659.got.cif
#   From: 2010.05.17/outbox.cif.g08.bks.cpg/sg72_16_cif.got.tgz:31659.got - 2010.06.03 17:03:01.
