data_PCOD9525997
_publ_section_title
;
Structure prediction by ZEFSAII (Michael W. Deem and Ramdas Pophale) SiO2 
 PCOD9525997
Probable space group: I B A M
;
_chemical_formula_sum "Si O2"
_cell_formula_units_Z 104
_cell_length_a 23.124813
_cell_length_b 7.613141
_cell_length_c 22.057674
_cell_angle_alpha 90.000000
_cell_angle_beta 90.000000
_cell_angle_gamma 90.000000
_cell_volume 3883.307813
_symmetry_space_group_name_H-M "I B A M"
_symmetry_group_IT_number 72
_symmetry_cell_setting 'orthorhombic'
loop_
_space_group_symop_operation_xyz
x,y,z
-x,-y,z
x,-y,1/2-z
-x,y,1/2-z
-x,-y,-z
x,y,-z
-x,y,1/2+z
x,-y,1/2+z
1/2+x,1/2+y,1/2+z
1/2-x,1/2-y,1/2+z
1/2+x,1/2-y,-z
1/2-x,1/2+y,-z
1/2-x,1/2-y,1/2-z
1/2+x,1/2+y,1/2-z
1/2-x,1/2+y,z
1/2+x,1/2-y,z
loop_
_atom_site_type_symbol
_atom_site_label
_atom_site_fract_x
_atom_site_fract_y
_atom_site_fract_z
Si Si1 0.702630 0.000000 0.250000
Si Si2 0.828409 0.071080 0.432000
Si Si3 0.765223 0.608666 0.878469
Si Si4 0.556755 0.764948 0.563765
Si Si5 0.387361 0.282665 0.195523
Si Si6 0.632391 0.117655 0.431923
Si Si7 0.552384 0.364872 0.189898
O O1 0.737882 0.066253 0.192206
O O2 0.664632 0.837047 0.223338
O O3 0.807031 0.108712 0.500000
O O4 0.800196 0.213405 0.387612
O O5 0.797761 0.894831 0.409192
O O6 0.896243 0.105797 0.435706
O O7 0.806070 0.469810 0.913546
O O8 0.522415 0.750336 0.500000
O O9 0.535834 0.750942 0.632089
O O10 0.591812 0.945005 0.561205
O O11 0.394428 0.212387 0.127160
O O12 0.392184 0.497181 0.187176
O O13 0.433823 0.255141 0.249978
O O14 0.633362 0.200889 0.500000
O O15 0.500000 0.500000 0.191329
#
# Coordination Sequence:
#
# PCOD9525997 Si02
#       7
#     8  16  16  16  16  16  16
#     4  10  22  40  59  80 116 162 197 242 292 342
#     4  10  19  33  54  80 114 154 195 237 282 340
#     4  10  20  34  54  83 118 154 197 240 284 339
#     4   9  20  39  61  86 119 158 196 244 307 360
#     4  10  20  37  60  83 112 151 196 238 293 359
#     4   9  18  36  61  87 119 158 200 244 289 348
#     4  11  23  40  61  88 118 150 194 252 311 368
#
# _framework density 26.781293000000002
#
# number of rings (size 3 to 8) (size 9 to 14) (size 15 to 20)
#    0.000    2.154    0.000    6.000    0.000    4.000 
#    0.000    8.462    0.000    3.231    0.000    0.000 
#    0.000    0.000    0.000    0.000    0.000    0.000 
#
# Total GULP energy -290191.521204 kJ/mol
# GULP energy per Si atom -5580.606177 kJ/mol
# Density = 2.672034 g / cm^3
# Si number density = 26.781293 Si / 1000 Ang^3
#
#
#
# Elastic Constant Matrix: (Units=GPa)
#
#
# Indices 1 2 3 4 5 6 
#
# 1 61.4186 12.1054 26.8093 0.0000 0.0000 0.0000
# 2 12.1054 79.3184 25.2223 0.0000 0.0000 0.0000
# 3 26.8093 25.2223 279.8692 0.0000 0.0000 0.0000
# 4 0.0000 0.0000 0.0000 34.5389 0.0000 0.0000
# 5 0.0000 0.0000 0.0000 0.0000 -9.0379 0.0000
# 6 0.0000 0.0000 0.0000 0.0000 0.0000 26.4144
#
#
#
# Elastic Compliance Matrix: (Units=1/GPa)
#
#
# Indices 1 2 3 4 5 6 
#
# 1 0.017351 -0.002182 -0.001465 0.000000 0.000000 0.000000
# 2 -0.002182 0.013254 -0.000985 0.000000 0.000000 0.000000
# 3 -0.001465 -0.000985 0.003802 0.000000 0.000000 0.000000
# 4 0.000000 0.000000 0.000000 0.028953 0.000000 0.000000
# 5 0.000000 0.000000 0.000000 0.000000 -0.110646 0.000000
# 6 0.000000 0.000000 0.000000 0.000000 0.000000 0.037858
#
#
# Mechanical properties :
#
#
# Convention : Reuss Voigt Hill
#
# Bulk Modulus (GPa) = 39.77490 60.98668 50.38079
# Shear Modulus (GPa) = 608.31371 34.14769 321.23070
#
# Velocity S-wave (km/s) = 15.08756 3.57467 10.96386
# Velocity P-wave (km/s) = 17.84367 6.31342 13.38387
#
# Compressibility (1/GPa) = 0.02514148
#
# Stress axis : x y z
#
# Youngs Moduli (GPa) = 57.63199 75.45000 262.99960
#
# Poissons Ratio (x) = 0.16464 0.38542
# Poissons Ratio (y) = 0.12576 0.25917
# Poissons Ratio (z) = 0.08446 0.07435
#
# Static dielectric constant tensor:
#      x y z
#    x 2.191320 0.000000 0.000000 
#    y 0.000000 2.238190 0.000000 
#    z 0.000000 0.000000 2.178420 
# 
# From -- ./inp_files/41046.got.cif
#   From: 2010.05.17/outbox.cif.g08.bks.cpg/sg72_21_cif.got.tgz:41046.got - 2010.06.03 17:03:01.
