data_PCOD9525555
_publ_section_title
;
Structure prediction by ZEFSAII (Michael W. Deem and Ramdas Pophale) SiO2 
 PCOD9525555
Probable space group: I B A M
;
_chemical_formula_sum "Si O2"
_cell_formula_units_Z 120
_cell_length_a 31.526275
_cell_length_b 9.349629
_cell_length_c 22.471391
_cell_angle_alpha 90.000000
_cell_angle_beta 90.000000
_cell_angle_gamma 90.000000
_cell_volume 6623.644178
_symmetry_space_group_name_H-M "I B A M"
_symmetry_group_IT_number 72
_symmetry_cell_setting 'orthorhombic'
loop_
_space_group_symop_operation_xyz
x,y,z
-x,-y,z
x,-y,1/2-z
-x,y,1/2-z
-x,-y,-z
x,y,-z
-x,y,1/2+z
x,-y,1/2+z
1/2+x,1/2+y,1/2+z
1/2-x,1/2-y,1/2+z
1/2+x,1/2-y,-z
1/2-x,1/2+y,-z
1/2-x,1/2-y,1/2-z
1/2+x,1/2+y,1/2-z
1/2-x,1/2+y,z
1/2+x,1/2-y,z
loop_
_atom_site_type_symbol
_atom_site_label
_atom_site_fract_x
_atom_site_fract_y
_atom_site_fract_z
Si Si1 0.551693 0.824907 0.380102
Si Si2 0.206828 0.364668 0.572113
Si Si3 0.707475 0.197974 0.927755
Si Si4 0.630298 0.379955 0.878375
Si Si5 0.545759 0.146843 0.617875
Si Si6 0.953259 0.249585 0.755569
Si Si7 0.110804 0.000000 0.250000
Si Si8 0.125277 0.190869 0.429605
O O1 0.586743 0.705344 0.395436
O O2 0.502161 0.802841 0.397700
O O3 0.555070 0.819270 0.308147
O O4 0.558574 0.987156 0.402673
O O5 0.205660 0.361194 0.500000
O O6 0.248809 0.277047 0.588973
O O7 0.209008 0.530861 0.588917
O O8 0.164313 0.286721 0.594275
O O9 0.668609 0.276518 0.896026
O O10 0.702550 0.207768 0.000000
O O11 0.632356 0.432151 0.808969
O O12 0.633044 0.526115 0.914970
O O13 0.545483 0.143094 0.689587
O O14 0.580891 0.255930 0.596203
O O15 0.000000 0.182294 0.750000
O O16 0.919392 0.128786 0.770933
O O17 0.123803 0.210565 0.500000
#
# Coordination Sequence:
#
# PCOD9525555 Si02
#       8
#    16  16  16  16  16  16   8  16
#     4   9  20  32  53  77 107 142 185 225 276 324
#     4   9  19  35  59  87 110 138 179 227 276 323
#     4  10  19  35  59  85 109 136 179 232 277 327
#     4  11  21  35  53  79 112 145 185 226 277 328
#     4  10  18  35  52  78 107 140 183 232 273 325
#     4   9  16  29  52  77 103 136 180 233 275 312
#     4  10  19  32  48  80 106 144 176 230 268 327
#     4  11  22  36  55  79 110 146 181 220 275 333
#
# _framework density 18.116916
#
# number of rings (size 3 to 8) (size 9 to 14) (size 15 to 20)
#    0.000    2.133    1.333    2.600    0.000    4.267 
#    0.000    4.000    0.000    3.200    0.000    0.000 
#    0.000    0.000    0.000    0.000    0.000    0.000 
#
# Total GULP energy -334233.382888 kJ/mol
# GULP energy per Si atom -5570.556381 kJ/mol
# Density = 1.807568 g / cm^3
# Si number density = 18.116916 Si / 1000 Ang^3
#
#
#
# Elastic Constant Matrix: (Units=GPa)
#
#
# Indices 1 2 3 4 5 6 
#
# 1 108.8046 67.1955 21.4100 0.0000 0.0000 0.0000
# 2 67.1955 123.5857 9.9070 0.0000 0.0000 0.0000
# 3 21.4100 9.9070 28.4293 0.0000 0.0000 0.0000
# 4 0.0000 0.0000 0.0000 17.6816 0.0000 0.0000
# 5 0.0000 0.0000 0.0000 0.0000 21.0602 0.0000
# 6 0.0000 0.0000 0.0000 0.0000 0.0000 37.6848
#
#
#
# Elastic Compliance Matrix: (Units=1/GPa)
#
#
# Indices 1 2 3 4 5 6 
#
# 1 0.015878 -0.007895 -0.009207 0.000000 0.000000 0.000000
# 2 -0.007895 0.012250 0.001677 0.000000 0.000000 0.000000
# 3 -0.009207 0.001677 0.041524 0.000000 0.000000 0.000000
# 4 0.000000 0.000000 0.000000 0.056556 0.000000 0.000000
# 5 0.000000 0.000000 0.000000 0.000000 0.047483 0.000000
# 6 0.000000 0.000000 0.000000 0.000000 0.000000 0.026536
#
#
# Mechanical properties :
#
#
# Convention : Reuss Voigt Hill
#
# Bulk Modulus (GPa) = 25.77141 50.87162 38.32152
# Shear Modulus (GPa) = 20.49087 26.10579 23.29833
#
# Velocity S-wave (km/s) = 3.36674 3.80012 3.58997
# Velocity P-wave (km/s) = 5.41933 6.88441 6.19533
#
# Compressibility (1/GPa) = 0.03880268
#
# Stress axis : x y z
#
# Youngs Moduli (GPa) = 62.97865 81.63317 24.08246
#
# Poissons Ratio (x) = 0.64452 0.22172
# Poissons Ratio (y) = 0.49724 -0.04039
# Poissons Ratio (z) = 0.57982 -0.13691
#
# Static dielectric constant tensor:
#      x y z
#    x 1.626610 0.000000 0.000000 
#    y 0.000000 1.622940 0.000000 
#    z 0.000000 0.000000 1.640590 
# 
# From -- ./inp_files/49881.got.cif
#   From: 2010.05.17/outbox.cif.g08.bks.cpg/sg72_25_cif.got.tgz:49881.got - 2010.06.03 17:03:01.
