data_PCOD9525175
_publ_section_title
;
Structure prediction by ZEFSAII (Michael W. Deem and Ramdas Pophale) SiO2 
 PCOD9525175
Probable space group: I B A M
;
_chemical_formula_sum "Si O2"
_cell_formula_units_Z 96
_cell_length_a 30.084682
_cell_length_b 9.990501
_cell_length_c 14.165400
_cell_angle_alpha 90.000000
_cell_angle_beta 90.000000
_cell_angle_gamma 90.000000
_cell_volume 4257.567435
_symmetry_space_group_name_H-M "I B A M"
_symmetry_group_IT_number 72
_symmetry_cell_setting 'orthorhombic'
loop_
_space_group_symop_operation_xyz
x,y,z
-x,-y,z
x,-y,1/2-z
-x,y,1/2-z
-x,-y,-z
x,y,-z
-x,y,1/2+z
x,-y,1/2+z
1/2+x,1/2+y,1/2+z
1/2-x,1/2-y,1/2+z
1/2+x,1/2-y,-z
1/2-x,1/2+y,-z
1/2-x,1/2-y,1/2-z
1/2+x,1/2+y,1/2-z
1/2-x,1/2+y,z
1/2+x,1/2-y,z
loop_
_atom_site_type_symbol
_atom_site_label
_atom_site_fract_x
_atom_site_fract_y
_atom_site_fract_z
Si Si1 0.112187 0.297375 0.609212
Si Si2 0.417949 0.895346 0.895102
Si Si3 0.449798 0.312682 0.258117
Si Si4 0.718553 0.667229 0.612369
Si Si5 0.695173 0.139340 0.279086
Si Si6 0.122856 0.879557 0.605786
O O1 0.118702 0.265937 0.500000
O O2 0.098014 0.453872 0.616448
O O3 0.073942 0.213246 0.659221
O O4 0.157423 0.276522 0.667903
O O5 0.448576 0.831058 0.814587
O O6 0.377856 0.785346 0.895281
O O7 0.438722 0.884503 0.000000
O O8 0.500000 0.355886 0.250000
O O9 0.417542 0.403001 0.323560
O O10 0.720176 0.696795 0.500000
O O11 0.713272 0.789970 0.685252
O O12 0.764687 0.606237 0.648806
O O13 0.673330 0.581416 0.628460
O O14 0.673831 0.000000 0.250000
O O15 0.112293 0.924611 0.500000
#
# Coordination Sequence:
#
# PCOD9525175 Si02
#       6
#    16  16  16  16  16  16
#     4  11  20  29  42  64  95 130 167 205 246 292
#     4   8  16  28  41  56  82 122 162 199 238 285
#     4  10  18  28  41  60  87 123 167 210 249 288
#     4  10  20  34  55  75  97 134 171 207 251 305
#     4  11  21  35  52  76 104 132 170 210 255 305
#     4   8  15  30  46  61  85 119 161 199 238 289
#
# _framework density 22.548086999999999
#
# number of rings (size 3 to 8) (size 9 to 14) (size 15 to 20)
#    1.000    1.333    1.667    3.000    0.000    5.333 
#    0.000    1.667    0.000    0.000    0.000    0.000 
#    0.000    0.667    0.000    3.667    0.000    0.000 
#
# Total GULP energy -267603.436478 kJ/mol
# GULP energy per Si atom -5575.071593 kJ/mol
# Density = 2.249677 g / cm^3
# Si number density = 22.548087 Si / 1000 Ang^3
#
#
#
# Elastic Constant Matrix: (Units=GPa)
#
#
# Indices 1 2 3 4 5 6 
#
# 1 146.4825 0.7341 65.5308 0.0000 0.0000 0.0000
# 2 0.7341 58.2532 22.5978 0.0000 0.0000 0.0000
# 3 65.5308 22.5978 164.6213 0.0000 0.0000 0.0000
# 4 0.0000 0.0000 0.0000 12.1217 0.0000 0.0000
# 5 0.0000 0.0000 0.0000 0.0000 9.4525 0.0000
# 6 0.0000 0.0000 0.0000 0.0000 0.0000 1.0822
#
#
#
# Elastic Compliance Matrix: (Units=1/GPa)
#
#
# Indices 1 2 3 4 5 6 
#
# 1 0.008392 0.001257 -0.003513 0.000000 0.000000 0.000000
# 2 0.001257 0.018320 -0.003015 0.000000 0.000000 0.000000
# 3 -0.003513 -0.003015 0.007887 0.000000 0.000000 0.000000
# 4 0.000000 0.000000 0.000000 0.082497 0.000000 0.000000
# 5 0.000000 0.000000 0.000000 0.000000 0.105792 0.000000
# 6 0.000000 0.000000 0.000000 0.000000 0.000000 0.924042
#
#
# Mechanical properties :
#
#
# Convention : Reuss Voigt Hill
#
# Bulk Modulus (GPa) = 41.56860 60.78694 51.17777
# Shear Modulus (GPa) = 4.29003 23.23090 13.76047
#
# Velocity S-wave (km/s) = 1.38085 3.21328 2.47305
# Velocity P-wave (km/s) = 4.58453 6.38625 5.55887
#
# Compressibility (1/GPa) = 0.02405662
#
# Stress axis : x y z
#
# Youngs Moduli (GPa) = 119.15909 54.58430 126.79147
#
# Poissons Ratio (x) = -0.06862 0.44545
# Poissons Ratio (y) = -0.14980 0.38231
# Poissons Ratio (z) = 0.41863 0.16459
#
# Static dielectric constant tensor:
#      x y z
#    x 1.833770 0.000000 0.000000 
#    y 0.000000 1.875010 0.000000 
#    z 0.000000 0.000000 1.843460 
# 
# From -- ./inp_files/26479.got.cif
#   From: 2010.05.17/outbox.cif.g08.bks.cpg/sg72_14_cif.got.tgz:26479.got - 2010.06.03 17:03:01.
