data_PCOD9525982
_publ_section_title
;
Structure prediction by ZEFSAII (Michael W. Deem and Ramdas Pophale) SiO2 
 PCOD9525982
Probable space group: I B A M
;
_chemical_formula_sum "Si O2"
_cell_formula_units_Z 96
_cell_length_a 17.437939
_cell_length_b 20.837910
_cell_length_c 14.636381
_cell_angle_alpha 90.000000
_cell_angle_beta 90.000000
_cell_angle_gamma 90.000000
_cell_volume 5318.424742
_symmetry_space_group_name_H-M "I B A M"
_symmetry_group_IT_number 72
_symmetry_cell_setting 'orthorhombic'
loop_
_space_group_symop_operation_xyz
x,y,z
-x,-y,z
x,-y,1/2-z
-x,y,1/2-z
-x,-y,-z
x,y,-z
-x,y,1/2+z
x,-y,1/2+z
1/2+x,1/2+y,1/2+z
1/2-x,1/2-y,1/2+z
1/2+x,1/2-y,-z
1/2-x,1/2+y,-z
1/2-x,1/2-y,1/2-z
1/2+x,1/2+y,1/2-z
1/2-x,1/2+y,z
1/2+x,1/2-y,z
loop_
_atom_site_type_symbol
_atom_site_label
_atom_site_fract_x
_atom_site_fract_y
_atom_site_fract_z
Si Si1 0.411595 0.697429 0.742009
Si Si2 0.224980 0.799187 0.892030
Si Si3 0.196740 0.160738 0.898739
Si Si4 0.071251 0.543941 0.392184
Si Si5 0.164509 0.424691 0.603937
Si Si6 0.627489 0.843387 0.278832
O O1 0.500000 0.678467 0.750000
O O2 0.359412 0.689997 0.650675
O O3 0.365117 0.661272 0.820692
O O4 0.405568 0.772863 0.766409
O O5 0.247900 0.723288 0.884340
O O6 0.289432 0.834602 0.829511
O O7 0.229966 0.815829 0.000000
O O8 0.247583 0.096933 0.896909
O O9 0.163346 0.169194 0.000000
O O10 0.064801 0.554944 0.500000
O O11 0.145034 0.498398 0.375215
O O12 0.077341 0.610789 0.342312
O O13 0.000000 0.500000 0.362998
O O14 0.134673 0.412456 0.500000
O O15 0.130371 0.379698 0.682165
#
# Coordination Sequence:
#
# PCOD9525982 Si02
#       6
#    16  16  16  16  16  16
#     4  11  22  33  51  80 109 137 181 229 280 325
#     4  10  19  35  55  74 103 140 181 230 272 322
#     4   9  17  34  54  73 100 138 183 221 265 323
#     4  10  23  37  51  81 118 148 181 221 266 320
#     4  10  19  33  54  74 104 146 180 216 262 317
#     4  11  20  35  55  78 106 148 188 217 261 326
#
# _framework density 18.050457000000002
#
# number of rings (size 3 to 8) (size 9 to 14) (size 15 to 20)
#    0.000    1.833    3.333    2.000    2.333    2.000 
#    0.000    0.000    0.000    0.000    0.000    2.333 
#    0.000    5.333    0.000    0.000    0.000    0.000 
#
# Total GULP energy -267659.809261 kJ/mol
# GULP energy per Si atom -5576.246026 kJ/mol
# Density = 1.800937 g / cm^3
# Si number density = 18.050457 Si / 1000 Ang^3
#
#
#
# Elastic Constant Matrix: (Units=GPa)
#
#
# Indices 1 2 3 4 5 6 
#
# 1 65.8443 -13.5331 29.2130 0.0000 0.0000 0.0000
# 2 -13.5331 29.0768 6.1617 0.0000 0.0000 0.0000
# 3 29.2130 6.1617 92.4257 0.0000 0.0000 0.0000
# 4 0.0000 0.0000 0.0000 21.6589 0.0000 0.0000
# 5 0.0000 0.0000 0.0000 0.0000 17.7576 0.0000
# 6 0.0000 0.0000 0.0000 0.0000 0.0000 21.9203
#
#
#
# Elastic Compliance Matrix: (Units=1/GPa)
#
#
# Indices 1 2 3 4 5 6 
#
# 1 0.020725 0.011192 -0.007297 0.000000 0.000000 0.000000
# 2 0.011192 0.040929 -0.006266 0.000000 0.000000 0.000000
# 3 -0.007297 -0.006266 0.013543 0.000000 0.000000 0.000000
# 4 0.000000 0.000000 0.000000 0.046170 0.000000 0.000000
# 5 0.000000 0.000000 0.000000 0.000000 0.056314 0.000000
# 6 0.000000 0.000000 0.000000 0.000000 0.000000 0.045620
#
#
# Mechanical properties :
#
#
# Convention : Reuss Voigt Hill
#
# Bulk Modulus (GPa) = 14.19326 25.66999 19.93162
# Shear Modulus (GPa) = 19.87853 23.30105 21.58979
#
# Velocity S-wave (km/s) = 3.32215 3.59679 3.46219
# Velocity P-wave (km/s) = 4.75350 5.61260 5.20082
#
# Compressibility (1/GPa) = 0.07045596
#
# Stress axis : x y z
#
# Youngs Moduli (GPa) = 48.25095 24.43278 73.83618
#
# Poissons Ratio (x) = -0.27346 0.53876
# Poissons Ratio (y) = -0.54003 0.46266
# Poissons Ratio (z) = 0.35207 0.15310
#
# Static dielectric constant tensor:
#      x y z
#    x 1.651220 0.000000 0.000000 
#    y 0.000000 1.593910 0.000000 
#    z 0.000000 0.000000 1.659500 
# 
# From -- ./inp_files/21831.got.cif
#   From: 2010.05.17/outbox.cif.g08.bks.cpg/sg72_11_cif.got.tgz:21831.got - 2010.06.03 17:03:01.
