data_PCOD9525830
_publ_section_title
;
Structure prediction by ZEFSAII (Michael W. Deem and Ramdas Pophale) SiO2 
 PCOD9525830
Probable space group: I B A M
;
_chemical_formula_sum "Si O2"
_cell_formula_units_Z 80
_cell_length_a 22.043880
_cell_length_b 17.796916
_cell_length_c 9.128172
_cell_angle_alpha 90.000000
_cell_angle_beta 90.000000
_cell_angle_gamma 90.000000
_cell_volume 3581.101278
_symmetry_space_group_name_H-M "I B A M"
_symmetry_group_IT_number 72
_symmetry_cell_setting 'orthorhombic'
loop_
_space_group_symop_operation_xyz
x,y,z
-x,-y,z
x,-y,1/2-z
-x,y,1/2-z
-x,-y,-z
x,y,-z
-x,y,1/2+z
x,-y,1/2+z
1/2+x,1/2+y,1/2+z
1/2-x,1/2-y,1/2+z
1/2+x,1/2-y,-z
1/2-x,1/2+y,-z
1/2-x,1/2-y,1/2-z
1/2+x,1/2+y,1/2-z
1/2-x,1/2+y,z
1/2+x,1/2-y,z
loop_
_atom_site_type_symbol
_atom_site_label
_atom_site_fract_x
_atom_site_fract_y
_atom_site_fract_z
Si Si1 0.172090 0.335741 0.325841
Si Si2 0.559160 0.111876 0.166131
Si Si3 0.094752 0.777663 0.665442
Si Si4 0.416123 0.576788 0.331719
Si Si5 0.730438 0.577023 0.168612
O O1 0.172147 0.337128 0.500000
O O2 0.121111 0.393341 0.259601
O O3 0.148975 0.255689 0.264991
O O4 0.235796 0.358173 0.257044
O O5 0.500000 0.083981 0.250000
O O6 0.553307 0.203255 0.154428
O O7 0.564955 0.083068 0.000000
O O8 0.114738 0.796498 0.500000
O O9 0.066405 0.849565 0.741372
O O10 0.432745 0.500000 0.250000
O O11 0.436991 0.577956 0.500000
O O12 0.342368 0.580459 0.331295
O O13 0.747178 0.500000 0.250000
O O14 0.751055 0.577610 0.000000
#
# Coordination Sequence:
#
# PCOD9525830 Si02
#       5
#    16  16  16  16  16
#     4  10  19  32  51  75 100 131 167 206 249 292
#     4   9  18  32  52  76 100 128 161 204 251 298
#     4   9  19  33  50  74 101 129 166 208 247 292
#     4  10  20  33  51  72 100 136 170 204 247 296
#     4  10  20  34  50  72 101 135 171 205 245 295
#
# _framework density 22.339497000000001
#
# number of rings (size 3 to 8) (size 9 to 14) (size 15 to 20)
#    1.200    1.200    0.000    3.600    0.000    3.200 
#    0.000    0.000    0.000    1.200    0.000    8.400 
#    0.000    0.000    0.000    0.000    0.000    0.000 
#
# Total GULP energy -223209.033989 kJ/mol
# GULP energy per Si atom -5580.225850 kJ/mol
# Density = 2.228865 g / cm^3
# Si number density = 22.339497 Si / 1000 Ang^3
#
#
#
# Elastic Constant Matrix: (Units=GPa)
#
#
# Indices 1 2 3 4 5 6 
#
# 1 80.4527 12.7001 50.4995 0.0000 0.0000 0.0000
# 2 12.7001 85.4927 37.9117 0.0000 0.0000 0.0000
# 3 50.4995 37.9117 226.4096 0.0000 0.0000 0.0000
# 4 0.0000 0.0000 0.0000 27.8380 0.0000 0.0000
# 5 0.0000 0.0000 0.0000 0.0000 19.1953 0.0000
# 6 0.0000 0.0000 0.0000 0.0000 0.0000 -38.5390
#
#
#
# Elastic Compliance Matrix: (Units=1/GPa)
#
#
# Indices 1 2 3 4 5 6 
#
# 1 0.014501 -0.000778 -0.003104 0.000000 0.000000 0.000000
# 2 -0.000778 0.012677 -0.001949 0.000000 0.000000 0.000000
# 3 -0.003104 -0.001949 0.005436 0.000000 0.000000 0.000000
# 4 0.000000 0.000000 0.000000 0.035922 0.000000 0.000000
# 5 0.000000 0.000000 0.000000 0.000000 0.052096 0.000000
# 6 0.000000 0.000000 0.000000 0.000000 0.000000 -0.025948
#
#
# Mechanical properties :
#
#
# Convention : Reuss Voigt Hill
#
# Bulk Modulus (GPa) = 47.72993 66.06418 56.89706
# Shear Modulus (GPa) = 44.11915 21.11509 32.61712
#
# Velocity S-wave (km/s) = 4.44885 3.07773 3.82523
# Velocity P-wave (km/s) = 6.91388 6.50130 6.71076
#
# Compressibility (1/GPa) = 0.02095121
#
# Stress axis : x y z
#
# Youngs Moduli (GPa) = 68.96144 78.88411 183.97453
#
# Poissons Ratio (x) = 0.06134 0.57108
# Poissons Ratio (y) = 0.05362 0.35861
# Poissons Ratio (z) = 0.21407 0.15377
#
# Static dielectric constant tensor:
#      x y z
#    x 1.847940 0.000000 0.000000 
#    y 0.000000 1.866330 0.000000 
#    z 0.000000 0.000000 1.774460 
# 
# From -- ./inp_files/6252.got.cif
#   From: 2010.05.17/outbox.cif.g08.bks.cpg/sg72_4_cif.got.tgz:6252.got - 2010.06.03 17:03:01.
