data_PCOD9525784
_publ_section_title
;
Structure prediction by ZEFSAII (Michael W. Deem and Ramdas Pophale) SiO2 
 PCOD9525784
Probable space group: I B A M
;
_chemical_formula_sum "Si O2"
_cell_formula_units_Z 112
_cell_length_a 14.385432
_cell_length_b 22.159216
_cell_length_c 19.233547
_cell_angle_alpha 90.000000
_cell_angle_beta 90.000000
_cell_angle_gamma 90.000000
_cell_volume 6131.075757
_symmetry_space_group_name_H-M "I B A M"
_symmetry_group_IT_number 72
_symmetry_cell_setting 'orthorhombic'
loop_
_space_group_symop_operation_xyz
x,y,z
-x,-y,z
x,-y,1/2-z
-x,y,1/2-z
-x,-y,-z
x,y,-z
-x,y,1/2+z
x,-y,1/2+z
1/2+x,1/2+y,1/2+z
1/2-x,1/2-y,1/2+z
1/2+x,1/2-y,-z
1/2-x,1/2+y,-z
1/2-x,1/2-y,1/2-z
1/2+x,1/2+y,1/2-z
1/2-x,1/2+y,z
1/2+x,1/2-y,z
loop_
_atom_site_type_symbol
_atom_site_label
_atom_site_fract_x
_atom_site_fract_y
_atom_site_fract_z
Si Si1 0.049326 0.217636 0.677454
Si Si2 0.240312 0.890290 0.664069
Si Si3 0.794783 0.123805 0.828128
Si Si4 0.606411 0.498220 0.334466
Si Si5 0.450222 0.861822 0.676722
Si Si6 0.122911 0.794460 0.580628
Si Si7 0.378056 0.850140 0.919728
O O1 0.144832 0.183849 0.663848
O O2 0.066313 0.289323 0.682433
O O3 0.000000 0.198582 0.750000
O O4 0.976386 0.198873 0.618264
O O5 0.224385 0.881215 0.746206
O O6 0.352396 0.893551 0.659004
O O7 0.198961 0.833430 0.621927
O O8 0.176821 0.948221 0.643604
O O9 0.853560 0.066711 0.852618
O O10 0.701164 0.123446 0.871238
O O11 0.500000 0.500000 0.359424
O O12 0.603589 0.500000 0.250000
O O13 0.500000 0.880159 0.750000
O O14 0.524015 0.867391 0.614641
O O15 0.121115 0.812393 0.500000
O O16 0.137415 0.722331 0.584093
O O17 0.372477 0.868088 0.000000
#
# Coordination Sequence:
#
# PCOD9525784 Si02
#       7
#    16  16  16  16  16  16  16
#     4  10  19  31  55  85 112 148 187 232 286 339
#     4  11  20  35  59  83 112 152 197 237 278 332
#     4  11  20  34  59  83 112 151 194 234 276 336
#     4   9  20  35  56  85 115 145 187 238 284 326
#     4  10  20  34  55  84 112 143 191 239 280 336
#     4  10  21  35  54  85 120 148 182 232 291 347
#     4  10  22  38  55  82 119 151 181 232 294 342
#
# _framework density 18.267593999999999
#
# number of rings (size 3 to 8) (size 9 to 14) (size 15 to 20)
#    0.000    1.857    2.857    1.714    2.000    2.286 
#    0.000    4.286    0.000    2.571    0.000    0.000 
#    0.000    0.000    0.000    0.000    0.000    0.000 
#
# Total GULP energy -312333.860578 kJ/mol
# GULP energy per Si atom -5577.390367 kJ/mol
# Density = 1.822602 g / cm^3
# Si number density = 18.267594 Si / 1000 Ang^3
#
#
#
# Elastic Constant Matrix: (Units=GPa)
#
#
# Indices 1 2 3 4 5 6 
#
# 1 134.7863 39.1432 34.0257 0.0000 0.0000 0.0000
# 2 39.1432 23.3823 21.6657 0.0000 0.0000 0.0000
# 3 34.0257 21.6657 89.5868 0.0000 0.0000 0.0000
# 4 0.0000 0.0000 0.0000 7.3506 0.0000 0.0000
# 5 0.0000 0.0000 0.0000 0.0000 19.8722 0.0000
# 6 0.0000 0.0000 0.0000 0.0000 0.0000 17.8340
#
#
#
# Elastic Compliance Matrix: (Units=1/GPa)
#
#
# Indices 1 2 3 4 5 6 
#
# 1 0.014454 -0.024629 0.000467 0.000000 0.000000 0.000000
# 2 -0.024629 0.097085 -0.014125 0.000000 0.000000 0.000000
# 3 0.000467 -0.014125 0.014401 0.000000 0.000000 0.000000
# 4 0.000000 0.000000 0.000000 0.136043 0.000000 0.000000
# 5 0.000000 0.000000 0.000000 0.000000 0.050321 0.000000
# 6 0.000000 0.000000 0.000000 0.000000 0.000000 0.056073
#
#
# Mechanical properties :
#
#
# Convention : Reuss Voigt Hill
#
# Bulk Modulus (GPa) = 20.25698 48.60273 34.42985
# Shear Modulus (GPa) = 10.83645 19.20609 15.02127
#
# Velocity S-wave (km/s) = 2.43822 3.24601 2.87067
# Velocity P-wave (km/s) = 4.36345 6.38064 5.46590
#
# Compressibility (1/GPa) = 0.04936570
#
# Stress axis : x y z
#
# Youngs Moduli (GPa) = 69.18624 10.30031 69.43912
#
# Poissons Ratio (x) = 0.25368 -0.03240
# Poissons Ratio (y) = 1.70396 0.98081
# Poissons Ratio (z) = -0.03228 0.14549
#
# Static dielectric constant tensor:
#      x y z
#    x 1.642390 0.000000 0.000000 
#    y 0.000000 1.631340 0.000000 
#    z 0.000000 0.000000 1.613730 
# 
# From -- ./inp_files/37449.got.cif
#   From: 2010.05.17/outbox.cif.g08.bks.cpg/sg72_19_cif.got.tgz:37449.got - 2010.06.03 17:03:01.
