data_PCOD9525619
_publ_section_title
;
Structure prediction by ZEFSAII (Michael W. Deem and Ramdas Pophale) SiO2 
 PCOD9525619
Probable space group: I B A M
;
_chemical_formula_sum "Si O2"
_cell_formula_units_Z 96
_cell_length_a 27.811459
_cell_length_b 13.326863
_cell_length_c 13.966506
_cell_angle_alpha 90.000000
_cell_angle_beta 90.000000
_cell_angle_gamma 90.000000
_cell_volume 5176.538855
_symmetry_space_group_name_H-M "I B A M"
_symmetry_group_IT_number 72
_symmetry_cell_setting 'orthorhombic'
loop_
_space_group_symop_operation_xyz
x,y,z
-x,-y,z
x,-y,1/2-z
-x,y,1/2-z
-x,-y,-z
x,y,-z
-x,y,1/2+z
x,-y,1/2+z
1/2+x,1/2+y,1/2+z
1/2-x,1/2-y,1/2+z
1/2+x,1/2-y,-z
1/2-x,1/2+y,-z
1/2-x,1/2-y,1/2-z
1/2+x,1/2+y,1/2-z
1/2-x,1/2+y,z
1/2+x,1/2-y,z
loop_
_atom_site_type_symbol
_atom_site_label
_atom_site_fract_x
_atom_site_fract_y
_atom_site_fract_z
Si Si1 0.821420 0.989893 0.108166
Si Si2 0.930186 0.002151 0.390900
Si Si3 0.471335 0.286126 0.892913
Si Si4 0.320521 0.277459 0.696242
Si Si5 0.725051 0.301627 0.608184
Si Si6 0.929351 0.783609 0.806925
O O1 0.875049 0.036344 0.118628
O O2 0.815300 0.897417 0.178972
O O3 0.783777 0.079103 0.113942
O O4 0.819598 0.947156 0.000000
O O5 0.934299 0.043668 0.500000
O O6 0.932612 0.094661 0.318221
O O7 0.965809 0.908071 0.386094
O O8 0.440669 0.251946 0.801715
O O9 0.525934 0.251978 0.872905
O O10 0.455716 0.259019 0.000000
O O11 0.307733 0.256047 0.807055
O O12 0.279696 0.225431 0.633249
O O13 0.375269 0.253407 0.668562
O O14 0.712702 0.269968 0.500000
#
# Coordination Sequence:
#
# PCOD9525619 Si02
#       6
#    16  16  16  16  16  16
#     4   9  17  30  48  68  91 121 156 192 230 272
#     4   9  16  26  41  60  83 114 150 184 217 256
#     4  10  19  28  39  58  83 112 149 185 214 254
#     4  10  20  33  48  66  91 123 157 192 230 272
#     4  10  20  32  47  67  88 116 157 198 233 271
#     4  10  19  29  41  58  83 116 150 182 217 258
#
# _framework density 18.545210000000001
#
# number of rings (size 3 to 8) (size 9 to 14) (size 15 to 20)
#    0.000    2.333    0.000    3.500    0.000    9.333 
#    0.000    0.000    0.000    0.000    0.000    0.000 
#    0.000    0.000    0.000   73.500    0.000  345.167 
#
# Total GULP energy -267560.323174 kJ/mol
# GULP energy per Si atom -5574.173399 kJ/mol
# Density = 1.850300 g / cm^3
# Si number density = 18.545210 Si / 1000 Ang^3
#
#
#
# Elastic Constant Matrix: (Units=GPa)
#
#
# Indices 1 2 3 4 5 6 
#
# 1 115.9064 27.6180 15.1019 0.0000 0.0000 0.0000
# 2 27.6180 11.6264 5.9328 0.0000 0.0000 0.0000
# 3 15.1019 5.9328 105.9982 0.0000 0.0000 0.0000
# 4 0.0000 0.0000 0.0000 13.5907 0.0000 0.0000
# 5 0.0000 0.0000 0.0000 0.0000 17.2498 0.0000
# 6 0.0000 0.0000 0.0000 0.0000 0.0000 25.5434
#
#
#
# Elastic Compliance Matrix: (Units=1/GPa)
#
#
# Indices 1 2 3 4 5 6 
#
# 1 0.019884 -0.047135 -0.000195 0.000000 0.000000 0.000000
# 2 -0.047135 0.200270 -0.004494 0.000000 0.000000 0.000000
# 3 -0.000195 -0.004494 0.009713 0.000000 0.000000 0.000000
# 4 0.000000 0.000000 0.000000 0.073580 0.000000 0.000000
# 5 0.000000 0.000000 0.000000 0.000000 0.057972 0.000000
# 6 0.000000 0.000000 0.000000 0.000000 0.000000 0.039149
#
#
# Mechanical properties :
#
#
# Convention : Reuss Voigt Hill
#
# Bulk Modulus (GPa) = 7.92260 36.75961 22.34111
# Shear Modulus (GPa) = 9.15268 23.60199 16.37734
#
# Velocity S-wave (km/s) = 2.22397 3.57132 2.97493
# Velocity P-wave (km/s) = 3.29789 6.07211 4.88603
#
# Compressibility (1/GPa) = 0.12622112
#
# Stress axis : x y z
#
# Youngs Moduli (GPa) = 50.29119 4.99326 102.95050
#
# Poissons Ratio (x) = 0.23536 0.02005
# Poissons Ratio (y) = 2.37045 0.46265
# Poissons Ratio (z) = 0.00980 0.02244
#
# Static dielectric constant tensor:
#      x y z
#    x 1.670880 0.000000 0.000000 
#    y 0.000000 1.600420 0.000000 
#    z 0.000000 0.000000 1.732670 
# 
# From -- ./inp_files/26484.got.cif
#   From: 2010.05.17/outbox.cif.g08.bks.cpg/sg72_14_cif.got.tgz:26484.got - 2010.06.03 17:03:01.
