data_PCOD9525586
_publ_section_title
;
Structure prediction by ZEFSAII (Michael W. Deem and Ramdas Pophale) SiO2 
 PCOD9525586
Probable space group: I B A M
;
_chemical_formula_sum "Si O2"
_cell_formula_units_Z 72
_cell_length_a 10.991069
_cell_length_b 24.041114
_cell_length_c 14.371163
_cell_angle_alpha 90.000000
_cell_angle_beta 90.000000
_cell_angle_gamma 90.000000
_cell_volume 3797.400798
_symmetry_space_group_name_H-M "I B A M"
_symmetry_group_IT_number 72
_symmetry_cell_setting 'orthorhombic'
loop_
_space_group_symop_operation_xyz
x,y,z
-x,-y,z
x,-y,1/2-z
-x,y,1/2-z
-x,-y,-z
x,y,-z
-x,y,1/2+z
x,-y,1/2+z
1/2+x,1/2+y,1/2+z
1/2-x,1/2-y,1/2+z
1/2+x,1/2-y,-z
1/2-x,1/2+y,-z
1/2-x,1/2-y,1/2-z
1/2+x,1/2+y,1/2-z
1/2-x,1/2+y,z
1/2+x,1/2-y,z
loop_
_atom_site_type_symbol
_atom_site_label
_atom_site_fract_x
_atom_site_fract_y
_atom_site_fract_z
Si Si1 0.621325 0.435835 0.000000
Si Si2 0.271370 0.144977 0.345355
Si Si3 0.175040 0.061579 0.500000
Si Si4 0.405617 0.631000 0.178727
Si Si5 0.916975 0.770380 0.394702
Si Si6 0.500000 0.182126 0.250000
O O1 0.687152 0.495228 0.000000
O O2 0.472359 0.434485 0.000000
O O3 0.647783 0.403918 0.905261
O O4 0.230139 0.093677 0.410583
O O5 0.201987 0.146369 0.247126
O O6 0.214573 0.199736 0.393632
O O7 0.411611 0.148303 0.318337
O O8 0.500000 0.600531 0.250000
O O9 0.484256 0.682308 0.136758
O O10 0.944479 0.752429 0.500000
O O11 0.924280 0.722527 0.318459
#
# Coordination Sequence:
#
# PCOD9525586 Si02
#       6
#     8  16   8  16  16   8
#     4  11  20  38  64 100 114 163 196 261 352 348
#     4  11  22  42  56  90 132 162 205 262 297 384
#     4  11  22  38  66  90 128 151 204 272 317 379
#     4  10  18  36  60  88 129 151 201 263 313 372
#     4  11  20  36  60  90 123 167 203 261 304 367
#     4  12  26  38  60  87 125 184 210 228 324 374
#
# _framework density 18.960338
#
# number of rings (size 3 to 8) (size 9 to 14) (size 15 to 20)
#    0.000    1.111   10.000    0.667    1.556    0.889 
#    2.000    0.000    0.000    4.000    0.000    0.000 
#    0.000    0.000    0.000    0.000    0.000    0.000 
#
# Total GULP energy -200622.882978 kJ/mol
# GULP energy per Si atom -5572.857861 kJ/mol
# Density = 1.891718 g / cm^3
# Si number density = 18.960338 Si / 1000 Ang^3
#
#
#
# Elastic Constant Matrix: (Units=GPa)
#
#
# Indices 1 2 3 4 5 6 
#
# 1 66.3726 28.3077 17.1930 0.0000 0.0000 0.0000
# 2 28.3077 58.8458 36.8948 0.0000 0.0000 0.0000
# 3 17.1930 36.8948 138.9531 -0.0001 0.0000 0.0000
# 4 0.0000 0.0000 -0.0001 10.5853 0.0000 0.0000
# 5 0.0000 0.0000 0.0000 0.0000 17.3024 0.0000
# 6 0.0000 0.0000 0.0000 0.0000 0.0000 9.9909
#
#
#
# Elastic Compliance Matrix: (Units=1/GPa)
#
#
# Indices 1 2 3 4 5 6 
#
# 1 0.018956 -0.009176 0.000091 0.000000 0.000000 0.000000
# 2 -0.009176 0.024829 -0.005457 0.000000 0.000000 0.000000
# 3 0.000091 -0.005457 0.008634 0.000000 0.000000 0.000000
# 4 0.000000 0.000000 0.000000 0.094470 0.000000 0.000000
# 5 0.000000 0.000000 0.000000 0.000000 0.057795 0.000000
# 6 0.000000 0.000000 0.000000 0.000000 0.000000 0.100091
#
#
# Mechanical properties :
#
#
# Convention : Reuss Voigt Hill
#
# Bulk Modulus (GPa) = 42.85339 47.66250 45.25795
# Shear Modulus (GPa) = 14.63528 19.69413 17.16471
#
# Velocity S-wave (km/s) = 2.78130 3.22639 3.01208
# Velocity P-wave (km/s) = 5.74150 6.25076 6.00154
#
# Compressibility (1/GPa) = 0.02333537
#
# Stress axis : x y z
#
# Youngs Moduli (GPa) = 52.75260 40.27515 115.81516
#
# Poissons Ratio (x) = 0.36956 -0.01052
# Poissons Ratio (y) = 0.48405 0.63204
# Poissons Ratio (z) = -0.00479 0.21979
#
# Static dielectric constant tensor:
#      x y z
#    x 1.710740 0.000000 0.000000 
#    y 0.000000 1.675740 0.000000 
#    z 0.000000 0.000000 1.689770 
# 
# From -- ./inp_files/18949.got.cif
#   From: 2010.05.17/outbox.cif.g08.bks.cpg/sg72_10_cif.got.tgz:18949.got - 2010.06.03 17:03:01.
