data_PCOD9525779
_publ_section_title
;
Structure prediction by ZEFSAII (Michael W. Deem and Ramdas Pophale) SiO2 
 PCOD9525779
Probable space group: I B A M
;
_chemical_formula_sum "Si O2"
_cell_formula_units_Z 112
_cell_length_a 10.194794
_cell_length_b 22.952168
_cell_length_c 26.536530
_cell_angle_alpha 90.000000
_cell_angle_beta 90.000000
_cell_angle_gamma 90.000000
_cell_volume 6209.352303
_symmetry_space_group_name_H-M "I B A M"
_symmetry_group_IT_number 72
_symmetry_cell_setting 'orthorhombic'
loop_
_space_group_symop_operation_xyz
x,y,z
-x,-y,z
x,-y,1/2-z
-x,y,1/2-z
-x,-y,-z
x,y,-z
-x,y,1/2+z
x,-y,1/2+z
1/2+x,1/2+y,1/2+z
1/2-x,1/2-y,1/2+z
1/2+x,1/2-y,-z
1/2-x,1/2+y,-z
1/2-x,1/2-y,1/2-z
1/2+x,1/2+y,1/2-z
1/2-x,1/2+y,z
1/2+x,1/2-y,z
loop_
_atom_site_type_symbol
_atom_site_label
_atom_site_fract_x
_atom_site_fract_y
_atom_site_fract_z
Si Si1 0.339910 0.933086 0.750816
Si Si2 0.327071 0.122295 0.146755
Si Si3 0.869061 0.645197 0.844260
Si Si4 0.353709 0.027956 0.058033
Si Si5 0.187804 0.238072 0.113686
Si Si6 0.925223 0.202680 0.058300
Si Si7 0.760585 0.094969 0.057862
O O1 0.500000 0.933746 0.750000
O O2 0.286085 0.905905 0.699537
O O3 0.309604 0.895366 0.800527
O O4 0.297490 0.000000 0.750000
O O5 0.474658 0.143953 0.157490
O O6 0.331428 0.075926 0.100906
O O7 0.239828 0.176992 0.132966
O O8 0.819970 0.711452 0.844207
O O9 0.833307 0.619326 0.898922
O O10 0.500000 0.000000 0.064589
O O11 0.249199 0.974805 0.062667
O O12 0.347683 0.050118 0.000000
O O13 0.292750 0.263259 0.073572
O O14 0.044965 0.227224 0.090409
O O15 0.892233 0.133517 0.065332
O O16 0.955024 0.211902 0.000000
O O17 0.717655 0.107640 0.000000
#
# Coordination Sequence:
#
# PCOD9525779 Si02
#       7
#    16  16  16  16  16  16  16
#     4   9  19  33  57  86 114 149 187 244 298 338
#     4  11  21  34  56  86 116 150 198 241 286 350
#     4  10  19  35  54  81 119 147 192 240 288 341
#     4  10  19  31  53  85 118 150 191 246 297 347
#     4  11  22  38  56  83 118 157 195 240 289 346
#     4  10  21  37  57  82 116 158 200 239 289 348
#     4   9  18  33  55  81 112 149 186 237 298 341
#
# _framework density 18.037307999999999
#
# number of rings (size 3 to 8) (size 9 to 14) (size 15 to 20)
#    0.000    2.000    2.857    1.286    2.000    2.286 
#    0.000    0.714    0.000    2.571    0.000    4.000 
#    0.000    0.000    0.000    0.000    0.000    0.000 
#
# Total GULP energy -312007.952913 kJ/mol
# GULP energy per Si atom -5571.570588 kJ/mol
# Density = 1.799625 g / cm^3
# Si number density = 18.037308 Si / 1000 Ang^3
#
#
#
# Elastic Constant Matrix: (Units=GPa)
#
#
# Indices 1 2 3 4 5 6 
#
# 1 37.0424 27.3307 23.2765 0.0000 0.0000 0.0000
# 2 27.3307 137.4448 73.4195 0.0000 0.0000 0.0000
# 3 23.2765 73.4195 99.6520 0.0000 0.0000 0.0000
# 4 0.0000 0.0000 0.0000 26.9234 0.0000 0.0000
# 5 0.0000 0.0000 0.0000 0.0000 6.3018 0.0000
# 6 0.0000 0.0000 0.0000 0.0000 0.0000 23.0836
#
#
#
# Elastic Compliance Matrix: (Units=1/GPa)
#
#
# Indices 1 2 3 4 5 6 
#
# 1 0.032936 -0.004023 -0.004729 0.000000 0.000000 0.000000
# 2 -0.004023 0.012489 -0.008261 0.000000 0.000000 0.000000
# 3 -0.004729 -0.008261 0.017226 0.000000 0.000000 0.000000
# 4 0.000000 0.000000 0.000000 0.037142 0.000000 0.000000
# 5 0.000000 0.000000 0.000000 0.000000 0.158684 0.000000
# 6 0.000000 0.000000 0.000000 0.000000 0.000000 0.043321
#
#
# Mechanical properties :
#
#
# Convention : Reuss Voigt Hill
#
# Bulk Modulus (GPa) = 34.93606 58.02140 46.47873
# Shear Modulus (GPa) = 14.47735 21.26925 17.87330
#
# Velocity S-wave (km/s) = 2.83615 3.43765 3.15128
# Velocity P-wave (km/s) = 5.48961 6.92776 6.25019
#
# Compressibility (1/GPa) = 0.02862372
#
# Stress axis : x y z
#
# Youngs Moduli (GPa) = 30.36182 80.07246 58.05106
#
# Poissons Ratio (x) = 0.32214 0.27453
# Poissons Ratio (y) = 0.12215 0.47958
# Poissons Ratio (z) = 0.14358 0.66151
#
# Static dielectric constant tensor:
#      x y z
#    x 1.611030 0.000000 0.000000 
#    y 0.000000 1.652440 0.000000 
#    z 0.000000 0.000000 1.617910 
# 
# From -- ./inp_files/43537.got.cif
#   From: 2010.05.17/outbox.cif.g08.bks.cpg/sg72_22_cif.got.tgz:43537.got - 2010.06.03 17:03:01.
