data_PCOD9525460
_publ_section_title
;
Structure prediction by ZEFSAII (Michael W. Deem and Ramdas Pophale) SiO2 
 PCOD9525460
Probable space group: I B A M
;
_chemical_formula_sum "Si O2"
_cell_formula_units_Z 68
_cell_length_a 8.754872
_cell_length_b 21.456807
_cell_length_c 15.681819
_cell_angle_alpha 90.000000
_cell_angle_beta 90.000000
_cell_angle_gamma 90.000000
_cell_volume 2945.854771
_symmetry_space_group_name_H-M "I B A M"
_symmetry_group_IT_number 72
_symmetry_cell_setting 'orthorhombic'
loop_
_space_group_symop_operation_xyz
x,y,z
-x,-y,z
x,-y,1/2-z
-x,y,1/2-z
-x,-y,-z
x,y,-z
-x,y,1/2+z
x,-y,1/2+z
1/2+x,1/2+y,1/2+z
1/2-x,1/2-y,1/2+z
1/2+x,1/2-y,-z
1/2-x,1/2+y,-z
1/2-x,1/2-y,1/2-z
1/2+x,1/2+y,1/2-z
1/2-x,1/2+y,z
1/2+x,1/2-y,z
loop_
_atom_site_type_symbol
_atom_site_label
_atom_site_fract_x
_atom_site_fract_y
_atom_site_fract_z
Si Si1 0.000000 0.500000 0.750000
Si Si2 0.732663 0.447448 0.638477
Si Si3 0.858556 0.316153 0.597672
Si Si4 0.902910 0.077685 0.400323
Si Si5 0.802504 0.306849 0.895397
O O1 0.877651 0.458111 0.699322
O O2 0.781862 0.383398 0.594434
O O3 0.553618 0.433166 0.656288
O O4 0.707151 0.516947 0.599854
O O5 0.882872 0.295846 0.500000
O O6 0.754793 0.260837 0.633821
O O7 0.026867 0.318707 0.636502
O O8 0.952426 0.085340 0.500000
O O9 0.811069 0.137798 0.369931
O O10 0.804110 0.310403 0.000000
#
# Coordination Sequence:
#
# PCOD9525460 Si02
#       5
#     4  16  16  16  16
#     4  12  28  42  54  80 112 166 208 236 280 326
#     4  11  22  38  58  78 115 153 200 241 276 341
#     4  10  18  32  56  87 119 153 185 236 296 351
#     4  10  20  37  63  95 118 144 183 243 306 349
#     4   9  18  30  52  88 125 148 176 224 302 369
#
# _framework density 23.083283000000002
#
# number of rings (size 3 to 8) (size 9 to 14) (size 15 to 20)
#    0.000    1.882    0.000    5.647    0.000    5.647 
#    0.000    7.647    0.000   12.706    0.000    0.000 
#    0.000    0.000    0.000    0.000    0.000    0.000 
#
# Total GULP energy -189337.754811 kJ/mol
# GULP energy per Si atom -5568.757494 kJ/mol
# Density = 2.303074 g / cm^3
# Si number density = 23.083283 Si / 1000 Ang^3
#
#
#
# Elastic Constant Matrix: (Units=GPa)
#
#
# Indices 1 2 3 4 5 6 
#
# 1 179.0453 73.1305 41.8829 0.0000 0.0000 0.0000
# 2 73.1305 149.2205 17.6971 0.0000 0.0000 0.0000
# 3 41.8829 17.6971 32.9948 0.0000 0.0000 0.0000
# 4 0.0000 0.0000 0.0000 -3.3367 0.0000 0.0000
# 5 0.0000 0.0000 0.0000 0.0000 30.1203 0.0000
# 6 0.0000 0.0000 0.0000 0.0000 0.0000 45.6938
#
#
#
# Elastic Compliance Matrix: (Units=1/GPa)
#
#
# Indices 1 2 3 4 5 6 
#
# 1 0.009302 -0.003373 -0.009998 0.000000 0.000000 0.000000
# 2 -0.003373 0.008380 -0.000213 0.000000 0.000000 0.000000
# 3 -0.009998 -0.000213 0.043114 0.000000 0.000000 0.000000
# 4 0.000000 0.000000 0.000000 -0.299701 0.000000 0.000000
# 5 0.000000 0.000000 0.000000 0.000000 0.033200 0.000000
# 6 0.000000 0.000000 0.000000 0.000000 0.000000 0.021885
#
#
# Mechanical properties :
#
#
# Convention : Reuss Voigt Hill
#
# Bulk Modulus (GPa) = 29.73836 69.63129 49.68483
# Shear Modulus (GPa) = -34.37763 29.73217 -2.32273
#
# Velocity S-wave (km/s) = -3.86331 3.59282 -1.00420
# Velocity P-wave (km/s) = 2.64371 6.88781 4.49737
#
# Compressibility (1/GPa) = 0.03362660
#
# Stress axis : x y z
#
# Youngs Moduli (GPa) = 107.50817 119.33555 23.19448
#
# Poissons Ratio (x) = 0.40250 0.23190
# Poissons Ratio (y) = 0.36260 0.00494
# Poissons Ratio (z) = 1.07489 0.02544
#
# Static dielectric constant tensor:
#      x y z
#    x 1.834470 0.000000 0.000000 
#    y 0.000000 1.838580 0.000000 
#    z 0.000000 0.000000 1.956530 
# 
# From -- ./inp_files/27758.got.cif
#   From: 2010.05.17/outbox.cif.g08.bks.cpg/sg72_14_cif.got.tgz:27758.got - 2010.06.03 17:03:01.
