data_PCOD9525200
_publ_section_title
;
Structure prediction by ZEFSAII (Michael W. Deem and Ramdas Pophale) SiO2 
 PCOD9525200
Probable space group: I B A M
;
_chemical_formula_sum "Si O2"
_cell_formula_units_Z 112
_cell_length_a 11.936888
_cell_length_b 13.152782
_cell_length_c 28.453740
_cell_angle_alpha 90.000000
_cell_angle_beta 90.000000
_cell_angle_gamma 90.000000
_cell_volume 4467.330668
_symmetry_space_group_name_H-M "I B A M"
_symmetry_group_IT_number 72
_symmetry_cell_setting 'orthorhombic'
loop_
_space_group_symop_operation_xyz
x,y,z
-x,-y,z
x,-y,1/2-z
-x,y,1/2-z
-x,-y,-z
x,y,-z
-x,y,1/2+z
x,-y,1/2+z
1/2+x,1/2+y,1/2+z
1/2-x,1/2-y,1/2+z
1/2+x,1/2-y,-z
1/2-x,1/2+y,-z
1/2-x,1/2-y,1/2-z
1/2+x,1/2+y,1/2-z
1/2-x,1/2+y,z
1/2+x,1/2-y,z
loop_
_atom_site_type_symbol
_atom_site_label
_atom_site_fract_x
_atom_site_fract_y
_atom_site_fract_z
Si Si1 0.899438 0.156184 0.283313
Si Si2 0.733408 0.855094 0.711906
Si Si3 0.897428 0.144678 0.051793
Si Si4 0.433398 0.734290 0.349962
Si Si5 0.140124 0.207257 0.053425
Si Si6 0.403492 0.893924 0.125621
Si Si7 0.795592 0.524550 0.553019
O O1 0.788585 0.105567 0.260608
O O2 0.863828 0.273976 0.277199
O O3 0.000000 0.122372 0.250000
O O4 0.960610 0.160552 0.334044
O O5 0.834186 0.793114 0.685756
O O6 0.679852 0.917673 0.669226
O O7 0.886125 0.207689 0.099247
O O8 0.811238 0.052140 0.055110
O O9 0.031939 0.132329 0.053027
O O10 0.877895 0.192071 0.000000
O O11 0.482859 0.848296 0.351618
O O12 0.127600 0.296896 0.091360
O O13 0.245065 0.135115 0.061890
O O14 0.143071 0.250220 0.000000
O O15 0.384759 0.986394 0.090336
O O16 0.840394 0.521473 0.500000
#
# Coordination Sequence:
#
# PCOD9525200 Si02
#       7
#    16  16  16  16  16  16  16
#     4   8  15  25  43  68  99 126 160 208 252 300
#     4   9  15  27  43  68  97 124 165 209 247 306
#     4   9  16  27  44  68  97 128 162 206 255 310
#     4   9  16  27  43  70  99 127 164 203 247 311
#     4   9  18  30  44  67  98 130 170 213 258 313
#     4  10  18  28  47  70  96 128 169 208 260 313
#     4  10  18  29  46  67  96 133 170 212 260 310
#
# _framework density 25.070900999999999
#
# number of rings (size 3 to 8) (size 9 to 14) (size 15 to 20)
#    0.000    2.857    1.429    0.857    0.000    2.286 
#    0.000    0.000    0.000    0.857    0.000   27.000 
#    0.000   11.429    0.000    0.000    0.000    0.000 
#
# Total GULP energy -311736.102964 kJ/mol
# GULP energy per Si atom -5566.716124 kJ/mol
# Density = 2.501384 g / cm^3
# Si number density = 25.070901 Si / 1000 Ang^3
#
#
#
# Elastic Constant Matrix: (Units=GPa)
#
#
# Indices 1 2 3 4 5 6 
#
# 1 75.4449 27.1489 26.6700 0.0000 0.0000 0.0000
# 2 27.1489 35.2737 22.8234 0.0000 0.0000 0.0000
# 3 26.6700 22.8234 128.2836 0.0000 0.0000 0.0000
# 4 0.0000 0.0000 0.0000 3.2344 0.0000 0.0000
# 5 0.0000 0.0000 0.0000 0.0000 30.7805 0.0000
# 6 0.0000 0.0000 0.0000 0.0000 0.0000 26.6658
#
#
#
# Elastic Compliance Matrix: (Units=1/GPa)
#
#
# Indices 1 2 3 4 5 6 
#
# 1 0.018581 -0.013337 -0.001490 0.000000 0.000000 0.000000
# 2 -0.013337 0.041610 -0.004630 0.000000 0.000000 0.000000
# 3 -0.001490 -0.004630 0.008929 0.000000 0.000000 0.000000
# 4 0.000000 0.000000 0.000000 0.309178 0.000000 0.000000
# 5 0.000000 0.000000 0.000000 0.000000 0.032488 0.000000
# 6 0.000000 0.000000 0.000000 0.000000 0.000000 0.037501
#
#
# Mechanical properties :
#
#
# Convention : Reuss Voigt Hill
#
# Bulk Modulus (GPa) = 33.10643 43.58740 38.34692
# Shear Modulus (GPa) = 10.05490 22.96015 16.50752
#
# Velocity S-wave (km/s) = 2.00482 3.02952 2.56878
# Velocity P-wave (km/s) = 4.31194 5.44616 4.91190
#
# Compressibility (1/GPa) = 0.03020561
#
# Stress axis : x y z
#
# Youngs Moduli (GPa) = 53.81935 24.03241 111.99679
#
# Poissons Ratio (x) = 0.32051 0.16689
# Poissons Ratio (y) = 0.71777 0.51859
# Poissons Ratio (z) = 0.08020 0.11128
#
# Static dielectric constant tensor:
#      x y z
#    x 2.050220 0.000000 0.000000 
#    y 0.000000 2.001470 0.000000 
#    z 0.000000 0.000000 2.021860 
# 
# From -- ./inp_files/51869.got.cif
#   From: 2010.05.17/outbox.cif.g08.bks.cpg/sg72_26_cif.got.tgz:51869.got - 2010.06.03 17:03:01.
