data_PCOD9525414
_publ_section_title
;
Structure prediction by ZEFSAII (Michael W. Deem and Ramdas Pophale) SiO2 
 PCOD9525414
Probable space group: I B A M
;
_chemical_formula_sum "Si O2"
_cell_formula_units_Z 56
_cell_length_a 12.535206
_cell_length_b 21.035737
_cell_length_c 10.475837
_cell_angle_alpha 90.000000
_cell_angle_beta 90.000000
_cell_angle_gamma 90.000000
_cell_volume 2762.345139
_symmetry_space_group_name_H-M "I B A M"
_symmetry_group_IT_number 72
_symmetry_cell_setting 'orthorhombic'
loop_
_space_group_symop_operation_xyz
x,y,z
-x,-y,z
x,-y,1/2-z
-x,y,1/2-z
-x,-y,-z
x,y,-z
-x,y,1/2+z
x,-y,1/2+z
1/2+x,1/2+y,1/2+z
1/2-x,1/2-y,1/2+z
1/2+x,1/2-y,-z
1/2-x,1/2+y,-z
1/2-x,1/2-y,1/2-z
1/2+x,1/2+y,1/2-z
1/2-x,1/2+y,z
1/2+x,1/2-y,z
loop_
_atom_site_type_symbol
_atom_site_label
_atom_site_fract_x
_atom_site_fract_y
_atom_site_fract_z
Si Si1 0.002883 0.354817 0.500000
Si Si2 0.887103 0.263588 0.851478
Si Si3 0.262150 0.922403 0.500000
Si Si4 0.781915 0.426504 0.500000
Si Si5 0.295379 0.644882 0.748910
O O1 0.007798 0.305077 0.617575
O O2 0.116695 0.392360 0.500000
O O3 0.904024 0.401195 0.500000
O O4 0.805123 0.309211 0.779054
O O5 0.886814 0.195533 0.785076
O O6 0.845990 0.252826 0.000000
O O7 0.199636 0.897586 0.375491
O O8 0.275675 0.997742 0.500000
O O9 0.728159 0.398132 0.626615
#
# Coordination Sequence:
#
# PCOD9525414 Si02
#       5
#     8  16   8   8  16
#     4   8  18  33  45  70 100 140 181 220 263 312
#     4   8  16  33  49  66  88 127 193 246 254 289
#     4  10  21  32  42  72 108 139 185 210 251 339
#     4  12  20  29  49  72 108 149 164 206 273 341
#     4  10  18  32  50  68  94 140 184 225 267 304
#
# _framework density 20.272629999999999
#
# number of rings (size 3 to 8) (size 9 to 14) (size 15 to 20)
#    0.857    1.714    2.857    1.286    0.000    4.571 
#    0.000    5.714    0.000    1.714    0.000    0.000 
#    0.000    0.000    0.000  586.286    0.000    0.000 
#
# Total GULP energy -155919.634251 kJ/mol
# GULP energy per Si atom -5568.558366 kJ/mol
# Density = 2.022649 g / cm^3
# Si number density = 20.272630 Si / 1000 Ang^3
#
#
#
# Elastic Constant Matrix: (Units=GPa)
#
#
# Indices 1 2 3 4 5 6 
#
# 1 40.7150 44.2095 31.9026 0.0000 0.0000 0.0000
# 2 44.2095 207.8246 87.9903 0.0001 0.0000 0.0000
# 3 31.9026 87.9903 174.8720 0.0001 -0.0001 -0.0004
# 4 0.0000 0.0001 0.0001 29.9437 0.0000 0.0001
# 5 0.0000 0.0000 -0.0001 0.0000 13.7839 0.0002
# 6 0.0000 0.0000 -0.0004 0.0001 0.0002 -57.0925
#
#
#
# Elastic Compliance Matrix: (Units=1/GPa)
#
#
# Indices 1 2 3 4 5 6 
#
# 1 0.033281 -0.005730 -0.003189 0.000000 0.000000 0.000000
# 2 -0.005730 0.007101 -0.002528 0.000000 0.000000 0.000000
# 3 -0.003189 -0.002528 0.007572 0.000000 0.000000 0.000000
# 4 0.000000 0.000000 0.000000 0.033396 0.000000 0.000000
# 5 0.000000 0.000000 0.000000 0.000000 0.072548 0.000000
# 6 0.000000 0.000000 0.000000 0.000000 0.000000 -0.017515
#
#
# Mechanical properties :
#
#
# Convention : Reuss Voigt Hill
#
# Bulk Modulus (GPa) = 39.90122 83.51294 61.70708
# Shear Modulus (GPa) = 29.82797 14.61430 22.22114
#
# Velocity S-wave (km/s) = 3.83997 2.68785 3.31435
# Velocity P-wave (km/s) = 6.27579 7.13562 6.71947
#
# Compressibility (1/GPa) = 0.02506189
#
# Stress axis : x y z
#
# Youngs Moduli (GPa) = 30.04736 140.83025 132.06585
#
# Poissons Ratio (x) = 0.80691 0.42110
# Poissons Ratio (y) = 0.17216 0.33381
# Poissons Ratio (z) = 0.09581 0.35596
#
# Static dielectric constant tensor:
#      x y z
#    x 1.742710 0.000000 0.000000 
#    y 0.000000 1.698180 0.000000 
#    z 0.000000 0.000000 1.792290 
# 
# From -- ./inp_files/4300.got.cif
#   From: 2010.05.17/outbox.cif.g08.bks.cpg/sg72_3_cif.got.tgz:4300.got - 2010.06.03 17:03:01.
