data_PCOD9525311
_publ_section_title
;
Structure prediction by ZEFSAII (Michael W. Deem and Ramdas Pophale) SiO2 
 PCOD9525311
Probable space group: I B A M
;
_chemical_formula_sum "Si O2"
_cell_formula_units_Z 104
_cell_length_a 8.981220
_cell_length_b 15.707798
_cell_length_c 29.899571
_cell_angle_alpha 90.000000
_cell_angle_beta 90.000000
_cell_angle_gamma 90.000000
_cell_volume 4218.087646
_symmetry_space_group_name_H-M "I B A M"
_symmetry_group_IT_number 72
_symmetry_cell_setting 'orthorhombic'
loop_
_space_group_symop_operation_xyz
x,y,z
-x,-y,z
x,-y,1/2-z
-x,y,1/2-z
-x,-y,-z
x,y,-z
-x,y,1/2+z
x,-y,1/2+z
1/2+x,1/2+y,1/2+z
1/2-x,1/2-y,1/2+z
1/2+x,1/2-y,-z
1/2-x,1/2+y,-z
1/2-x,1/2-y,1/2-z
1/2+x,1/2+y,1/2-z
1/2-x,1/2+y,z
1/2+x,1/2-y,z
loop_
_atom_site_type_symbol
_atom_site_label
_atom_site_fract_x
_atom_site_fract_y
_atom_site_fract_z
Si Si1 0.330773 0.972697 0.193343
Si Si2 0.752017 0.389180 0.000000
Si Si3 0.728438 0.794078 0.147845
Si Si4 0.937848 0.120419 0.578916
Si Si5 0.984088 0.313369 0.929197
Si Si6 0.324902 0.370141 0.736258
Si Si7 0.240287 0.394076 0.894549
O O1 0.277844 0.889039 0.220451
O O2 0.320520 0.959749 0.140932
O O3 0.500000 0.000000 0.203714
O O4 0.209924 0.042792 0.208598
O O5 0.647899 0.426622 0.959895
O O6 0.854275 0.343236 0.961001
O O7 0.847588 0.855362 0.123620
O O8 0.573527 0.818492 0.122826
O O9 0.754326 0.803142 0.200823
O O10 0.748983 0.698485 0.129775
O O11 0.972200 0.216638 0.559663
O O12 0.095200 0.082887 0.591930
O O13 0.124230 0.375781 0.933789
O O14 0.500000 0.358799 0.750000
#
# Coordination Sequence:
#
# PCOD9525311 Si02
#       7
#    16   8  16  16  16  16  16
#     4  11  23  38  57  82 112 146 189 235 276 329
#     4  10  18  30  50  82 119 148 175 222 283 326
#     4   9  19  36  55  80 114 147 183 228 280 328
#     4   9  18  31  51  81 112 145 184 226 271 329
#     4   9  18  31  51  80 116 149 179 223 276 333
#     4  11  22  38  58  81 109 145 190 235 274 326
#     4  10  20  36  56  82 114 146 185 230 277 329
#
# _framework density 24.655722999999998
#
# number of rings (size 3 to 8) (size 9 to 14) (size 15 to 20)
#    0.000    2.154    0.000    5.077    0.000    1.231 
#    0.000    3.077    0.000    1.846    0.000   33.385 
#    0.000    0.000    0.000    0.000    0.000    0.000 
#
# Total GULP energy -289474.237865 kJ/mol
# GULP energy per Si atom -5566.812267 kJ/mol
# Density = 2.459961 g / cm^3
# Si number density = 24.655723 Si / 1000 Ang^3
#
#
#
# Elastic Constant Matrix: (Units=GPa)
#
#
# Indices 1 2 3 4 5 6 
#
# 1 94.6109 12.0491 -4.5382 0.0000 0.0000 0.0000
# 2 12.0491 61.2721 15.0211 0.0000 0.0000 0.0000
# 3 -4.5382 15.0211 62.5912 0.0000 0.0000 0.0000
# 4 0.0000 0.0000 0.0000 5.3141 0.0000 0.0000
# 5 0.0000 0.0000 0.0000 0.0000 17.9366 0.0000
# 6 0.0000 0.0000 0.0000 0.0000 0.0000 11.4232
#
#
#
# Elastic Compliance Matrix: (Units=1/GPa)
#
#
# Indices 1 2 3 4 5 6 
#
# 1 0.010954 -0.002496 0.001393 0.000000 0.000000 0.000000
# 2 -0.002496 0.017909 -0.004479 0.000000 0.000000 0.000000
# 3 0.001393 -0.004479 0.017153 0.000000 0.000000 0.000000
# 4 0.000000 0.000000 0.000000 0.188179 0.000000 0.000000
# 5 0.000000 0.000000 0.000000 0.000000 0.055752 0.000000
# 6 0.000000 0.000000 0.000000 0.000000 0.000000 0.087541
#
#
# Mechanical properties :
#
#
# Convention : Reuss Voigt Hill
#
# Bulk Modulus (GPa) = 28.69169 29.28203 28.98686
# Shear Modulus (GPa) = 12.49159 19.99759 16.24459
#
# Velocity S-wave (km/s) = 2.25331 2.85102 2.56961
# Velocity P-wave (km/s) = 4.29326 4.76864 4.53718
#
# Compressibility (1/GPa) = 0.03485330
#
# Stress axis : x y z
#
# Youngs Moduli (GPa) = 91.28861 55.83638 58.30019
#
# Poissons Ratio (x) = 0.13935 -0.08122
# Poissons Ratio (y) = 0.22783 0.26113
# Poissons Ratio (z) = -0.12718 0.25009
#
# Static dielectric constant tensor:
#      x y z
#    x 1.963760 0.000000 0.000000 
#    y 0.000000 2.030670 0.000000 
#    z 0.000000 0.000000 1.935350 
# 
# From -- ./inp_files/50895.got.cif
#   From: 2010.05.17/outbox.cif.g08.bks.cpg/sg72_26_cif.got.tgz:50895.got - 2010.06.03 17:03:01.
