data_PCOD9525426
_publ_section_title
;
Structure prediction by ZEFSAII (Michael W. Deem and Ramdas Pophale) SiO2 
 PCOD9525426
Probable space group: I B A M
;
_chemical_formula_sum "Si O2"
_cell_formula_units_Z 112
_cell_length_a 12.921704
_cell_length_b 25.676993
_cell_length_c 13.570044
_cell_angle_alpha 90.000000
_cell_angle_beta 90.000000
_cell_angle_gamma 90.000000
_cell_volume 4502.411727
_symmetry_space_group_name_H-M "I B A M"
_symmetry_group_IT_number 72
_symmetry_cell_setting 'orthorhombic'
loop_
_space_group_symop_operation_xyz
x,y,z
-x,-y,z
x,-y,1/2-z
-x,y,1/2-z
-x,-y,-z
x,y,-z
-x,y,1/2+z
x,-y,1/2+z
1/2+x,1/2+y,1/2+z
1/2-x,1/2-y,1/2+z
1/2+x,1/2-y,-z
1/2-x,1/2+y,-z
1/2-x,1/2-y,1/2-z
1/2+x,1/2+y,1/2-z
1/2-x,1/2+y,z
1/2+x,1/2-y,z
loop_
_atom_site_type_symbol
_atom_site_label
_atom_site_fract_x
_atom_site_fract_y
_atom_site_fract_z
Si Si1 0.344220 0.909061 0.120161
Si Si2 0.798654 0.473740 0.119687
Si Si3 0.932266 0.627957 0.379746
Si Si4 0.231182 0.712445 0.119993
Si Si5 0.563145 0.547427 0.649191
Si Si6 0.945141 0.165722 0.610045
Si Si7 0.824176 0.827825 0.379535
O O1 0.448855 0.879554 0.151037
O O2 0.242770 0.877402 0.153485
O O3 0.342936 0.969784 0.148160
O O4 0.343197 0.908609 0.000000
O O5 0.868170 0.424121 0.146886
O O6 0.682235 0.468203 0.157841
O O7 0.791865 0.473086 0.000000
O O8 0.934420 0.629560 0.500000
O O9 0.868041 0.678715 0.347150
O O10 0.338363 0.686633 0.153589
O O11 0.228475 0.773081 0.144789
O O12 0.229309 0.709159 0.000000
O O13 0.500000 0.500000 0.601161
O O14 0.500000 0.555036 0.750000
O O15 0.563516 0.603697 0.601284
O O16 0.950312 0.189744 0.500000
O O17 0.057630 0.174548 0.655210
O O18 0.828121 0.831674 0.500000
#
# Coordination Sequence:
#
# PCOD9525426 Si02
#       7
#    16  16  16  16  16  16  16
#     4   9  17  27  44  74 112 145 177 221 269 321
#     4  10  18  32  52  78 108 141 184 227 272 328
#     4   9  16  27  45  73 108 145 178 216 265 319
#     4   9  17  28  45  72 107 144 180 221 267 317
#     4  11  23  36  52  76 106 143 180 224 275 328
#     4  10  19  34  54  78 108 143 183 224 273 328
#     4   9  18  28  44  74 109 144 177 220 272 317
#
# _framework density 24.875558000000002
#
# number of rings (size 3 to 8) (size 9 to 14) (size 15 to 20)
#    0.000    2.429    1.429    1.714    2.000    4.000 
#    0.000    0.000    0.000    0.857    0.000   17.000 
#    0.000    0.000    0.000    0.000    0.000    0.571 
#
# Total GULP energy -313523.356548 kJ/mol
# GULP energy per Si atom -5598.631367 kJ/mol
# Density = 2.481894 g / cm^3
# Si number density = 24.875558 Si / 1000 Ang^3
#
#
#
# Elastic Constant Matrix: (Units=GPa)
#
#
# Indices 1 2 3 4 5 6 
#
# 1 136.2817 33.1674 -4.0230 -0.0001 0.0000 0.0000
# 2 33.1674 121.3961 -5.5524 0.0000 0.0000 0.0000
# 3 -4.0230 -5.5524 84.0171 -0.0001 -0.0002 0.0000
# 4 -0.0001 0.0000 -0.0001 25.0837 -0.0001 0.0000
# 5 0.0000 0.0000 -0.0002 -0.0001 72.2145 0.0000
# 6 0.0000 0.0000 0.0000 0.0000 0.0000 27.9341
#
#
#
# Elastic Compliance Matrix: (Units=1/GPa)
#
#
# Indices 1 2 3 4 5 6 
#
# 1 0.007865 -0.002138 0.000235 0.000000 0.000000 0.000000
# 2 -0.002138 0.008844 0.000482 0.000000 0.000000 0.000000
# 3 0.000235 0.000482 0.011945 0.000000 0.000000 0.000000
# 4 0.000000 0.000000 0.000000 0.039867 0.000000 0.000000
# 5 0.000000 0.000000 0.000000 0.000000 0.013848 0.000000
# 6 0.000000 0.000000 0.000000 0.000000 0.000000 0.035799
#
#
# Mechanical properties :
#
#
# Convention : Reuss Voigt Hill
#
# Bulk Modulus (GPa) = 38.74050 43.20877 40.97463
# Shear Modulus (GPa) = 38.57650 46.25333 42.41491
#
# Velocity S-wave (km/s) = 3.94227 4.31674 4.13375
# Velocity P-wave (km/s) = 6.02739 6.50026 6.26829
#
# Compressibility (1/GPa) = 0.02581278
#
# Stress axis : x y z
#
# Youngs Moduli (GPa) = 127.14489 113.07475 83.71376
#
# Poissons Ratio (x) = 0.24176 -0.01970
# Poissons Ratio (y) = 0.27185 -0.04036
# Poissons Ratio (z) = -0.02992 -0.05451
#
# Static dielectric constant tensor:
#      x y z
#    x 1.884880 0.000000 0.000000 
#    y 0.000000 1.882300 0.000000 
#    z 0.000000 0.000000 2.232160 
# 
# From -- ./inp_files/37416.got.cif
#   From: 2010.05.17/outbox.cif.g08.bks.cpg/sg72_19_cif.got.tgz:37416.got - 2010.06.03 17:03:01.
