data_PCOD9525140
_publ_section_title
;
Structure prediction by ZEFSAII (Michael W. Deem and Ramdas Pophale) SiO2 
 PCOD9525140
Probable space group: I B A M
;
_chemical_formula_sum "Si O2"
_cell_formula_units_Z 88
_cell_length_a 31.006860
_cell_length_b 7.673245
_cell_length_c 14.366911
_cell_angle_alpha 90.000000
_cell_angle_beta 90.000000
_cell_angle_gamma 90.000000
_cell_volume 3418.221920
_symmetry_space_group_name_H-M "I B A M"
_symmetry_group_IT_number 72
_symmetry_cell_setting 'orthorhombic'
loop_
_space_group_symop_operation_xyz
x,y,z
-x,-y,z
x,-y,1/2-z
-x,y,1/2-z
-x,-y,-z
x,y,-z
-x,y,1/2+z
x,-y,1/2+z
1/2+x,1/2+y,1/2+z
1/2-x,1/2-y,1/2+z
1/2+x,1/2-y,-z
1/2-x,1/2+y,-z
1/2-x,1/2-y,1/2-z
1/2+x,1/2+y,1/2-z
1/2-x,1/2+y,z
1/2+x,1/2-y,z
loop_
_atom_site_type_symbol
_atom_site_label
_atom_site_fract_x
_atom_site_fract_y
_atom_site_fract_z
Si Si1 0.647455 0.866107 0.000000
Si Si2 0.913784 0.804432 0.362951
Si Si3 0.005931 0.698124 0.362726
Si Si4 0.289097 0.318303 0.865260
Si Si5 0.305644 0.285279 0.643949
Si Si6 0.899051 0.801378 0.858829
O O1 0.609636 0.845085 0.919417
O O2 0.684426 0.824226 0.920515
O O3 0.904953 0.781267 0.252914
O O4 0.964171 0.808962 0.389656
O O5 0.894843 0.994759 0.383853
O O6 0.053795 0.748289 0.393053
O O7 0.000000 0.500000 0.391231
O O8 0.000000 0.703772 0.250000
O O9 0.300681 0.290712 0.756316
O O10 0.302604 0.514890 0.888509
O O11 0.238171 0.307433 0.885142
O O12 0.352984 0.216534 0.614078
#
# Coordination Sequence:
#
# PCOD9525140 Si02
#       6
#     8  16  16  16  16  16
#     4  12  20  36  58  88 113 156 187 242 285 342
#     4  10  19  34  61  84 114 149 190 235 284 342
#     4   9  19  35  57  89 114 140 189 245 285 333
#     4  10  21  36  60  81 123 143 196 239 288 333
#     4  10  19  40  57  88 108 157 192 241 276 347
#     4  10  17  37  62  83 109 150 196 236 280 340
#
# _framework density 25.74438
#
# number of rings (size 3 to 8) (size 9 to 14) (size 15 to 20)
#    0.000    2.000    3.636    1.636    0.000    2.909 
#    3.273    5.909    0.000    0.000    0.000    0.000 
#    0.000    0.000    0.000    0.000    0.000    0.000 
#
# Total GULP energy -245012.915542 kJ/mol
# GULP energy per Si atom -5568.475353 kJ/mol
# Density = 2.568578 g / cm^3
# Si number density = 25.744380 Si / 1000 Ang^3
#
#
#
# Elastic Constant Matrix: (Units=GPa)
#
#
# Indices 1 2 3 4 5 6 
#
# 1 304.6894 40.4218 -8.5712 0.0000 0.0000 0.0000
# 2 40.4218 36.3697 -17.5253 0.0000 0.0000 0.0000
# 3 -8.5712 -17.5253 103.7134 0.0000 0.0000 0.0000
# 4 0.0000 0.0000 0.0000 -199.3519 0.0000 0.0000
# 5 0.0000 0.0000 0.0000 0.0000 -9.5421 0.0000
# 6 0.0000 0.0000 0.0000 0.0000 0.0000 42.3521
#
#
#
# Elastic Compliance Matrix: (Units=1/GPa)
#
#
# Indices 1 2 3 4 5 6 
#
# 1 0.003868 -0.004513 -0.000443 0.000000 0.000000 0.000000
# 2 -0.004513 0.035197 0.005575 0.000000 0.000000 0.000000
# 3 -0.000443 0.005575 0.010547 0.000000 0.000000 0.000000
# 4 0.000000 0.000000 0.000000 -0.005016 0.000000 0.000000
# 5 0.000000 0.000000 0.000000 0.000000 -0.104799 0.000000
# 6 0.000000 0.000000 0.000000 0.000000 0.000000 0.023612
#
#
# Mechanical properties :
#
#
# Convention : Reuss Voigt Hill
#
# Bulk Modulus (GPa) = 19.66537 52.60258 36.13397
# Shear Modulus (GPa) = -239.47094 -4.61189 -122.04141
#
# Velocity S-wave (km/s) = -9.65508 -1.33989 -6.89260
# Velocity P-wave (km/s) = 10.79995 4.25244 7.01982
#
# Compressibility (1/GPa) = 0.05085081
#
# Stress axis : x y z
#
# Youngs Moduli (GPa) = 258.51538 28.41153 94.81063
#
# Poissons Ratio (x) = 0.12821 0.04199
# Poissons Ratio (y) = 1.16658 -0.52853
# Poissons Ratio (z) = 0.11448 -0.15838
#
# Static dielectric constant tensor:
#      x y z
#    x 2.018490 0.000000 0.000000 
#    y 0.000000 2.030550 0.000000 
#    z 0.000000 0.000000 2.036930 
# 
# From -- ./inp_files/34240.got.cif
#   From: 2010.05.17/outbox.cif.g08.bks.cpg/sg72_18_cif.got.tgz:34240.got - 2010.06.03 17:03:01.
