data_PCOD9525431
_publ_section_title
;
Structure prediction by ZEFSAII (Michael W. Deem and Ramdas Pophale) SiO2 
 PCOD9525431
Probable space group: I B A M
;
_chemical_formula_sum "Si O2"
_cell_formula_units_Z 112
_cell_length_a 20.152353
_cell_length_b 18.115304
_cell_length_c 14.584794
_cell_angle_alpha 90.000000
_cell_angle_beta 90.000000
_cell_angle_gamma 90.000000
_cell_volume 5324.412420
_symmetry_space_group_name_H-M "I B A M"
_symmetry_group_IT_number 72
_symmetry_cell_setting 'orthorhombic'
loop_
_space_group_symop_operation_xyz
x,y,z
-x,-y,z
x,-y,1/2-z
-x,y,1/2-z
-x,-y,-z
x,y,-z
-x,y,1/2+z
x,-y,1/2+z
1/2+x,1/2+y,1/2+z
1/2-x,1/2-y,1/2+z
1/2+x,1/2-y,-z
1/2-x,1/2+y,-z
1/2-x,1/2-y,1/2-z
1/2+x,1/2+y,1/2-z
1/2-x,1/2+y,z
1/2+x,1/2-y,z
loop_
_atom_site_type_symbol
_atom_site_label
_atom_site_fract_x
_atom_site_fract_y
_atom_site_fract_z
Si Si1 0.334153 0.471356 0.387765
Si Si2 0.814349 0.434463 0.112748
Si Si3 0.599742 0.376044 0.387301
Si Si4 0.448996 0.636039 0.891846
Si Si5 0.432668 0.041159 0.389366
Si Si6 0.625107 0.784672 0.896656
Si Si7 0.476108 0.798616 0.852658
O O1 0.333292 0.469065 0.500000
O O2 0.259831 0.453305 0.357935
O O3 0.358097 0.552984 0.361725
O O4 0.388972 0.412547 0.354533
O O5 0.868603 0.495215 0.140508
O O6 0.837719 0.353904 0.146648
O O7 0.815996 0.432704 0.000000
O O8 0.598399 0.372263 0.500000
O O9 0.523019 0.382175 0.356619
O O10 0.627015 0.296895 0.353989
O O11 0.439956 0.723944 0.882496
O O12 0.451820 0.618952 0.000000
O O13 0.433435 0.040502 0.500000
O O14 0.435579 0.126348 0.361033
O O15 0.500000 0.000000 0.358491
O O16 0.546997 0.805193 0.903501
O O17 0.651813 0.777129 0.000000
O O18 0.500000 0.787976 0.750000
#
# Coordination Sequence:
#
# PCOD9525431 Si02
#       7
#    16  16  16  16  16  16  16
#     4   9  16  28  47  79 108 127 165 216 259 302
#     4   9  17  29  47  73 105 135 163 206 257 310
#     4   8  14  25  47  74 100 128 162 203 252 304
#     4   9  17  31  52  76 103 132 164 209 263 308
#     4  10  18  32  53  74 100 133 169 211 260 305
#     4   9  16  31  51  72 100 134 165 201 260 311
#     4  11  21  32  50  78 101 130 174 220 254 301
#
# _framework density 21.035184999999998
#
# number of rings (size 3 to 8) (size 9 to 14) (size 15 to 20)
#    0.000    2.714    1.429    2.571    0.000    2.000 
#    2.571    0.000    0.000    7.714    7.429    0.000 
#    0.000    0.000    0.000    0.000    0.000    0.000 
#
# Total GULP energy -312605.448942 kJ/mol
# GULP energy per Si atom -5582.240160 kJ/mol
# Density = 2.098731 g / cm^3
# Si number density = 21.035185 Si / 1000 Ang^3
#
#
#
# Elastic Constant Matrix: (Units=GPa)
#
#
# Indices 1 2 3 4 5 6 
#
# 1 150.9711 132.7399 -0.7501 0.0000 0.0000 0.0000
# 2 132.7399 194.3613 -18.8630 0.0000 0.0000 0.0000
# 3 -0.7501 -18.8630 38.9150 0.0000 0.0000 0.0000
# 4 0.0000 0.0000 0.0000 -8.5392 0.0000 0.0000
# 5 0.0000 0.0000 0.0000 0.0000 0.4557 0.0000
# 6 0.0000 0.0000 0.0000 0.0000 0.0000 19.8240
#
#
#
# Elastic Compliance Matrix: (Units=1/GPa)
#
#
# Indices 1 2 3 4 5 6 
#
# 1 0.017747 -0.012684 -0.005806 0.000000 0.000000 0.000000
# 2 -0.012684 0.014464 0.006767 0.000000 0.000000 0.000000
# 3 -0.005806 0.006767 0.028865 0.000000 0.000000 0.000000
# 4 0.000000 0.000000 0.000000 -0.117107 0.000000 0.000000
# 5 0.000000 0.000000 0.000000 0.000000 2.194360 0.000000
# 6 0.000000 0.000000 0.000000 0.000000 0.000000 0.050444
#
#
# Mechanical properties :
#
#
# Convention : Reuss Voigt Hill
#
# Bulk Modulus (GPa) = 26.57467 67.83344 47.20406
# Shear Modulus (GPa) = 2.24743 20.42280 11.33511
#
# Velocity S-wave (km/s) = 1.03476 3.11929 2.32386
# Velocity P-wave (km/s) = 3.75347 6.72985 5.44883
#
# Compressibility (1/GPa) = 0.03762982
#
# Stress axis : x y z
#
# Youngs Moduli (GPa) = 56.34647 69.13491 34.64388
#
# Poissons Ratio (x) = 0.87692 0.20115
# Poissons Ratio (y) = 0.71471 -0.23443
# Poissons Ratio (z) = 0.32716 -0.46782
#
# Static dielectric constant tensor:
#      x y z
#    x 1.718180 0.000000 0.000000 
#    y 0.000000 1.746160 0.000000 
#    z 0.000000 0.000000 2.060660 
# 
# From -- ./inp_files/31885.got.cif
#   From: 2010.05.17/outbox.cif.g08.bks.cpg/sg72_16_cif.got.tgz:31885.got - 2010.06.03 17:03:01.
