data_PCOD9525973
_publ_section_title
;
Structure prediction by ZEFSAII (Michael W. Deem and Ramdas Pophale) SiO2 
 PCOD9525973
Probable space group: I B A M
;
_chemical_formula_sum "Si O2"
_cell_formula_units_Z 96
_cell_length_a 24.928304
_cell_length_b 23.910849
_cell_length_c 8.539145
_cell_angle_alpha 90.000000
_cell_angle_beta 90.000000
_cell_angle_gamma 90.000000
_cell_volume 5089.816406
_symmetry_space_group_name_H-M "I B A M"
_symmetry_group_IT_number 72
_symmetry_cell_setting 'orthorhombic'
loop_
_space_group_symop_operation_xyz
x,y,z
-x,-y,z
x,-y,1/2-z
-x,y,1/2-z
-x,-y,-z
x,y,-z
-x,y,1/2+z
x,-y,1/2+z
1/2+x,1/2+y,1/2+z
1/2-x,1/2-y,1/2+z
1/2+x,1/2-y,-z
1/2-x,1/2+y,-z
1/2-x,1/2-y,1/2-z
1/2+x,1/2+y,1/2-z
1/2-x,1/2+y,z
1/2+x,1/2-y,z
loop_
_atom_site_type_symbol
_atom_site_label
_atom_site_fract_x
_atom_site_fract_y
_atom_site_fract_z
Si Si1 0.660177 0.637065 0.690553
Si Si2 0.941351 0.936777 0.811100
Si Si3 0.057225 0.332712 0.812521
Si Si4 0.221608 0.372035 0.312683
Si Si5 0.119979 0.561800 0.312934
Si Si6 0.663989 0.766150 0.689328
O O1 0.658415 0.637311 0.500000
O O2 0.607716 0.602965 0.741823
O O3 0.718021 0.612314 0.736736
O O4 0.662783 0.701900 0.739927
O O5 0.000000 0.918325 0.750000
O O6 0.932846 0.000000 0.750000
O O7 0.942675 0.937659 0.000000
O O8 0.074644 0.394546 0.756704
O O9 0.106229 0.292490 0.769296
O O10 0.000000 0.315278 0.750000
O O11 0.054883 0.333632 0.000000
O O12 0.218145 0.375551 0.500000
O O13 0.176596 0.411651 0.239125
O O14 0.207324 0.308285 0.263084
O O15 0.112824 0.500000 0.250000
O O16 0.118848 0.560848 0.500000
O O17 0.670428 0.768291 0.500000
#
# Coordination Sequence:
#
# PCOD9525973 Si02
#       6
#    16  16  16  16  16  16
#     4   9  19  34  55  79 105 136 173 212 255 305
#     4  10  20  37  56  76 103 136 170 212 260 308
#     4   9  19  33  51  73 101 135 171 210 257 303
#     4  10  19  33  53  79 107 138 172 211 256 306
#     4  10  21  37  54  75 103 138 174 216 263 307
#     4   9  18  35  53  74 106 141 171 210 259 304
#
# _framework density 18.861191000000002
#
# number of rings (size 3 to 8) (size 9 to 14) (size 15 to 20)
#    0.000    2.500    0.000    3.500    0.000    5.000 
#    0.000    9.167    0.000    0.000    0.000    0.000 
#    0.000    0.000    0.000    0.000    0.000    0.000 
#
# Total GULP energy -267762.164539 kJ/mol
# GULP energy per Si atom -5578.378428 kJ/mol
# Density = 1.881826 g / cm^3
# Si number density = 18.861191 Si / 1000 Ang^3
#
#
#
# Elastic Constant Matrix: (Units=GPa)
#
#
# Indices 1 2 3 4 5 6 
#
# 1 110.1933 3.6354 9.6790 0.0000 0.0000 0.0000
# 2 3.6354 19.5742 0.3449 0.0000 0.0000 0.0000
# 3 9.6790 0.3449 29.2302 0.0000 0.0000 0.0000
# 4 0.0000 0.0000 0.0000 22.7970 0.0000 0.0000
# 5 0.0000 0.0000 0.0000 0.0000 27.1977 0.0000
# 6 0.0000 0.0000 0.0000 0.0000 0.0000 16.7207
#
#
#
# Elastic Compliance Matrix: (Units=1/GPa)
#
#
# Indices 1 2 3 4 5 6 
#
# 1 0.009402 -0.001692 -0.003093 0.000000 0.000000 0.000000
# 2 -0.001692 0.051403 -0.000046 0.000000 0.000000 0.000000
# 3 -0.003093 -0.000046 0.035236 0.000000 0.000000 0.000000
# 4 0.000000 0.000000 0.000000 0.043865 0.000000 0.000000
# 5 0.000000 0.000000 0.000000 0.000000 0.036768 0.000000
# 6 0.000000 0.000000 0.000000 0.000000 0.000000 0.059806
#
#
# Mechanical properties :
#
#
# Convention : Reuss Voigt Hill
#
# Bulk Modulus (GPa) = 11.57703 20.70183 16.13943
# Shear Modulus (GPa) = 18.18603 23.03231 20.60917
#
# Velocity S-wave (km/s) = 3.10853 3.49828 3.30915
# Velocity P-wave (km/s) = 4.36295 5.22657 4.81416
#
# Compressibility (1/GPa) = 0.08637792
#
# Stress axis : x y z
#
# Youngs Moduli (GPa) = 106.35477 19.45428 28.38000
#
# Poissons Ratio (x) = 0.03291 0.08779
# Poissons Ratio (y) = 0.17992 0.00132
# Poissons Ratio (z) = 0.32901 0.00090
#
# Static dielectric constant tensor:
#      x y z
#    x 1.659320 0.000000 0.000000 
#    y 0.000000 1.648610 0.000000 
#    z 0.000000 0.000000 1.642060 
# 
# From -- ./inp_files/6964.got.cif
#   From: 2010.05.17/outbox.cif.g08.bks.cpg/sg72_4_cif.got.tgz:6964.got - 2010.06.03 17:03:01.
