data_PCOD9525234
_publ_section_title
;
Structure prediction by ZEFSAII (Michael W. Deem and Ramdas Pophale) SiO2 
 PCOD9525234
Probable space group: I B A M
;
_chemical_formula_sum "Si O2"
_cell_formula_units_Z 84
_cell_length_a 23.578836
_cell_length_b 12.818408
_cell_length_c 15.173464
_cell_angle_alpha 90.000000
_cell_angle_beta 90.000000
_cell_angle_gamma 90.000000
_cell_volume 4586.075404
_symmetry_space_group_name_H-M "I B A M"
_symmetry_group_IT_number 72
_symmetry_cell_setting 'orthorhombic'
loop_
_space_group_symop_operation_xyz
x,y,z
-x,-y,z
x,-y,1/2-z
-x,y,1/2-z
-x,-y,-z
x,y,-z
-x,y,1/2+z
x,-y,1/2+z
1/2+x,1/2+y,1/2+z
1/2-x,1/2-y,1/2+z
1/2+x,1/2-y,-z
1/2-x,1/2+y,-z
1/2-x,1/2-y,1/2-z
1/2+x,1/2+y,1/2-z
1/2-x,1/2+y,z
1/2+x,1/2-y,z
loop_
_atom_site_type_symbol
_atom_site_label
_atom_site_fract_x
_atom_site_fract_y
_atom_site_fract_z
Si Si1 0.705381 0.970264 0.602301
Si Si2 0.417447 0.574836 0.894226
Si Si3 0.177565 0.754407 0.644880
Si Si4 0.695118 0.192292 0.346658
Si Si5 0.500000 0.500000 0.750000
Si Si6 0.328932 0.407860 0.100383
O O1 0.710121 0.999675 0.500000
O O2 0.672162 0.861511 0.606340
O O3 0.767963 0.940188 0.641061
O O4 0.679521 0.071343 0.648543
O O5 0.373078 0.669687 0.881461
O O6 0.466360 0.573694 0.820526
O O7 0.381861 0.471555 0.865591
O O8 0.433400 0.569771 0.000000
O O9 0.239203 0.802306 0.620685
O O10 0.184941 0.734801 0.748690
O O11 0.664266 0.283779 0.399629
O O12 0.324288 0.443303 0.000000
#
# Coordination Sequence:
#
# PCOD9525234 Si02
#       6
#    16  16  16  16   4  16
#     4  10  18  29  47  75 111 150 183 206 247 326
#     4  11  22  40  59  81 111 146 187 239 291 335
#     4  10  20  31  49  75 111 149 181 217 267 322
#     4  10  18  29  47  77 115 150 182 210 248 324
#     4  12  26  40  60  82 102 136 198 252 300 334
#     4   9  18  30  49  74 107 147 181 214 262 323
#
# _framework density 18.316314999999999
#
# number of rings (size 3 to 8) (size 9 to 14) (size 15 to 20)
#    0.000    1.905    1.905    3.143    0.000    1.524 
#    0.000    0.000    0.000    0.000    0.000   10.667 
#    0.000   22.857    0.000    0.000    0.000    0.000 
#
# Total GULP energy -233802.930192 kJ/mol
# GULP energy per Si atom -5566.736433 kJ/mol
# Density = 1.827463 g / cm^3
# Si number density = 18.316315 Si / 1000 Ang^3
#
#
#
# Elastic Constant Matrix: (Units=GPa)
#
#
# Indices 1 2 3 4 5 6 
#
# 1 49.7025 29.3954 30.2079 0.0000 0.0000 0.0000
# 2 29.3954 117.1745 18.6807 0.0000 0.0000 0.0000
# 3 30.2079 18.6807 85.3140 0.0000 0.0000 0.0000
# 4 0.0000 0.0000 0.0000 29.1606 0.0000 0.0000
# 5 0.0000 0.0000 0.0000 0.0000 19.9633 0.0000
# 6 0.0000 0.0000 0.0000 0.0000 0.0000 14.8906
#
#
#
# Elastic Compliance Matrix: (Units=1/GPa)
#
#
# Indices 1 2 3 4 5 6 
#
# 1 0.029055 -0.005853 -0.009006 0.000000 0.000000 0.000000
# 2 -0.005853 0.010022 -0.000122 0.000000 0.000000 0.000000
# 3 -0.009006 -0.000122 0.014937 0.000000 0.000000 0.000000
# 4 0.000000 0.000000 0.000000 0.034293 0.000000 0.000000
# 5 0.000000 0.000000 0.000000 0.000000 0.050092 0.000000
# 6 0.000000 0.000000 0.000000 0.000000 0.000000 0.067156
#
#
# Mechanical properties :
#
#
# Convention : Reuss Voigt Hill
#
# Bulk Modulus (GPa) = 41.57735 45.41766 43.49750
# Shear Modulus (GPa) = 20.53090 24.39670 22.46380
#
# Velocity S-wave (km/s) = 3.35163 3.65357 3.50585
# Velocity P-wave (km/s) = 6.14221 6.53056 6.33936
#
# Compressibility (1/GPa) = 0.02405156
#
# Stress axis : x y z
#
# Youngs Moduli (GPa) = 34.41727 99.77931 66.94774
#
# Poissons Ratio (x) = 0.58403 0.60294
# Poissons Ratio (y) = 0.20145 0.00817
# Poissons Ratio (z) = 0.30997 0.01217
#
# Static dielectric constant tensor:
#      x y z
#    x 1.663440 0.000000 0.000000 
#    y 0.000000 1.659570 0.000000 
#    z 0.000000 0.000000 1.725750 
# 
# From -- ./inp_files/24994.got.cif
#   From: 2010.05.17/outbox.cif.g08.bks.cpg/sg72_13_cif.got.tgz:24994.got - 2010.06.03 17:03:01.
