data_PCOD9525943
_publ_section_title
;
Structure prediction by ZEFSAII (Michael W. Deem and Ramdas Pophale) SiO2 
 PCOD9525943
Probable space group: I B A M
;
_chemical_formula_sum "Si O2"
_cell_formula_units_Z 96
_cell_length_a 24.812883
_cell_length_b 8.560505
_cell_length_c 26.318575
_cell_angle_alpha 90.000000
_cell_angle_beta 90.000000
_cell_angle_gamma 90.000000
_cell_volume 5590.349807
_symmetry_space_group_name_H-M "I B A M"
_symmetry_group_IT_number 72
_symmetry_cell_setting 'orthorhombic'
loop_
_space_group_symop_operation_xyz
x,y,z
-x,-y,z
x,-y,1/2-z
-x,y,1/2-z
-x,-y,-z
x,y,-z
-x,y,1/2+z
x,-y,1/2+z
1/2+x,1/2+y,1/2+z
1/2-x,1/2-y,1/2+z
1/2+x,1/2-y,-z
1/2-x,1/2+y,-z
1/2-x,1/2-y,1/2-z
1/2+x,1/2+y,1/2-z
1/2-x,1/2+y,z
1/2+x,1/2-y,z
loop_
_atom_site_type_symbol
_atom_site_label
_atom_site_fract_x
_atom_site_fract_y
_atom_site_fract_z
Si Si1 0.230713 0.398961 0.200953
Si Si2 0.863346 0.815305 0.842588
Si Si3 0.815821 0.710735 0.058008
Si Si4 0.061190 0.190221 0.754447
Si Si5 0.287425 0.107531 0.897733
Si Si6 0.652869 0.680331 0.823856
O O1 0.215938 0.500000 0.250000
O O2 0.186876 0.270812 0.184939
O O3 0.233752 0.510500 0.151275
O O4 0.290517 0.328843 0.206966
O O5 0.860050 0.764005 0.900903
O O6 0.914624 0.767638 0.809250
O O7 0.859071 0.001710 0.838586
O O8 0.760302 0.793205 0.076977
O O9 0.808251 0.525057 0.064449
O O10 0.826732 0.752924 0.000000
O O11 0.104124 0.241302 0.711190
O O12 0.000000 0.245601 0.750000
O O13 0.060837 0.000000 0.750000
O O14 0.333109 0.217751 0.873317
#
# Coordination Sequence:
#
# PCOD9525943 Si02
#       6
#    16  16  16  16  16  16
#     4  11  19  28  47  78 108 138 162 198 252 318
#     4  10  19  33  50  75 107 137 172 205 249 305
#     4  11  21  34  49  71 102 137 173 213 256 299
#     4   9  19  32  51  79 107 135 167 206 252 302
#     4  11  20  32  47  73 104 137 170 207 252 312
#     4  11  18  30  51  74 106 138 166 203 256 309
#
# _framework density 17.172450000000001
#
# number of rings (size 3 to 8) (size 9 to 14) (size 15 to 20)
#    0.000    1.500    5.000    3.000    0.000    2.000 
#    0.000    0.833    0.000   12.500    0.000   12.833 
#    0.000    0.000    0.000    0.000    0.000    0.000 
#
# Total GULP energy -267871.601354 kJ/mol
# GULP energy per Si atom -5580.658362 kJ/mol
# Density = 1.713336 g / cm^3
# Si number density = 17.172450 Si / 1000 Ang^3
#
#
#
# Elastic Constant Matrix: (Units=GPa)
#
#
# Indices 1 2 3 4 5 6 
#
# 1 109.3214 21.8355 49.1334 0.0000 0.0000 0.0000
# 2 21.8355 65.8317 29.6772 0.0000 0.0000 0.0000
# 3 49.1334 29.6772 141.1112 0.0000 0.0000 0.0000
# 4 0.0000 0.0000 0.0000 21.0103 0.0000 0.0000
# 5 0.0000 0.0000 0.0000 0.0000 11.7325 0.0000
# 6 0.0000 0.0000 0.0000 0.0000 0.0000 11.5120
#
#
#
# Elastic Compliance Matrix: (Units=1/GPa)
#
#
# Indices 1 2 3 4 5 6 
#
# 1 0.011112 -0.002145 -0.003418 0.000000 0.000000 0.000000
# 2 -0.002145 0.017195 -0.002870 0.000000 0.000000 0.000000
# 3 -0.003418 -0.002870 0.008880 0.000000 0.000000 0.000000
# 4 0.000000 0.000000 0.000000 0.047596 0.000000 0.000000
# 5 0.000000 0.000000 0.000000 0.000000 0.085233 0.000000
# 6 0.000000 0.000000 0.000000 0.000000 0.000000 0.086866
#
#
# Mechanical properties :
#
#
# Convention : Reuss Voigt Hill
#
# Bulk Modulus (GPa) = 49.20607 57.50627 53.35617
# Shear Modulus (GPa) = 17.82397 23.22551 20.52474
#
# Velocity S-wave (km/s) = 3.22520 3.68161 3.46094
# Velocity P-wave (km/s) = 6.52576 7.18558 6.86360
#
# Compressibility (1/GPa) = 0.02032270
#
# Stress axis : x y z
#
# Youngs Moduli (GPa) = 89.99351 58.15554 112.60998
#
# Poissons Ratio (x) = 0.12473 0.38490
# Poissons Ratio (y) = 0.19302 0.32314
# Poissons Ratio (z) = 0.30760 0.16688
#
# Static dielectric constant tensor:
#      x y z
#    x 1.579680 0.000000 0.000000 
#    y 0.000000 1.647780 0.000000 
#    z 0.000000 0.000000 1.606040 
# 
# From -- ./inp_files/47486.got.cif
#   From: 2010.05.17/outbox.cif.g08.bks.cpg/sg72_24_cif.got.tgz:47486.got - 2010.06.03 17:03:01.
