data_PCOD9525059
_publ_section_title
;
Structure prediction by ZEFSAII (Michael W. Deem and Ramdas Pophale) SiO2 
 PCOD9525059
Probable space group: I B A M
;
_chemical_formula_sum "Si O2"
_cell_formula_units_Z 80
_cell_length_a 32.707875
_cell_length_b 5.559522
_cell_length_c 18.391202
_cell_angle_alpha 90.000000
_cell_angle_beta 90.000000
_cell_angle_gamma 90.000000
_cell_volume 3344.258942
_symmetry_space_group_name_H-M "I B A M"
_symmetry_group_IT_number 72
_symmetry_cell_setting 'orthorhombic'
loop_
_space_group_symop_operation_xyz
x,y,z
-x,-y,z
x,-y,1/2-z
-x,y,1/2-z
-x,-y,-z
x,y,-z
-x,y,1/2+z
x,-y,1/2+z
1/2+x,1/2+y,1/2+z
1/2-x,1/2-y,1/2+z
1/2+x,1/2-y,-z
1/2-x,1/2+y,-z
1/2-x,1/2-y,1/2-z
1/2+x,1/2+y,1/2-z
1/2-x,1/2+y,z
1/2+x,1/2-y,z
loop_
_atom_site_type_symbol
_atom_site_label
_atom_site_fract_x
_atom_site_fract_y
_atom_site_fract_z
Si Si1 0.023158 0.251644 0.587416
Si Si2 0.829308 0.134792 0.000000
Si Si3 0.357855 0.860635 0.839205
Si Si4 0.763116 0.446658 0.332190
Si Si5 0.834037 0.634715 0.000000
Si Si6 0.613170 0.354948 0.356707
O O1 0.027929 0.267608 0.500000
O O2 0.067421 0.217067 0.622539
O O3 0.000000 0.500000 0.610110
O O4 0.000000 0.000000 0.602956
O O5 0.808267 0.392064 0.000000
O O6 0.858421 0.129238 0.928978
O O7 0.807826 0.877556 0.000000
O O8 0.309239 0.847867 0.828452
O O9 0.381811 0.617394 0.821460
O O10 0.370036 0.125902 0.812984
O O11 0.361763 0.872311 0.928152
O O12 0.748026 0.500000 0.250000
O O13 0.761618 0.719005 0.364189
#
# Coordination Sequence:
#
# PCOD9525059 Si02
#       6
#    16   8  16  16   8  16
#     4  10  19  28  41  65 100 140 178 211 245 291
#     4   8  14  24  38  58  88 124 158 196 232 278
#     4  10  19  31  51  73  96 132 172 205 249 304
#     4  10  21  38  57  76 101 129 159 206 267 317
#     4   8  16  26  42  66  92 122 156 196 236 282
#     4  10  17  29  45  67  98 131 174 208 243 292
#
# _framework density 23.921592
#
# number of rings (size 3 to 8) (size 9 to 14) (size 15 to 20)
#    0.000    2.400    1.000    2.400    0.000    0.000 
#    0.000    1.000    0.000    0.000    0.000    0.000 
#    0.000   12.000    0.000    0.000    0.000    0.000 
#
# Total GULP energy -223120.497186 kJ/mol
# GULP energy per Si atom -5578.012430 kJ/mol
# Density = 2.386715 g / cm^3
# Si number density = 23.921592 Si / 1000 Ang^3
#
#
#
# Elastic Constant Matrix: (Units=GPa)
#
#
# Indices 1 2 3 4 5 6 
#
# 1 119.3349 57.0114 -0.1545 0.0000 0.0000 0.0000
# 2 57.0114 297.5525 24.7598 0.0000 0.0000 0.0000
# 3 -0.1545 24.7598 50.8949 0.0000 0.0000 0.0000
# 4 0.0000 0.0000 0.0000 29.1235 0.0000 0.0000
# 5 0.0000 0.0000 0.0000 0.0000 5.2730 0.0000
# 6 0.0000 0.0000 0.0000 0.0000 0.0000 36.1992
#
#
#
# Elastic Compliance Matrix: (Units=1/GPa)
#
#
# Indices 1 2 3 4 5 6 
#
# 1 0.009266 -0.001853 0.000929 0.000000 0.000000 0.000000
# 2 -0.001853 0.003873 -0.001890 0.000000 0.000000 0.000000
# 3 0.000929 -0.001890 0.020571 0.000000 0.000000 0.000000
# 4 0.000000 0.000000 0.000000 0.034337 0.000000 0.000000
# 5 0.000000 0.000000 0.000000 0.000000 0.189646 0.000000
# 6 0.000000 0.000000 0.000000 0.000000 0.000000 0.027625
#
#
# Mechanical properties :
#
#
# Convention : Reuss Voigt Hill
#
# Bulk Modulus (GPa) = 35.60807 70.11285 52.86046
# Shear Modulus (GPa) = 16.64978 39.86350 28.25664
#
# Velocity S-wave (km/s) = 2.64107 4.08661 3.44062
# Velocity P-wave (km/s) = 4.92118 7.18612 6.15866
#
# Compressibility (1/GPa) = 0.02808352
#
# Stress axis : x y z
#
# Youngs Moduli (GPa) = 107.92009 258.19828 48.61322
#
# Poissons Ratio (x) = 0.47837 -0.04518
# Poissons Ratio (y) = 0.19995 0.09187
# Poissons Ratio (z) = -0.10031 0.48794
#
# Static dielectric constant tensor:
#      x y z
#    x 1.843750 0.000000 0.000000 
#    y 0.000000 2.047430 0.000000 
#    z 0.000000 0.000000 2.024810 
# 
# From -- ./inp_files/41566.got.cif
#   From: 2010.05.17/outbox.cif.g08.bks.cpg/sg72_21_cif.got.tgz:41566.got - 2010.06.03 17:03:01.
