data_PCOD9525355
_publ_section_title
;
Structure prediction by ZEFSAII (Michael W. Deem and Ramdas Pophale) SiO2 
 PCOD9525355
Probable space group: I B A M
;
_chemical_formula_sum "Si O2"
_cell_formula_units_Z 104
_cell_length_a 23.359236
_cell_length_b 7.611912
_cell_length_c 27.728168
_cell_angle_alpha 90.000000
_cell_angle_beta 90.000000
_cell_angle_gamma 90.000000
_cell_volume 4930.302541
_symmetry_space_group_name_H-M "I B A M"
_symmetry_group_IT_number 72
_symmetry_cell_setting 'orthorhombic'
loop_
_space_group_symop_operation_xyz
x,y,z
-x,-y,z
x,-y,1/2-z
-x,y,1/2-z
-x,-y,-z
x,y,-z
-x,y,1/2+z
x,-y,1/2+z
1/2+x,1/2+y,1/2+z
1/2-x,1/2-y,1/2+z
1/2+x,1/2-y,-z
1/2-x,1/2+y,-z
1/2-x,1/2-y,1/2-z
1/2+x,1/2+y,1/2-z
1/2-x,1/2+y,z
1/2+x,1/2-y,z
loop_
_atom_site_type_symbol
_atom_site_label
_atom_site_fract_x
_atom_site_fract_y
_atom_site_fract_z
Si Si1 0.436246 0.203125 0.812372
Si Si2 0.730627 0.024643 0.000000
Si Si3 0.564301 0.218513 0.802306
Si Si4 0.228566 0.550027 0.605535
Si Si5 0.844996 0.170968 0.000000
Si Si6 0.846697 0.194625 0.107193
Si Si7 0.684593 0.299472 0.811665
Si Si8 0.270395 0.000000 0.750000
O O1 0.501919 0.255422 0.824065
O O2 0.433983 0.246308 0.755479
O O3 0.391410 0.286055 0.849476
O O4 0.427683 0.990288 0.813297
O O5 0.717232 0.114172 0.949142
O O6 0.799636 0.011068 0.000000
O O7 0.696454 0.842606 0.000000
O O8 0.617913 0.331536 0.819746
O O9 0.192851 0.370646 0.609835
O O10 0.297768 0.544672 0.611008
O O11 0.205708 0.684933 0.644184
O O12 0.873476 0.178537 0.946933
O O13 0.690940 0.162456 0.765988
O O14 0.728108 0.447701 0.793543
#
# Coordination Sequence:
#
# PCOD9525355 Si02
#       8
#    16   8  16  16   8  16  16   8
#     4   9  17  31  48  70  89 131 176 210 232 302
#     4   8  16  30  42  69  96 135 164 200 248 316
#     4   9  18  30  49  67  96 128 177 206 238 293
#     4  10  19  29  50  71 104 131 167 207 262 308
#     4   8  16  28  46  68 105 128 161 208 256 312
#     4  10  18  31  49  77 100 134 168 210 262 312
#     4  11  20  34  47  77 101 139 163 210 258 313
#     4  10  24  30  48  76 114 128 164 210 264 312
#
# _framework density 21.094038999999999
#
# number of rings (size 3 to 8) (size 9 to 14) (size 15 to 20)
#    0.000    2.462    1.538    2.769    4.308    0.000 
#    0.000    0.000    0.000    4.615    0.000    0.000 
#    0.000    0.000    0.000   32.462    0.000    0.615 
#
# Total GULP energy -289993.771953 kJ/mol
# GULP energy per Si atom -5576.803307 kJ/mol
# Density = 2.104603 g / cm^3
# Si number density = 21.094039 Si / 1000 Ang^3
#
#
#
# Elastic Constant Matrix: (Units=GPa)
#
#
# Indices 1 2 3 4 5 6 
#
# 1 138.3210 22.2805 51.6271 0.0000 0.0000 0.0000
# 2 22.2805 58.4203 24.1651 0.0000 0.0000 0.0000
# 3 51.6271 24.1651 115.9147 0.0000 0.0000 0.0000
# 4 0.0000 0.0000 0.0000 20.8079 0.0000 0.0000
# 5 0.0000 0.0000 0.0000 0.0000 28.0820 0.0000
# 6 0.0000 0.0000 0.0000 0.0000 0.0000 14.7931
#
#
#
# Elastic Compliance Matrix: (Units=1/GPa)
#
#
# Indices 1 2 3 4 5 6 
#
# 1 0.008862 -0.001912 -0.003548 0.000000 0.000000 0.000000
# 2 -0.001912 0.019145 -0.003140 0.000000 0.000000 0.000000
# 3 -0.003548 -0.003140 0.010862 0.000000 0.000000 0.000000
# 4 0.000000 0.000000 0.000000 0.048059 0.000000 0.000000
# 5 0.000000 0.000000 0.000000 0.000000 0.035610 0.000000
# 6 0.000000 0.000000 0.000000 0.000000 0.000000 0.067599
#
#
# Mechanical properties :
#
#
# Convention : Reuss Voigt Hill
#
# Bulk Modulus (GPa) = 46.14890 56.53348 51.34119
# Shear Modulus (GPa) = 23.30352 27.04218 25.17285
#
# Velocity S-wave (km/s) = 3.32737 3.58436 3.45826
# Velocity P-wave (km/s) = 6.05699 6.63243 6.35123
#
# Compressibility (1/GPa) = 0.02166899
#
# Stress axis : x y z
#
# Youngs Moduli (GPa) = 112.84194 52.23226 92.06423
#
# Poissons Ratio (x) = 0.09987 0.32668
# Poissons Ratio (y) = 0.21576 0.28905
# Poissons Ratio (z) = 0.40041 0.16399
#
# Static dielectric constant tensor:
#      x y z
#    x 1.772940 0.000000 0.000000 
#    y 0.000000 1.866900 0.000000 
#    z 0.000000 0.000000 1.828830 
# 
# From -- ./inp_files/49705.got.cif
#   From: 2010.05.17/outbox.cif.g08.bks.cpg/sg72_25_cif.got.tgz:49705.got - 2010.06.03 17:03:01.
