data_PCOD9525051
_publ_section_title
;
Structure prediction by ZEFSAII (Michael W. Deem and Ramdas Pophale) SiO2 
 PCOD9525051
Probable space group: I B A M
;
_chemical_formula_sum "Si O2"
_cell_formula_units_Z 104
_cell_length_a 14.188954
_cell_length_b 19.884356
_cell_length_c 15.906695
_cell_angle_alpha 90.000000
_cell_angle_beta 90.000000
_cell_angle_gamma 90.000000
_cell_volume 4487.886496
_symmetry_space_group_name_H-M "I B A M"
_symmetry_group_IT_number 72
_symmetry_cell_setting 'orthorhombic'
loop_
_space_group_symop_operation_xyz
x,y,z
-x,-y,z
x,-y,1/2-z
-x,y,1/2-z
-x,-y,-z
x,y,-z
-x,y,1/2+z
x,-y,1/2+z
1/2+x,1/2+y,1/2+z
1/2-x,1/2-y,1/2+z
1/2+x,1/2-y,-z
1/2-x,1/2+y,-z
1/2-x,1/2-y,1/2-z
1/2+x,1/2+y,1/2-z
1/2-x,1/2+y,z
1/2+x,1/2-y,z
loop_
_atom_site_type_symbol
_atom_site_label
_atom_site_fract_x
_atom_site_fract_y
_atom_site_fract_z
Si Si1 0.016819 0.890691 0.397745
Si Si2 0.427004 0.246567 0.598876
Si Si3 0.134847 0.357014 0.208228
Si Si4 0.788976 0.709083 0.373359
Si Si5 0.679766 0.643382 0.096357
Si Si6 0.835822 0.500000 0.750000
Si Si7 0.221712 0.059043 0.903999
O O1 0.017623 0.889027 0.500000
O O2 0.031002 0.814940 0.366346
O O3 0.111866 0.930338 0.376934
O O4 0.908339 0.903076 0.375222
O O5 0.446251 0.237717 0.500000
O O6 0.443441 0.179903 0.652108
O O7 0.315878 0.262094 0.611251
O O8 0.168547 0.307536 0.282412
O O9 0.231095 0.367243 0.154963
O O10 0.108028 0.431261 0.235979
O O11 0.845157 0.775722 0.403823
O O12 0.773389 0.632883 0.407563
O O13 0.703014 0.627590 0.000000
O O14 0.773591 0.516847 0.667305
O O15 0.223304 0.032825 0.000000
#
# Coordination Sequence:
#
# PCOD9525051 Si02
#       7
#    16  16  16  16  16   8  16
#     4   8  16  29  47  73  99 121 147 186 240 296
#     4   9  15  27  47  67  89 115 144 185 240 288
#     4  10  19  31  43  64  94 123 157 197 229 265
#     4   9  16  28  45  69  93 117 150 189 240 290
#     4  10  17  28  49  74  97 119 149 191 239 292
#     4  10  22  34  47  68  91 126 178 208 216 266
#     4   9  17  33  51  67  96 130 158 196 240 277
#
# _framework density 23.173490000000001
#
# number of rings (size 3 to 8) (size 9 to 14) (size 15 to 20)
#    0.000    2.769    0.000    5.538    0.000    1.231 
#    0.000   13.846    0.000    2.769    0.000    8.615 
#    0.000   16.000    0.000    0.000    0.000    0.000 
#
# Total GULP energy -289658.829640 kJ/mol
# GULP energy per Si atom -5570.362108 kJ/mol
# Density = 2.312075 g / cm^3
# Si number density = 23.173490 Si / 1000 Ang^3
#
#
#
# Elastic Constant Matrix: (Units=GPa)
#
#
# Indices 1 2 3 4 5 6 
#
# 1 68.3979 3.5474 16.4548 0.0000 0.0000 0.0000
# 2 3.5474 129.0457 26.5782 -0.0001 0.0000 0.0000
# 3 16.4548 26.5782 91.3050 0.0000 0.0000 0.0000
# 4 0.0000 -0.0001 0.0000 5.4145 0.0000 0.0000
# 5 0.0000 0.0000 0.0000 0.0000 -27.4605 0.0000
# 6 0.0000 0.0000 0.0000 0.0000 0.0000 4.4890
#
#
#
# Elastic Compliance Matrix: (Units=1/GPa)
#
#
# Indices 1 2 3 4 5 6 
#
# 1 0.015286 0.000157 -0.002800 0.000000 0.000000 0.000000
# 2 0.000157 0.008245 -0.002428 0.000000 0.000000 0.000000
# 3 -0.002800 -0.002428 0.012164 0.000000 0.000000 0.000000
# 4 0.000000 0.000000 0.000000 0.184690 0.000000 0.000001
# 5 0.000000 0.000000 0.000000 0.000000 -0.036416 0.000000
# 6 0.000000 0.000000 0.000000 0.000001 0.000000 0.222768
#
#
# Mechanical properties :
#
#
# Convention : Reuss Voigt Hill
#
# Bulk Modulus (GPa) = 39.13804 42.43437 40.78620
# Shear Modulus (GPa) = 11.75370 12.63313 12.19342
#
# Velocity S-wave (km/s) = 2.25456 2.33739 2.29635
# Velocity P-wave (km/s) = 4.86860 5.06319 4.96684
#
# Compressibility (1/GPa) = 0.02555059
#
# Stress axis : x y z
#
# Youngs Moduli (GPa) = 65.41978 121.28538 82.21094
#
# Poissons Ratio (x) = -0.01899 0.23022
# Poissons Ratio (y) = -0.01024 0.19963
# Poissons Ratio (z) = 0.18320 0.29451
#
# Static dielectric constant tensor:
#      x y z
#    x 1.921940 0.000000 0.000000 
#    y 0.000000 1.955320 0.000000 
#    z 0.000000 0.000000 1.876550 
# 
# From -- ./inp_files/23390.got.cif
#   From: 2010.05.17/outbox.cif.g08.bks.cpg/sg72_12_cif.got.tgz:23390.got - 2010.06.03 17:03:01.
