data_PCOD9525282
_publ_section_title
;
Structure prediction by ZEFSAII (Michael W. Deem and Ramdas Pophale) SiO2 
 PCOD9525282
Probable space group: I B A M
;
_chemical_formula_sum "Si O2"
_cell_formula_units_Z 96
_cell_length_a 21.222836
_cell_length_b 31.583475
_cell_length_c 8.837086
_cell_angle_alpha 90.000000
_cell_angle_beta 90.000000
_cell_angle_gamma 90.000000
_cell_volume 5923.418419
_symmetry_space_group_name_H-M "I B A M"
_symmetry_group_IT_number 72
_symmetry_cell_setting 'orthorhombic'
loop_
_space_group_symop_operation_xyz
x,y,z
-x,-y,z
x,-y,1/2-z
-x,y,1/2-z
-x,-y,-z
x,y,-z
-x,y,1/2+z
x,-y,1/2+z
1/2+x,1/2+y,1/2+z
1/2-x,1/2-y,1/2+z
1/2+x,1/2-y,-z
1/2-x,1/2+y,-z
1/2-x,1/2-y,1/2-z
1/2+x,1/2+y,1/2-z
1/2-x,1/2+y,z
1/2+x,1/2-y,z
loop_
_atom_site_type_symbol
_atom_site_label
_atom_site_fract_x
_atom_site_fract_y
_atom_site_fract_z
Si Si1 0.799950 0.716525 0.817226
Si Si2 0.564484 0.254445 0.818583
Si Si3 0.406846 0.345150 0.823729
Si Si4 0.739462 0.630734 0.176298
Si Si5 0.563744 0.433650 0.179603
Si Si6 0.704343 0.543501 0.319033
O O1 0.750000 0.750000 0.750000
O O2 0.871315 0.729614 0.779872
O O3 0.783610 0.668742 0.767062
O O4 0.793087 0.717631 0.000000
O O5 0.500000 0.236132 0.750000
O O6 0.572834 0.301139 0.748313
O O7 0.559632 0.257106 0.000000
O O8 0.331161 0.349946 0.817191
O O9 0.432467 0.384715 0.730029
O O10 0.426069 0.347921 0.000000
O O11 0.738043 0.586428 0.264163
O O12 0.753513 0.621972 0.000000
O O13 0.500000 0.451744 0.250000
O O14 0.630817 0.452303 0.232294
O O15 0.560555 0.437236 0.000000
O O16 0.729982 0.500000 0.250000
O O17 0.705217 0.541658 0.500000
#
# Coordination Sequence:
#
# PCOD9525282 Si02
#       6
#    16  16  16  16  16  16
#     4  10  20  34  53  76 101 133 171 211 252 298
#     4  11  22  33  47  69 101 136 171 209 249 294
#     4  10  18  30  48  67  92 126 165 208 252 292
#     4   9  18  33  52  73  96 124 161 205 251 296
#     4  10  20  32  45  63  88 120 161 203 248 296
#     4  10  21  35  51  70  92 120 155 200 250 298
#
# _framework density 16.206858
#
# number of rings (size 3 to 8) (size 9 to 14) (size 15 to 20)
#    0.000    2.000    1.667    2.500    0.000    4.333 
#    0.000    1.667    0.000    0.000    0.000    0.000 
#    0.000    0.667    0.000    7.667    0.000    2.333 
#
# Total GULP energy -267893.587322 kJ/mol
# GULP energy per Si atom -5581.116403 kJ/mol
# Density = 1.616997 g / cm^3
# Si number density = 16.206858 Si / 1000 Ang^3
#
#
#
# Elastic Constant Matrix: (Units=GPa)
#
#
# Indices 1 2 3 4 5 6 
#
# 1 71.3418 47.2393 18.7516 0.0000 0.0000 0.0000
# 2 47.2393 121.1485 26.4242 0.0000 0.0000 0.0000
# 3 18.7516 26.4242 29.7746 0.0000 0.0000 0.0000
# 4 0.0000 0.0000 0.0000 16.5036 0.0000 0.0000
# 5 0.0000 0.0000 0.0000 0.0000 18.5854 0.0000
# 6 0.0000 0.0000 0.0000 0.0000 0.0000 -1.6474
#
#
#
# Elastic Compliance Matrix: (Units=1/GPa)
#
#
# Indices 1 2 3 4 5 6 
#
# 1 0.020020 -0.006270 -0.007044 0.000000 0.000000 0.000000
# 2 -0.006270 0.012199 -0.006878 0.000000 0.000000 0.000000
# 3 -0.007044 -0.006878 0.044126 0.000000 0.000000 0.000000
# 4 0.000000 0.000000 0.000000 0.060593 0.000000 0.000000
# 5 0.000000 0.000000 0.000000 0.000000 0.053806 0.000000
# 6 0.000000 0.000000 0.000000 0.000000 0.000000 -0.607021
#
#
# Mechanical properties :
#
#
# Convention : Reuss Voigt Hill
#
# Bulk Modulus (GPa) = 27.80739 45.23277 36.52008
# Shear Modulus (GPa) = -13.73979 15.34497 0.80259
#
# Velocity S-wave (km/s) = -2.91482 3.08038 0.70448
# Velocity P-wave (km/s) = 2.42215 6.37353 4.82124
#
# Compressibility (1/GPa) = 0.03596167
#
# Stress axis : x y z
#
# Youngs Moduli (GPa) = 49.94949 81.97139 22.66257
#
# Poissons Ratio (x) = 0.51397 0.15963
# Poissons Ratio (y) = 0.31319 0.15587
# Poissons Ratio (z) = 0.35184 0.56378
#
# Static dielectric constant tensor:
#      x y z
#    x 1.563930 0.000000 0.000000 
#    y 0.000000 1.545920 0.000000 
#    z 0.000000 0.000000 1.545710 
# 
# From -- ./inp_files/5983.got.cif
#   From: 2010.05.17/outbox.cif.g08.bks.cpg/sg72_3_cif.got.tgz:5983.got - 2010.06.03 17:03:01.
