data_PCOD9525626
_publ_section_title
;
Structure prediction by ZEFSAII (Michael W. Deem and Ramdas Pophale) SiO2 
 PCOD9525626
Probable space group: I B A M
;
_chemical_formula_sum "Si O2"
_cell_formula_units_Z 88
_cell_length_a 22.283514
_cell_length_b 19.600654
_cell_length_c 11.160788
_cell_angle_alpha 90.000000
_cell_angle_beta 90.000000
_cell_angle_gamma 90.000000
_cell_volume 4874.713534
_symmetry_space_group_name_H-M "I B A M"
_symmetry_group_IT_number 72
_symmetry_cell_setting 'orthorhombic'
loop_
_space_group_symop_operation_xyz
x,y,z
-x,-y,z
x,-y,1/2-z
-x,y,1/2-z
-x,-y,-z
x,y,-z
-x,y,1/2+z
x,-y,1/2+z
1/2+x,1/2+y,1/2+z
1/2-x,1/2-y,1/2+z
1/2+x,1/2-y,-z
1/2-x,1/2+y,-z
1/2-x,1/2-y,1/2-z
1/2+x,1/2+y,1/2-z
1/2-x,1/2+y,z
1/2+x,1/2-y,z
loop_
_atom_site_type_symbol
_atom_site_label
_atom_site_fract_x
_atom_site_fract_y
_atom_site_fract_z
Si Si1 0.421441 0.454227 0.632691
Si Si2 0.615815 0.281616 0.636388
Si Si3 0.215543 0.095061 0.126917
Si Si4 0.180951 0.745719 0.630100
Si Si5 0.774271 0.122225 0.128386
Si Si6 0.500000 0.659148 0.250000
O O1 0.431239 0.500000 0.750000
O O2 0.435209 0.483281 0.500000
O O3 0.351443 0.435029 0.628583
O O4 0.461191 0.387663 0.659574
O O5 0.621065 0.254439 0.500000
O O6 0.642962 0.239215 0.748132
O O7 0.656952 0.350754 0.636221
O O8 0.548231 0.299221 0.672779
O O9 0.207736 0.177724 0.129647
O O10 0.242661 0.079171 0.255928
O O11 0.244758 0.077481 0.000000
O O12 0.148732 0.738870 0.500000
O O13 0.233672 0.690295 0.629554
O O14 0.766832 0.087715 0.000000
#
# Coordination Sequence:
#
# PCOD9525626 Si02
#       6
#    16  16  16  16  16   8
#     4  11  24  37  47  58  75 106 147 188 228 259
#     4  10  19  28  43  62  79 101 132 167 208 256
#     4   9  16  29  44  58  77 100 125 163 212 255
#     4   9  16  28  46  64  84 100 119 158 210 262
#     4   9  16  27  45  67  82  98 122 158 208 259
#     4  12  21  34  48  58  78 108 146 186 227 260
#
# _framework density 18.052341999999999
#
# number of rings (size 3 to 8) (size 9 to 14) (size 15 to 20)
#    0.000    2.182    3.636    3.000    0.000    5.818 
#    0.000    0.000    0.000    0.000    0.000    0.000 
#    0.000    0.000    0.000    0.000    0.000    0.000 
#
# Total GULP energy -245088.235454 kJ/mol
# GULP energy per Si atom -5570.187169 kJ/mol
# Density = 1.801125 g / cm^3
# Si number density = 18.052342 Si / 1000 Ang^3
#
#
#
# Elastic Constant Matrix: (Units=GPa)
#
#
# Indices 1 2 3 4 5 6 
#
# 1 31.6980 11.4804 28.2194 0.0000 0.0000 0.0000
# 2 11.4804 32.1251 14.0643 0.0000 0.0000 0.0000
# 3 28.2194 14.0643 234.6834 0.0000 0.0000 0.0000
# 4 0.0000 0.0000 0.0000 22.5031 0.0000 0.0000
# 5 0.0000 0.0000 0.0000 0.0000 3.9459 0.0000
# 6 0.0000 0.0000 0.0000 0.0000 0.0000 8.8411
#
#
#
# Elastic Compliance Matrix: (Units=1/GPa)
#
#
# Indices 1 2 3 4 5 6 
#
# 1 0.039617 -0.012398 -0.004021 0.000000 0.000000 0.000000
# 2 -0.012398 0.035847 -0.000657 0.000000 0.000000 0.000000
# 3 -0.004021 -0.000657 0.004784 0.000000 0.000000 0.000000
# 4 0.000000 0.000000 0.000000 0.044438 0.000000 0.000000
# 5 0.000000 0.000000 0.000000 0.000000 0.253426 0.000000
# 6 0.000000 0.000000 0.000000 0.000000 0.000000 0.113108
#
#
# Mechanical properties :
#
#
# Convention : Reuss Voigt Hill
#
# Bulk Modulus (GPa) = 21.69377 45.11495 33.40436
# Shear Modulus (GPa) = 9.24664 23.37419 16.31041
#
# Velocity S-wave (km/s) = 2.26567 3.60224 3.00910
# Velocity P-wave (km/s) = 4.34598 6.50745 5.53329
#
# Compressibility (1/GPa) = 0.04609618
#
# Stress axis : x y z
#
# Youngs Moduli (GPa) = 25.24143 27.89661 209.03263
#
# Poissons Ratio (x) = 0.34585 0.84048
# Poissons Ratio (y) = 0.31293 0.13744
# Poissons Ratio (z) = 0.10149 0.01834
#
# Static dielectric constant tensor:
#      x y z
#    x 1.601620 0.000000 0.000000 
#    y 0.000000 1.620200 0.000000 
#    z 0.000000 0.000000 1.779050 
# 
# From -- ./inp_files/13804.got.cif
#   From: 2010.05.17/outbox.cif.g08.bks.cpg/sg72_7_cif.got.tgz:13804.got - 2010.06.03 17:03:01.
