data_PCOD9525725
_publ_section_title
;
Structure prediction by ZEFSAII (Michael W. Deem and Ramdas Pophale) SiO2 
 PCOD9525725
Probable space group: I B A M
;
_chemical_formula_sum "Si O2"
_cell_formula_units_Z 96
_cell_length_a 21.776006
_cell_length_b 17.740584
_cell_length_c 15.076664
_cell_angle_alpha 90.000000
_cell_angle_beta 90.000000
_cell_angle_gamma 90.000000
_cell_volume 5824.402719
_symmetry_space_group_name_H-M "I B A M"
_symmetry_group_IT_number 72
_symmetry_cell_setting 'orthorhombic'
loop_
_space_group_symop_operation_xyz
x,y,z
-x,-y,z
x,-y,1/2-z
-x,y,1/2-z
-x,-y,-z
x,y,-z
-x,y,1/2+z
x,-y,1/2+z
1/2+x,1/2+y,1/2+z
1/2-x,1/2-y,1/2+z
1/2+x,1/2-y,-z
1/2-x,1/2+y,-z
1/2-x,1/2-y,1/2-z
1/2+x,1/2+y,1/2-z
1/2-x,1/2+y,z
1/2+x,1/2-y,z
loop_
_atom_site_type_symbol
_atom_site_label
_atom_site_fract_x
_atom_site_fract_y
_atom_site_fract_z
Si Si1 0.724653 0.434585 0.395367
Si Si2 0.243483 0.389874 0.398498
Si Si3 0.204063 0.681238 0.729481
Si Si4 0.410953 0.531247 0.601212
Si Si5 0.526435 0.616496 0.654548
Si Si6 0.636893 0.282743 0.100967
O O1 0.729681 0.414898 0.500000
O O2 0.745137 0.521397 0.385017
O O3 0.762961 0.378545 0.334864
O O4 0.652811 0.432916 0.369245
O O5 0.223294 0.377387 0.500000
O O6 0.196926 0.358463 0.324746
O O7 0.308833 0.345794 0.388675
O O8 0.250000 0.750000 0.750000
O O9 0.149035 0.719124 0.674709
O O10 0.401373 0.502859 0.500000
O O11 0.466351 0.590589 0.600969
O O12 0.432757 0.459979 0.658142
O O13 0.500000 0.637705 0.750000
O O14 0.571274 0.678238 0.614425
O O15 0.642541 0.253957 0.000000
#
# Coordination Sequence:
#
# PCOD9525725 Si02
#       6
#    16  16  16  16  16  16
#     4  10  19  32  52  77 103 136 178 217 257 305
#     4   9  18  32  52  72  98 133 168 214 263 306
#     4  10  21  31  49  70 101 136 178 211 257 310
#     4  10  19  31  48  70  99 134 175 219 250 288
#     4  11  21  29  47  70  98 136 180 212 247 295
#     4  10  19  35  50  67 101 144 176 209 261 312
#
# _framework density 16.482377
#
# number of rings (size 3 to 8) (size 9 to 14) (size 15 to 20)
#    0.000    2.000    1.667    4.000    4.667    2.000 
#    0.000    0.000    0.000    0.000    0.000    0.000 
#    0.000    2.667    0.000   10.000    2.000    0.000 
#
# Total GULP energy -267637.359176 kJ/mol
# GULP energy per Si atom -5575.778316 kJ/mol
# Density = 1.644486 g / cm^3
# Si number density = 16.482377 Si / 1000 Ang^3
#
#
#
# Elastic Constant Matrix: (Units=GPa)
#
#
# Indices 1 2 3 4 5 6 
#
# 1 48.0851 32.2116 28.5240 0.0000 0.0000 0.0000
# 2 32.2116 65.2723 46.0730 0.0000 0.0000 0.0000
# 3 28.5240 46.0730 92.2267 0.0000 0.0000 0.0000
# 4 0.0000 0.0000 0.0000 38.4094 0.0000 0.0000
# 5 0.0000 0.0000 0.0000 0.0000 23.5966 0.0000
# 6 0.0000 0.0000 0.0000 0.0000 0.0000 25.5557
#
#
#
# Elastic Compliance Matrix: (Units=1/GPa)
#
#
# Indices 1 2 3 4 5 6 
#
# 1 0.031618 -0.013440 -0.003065 0.000000 0.000000 0.000000
# 2 -0.013440 0.029378 -0.010520 0.000000 0.000000 0.000000
# 3 -0.003065 -0.010520 0.017046 0.000000 0.000000 0.000000
# 4 0.000000 0.000000 0.000000 0.026035 0.000000 0.000000
# 5 0.000000 0.000000 0.000000 0.000000 0.042379 0.000000
# 6 0.000000 0.000000 0.000000 0.000000 0.000000 0.039130
#
#
# Mechanical properties :
#
#
# Convention : Reuss Voigt Hill
#
# Bulk Modulus (GPa) = 41.67799 46.57790 44.12794
# Shear Modulus (GPa) = 20.19120 24.09738 22.14429
#
# Velocity S-wave (km/s) = 3.50382 3.82777 3.66937
# Velocity P-wave (km/s) = 6.45835 6.91783 6.69203
#
# Compressibility (1/GPa) = 0.02399348
#
# Stress axis : x y z
#
# Youngs Moduli (GPa) = 31.62790 34.03867 58.66519
#
# Poissons Ratio (x) = 0.45748 0.17979
# Poissons Ratio (y) = 0.42508 0.61713
# Poissons Ratio (z) = 0.09693 0.35807
#
# Static dielectric constant tensor:
#      x y z
#    x 1.536670 0.000000 0.000000 
#    y 0.000000 1.547890 0.000000 
#    z 0.000000 0.000000 1.624190 
# 
# From -- ./inp_files/24416.got.cif
#   From: 2010.05.17/outbox.cif.g08.bks.cpg/sg72_13_cif.got.tgz:24416.got - 2010.06.03 17:03:01.
