data_PCOD9525832
_publ_section_title
;
Structure prediction by ZEFSAII (Michael W. Deem and Ramdas Pophale) SiO2 
 PCOD9525832
Probable space group: I B A M
;
_chemical_formula_sum "Si O2"
_cell_formula_units_Z 112
_cell_length_a 12.162877
_cell_length_b 29.842344
_cell_length_c 14.485300
_cell_angle_alpha 90.000000
_cell_angle_beta 90.000000
_cell_angle_gamma 90.000000
_cell_volume 5257.711371
_symmetry_space_group_name_H-M "I B A M"
_symmetry_group_IT_number 72
_symmetry_cell_setting 'orthorhombic'
loop_
_space_group_symop_operation_xyz
x,y,z
-x,-y,z
x,-y,1/2-z
-x,y,1/2-z
-x,-y,-z
x,y,-z
-x,y,1/2+z
x,-y,1/2+z
1/2+x,1/2+y,1/2+z
1/2-x,1/2-y,1/2+z
1/2+x,1/2-y,-z
1/2-x,1/2+y,-z
1/2-x,1/2-y,1/2-z
1/2+x,1/2+y,1/2-z
1/2-x,1/2+y,z
1/2+x,1/2-y,z
loop_
_atom_site_type_symbol
_atom_site_label
_atom_site_fract_x
_atom_site_fract_y
_atom_site_fract_z
Si Si1 0.890703 0.656007 0.612662
Si Si2 0.276062 0.582426 0.112286
Si Si3 0.638590 0.177250 0.113719
Si Si4 0.686279 0.607329 0.894835
Si Si5 0.125269 0.989696 0.112640
Si Si6 0.962810 0.153286 0.351507
Si Si7 0.710430 0.725986 0.605890
O O1 0.889628 0.656855 0.500000
O O2 0.835794 0.608298 0.637857
O O3 0.808113 0.695316 0.645206
O O4 0.014621 0.665772 0.641379
O O5 0.295999 0.530960 0.137960
O O6 0.376370 0.612433 0.149916
O O7 0.285805 0.584830 0.000000
O O8 0.721378 0.138906 0.147648
O O9 0.681216 0.225757 0.145887
O O10 0.640207 0.178106 0.000000
O O11 0.663475 0.558767 0.852308
O O12 0.572772 0.634862 0.897887
O O13 0.722505 0.598819 0.000000
O O14 0.122461 0.987445 0.000000
O O15 0.000000 0.000000 0.141018
O O16 0.897965 0.194833 0.394214
O O17 0.000000 0.166538 0.250000
O O18 0.743212 0.734569 0.500000
#
# Coordination Sequence:
#
# PCOD9525832 Si02
#       7
#    16  16  16  16  16  16  16
#     4   8  15  28  46  72  99 123 163 206 240 288
#     4   9  16  31  53  71  95 136 168 199 248 306
#     4   9  18  30  50  77  99 125 167 213 246 286
#     4  10  19  32  51  75 103 129 160 207 254 297
#     4   9  15  26  48  76 100 125 162 202 251 305
#     4  11  21  32  48  74 106 130 166 209 251 297
#     4   9  18  32  53  73  95 133 173 205 246 297
#
# _framework density 21.302043000000001
#
# number of rings (size 3 to 8) (size 9 to 14) (size 15 to 20)
#    0.000    2.714    1.429    2.143    2.000    0.000 
#    0.000    2.857    0.000    4.286    0.000    0.000 
#    0.000    4.571    0.000    0.000    0.000    0.000 
#
# Total GULP energy -312626.776250 kJ/mol
# GULP energy per Si atom -5582.621004 kJ/mol
# Density = 2.125356 g / cm^3
# Si number density = 21.302043 Si / 1000 Ang^3
#
#
#
# Elastic Constant Matrix: (Units=GPa)
#
#
# Indices 1 2 3 4 5 6 
#
# 1 144.3890 120.3387 -17.8905 0.0000 0.0000 0.0000
# 2 120.3387 209.2777 5.9985 0.0000 0.0000 0.0000
# 3 -17.8905 5.9985 44.9246 0.0001 0.0002 0.0000
# 4 0.0000 0.0000 0.0001 3.4264 0.0000 0.0000
# 5 0.0000 0.0000 0.0002 0.0000 -14.7709 0.0000
# 6 0.0000 0.0000 0.0000 0.0000 0.0000 21.6183
#
#
#
# Elastic Compliance Matrix: (Units=1/GPa)
#
#
# Indices 1 2 3 4 5 6 
#
# 1 0.015381 -0.009054 0.007334 0.000000 0.000000 0.000000
# 2 -0.009054 0.010127 -0.004958 0.000000 0.000000 0.000000
# 3 0.007334 -0.004958 0.025842 -0.000001 0.000000 0.000000
# 4 0.000000 0.000000 -0.000001 0.291853 0.000001 0.000000
# 5 0.000000 0.000000 0.000000 0.000001 -0.067701 0.000000
# 6 0.000000 0.000000 0.000000 0.000000 0.000000 0.046257
#
#
# Mechanical properties :
#
#
# Convention : Reuss Voigt Hill
#
# Bulk Modulus (GPa) = 26.32040 68.38717 47.35379
# Shear Modulus (GPa) = 14.37688 21.39773 17.88731
#
# Velocity S-wave (km/s) = 2.60071 3.17281 2.90090
# Velocity P-wave (km/s) = 4.62611 6.75245 5.78777
#
# Compressibility (1/GPa) = 0.03799334
#
# Stress axis : x y z
#
# Youngs Moduli (GPa) = 65.01633 98.74662 38.69633
#
# Poissons Ratio (x) = 0.89410 -0.28380
# Poissons Ratio (y) = 0.58869 0.19186
# Poissons Ratio (z) = -0.47684 0.48958
#
# Static dielectric constant tensor:
#      x y z
#    x 1.719160 0.000000 0.000000 
#    y 0.000000 1.755260 0.000000 
#    z 0.000000 0.000000 1.945860 
# 
# From -- ./inp_files/20682.got.cif
#   From: 2010.05.17/outbox.cif.g08.bks.cpg/sg72_11_cif.got.tgz:20682.got - 2010.06.03 17:03:01.
