data_PCOD9525860
_publ_section_title
;
Structure prediction by ZEFSAII (Michael W. Deem and Ramdas Pophale) SiO2 
 PCOD9525860
Probable space group: I B A M
;
_chemical_formula_sum "Si O2"
_cell_formula_units_Z 116
_cell_length_a 22.090525
_cell_length_b 33.451352
_cell_length_c 9.080775
_cell_angle_alpha 90.000000
_cell_angle_beta 90.000000
_cell_angle_gamma 90.000000
_cell_volume 6710.310675
_symmetry_space_group_name_H-M "I B A M"
_symmetry_group_IT_number 72
_symmetry_cell_setting 'orthorhombic'
loop_
_space_group_symop_operation_xyz
x,y,z
-x,-y,z
x,-y,1/2-z
-x,y,1/2-z
-x,-y,-z
x,y,-z
-x,y,1/2+z
x,-y,1/2+z
1/2+x,1/2+y,1/2+z
1/2-x,1/2-y,1/2+z
1/2+x,1/2-y,-z
1/2-x,1/2+y,-z
1/2-x,1/2-y,1/2-z
1/2+x,1/2+y,1/2-z
1/2-x,1/2+y,z
1/2+x,1/2-y,z
loop_
_atom_site_type_symbol
_atom_site_label
_atom_site_fract_x
_atom_site_fract_y
_atom_site_fract_z
Si Si1 0.879053 0.962245 0.666600
Si Si2 0.500000 0.500000 0.750000
Si Si3 0.433614 0.078994 0.676918
Si Si4 0.435764 0.827694 0.826555
Si Si5 0.160288 0.728171 0.826260
Si Si6 0.215321 0.899953 0.822443
Si Si7 0.778648 0.193125 0.824316
Si Si8 0.184869 0.457246 0.678229
O O1 0.861171 0.966907 0.500000
O O2 0.848325 0.921559 0.717136
O O3 0.951387 0.970058 0.675267
O O4 0.851948 0.000000 0.750000
O O5 0.500000 0.072845 0.750000
O O6 0.435477 0.071041 0.500000
O O7 0.416761 0.126003 0.696999
O O8 0.381690 0.054080 0.758917
O O9 0.500000 0.823176 0.750000
O O10 0.390701 0.795572 0.759630
O O11 0.441186 0.821907 0.000000
O O12 0.166689 0.775727 0.798052
O O13 0.223005 0.709033 0.771119
O O14 0.152615 0.722173 0.000000
O O15 0.211350 0.853104 0.788806
O O16 0.268110 0.923789 0.738164
O O17 0.226074 0.902947 0.000000
O O18 0.764124 0.196161 0.000000
O O19 0.201183 0.500000 0.750000
O O20 0.185171 0.458835 0.500000
#
# Coordination Sequence:
#
# PCOD9525860 Si02
#       8
#    16   4  16  16  16  16  16  16
#     4   9  18  31  52  76 101 132 168 210 254 305
#     4   8  18  32  54  80 102 128 172 208 250 300
#     4  10  21  38  58  81 108 141 182 226 270 320
#     4  10  20  34  55  80 107 140 177 220 267 316
#     4  10  19  32  52  78 106 138 177 218 262 315
#     4  10  20  36  55  78 107 141 177 218 270 321
#     4   9  19  34  53  76 105 141 175 214 263 318
#     4  12  25  39  55  79 109 143 181 223 271 322
#
# _framework density 17.286829000000001
#
# number of rings (size 3 to 8) (size 9 to 14) (size 15 to 20)
#    0.414    1.655    0.000    3.931    0.000    8.000 
#    0.000    1.379    1.517    0.000    0.000    0.000 
#    0.000    0.000    0.000    0.000    0.000    0.000 
#
# Total GULP energy -323052.580770 kJ/mol
# GULP energy per Si atom -5569.872082 kJ/mol
# Density = 1.724748 g / cm^3
# Si number density = 17.286829 Si / 1000 Ang^3
#
#
#
# Elastic Constant Matrix: (Units=GPa)
#
#
# Indices 1 2 3 4 5 6 
#
# 1 63.8311 43.5536 33.2998 0.0000 0.0000 0.0000
# 2 43.5536 111.3093 50.5995 0.0000 0.0000 0.0000
# 3 33.2998 50.5995 71.8683 0.0001 0.0002 0.0001
# 4 0.0000 0.0000 0.0001 25.0747 0.0000 0.0000
# 5 0.0000 0.0000 0.0002 0.0000 19.9297 0.0000
# 6 0.0000 0.0000 0.0001 0.0000 0.0000 36.5358
#
#
#
# Elastic Compliance Matrix: (Units=1/GPa)
#
#
# Indices 1 2 3 4 5 6 
#
# 1 0.023224 -0.006170 -0.006416 0.000000 0.000000 0.000000
# 2 -0.006170 0.014852 -0.007598 0.000000 0.000000 0.000000
# 3 -0.006416 -0.007598 0.022237 0.000000 0.000000 0.000000
# 4 0.000000 0.000000 0.000000 0.039881 0.000000 0.000000
# 5 0.000000 0.000000 0.000000 0.000000 0.050176 0.000000
# 6 0.000000 0.000000 0.000000 0.000000 0.000000 0.027370
#
#
# Mechanical properties :
#
#
# Convention : Reuss Voigt Hill
#
# Bulk Modulus (GPa) = 50.14132 55.76828 52.95480
# Shear Modulus (GPa) = 22.24624 24.27844 23.26234
#
# Velocity S-wave (km/s) = 3.59122 3.75166 3.67232
# Velocity P-wave (km/s) = 6.80178 7.14823 6.97716
#
# Compressibility (1/GPa) = 0.01994363
#
# Stress axis : x y z
#
# Youngs Moduli (GPa) = 43.05920 67.33011 44.97088
#
# Poissons Ratio (x) = 0.41545 0.28855
# Poissons Ratio (y) = 0.26569 0.34168
# Poissons Ratio (z) = 0.27628 0.51156
#
# Static dielectric constant tensor:
#      x y z
#    x 1.637860 0.000000 0.000000 
#    y 0.000000 1.611080 0.000000 
#    z 0.000000 0.000000 1.584840 
# 
# From -- ./inp_files/7265.got.cif
#   From: 2010.05.17/outbox.cif.g08.bks.cpg/sg72_4_cif.got.tgz:7265.got - 2010.06.03 17:03:01.
