data_PCOD9525247
_publ_section_title
;
Structure prediction by ZEFSAII (Michael W. Deem and Ramdas Pophale) SiO2 
 PCOD9525247
Probable space group: I B A M
;
_chemical_formula_sum "Si O2"
_cell_formula_units_Z 96
_cell_length_a 10.276671
_cell_length_b 22.380905
_cell_length_c 20.961591
_cell_angle_alpha 90.000000
_cell_angle_beta 90.000000
_cell_angle_gamma 90.000000
_cell_volume 4821.191029
_symmetry_space_group_name_H-M "I B A M"
_symmetry_group_IT_number 72
_symmetry_cell_setting 'orthorhombic'
loop_
_space_group_symop_operation_xyz
x,y,z
-x,-y,z
x,-y,1/2-z
-x,y,1/2-z
-x,-y,-z
x,y,-z
-x,y,1/2+z
x,-y,1/2+z
1/2+x,1/2+y,1/2+z
1/2-x,1/2-y,1/2+z
1/2+x,1/2-y,-z
1/2-x,1/2+y,-z
1/2-x,1/2-y,1/2-z
1/2+x,1/2+y,1/2-z
1/2-x,1/2+y,z
1/2+x,1/2-y,z
loop_
_atom_site_type_symbol
_atom_site_label
_atom_site_fract_x
_atom_site_fract_y
_atom_site_fract_z
Si Si1 0.613591 0.779890 0.862647
Si Si2 0.715240 0.644996 0.861126
Si Si3 0.284305 0.347705 0.000000
Si Si4 0.731687 0.633880 0.726706
Si Si5 0.548451 0.567063 0.362728
Si Si6 0.090262 0.884385 0.500000
Si Si7 0.500000 0.274717 0.750000
Si Si8 0.324659 0.210116 0.000000
O O1 0.694971 0.717139 0.863941
O O2 0.682230 0.834012 0.826327
O O3 0.498651 0.763217 0.814631
O O4 0.591615 0.795913 0.935724
O O5 0.789971 0.623449 0.797326
O O6 0.572850 0.613028 0.855316
O O7 0.764746 0.627595 0.931988
O O8 0.442833 0.357469 0.000000
O O9 0.266052 0.276713 0.000000
O O10 0.653613 0.581474 0.691864
O O11 0.624894 0.684120 0.744155
O O12 0.500000 0.500000 0.357132
O O13 0.601451 0.578882 0.434223
O O14 0.202746 0.834712 0.500000
#
# Coordination Sequence:
#
# PCOD9525247 Si02
#       8
#    16  16   8  16  16   8   8   8
#     4  10  19  30  49  69  98 137 169 212 266 314
#     4   9  17  31  43  65  96 129 173 209 254 302
#     4   8  18  29  45  66  91 135 168 216 256 306
#     4  11  18  30  47  70 100 139 169 211 266 314
#     4  11  20  31  48  70 103 144 176 206 254 314
#     4  10  19  34  46  68 110 138 173 214 262 317
#     4  10  18  32  45  70 102 133 166 214 272 312
#     4  10  18  29  49  70  93 141 174 210 257 319
#
# _framework density 19.912092999999999
#
# number of rings (size 3 to 8) (size 9 to 14) (size 15 to 20)
#    0.000    2.000    5.000    2.250    0.000    1.333 
#    0.000    0.000    0.000    0.000    0.000    0.000 
#    0.000   10.667    2.667   15.167    0.000    0.000 
#
# Total GULP energy -267324.189776 kJ/mol
# GULP energy per Si atom -5569.253954 kJ/mol
# Density = 1.986677 g / cm^3
# Si number density = 19.912093 Si / 1000 Ang^3
#
#
#
# Elastic Constant Matrix: (Units=GPa)
#
#
# Indices 1 2 3 4 5 6 
#
# 1 8.2659 13.8404 9.7470 0.0000 0.0000 0.0000
# 2 13.8404 72.7219 45.0148 0.0000 0.0000 0.0000
# 3 9.7470 45.0148 234.2686 0.0000 0.0000 0.0000
# 4 0.0000 0.0000 0.0000 9.1606 0.0000 0.0000
# 5 0.0000 0.0000 0.0000 0.0000 14.3802 0.0000
# 6 0.0000 0.0000 0.0000 0.0000 0.0000 12.3474
#
#
#
# Elastic Compliance Matrix: (Units=1/GPa)
#
#
# Indices 1 2 3 4 5 6 
#
# 1 0.177776 -0.033205 -0.001016 0.000000 0.000000 0.000000
# 2 -0.033205 0.021809 -0.002809 0.000000 0.000000 0.000000
# 3 -0.001016 -0.002809 0.004851 0.000000 0.000000 0.000000
# 4 0.000000 0.000000 0.000000 0.109163 0.000000 0.000000
# 5 0.000000 0.000000 0.000000 0.000000 0.069540 0.000000
# 6 0.000000 0.000000 0.000000 0.000000 0.000000 0.080989
#
#
# Mechanical properties :
#
#
# Convention : Reuss Voigt Hill
#
# Bulk Modulus (GPa) = 7.67020 50.27345 28.97183
# Shear Modulus (GPa) = 8.59628 23.62124 16.10876
#
# Velocity S-wave (km/s) = 2.08002 3.44797 2.84737
# Velocity P-wave (km/s) = 3.10307 6.41513 5.03899
#
# Compressibility (1/GPa) = 0.13037472
#
# Stress axis : x y z
#
# Youngs Moduli (GPa) = 5.62507 45.85160 206.15729
#
# Poissons Ratio (x) = 1.52251 0.20949
# Poissons Ratio (y) = 0.18678 0.57913
# Poissons Ratio (z) = 0.00572 0.12880
#
# Static dielectric constant tensor:
#      x y z
#    x 1.737990 0.000000 0.000000 
#    y 0.000000 1.667440 0.000000 
#    z 0.000000 0.000000 1.850820 
# 
# From -- ./inp_files/37181.got.cif
#   From: 2010.05.17/outbox.cif.g08.bks.cpg/sg72_19_cif.got.tgz:37181.got - 2010.06.03 17:03:01.
