data_PCOD9525870
_publ_section_title
;
Structure prediction by ZEFSAII (Michael W. Deem and Ramdas Pophale) SiO2 
 PCOD9525870
Probable space group: I B A M
;
_chemical_formula_sum "Si O2"
_cell_formula_units_Z 48
_cell_length_a 21.557634
_cell_length_b 9.337158
_cell_length_c 11.154936
_cell_angle_alpha 90.000000
_cell_angle_beta 90.000000
_cell_angle_gamma 90.000000
_cell_volume 2245.343990
_symmetry_space_group_name_H-M "I B A M"
_symmetry_group_IT_number 72
_symmetry_cell_setting 'orthorhombic'
loop_
_space_group_symop_operation_xyz
x,y,z
-x,-y,z
x,-y,1/2-z
-x,y,1/2-z
-x,-y,-z
x,y,-z
-x,y,1/2+z
x,-y,1/2+z
1/2+x,1/2+y,1/2+z
1/2-x,1/2-y,1/2+z
1/2+x,1/2-y,-z
1/2-x,1/2+y,-z
1/2-x,1/2-y,1/2-z
1/2+x,1/2+y,1/2-z
1/2-x,1/2+y,z
1/2+x,1/2-y,z
loop_
_atom_site_type_symbol
_atom_site_label
_atom_site_fract_x
_atom_site_fract_y
_atom_site_fract_z
Si Si1 0.843224 0.838479 0.293724
Si Si2 0.521632 0.668379 0.125135
Si Si3 0.793203 0.609048 0.863820
O O1 0.904365 0.814139 0.370015
O O2 0.838287 0.736417 0.177806
O O3 0.777180 0.829206 0.360292
O O4 0.848861 0.000000 0.250000
O O5 0.500000 0.500000 0.126569
O O6 0.500000 0.733291 0.250000
O O7 0.497254 0.728953 0.000000
O O8 0.796760 0.500000 0.750000
O O9 0.805109 0.556454 0.000000
#
# Coordination Sequence:
#
# PCOD9525870 Si02
#       3
#    16  16  16
#     4  10  20  36  59  88 122 158 203 253 305 362
#     4  10  19  32  52  85 120 152 189 242 304 355
#     4  10  23  39  59  87 123 167 208 252 308 368
#
# _framework density 21.377569999999999
#
# number of rings (size 3 to 8) (size 9 to 14) (size 15 to 20)
#    0.000    2.000    3.333    1.000    0.000   16.000 
#    0.000    0.000    0.000    1.000    0.000    4.667 
#    0.000    0.000    0.000    0.000    0.000    0.000 
#
# Total GULP energy -133637.207666 kJ/mol
# GULP energy per Si atom -5568.216986 kJ/mol
# Density = 2.132891 g / cm^3
# Si number density = 21.377570 Si / 1000 Ang^3
#
#
#
# Elastic Constant Matrix: (Units=GPa)
#
#
# Indices 1 2 3 4 5 6 
#
# 1 75.4824 16.1284 38.5201 0.0000 0.0000 0.0000
# 2 16.1284 44.4123 39.5462 0.0000 0.0000 0.0000
# 3 38.5201 39.5462 238.5592 0.0000 0.0000 0.0000
# 4 0.0000 0.0000 0.0000 1.7071 0.0000 0.0000
# 5 0.0000 0.0000 0.0000 0.0000 17.4746 0.0000
# 6 0.0000 0.0000 0.0000 0.0000 0.0000 49.4904
#
#
#
# Elastic Compliance Matrix: (Units=1/GPa)
#
#
# Indices 1 2 3 4 5 6 
#
# 1 0.014980 -0.003855 -0.001780 0.000000 0.000000 0.000000
# 2 -0.003855 0.027408 -0.003921 0.000000 0.000000 0.000000
# 3 -0.001780 -0.003921 0.005129 0.000000 0.000000 0.000000
# 4 0.000000 0.000000 0.000000 0.585788 0.000000 0.000000
# 5 0.000000 0.000000 0.000000 0.000000 0.057226 0.000000
# 6 0.000000 0.000000 0.000000 0.000000 0.000000 0.020206
#
#
# Mechanical properties :
#
#
# Convention : Reuss Voigt Hill
#
# Bulk Modulus (GPa) = 35.20499 60.76037 47.98268
# Shear Modulus (GPa) = 6.76299 31.35168 19.05733
#
# Velocity S-wave (km/s) = 1.78058 3.83374 2.98898
# Velocity P-wave (km/s) = 4.55316 6.93404 5.86567
#
# Compressibility (1/GPa) = 0.02840507
#
# Stress axis : x y z
#
# Youngs Moduli (GPa) = 66.75504 36.48616 194.96318
#
# Poissons Ratio (x) = 0.14067 0.34698
# Poissons Ratio (y) = 0.25736 0.76443
# Poissons Ratio (z) = 0.11881 0.14306
#
# Static dielectric constant tensor:
#      x y z
#    x 1.796470 0.000000 0.000000 
#    y 0.000000 1.774540 0.000000 
#    z 0.000000 0.000000 1.853440 
# 
# From -- ./inp_files/10195.got.cif
#   From: 2010.05.17/outbox.cif.g08.bks.cpg/sg72_6_cif.got.tgz:10195.got - 2010.06.03 17:03:01.
