data_PCOD9525651
_publ_section_title
;
Structure prediction by ZEFSAII (Michael W. Deem and Ramdas Pophale) SiO2 
 PCOD9525651
Probable space group: I B A M
;
_chemical_formula_sum "Si O2"
_cell_formula_units_Z 116
_cell_length_a 32.288117
_cell_length_b 32.288116
_cell_length_c 8.985457
_cell_angle_alpha 90.000000
_cell_angle_beta 90.000000
_cell_angle_gamma 90.000000
_cell_volume 9367.540800
_symmetry_space_group_name_H-M "I B A M"
_symmetry_group_IT_number 72
_symmetry_cell_setting 'orthorhombic'
loop_
_space_group_symop_operation_xyz
x,y,z
-x,-y,z
x,-y,1/2-z
-x,y,1/2-z
-x,-y,-z
x,y,-z
-x,y,1/2+z
x,-y,1/2+z
1/2+x,1/2+y,1/2+z
1/2-x,1/2-y,1/2+z
1/2+x,1/2-y,-z
1/2-x,1/2+y,-z
1/2-x,1/2-y,1/2-z
1/2+x,1/2+y,1/2-z
1/2-x,1/2+y,z
1/2+x,1/2-y,z
loop_
_atom_site_type_symbol
_atom_site_label
_atom_site_fract_x
_atom_site_fract_y
_atom_site_fract_z
Si Si1 0.684432 0.755669 0.328279
Si Si2 0.805833 0.876092 0.323437
Si Si3 0.255669 0.815568 0.671721
Si Si4 0.500000 0.500000 0.250000
Si Si5 0.043104 0.842074 0.320679
Si Si6 0.623908 0.305833 0.323437
Si Si7 0.657927 0.456896 0.820679
Si Si8 0.566899 0.566899 0.329323
O O1 0.673678 0.763656 0.500000
O O2 0.704448 0.795552 0.250000
O O3 0.720758 0.720758 0.327934
O O4 0.646950 0.734674 0.239316
O O5 0.802485 0.883166 0.500000
O O6 0.765326 0.853050 0.260684
O O7 0.844291 0.844291 0.299074
O O8 0.815894 0.918025 0.236536
O O9 0.263656 0.826322 0.500000
O O10 0.531766 0.531766 0.327514
O O11 0.040414 0.841390 0.500000
O O12 0.081974 0.815894 0.263464
O O13 0.051136 0.889621 0.264967
O O14 0.000000 0.828010 0.250000
O O15 0.616834 0.302485 0.500000
O O16 0.671990 0.500000 0.750000
O O17 0.610379 0.448864 0.764967
O O18 0.658610 0.459586 0.000000
O O19 0.576655 0.576655 0.500000
#
# Coordination Sequence:
#
# PCOD9525651 Si02
#       8
#    16  16  16   4  16  16  16  16
#     4   9  16  26  41  61  83 104 122 146 176 218
#     4  10  19  30  44  61  78 100 125 153 188 232
#     4   9  16  26  41  61  83 104 122 146 176 218
#     4  12  18  36  44  58  68  88 114 160 206 252
#     4  11  21  34  45  58  74  95 124 158 198 242
#     4  10  19  30  44  61  78 100 125 153 188 232
#     4  11  21  34  45  58  74  95 124 158 198 242
#     4  10  21  31  43  56  70  88 114 151 199 246
#
# _framework density 12.383186
#
# number of rings (size 3 to 8) (size 9 to 14) (size 15 to 20)
#    0.000    1.931    2.759    2.690    0.000    4.414 
#    0.000    0.000    0.000    0.000    0.000    0.000 
#    0.000    0.000    0.000    0.000    0.000    0.000 
#
# Total GULP energy -323250.231095 kJ/mol
# GULP energy per Si atom -5573.279846 kJ/mol
# Density = 1.235500 g / cm^3
# Si number density = 12.383186 Si / 1000 Ang^3
#
#
#
# Elastic Constant Matrix: (Units=GPa)
#
#
# Indices 1 2 3 4 5 6 
#
# 1 60.2593 46.3268 36.3607 0.0000 0.0000 0.0000
# 2 46.3268 60.2591 36.3607 0.0000 0.0000 0.0000
# 3 36.3607 36.3607 77.9356 0.0000 0.0000 0.0000
# 4 0.0000 0.0000 0.0000 16.2849 0.0000 0.0000
# 5 0.0000 0.0000 0.0000 0.0000 16.2848 0.0000
# 6 0.0000 0.0000 0.0000 0.0000 0.0000 20.2612
#
#
#
# Elastic Compliance Matrix: (Units=1/GPa)
#
#
# Indices 1 2 3 4 5 6 
#
# 1 0.042769 -0.029006 -0.006421 0.000000 0.000000 0.000000
# 2 -0.029006 0.042769 -0.006421 0.000000 0.000000 0.000000
# 3 -0.006421 -0.006421 0.018823 0.000000 0.000000 0.000000
# 4 0.000000 0.000000 0.000000 0.061407 0.000000 0.000000
# 5 0.000000 0.000000 0.000000 0.000000 0.061407 0.000000
# 6 0.000000 0.000000 0.000000 0.000000 0.000000 0.049356
#
#
# Mechanical properties :
#
#
# Convention : Reuss Voigt Hill
#
# Bulk Modulus (GPa) = 48.39270 48.50560 48.44915
# Shear Modulus (GPa) = 13.61971 15.85989 14.73980
#
# Velocity S-wave (km/s) = 3.32000 3.58265 3.45383
# Velocity P-wave (km/s) = 7.33899 7.50796 7.42395
#
# Compressibility (1/GPa) = 0.02066427
#
# Stress axis : x y z
#
# Youngs Moduli (GPa) = 23.38135 23.38125 53.12749
#
# Poissons Ratio (x) = 0.67820 0.34114
# Poissons Ratio (y) = 0.67820 0.34114
# Poissons Ratio (z) = 0.15013 0.15014
#
# Static dielectric constant tensor:
#      x y z
#    x 1.390000 0.000000 0.000000 
#    y 0.000000 1.390000 0.000000 
#    z 0.000000 0.000000 1.418800 
# 
# From -- ./inp_files/8687.got.cif
#   From: 2010.05.17/outbox.cif.g08.bks.cpg/sg72_5_cif.got.tgz:8687.got - 2010.06.03 17:03:01.
