data_PCOD9525112
_publ_section_title
;
Structure prediction by ZEFSAII (Michael W. Deem and Ramdas Pophale) SiO2 
 PCOD9525112
Probable space group: I B A M
;
_chemical_formula_sum "Si O2"
_cell_formula_units_Z 88
_cell_length_a 14.924607
_cell_length_b 19.822040
_cell_length_c 14.875042
_cell_angle_alpha 90.000000
_cell_angle_beta 90.000000
_cell_angle_gamma 90.000000
_cell_volume 4400.575260
_symmetry_space_group_name_H-M "I B A M"
_symmetry_group_IT_number 72
_symmetry_cell_setting 'orthorhombic'
loop_
_space_group_symop_operation_xyz
x,y,z
-x,-y,z
x,-y,1/2-z
-x,y,1/2-z
-x,-y,-z
x,y,-z
-x,y,1/2+z
x,-y,1/2+z
1/2+x,1/2+y,1/2+z
1/2-x,1/2-y,1/2+z
1/2+x,1/2-y,-z
1/2-x,1/2+y,-z
1/2-x,1/2-y,1/2-z
1/2+x,1/2+y,1/2-z
1/2-x,1/2+y,z
1/2+x,1/2-y,z
loop_
_atom_site_type_symbol
_atom_site_label
_atom_site_fract_x
_atom_site_fract_y
_atom_site_fract_z
Si Si1 0.000614 0.922941 0.859626
Si Si2 0.140487 0.688582 0.597715
Si Si3 0.844910 0.181659 0.853058
Si Si4 0.168537 0.839595 0.361054
Si Si5 0.628484 0.158854 0.603021
Si Si6 0.500000 0.143115 0.250000
O O1 0.082210 0.873079 0.885647
O O2 0.000000 0.923350 0.750000
O O3 0.907224 0.891062 0.888180
O O4 0.000000 0.000000 0.889840
O O5 0.110071 0.662547 0.500000
O O6 0.243971 0.666953 0.613578
O O7 0.148456 0.768757 0.593891
O O8 0.073205 0.675587 0.680560
O O9 0.838767 0.175036 0.745492
O O10 0.873439 0.259318 0.875925
O O11 0.268499 0.861158 0.383899
O O12 0.602182 0.149933 0.500000
O O13 0.568181 0.117311 0.673374
#
# Coordination Sequence:
#
# PCOD9525112 Si02
#       6
#    16  16  16  16  16   8
#     4   9  19  32  55  86 112 151 191 224 271 330
#     4  11  21  33  53  79 111 148 183 228 284 332
#     4  10  17  33  54  74 115 148 184 231 270 334
#     4  10  17  33  54  74 115 148 184 231 270 334
#     4  11  21  33  53  79 111 148 183 228 284 332
#     4  12  20  34  48  78 106 134 180 224 282 326
#
# _framework density 19.997385000000001
#
# number of rings (size 3 to 8) (size 9 to 14) (size 15 to 20)
#    0.000    1.636    3.636    4.909    2.545    0.000 
#    0.000    2.727    0.000    8.727    0.000    2.545 
#    0.000    2.909    0.000    0.000    0.000    0.000 
#
# Total GULP energy -245140.848358 kJ/mol
# GULP energy per Si atom -5571.382917 kJ/mol
# Density = 1.995187 g / cm^3
# Si number density = 19.997385 Si / 1000 Ang^3
#
#
#
# Elastic Constant Matrix: (Units=GPa)
#
#
# Indices 1 2 3 4 5 6 
#
# 1 146.3025 62.1339 30.9266 0.0000 0.0000 0.0000
# 2 62.1339 57.3234 2.4602 0.0000 0.0000 0.0000
# 3 30.9266 2.4602 148.6900 0.0000 0.0000 0.0000
# 4 0.0000 0.0000 0.0000 11.2508 0.0000 0.0000
# 5 0.0000 0.0000 0.0000 0.0000 -47.8530 0.0000
# 6 0.0000 0.0000 0.0000 0.0000 0.0000 -31.1615
#
#
#
# Elastic Compliance Matrix: (Units=1/GPa)
#
#
# Indices 1 2 3 4 5 6 
#
# 1 0.013591 -0.014620 -0.002585 0.000000 0.000000 0.000000
# 2 -0.014620 0.033185 0.002492 0.000000 0.000000 0.000000
# 3 -0.002585 0.002492 0.007222 0.000000 0.000000 0.000000
# 4 0.000000 0.000000 0.000000 0.088883 0.000000 0.000000
# 5 0.000000 0.000000 0.000000 0.000000 -0.020897 0.000000
# 6 0.000000 0.000000 0.000000 0.000000 0.000000 -0.032091
#
#
# Mechanical properties :
#
#
# Convention : Reuss Voigt Hill
#
# Bulk Modulus (GPa) = 40.69827 60.37301 50.53564
# Shear Modulus (GPa) = 39.21277 3.56694 21.38986
#
# Velocity S-wave (km/s) = 4.43300 1.33700 3.27407
# Velocity P-wave (km/s) = 6.82627 5.71309 6.29434
#
# Compressibility (1/GPa) = 0.02457107
#
# Stress axis : x y z
#
# Youngs Moduli (GPa) = 73.57942 30.13389 138.46935
#
# Poissons Ratio (x) = 0.44057 0.35793
# Poissons Ratio (y) = 1.07576 -0.34505
# Poissons Ratio (z) = 0.19019 -0.07509
#
# Static dielectric constant tensor:
#      x y z
#    x 1.739700 0.000000 0.000000 
#    y 0.000000 1.672990 0.000000 
#    z 0.000000 0.000000 1.755450 
# 
# From -- ./inp_files/21680.got.cif
#   From: 2010.05.17/outbox.cif.g08.bks.cpg/sg72_11_cif.got.tgz:21680.got - 2010.06.03 17:03:01.
