data_PCOD9525721
_publ_section_title
;
Structure prediction by ZEFSAII (Michael W. Deem and Ramdas Pophale) SiO2 
 PCOD9525721
Probable space group: I B A M
;
_chemical_formula_sum "Si O2"
_cell_formula_units_Z 80
_cell_length_a 7.573078
_cell_length_b 24.359586
_cell_length_c 17.555364
_cell_angle_alpha 90.000000
_cell_angle_beta 90.000000
_cell_angle_gamma 90.000000
_cell_volume 3238.561672
_symmetry_space_group_name_H-M "I B A M"
_symmetry_group_IT_number 72
_symmetry_cell_setting 'orthorhombic'
loop_
_space_group_symop_operation_xyz
x,y,z
-x,-y,z
x,-y,1/2-z
-x,y,1/2-z
-x,-y,-z
x,y,-z
-x,y,1/2+z
x,-y,1/2+z
1/2+x,1/2+y,1/2+z
1/2-x,1/2-y,1/2+z
1/2+x,1/2-y,-z
1/2-x,1/2+y,-z
1/2-x,1/2-y,1/2-z
1/2+x,1/2+y,1/2-z
1/2-x,1/2+y,z
1/2+x,1/2-y,z
loop_
_atom_site_type_symbol
_atom_site_label
_atom_site_fract_x
_atom_site_fract_y
_atom_site_fract_z
Si Si1 0.263901 0.057975 0.911918
Si Si2 0.307841 0.933292 0.088730
Si Si3 0.138086 0.169671 0.854702
Si Si4 0.972042 0.266208 0.087159
Si Si5 0.676139 0.159210 0.796843
O O1 0.476565 0.066997 0.907930
O O2 0.160316 0.104845 0.867271
O O3 0.239401 0.994197 0.892092
O O4 0.212889 0.064352 0.000000
O O5 0.252615 0.890286 0.152233
O O6 0.262179 0.920846 0.000000
O O7 0.028867 0.202686 0.612929
O O8 0.294280 0.198945 0.903452
O O9 0.189192 0.179614 0.767069
O O10 0.101209 0.294565 0.147524
O O11 0.030689 0.271005 0.000000
O O12 0.500000 0.140071 0.750000
#
# Coordination Sequence:
#
# PCOD9525721 Si02
#       5
#    16  16  16  16  16
#     4   9  16  28  47  73 104 134 168 213 260 305
#     4   9  16  28  48  72 104 136 166 210 266 314
#     4  11  22  35  51  77 108 138 173 216 258 305
#     4  11  21  35  53  71 100 141 179 213 254 307
#     4  10  19  31  47  73 105 133 168 213 258 309
#
# _framework density 24.702321999999999
#
# number of rings (size 3 to 8) (size 9 to 14) (size 15 to 20)
#    0.000    2.000    4.000    4.200    0.000    0.800 
#    0.000    0.000    0.000    0.000    0.000    1.400 
#    0.000   16.000    0.000    2.000    0.000    0.000 
#
# Total GULP energy -223926.685661 kJ/mol
# GULP energy per Si atom -5598.167142 kJ/mol
# Density = 2.464610 g / cm^3
# Si number density = 24.702322 Si / 1000 Ang^3
#
#
#
# Elastic Constant Matrix: (Units=GPa)
#
#
# Indices 1 2 3 4 5 6 
#
# 1 84.3188 24.8155 5.3418 0.0000 0.0000 0.0000
# 2 24.8155 143.4300 80.3902 0.0000 0.0000 0.0000
# 3 5.3418 80.3902 158.0334 0.0000 0.0000 0.0000
# 4 0.0000 0.0000 0.0000 38.1122 0.0000 0.0000
# 5 0.0000 0.0000 0.0000 0.0000 10.8367 0.0000
# 6 0.0000 0.0000 0.0000 0.0000 0.0000 22.4288
#
#
#
# Elastic Compliance Matrix: (Units=1/GPa)
#
#
# Indices 1 2 3 4 5 6 
#
# 1 0.012598 -0.002715 0.000955 0.000000 0.000000 0.000000
# 2 -0.002715 0.010338 -0.005167 0.000000 0.000000 0.000000
# 3 0.000955 -0.005167 0.008924 0.000000 0.000000 0.000000
# 4 0.000000 0.000000 0.000000 0.026238 0.000000 0.000000
# 5 0.000000 0.000000 0.000000 0.000000 0.092279 0.000000
# 6 0.000000 0.000000 0.000000 0.000000 0.000000 0.044585
#
#
# Mechanical properties :
#
#
# Convention : Reuss Voigt Hill
#
# Bulk Modulus (GPa) = 55.53577 67.43080 61.48329
# Shear Modulus (GPa) = 23.27545 32.62452 27.94998
#
# Velocity S-wave (km/s) = 3.07292 3.63810 3.36739
# Velocity P-wave (km/s) = 5.92632 6.70852 6.32951
#
# Compressibility (1/GPa) = 0.01800641
#
# Stress axis : x y z
#
# Youngs Moduli (GPa) = 79.37577 96.73231 112.05887
#
# Poissons Ratio (x) = 0.26264 -0.10705
# Poissons Ratio (y) = 0.21552 0.57901
# Poissons Ratio (z) = -0.07583 0.49981
#
# Static dielectric constant tensor:
#      x y z
#    x 2.125570 0.000000 0.000000 
#    y 0.000000 1.956140 0.000000 
#    z 0.000000 0.000000 1.896510 
# 
# From -- ./inp_files/21946.got.cif
#   From: 2010.05.17/outbox.cif.g08.bks.cpg/sg72_11_cif.got.tgz:21946.got - 2010.06.03 17:03:01.
