data_PCOD9525018
_publ_section_title
;
Structure prediction by ZEFSAII (Michael W. Deem and Ramdas Pophale) SiO2 
 PCOD9525018
Probable space group: I B A M
;
_chemical_formula_sum "Si O2"
_cell_formula_units_Z 64
_cell_length_a 35.353170
_cell_length_b 13.918154
_cell_length_c 8.653778
_cell_angle_alpha 90.000000
_cell_angle_beta 90.000000
_cell_angle_gamma 90.000000
_cell_volume 4258.098946
_symmetry_space_group_name_H-M "I B A M"
_symmetry_group_IT_number 72
_symmetry_cell_setting 'orthorhombic'
loop_
_space_group_symop_operation_xyz
x,y,z
-x,-y,z
x,-y,1/2-z
-x,y,1/2-z
-x,-y,-z
x,y,-z
-x,y,1/2+z
x,-y,1/2+z
1/2+x,1/2+y,1/2+z
1/2-x,1/2-y,1/2+z
1/2+x,1/2-y,-z
1/2-x,1/2+y,-z
1/2-x,1/2-y,1/2-z
1/2+x,1/2+y,1/2-z
1/2-x,1/2+y,z
1/2+x,1/2-y,z
loop_
_atom_site_type_symbol
_atom_site_label
_atom_site_fract_x
_atom_site_fract_y
_atom_site_fract_z
Si Si1 0.882427 0.108148 0.815876
Si Si2 0.538838 0.390821 0.815296
Si Si3 0.690773 0.290121 0.184575
Si Si4 0.269449 0.105989 0.184978
O O1 0.921428 0.149767 0.745181
O O2 0.846455 0.170113 0.766210
O O3 0.877298 0.000000 0.750000
O O4 0.885888 0.102317 0.000000
O O5 0.539321 0.500000 0.750000
O O6 0.500000 0.346313 0.750000
O O7 0.537870 0.393062 0.000000
O O8 0.702696 0.184519 0.241180
O O9 0.726794 0.358104 0.222366
O O10 0.685609 0.291135 0.000000
O O11 0.275487 0.000000 0.250000
O O12 0.273441 0.107158 0.000000
#
# Coordination Sequence:
#
# PCOD9525018 Si02
#       4
#    16  16  16  16
#     4  11  20  30  44  64  90 120 153 187 224 265
#     4  10  17  27  41  59  84 115 149 182 219 262
#     4  10  20  33  48  67  90 117 151 188 225 266
#     4  10  20  33  49  67  89 118 150 186 227 269
#
# _framework density 15.030182
#
# number of rings (size 3 to 8) (size 9 to 14) (size 15 to 20)
#    0.000    1.750    0.000    9.000    0.000    5.000 
#    0.000    0.000    0.000    0.000    0.000    0.000 
#    0.000    1.000    0.000   10.000    0.000    6.000 
#
# Total GULP energy -178575.871121 kJ/mol
# GULP energy per Si atom -5580.495973 kJ/mol
# Density = 1.499597 g / cm^3
# Si number density = 15.030182 Si / 1000 Ang^3
#
#
#
# Elastic Constant Matrix: (Units=GPa)
#
#
# Indices 1 2 3 4 5 6 
#
# 1 134.3062 43.0782 65.8193 0.0000 0.0000 0.0000
# 2 43.0782 73.0856 32.2530 0.0000 0.0000 0.0000
# 3 65.8193 32.2530 126.5195 0.0000 0.0000 0.0000
# 4 0.0000 0.0000 0.0000 21.7048 0.0000 0.0000
# 5 0.0000 0.0000 0.0000 0.0000 28.8673 0.0000
# 6 0.0000 0.0000 0.0000 0.0000 0.0000 15.2894
#
#
#
# Elastic Compliance Matrix: (Units=1/GPa)
#
#
# Indices 1 2 3 4 5 6 
#
# 1 0.011185 -0.004535 -0.004663 0.000000 0.000000 0.000000
# 2 -0.004535 0.017256 -0.002040 0.000000 0.000000 0.000000
# 3 -0.004663 -0.002040 0.010850 0.000000 0.000000 0.000000
# 4 0.000000 0.000000 0.000000 0.046073 0.000000 0.000000
# 5 0.000000 0.000000 0.000000 0.000000 0.034641 0.000000
# 6 0.000000 0.000000 0.000000 0.000000 0.000000 0.065405
#
#
# Mechanical properties :
#
#
# Convention : Reuss Voigt Hill
#
# Bulk Modulus (GPa) = 59.46874 68.46806 63.96840
# Shear Modulus (GPa) = 23.42028 26.02302 24.72165
#
# Velocity S-wave (km/s) = 3.95171 4.16550 4.06001
# Velocity P-wave (km/s) = 7.77647 8.29384 8.03932
#
# Compressibility (1/GPa) = 0.01681556
#
# Stress axis : x y z
#
# Youngs Moduli (GPa) = 89.40186 57.95151 92.16903
#
# Poissons Ratio (x) = 0.26282 0.42977
# Poissons Ratio (y) = 0.40545 0.18799
# Poissons Ratio (z) = 0.41687 0.11820
#
# Static dielectric constant tensor:
#      x y z
#    x 1.533970 0.000000 0.000000 
#    y 0.000000 1.464650 0.000000 
#    z 0.000000 0.000000 1.499010 
# 
# From -- ./inp_files/2632.got.cif
#   From: 2010.05.17/outbox.cif.g08.bks.cpg/sg72_2_cif.got.tgz:2632.got - 2010.06.03 17:03:01.
