data_PCOD9525441
_publ_section_title
;
Structure prediction by ZEFSAII (Michael W. Deem and Ramdas Pophale) SiO2 
 PCOD9525441
Probable space group: I B A M
;
_chemical_formula_sum "Si O2"
_cell_formula_units_Z 96
_cell_length_a 9.549881
_cell_length_b 22.609864
_cell_length_c 24.211724
_cell_angle_alpha 90.000000
_cell_angle_beta 90.000000
_cell_angle_gamma 90.000000
_cell_volume 5227.832021
_symmetry_space_group_name_H-M "I B A M"
_symmetry_group_IT_number 72
_symmetry_cell_setting 'orthorhombic'
loop_
_space_group_symop_operation_xyz
x,y,z
-x,-y,z
x,-y,1/2-z
-x,y,1/2-z
-x,-y,-z
x,y,-z
-x,y,1/2+z
x,-y,1/2+z
1/2+x,1/2+y,1/2+z
1/2-x,1/2-y,1/2+z
1/2+x,1/2-y,-z
1/2-x,1/2+y,-z
1/2-x,1/2-y,1/2-z
1/2+x,1/2+y,1/2-z
1/2-x,1/2+y,z
1/2+x,1/2-y,z
loop_
_atom_site_type_symbol
_atom_site_label
_atom_site_fract_x
_atom_site_fract_y
_atom_site_fract_z
Si Si1 0.538837 0.352483 0.935011
Si Si2 0.715686 0.641679 0.861683
Si Si3 0.428317 0.788022 0.060890
Si Si4 0.530494 0.930288 0.687125
Si Si5 0.663563 0.151013 0.616720
Si Si6 0.625304 0.253062 0.291734
O O1 0.400776 0.378793 0.905817
O O2 0.534131 0.280553 0.930874
O O3 0.682224 0.366288 0.902591
O O4 0.546041 0.367407 0.000000
O O5 0.822973 0.686189 0.893469
O O6 0.816251 0.593105 0.832804
O O7 0.628656 0.681936 0.818745
O O8 0.570989 0.825121 0.065870
O O9 0.364271 0.794365 0.000000
O O10 0.500000 0.909902 0.750000
O O11 0.418980 0.901387 0.645952
O O12 0.500000 0.000000 0.685842
O O13 0.650597 0.204935 0.660559
O O14 0.500000 0.240761 0.250000
O O15 0.750000 0.250000 0.250000
#
# Coordination Sequence:
#
# PCOD9525441 Si02
#       6
#    16  16  16  16  16  16
#     4  11  20  33  55  88 124 153 187 232 290 354
#     4  11  21  35  56  85 118 150 192 240 293 347
#     4  10  18  32  53  81 120 158 190 223 276 353
#     4  10  23  44  64  80 105 153 208 246 284 345
#     4  11  20  35  55  85 119 155 188 233 287 348
#     4  12  21  31  49  81 121 149 182 230 296 349
#
# _framework density 18.363253
#
# number of rings (size 3 to 8) (size 9 to 14) (size 15 to 20)
#    0.000    1.167    3.333    5.500    0.000    2.667 
#    0.000    0.833    0.000   21.000    0.000    0.000 
#    0.000    0.000    0.000    0.000    0.000    0.000 
#
# Total GULP energy -267766.140737 kJ/mol
# GULP energy per Si atom -5578.461265 kJ/mol
# Density = 1.832146 g / cm^3
# Si number density = 18.363253 Si / 1000 Ang^3
#
#
#
# Elastic Constant Matrix: (Units=GPa)
#
#
# Indices 1 2 3 4 5 6 
#
# 1 122.8920 14.4846 46.5428 0.0000 0.0000 0.0000
# 2 14.4846 51.6829 23.4100 0.0000 0.0000 0.0000
# 3 46.5428 23.4100 105.4053 0.0000 0.0000 0.0000
# 4 0.0000 0.0000 0.0000 23.5736 0.0000 0.0000
# 5 0.0000 0.0000 0.0000 0.0000 34.9834 0.0000
# 6 0.0000 0.0000 0.0000 0.0000 0.0000 9.1091
#
#
#
# Elastic Compliance Matrix: (Units=1/GPa)
#
#
# Indices 1 2 3 4 5 6 
#
# 1 0.009807 -0.000875 -0.004136 0.000000 0.000000 0.000000
# 2 -0.000875 0.021591 -0.004409 0.000000 0.000000 0.000000
# 3 -0.004136 -0.004409 0.012293 0.000000 0.000000 0.000000
# 4 0.000000 0.000000 0.000000 0.042420 0.000000 0.000000
# 5 0.000000 0.000000 0.000000 0.000000 0.028585 0.000000
# 6 0.000000 0.000000 0.000000 0.000000 0.000000 0.109780
#
#
# Mechanical properties :
#
#
# Convention : Reuss Voigt Hill
#
# Bulk Modulus (GPa) = 40.24029 49.87278 45.05653
# Shear Modulus (GPa) = 19.87291 26.56943 23.22117
#
# Velocity S-wave (km/s) = 3.29327 3.80791 3.55990
# Velocity P-wave (km/s) = 6.03505 6.82287 6.44102
#
# Compressibility (1/GPa) = 0.02485072
#
# Stress axis : x y z
#
# Youngs Moduli (GPa) = 101.97046 46.31556 81.34945
#
# Poissons Ratio (x) = 0.04053 0.33646
# Poissons Ratio (y) = 0.08923 0.35866
# Poissons Ratio (z) = 0.42174 0.20420
#
# Static dielectric constant tensor:
#      x y z
#    x 1.647910 0.000000 0.000000 
#    y 0.000000 1.609760 0.000000 
#    z 0.000000 0.000000 1.655170 
# 
# From -- ./inp_files/42383.got.cif
#   From: 2010.05.17/outbox.cif.g08.bks.cpg/sg72_22_cif.got.tgz:42383.got - 2010.06.03 17:03:01.
