data_PCOD9525367
_publ_section_title
;
Structure prediction by ZEFSAII (Michael W. Deem and Ramdas Pophale) SiO2 
 PCOD9525367
Probable space group: I B A M
;
_chemical_formula_sum "Si O2"
_cell_formula_units_Z 80
_cell_length_a 7.724813
_cell_length_b 26.662015
_cell_length_c 17.231304
_cell_angle_alpha 90.000000
_cell_angle_beta 90.000000
_cell_angle_gamma 90.000000
_cell_volume 3548.943520
_symmetry_space_group_name_H-M "I B A M"
_symmetry_group_IT_number 72
_symmetry_cell_setting 'orthorhombic'
loop_
_space_group_symop_operation_xyz
x,y,z
-x,-y,z
x,-y,1/2-z
-x,y,1/2-z
-x,-y,-z
x,y,-z
-x,y,1/2+z
x,-y,1/2+z
1/2+x,1/2+y,1/2+z
1/2-x,1/2-y,1/2+z
1/2+x,1/2-y,-z
1/2-x,1/2+y,-z
1/2-x,1/2-y,1/2-z
1/2+x,1/2+y,1/2-z
1/2-x,1/2+y,z
1/2+x,1/2-y,z
loop_
_atom_site_type_symbol
_atom_site_label
_atom_site_fract_x
_atom_site_fract_y
_atom_site_fract_z
Si Si1 0.446855 0.279861 0.660626
Si Si2 0.043303 0.116353 0.341902
Si Si3 0.195200 0.023421 0.590686
Si Si4 0.180081 0.579159 0.091754
Si Si5 0.442354 0.823021 0.338528
O O1 0.500000 0.271342 0.750000
O O2 0.570498 0.325685 0.634218
O O3 0.457471 0.224599 0.624774
O O4 0.254752 0.302154 0.659723
O O5 0.871795 0.099109 0.387281
O O6 0.000000 0.115663 0.250000
O O7 0.185979 0.074881 0.361817
O O8 0.233635 0.033971 0.500000
O O9 0.317032 0.978401 0.620651
O O10 0.000000 0.000000 0.593419
O O11 0.055895 0.622759 0.122089
O O12 0.161876 0.575707 0.000000
O O13 0.500000 0.831266 0.250000
#
# Coordination Sequence:
#
# PCOD9525367 Si02
#       5
#    16  16  16  16  16
#     4   9  17  29  48  76 105 135 173 221 276 326
#     4   9  16  26  46  78 109 138 179 231 279 329
#     4   8  14  26  43  65 101 141 169 208 273 333
#     4   9  18  31  46  71 108 145 178 221 285 343
#     4  10  18  31  51  75 104 139 180 223 269 332
#
# _framework density 22.541920000000001
#
# number of rings (size 3 to 8) (size 9 to 14) (size 15 to 20)
#    0.000    3.000    0.000    4.200    0.000    3.600 
#    0.000    5.000    0.000    0.000    0.000   88.200 
#    0.000   68.800    0.000    0.000    0.000    0.000 
#
# Total GULP energy -222914.391809 kJ/mol
# GULP energy per Si atom -5572.859795 kJ/mol
# Density = 2.249061 g / cm^3
# Si number density = 22.541920 Si / 1000 Ang^3
#
#
#
# Elastic Constant Matrix: (Units=GPa)
#
#
# Indices 1 2 3 4 5 6 
#
# 1 64.5032 63.8374 12.7580 0.0000 0.0000 0.0000
# 2 63.8374 219.5038 54.1326 0.0000 0.0000 0.0000
# 3 12.7580 54.1326 28.8586 -0.0001 0.0000 0.0000
# 4 0.0000 0.0000 -0.0001 -6.4616 0.0000 0.0000
# 5 0.0000 0.0000 0.0000 0.0000 10.7113 0.0000
# 6 0.0000 0.0000 0.0000 0.0000 0.0000 92.3231
#
#
#
# Elastic Compliance Matrix: (Units=1/GPa)
#
#
# Indices 1 2 3 4 5 6 
#
# 1 0.022044 -0.007457 0.004243 0.000000 0.000000 0.000000
# 2 -0.007457 0.011000 -0.017337 0.000000 0.000000 0.000000
# 3 0.004243 -0.017337 0.065296 -0.000001 0.000000 0.000000
# 4 0.000000 0.000000 -0.000001 -0.154760 0.000000 0.000000
# 5 0.000000 0.000000 0.000000 0.000000 0.093359 0.000000
# 6 0.000000 0.000000 0.000000 0.000000 0.000000 0.010832
#
#
# Mechanical properties :
#
#
# Convention : Reuss Voigt Hill
#
# Bulk Modulus (GPa) = 17.47085 63.81352 40.64219
# Shear Modulus (GPa) = 46.31618 31.45707 38.88662
#
# Velocity S-wave (km/s) = 4.53776 3.73968 4.15791
# Velocity P-wave (km/s) = 5.93484 6.85691 6.41247
#
# Compressibility (1/GPa) = 0.05723818
#
# Stress axis : x y z
#
# Youngs Moduli (GPa) = 45.36302 90.90822 15.31477
#
# Poissons Ratio (x) = 0.67795 -0.06498
# Poissons Ratio (y) = 0.33829 0.26551
# Poissons Ratio (z) = -0.19248 1.57608
#
# Static dielectric constant tensor:
#      x y z
#    x 1.927080 0.000000 0.000000 
#    y 0.000000 1.938800 0.000000 
#    z 0.000000 0.000000 1.791130 
# 
# From -- ./inp_files/28112.got.cif
#   From: 2010.05.17/outbox.cif.g08.bks.cpg/sg72_15_cif.got.tgz:28112.got - 2010.06.03 17:03:01.
