data_PCOD9525062
_publ_section_title
;
Structure prediction by ZEFSAII (Michael W. Deem and Ramdas Pophale) SiO2 
 PCOD9525062
Probable space group: I B A M
;
_chemical_formula_sum "Si O2"
_cell_formula_units_Z 96
_cell_length_a 10.549546
_cell_length_b 25.177456
_cell_length_c 14.817216
_cell_angle_alpha 90.000000
_cell_angle_beta 90.000000
_cell_angle_gamma 90.000000
_cell_volume 3935.611562
_symmetry_space_group_name_H-M "I B A M"
_symmetry_group_IT_number 72
_symmetry_cell_setting 'orthorhombic'
loop_
_space_group_symop_operation_xyz
x,y,z
-x,-y,z
x,-y,1/2-z
-x,y,1/2-z
-x,-y,-z
x,y,-z
-x,y,1/2+z
x,-y,1/2+z
1/2+x,1/2+y,1/2+z
1/2-x,1/2-y,1/2+z
1/2+x,1/2-y,-z
1/2-x,1/2+y,-z
1/2-x,1/2-y,1/2-z
1/2+x,1/2+y,1/2-z
1/2-x,1/2+y,z
1/2+x,1/2-y,z
loop_
_atom_site_type_symbol
_atom_site_label
_atom_site_fract_x
_atom_site_fract_y
_atom_site_fract_z
Si Si1 0.968123 0.140511 0.644709
Si Si2 0.723246 0.809871 0.143897
Si Si3 0.129086 0.021290 0.146837
Si Si4 0.114491 0.537929 0.396321
Si Si5 0.030220 0.648735 0.349455
Si Si6 0.218787 0.810158 0.140262
O O1 0.863164 0.179906 0.605524
O O2 0.895404 0.084091 0.642189
O O3 0.000000 0.150610 0.750000
O O4 0.110055 0.149386 0.606778
O O5 0.611803 0.849402 0.111485
O O6 0.753579 0.816176 0.251599
O O7 0.676922 0.750246 0.126089
O O8 0.130583 0.000000 0.250000
O O9 0.256345 0.995354 0.109197
O O10 0.000000 0.000000 0.103560
O O11 0.096022 0.555042 0.500000
O O12 0.095996 0.591141 0.338948
O O13 0.000000 0.500000 0.369988
O O14 0.140548 0.681080 0.397777
O O15 0.000000 0.671612 0.250000
#
# Coordination Sequence:
#
# PCOD9525062 Si02
#       6
#    16  16  16  16  16  16
#     4  10  17  29  47  76 113 144 181 236 289 336
#     4   9  17  28  48  79 116 149 178 232 297 346
#     4  11  22  36  60  88 114 152 200 251 290 345
#     4  11  26  42  57  83 120 158 197 244 298 356
#     4  10  20  33  57  84 110 150 195 238 288 347
#     4   9  17  29  48  80 119 144 179 235 296 346
#
# _framework density 24.392651000000001
#
# number of rings (size 3 to 8) (size 9 to 14) (size 15 to 20)
#    0.000    2.000    1.667    3.000    7.000    4.333 
#    0.000    0.000    0.000    1.000    0.000    2.333 
#    0.000    0.000    0.000    0.000    0.000    0.000 
#
# Total GULP energy -267582.837185 kJ/mol
# GULP energy per Si atom -5574.642441 kJ/mol
# Density = 2.433713 g / cm^3
# Si number density = 24.392651 Si / 1000 Ang^3
#
#
#
# Elastic Constant Matrix: (Units=GPa)
#
#
# Indices 1 2 3 4 5 6 
#
# 1 220.4487 70.4798 -7.6686 0.0000 0.0000 0.0000
# 2 70.4798 97.3379 2.5632 -0.0001 0.0000 0.0000
# 3 -7.6686 2.5632 67.0036 0.0001 0.0000 -0.0004
# 4 0.0000 -0.0001 0.0001 -84.6047 0.0000 0.0000
# 5 0.0000 0.0000 0.0000 0.0000 11.1086 0.0000
# 6 0.0000 0.0000 -0.0004 0.0000 0.0000 37.6256
#
#
#
# Elastic Compliance Matrix: (Units=1/GPa)
#
#
# Indices 1 2 3 4 5 6 
#
# 1 0.005950 -0.004331 0.000847 0.000000 0.000000 0.000000
# 2 -0.004331 0.013436 -0.001010 0.000000 0.000000 0.000000
# 3 0.000847 -0.001010 0.015060 0.000000 0.000000 0.000000
# 4 0.000000 0.000000 0.000000 -0.011820 0.000000 0.000000
# 5 0.000000 0.000000 0.000000 0.000000 0.090020 0.000000
# 6 0.000000 0.000000 0.000000 0.000000 0.000000 0.026578
#
#
# Mechanical properties :
#
#
# Convention : Reuss Voigt Hill
#
# Bulk Modulus (GPa) = 39.27908 57.28209 48.28059
# Shear Modulus (GPa) = 31.90855 14.12030 23.01442
#
# Velocity S-wave (km/s) = 3.62072 2.40859 3.07497
# Velocity P-wave (km/s) = 5.79804 5.59191 5.69591
#
# Compressibility (1/GPa) = 0.02545884
#
# Stress axis : x y z
#
# Youngs Moduli (GPa) = 168.06092 74.42791 66.40066
#
# Poissons Ratio (x) = 0.32232 -0.05622
# Poissons Ratio (y) = 0.72782 0.06704
# Poissons Ratio (z) = -0.14229 0.07514
#
# Static dielectric constant tensor:
#      x y z
#    x 2.099490 0.000000 0.000000 
#    y 0.000000 1.991810 0.000000 
#    z 0.000000 0.000000 1.864880 
# 
# From -- ./inp_files/36018.got.cif
#   From: 2010.05.17/outbox.cif.g08.bks.cpg/sg72_19_cif.got.tgz:36018.got - 2010.06.03 17:03:01.
