data_PCOD9525970
_publ_section_title
;
Structure prediction by ZEFSAII (Michael W. Deem and Ramdas Pophale) SiO2 
 PCOD9525970
Probable space group: I B A M
;
_chemical_formula_sum "Si O2"
_cell_formula_units_Z 64
_cell_length_a 21.319445
_cell_length_b 17.407110
_cell_length_c 8.603120
_cell_angle_alpha 90.000000
_cell_angle_beta 90.000000
_cell_angle_gamma 90.000000
_cell_volume 3192.703212
_symmetry_space_group_name_H-M "I B A M"
_symmetry_group_IT_number 72
_symmetry_cell_setting 'orthorhombic'
loop_
_space_group_symop_operation_xyz
x,y,z
-x,-y,z
x,-y,1/2-z
-x,y,1/2-z
-x,-y,-z
x,y,-z
-x,y,1/2+z
x,-y,1/2+z
1/2+x,1/2+y,1/2+z
1/2-x,1/2-y,1/2+z
1/2+x,1/2-y,-z
1/2-x,1/2+y,-z
1/2-x,1/2-y,1/2-z
1/2+x,1/2+y,1/2-z
1/2-x,1/2+y,z
1/2+x,1/2-y,z
loop_
_atom_site_type_symbol
_atom_site_label
_atom_site_fract_x
_atom_site_fract_y
_atom_site_fract_z
Si Si1 0.700551 0.382123 0.181913
Si Si2 0.436554 0.372379 0.315100
Si Si3 0.862936 0.742837 0.683391
Si Si4 0.831825 0.581113 0.182341
O O1 0.630422 0.413428 0.215790
O O2 0.688726 0.292091 0.220600
O O3 0.757077 0.413111 0.283244
O O4 0.715367 0.392463 0.000000
O O5 0.500000 0.407695 0.250000
O O6 0.440683 0.362609 0.500000
O O7 0.425237 0.290064 0.230927
O O8 0.851606 0.750127 0.500000
O O9 0.861318 0.655033 0.733810
O O10 0.853964 0.500000 0.250000
O O11 0.843144 0.585353 0.000000
#
# Coordination Sequence:
#
# PCOD9525970 Si02
#       4
#    16  16  16  16
#     4   9  19  34  52  76 104 134 170 210 254 301
#     4   9  18  31  52  78 104 131 169 213 255 296
#     4  10  19  33  53  76 104 135 170 210 254 300
#     4  12  23  35  51  74 105 138 171 209 257 307
#
# _framework density 20.045708999999999
#
# number of rings (size 3 to 8) (size 9 to 14) (size 15 to 20)
#    1.500    0.500    0.000    6.000    0.000    0.000 
#    0.000    0.000    0.000    1.500    0.000   10.500 
#    0.000    0.000    0.000    0.000    0.000    0.000 
#
# Total GULP energy -178284.827307 kJ/mol
# GULP energy per Si atom -5571.400853 kJ/mol
# Density = 2.000008 g / cm^3
# Si number density = 20.045709 Si / 1000 Ang^3
#
#
#
# Elastic Constant Matrix: (Units=GPa)
#
#
# Indices 1 2 3 4 5 6 
#
# 1 47.4843 -5.8166 9.1959 0.0000 0.0000 0.0000
# 2 -5.8166 105.9883 7.5936 0.0000 0.0000 0.0000
# 3 9.1959 7.5936 63.1391 0.0000 0.0000 0.0000
# 4 0.0000 0.0000 0.0000 18.0391 0.0000 0.0000
# 5 0.0000 0.0000 0.0000 0.0000 20.1406 0.0000
# 6 0.0000 0.0000 0.0000 0.0000 0.0000 -50.6030
#
#
#
# Elastic Compliance Matrix: (Units=1/GPa)
#
#
# Indices 1 2 3 4 5 6 
#
# 1 0.021887 0.001442 -0.003361 0.000000 0.000000 0.000000
# 2 0.001442 0.009612 -0.001366 0.000000 0.000000 0.000000
# 3 -0.003361 -0.001366 0.016492 0.000000 0.000000 0.000000
# 4 0.000000 0.000000 0.000000 0.055435 0.000000 0.000000
# 5 0.000000 0.000000 0.000000 0.000000 0.049651 0.000000
# 6 0.000000 0.000000 0.000000 0.000000 0.000000 -0.019762
#
#
# Mechanical properties :
#
#
# Convention : Reuss Voigt Hill
#
# Bulk Modulus (GPa) = 24.14259 26.50638 25.32449
# Shear Modulus (GPa) = 32.53244 11.22460 21.87852
#
# Velocity S-wave (km/s) = 4.03291 2.36889 3.30727
# Velocity P-wave (km/s) = 5.80997 4.55345 5.21966
#
# Compressibility (1/GPa) = 0.04142057
#
# Stress axis : x y z
#
# Youngs Moduli (GPa) = 45.68886 104.03648 60.63595
#
# Poissons Ratio (x) = -0.15002 0.20381
# Poissons Ratio (y) = -0.06588 0.08283
# Poissons Ratio (z) = 0.15357 0.14212
#
# Static dielectric constant tensor:
#      x y z
#    x 1.743630 0.000000 0.000000 
#    y 0.000000 1.752370 0.000000 
#    z 0.000000 0.000000 1.662790 
# 
# From -- ./inp_files/4321.got.cif
#   From: 2010.05.17/outbox.cif.g08.bks.cpg/sg72_3_cif.got.tgz:4321.got - 2010.06.03 17:03:01.
