data_PCOD9525894
_publ_section_title
;
Structure prediction by ZEFSAII (Michael W. Deem and Ramdas Pophale) SiO2 
 PCOD9525894
Probable space group: I B A M
;
_chemical_formula_sum "Si O2"
_cell_formula_units_Z 112
_cell_length_a 5.248376
_cell_length_b 33.430395
_cell_length_c 30.577567
_cell_angle_alpha 90.000000
_cell_angle_beta 90.000000
_cell_angle_gamma 90.000000
_cell_volume 5364.995665
_symmetry_space_group_name_H-M "I B A M"
_symmetry_group_IT_number 72
_symmetry_cell_setting 'orthorhombic'
loop_
_space_group_symop_operation_xyz
x,y,z
-x,-y,z
x,-y,1/2-z
-x,y,1/2-z
-x,-y,-z
x,y,-z
-x,y,1/2+z
x,-y,1/2+z
1/2+x,1/2+y,1/2+z
1/2-x,1/2-y,1/2+z
1/2+x,1/2-y,-z
1/2-x,1/2+y,-z
1/2-x,1/2-y,1/2-z
1/2+x,1/2+y,1/2-z
1/2-x,1/2+y,z
1/2+x,1/2-y,z
loop_
_atom_site_type_symbol
_atom_site_label
_atom_site_fract_x
_atom_site_fract_y
_atom_site_fract_z
Si Si1 0.005547 0.099828 0.450934
Si Si2 0.736688 0.846069 0.276651
Si Si3 0.520938 0.909863 0.164668
Si Si4 0.567632 0.237172 0.573950
Si Si5 0.107063 0.229187 0.671923
Si Si6 0.984127 0.643319 0.579831
Si Si7 0.983872 0.047520 0.864804
O O1 0.034838 0.083767 0.500000
O O2 0.751783 0.126437 0.447792
O O3 0.249926 0.126937 0.438931
O O4 0.981384 0.066054 0.413459
O O5 0.500000 0.826804 0.250000
O O6 0.602813 0.885960 0.295163
O O7 0.821015 0.815627 0.315080
O O8 0.000000 0.853262 0.250000
O O9 0.550764 0.875933 0.127577
O O10 0.298561 0.939816 0.149800
O O11 0.793579 0.932260 0.165215
O O12 0.329463 0.255616 0.550213
O O13 0.592518 0.262206 0.619842
O O14 0.527757 0.190729 0.582657
O O15 0.331834 0.257807 0.689263
O O16 0.000000 0.000000 0.864707
#
# Coordination Sequence:
#
# PCOD9525894 Si02
#       7
#    16  16  16  16  16  16  16
#     4  10  21  37  60  90 123 155 187 232 292 354
#     4  12  25  39  58  85 120 159 199 251 309 359
#     4  10  21  39  60  85 119 155 197 238 283 354
#     4  10  19  32  54  79 105 143 199 249 283 324
#     4  10  21  35  52  78 114 151 194 243 298 348
#     4  10  20  36  59  83 113 160 204 237 279 345
#     4  10  21  38  65  95 119 149 188 235 291 351
#
# _framework density 20.876066999999999
#
# number of rings (size 3 to 8) (size 9 to 14) (size 15 to 20)
#    0.000    1.714    0.000    5.143    0.000    8.857 
#    0.000    0.000    0.000   20.143    0.000    0.000 
#    0.000    0.000    0.000    0.000    0.000    0.000 
#
# Total GULP energy -312646.955171 kJ/mol
# GULP energy per Si atom -5582.981342 kJ/mol
# Density = 2.082855 g / cm^3
# Si number density = 20.876067 Si / 1000 Ang^3
#
#
#
# Elastic Constant Matrix: (Units=GPa)
#
#
# Indices 1 2 3 4 5 6 
#
# 1 156.5989 27.1228 15.3106 0.0000 0.0000 0.0000
# 2 27.1228 106.1521 22.9267 0.0000 0.0000 0.0000
# 3 15.3106 22.9267 68.8757 0.0000 0.0000 0.0000
# 4 0.0000 0.0000 0.0000 8.4892 0.0000 0.0000
# 5 0.0000 0.0000 0.0000 0.0000 -0.3258 0.0000
# 6 0.0000 0.0000 0.0000 0.0000 0.0000 15.8785
#
#
#
# Elastic Compliance Matrix: (Units=1/GPa)
#
#
# Indices 1 2 3 4 5 6 
#
# 1 0.006744 -0.001508 -0.000997 0.000000 0.000000 0.000000
# 2 -0.001508 0.010487 -0.003156 0.000000 0.000000 0.000000
# 3 -0.000997 -0.003156 0.015791 0.000000 0.000000 0.000000
# 4 0.000000 0.000000 0.000000 0.117797 0.000000 0.000000
# 5 0.000000 0.000000 0.000000 0.000000 -3.069493 0.000000
# 6 0.000000 0.000000 0.000000 0.000000 0.000000 0.062978
#
#
# Mechanical properties :
#
#
# Convention : Reuss Voigt Hill
#
# Bulk Modulus (GPa) = 46.08091 51.37187 48.72639
# Shear Modulus (GPa) = -1.76234 22.55950 10.39858
#
# Velocity S-wave (km/s) = -0.91980 3.29087 2.23426
# Velocity P-wave (km/s) = 4.58186 6.25310 5.48155
#
# Compressibility (1/GPa) = 0.02170096
#
# Stress axis : x y z
#
# Youngs Moduli (GPa) = 148.27101 95.35363 63.32704
#
# Poissons Ratio (x) = 0.14378 0.06316
# Poissons Ratio (y) = 0.22357 0.19984
# Poissons Ratio (z) = 0.14787 0.30091
#
# Static dielectric constant tensor:
#      x y z
#    x 1.816640 0.000000 0.000000 
#    y 0.000000 1.703480 0.000000 
#    z 0.000000 0.000000 3.043930 
# 
# From -- ./inp_files/50455.got.cif
#   From: 2010.05.17/outbox.cif.g08.bks.cpg/sg72_26_cif.got.tgz:50455.got - 2010.06.03 17:03:01.
