data_PCOD9525322
_publ_section_title
;
Structure prediction by ZEFSAII (Michael W. Deem and Ramdas Pophale) SiO2 
 PCOD9525322
Probable space group: I B A M
;
_chemical_formula_sum "Si O2"
_cell_formula_units_Z 96
_cell_length_a 25.296956
_cell_length_b 11.144489
_cell_length_c 17.351110
_cell_angle_alpha 90.000000
_cell_angle_beta 90.000000
_cell_angle_gamma 90.000000
_cell_volume 4891.653524
_symmetry_space_group_name_H-M "I B A M"
_symmetry_group_IT_number 72
_symmetry_cell_setting 'orthorhombic'
loop_
_space_group_symop_operation_xyz
x,y,z
-x,-y,z
x,-y,1/2-z
-x,y,1/2-z
-x,-y,-z
x,y,-z
-x,y,1/2+z
x,-y,1/2+z
1/2+x,1/2+y,1/2+z
1/2-x,1/2-y,1/2+z
1/2+x,1/2-y,-z
1/2-x,1/2+y,-z
1/2-x,1/2-y,1/2-z
1/2+x,1/2+y,1/2-z
1/2-x,1/2+y,z
1/2+x,1/2-y,z
loop_
_atom_site_type_symbol
_atom_site_label
_atom_site_fract_x
_atom_site_fract_y
_atom_site_fract_z
Si Si1 0.901862 0.527534 0.157376
Si Si2 0.781452 0.392301 0.341543
Si Si3 0.453450 0.733804 0.909485
Si Si4 0.234133 0.133437 0.825213
Si Si5 0.887590 0.125047 0.714528
Si Si6 0.044029 0.300378 0.314869
O O1 0.904555 0.500000 0.250000
O O2 0.841518 0.567696 0.141910
O O3 0.935519 0.633002 0.118274
O O4 0.928636 0.402288 0.133233
O O5 0.764015 0.259928 0.370564
O O6 0.746122 0.506478 0.365843
O O7 0.773595 0.371558 0.248699
O O8 0.411704 0.645948 0.869528
O O9 0.510011 0.714398 0.869577
O O10 0.454560 0.725144 0.000000
O O11 0.175227 0.129865 0.791013
O O12 0.911325 0.230010 0.767586
O O13 0.904652 0.000000 0.750000
O O14 0.000000 0.341570 0.250000
#
# Coordination Sequence:
#
# PCOD9525322 Si02
#       6
#    16  16  16  16  16  16
#     4  12  18  34  60  93 123 157 199 258 305 364
#     4  10  19  28  53  91 127 149 197 262 308 355
#     4  11  25  41  60  88 129 166 200 254 329 379
#     4  10  18  30  51  91 126 153 198 265 309 350
#     4  11  21  38  61  91 119 164 214 260 302 366
#     4  10  22  34  57  87 119 157 212 258 302 354
#
# _framework density 19.625266
#
# number of rings (size 3 to 8) (size 9 to 14) (size 15 to 20)
#    0.000    1.333    8.333    0.500    2.333    4.333 
#    0.000    1.667    0.000    1.000    0.000    0.000 
#    0.000    0.000    0.000    0.000    0.000    0.000 
#
# Total GULP energy -267224.259263 kJ/mol
# GULP energy per Si atom -5567.172068 kJ/mol
# Density = 1.958060 g / cm^3
# Si number density = 19.625266 Si / 1000 Ang^3
#
#
#
# Elastic Constant Matrix: (Units=GPa)
#
#
# Indices 1 2 3 4 5 6 
#
# 1 90.1391 17.5009 16.1849 0.0000 0.0000 0.0000
# 2 17.5009 127.5197 7.3325 0.0000 0.0000 0.0000
# 3 16.1849 7.3325 70.6943 0.0000 0.0000 0.0000
# 4 0.0000 0.0000 0.0000 10.7097 0.0000 0.0000
# 5 0.0000 0.0000 0.0000 0.0000 3.5190 0.0000
# 6 0.0000 0.0000 0.0000 0.0000 0.0000 17.6702
#
#
#
# Elastic Compliance Matrix: (Units=1/GPa)
#
#
# Indices 1 2 3 4 5 6 
#
# 1 0.011840 -0.001478 -0.002557 0.000000 0.000000 0.000000
# 2 -0.001478 0.008073 -0.000499 0.000000 0.000000 0.000000
# 3 -0.002557 -0.000499 0.014783 0.000000 0.000000 0.000000
# 4 0.000000 0.000000 0.000000 0.093374 0.000000 0.000000
# 5 0.000000 0.000000 0.000000 0.000000 0.284176 0.000000
# 6 0.000000 0.000000 0.000000 0.000000 0.000000 0.056592
#
#
# Mechanical properties :
#
#
# Convention : Reuss Voigt Hill
#
# Bulk Modulus (GPa) = 39.02051 41.15441 40.08746
# Shear Modulus (GPa) = 10.27857 22.86875 16.57366
#
# Velocity S-wave (km/s) = 2.29102 3.41731 2.90919
# Velocity P-wave (km/s) = 5.18887 6.04866 5.63519
#
# Compressibility (1/GPa) = 0.02562755
#
# Stress axis : x y z
#
# Youngs Moduli (GPa) = 84.45879 123.86280 67.64672
#
# Poissons Ratio (x) = 0.18306 0.17300
# Poissons Ratio (y) = 0.12482 0.03376
# Poissons Ratio (z) = 0.21600 0.06181
#
# Static dielectric constant tensor:
#      x y z
#    x 1.706620 0.000000 0.000000 
#    y 0.000000 1.823500 0.000000 
#    z 0.000000 0.000000 1.698730 
# 
# From -- ./inp_files/33246.got.cif
#   From: 2010.05.17/outbox.cif.g08.bks.cpg/sg72_17_cif.got.tgz:33246.got - 2010.06.03 17:03:01.
