data_PCOD9525566
_publ_section_title
;
Structure prediction by ZEFSAII (Michael W. Deem and Ramdas Pophale) SiO2 
 PCOD9525566
Probable space group: I B A M
;
_chemical_formula_sum "Si O2"
_cell_formula_units_Z 72
_cell_length_a 25.890478
_cell_length_b 11.527740
_cell_length_c 13.517064
_cell_angle_alpha 90.000000
_cell_angle_beta 90.000000
_cell_angle_gamma 90.000000
_cell_volume 4034.285334
_symmetry_space_group_name_H-M "I B A M"
_symmetry_group_IT_number 72
_symmetry_cell_setting 'orthorhombic'
loop_
_space_group_symop_operation_xyz
x,y,z
-x,-y,z
x,-y,1/2-z
-x,y,1/2-z
-x,-y,-z
x,y,-z
-x,y,1/2+z
x,-y,1/2+z
1/2+x,1/2+y,1/2+z
1/2-x,1/2-y,1/2+z
1/2+x,1/2-y,-z
1/2-x,1/2+y,-z
1/2-x,1/2-y,1/2-z
1/2+x,1/2+y,1/2-z
1/2-x,1/2+y,z
1/2+x,1/2-y,z
loop_
_atom_site_type_symbol
_atom_site_label
_atom_site_fract_x
_atom_site_fract_y
_atom_site_fract_z
Si Si1 0.015190 0.634341 0.888421
Si Si2 0.585198 0.201176 0.205083
Si Si3 0.822495 0.136809 0.734967
Si Si4 0.221721 0.319738 0.617349
Si Si5 0.341048 0.000000 0.250000
O O1 0.056902 0.677663 0.810013
O O2 0.000000 0.500000 0.868612
O O3 0.961576 0.702391 0.871881
O O4 0.034141 0.643627 0.000000
O O5 0.621509 0.312382 0.209096
O O6 0.622857 0.090810 0.191718
O O7 0.802308 0.204204 0.832980
O O8 0.781351 0.171928 0.650432
O O9 0.822555 0.000000 0.750000
O O10 0.215306 0.323635 0.500000
O O11 0.193149 0.425462 0.674130
#
# Coordination Sequence:
#
# PCOD9525566 Si02
#       5
#    16  16  16  16   8
#     4  10  19  34  57  87 115 147 194 247 301 356
#     4  10  19  35  58  82 120 149 186 249 300 347
#     4  10  22  41  57  83 120 161 205 241 290 358
#     4  10  22  39  61  85 119 160 201 249 293 347
#     4  10  18  35  58  92 120 147 198 242 298 360
#
# _framework density 17.847026
#
# number of rings (size 3 to 8) (size 9 to 14) (size 15 to 20)
#    0.000    2.000    3.333    0.667    0.000    6.222 
#    0.000    2.222    0.000    1.333    0.000    0.000 
#    0.000    0.000    0.000    0.000    0.000    0.000 
#
# Total GULP energy -200905.319985 kJ/mol
# GULP energy per Si atom -5580.703333 kJ/mol
# Density = 1.780641 g / cm^3
# Si number density = 17.847026 Si / 1000 Ang^3
#
#
#
# Elastic Constant Matrix: (Units=GPa)
#
#
# Indices 1 2 3 4 5 6 
#
# 1 100.0958 43.1624 19.8225 0.0000 0.0000 0.0000
# 2 43.1624 118.4387 36.3288 0.0000 0.0000 0.0000
# 3 19.8225 36.3288 99.6686 0.0000 0.0000 0.0000
# 4 0.0000 0.0000 0.0000 11.5265 0.0000 0.0000
# 5 0.0000 0.0000 0.0000 0.0000 3.1275 0.0000
# 6 0.0000 0.0000 0.0000 0.0000 0.0000 17.6025
#
#
#
# Elastic Compliance Matrix: (Units=1/GPa)
#
#
# Indices 1 2 3 4 5 6 
#
# 1 0.011922 -0.004073 -0.000887 0.000000 0.000000 0.000000
# 2 -0.004073 0.010897 -0.003162 0.000000 0.000000 0.000000
# 3 -0.000887 -0.003162 0.011362 0.000000 0.000000 0.000000
# 4 0.000000 0.000000 0.000000 0.086756 0.000000 0.000000
# 5 0.000000 0.000000 0.000000 0.000000 0.319743 0.000000
# 6 0.000000 0.000000 0.000000 0.000000 0.000000 0.056810
#
#
# Mechanical properties :
#
#
# Convention : Reuss Voigt Hill
#
# Bulk Modulus (GPa) = 55.74515 57.42559 56.58537
# Shear Modulus (GPa) = 9.62068 21.04393 15.33230
#
# Velocity S-wave (km/s) = 2.32429 3.43757 2.93421
# Velocity P-wave (km/s) = 6.20531 6.92837 6.57678
#
# Compressibility (1/GPa) = 0.01793878
#
# Stress axis : x y z
#
# Youngs Moduli (GPa) = 83.87662 91.76562 88.01172
#
# Poissons Ratio (x) = 0.37375 0.07803
# Poissons Ratio (y) = 0.34162 0.27829
# Poissons Ratio (z) = 0.07437 0.29016
#
# Static dielectric constant tensor:
#      x y z
#    x 1.631050 0.000000 0.000000 
#    y 0.000000 1.605290 0.000000 
#    z 0.000000 0.000000 1.590440 
# 
# From -- ./inp_files/24854.got.cif
#   From: 2010.05.17/outbox.cif.g08.bks.cpg/sg72_13_cif.got.tgz:24854.got - 2010.06.03 17:03:01.
