data_PCOD9525893
_publ_section_title
;
Structure prediction by ZEFSAII (Michael W. Deem and Ramdas Pophale) SiO2 
 PCOD9525893
Probable space group: I B A M
;
_chemical_formula_sum "Si O2"
_cell_formula_units_Z 80
_cell_length_a 14.055176
_cell_length_b 18.548423
_cell_length_c 15.380578
_cell_angle_alpha 90.000000
_cell_angle_beta 90.000000
_cell_angle_gamma 90.000000
_cell_volume 4009.737445
_symmetry_space_group_name_H-M "I B A M"
_symmetry_group_IT_number 72
_symmetry_cell_setting 'orthorhombic'
loop_
_space_group_symop_operation_xyz
x,y,z
-x,-y,z
x,-y,1/2-z
-x,y,1/2-z
-x,-y,-z
x,y,-z
-x,y,1/2+z
x,-y,1/2+z
1/2+x,1/2+y,1/2+z
1/2-x,1/2-y,1/2+z
1/2+x,1/2-y,-z
1/2-x,1/2+y,-z
1/2-x,1/2-y,1/2-z
1/2+x,1/2+y,1/2-z
1/2-x,1/2+y,z
1/2+x,1/2-y,z
loop_
_atom_site_type_symbol
_atom_site_label
_atom_site_fract_x
_atom_site_fract_y
_atom_site_fract_z
Si Si1 0.093722 0.338421 0.394360
Si Si2 0.906382 0.961983 0.397077
Si Si3 0.382760 0.131747 0.601642
Si Si4 0.204444 0.517400 0.851156
Si Si5 0.818138 0.186554 0.106865
O O1 0.091912 0.338732 0.500000
O O2 0.157862 0.405725 0.366942
O O3 0.137772 0.262303 0.366511
O O4 0.985845 0.349734 0.361437
O O5 0.922736 0.952216 0.500000
O O6 0.879381 0.882537 0.362838
O O7 0.811593 0.009725 0.386232
O O8 0.000000 0.000000 0.359975
O O9 0.386989 0.150931 0.500000
O O10 0.290111 0.172914 0.637661
O O11 0.358692 0.046888 0.607920
O O12 0.207927 0.500000 0.750000
O O13 0.816669 0.184673 0.000000
#
# Coordination Sequence:
#
# PCOD9525893 Si02
#       5
#    16  16  16  16  16
#     4  10  19  32  54  79 102 134 175 216 260 308
#     4   9  18  35  58  79 103 136 172 211 257 311
#     4   9  18  34  53  73 102 134 167 214 262 303
#     4  11  22  34  50  74 105 139 174 212 253 306
#     4   8  16  31  51  79 106 126 163 220 268 305
#
# _framework density 19.951432
#
# number of rings (size 3 to 8) (size 9 to 14) (size 15 to 20)
#    0.000    2.600    0.000    3.600    0.000    5.200 
#    0.000   10.000    0.000    4.800    0.000    0.000 
#    0.000    0.000    0.000    0.000    0.000    0.000 
#
# Total GULP energy -223171.236604 kJ/mol
# GULP energy per Si atom -5579.280915 kJ/mol
# Density = 1.990602 g / cm^3
# Si number density = 19.951432 Si / 1000 Ang^3
#
#
#
# Elastic Constant Matrix: (Units=GPa)
#
#
# Indices 1 2 3 4 5 6 
#
# 1 2.8589 119.9297 -74.9180 -0.0001 0.0001 0.0000
# 2 119.9297 166.8650 -15.7576 0.0001 0.0000 0.0000
# 3 -74.9180 -15.7576 -7.8133 0.0001 0.0000 0.0000
# 4 -0.0001 0.0001 0.0001 -4.8349 0.0000 0.0000
# 5 0.0001 0.0000 0.0000 0.0000 16.1099 0.0000
# 6 0.0000 0.0000 0.0000 0.0000 0.0000 19.9832
#
#
#
# Elastic Compliance Matrix: (Units=1/GPa)
#
#
# Indices 1 2 3 4 5 6 
#
# 1 0.002845 -0.003882 -0.019454 0.000000 0.000000 0.000000
# 2 -0.003882 0.010331 0.016390 0.000000 0.000000 0.000000
# 3 -0.019454 0.016390 0.025494 0.000001 0.000000 0.000000
# 4 0.000000 0.000000 0.000001 -0.206828 0.000000 0.000000
# 5 0.000000 0.000000 0.000000 0.000000 0.062074 0.000000
# 6 0.000000 0.000000 0.000000 0.000000 0.000000 0.050042
#
#
# Mechanical properties :
#
#
# Convention : Reuss Voigt Hill
#
# Bulk Modulus (GPa) = 40.35981 24.49096 32.42539
# Shear Modulus (GPa) = -147.53584 15.09542 -66.22021
#
# Velocity S-wave (km/s) = -8.60860 2.75364 -5.76739
# Velocity P-wave (km/s) = 8.86215 4.73413 5.29744
#
# Compressibility (1/GPa) = 0.02477712
#
# Stress axis : x y z
#
# Youngs Moduli (GPa) = 351.44065 96.79790 39.22467
#
# Poissons Ratio (x) = 0.37579 0.76308
# Poissons Ratio (y) = 1.36436 -0.64287
# Poissons Ratio (z) = 6.83692 -1.58647
#
# Static dielectric constant tensor:
#      x y z
#    x 1.717570 0.000000 0.000000 
#    y 0.000000 1.671010 0.000000 
#    z 0.000000 0.000000 1.726410 
# 
# From -- ./inp_files/30435.got.cif
#   From: 2010.05.17/outbox.cif.g08.bks.cpg/sg72_16_cif.got.tgz:30435.got - 2010.06.03 17:03:01.
