data_PCOD9525001
_publ_section_title
;
Structure prediction by ZEFSAII (Michael W. Deem and Ramdas Pophale) SiO2 
 PCOD9525001
Probable space group: I B A M
;
_chemical_formula_sum "Si O2"
_cell_formula_units_Z 64
_cell_length_a 8.028120
_cell_length_b 19.411705
_cell_length_c 15.240266
_cell_angle_alpha 90.000000
_cell_angle_beta 90.000000
_cell_angle_gamma 90.000000
_cell_volume 2375.035390
_symmetry_space_group_name_H-M "I B A M"
_symmetry_group_IT_number 72
_symmetry_cell_setting 'orthorhombic'
loop_
_space_group_symop_operation_xyz
x,y,z
-x,-y,z
x,-y,1/2-z
-x,y,1/2-z
-x,-y,-z
x,y,-z
-x,y,1/2+z
x,-y,1/2+z
1/2+x,1/2+y,1/2+z
1/2-x,1/2-y,1/2+z
1/2+x,1/2-y,-z
1/2-x,1/2+y,-z
1/2-x,1/2-y,1/2-z
1/2+x,1/2+y,1/2-z
1/2-x,1/2+y,z
1/2+x,1/2-y,z
loop_
_atom_site_type_symbol
_atom_site_label
_atom_site_fract_x
_atom_site_fract_y
_atom_site_fract_z
Si Si1 0.729736 0.012258 0.100805
Si Si2 0.544084 0.605448 0.648801
Si Si3 0.365409 0.732944 0.397211
Si Si4 0.444530 0.857249 0.891558
O O1 0.588868 0.064425 0.136572
O O2 0.896051 0.060627 0.103872
O O3 0.790191 0.940449 0.140885
O O4 0.691851 0.996592 0.000000
O O5 0.500000 0.609424 0.750000
O O6 0.526051 0.682028 0.610887
O O7 0.332797 0.741619 0.500000
O O8 0.406181 0.808256 0.360876
O O9 0.215356 0.687531 0.361201
O O10 0.445436 0.859084 0.000000
#
# Coordination Sequence:
#
# PCOD9525001 Si02
#       4
#    16  16  16  16
#     4   9  15  26  42  62  85 115 150 190 227 262
#     4  10  17  25  41  65  90 113 145 190 231 266
#     4   9  16  29  45  65  90 122 153 186 226 271
#     4   8  15  26  45  66  89 118 153 188 225 265
#
# _framework density 26.946964999999999
#
# number of rings (size 3 to 8) (size 9 to 14) (size 15 to 20)
#    0.000    3.000    0.000    6.000    0.000    0.000 
#    0.000    5.000    0.000    1.500    0.000    8.750 
#    0.000   24.000    0.000    1.500    0.000    0.000 
#
# Total GULP energy -178876.530936 kJ/mol
# GULP energy per Si atom -5589.891592 kJ/mol
# Density = 2.688563 g / cm^3
# Si number density = 26.946965 Si / 1000 Ang^3
#
#
#
# Elastic Constant Matrix: (Units=GPa)
#
#
# Indices 1 2 3 4 5 6 
#
# 1 91.6860 43.8234 8.9601 0.0000 0.0000 0.0000
# 2 43.8234 231.5039 6.9785 0.0000 0.0000 0.0000
# 3 8.9601 6.9785 80.0741 0.0000 0.0000 0.0000
# 4 0.0000 0.0000 0.0000 -17.1764 0.0000 0.0000
# 5 0.0000 0.0000 0.0000 0.0000 8.9832 0.0000
# 6 0.0000 0.0000 0.0000 0.0000 0.0000 58.3093
#
#
#
# Elastic Compliance Matrix: (Units=1/GPa)
#
#
# Indices 1 2 3 4 5 6 
#
# 1 0.012098 -0.002255 -0.001157 0.000000 0.000000 0.000000
# 2 -0.002255 0.004751 -0.000162 0.000000 0.000000 0.000000
# 3 -0.001157 -0.000162 0.012632 0.000000 0.000000 0.000000
# 4 0.000000 0.000000 0.000000 -0.058219 0.000000 0.000000
# 5 0.000000 0.000000 0.000000 0.000000 0.111319 0.000000
# 6 0.000000 0.000000 0.000000 0.000000 0.000000 0.017150
#
#
# Mechanical properties :
#
#
# Convention : Reuss Voigt Hill
#
# Bulk Modulus (GPa) = 44.77690 58.08756 51.43223
# Shear Modulus (GPa) = 43.73561 32.92336 38.32949
#
# Velocity S-wave (km/s) = 4.03305 3.49919 3.77557
# Velocity P-wave (km/s) = 6.19194 6.15864 6.17531
#
# Compressibility (1/GPa) = 0.02233294
#
# Stress axis : x y z
#
# Youngs Moduli (GPa) = 82.65963 210.46578 79.16400
#
# Poissons Ratio (x) = 0.47465 0.09161
# Poissons Ratio (y) = 0.18642 0.01280
# Poissons Ratio (z) = 0.09565 0.03404
#
# Static dielectric constant tensor:
#      x y z
#    x 2.260860 0.000000 0.000000 
#    y 0.000000 2.100100 0.000000 
#    z 0.000000 0.000000 1.985930 
# 
# From -- ./inp_files/28960.got.cif
#   From: 2010.05.17/outbox.cif.g08.bks.cpg/sg72_15_cif.got.tgz:28960.got - 2010.06.03 17:03:01.
