data_PCOD9525066
_publ_section_title
;
Structure prediction by ZEFSAII (Michael W. Deem and Ramdas Pophale) SiO2 
 PCOD9525066
Probable space group: I B A M
;
_chemical_formula_sum "Si O2"
_cell_formula_units_Z 88
_cell_length_a 10.919928
_cell_length_b 17.367297
_cell_length_c 18.477217
_cell_angle_alpha 90.000000
_cell_angle_beta 90.000000
_cell_angle_gamma 90.000000
_cell_volume 3504.197419
_symmetry_space_group_name_H-M "I B A M"
_symmetry_group_IT_number 72
_symmetry_cell_setting 'orthorhombic'
loop_
_space_group_symop_operation_xyz
x,y,z
-x,-y,z
x,-y,1/2-z
-x,y,1/2-z
-x,-y,-z
x,y,-z
-x,y,1/2+z
x,-y,1/2+z
1/2+x,1/2+y,1/2+z
1/2-x,1/2-y,1/2+z
1/2+x,1/2-y,-z
1/2-x,1/2+y,-z
1/2-x,1/2-y,1/2-z
1/2+x,1/2+y,1/2-z
1/2-x,1/2+y,z
1/2+x,1/2-y,z
loop_
_atom_site_type_symbol
_atom_site_label
_atom_site_fract_x
_atom_site_fract_y
_atom_site_fract_z
Si Si1 0.158569 0.368651 0.247284
Si Si2 0.683158 0.993073 0.354511
Si Si3 0.950464 0.926160 0.360314
Si Si4 0.136521 0.773090 0.161874
Si Si5 0.092826 0.877613 0.500000
Si Si6 0.925971 0.737314 0.500000
Si Si7 0.128259 0.573307 0.000000
O O1 0.103168 0.429682 0.189622
O O2 0.215071 0.432775 0.303326
O O3 0.098825 0.306745 0.301188
O O4 0.244140 0.311315 0.199373
O O5 0.625782 0.023580 0.427818
O O6 0.808329 0.947194 0.373272
O O7 0.959678 0.841844 0.326924
O O8 0.031767 0.917937 0.431525
O O9 0.000000 0.000000 0.320542
O O10 0.143365 0.758993 0.075169
O O11 0.046863 0.790046 0.500000
O O12 0.236511 0.887777 0.500000
O O13 0.958172 0.647339 0.500000
#
# Coordination Sequence:
#
# PCOD9525066 Si02
#       7
#    16  16  16  16   8   8   8
#     4   9  18  33  45  71 110 157 191 244 294 354
#     4  10  19  29  50  75 110 154 197 240 300 373
#     4  10  17  29  48  77 110 159 183 241 315 366
#     4   9  18  32  50  67 108 157 201 240 292 364
#     4  10  20  32  51  78 123 157 193 264 310 361
#     4  10  20  33  54  78 101 160 212 247 307 378
#     4  12  19  32  56  81 111 160 208 255 305 376
#
# _framework density 25.112739000000001
#
# number of rings (size 3 to 8) (size 9 to 14) (size 15 to 20)
#    0.000    2.182    3.636    0.818    0.000    2.182 
#    0.000    7.273    0.000    0.000    0.000    0.000 
#    0.000   26.182   82.545    2.818    0.000    0.000 
#
# Total GULP energy -245528.269853 kJ/mol
# GULP energy per Si atom -5580.187951 kJ/mol
# Density = 2.505558 g / cm^3
# Si number density = 25.112739 Si / 1000 Ang^3
#
#
#
# Elastic Constant Matrix: (Units=GPa)
#
#
# Indices 1 2 3 4 5 6 
#
# 1 63.3951 27.5526 22.0776 0.0000 0.0000 0.0000
# 2 27.5526 246.3782 84.5128 0.0000 0.0000 0.0000
# 3 22.0776 84.5128 203.9459 0.0000 0.0000 0.0000
# 4 0.0000 0.0000 0.0000 18.0613 0.0000 0.0000
# 5 0.0000 0.0000 0.0000 0.0000 17.1687 0.0000
# 6 0.0000 0.0000 0.0000 0.0000 0.0000 34.4868
#
#
#
# Elastic Compliance Matrix: (Units=1/GPa)
#
#
# Indices 1 2 3 4 5 6 
#
# 1 0.016834 -0.001466 -0.001215 0.000000 0.000000 0.000000
# 2 -0.001466 0.004859 -0.001855 0.000000 0.000000 0.000000
# 3 -0.001215 -0.001855 0.005803 0.000000 0.000000 0.000000
# 4 0.000000 0.000000 0.000000 0.055367 0.000000 0.000000
# 5 0.000000 0.000000 0.000000 0.000000 0.058245 0.000000
# 6 0.000000 0.000000 0.000000 0.000000 0.000000 0.028997
#
#
# Mechanical properties :
#
#
# Convention : Reuss Voigt Hill
#
# Bulk Modulus (GPa) = 54.27270 86.88947 70.58109
# Shear Modulus (GPa) = 26.98055 39.24844 33.11450
#
# Velocity S-wave (km/s) = 3.28133 3.95763 3.63524
# Velocity P-wave (km/s) = 6.00122 7.45377 6.76658
#
# Compressibility (1/GPa) = 0.01842547
#
# Stress axis : x y z
#
# Youngs Moduli (GPa) = 59.40265 205.80501 172.31296
#
# Poissons Ratio (x) = 0.30168 0.20935
# Poissons Ratio (y) = 0.08707 0.31961
# Poissons Ratio (z) = 0.07217 0.38173
#
# Static dielectric constant tensor:
#      x y z
#    x 2.050820 0.000000 0.000000 
#    y 0.000000 1.996780 0.000000 
#    z 0.000000 0.000000 1.984970 
# 
# From -- ./inp_files/30568.got.cif
#   From: 2010.05.17/outbox.cif.g08.bks.cpg/sg72_16_cif.got.tgz:30568.got - 2010.06.03 17:03:01.
