data_PCOD9525654
_publ_section_title
;
Structure prediction by ZEFSAII (Michael W. Deem and Ramdas Pophale) SiO2 
 PCOD9525654
Probable space group: I B A M
;
_chemical_formula_sum "Si O2"
_cell_formula_units_Z 112
_cell_length_a 15.787863
_cell_length_b 28.045030
_cell_length_c 16.287077
_cell_angle_alpha 90.000000
_cell_angle_beta 90.000000
_cell_angle_gamma 90.000000
_cell_volume 7211.446860
_symmetry_space_group_name_H-M "I B A M"
_symmetry_group_IT_number 72
_symmetry_cell_setting 'orthorhombic'
loop_
_space_group_symop_operation_xyz
x,y,z
-x,-y,z
x,-y,1/2-z
-x,y,1/2-z
-x,-y,-z
x,y,-z
-x,y,1/2+z
x,-y,1/2+z
1/2+x,1/2+y,1/2+z
1/2-x,1/2-y,1/2+z
1/2+x,1/2-y,-z
1/2-x,1/2+y,-z
1/2-x,1/2-y,1/2-z
1/2+x,1/2+y,1/2-z
1/2-x,1/2+y,z
1/2+x,1/2-y,z
loop_
_atom_site_type_symbol
_atom_site_label
_atom_site_fract_x
_atom_site_fract_y
_atom_site_fract_z
Si Si1 0.476365 0.615760 0.344907
Si Si2 0.360789 0.301769 0.157438
Si Si3 0.594892 0.793993 0.749636
Si Si4 0.905544 0.977580 0.595052
Si Si5 0.307113 0.243496 0.593065
Si Si6 0.156229 0.077337 0.096909
Si Si7 0.739148 0.660680 0.685747
O O1 0.500000 0.623819 0.250000
O O2 0.430503 0.662764 0.378805
O O3 0.413060 0.570664 0.353684
O O4 0.563230 0.601022 0.389615
O O5 0.402332 0.254616 0.196597
O O6 0.282759 0.284145 0.102112
O O7 0.317260 0.330018 0.233300
O O8 0.500000 0.812710 0.750000
O O9 0.629425 0.779322 0.659650
O O10 0.664628 0.828802 0.788735
O O11 0.885123 0.966009 0.500000
O O12 0.848941 0.021962 0.623954
O O13 0.000000 0.000000 0.595296
O O14 0.337372 0.241837 0.500000
O O15 0.288937 0.297528 0.622712
O O16 0.220397 0.109833 0.147094
O O17 0.174093 0.077718 0.000000
#
# Coordination Sequence:
#
# PCOD9525654 Si02
#       7
#    16  16  16  16  16  16  16
#     4  11  18  27  45  66  94 125 167 187 227 276
#     4   9  18  30  44  65  91 121 153 189 229 282
#     4   9  18  32  50  64  92 122 152 195 248 283
#     4   8  17  30  39  57  90 125 154 191 226 252
#     4   9  18  31  47  65  90 119 155 199 239 275
#     4  10  19  30  44  62  91 128 163 194 228 269
#     4   9  17  32  45  63  86 121 155 190 236 284
#
# _framework density 15.530863999999999
#
# number of rings (size 3 to 8) (size 9 to 14) (size 15 to 20)
#    0.000    2.714    1.429    3.857    2.000    3.714 
#    0.000    3.571    0.000    0.000    0.000    0.000 
#    0.000    9.143    0.000   13.857    0.000    0.000 
#
# Total GULP energy -312032.539369 kJ/mol
# GULP energy per Si atom -5572.009632 kJ/mol
# Density = 1.549552 g / cm^3
# Si number density = 15.530864 Si / 1000 Ang^3
#
#
#
# Elastic Constant Matrix: (Units=GPa)
#
#
# Indices 1 2 3 4 5 6 
#
# 1 68.7930 31.6973 13.0637 0.0000 0.0000 0.0000
# 2 31.6973 62.0136 13.1121 0.0001 0.0000 0.0000
# 3 13.0637 13.1121 39.4285 0.0001 0.0000 0.0000
# 4 0.0000 0.0001 0.0001 12.2297 0.0000 0.0000
# 5 0.0000 0.0000 0.0000 0.0000 11.7550 0.0000
# 6 0.0000 0.0000 0.0000 0.0000 0.0000 25.7331
#
#
#
# Elastic Compliance Matrix: (Units=1/GPa)
#
#
# Indices 1 2 3 4 5 6 
#
# 1 0.019422 -0.009215 -0.003371 0.000000 0.000000 0.000000
# 2 -0.009215 0.021717 -0.004169 0.000000 0.000000 0.000000
# 3 -0.003371 -0.004169 0.027866 0.000000 0.000000 0.000000
# 4 0.000000 0.000000 0.000000 0.081768 0.000000 0.000000
# 5 0.000000 0.000000 0.000000 0.000000 0.085070 0.000000
# 6 0.000000 0.000000 0.000000 0.000000 0.000000 0.038860
#
#
# Mechanical properties :
#
#
# Convention : Reuss Voigt Hill
#
# Bulk Modulus (GPa) = 28.17222 31.77572 29.97397
# Shear Modulus (GPa) = 15.62282 17.43435 16.52858
#
# Velocity S-wave (km/s) = 3.17507 3.35410 3.26581
# Velocity P-wave (km/s) = 5.62319 5.95853 5.79329
#
# Compressibility (1/GPa) = 0.03549596
#
# Stress axis : x y z
#
# Youngs Moduli (GPa) = 51.48737 46.04703 35.88658
#
# Poissons Ratio (x) = 0.42431 0.12096
# Poissons Ratio (y) = 0.47444 0.14961
# Poissons Ratio (z) = 0.17355 0.19197
#
# Static dielectric constant tensor:
#      x y z
#    x 1.521740 0.000000 0.000000 
#    y 0.000000 1.527240 0.000000 
#    z 0.000000 0.000000 1.529030 
# 
# From -- ./inp_files/22439.got.cif
#   From: 2010.05.17/outbox.cif.g08.bks.cpg/sg72_12_cif.got.tgz:22439.got - 2010.06.03 17:03:01.
