data_PCOD9525795
_publ_section_title
;
Structure prediction by ZEFSAII (Michael W. Deem and Ramdas Pophale) SiO2 
 PCOD9525795
Probable space group: I B A M
;
_chemical_formula_sum "Si O2"
_cell_formula_units_Z 96
_cell_length_a 29.391916
_cell_length_b 26.996041
_cell_length_c 8.695677
_cell_angle_alpha 90.000000
_cell_angle_beta 90.000000
_cell_angle_gamma 90.000000
_cell_volume 6899.718563
_symmetry_space_group_name_H-M "I B A M"
_symmetry_group_IT_number 72
_symmetry_cell_setting 'orthorhombic'
loop_
_space_group_symop_operation_xyz
x,y,z
-x,-y,z
x,-y,1/2-z
-x,y,1/2-z
-x,-y,-z
x,y,-z
-x,y,1/2+z
x,-y,1/2+z
1/2+x,1/2+y,1/2+z
1/2-x,1/2-y,1/2+z
1/2+x,1/2-y,-z
1/2-x,1/2+y,-z
1/2-x,1/2-y,1/2-z
1/2+x,1/2+y,1/2-z
1/2-x,1/2+y,z
1/2+x,1/2-y,z
loop_
_atom_site_type_symbol
_atom_site_label
_atom_site_fract_x
_atom_site_fract_y
_atom_site_fract_z
Si Si1 0.196944 0.643413 0.816465
Si Si2 0.724623 0.298468 0.315457
Si Si3 0.048696 0.404005 0.315906
Si Si4 0.640752 0.947243 0.316667
Si Si5 0.547598 0.793057 0.317400
Si Si6 0.862186 0.257270 0.816318
O O1 0.247374 0.656285 0.755829
O O2 0.174325 0.596268 0.737565
O O3 0.165301 0.691611 0.782630
O O4 0.197410 0.637279 0.000000
O O5 0.728763 0.299126 0.500000
O O6 0.750000 0.250000 0.250000
O O7 0.671830 0.287938 0.277670
O O8 0.048347 0.405353 0.500000
O O9 0.090959 0.434550 0.251037
O O10 0.054654 0.347145 0.259798
O O11 0.000000 0.420979 0.250000
O O12 0.638328 0.948682 0.500000
O O13 0.655502 0.000000 0.250000
O O14 0.500000 0.773748 0.250000
O O15 0.544201 0.799550 0.500000
O O16 0.590604 0.759903 0.272376
O O17 0.870417 0.256648 0.000000
#
# Coordination Sequence:
#
# PCOD9525795 Si02
#       6
#    16  16  16  16  16  16
#     4  10  19  32  48  65  87 110 136 175 216 259
#     4   9  17  28  44  65  88 111 137 170 211 255
#     4  11  21  35  50  64  82 105 139 179 223 266
#     4  12  24  37  51  66  83 108 141 178 224 268
#     4  11  20  29  44  63  85 114 145 177 216 258
#     4   9  17  29  45  64  88 112 139 173 211 253
#
# _framework density 13.913611
#
# number of rings (size 3 to 8) (size 9 to 14) (size 15 to 20)
#    0.000    1.667    1.667    7.500    0.000    3.667 
#    0.000    1.667    0.000    0.000    0.000    0.000 
#    0.000    0.000    0.000    0.000    0.000    0.833 
#
# Total GULP energy -267859.831487 kJ/mol
# GULP energy per Si atom -5580.413156 kJ/mol
# Density = 1.388194 g / cm^3
# Si number density = 13.913611 Si / 1000 Ang^3
#
#
#
# Elastic Constant Matrix: (Units=GPa)
#
#
# Indices 1 2 3 4 5 6 
#
# 1 84.0674 44.3144 53.8580 0.0000 0.0000 0.0000
# 2 44.3144 51.8868 36.1791 0.0000 0.0000 0.0000
# 3 53.8580 36.1791 109.8480 0.0000 0.0000 0.0000
# 4 0.0000 0.0000 0.0000 17.4483 0.0000 0.0000
# 5 0.0000 0.0000 0.0000 0.0000 24.9652 0.0000
# 6 0.0000 0.0000 0.0000 0.0000 0.0000 14.3850
#
#
#
# Elastic Compliance Matrix: (Units=1/GPa)
#
#
# Indices 1 2 3 4 5 6 
#
# 1 0.025006 -0.016626 -0.006784 0.000000 0.000000 0.000000
# 2 -0.016626 0.036072 -0.003729 0.000000 0.000000 0.000000
# 3 -0.006784 -0.003729 0.013658 0.000000 0.000000 0.000000
# 4 0.000000 0.000000 0.000000 0.057312 0.000000 0.000000
# 5 0.000000 0.000000 0.000000 0.000000 0.040056 0.000000
# 6 0.000000 0.000000 0.000000 0.000000 0.000000 0.069517
#
#
# Mechanical properties :
#
#
# Convention : Reuss Voigt Hill
#
# Bulk Modulus (GPa) = 48.88173 57.16722 53.02448
# Shear Modulus (GPa) = 16.51704 18.78976 17.65340
#
# Velocity S-wave (km/s) = 3.44919 3.67885 3.56587
# Velocity P-wave (km/s) = 7.14641 7.69556 7.42606
#
# Compressibility (1/GPa) = 0.02045754
#
# Stress axis : x y z
#
# Youngs Moduli (GPa) = 39.99119 27.72216 73.21709
#
# Poissons Ratio (x) = 0.46090 0.49673
# Poissons Ratio (y) = 0.66488 0.27303
# Poissons Ratio (z) = 0.27131 0.10338
#
# Static dielectric constant tensor:
#      x y z
#    x 1.479720 0.000000 0.000000 
#    y 0.000000 1.432810 0.000000 
#    z 0.000000 0.000000 1.461790 
# 
# From -- ./inp_files/8460.got.cif
#   From: 2010.05.17/outbox.cif.g08.bks.cpg/sg72_5_cif.got.tgz:8460.got - 2010.06.03 17:03:01.
