data_PCOD9525216
_publ_section_title
;
Structure prediction by ZEFSAII (Michael W. Deem and Ramdas Pophale) SiO2 
 PCOD9525216
Probable space group: I B A M
;
_chemical_formula_sum "Si O2"
_cell_formula_units_Z 80
_cell_length_a 27.707620
_cell_length_b 19.306465
_cell_length_c 8.358752
_cell_angle_alpha 90.000000
_cell_angle_beta 90.000000
_cell_angle_gamma 90.000000
_cell_volume 4471.398996
_symmetry_space_group_name_H-M "I B A M"
_symmetry_group_IT_number 72
_symmetry_cell_setting 'orthorhombic'
loop_
_space_group_symop_operation_xyz
x,y,z
-x,-y,z
x,-y,1/2-z
-x,y,1/2-z
-x,-y,-z
x,y,-z
-x,y,1/2+z
x,-y,1/2+z
1/2+x,1/2+y,1/2+z
1/2-x,1/2-y,1/2+z
1/2+x,1/2-y,-z
1/2-x,1/2+y,-z
1/2-x,1/2-y,1/2-z
1/2+x,1/2+y,1/2-z
1/2-x,1/2+y,z
1/2+x,1/2-y,z
loop_
_atom_site_type_symbol
_atom_site_label
_atom_site_fract_x
_atom_site_fract_y
_atom_site_fract_z
Si Si1 0.653229 0.424042 0.192881
Si Si2 0.444885 0.073829 0.308339
Si Si3 0.100078 0.716771 0.304962
Si Si4 0.447350 0.641251 0.192597
Si Si5 0.200352 0.782712 0.692904
O O1 0.666911 0.500000 0.250000
O O2 0.598546 0.404461 0.246258
O O3 0.688257 0.361406 0.245879
O O4 0.652901 0.423388 0.000000
O O5 0.500000 0.078886 0.250000
O O6 0.444833 0.073643 0.500000
O O7 0.416834 0.141697 0.249521
O O8 0.425140 0.000000 0.250000
O O9 0.099444 0.716287 0.500000
O O10 0.064945 0.779773 0.255317
O O11 0.154032 0.737434 0.255392
O O12 0.500000 0.619379 0.250000
O O13 0.447396 0.640333 0.000000
O O14 0.200623 0.783229 0.500000
O O15 0.250000 0.750000 0.750000
#
# Coordination Sequence:
#
# PCOD9525216 Si02
#       5
#    16  16  16  16  16
#     4   9  19  34  51  71  99 129 158 192 234 281
#     4  10  18  29  45  66  93 126 157 190 231 277
#     4   8  16  31  49  66  91 124 156 191 235 280
#     4   9  17  30  47  69  95 126 160 193 227 271
#     4   9  18  35  55  74  94 121 157 198 241 285
#
# _framework density 17.891492
#
# number of rings (size 3 to 8) (size 9 to 14) (size 15 to 20)
#    0.000    3.000    0.000    4.200    0.000    2.000 
#    0.000    9.000    0.000    4.800    0.000    0.000 
#    0.000    0.000    0.000    0.000    0.000    0.000 
#
# Total GULP energy -222912.065658 kJ/mol
# GULP energy per Si atom -5572.801641 kJ/mol
# Density = 1.785077 g / cm^3
# Si number density = 17.891492 Si / 1000 Ang^3
#
#
#
# Elastic Constant Matrix: (Units=GPa)
#
#
# Indices 1 2 3 4 5 6 
#
# 1 101.7253 60.5527 11.4978 0.0000 0.0000 0.0000
# 2 60.5527 156.1351 17.7080 0.0000 0.0000 0.0000
# 3 11.4978 17.7080 14.1710 0.0000 0.0000 0.0000
# 4 0.0000 0.0000 0.0000 22.2654 0.0000 0.0000
# 5 0.0000 0.0000 0.0000 0.0000 26.2395 0.0000
# 6 0.0000 0.0000 0.0000 0.0000 0.0000 15.6604
#
#
#
# Elastic Compliance Matrix: (Units=1/GPa)
#
#
# Indices 1 2 3 4 5 6 
#
# 1 0.013076 -0.004506 -0.004978 0.000000 0.000000 0.000000
# 2 -0.004506 0.009015 -0.007609 0.000000 0.000000 0.000000
# 3 -0.004978 -0.007609 0.084114 0.000000 0.000000 0.000000
# 4 0.000000 0.000000 0.000000 0.044913 0.000000 0.000000
# 5 0.000000 0.000000 0.000000 0.000000 0.038110 0.000000
# 6 0.000000 0.000000 0.000000 0.000000 0.000000 0.063855
#
#
# Mechanical properties :
#
#
# Convention : Reuss Voigt Hill
#
# Bulk Modulus (GPa) = 13.88543 50.17204 32.02874
# Shear Modulus (GPa) = 16.06290 24.98459 20.52375
#
# Velocity S-wave (km/s) = 2.99957 3.74097 3.39060
# Velocity P-wave (km/s) = 4.44684 6.83835 5.76790
#
# Compressibility (1/GPa) = 0.07201791
#
# Stress axis : x y z
#
# Youngs Moduli (GPa) = 76.47883 110.92139 11.88864
#
# Poissons Ratio (x) = 0.49986 0.05918
# Poissons Ratio (y) = 0.34465 0.09046
# Poissons Ratio (z) = 0.38070 0.84403
#
# Static dielectric constant tensor:
#      x y z
#    x 1.593750 0.000000 0.000000 
#    y 0.000000 1.627840 0.000000 
#    z 0.000000 0.000000 1.627260 
# 
# From -- ./inp_files/4998.got.cif
#   From: 2010.05.17/outbox.cif.g08.bks.cpg/sg72_3_cif.got.tgz:4998.got - 2010.06.03 17:03:01.
