data_PCOD9525326
_publ_section_title
;
Structure prediction by ZEFSAII (Michael W. Deem and Ramdas Pophale) SiO2 
 PCOD9525326
Probable space group: I B A M
;
_chemical_formula_sum "Si O2"
_cell_formula_units_Z 96
_cell_length_a 14.310802
_cell_length_b 25.195066
_cell_length_c 14.735463
_cell_angle_alpha 90.000000
_cell_angle_beta 90.000000
_cell_angle_gamma 90.000000
_cell_volume 5313.042129
_symmetry_space_group_name_H-M "I B A M"
_symmetry_group_IT_number 72
_symmetry_cell_setting 'orthorhombic'
loop_
_space_group_symop_operation_xyz
x,y,z
-x,-y,z
x,-y,1/2-z
-x,y,1/2-z
-x,-y,-z
x,y,-z
-x,y,1/2+z
x,-y,1/2+z
1/2+x,1/2+y,1/2+z
1/2-x,1/2-y,1/2+z
1/2+x,1/2-y,-z
1/2-x,1/2+y,-z
1/2-x,1/2-y,1/2-z
1/2+x,1/2+y,1/2-z
1/2-x,1/2+y,z
1/2+x,1/2-y,z
loop_
_atom_site_type_symbol
_atom_site_label
_atom_site_fract_x
_atom_site_fract_y
_atom_site_fract_z
Si Si1 0.447578 0.276801 0.897622
Si Si2 0.132080 0.065232 0.000000
Si Si3 0.407014 0.441618 0.000000
Si Si4 0.083254 0.111161 0.312205
Si Si5 0.337735 0.244523 0.399572
Si Si6 0.223370 0.136605 0.845013
Si Si7 0.109618 0.315606 0.729552
O O1 0.456004 0.333492 0.850839
O O2 0.550786 0.253107 0.903292
O O3 0.391408 0.236932 0.833793
O O4 0.410763 0.281662 0.000000
O O5 0.182657 0.094181 0.083996
O O6 0.019304 0.072390 0.000000
O O7 0.131477 0.001602 0.000000
O O8 0.381278 0.419288 0.901096
O O9 0.167299 0.124604 0.246037
O O10 0.000000 0.086009 0.250000
O O11 0.305869 0.227456 0.500000
O O12 0.299691 0.303378 0.378100
O O13 0.330989 0.201946 0.318653
O O14 0.333596 0.138859 0.822905
O O15 0.000000 0.327592 0.750000
#
# Coordination Sequence:
#
# PCOD9525326 Si02
#       7
#    16   8   8  16  16  16  16
#     4  10  18  30  52  80 117 161 199 235 286 346
#     4  11  24  40  61  87 117 151 194 245 305 374
#     4  11  24  42  57  87 123 151 192 247 309 363
#     4  12  20  35  59  83 118 158 194 243 298 360
#     4  10  18  31  51  78 118 155 194 240 284 348
#     4  12  22  36  58  85 116 162 200 241 294 360
#     4  10  22  38  52  82 120 159 206 245 286 341
#
# _framework density 18.068743999999999
#
# number of rings (size 3 to 8) (size 9 to 14) (size 15 to 20)
#    0.000    1.167    6.667    1.000    1.167    0.667 
#    1.500    0.000    0.000    0.000    0.000    3.500 
#    0.000    0.000    0.000    0.000    0.000    0.000 
#
# Total GULP energy -267546.881742 kJ/mol
# GULP energy per Si atom -5573.893370 kJ/mol
# Density = 1.802762 g / cm^3
# Si number density = 18.068744 Si / 1000 Ang^3
#
#
#
# Elastic Constant Matrix: (Units=GPa)
#
#
# Indices 1 2 3 4 5 6 
#
# 1 66.8121 29.5286 28.7328 0.0000 0.0000 0.0000
# 2 29.5286 50.7089 27.6416 0.0004 -0.0002 -0.0001
# 3 28.7328 27.6416 127.6571 0.0004 -0.0001 -0.0001
# 4 0.0000 0.0004 0.0004 0.5166 -0.0002 -0.0001
# 5 0.0000 -0.0002 -0.0001 -0.0002 -0.9760 0.0001
# 6 0.0000 -0.0001 -0.0001 -0.0001 0.0001 15.3615
#
#
#
# Elastic Compliance Matrix: (Units=1/GPa)
#
#
# Indices 1 2 3 4 5 6 
#
# 1 0.020747 -0.010812 -0.002329 0.000009 0.000002 0.000000
# 2 -0.010812 0.027994 -0.003628 -0.000016 -0.000004 0.000000
# 3 -0.002329 -0.003628 0.009143 -0.000005 -0.000001 0.000000
# 4 0.000009 -0.000016 -0.000005 1.935812 -0.000386 0.000015
# 5 0.000002 -0.000004 -0.000001 -0.000386 -1.024621 0.000003
# 6 0.000000 0.000000 0.000000 0.000015 0.000003 0.065098
#
#
# Mechanical properties :
#
#
# Convention : Reuss Voigt Hill
#
# Bulk Modulus (GPa) = 41.07266 46.33158 43.70212
# Shear Modulus (GPa) = 4.64758 13.59876 9.12317
#
# Velocity S-wave (km/s) = 1.60554 2.74635 2.24947
# Velocity P-wave (km/s) = 5.12032 5.97947 5.56650
#
# Compressibility (1/GPa) = 0.02434710
#
# Stress axis : x y z
#
# Youngs Moduli (GPa) = 48.19881 35.72177 109.37125
#
# Poissons Ratio (x) = 0.38623 0.25468
# Poissons Ratio (y) = 0.52114 0.39680
# Poissons Ratio (z) = 0.11224 0.12960
#
# Static dielectric constant tensor:
#      x y z
#    x 1.658350 0.000000 0.000000 
#    y 0.000000 1.592840 0.000000 
#    z 0.000000 0.000000 1.718420 
# 
# From -- ./inp_files/21918.got.cif
#   From: 2010.05.17/outbox.cif.g08.bks.cpg/sg72_11_cif.got.tgz:21918.got - 2010.06.03 17:03:01.
