data_PCOD9525521
_publ_section_title
;
Structure prediction by ZEFSAII (Michael W. Deem and Ramdas Pophale) SiO2 
 PCOD9525521
Probable space group: I B A M
;
_chemical_formula_sum "Si O2"
_cell_formula_units_Z 72
_cell_length_a 9.814687
_cell_length_b 20.745408
_cell_length_c 14.667872
_cell_angle_alpha 90.000000
_cell_angle_beta 90.000000
_cell_angle_gamma 90.000000
_cell_volume 2986.520815
_symmetry_space_group_name_H-M "I B A M"
_symmetry_group_IT_number 72
_symmetry_cell_setting 'orthorhombic'
loop_
_space_group_symop_operation_xyz
x,y,z
-x,-y,z
x,-y,1/2-z
-x,y,1/2-z
-x,-y,-z
x,y,-z
-x,y,1/2+z
x,-y,1/2+z
1/2+x,1/2+y,1/2+z
1/2-x,1/2-y,1/2+z
1/2+x,1/2-y,-z
1/2-x,1/2+y,-z
1/2-x,1/2-y,1/2-z
1/2+x,1/2+y,1/2-z
1/2-x,1/2+y,z
1/2+x,1/2-y,z
loop_
_atom_site_type_symbol
_atom_site_label
_atom_site_fract_x
_atom_site_fract_y
_atom_site_fract_z
Si Si1 0.841421 0.501263 0.360392
Si Si2 0.500000 0.827786 0.750000
Si Si3 0.636405 0.249333 0.603284
Si Si4 0.210974 0.117731 0.300554
Si Si5 0.174311 0.124833 0.100103
O O1 0.840739 0.500000 0.250000
O O2 0.735012 0.441326 0.371337
O O3 0.782163 0.566183 0.402562
O O4 0.000000 0.500000 0.388549
O O5 0.480026 0.783530 0.662695
O O6 0.634101 0.868644 0.733834
O O7 0.594973 0.257328 0.500000
O O8 0.669329 0.317343 0.648191
O O9 0.757356 0.195858 0.605134
O O10 0.125564 0.111845 0.204992
O O11 0.102066 0.121724 0.000000
#
# Coordination Sequence:
#
# PCOD9525521 Si02
#       5
#    16   8  16  16  16
#     4   9  16  28  47  73 106 141 172 208 262 321
#     4  10  18  34  55  74 107 148 184 226 272 322
#     4  10  21  35  52  78 108 141 184 227 272 325
#     4  10  19  33  53  78 111 145 179 223 272 323
#     4   9  17  29  45  69 103 139 174 212 257 313
#
# _framework density 24.108321
#
# number of rings (size 3 to 8) (size 9 to 14) (size 15 to 20)
#    0.000    2.444    0.000    6.667    0.000    2.222 
#    0.000    3.333    0.000    0.000    0.000   19.444 
#    0.000   37.333    0.000    0.000    0.000    0.000 
#
# Total GULP energy -200529.395797 kJ/mol
# GULP energy per Si atom -5570.260994 kJ/mol
# Density = 2.405345 g / cm^3
# Si number density = 24.108321 Si / 1000 Ang^3
#
#
#
# Elastic Constant Matrix: (Units=GPa)
#
#
# Indices 1 2 3 4 5 6 
#
# 1 33.9043 13.8726 32.3962 0.0000 0.0000 0.0000
# 2 13.8726 150.1110 28.2164 0.0000 0.0000 0.0000
# 3 32.3962 28.2164 145.2039 0.0000 0.0000 0.0000
# 4 0.0000 0.0000 0.0000 21.4102 0.0000 0.0000
# 5 0.0000 0.0000 0.0000 0.0000 12.5701 0.0000
# 6 0.0000 0.0000 0.0000 0.0000 0.0000 44.9116
#
#
#
# Elastic Compliance Matrix: (Units=1/GPa)
#
#
# Indices 1 2 3 4 5 6 
#
# 1 0.038053 -0.001994 -0.008102 0.000000 0.000000 0.000000
# 2 -0.001994 0.007019 -0.000919 0.000000 0.000000 0.000000
# 3 -0.008102 -0.000919 0.008873 0.000000 0.000000 0.000000
# 4 0.000000 0.000000 0.000000 0.046707 0.000000 0.000000
# 5 0.000000 0.000000 0.000000 0.000000 0.079554 0.000000
# 6 0.000000 0.000000 0.000000 0.000000 0.000000 0.022266
#
#
# Mechanical properties :
#
#
# Convention : Reuss Voigt Hill
#
# Bulk Modulus (GPa) = 31.33407 53.13217 42.23312
# Shear Modulus (GPa) = 21.26397 32.76065 27.01231
#
# Velocity S-wave (km/s) = 2.97310 3.69032 3.35095
# Velocity P-wave (km/s) = 4.98108 6.34387 5.70333
#
# Compressibility (1/GPa) = 0.03191415
#
# Stress axis : x y z
#
# Youngs Moduli (GPa) = 26.27942 142.47566 112.69901
#
# Poissons Ratio (x) = 0.28405 0.91314
# Poissons Ratio (y) = 0.05239 0.10358
# Poissons Ratio (z) = 0.21293 0.13095
#
# Static dielectric constant tensor:
#      x y z
#    x 2.046090 0.000000 0.000000 
#    y 0.000000 2.050580 0.000000 
#    z 0.000000 0.000000 1.967920 
# 
# From -- ./inp_files/21451.got.cif
#   From: 2010.05.17/outbox.cif.g08.bks.cpg/sg72_11_cif.got.tgz:21451.got - 2010.06.03 17:03:01.
