data_PCOD9525021
_publ_section_title
;
Structure prediction by ZEFSAII (Michael W. Deem and Ramdas Pophale) SiO2 
 PCOD9525021
Probable space group: I B A M
;
_chemical_formula_sum "Si O2"
_cell_formula_units_Z 104
_cell_length_a 24.513787
_cell_length_b 10.367875
_cell_length_c 20.680210
_cell_angle_alpha 90.000000
_cell_angle_beta 90.000000
_cell_angle_gamma 90.000000
_cell_volume 5255.996959
_symmetry_space_group_name_H-M "I B A M"
_symmetry_group_IT_number 72
_symmetry_cell_setting 'orthorhombic'
loop_
_space_group_symop_operation_xyz
x,y,z
-x,-y,z
x,-y,1/2-z
-x,y,1/2-z
-x,-y,-z
x,y,-z
-x,y,1/2+z
x,-y,1/2+z
1/2+x,1/2+y,1/2+z
1/2-x,1/2-y,1/2+z
1/2+x,1/2-y,-z
1/2-x,1/2+y,-z
1/2-x,1/2-y,1/2-z
1/2+x,1/2+y,1/2-z
1/2-x,1/2+y,z
1/2+x,1/2-y,z
loop_
_atom_site_type_symbol
_atom_site_label
_atom_site_fract_x
_atom_site_fract_y
_atom_site_fract_z
Si Si1 0.201761 0.379797 0.673969
Si Si2 0.186921 0.259352 0.197838
Si Si3 0.732408 0.483715 0.429067
Si Si4 0.360985 0.734521 0.571836
Si Si5 0.935834 0.019481 0.117092
Si Si6 0.859516 0.797102 0.070050
Si Si7 0.129303 0.000000 0.750000
O O1 0.183844 0.369200 0.748344
O O2 0.251437 0.274597 0.677492
O O3 0.229894 0.495912 0.633524
O O4 0.152646 0.332819 0.628533
O O5 0.149883 0.283643 0.134823
O O6 0.165146 0.125028 0.230979
O O7 0.759981 0.473450 0.500000
O O8 0.689477 0.367508 0.424675
O O9 0.694040 0.610606 0.431407
O O10 0.360451 0.791489 0.500000
O O11 0.414805 0.648953 0.582242
O O12 0.908722 0.896939 0.081427
O O13 0.907936 0.026472 0.187747
O O14 0.000000 0.000000 0.120407
O O15 0.864438 0.733327 0.000000
#
# Coordination Sequence:
#
# PCOD9525021 Si02
#       7
#    16  16  16  16  16  16   8
#     4  10  17  27  42  64  81 112 153 186 217 263
#     4   9  18  27  43  61  79 110 150 185 222 263
#     4   8  15  27  41  58  83 115 147 179 215 255
#     4  10  19  30  44  64  92 123 153 187 222 262
#     4  10  18  27  42  61  84 116 156 190 219 260
#     4   8  15  27  40  54  76 106 138 179 217 249
#     4  10  17  32  44  60  90 118 150 193 226 264
#
# _framework density 19.786922000000001
#
# number of rings (size 3 to 8) (size 9 to 14) (size 15 to 20)
#    0.000    2.769    1.538    3.000    0.000    1.846 
#    0.000    0.000    0.000    0.000    0.000    0.000 
#    0.000    0.000    0.000   22.154   81.231  184.000 
#
# Total GULP energy -289952.507560 kJ/mol
# GULP energy per Si atom -5576.009761 kJ/mol
# Density = 1.974189 g / cm^3
# Si number density = 19.786922 Si / 1000 Ang^3
#
#
#
# Elastic Constant Matrix: (Units=GPa)
#
#
# Indices 1 2 3 4 5 6 
#
# 1 89.0931 20.2151 32.1913 0.0000 0.0000 0.0000
# 2 20.2151 40.7673 9.8759 0.0000 0.0000 0.0000
# 3 32.1913 9.8759 152.1155 0.0000 0.0000 0.0000
# 4 0.0000 0.0000 0.0000 8.3400 0.0000 0.0000
# 5 0.0000 0.0000 0.0000 0.0000 8.8686 0.0000
# 6 0.0000 0.0000 0.0000 0.0000 0.0000 12.7885
#
#
#
# Elastic Compliance Matrix: (Units=1/GPa)
#
#
# Indices 1 2 3 4 5 6 
#
# 1 0.013496 -0.006096 -0.002460 0.000000 0.000000 0.000000
# 2 -0.006096 0.027675 -0.000507 0.000000 0.000000 0.000000
# 3 -0.002460 -0.000507 0.007128 0.000000 0.000000 0.000000
# 4 0.000000 0.000000 0.000000 0.119905 0.000000 0.000000
# 5 0.000000 0.000000 0.000000 0.000000 0.112757 0.000000
# 6 0.000000 0.000000 0.000000 0.000000 0.000000 0.078195
#
#
# Mechanical properties :
#
#
# Convention : Reuss Voigt Hill
#
# Bulk Modulus (GPa) = 33.14294 45.17118 39.15706
# Shear Modulus (GPa) = 12.90854 20.64566 16.77710
#
# Velocity S-wave (km/s) = 2.55694 3.23367 2.91501
# Velocity P-wave (km/s) = 5.05010 6.06799 5.58230
#
# Compressibility (1/GPa) = 0.03017234
#
# Stress axis : x y z
#
# Youngs Moduli (GPa) = 74.09350 36.13344 140.30131
#
# Poissons Ratio (x) = 0.22028 0.34519
# Poissons Ratio (y) = 0.45170 0.07108
# Poissons Ratio (z) = 0.18230 0.01831
#
# Static dielectric constant tensor:
#      x y z
#    x 1.639700 0.000000 0.000000 
#    y 0.000000 1.739030 0.000000 
#    z 0.000000 0.000000 1.804420 
# 
# From -- ./inp_files/39851.got.cif
#   From: 2010.05.17/outbox.cif.g08.bks.cpg/sg72_20_cif.got.tgz:39851.got - 2010.06.03 17:03:01.
