data_PCOD9525312
_publ_section_title
;
Structure prediction by ZEFSAII (Michael W. Deem and Ramdas Pophale) SiO2 
 PCOD9525312
Probable space group: I B A M
;
_chemical_formula_sum "Si O2"
_cell_formula_units_Z 84
_cell_length_a 10.063759
_cell_length_b 14.007134
_cell_length_c 25.095066
_cell_angle_alpha 90.000000
_cell_angle_beta 90.000000
_cell_angle_gamma 90.000000
_cell_volume 3537.511445
_symmetry_space_group_name_H-M "I B A M"
_symmetry_group_IT_number 72
_symmetry_cell_setting 'orthorhombic'
loop_
_space_group_symop_operation_xyz
x,y,z
-x,-y,z
x,-y,1/2-z
-x,y,1/2-z
-x,-y,-z
x,y,-z
-x,y,1/2+z
x,-y,1/2+z
1/2+x,1/2+y,1/2+z
1/2-x,1/2-y,1/2+z
1/2+x,1/2-y,-z
1/2-x,1/2+y,-z
1/2-x,1/2-y,1/2-z
1/2+x,1/2+y,1/2-z
1/2-x,1/2+y,z
1/2+x,1/2-y,z
loop_
_atom_site_type_symbol
_atom_site_label
_atom_site_fract_x
_atom_site_fract_y
_atom_site_fract_z
Si Si1 0.304790 0.843274 0.104773
Si Si2 0.974793 0.648226 0.311970
Si Si3 0.500000 0.500000 0.250000
Si Si4 0.745265 0.867606 0.000000
Si Si5 0.554700 0.626684 0.160651
Si Si6 0.768198 0.885570 0.116621
Si Si7 0.552644 0.195062 0.000000
O O1 0.394005 0.873716 0.154385
O O2 0.160252 0.886165 0.113670
O O3 0.277957 0.729469 0.107862
O O4 0.390290 0.857040 0.052006
O O5 0.953202 0.762451 0.321648
O O6 0.849787 0.599047 0.341298
O O7 0.000000 0.628899 0.250000
O O8 0.587998 0.568575 0.213549
O O9 0.744363 0.922614 0.943539
O O10 0.607177 0.805900 0.000000
O O11 0.876584 0.799407 0.000000
O O12 0.411007 0.592633 0.141100
#
# Coordination Sequence:
#
# PCOD9525312 Si02
#       7
#    16  16   4   8  16  16   8
#     4   9  19  31  52  81 114 143 176 218 279 335
#     4  10  18  31  53  84 115 140 174 221 282 342
#     4  12  24  40  56  72 116 148 200 236 274 316
#     4  10  18  30  50  84 123 147 171 215 282 347
#     4  10  22  35  52  79 105 153 185 229 276 323
#     4   9  19  31  52  81 114 143 176 218 279 335
#     4  10  18  30  50  84 123 147 171 215 282 347
#
# _framework density 23.745508000000001
#
# number of rings (size 3 to 8) (size 9 to 14) (size 15 to 20)
#    0.000    2.286    2.857    0.000   10.667    2.286 
#    0.000    0.000    0.000    4.571    0.000    1.333 
#    0.000    0.000    0.000    0.000    0.000    0.000 
#
# Total GULP energy -234704.367878 kJ/mol
# GULP energy per Si atom -5588.199235 kJ/mol
# Density = 2.369146 g / cm^3
# Si number density = 23.745508 Si / 1000 Ang^3
#
#
#
# Elastic Constant Matrix: (Units=GPa)
#
#
# Indices 1 2 3 4 5 6 
#
# 1 77.3508 13.7916 21.1777 0.0000 0.0000 0.0000
# 2 13.7916 72.1719 8.3717 0.0000 0.0000 0.0000
# 3 21.1777 8.3717 172.5520 0.0000 0.0000 0.0000
# 4 0.0000 0.0000 0.0000 104.0213 0.0000 0.0000
# 5 0.0000 0.0000 0.0000 0.0000 35.3933 0.0000
# 6 0.0000 0.0000 0.0000 0.0000 0.0000 1.5443
#
#
#
# Elastic Compliance Matrix: (Units=1/GPa)
#
#
# Indices 1 2 3 4 5 6 
#
# 1 0.013797 -0.002454 -0.001574 0.000000 0.000000 0.000000
# 2 -0.002454 0.014371 -0.000396 0.000000 0.000000 0.000000
# 3 -0.001574 -0.000396 0.006008 0.000000 0.000000 0.000000
# 4 0.000000 0.000000 0.000000 0.009613 0.000000 0.000000
# 5 0.000000 0.000000 0.000000 0.000000 0.028254 0.000000
# 6 0.000000 0.000000 0.000000 0.000000 0.000000 0.647548
#
#
# Mechanical properties :
#
#
# Convention : Reuss Voigt Hill
#
# Bulk Modulus (GPa) = 39.48387 45.41742 42.45064
# Shear Modulus (GPa) = 6.78536 46.77402 26.77969
#
# Velocity S-wave (km/s) = 1.69226 4.44306 3.36189
# Velocity P-wave (km/s) = 4.52574 6.74458 5.74333
#
# Compressibility (1/GPa) = 0.02532680
#
# Stress axis : x y z
#
# Youngs Moduli (GPa) = 72.48138 69.58624 166.45086
#
# Poissons Ratio (x) = 0.17075 0.26203
# Poissons Ratio (y) = 0.17786 0.06592
# Poissons Ratio (z) = 0.11410 0.02756
#
# Static dielectric constant tensor:
#      x y z
#    x 1.849220 0.000000 0.000000 
#    y 0.000000 1.952340 0.000000 
#    z 0.000000 0.000000 1.934460 
# 
# From -- ./inp_files/47279.got.cif
#   From: 2010.05.17/outbox.cif.g08.bks.cpg/sg72_24_cif.got.tgz:47279.got - 2010.06.03 17:03:01.
