data_PCOD9525682
_publ_section_title
;
Structure prediction by ZEFSAII (Michael W. Deem and Ramdas Pophale) SiO2 
 PCOD9525682
Probable space group: I B A M
;
_chemical_formula_sum "Si O2"
_cell_formula_units_Z 72
_cell_length_a 31.569984
_cell_length_b 5.207610
_cell_length_c 24.675217
_cell_angle_alpha 90.000000
_cell_angle_beta 90.000000
_cell_angle_gamma 90.000000
_cell_volume 4056.708432
_symmetry_space_group_name_H-M "I B A M"
_symmetry_group_IT_number 72
_symmetry_cell_setting 'orthorhombic'
loop_
_space_group_symop_operation_xyz
x,y,z
-x,-y,z
x,-y,1/2-z
-x,y,1/2-z
-x,-y,-z
x,y,-z
-x,y,1/2+z
x,-y,1/2+z
1/2+x,1/2+y,1/2+z
1/2-x,1/2-y,1/2+z
1/2+x,1/2-y,-z
1/2-x,1/2+y,-z
1/2-x,1/2-y,1/2-z
1/2+x,1/2+y,1/2-z
1/2-x,1/2+y,z
1/2+x,1/2-y,z
loop_
_atom_site_type_symbol
_atom_site_label
_atom_site_fract_x
_atom_site_fract_y
_atom_site_fract_z
Si Si1 0.519251 0.742052 0.811192
Si Si2 0.844304 0.468241 0.349670
Si Si3 0.220564 0.500000 0.750000
Si Si4 0.114293 0.967395 0.188005
Si Si5 0.276772 0.832701 0.064785
O O1 0.500000 0.500000 0.841644
O O2 0.500000 0.745689 0.750000
O O3 0.568484 0.671385 0.806710
O O4 0.500000 0.000000 0.835778
O O5 0.809671 0.466409 0.301753
O O6 0.860491 0.760338 0.347572
O O7 0.819865 0.388977 0.403711
O O8 0.880278 0.253519 0.336259
O O9 0.250000 0.250000 0.750000
O O10 0.130354 0.000000 0.250000
O O11 0.256388 0.558796 0.079437
O O12 0.282832 0.840503 0.000000
#
# Coordination Sequence:
#
# PCOD9525682 Si02
#       5
#    16  16   8  16  16
#     4  10  19  30  50  69 100 147 179 214 240 308
#     4  12  23  35  52  76 112 141 180 223 277 328
#     4  12  22  32  46  68 103 144 177 206 256 326
#     4  12  21  35  49  78 112 151 173 211 275 321
#     4  10  21  40  62  79 100 139 191 242 281 315
#
# _framework density 17.748380999999998
#
# number of rings (size 3 to 8) (size 9 to 14) (size 15 to 20)
#    0.000    0.889    4.444    5.333    3.111    0.000 
#    0.000    0.000    0.000    0.000    0.000    0.000 
#    0.000   17.778    0.000    0.000    0.000    0.000 
#
# Total GULP energy -200627.393782 kJ/mol
# GULP energy per Si atom -5572.983161 kJ/mol
# Density = 1.770798 g / cm^3
# Si number density = 17.748381 Si / 1000 Ang^3
#
#
#
# Elastic Constant Matrix: (Units=GPa)
#
#
# Indices 1 2 3 4 5 6 
#
# 1 61.1382 12.4679 8.0064 0.0000 0.0000 0.0000
# 2 12.4679 133.2573 -1.1157 0.0000 0.0000 0.0000
# 3 8.0064 -1.1157 20.3959 0.0000 0.0000 0.0000
# 4 0.0000 0.0000 0.0000 11.5434 0.0000 0.0000
# 5 0.0000 0.0000 0.0000 0.0000 25.9133 0.0000
# 6 0.0000 0.0000 0.0000 0.0000 0.0000 37.6452
#
#
#
# Elastic Compliance Matrix: (Units=1/GPa)
#
#
# Indices 1 2 3 4 5 6 
#
# 1 0.017623 -0.001708 -0.007011 0.000000 0.000000 0.000000
# 2 -0.001708 0.007673 0.001090 0.000000 0.000000 0.000000
# 3 -0.007011 0.001090 0.051841 0.000000 0.000000 0.000000
# 4 0.000000 0.000000 0.000000 0.086630 0.000000 0.000000
# 5 0.000000 0.000000 0.000000 0.000000 0.038590 0.000000
# 6 0.000000 0.000000 0.000000 0.000000 0.000000 0.026564
#
#
# Mechanical properties :
#
#
# Convention : Reuss Voigt Hill
#
# Bulk Modulus (GPa) = 16.16036 28.16764 22.16400
# Shear Modulus (GPa) = 18.88178 28.04921 23.46550
#
# Velocity S-wave (km/s) = 3.26522 3.97971 3.64004
# Velocity P-wave (km/s) = 4.83121 6.08461 5.49377
#
# Compressibility (1/GPa) = 0.06187981
#
# Stress axis : x y z
#
# Youngs Moduli (GPa) = 56.74473 130.32427 19.28960
#
# Poissons Ratio (x) = 0.22253 0.13524
# Poissons Ratio (y) = 0.09689 -0.02103
# Poissons Ratio (z) = 0.39785 -0.14206
#
# Static dielectric constant tensor:
#      x y z
#    x 1.700870 0.000000 0.000000 
#    y 0.000000 1.396170 0.000000 
#    z 0.000000 0.000000 1.538090 
# 
# From -- ./inp_files/41467.got.cif
#   From: 2010.05.17/outbox.cif.g08.bks.cpg/sg72_21_cif.got.tgz:41467.got - 2010.06.03 17:03:01.
