data_PCOD9525971
_publ_section_title
;
Structure prediction by ZEFSAII (Michael W. Deem and Ramdas Pophale) SiO2 
 PCOD9525971
Probable space group: I B A M
;
_chemical_formula_sum "Si O2"
_cell_formula_units_Z 80
_cell_length_a 27.888620
_cell_length_b 18.265252
_cell_length_c 8.845107
_cell_angle_alpha 90.000000
_cell_angle_beta 90.000000
_cell_angle_gamma 90.000000
_cell_volume 4505.632691
_symmetry_space_group_name_H-M "I B A M"
_symmetry_group_IT_number 72
_symmetry_cell_setting 'orthorhombic'
loop_
_space_group_symop_operation_xyz
x,y,z
-x,-y,z
x,-y,1/2-z
-x,y,1/2-z
-x,-y,-z
x,y,-z
-x,y,1/2+z
x,-y,1/2+z
1/2+x,1/2+y,1/2+z
1/2-x,1/2-y,1/2+z
1/2+x,1/2-y,-z
1/2-x,1/2+y,-z
1/2-x,1/2-y,1/2-z
1/2+x,1/2+y,1/2-z
1/2-x,1/2+y,z
1/2+x,1/2-y,z
loop_
_atom_site_type_symbol
_atom_site_label
_atom_site_fract_x
_atom_site_fract_y
_atom_site_fract_z
Si Si1 0.085887 0.574364 0.680976
Si Si2 0.352351 0.285426 0.819298
Si Si3 0.713417 0.577527 0.181747
Si Si4 0.814608 0.375062 0.819005
Si Si5 0.450129 0.765532 0.180182
O O1 0.065206 0.500000 0.750000
O O2 0.088048 0.569126 0.500000
O O3 0.139222 0.585390 0.748154
O O4 0.058192 0.648866 0.722709
O O5 0.322584 0.356948 0.775186
O O6 0.322337 0.211385 0.786345
O O7 0.403616 0.276957 0.740305
O O8 0.359821 0.286973 0.000000
O O9 0.698008 0.500000 0.250000
O O10 0.765832 0.596391 0.246660
O O11 0.715761 0.573587 0.000000
O O12 0.814044 0.385652 0.000000
O O13 0.500000 0.739831 0.250000
O O14 0.451855 0.761167 0.000000
#
# Coordination Sequence:
#
# PCOD9525971 Si02
#       5
#    16  16  16  16  16
#     4  10  20  33  49  73 105 141 176 212 252 298
#     4   9  20  37  56  77 103 135 173 214 256 302
#     4  11  22  35  52  77 108 140 172 210 254 304
#     4  10  19  33  53  76 104 140 177 213 250 296
#     4  10  21  36  56  78 101 131 170 214 261 310
#
# _framework density 17.755552999999999
#
# number of rings (size 3 to 8) (size 9 to 14) (size 15 to 20)
#    0.000    2.000    0.000    3.600    0.000    5.200 
#    0.000    2.000    0.000    0.600    0.000    4.200 
#    0.000    0.000    0.000    0.000    0.000    0.000 
#
# Total GULP energy -223465.832437 kJ/mol
# GULP energy per Si atom -5586.645811 kJ/mol
# Density = 1.771514 g / cm^3
# Si number density = 17.755553 Si / 1000 Ang^3
#
#
#
# Elastic Constant Matrix: (Units=GPa)
#
#
# Indices 1 2 3 4 5 6 
#
# 1 67.7311 20.6660 19.8900 0.0000 0.0000 0.0000
# 2 20.6660 72.8389 22.2742 0.0000 0.0000 0.0000
# 3 19.8900 22.2742 36.0170 0.0000 0.0000 0.0000
# 4 0.0000 0.0000 0.0000 27.2861 0.0000 0.0000
# 5 0.0000 0.0000 0.0000 0.0000 21.8298 0.0000
# 6 0.0000 0.0000 0.0000 0.0000 0.0000 1.7715
#
#
#
# Elastic Compliance Matrix: (Units=1/GPa)
#
#
# Indices 1 2 3 4 5 6 
#
# 1 0.017998 -0.002549 -0.008363 0.000000 0.000000 0.000000
# 2 -0.002549 0.017292 -0.009286 0.000000 0.000000 0.000000
# 3 -0.008363 -0.009286 0.038126 0.000000 0.000000 0.000000
# 4 0.000000 0.000000 0.000000 0.036649 0.000000 0.000000
# 5 0.000000 0.000000 0.000000 0.000000 0.045809 0.000000
# 6 0.000000 0.000000 0.000000 0.000000 0.000000 0.564507
#
#
# Mechanical properties :
#
#
# Convention : Reuss Voigt Hill
#
# Bulk Modulus (GPa) = 30.28507 33.58305 31.93406
# Shear Modulus (GPa) = 6.47851 17.76127 12.11989
#
# Velocity S-wave (km/s) = 1.91224 3.16622 2.61549
# Velocity P-wave (km/s) = 4.68713 5.68522 5.21013
#
# Compressibility (1/GPa) = 0.03301957
#
# Stress axis : x y z
#
# Youngs Moduli (GPa) = 55.56227 57.83057 26.22896
#
# Poissons Ratio (x) = 0.14741 0.21934
# Poissons Ratio (y) = 0.14163 0.24357
# Poissons Ratio (z) = 0.46465 0.53703
#
# Static dielectric constant tensor:
#      x y z
#    x 1.572760 0.000000 0.000000 
#    y 0.000000 1.615370 0.000000 
#    z 0.000000 0.000000 1.589210 
# 
# From -- ./inp_files/4749.got.cif
#   From: 2010.05.17/outbox.cif.g08.bks.cpg/sg72_3_cif.got.tgz:4749.got - 2010.06.03 17:03:01.
