data_PCOD9525270
_publ_section_title
;
Structure prediction by ZEFSAII (Michael W. Deem and Ramdas Pophale) SiO2 
 PCOD9525270
Probable space group: I B A M
;
_chemical_formula_sum "Si O2"
_cell_formula_units_Z 88
_cell_length_a 19.975946
_cell_length_b 19.136424
_cell_length_c 13.824583
_cell_angle_alpha 90.000000
_cell_angle_beta 90.000000
_cell_angle_gamma 90.000000
_cell_volume 5284.698078
_symmetry_space_group_name_H-M "I B A M"
_symmetry_group_IT_number 72
_symmetry_cell_setting 'orthorhombic'
loop_
_space_group_symop_operation_xyz
x,y,z
-x,-y,z
x,-y,1/2-z
-x,y,1/2-z
-x,-y,-z
x,y,-z
-x,y,1/2+z
x,-y,1/2+z
1/2+x,1/2+y,1/2+z
1/2-x,1/2-y,1/2+z
1/2+x,1/2-y,-z
1/2-x,1/2+y,-z
1/2-x,1/2-y,1/2-z
1/2+x,1/2+y,1/2-z
1/2-x,1/2+y,z
1/2+x,1/2-y,z
loop_
_atom_site_type_symbol
_atom_site_label
_atom_site_fract_x
_atom_site_fract_y
_atom_site_fract_z
Si Si1 0.354174 0.247957 0.223788
Si Si2 0.000000 0.246635 0.750000
Si Si3 0.231239 0.815473 0.615397
Si Si4 0.343233 0.543096 0.117379
Si Si5 0.371379 0.605069 0.386011
Si Si6 0.975807 0.881003 0.112679
O O1 0.429365 0.217264 0.227611
O O2 0.302608 0.202049 0.162392
O O3 0.321350 0.265460 0.327941
O O4 0.358978 0.323780 0.171266
O O5 0.019295 0.193373 0.835973
O O6 0.230099 0.804137 0.500000
O O7 0.209605 0.895569 0.634945
O O8 0.332316 0.463499 0.150111
O O9 0.414796 0.573479 0.152321
O O10 0.348568 0.536359 0.000000
O O11 0.357552 0.617989 0.500000
O O12 0.450463 0.586648 0.378643
O O13 0.962416 0.870092 0.000000
#
# Coordination Sequence:
#
# PCOD9525270 Si02
#       6
#    16   8  16  16  16  16
#     4  10  20  32  48  68  93 127 162 201 245 286
#     4  10  18  30  45  70  90 123 164 200 242 284
#     4  10  20  34  47  63  93 131 165 200 243 289
#     4   9  16  28  45  64  92 131 163 193 234 278
#     4   9  17  28  44  68  96 125 162 198 229 276
#     4   9  16  27  41  63  95 128 159 193 230 275
#
# _framework density 16.65185
#
# number of rings (size 3 to 8) (size 9 to 14) (size 15 to 20)
#    0.000    2.545    1.818    1.091    0.000    3.636 
#    0.000    0.909    0.000    0.000    0.000    0.000 
#    0.000   11.636    0.000   38.182    0.000    0.000 
#
# Total GULP energy -245281.989999 kJ/mol
# GULP energy per Si atom -5574.590682 kJ/mol
# Density = 1.661395 g / cm^3
# Si number density = 16.651850 Si / 1000 Ang^3
#
#
#
# Elastic Constant Matrix: (Units=GPa)
#
#
# Indices 1 2 3 4 5 6 
#
# 1 88.8655 20.7558 32.4178 0.0000 0.0000 0.0000
# 2 20.7558 38.6573 20.5548 0.0000 0.0000 0.0000
# 3 32.4178 20.5548 85.6856 0.0000 0.0000 0.0000
# 4 0.0000 0.0000 0.0000 18.1145 0.0000 0.0000
# 5 0.0000 0.0000 0.0000 0.0000 17.4435 0.0000
# 6 0.0000 0.0000 0.0000 0.0000 0.0000 17.9675
#
#
#
# Elastic Compliance Matrix: (Units=1/GPa)
#
#
# Indices 1 2 3 4 5 6 
#
# 1 0.013965 -0.005374 -0.003994 0.000000 0.000000 0.000000
# 2 -0.005374 0.031719 -0.005576 0.000000 0.000000 0.000000
# 3 -0.003994 -0.005576 0.014519 0.000000 0.000000 0.000000
# 4 0.000000 0.000000 0.000000 0.055204 0.000000 0.000000
# 5 0.000000 0.000000 0.000000 0.000000 0.057328 0.000000
# 6 0.000000 0.000000 0.000000 0.000000 0.000000 0.055656
#
#
# Mechanical properties :
#
#
# Convention : Reuss Voigt Hill
#
# Bulk Modulus (GPa) = 32.98731 40.07388 36.53059
# Shear Modulus (GPa) = 18.62997 20.00378 19.31688
#
# Velocity S-wave (km/s) = 3.34847 3.46973 3.40964
# Velocity P-wave (km/s) = 5.89937 6.33798 6.12261
#
# Compressibility (1/GPa) = 0.03031469
#
# Stress axis : x y z
#
# Youngs Moduli (GPa) = 71.60588 31.52730 68.87403
#
# Poissons Ratio (x) = 0.16944 0.27511
# Poissons Ratio (y) = 0.38484 0.38401
# Poissons Ratio (z) = 0.28602 0.17578
#
# Static dielectric constant tensor:
#      x y z
#    x 1.595340 0.000000 0.000000 
#    y 0.000000 1.543770 0.000000 
#    z 0.000000 0.000000 1.637170 
# 
# From -- ./inp_files/24291.got.cif
#   From: 2010.05.17/outbox.cif.g08.bks.cpg/sg72_13_cif.got.tgz:24291.got - 2010.06.03 17:03:01.
