data_PCOD9525360
_publ_section_title
;
Structure prediction by ZEFSAII (Michael W. Deem and Ramdas Pophale) SiO2 
 PCOD9525360
Probable space group: I B A M
;
_chemical_formula_sum "Si O2"
_cell_formula_units_Z 96
_cell_length_a 17.276147
_cell_length_b 14.059992
_cell_length_c 22.899453
_cell_angle_alpha 90.000000
_cell_angle_beta 90.000000
_cell_angle_gamma 90.000000
_cell_volume 5562.334122
_symmetry_space_group_name_H-M "I B A M"
_symmetry_group_IT_number 72
_symmetry_cell_setting 'orthorhombic'
loop_
_space_group_symop_operation_xyz
x,y,z
-x,-y,z
x,-y,1/2-z
-x,y,1/2-z
-x,-y,-z
x,y,-z
-x,y,1/2+z
x,-y,1/2+z
1/2+x,1/2+y,1/2+z
1/2-x,1/2-y,1/2+z
1/2+x,1/2-y,-z
1/2-x,1/2+y,-z
1/2-x,1/2-y,1/2-z
1/2+x,1/2+y,1/2-z
1/2-x,1/2+y,z
1/2+x,1/2-y,z
loop_
_atom_site_type_symbol
_atom_site_label
_atom_site_fract_x
_atom_site_fract_y
_atom_site_fract_z
Si Si1 0.157611 0.147572 0.130767
Si Si2 0.760786 0.612490 0.745271
Si Si3 0.219434 0.238868 0.432870
Si Si4 0.147742 0.763038 0.186423
Si Si5 0.985828 0.106670 0.160544
Si Si6 0.361976 0.545577 0.565848
O O1 0.203346 0.134358 0.191159
O O2 0.197748 0.228448 0.091847
O O3 0.066993 0.154196 0.144683
O O4 0.167210 0.049616 0.095617
O O5 0.772418 0.500000 0.750000
O O6 0.836115 0.674893 0.729316
O O7 0.716137 0.660104 0.799694
O O8 0.207348 0.273175 0.500000
O O9 0.160259 0.271049 0.380780
O O10 0.203353 0.126478 0.434562
O O11 0.069074 0.821383 0.195671
O O12 0.934227 0.084253 0.103140
O O13 0.000000 0.000000 0.185619
O O14 0.386639 0.526529 0.500000
#
# Coordination Sequence:
#
# PCOD9525360 Si02
#       6
#    16  16  16  16  16  16
#     4  10  19  28  46  72  95 124 159 198 242 289
#     4  10  18  31  50  70  97 131 167 205 239 283
#     4   9  17  30  46  66  93 123 158 197 237 285
#     4   9  19  32  46  72 100 128 165 201 243 291
#     4   9  17  29  44  68 101 129 157 196 247 294
#     4   9  17  29  44  66  98 129 160 201 245 290
#
# _framework density 17.258941
#
# number of rings (size 3 to 8) (size 9 to 14) (size 15 to 20)
#    0.000    2.667    0.000    3.500    0.000    4.333 
#    0.000    3.333    0.000    0.000    0.000   61.833 
#    0.000   40.000    0.000    0.000    0.000    0.000 
#
# Total GULP energy -267229.257396 kJ/mol
# GULP energy per Si atom -5567.276196 kJ/mol
# Density = 1.721966 g / cm^3
# Si number density = 17.258941 Si / 1000 Ang^3
#
#
#
# Elastic Constant Matrix: (Units=GPa)
#
#
# Indices 1 2 3 4 5 6 
#
# 1 96.4269 54.2322 22.5394 0.0000 0.0000 0.0000
# 2 54.2322 84.4221 20.6946 0.0000 0.0000 0.0000
# 3 22.5394 20.6946 93.7343 0.0000 0.0000 0.0000
# 4 0.0000 0.0000 0.0000 23.0335 0.0000 0.0000
# 5 0.0000 0.0000 0.0000 0.0000 8.6059 0.0000
# 6 0.0000 0.0000 0.0000 0.0000 0.0000 34.4814
#
#
#
# Elastic Compliance Matrix: (Units=1/GPa)
#
#
# Indices 1 2 3 4 5 6 
#
# 1 0.016495 -0.010175 -0.001720 0.000000 0.000000 0.000000
# 2 -0.010175 0.018799 -0.001704 0.000000 0.000000 0.000000
# 3 -0.001720 -0.001704 0.011458 0.000000 0.000000 0.000000
# 4 0.000000 0.000000 0.000000 0.043415 0.000000 0.000000
# 5 0.000000 0.000000 0.000000 0.000000 0.116199 0.000000
# 6 0.000000 0.000000 0.000000 0.000000 0.000000 0.029001
#
#
# Mechanical properties :
#
#
# Convention : Reuss Voigt Hill
#
# Bulk Modulus (GPa) = 51.13728 52.16842 51.65285
# Shear Modulus (GPa) = 18.58164 25.03198 21.80681
#
# Velocity S-wave (km/s) = 3.28478 3.81251 3.55844
# Velocity P-wave (km/s) = 6.63928 7.04790 6.84664
#
# Compressibility (1/GPa) = 0.01955521
#
# Stress axis : x y z
#
# Youngs Moduli (GPa) = 60.62438 53.19422 87.27349
#
# Poissons Ratio (x) = 0.54123 0.15012
# Poissons Ratio (y) = 0.61683 0.14870
# Poissons Ratio (z) = 0.10428 0.09063
#
# Static dielectric constant tensor:
#      x y z
#    x 1.589310 0.000000 0.000000 
#    y 0.000000 1.594690 0.000000 
#    z 0.000000 0.000000 1.655920 
# 
# From -- ./inp_files/43361.got.cif
#   From: 2010.05.17/outbox.cif.g08.bks.cpg/sg72_22_cif.got.tgz:43361.got - 2010.06.03 17:03:01.
