data_PCOD9525621
_publ_section_title
;
Structure prediction by ZEFSAII (Michael W. Deem and Ramdas Pophale) SiO2 
 PCOD9525621
Probable space group: I B A M
;
_chemical_formula_sum "Si O2"
_cell_formula_units_Z 80
_cell_length_a 13.636692
_cell_length_b 25.399225
_cell_length_c 13.976334
_cell_angle_alpha 90.000000
_cell_angle_beta 90.000000
_cell_angle_gamma 90.000000
_cell_volume 4840.862728
_symmetry_space_group_name_H-M "I B A M"
_symmetry_group_IT_number 72
_symmetry_cell_setting 'orthorhombic'
loop_
_space_group_symop_operation_xyz
x,y,z
-x,-y,z
x,-y,1/2-z
-x,y,1/2-z
-x,-y,-z
x,y,-z
-x,y,1/2+z
x,-y,1/2+z
1/2+x,1/2+y,1/2+z
1/2-x,1/2-y,1/2+z
1/2+x,1/2-y,-z
1/2-x,1/2+y,-z
1/2-x,1/2-y,1/2-z
1/2+x,1/2+y,1/2-z
1/2-x,1/2+y,z
1/2+x,1/2-y,z
loop_
_atom_site_type_symbol
_atom_site_label
_atom_site_fract_x
_atom_site_fract_y
_atom_site_fract_z
Si Si1 0.670877 0.056546 0.257204
Si Si2 0.953664 0.303472 0.108828
Si Si3 0.651956 0.254675 0.886714
Si Si4 0.498331 0.923485 0.108258
Si Si5 0.729713 0.174325 0.744941
O O1 0.585810 0.055153 0.176563
O O2 0.606413 0.062233 0.353845
O O3 0.728463 0.111310 0.245048
O O4 0.723116 0.000000 0.250000
O O5 0.037801 0.260758 0.125253
O O6 0.007113 0.360138 0.114224
O O7 0.866813 0.307709 0.184404
O O8 0.915510 0.297948 0.000000
O O9 0.716901 0.206153 0.843967
O O10 0.682325 0.303442 0.819826
O O11 0.669514 0.262353 0.000000
O O12 0.483940 0.939768 0.000000
#
# Coordination Sequence:
#
# PCOD9525621 Si02
#       5
#    16  16  16  16  16
#     4  10  19  28  40  61  88 120 154 185 219 271
#     4   9  16  28  46  65  89 120 151 185 227 273
#     4  10  19  30  46  64  86 120 156 191 231 276
#     4   9  16  27  41  59  86 119 154 185 214 257
#     4  10  19  31  45  64  92 121 149 193 232 271
#
# _framework density 16.525980000000001
#
# number of rings (size 3 to 8) (size 9 to 14) (size 15 to 20)
#    0.000    2.400    2.000    2.400    0.000    2.400 
#    0.000    0.000    0.000    0.000    0.000    0.000 
#    0.000   12.800    0.000   30.400    0.000    0.000 
#
# Total GULP energy -222893.549292 kJ/mol
# GULP energy per Si atom -5572.338732 kJ/mol
# Density = 1.648837 g / cm^3
# Si number density = 16.525980 Si / 1000 Ang^3
#
#
#
# Elastic Constant Matrix: (Units=GPa)
#
#
# Indices 1 2 3 4 5 6 
#
# 1 18.3049 14.7037 -2.2769 0.0000 0.0000 0.0000
# 2 14.7037 111.3991 -4.2516 -0.0001 0.0000 0.0001
# 3 -2.2769 -4.2516 66.2266 -0.0001 0.0000 0.0000
# 4 0.0000 -0.0001 -0.0001 5.5987 0.0000 0.0000
# 5 0.0000 0.0000 0.0000 0.0000 15.0931 0.0000
# 6 0.0000 0.0001 0.0000 0.0000 0.0000 12.1128
#
#
#
# Elastic Compliance Matrix: (Units=1/GPa)
#
#
# Indices 1 2 3 4 5 6 
#
# 1 0.061276 -0.008027 0.001591 0.000000 0.000000 0.000000
# 2 -0.008027 0.010050 0.000369 0.000000 0.000000 0.000000
# 3 0.001591 0.000369 0.015178 0.000000 0.000000 0.000000
# 4 0.000000 0.000000 0.000000 0.178612 0.000000 -0.000001
# 5 0.000000 0.000000 0.000000 0.000000 0.066255 0.000000
# 6 0.000000 0.000000 0.000000 -0.000001 0.000000 0.082557
#
#
# Mechanical properties :
#
#
# Convention : Reuss Voigt Hill
#
# Bulk Modulus (GPa) = 13.44603 23.58678 18.51641
# Shear Modulus (GPa) = 11.09009 19.07795 15.08402
#
# Velocity S-wave (km/s) = 2.59331 3.40136 3.02445
# Velocity P-wave (km/s) = 4.13775 5.45245 4.83995
#
# Compressibility (1/GPa) = 0.07437140
#
# Stress axis : x y z
#
# Youngs Moduli (GPa) = 16.31958 99.49913 65.88440
#
# Poissons Ratio (x) = 0.79870 -0.10485
# Poissons Ratio (y) = 0.13100 -0.02433
# Poissons Ratio (z) = -0.02597 -0.03674
#
# Static dielectric constant tensor:
#      x y z
#    x 1.551880 0.000000 0.000000 
#    y 0.000000 1.611690 0.000000 
#    z 0.000000 0.000000 1.599090 
# 
# From -- ./inp_files/20422.got.cif
#   From: 2010.05.17/outbox.cif.g08.bks.cpg/sg72_11_cif.got.tgz:20422.got - 2010.06.03 17:03:01.
