data_PCOD9525103
_publ_section_title
;
Structure prediction by ZEFSAII (Michael W. Deem and Ramdas Pophale) SiO2 
 PCOD9525103
Probable space group: I B A M
;
_chemical_formula_sum "Si O2"
_cell_formula_units_Z 88
_cell_length_a 5.113262
_cell_length_b 39.216267
_cell_length_c 25.567065
_cell_angle_alpha 90.000000
_cell_angle_beta 90.000000
_cell_angle_gamma 90.000000
_cell_volume 5126.785798
_symmetry_space_group_name_H-M "I B A M"
_symmetry_group_IT_number 72
_symmetry_cell_setting 'orthorhombic'
loop_
_space_group_symop_operation_xyz
x,y,z
-x,-y,z
x,-y,1/2-z
-x,y,1/2-z
-x,-y,-z
x,y,-z
-x,y,1/2+z
x,-y,1/2+z
1/2+x,1/2+y,1/2+z
1/2-x,1/2-y,1/2+z
1/2+x,1/2-y,-z
1/2-x,1/2+y,-z
1/2-x,1/2-y,1/2-z
1/2+x,1/2+y,1/2-z
1/2-x,1/2+y,z
1/2+x,1/2-y,z
loop_
_atom_site_type_symbol
_atom_site_label
_atom_site_fract_x
_atom_site_fract_y
_atom_site_fract_z
Si Si1 0.091860 0.580880 0.918184
Si Si2 0.111998 0.152155 0.331609
Si Si3 0.999308 0.769101 0.812516
Si Si4 0.907644 0.122905 0.942777
Si Si5 0.745082 0.024227 0.500000
Si Si6 0.603019 0.891188 0.804458
O O1 0.297408 0.609461 0.936932
O O2 0.090159 0.583550 0.854795
O O3 0.800648 0.591782 0.936004
O O4 0.203687 0.547964 0.948407
O O5 0.048378 0.191050 0.320314
O O6 0.130919 0.147153 0.393818
O O7 0.390957 0.139128 0.311307
O O8 0.887097 0.126936 0.308305
O O9 0.228320 0.745120 0.833902
O O10 0.000000 0.764217 0.750000
O O11 0.866616 0.137763 0.000000
O O12 0.500000 0.000000 0.500000
O O13 0.000000 0.000000 0.500000
O O14 0.500000 0.907435 0.750000
#
# Coordination Sequence:
#
# PCOD9525103 Si02
#       6
#    16  16  16  16   8  16
#     4  10  20  33  51  77 104 131 165 203 251 298
#     4  10  20  30  49  75  97 129 169 207 255 309
#     4  10  19  30  44  62  92 130 163 204 250 300
#     4  10  17  32  53  72 101 128 159 212 256 297
#     4  12  22  34  54  78 110 138 166 206 240 290
#     4  10  19  32  52  76 102 129 161 213 261 300
#
# _framework density 17.164750000000002
#
# number of rings (size 3 to 8) (size 9 to 14) (size 15 to 20)
#    0.000    1.818    1.818    3.818    0.000    1.455 
#    0.000    0.000    0.000    1.636    0.000    1.273 
#    0.000    0.000    0.000    0.000    0.000    0.000 
#
# Total GULP energy -245006.913892 kJ/mol
# GULP energy per Si atom -5568.338952 kJ/mol
# Density = 1.712568 g / cm^3
# Si number density = 17.164750 Si / 1000 Ang^3
#
#
#
# Elastic Constant Matrix: (Units=GPa)
#
#
# Indices 1 2 3 4 5 6 
#
# 1 83.2412 19.5685 27.5665 0.0000 0.0000 0.0000
# 2 19.5685 53.2581 16.0515 0.0000 0.0000 0.0000
# 3 27.5665 16.0515 112.3935 0.0000 0.0000 0.0000
# 4 0.0000 0.0000 0.0000 21.1880 0.0000 0.0000
# 5 0.0000 0.0000 0.0000 0.0000 16.2078 0.0000
# 6 0.0000 0.0000 0.0000 0.0000 0.0000 25.8139
#
#
#
# Elastic Compliance Matrix: (Units=1/GPa)
#
#
# Indices 1 2 3 4 5 6 
#
# 1 0.013950 -0.004279 -0.002810 0.000000 0.000000 0.000000
# 2 -0.004279 0.020933 -0.001940 0.000000 0.000000 0.000000
# 3 -0.002810 -0.001940 0.009864 0.000000 0.000000 0.000000
# 4 0.000000 0.000000 0.000000 0.047197 0.000000 0.000000
# 5 0.000000 0.000000 0.000000 0.000000 0.061699 0.000000
# 6 0.000000 0.000000 0.000000 0.000000 0.000000 0.038739
#
#
# Mechanical properties :
#
#
# Convention : Reuss Voigt Hill
#
# Bulk Modulus (GPa) = 37.46925 41.69620 39.58272
# Shear Modulus (GPa) = 22.79615 25.02235 23.90925
#
# Velocity S-wave (km/s) = 3.64824 3.82222 3.73624
# Velocity P-wave (km/s) = 6.29466 6.61995 6.45935
#
# Compressibility (1/GPa) = 0.02668855
#
# Stress axis : x y z
#
# Youngs Moduli (GPa) = 71.68571 47.77077 101.38185
#
# Poissons Ratio (x) = 0.20439 0.28492
# Poissons Ratio (y) = 0.30671 0.19670
# Poissons Ratio (z) = 0.20146 0.09269
#
# Static dielectric constant tensor:
#      x y z
#    x 1.614560 0.000000 0.000000 
#    y 0.000000 1.534440 0.000000 
#    z 0.000000 0.000000 1.582670 
# 
# From -- ./inp_files/46776.got.cif
#   From: 2010.05.17/outbox.cif.g08.bks.cpg/sg72_24_cif.got.tgz:46776.got - 2010.06.03 17:03:01.
