data_PCOD9525702
_publ_section_title
;
Structure prediction by ZEFSAII (Michael W. Deem and Ramdas Pophale) SiO2 
 PCOD9525702
Probable space group: I B A M
;
_chemical_formula_sum "Si O2"
_cell_formula_units_Z 64
_cell_length_a 19.600261
_cell_length_b 11.757638
_cell_length_c 11.392413
_cell_angle_alpha 90.000000
_cell_angle_beta 90.000000
_cell_angle_gamma 90.000000
_cell_volume 2625.413173
_symmetry_space_group_name_H-M "I B A M"
_symmetry_group_IT_number 72
_symmetry_cell_setting 'orthorhombic'
loop_
_space_group_symop_operation_xyz
x,y,z
-x,-y,z
x,-y,1/2-z
-x,y,1/2-z
-x,-y,-z
x,y,-z
-x,y,1/2+z
x,-y,1/2+z
1/2+x,1/2+y,1/2+z
1/2-x,1/2-y,1/2+z
1/2+x,1/2-y,-z
1/2-x,1/2+y,-z
1/2-x,1/2-y,1/2-z
1/2+x,1/2+y,1/2-z
1/2-x,1/2+y,z
1/2+x,1/2-y,z
loop_
_atom_site_type_symbol
_atom_site_label
_atom_site_fract_x
_atom_site_fract_y
_atom_site_fract_z
Si Si1 0.960970 0.358697 0.127749
Si Si2 0.344789 0.041836 0.628372
Si Si3 0.835649 0.813467 0.373575
Si Si4 0.189311 0.803488 0.626990
O O1 0.916701 0.475305 0.127814
O O2 0.903832 0.260583 0.125866
O O3 0.000000 0.348203 0.250000
O O4 0.997004 0.350685 0.000000
O O5 0.313383 0.014609 0.500000
O O6 0.346346 0.178086 0.634353
O O7 0.311114 0.000000 0.750000
O O8 0.832068 0.874554 0.500000
O O9 0.830443 0.868453 0.245173
O O10 0.769609 0.729426 0.373157
O O11 0.171564 0.852563 0.500000
#
# Coordination Sequence:
#
# PCOD9525702 Si02
#       4
#    16  16  16  16
#     4  10  21  34  47  66  97 132 163 190 224 273
#     4  10  19  31  45  65  92 123 157 192 231 277
#     4   9  17  31  47  64  86 118 157 197 233 269
#     4   9  17  29  47  65  85 117 156 194 235 275
#
# _framework density 24.377115
#
# number of rings (size 3 to 8) (size 9 to 14) (size 15 to 20)
#    0.000    2.500    2.500    0.000    0.000    2.500 
#    0.000    2.500    0.000    0.000    0.000    0.000 
#    0.000    1.000    0.000   12.500    0.000    0.000 
#
# Total GULP energy -178533.736309 kJ/mol
# GULP energy per Si atom -5579.179260 kJ/mol
# Density = 2.432163 g / cm^3
# Si number density = 24.377115 Si / 1000 Ang^3
#
#
#
# Elastic Constant Matrix: (Units=GPa)
#
#
# Indices 1 2 3 4 5 6 
#
# 1 89.0272 28.0893 47.8568 0.0000 0.0000 0.0000
# 2 28.0893 70.6661 46.9442 0.0000 0.0000 0.0000
# 3 47.8568 46.9442 358.2260 0.0000 0.0000 0.0000
# 4 0.0000 0.0000 0.0000 -3.2863 0.0000 0.0000
# 5 0.0000 0.0000 0.0000 0.0000 7.7192 0.0000
# 6 0.0000 0.0000 0.0000 0.0000 0.0000 33.5191
#
#
#
# Elastic Compliance Matrix: (Units=1/GPa)
#
#
# Indices 1 2 3 4 5 6 
#
# 1 0.013288 -0.004494 -0.001186 0.000000 0.000000 0.000000
# 2 -0.004494 0.017020 -0.001630 0.000000 0.000000 0.000000
# 3 -0.001186 -0.001630 0.003164 0.000000 0.000000 0.000000
# 4 0.000000 0.000000 0.000000 -0.304298 0.000000 0.000000
# 5 0.000000 0.000000 0.000000 0.000000 0.129548 0.000000
# 6 0.000000 0.000000 0.000000 0.000000 0.000000 0.029834
#
#
# Mechanical properties :
#
#
# Convention : Reuss Voigt Hill
#
# Bulk Modulus (GPa) = 53.04632 84.85553 68.95092
# Shear Modulus (GPa) = -55.22414 33.92567 -10.64923
#
# Velocity S-wave (km/s) = -4.76479 3.73460 -2.09237
# Velocity P-wave (km/s) = 2.90914 7.31310 4.74438
#
# Compressibility (1/GPa) = 0.01885145
#
# Stress axis : x y z
#
# Youngs Moduli (GPa) = 75.25534 58.75372 316.09230
#
# Poissons Ratio (x) = 0.26403 0.37498
# Poissons Ratio (y) = 0.33819 0.51526
# Poissons Ratio (z) = 0.08928 0.09577
#
# Static dielectric constant tensor:
#      x y z
#    x 1.974280 0.000000 0.000000 
#    y 0.000000 1.884200 0.000000 
#    z 0.000000 0.000000 2.076650 
# 
# From -- ./inp_files/13483.got.cif
#   From: 2010.05.17/outbox.cif.g08.bks.cpg/sg72_7_cif.got.tgz:13483.got - 2010.06.03 17:03:01.
