data_PCOD9525250
_publ_section_title
;
Structure prediction by ZEFSAII (Michael W. Deem and Ramdas Pophale) SiO2 
 PCOD9525250
Probable space group: I B A M
;
_chemical_formula_sum "Si O2"
_cell_formula_units_Z 96
_cell_length_a 25.857459
_cell_length_b 8.652723
_cell_length_c 19.598419
_cell_angle_alpha 90.000000
_cell_angle_beta 90.000000
_cell_angle_gamma 90.000000
_cell_volume 4384.899903
_symmetry_space_group_name_H-M "I B A M"
_symmetry_group_IT_number 72
_symmetry_cell_setting 'orthorhombic'
loop_
_space_group_symop_operation_xyz
x,y,z
-x,-y,z
x,-y,1/2-z
-x,y,1/2-z
-x,-y,-z
x,y,-z
-x,y,1/2+z
x,-y,1/2+z
1/2+x,1/2+y,1/2+z
1/2-x,1/2-y,1/2+z
1/2+x,1/2-y,-z
1/2-x,1/2+y,-z
1/2-x,1/2-y,1/2-z
1/2+x,1/2+y,1/2-z
1/2-x,1/2+y,z
1/2+x,1/2-y,z
loop_
_atom_site_type_symbol
_atom_site_label
_atom_site_fract_x
_atom_site_fract_y
_atom_site_fract_z
Si Si1 0.328066 0.477568 0.572808
Si Si2 0.444361 0.177661 0.221073
Si Si3 0.180911 0.554938 0.674910
Si Si4 0.261894 0.235952 0.882727
Si Si5 0.990475 0.315278 0.079225
Si Si6 0.096827 0.212752 0.150528
O O1 0.354722 0.475180 0.500000
O O2 0.296957 0.634636 0.583066
O O3 0.284006 0.344874 0.575231
O O4 0.371051 0.435281 0.627781
O O5 0.500000 0.227061 0.250000
O O6 0.447209 0.199717 0.139718
O O7 0.407185 0.280035 0.267375
O O8 0.440519 0.000000 0.250000
O O9 0.167043 0.500000 0.750000
O O10 0.229007 0.674714 0.675580
O O11 0.201375 0.402576 0.638692
O O12 0.133523 0.637695 0.636805
O O13 0.042926 0.236027 0.109970
O O14 0.000000 0.500000 0.078111
O O15 0.980081 0.267763 0.000000
#
# Coordination Sequence:
#
# PCOD9525250 Si02
#       6
#    16  16  16  16  16  16
#     4  10  19  34  54  78 116 160 201 241 284 347
#     4   9  14  28  46  71 110 147 183 235 296 341
#     4  10  19  32  55  79 115 149 192 245 289 345
#     4   9  20  35  51  81 112 156 201 237 292 340
#     4  10  18  29  49  79 116 149 190 243 294 354
#     4  10  19  30  51  85 116 150 194 246 293 345
#
# _framework density 21.893315000000001
#
# number of rings (size 3 to 8) (size 9 to 14) (size 15 to 20)
#    0.000    2.333    3.333    2.000    0.000    0.000 
#    0.000    2.500    0.000    0.000    0.000   11.667 
#    0.000    4.000    0.000   17.833    0.000    0.000 
#
# Total GULP energy -267362.983887 kJ/mol
# GULP energy per Si atom -5570.062164 kJ/mol
# Density = 2.184349 g / cm^3
# Si number density = 21.893315 Si / 1000 Ang^3
#
#
#
# Elastic Constant Matrix: (Units=GPa)
#
#
# Indices 1 2 3 4 5 6 
#
# 1 57.8718 23.2704 37.9382 0.0000 0.0000 0.0000
# 2 23.2704 60.4693 20.0077 0.0000 0.0000 0.0000
# 3 37.9382 20.0077 152.9982 0.0000 0.0000 0.0000
# 4 0.0000 0.0000 0.0000 -4.1509 0.0000 0.0000
# 5 0.0000 0.0000 0.0000 0.0000 23.0893 0.0000
# 6 0.0000 0.0000 0.0000 0.0000 0.0000 2889.7408
#
#
#
# Elastic Compliance Matrix: (Units=1/GPa)
#
#
# Indices 1 2 3 4 5 6 
#
# 1 0.023436 -0.007417 -0.004841 0.000000 0.000000 0.000000
# 2 -0.007417 0.019633 -0.000728 0.000000 0.000000 0.000000
# 3 -0.004841 -0.000728 0.007832 0.000000 0.000000 0.000000
# 4 0.000000 0.000000 0.000000 -0.240910 0.000000 0.000000
# 5 0.000000 0.000000 0.000000 0.000000 0.043310 0.000000
# 6 0.000000 0.000000 0.000000 0.000000 0.000000 0.000346
#
#
# Mechanical properties :
#
#
# Convention : Reuss Voigt Hill
#
# Bulk Modulus (GPa) = 40.11708 48.19689 44.15699
# Shear Modulus (GPa) = -44.61419 594.41071 274.89826
#
# Velocity S-wave (km/s) = -4.51910 16.49523 11.21763
# Velocity P-wave (km/s) = 2.97758 19.61766 13.71106
#
# Compressibility (1/GPa) = 0.02492704
#
# Stress axis : x y z
#
# Youngs Moduli (GPa) = 42.66997 50.93587 127.68565
#
# Poissons Ratio (x) = 0.37779 0.61817
# Poissons Ratio (y) = 0.31648 0.09298
# Poissons Ratio (z) = 0.20658 0.03709
#
# Static dielectric constant tensor:
#      x y z
#    x 1.843960 0.000000 0.000000 
#    y 0.000000 1.804970 0.000000 
#    z 0.000000 0.000000 1.802750 
# 
# From -- ./inp_files/40707.got.cif
#   From: 2010.05.17/outbox.cif.g08.bks.cpg/sg72_21_cif.got.tgz:40707.got - 2010.06.03 17:03:01.
