data_PCOD9525366
_publ_section_title
;
Structure prediction by ZEFSAII (Michael W. Deem and Ramdas Pophale) SiO2 
 PCOD9525366
Probable space group: I B A M
;
_chemical_formula_sum "Si O2"
_cell_formula_units_Z 116
_cell_length_a 24.044148
_cell_length_b 28.667541
_cell_length_c 7.455123
_cell_angle_alpha 90.000000
_cell_angle_beta 90.000000
_cell_angle_gamma 90.000000
_cell_volume 5138.716375
_symmetry_space_group_name_H-M "I B A M"
_symmetry_group_IT_number 72
_symmetry_cell_setting 'orthorhombic'
loop_
_space_group_symop_operation_xyz
x,y,z
-x,-y,z
x,-y,1/2-z
-x,y,1/2-z
-x,-y,-z
x,y,-z
-x,y,1/2+z
x,-y,1/2+z
1/2+x,1/2+y,1/2+z
1/2-x,1/2-y,1/2+z
1/2+x,1/2-y,-z
1/2-x,1/2+y,-z
1/2-x,1/2-y,1/2-z
1/2+x,1/2+y,1/2-z
1/2-x,1/2+y,z
1/2+x,1/2-y,z
loop_
_atom_site_type_symbol
_atom_site_label
_atom_site_fract_x
_atom_site_fract_y
_atom_site_fract_z
Si Si1 0.910210 0.075648 0.279990
Si Si2 0.754934 0.195615 0.286360
Si Si3 0.181431 0.384591 0.720843
Si Si4 0.436121 0.877110 0.301173
Si Si5 0.877735 0.823867 0.781379
Si Si6 0.500000 0.500000 0.250000
Si Si7 0.936015 0.729773 0.786755
Si Si8 0.784336 0.946578 0.787268
O O1 0.916104 0.070653 0.500000
O O2 0.913742 0.130611 0.231779
O O3 0.847073 0.063280 0.224604
O O4 0.953765 0.039537 0.194973
O O5 0.756601 0.190023 0.500000
O O6 0.750000 0.250000 0.250000
O O7 0.701740 0.166887 0.222593
O O8 0.813427 0.174098 0.221276
O O9 0.179368 0.385887 0.500000
O O10 0.119861 0.396025 0.790206
O O11 0.232290 0.416945 0.780330
O O12 0.500000 0.884638 0.250000
O O13 0.433910 0.896028 0.500000
O O14 0.427121 0.820967 0.297892
O O15 0.900375 0.773645 0.722564
O O16 0.877935 0.823890 0.000000
O O17 0.000000 0.742066 0.750000
O O18 0.927906 0.724112 0.000000
O O19 0.772273 0.000000 0.750000
O O20 0.787115 0.937159 0.000000
#
# Coordination Sequence:
#
# PCOD9525366 Si02
#       8
#    16  16  16  16  16   4  16  16
#     4  10  20  35  53  74 102 137 179 222 269 322
#     4  10  18  31  51  75 102 137 175 215 262 316
#     4   9  18  33  56  78 102 140 180 211 262 329
#     4  10  19  33  53  78 106 139 175 213 256 311
#     4   9  18  32  49  68  97 139 177 211 261 319
#     4  12  22  32  56  82 100 136 184 236 282 312
#     4  10  19  31  48  71 101 141 181 217 257 309
#     4  10  19  37  60  81 106 138 176 222 270 323
#
# _framework density 22.573730999999999
#
# number of rings (size 3 to 8) (size 9 to 14) (size 15 to 20)
#    0.000    2.207    2.069    2.690    0.966    0.000 
#    0.000    3.448    0.000    3.724    0.000    2.897 
#    0.000    0.000    0.000    0.000    0.000    0.000 
#
# Total GULP energy -323319.210142 kJ/mol
# GULP energy per Si atom -5574.469140 kJ/mol
# Density = 2.252235 g / cm^3
# Si number density = 22.573731 Si / 1000 Ang^3
#
#
#
# Elastic Constant Matrix: (Units=GPa)
#
#
# Indices 1 2 3 4 5 6 
#
# 1 188.3156 35.7690 6.8193 0.0000 0.0000 0.0000
# 2 35.7690 57.1090 -6.1204 0.0000 0.0000 0.0000
# 3 6.8193 -6.1204 70.5304 0.0000 0.0000 0.0000
# 4 0.0000 0.0000 0.0000 5.5514 0.0000 0.0000
# 5 0.0000 0.0000 0.0000 0.0000 -158.9958 0.0000
# 6 0.0000 0.0000 0.0000 0.0000 0.0000 27.3731
#
#
#
# Elastic Compliance Matrix: (Units=1/GPa)
#
#
# Indices 1 2 3 4 5 6 
#
# 1 0.006087 -0.003912 -0.000928 0.000000 0.000000 0.000000
# 2 -0.003912 0.020189 0.002130 0.000000 0.000000 0.000000
# 3 -0.000928 0.002130 0.014453 0.000000 0.000000 0.000000
# 4 0.000000 0.000000 0.000000 0.180135 0.000000 0.000000
# 5 0.000000 0.000000 0.000000 0.000000 -0.006289 0.000000
# 6 0.000000 0.000000 0.000000 0.000000 0.000000 0.036532
#
#
# Mechanical properties :
#
#
# Convention : Reuss Voigt Hill
#
# Bulk Modulus (GPa) = 28.32126 43.21009 35.76568
# Shear Modulus (GPa) = 18.63619 -6.58180 6.02719
#
# Velocity S-wave (km/s) = 2.87639 -1.70939 1.63579
# Velocity P-wave (km/s) = 4.85848 3.90990 4.40977
#
# Compressibility (1/GPa) = 0.03530916
#
# Stress axis : x y z
#
# Youngs Moduli (GPa) = 164.28834 49.53252 69.19048
#
# Poissons Ratio (x) = 0.19376 0.06421
# Poissons Ratio (y) = 0.64267 -0.14739
# Poissons Ratio (z) = 0.15246 -0.10551
#
# Static dielectric constant tensor:
#      x y z
#    x 1.864980 0.000000 0.000000 
#    y 0.000000 1.818790 0.000000 
#    z 0.000000 0.000000 1.892180 
# 
# From -- ./inp_files/7501.got.cif
#   From: 2010.05.17/outbox.cif.g08.bks.cpg/sg72_4_cif.got.tgz:7501.got - 2010.06.03 17:03:01.
