data_PCOD9525551
_publ_section_title
;
Structure prediction by ZEFSAII (Michael W. Deem and Ramdas Pophale) SiO2 
 PCOD9525551
Probable space group: I B A M
;
_chemical_formula_sum "Si O2"
_cell_formula_units_Z 64
_cell_length_a 7.206554
_cell_length_b 17.101858
_cell_length_c 23.446013
_cell_angle_alpha 90.000000
_cell_angle_beta 90.000000
_cell_angle_gamma 90.000000
_cell_volume 2889.614732
_symmetry_space_group_name_H-M "I B A M"
_symmetry_group_IT_number 72
_symmetry_cell_setting 'orthorhombic'
loop_
_space_group_symop_operation_xyz
x,y,z
-x,-y,z
x,-y,1/2-z
-x,y,1/2-z
-x,-y,-z
x,y,-z
-x,y,1/2+z
x,-y,1/2+z
1/2+x,1/2+y,1/2+z
1/2-x,1/2-y,1/2+z
1/2+x,1/2-y,-z
1/2-x,1/2+y,-z
1/2-x,1/2-y,1/2-z
1/2+x,1/2+y,1/2-z
1/2-x,1/2+y,z
1/2+x,1/2-y,z
loop_
_atom_site_type_symbol
_atom_site_label
_atom_site_fract_x
_atom_site_fract_y
_atom_site_fract_z
Si Si1 0.106067 0.265573 0.000000
Si Si2 0.830459 0.694799 0.126614
Si Si3 0.737785 0.887453 0.000000
Si Si4 0.645011 0.067896 0.623073
Si Si5 0.538093 0.645833 0.316763
O O1 0.202815 0.283009 0.060648
O O2 0.932371 0.324783 0.000000
O O3 0.086026 0.170976 0.000000
O O4 0.657407 0.646528 0.150355
O O5 0.866245 0.772514 0.163543
O O6 0.018060 0.645066 0.128476
O O7 0.717912 0.936153 0.942195
O O8 0.821536 0.078305 0.663500
O O9 0.500000 0.000000 0.635824
O O10 0.500000 0.644759 0.250000
#
# Coordination Sequence:
#
# PCOD9525551 Si02
#       5
#     8  16   8  16  16
#     4  10  18  34  63 104 127 166 225 280 341 398
#     4  11  22  40  68 101 132 174 229 287 337 402
#     4  10  19  36  65  95 134 174 218 283 348 411
#     4  11  25  42  63  99 140 177 223 285 351 405
#     4  12  24  41  70  97 129 179 236 283 327 407
#
# _framework density 22.148281999999998
#
# number of rings (size 3 to 8) (size 9 to 14) (size 15 to 20)
#    0.000    1.000    5.000    2.625    0.000    1.000 
#    0.000    3.750    0.000    6.000    0.000    0.000 
#    0.000    0.000    0.000    0.000    0.000    0.000 
#
# Total GULP energy -178908.707651 kJ/mol
# GULP energy per Si atom -5590.897114 kJ/mol
# Density = 2.209787 g / cm^3
# Si number density = 22.148282 Si / 1000 Ang^3
#
#
#
# Elastic Constant Matrix: (Units=GPa)
#
#
# Indices 1 2 3 4 5 6 
#
# 1 101.5599 5.2771 77.8677 0.0000 0.0000 0.0000
# 2 5.2771 28.1140 37.8950 0.0000 0.0000 0.0000
# 3 77.8677 37.8950 204.0587 0.0000 0.0000 0.0000
# 4 0.0000 0.0000 0.0000 3.3066 0.0000 0.0000
# 5 0.0000 0.0000 0.0000 0.0000 22.8792 0.0000
# 6 0.0000 0.0000 0.0000 0.0000 0.0000 35.2094
#
#
#
# Elastic Compliance Matrix: (Units=1/GPa)
#
#
# Indices 1 2 3 4 5 6 
#
# 1 0.014740 0.006422 -0.006817 0.000000 0.000000 0.000000
# 2 0.006422 0.050244 -0.011781 0.000000 0.000000 0.000000
# 3 -0.006817 -0.011781 0.009690 0.000000 0.000000 0.000000
# 4 0.000000 0.000000 0.000000 0.302424 0.000000 0.000000
# 5 0.000000 0.000000 0.000000 0.000000 0.043708 0.000000
# 6 0.000000 0.000000 0.000000 0.000000 0.000000 0.028402
#
#
# Mechanical properties :
#
#
# Convention : Reuss Voigt Hill
#
# Bulk Modulus (GPa) = 19.87245 63.97913 41.92579
# Shear Modulus (GPa) = 10.19715 26.45856 18.32785
#
# Velocity S-wave (km/s) = 2.14803 3.46006 2.87976
# Velocity P-wave (km/s) = 3.89153 6.70165 5.47979
#
# Compressibility (1/GPa) = 0.05032093
#
# Stress axis : x y z
#
# Youngs Moduli (GPa) = 67.84462 19.90283 103.20102
#
# Poissons Ratio (x) = -0.12782 0.70354
# Poissons Ratio (y) = -0.43572 1.21585
# Poissons Ratio (z) = 0.46251 0.23448
#
# Static dielectric constant tensor:
#      x y z
#    x 1.893090 0.000000 0.000000 
#    y 0.000000 1.858500 0.000000 
#    z 0.000000 0.000000 1.768630 
# 
# From -- ./inp_files/42039.got.cif
#   From: 2010.05.17/outbox.cif.g08.bks.cpg/sg72_22_cif.got.tgz:42039.got - 2010.06.03 17:03:01.
