data_PCOD9525137
_publ_section_title
;
Structure prediction by ZEFSAII (Michael W. Deem and Ramdas Pophale) SiO2 
 PCOD9525137
Probable space group: I B A M
;
_chemical_formula_sum "Si O2"
_cell_formula_units_Z 64
_cell_length_a 19.126425
_cell_length_b 9.786516
_cell_length_c 15.345678
_cell_angle_alpha 90.000000
_cell_angle_beta 90.000000
_cell_angle_gamma 90.000000
_cell_volume 2872.420340
_symmetry_space_group_name_H-M "I B A M"
_symmetry_group_IT_number 72
_symmetry_cell_setting 'orthorhombic'
loop_
_space_group_symop_operation_xyz
x,y,z
-x,-y,z
x,-y,1/2-z
-x,y,1/2-z
-x,-y,-z
x,y,-z
-x,y,1/2+z
x,-y,1/2+z
1/2+x,1/2+y,1/2+z
1/2-x,1/2-y,1/2+z
1/2+x,1/2-y,-z
1/2-x,1/2+y,-z
1/2-x,1/2-y,1/2-z
1/2+x,1/2+y,1/2-z
1/2-x,1/2+y,z
1/2+x,1/2-y,z
loop_
_atom_site_type_symbol
_atom_site_label
_atom_site_fract_x
_atom_site_fract_y
_atom_site_fract_z
Si Si1 0.574154 0.061888 0.152001
Si Si2 0.082266 0.841641 0.256772
Si Si3 0.175922 0.791929 0.097175
Si Si4 0.774726 0.524208 0.645921
O O1 0.586444 0.226215 0.166718
O O2 0.500000 0.000000 0.115203
O O3 0.573614 0.000000 0.250000
O O4 0.647303 0.011591 0.111622
O O5 0.117353 0.778638 0.170845
O O6 0.000000 0.853842 0.250000
O O7 0.108815 0.000000 0.250000
O O8 0.234565 0.682122 0.124009
O O9 0.214742 0.935593 0.103445
O O10 0.149467 0.770329 0.000000
O O11 0.773603 0.500000 0.750000
#
# Coordination Sequence:
#
# PCOD9525137 Si02
#       4
#    16  16  16  16
#     4  10  17  36  65  94 119 156 226 272 293 364
#     4  11  22  39  66  96 121 168 224 259 313 386
#     4  12  25  41  61  97 138 165 205 278 333 369
#     4  11  22  39  66  95 124 177 223 256 312 396
#
# _framework density 22.280863
#
# number of rings (size 3 to 8) (size 9 to 14) (size 15 to 20)
#    0.000    1.000    7.500    2.250    3.500    0.000 
#    0.000    2.500    0.000   18.750    0.000    0.000 
#    0.000    0.000    0.000    0.000    0.000    0.000 
#
# Total GULP energy -178220.784923 kJ/mol
# GULP energy per Si atom -5569.399529 kJ/mol
# Density = 2.223015 g / cm^3
# Si number density = 22.280863 Si / 1000 Ang^3
#
#
#
# Elastic Constant Matrix: (Units=GPa)
#
#
# Indices 1 2 3 4 5 6 
#
# 1 101.1559 -0.8908 20.5256 0.0000 0.0000 0.0000
# 2 -0.8908 127.3126 20.0119 0.0000 0.0000 0.0000
# 3 20.5256 20.0119 65.7008 0.0000 0.0000 0.0000
# 4 0.0000 0.0000 0.0000 -8.4373 0.0000 0.0000
# 5 0.0000 0.0000 0.0000 0.0000 -43.3734 0.0000
# 6 0.0000 0.0000 0.0000 0.0000 0.0000 11.8729
#
#
#
# Elastic Compliance Matrix: (Units=1/GPa)
#
#
# Indices 1 2 3 4 5 6 
#
# 1 0.010602 0.000625 -0.003502 0.000000 0.000000 0.000000
# 2 0.000625 0.008286 -0.002719 0.000000 0.000000 0.000000
# 3 -0.003502 -0.002719 0.017143 0.000000 0.000000 0.000000
# 4 0.000000 0.000000 0.000000 -0.118522 0.000000 0.000000
# 5 0.000000 0.000000 0.000000 0.000000 -0.023056 0.000000
# 6 0.000000 0.000000 0.000000 0.000000 0.000000 0.084225
#
#
# Mechanical properties :
#
#
# Convention : Reuss Voigt Hill
#
# Bulk Modulus (GPa) = 40.26155 41.49585 40.87870
# Shear Modulus (GPa) = -2706.31581 8.98061 -1348.66760
#
# Velocity S-wave (km/s) = -34.88945 2.00982 -24.62960
# Velocity P-wave (km/s) = 40.06148 4.90411 28.11470
#
# Compressibility (1/GPa) = 0.02483759
#
# Stress axis : x y z
#
# Youngs Moduli (GPa) = 94.32258 120.67864 58.33304
#
# Poissons Ratio (x) = -0.07539 0.20431
# Poissons Ratio (y) = -0.05893 0.15862
# Poissons Ratio (z) = 0.33036 0.32814
#
# Static dielectric constant tensor:
#      x y z
#    x 1.816410 0.000000 0.000000 
#    y 0.000000 1.999210 0.000000 
#    z 0.000000 0.000000 1.841390 
# 
# From -- ./inp_files/24752.got.cif
#   From: 2010.05.17/outbox.cif.g08.bks.cpg/sg72_13_cif.got.tgz:24752.got - 2010.06.03 17:03:01.
