data_PCOD9525065
_publ_section_title
;
Structure prediction by ZEFSAII (Michael W. Deem and Ramdas Pophale) SiO2 
 PCOD9525065
Probable space group: I B A M
;
_chemical_formula_sum "Si O2"
_cell_formula_units_Z 112
_cell_length_a 24.004403
_cell_length_b 13.191936
_cell_length_c 19.214805
_cell_angle_alpha 90.000000
_cell_angle_beta 90.000000
_cell_angle_gamma 90.000000
_cell_volume 6084.647542
_symmetry_space_group_name_H-M "I B A M"
_symmetry_group_IT_number 72
_symmetry_cell_setting 'orthorhombic'
loop_
_space_group_symop_operation_xyz
x,y,z
-x,-y,z
x,-y,1/2-z
-x,y,1/2-z
-x,-y,-z
x,y,-z
-x,y,1/2+z
x,-y,1/2+z
1/2+x,1/2+y,1/2+z
1/2-x,1/2-y,1/2+z
1/2+x,1/2-y,-z
1/2-x,1/2+y,-z
1/2-x,1/2-y,1/2-z
1/2+x,1/2+y,1/2-z
1/2-x,1/2+y,z
1/2+x,1/2-y,z
loop_
_atom_site_type_symbol
_atom_site_label
_atom_site_fract_x
_atom_site_fract_y
_atom_site_fract_z
Si Si1 0.358481 0.365501 0.079977
Si Si2 0.725310 0.131565 0.919073
Si Si3 0.369051 0.445987 0.677945
Si Si4 0.062923 0.486171 0.165735
Si Si5 0.124932 0.280568 0.833435
Si Si6 0.737129 0.055521 0.678661
Si Si7 0.864288 0.320683 0.830737
O O1 0.291493 0.347090 0.083312
O O2 0.372668 0.470714 0.117602
O O3 0.383166 0.273115 0.123422
O O4 0.375164 0.366344 0.000000
O O5 0.683492 0.200052 0.873354
O O6 0.724146 0.020856 0.883890
O O7 0.708270 0.133236 0.000000
O O8 0.388228 0.500000 0.750000
O O9 0.393867 0.336376 0.658254
O O10 0.302533 0.425555 0.687370
O O11 0.061793 0.500000 0.250000
O O12 0.086172 0.375802 0.145065
O O13 0.103523 0.578165 0.145486
O O14 0.000000 0.500000 0.140461
O O15 0.128146 0.294788 0.750234
O O16 0.701168 0.154188 0.665451
O O17 0.717418 0.000000 0.750000
#
# Coordination Sequence:
#
# PCOD9525065 Si02
#       7
#    16  16  16  16  16  16  16
#     4  10  22  35  49  77 114 149 179 218 268 319
#     4  10  20  32  47  76 113 145 183 221 265 323
#     4  10  20  31  50  78 108 143 183 221 253 318
#     4   9  19  35  57  86 110 133 174 236 290 321
#     4  11  19  33  56  78 105 143 184 225 273 322
#     4  10  17  29  48  75 107 143 180 222 263 315
#     4  11  18  32  56  79 104 142 185 223 269 325
#
# _framework density 18.406981999999999
#
# number of rings (size 3 to 8) (size 9 to 14) (size 15 to 20)
#    0.000    1.857    4.286    1.286    0.000    2.286 
#    0.000    2.857    0.000    2.571    0.000    1.000 
#    0.000    0.000    0.000    0.000    0.000    0.000 
#
# Total GULP energy -312046.168313 kJ/mol
# GULP energy per Si atom -5572.253006 kJ/mol
# Density = 1.836509 g / cm^3
# Si number density = 18.406982 Si / 1000 Ang^3
#
#
#
# Elastic Constant Matrix: (Units=GPa)
#
#
# Indices 1 2 3 4 5 6 
#
# 1 29.9108 23.8903 11.9820 0.0000 0.0000 0.0000
# 2 23.8903 141.5721 48.1168 0.0000 0.0000 0.0000
# 3 11.9820 48.1168 97.0081 0.0000 0.0000 0.0000
# 4 0.0000 0.0000 0.0000 16.7018 0.0000 0.0000
# 5 0.0000 0.0000 0.0000 0.0000 4.2352 0.0000
# 6 0.0000 0.0000 0.0000 0.0000 0.0000 8.8505
#
#
#
# Elastic Compliance Matrix: (Units=1/GPa)
#
#
# Indices 1 2 3 4 5 6 
#
# 1 0.038919 -0.005934 -0.001864 0.000000 0.000000 0.000000
# 2 -0.005934 0.009401 -0.003930 0.000000 0.000000 0.000000
# 3 -0.001864 -0.003930 0.012488 0.000000 0.000000 0.000000
# 4 0.000000 0.000000 0.000000 0.059874 0.000000 0.000000
# 5 0.000000 0.000000 0.000000 0.000000 0.236117 0.000000
# 6 0.000000 0.000000 0.000000 0.000000 0.000000 0.112988
#
#
# Mechanical properties :
#
#
# Convention : Reuss Voigt Hill
#
# Bulk Modulus (GPa) = 26.77228 48.49660 37.63444
# Shear Modulus (GPa) = 9.88744 18.25762 14.07253
#
# Velocity S-wave (km/s) = 2.32018 3.15284 2.76800
# Velocity P-wave (km/s) = 4.66410 6.29745 5.54129
#
# Compressibility (1/GPa) = 0.03735206
#
# Stress axis : x y z
#
# Youngs Moduli (GPa) = 25.69437 106.37644 80.07795
#
# Poissons Ratio (x) = 0.63126 0.14924
# Poissons Ratio (y) = 0.15247 0.31469
# Poissons Ratio (z) = 0.04789 0.41804
#
# Static dielectric constant tensor:
#      x y z
#    x 1.648030 0.000000 0.000000 
#    y 0.000000 1.661740 0.000000 
#    z 0.000000 0.000000 1.635980 
# 
# From -- ./inp_files/40872.got.cif
#   From: 2010.05.17/outbox.cif.g08.bks.cpg/sg72_21_cif.got.tgz:40872.got - 2010.06.03 17:03:01.
