data_PCOD9525611
_publ_section_title
;
Structure prediction by ZEFSAII (Michael W. Deem and Ramdas Pophale) SiO2 
 PCOD9525611
Probable space group: I B A M
;
_chemical_formula_sum "Si O2"
_cell_formula_units_Z 108
_cell_length_a 31.239538
_cell_length_b 5.185592
_cell_length_c 32.149744
_cell_angle_alpha 90.000000
_cell_angle_beta 90.000000
_cell_angle_gamma 90.000000
_cell_volume 5208.113801
_symmetry_space_group_name_H-M "I B A M"
_symmetry_group_IT_number 72
_symmetry_cell_setting 'orthorhombic'
loop_
_space_group_symop_operation_xyz
x,y,z
-x,-y,z
x,-y,1/2-z
-x,y,1/2-z
-x,-y,-z
x,y,-z
-x,y,1/2+z
x,-y,1/2+z
1/2+x,1/2+y,1/2+z
1/2-x,1/2-y,1/2+z
1/2+x,1/2-y,-z
1/2-x,1/2+y,-z
1/2-x,1/2-y,1/2-z
1/2+x,1/2+y,1/2-z
1/2-x,1/2+y,z
1/2+x,1/2-y,z
loop_
_atom_site_type_symbol
_atom_site_label
_atom_site_fract_x
_atom_site_fract_y
_atom_site_fract_z
Si Si1 0.080892 0.772354 0.547602
Si Si2 0.500000 0.500000 0.750000
Si Si3 0.778749 0.304027 0.895154
Si Si4 0.860724 0.272628 0.952613
Si Si5 0.221647 0.685685 0.202582
Si Si6 0.529286 0.749434 0.630580
Si Si7 0.151458 0.000000 0.250000
Si Si8 0.077732 0.298146 0.788524
O O1 0.063746 0.784641 0.500000
O O2 0.104878 0.500068 0.552945
O O3 0.047460 0.802427 0.584661
O O4 0.115458 0.000557 0.551945
O O5 0.467547 0.327282 0.724199
O O6 0.750444 0.555705 0.903832
O O7 0.821738 0.300127 0.921357
O O8 0.789580 0.301468 0.846097
O O9 0.844453 0.292171 0.000000
O O10 0.241044 0.400813 0.209415
O O11 0.181290 0.785396 0.228686
O O12 0.500000 0.500000 0.642285
O O13 0.567825 0.830866 0.662599
O O14 0.500000 0.000000 0.629920
O O15 0.119161 0.118381 0.216112
O O16 0.084139 0.500000 0.750000
#
# Coordination Sequence:
#
# PCOD9525611 Si02
#       8
#    16   4  16  16  16  16   8  16
#     4  10  23  42  66  97 130 169 213 268 326 383
#     4  10  18  44  60  78 130 164 194 268 318 382
#     4  10  21  37  59  91 124 166 210 259 315 376
#     4  10  21  39  63  92 131 169 208 264 324 378
#     4  10  23  42  63  87 128 167 209 265 320 371
#     4  12  26  45  69  97 129 171 217 263 332 392
#     4  11  26  39  64  94 118 168 220 259 318 385
#     4  11  25  40  64  94 127 168 219 266 326 386
#
# _framework density 20.736872999999999
#
# number of rings (size 3 to 8) (size 9 to 14) (size 15 to 20)
#    0.000    1.481    0.741    3.333    6.222    2.370 
#    0.000    0.000    0.000    0.000    0.000    0.000 
#    0.000    0.000    0.000    0.000    0.000    0.000 
#
# Total GULP energy -301535.633604 kJ/mol
# GULP energy per Si atom -5583.993215 kJ/mol
# Density = 2.068967 g / cm^3
# Si number density = 20.736873 Si / 1000 Ang^3
#
#
#
# Elastic Constant Matrix: (Units=GPa)
#
#
# Indices 1 2 3 4 5 6 
#
# 1 100.1605 23.3971 60.2215 0.0000 0.0000 0.0000
# 2 23.3971 86.2861 22.9563 0.0000 0.0000 0.0000
# 3 60.2215 22.9563 122.4112 0.0000 0.0000 0.0000
# 4 0.0000 0.0000 0.0000 67.3989 0.0000 0.0000
# 5 0.0000 0.0000 0.0000 0.0000 -73.1685 0.0000
# 6 0.0000 0.0000 0.0000 0.0000 0.0000 24.6225
#
#
#
# Elastic Compliance Matrix: (Units=1/GPa)
#
#
# Indices 1 2 3 4 5 6 
#
# 1 0.014546 -0.002148 -0.006753 0.000000 0.000000 0.000000
# 2 -0.002148 0.012515 -0.001290 0.000000 0.000000 0.000000
# 3 -0.006753 -0.001290 0.011734 0.000000 0.000000 0.000000
# 4 0.000000 0.000000 0.000000 0.014837 0.000000 0.000000
# 5 0.000000 0.000000 0.000000 0.000000 -0.013667 0.000000
# 6 0.000000 0.000000 0.000000 0.000000 0.000000 0.040613
#
#
# Mechanical properties :
#
#
# Convention : Reuss Voigt Hill
#
# Bulk Modulus (GPa) = 54.31275 58.00086 56.15680
# Shear Modulus (GPa) = 46.68622 17.25611 31.97117
#
# Velocity S-wave (km/s) = 4.75000 2.88782 3.93078
# Velocity P-wave (km/s) = 7.50544 6.25700 6.90947
#
# Compressibility (1/GPa) = 0.01841188
#
# Stress axis : x y z
#
# Youngs Moduli (GPa) = 68.74700 79.90403 85.22542
#
# Poissons Ratio (x) = 0.17160 0.57556
# Poissons Ratio (y) = 0.14764 0.10998
# Poissons Ratio (z) = 0.46427 0.10311
#
# Static dielectric constant tensor:
#      x y z
#    x 1.701540 0.000000 0.000000 
#    y 0.000000 1.761220 0.000000 
#    z 0.000000 0.000000 1.809130 
# 
# From -- ./inp_files/52601.got.cif
#   From: 2010.05.17/outbox.cif.g08.bks.cpg/sg72_27_cif.got.tgz:52601.got - 2010.06.03 17:03:01.
