data_PCOD9525714
_publ_section_title
;
Structure prediction by ZEFSAII (Michael W. Deem and Ramdas Pophale) SiO2 
 PCOD9525714
Probable space group: I B A M
;
_chemical_formula_sum "Si O2"
_cell_formula_units_Z 112
_cell_length_a 27.540547
_cell_length_b 18.050586
_cell_length_c 14.440066
_cell_angle_alpha 90.000000
_cell_angle_beta 90.000000
_cell_angle_gamma 90.000000
_cell_volume 7178.489105
_symmetry_space_group_name_H-M "I B A M"
_symmetry_group_IT_number 72
_symmetry_cell_setting 'orthorhombic'
loop_
_space_group_symop_operation_xyz
x,y,z
-x,-y,z
x,-y,1/2-z
-x,y,1/2-z
-x,-y,-z
x,y,-z
-x,y,1/2+z
x,-y,1/2+z
1/2+x,1/2+y,1/2+z
1/2-x,1/2-y,1/2+z
1/2+x,1/2-y,-z
1/2-x,1/2+y,-z
1/2-x,1/2-y,1/2-z
1/2+x,1/2+y,1/2-z
1/2-x,1/2+y,z
1/2+x,1/2-y,z
loop_
_atom_site_type_symbol
_atom_site_label
_atom_site_fract_x
_atom_site_fract_y
_atom_site_fract_z
Si Si1 0.169856 0.775771 0.759577
Si Si2 0.110201 0.153801 0.110970
Si Si3 0.850678 0.000183 0.106542
Si Si4 0.736592 0.009297 0.106896
Si Si5 0.006052 0.913489 0.387983
Si Si6 0.769227 0.371651 0.757362
Si Si7 0.403353 0.356076 0.887916
O O1 0.136514 0.781932 0.667600
O O2 0.193424 0.695290 0.770720
O O3 0.216143 0.832509 0.754501
O O4 0.132280 0.797456 0.840824
O O5 0.055883 0.127917 0.137338
O O6 0.141375 0.081831 0.140547
O O7 0.112334 0.165879 0.000000
O O8 0.882564 0.064913 0.147085
O O9 0.794790 0.020430 0.108980
O O10 0.867438 0.995768 0.000000
O O11 0.729275 0.930774 0.158479
O O12 0.717911 0.077835 0.167969
O O13 0.720787 0.008448 0.000000
O O14 0.006628 0.918172 0.500000
O O15 0.959937 0.862656 0.363042
O O16 0.000000 0.000000 0.357080
O O17 0.399356 0.350943 0.000000
#
# Coordination Sequence:
#
# PCOD9525714 Si02
#       7
#    16  16  16  16  16  16  16
#     4  11  22  33  45  68 103 131 160 200 242 293
#     4  10  19  31  47  67  98 136 170 203 236 271
#     4   9  15  26  45  67  91 127 164 197 232 266
#     4  10  19  35  55  70  89 123 168 210 244 281
#     4   9  16  29  47  69  98 131 173 211 228 259
#     4  10  22  34  48  72  95 124 165 205 243 288
#     4  10  19  31  47  67  98 136 170 203 236 271
#
# _framework density 15.602169
#
# number of rings (size 3 to 8) (size 9 to 14) (size 15 to 20)
#    0.000    2.143    4.286    0.000    0.000    2.286 
#    0.000    3.571    0.000    0.000    0.000    0.000 
#    0.000    9.143    0.000   25.714    0.000    0.000 
#
# Total GULP energy -311825.604472 kJ/mol
# GULP energy per Si atom -5568.314366 kJ/mol
# Density = 1.556666 g / cm^3
# Si number density = 15.602169 Si / 1000 Ang^3
#
#
#
# Elastic Constant Matrix: (Units=GPa)
#
#
# Indices 1 2 3 4 5 6 
#
# 1 67.5046 31.1778 15.2421 0.0000 0.0000 0.0000
# 2 31.1778 76.8666 23.3250 0.0000 0.0000 0.0000
# 3 15.2421 23.3250 77.8240 0.0000 0.0000 0.0000
# 4 0.0000 0.0000 0.0000 14.7124 0.0000 0.0000
# 5 0.0000 0.0000 0.0000 0.0000 10.8974 0.0000
# 6 0.0000 0.0000 0.0000 0.0000 0.0000 27.2190
#
#
#
# Elastic Compliance Matrix: (Units=1/GPa)
#
#
# Indices 1 2 3 4 5 6 
#
# 1 0.018387 -0.007002 -0.001503 0.000000 0.000000 0.000000
# 2 -0.007002 0.016978 -0.003717 0.000000 0.000000 0.000000
# 3 -0.001503 -0.003717 0.014258 0.000000 0.000000 0.000000
# 4 0.000000 0.000000 0.000000 0.067970 0.000000 0.000000
# 5 0.000000 0.000000 0.000000 0.000000 0.091765 0.000000
# 6 0.000000 0.000000 0.000000 0.000000 0.000000 0.036739
#
#
# Mechanical properties :
#
#
# Convention : Reuss Voigt Hill
#
# Bulk Modulus (GPa) = 39.71535 40.18724 39.95129
# Shear Modulus (GPa) = 17.92548 20.72911 19.32729
#
# Velocity S-wave (km/s) = 3.39323 3.64896 3.52342
# Velocity P-wave (km/s) = 6.39236 6.60050 6.49726
#
# Compressibility (1/GPa) = 0.02517918
#
# Stress axis : x y z
#
# Youngs Moduli (GPa) = 54.38617 58.90127 70.13679
#
# Poissons Ratio (x) = 0.41243 0.10539
# Poissons Ratio (y) = 0.38081 0.26070
# Poissons Ratio (z) = 0.08172 0.21894
#
# Static dielectric constant tensor:
#      x y z
#    x 1.518130 0.000000 0.000000 
#    y 0.000000 1.508650 0.000000 
#    z 0.000000 0.000000 1.590190 
# 
# From -- ./inp_files/26521.got.cif
#   From: 2010.05.17/outbox.cif.g08.bks.cpg/sg72_14_cif.got.tgz:26521.got - 2010.06.03 17:03:01.
