data_PCOD9525071
_publ_section_title
;
Structure prediction by ZEFSAII (Michael W. Deem and Ramdas Pophale) SiO2 
 PCOD9525071
Probable space group: I B A M
;
_chemical_formula_sum "Si O2"
_cell_formula_units_Z 112
_cell_length_a 19.318102
_cell_length_b 19.645328
_cell_length_c 14.504659
_cell_angle_alpha 90.000000
_cell_angle_beta 90.000000
_cell_angle_gamma 90.000000
_cell_volume 5504.669666
_symmetry_space_group_name_H-M "I B A M"
_symmetry_group_IT_number 72
_symmetry_cell_setting 'orthorhombic'
loop_
_space_group_symop_operation_xyz
x,y,z
-x,-y,z
x,-y,1/2-z
-x,y,1/2-z
-x,-y,-z
x,y,-z
-x,y,1/2+z
x,-y,1/2+z
1/2+x,1/2+y,1/2+z
1/2-x,1/2-y,1/2+z
1/2+x,1/2-y,-z
1/2-x,1/2+y,-z
1/2-x,1/2-y,1/2-z
1/2+x,1/2+y,1/2-z
1/2-x,1/2+y,z
1/2+x,1/2-y,z
loop_
_atom_site_type_symbol
_atom_site_label
_atom_site_fract_x
_atom_site_fract_y
_atom_site_fract_z
Si Si1 0.145893 0.200140 0.612516
Si Si2 0.773138 0.611724 0.106455
Si Si3 0.511471 0.318602 0.887234
Si Si4 0.221967 0.972841 0.647258
Si Si5 0.432803 0.465018 0.649229
Si Si6 0.742294 0.179332 0.611154
Si Si7 0.628795 0.223294 0.111770
O O1 0.143395 0.199614 0.500000
O O2 0.201296 0.143308 0.644914
O O3 0.178320 0.272864 0.640612
O O4 0.068178 0.185476 0.642622
O O5 0.770666 0.530926 0.105726
O O6 0.839555 0.651541 0.145383
O O7 0.770985 0.633627 0.000000
O O8 0.548797 0.385679 0.849123
O O9 0.555518 0.252753 0.857458
O O10 0.513227 0.323896 0.000000
O O11 0.215513 0.000000 0.750000
O O12 0.143794 0.973165 0.607066
O O13 0.252628 0.897492 0.645286
O O14 0.500000 0.500000 0.603287
O O15 0.429326 0.500000 0.750000
O O16 0.740131 0.175356 0.500000
O O17 0.811845 0.221231 0.634562
O O18 0.622774 0.220990 0.000000
#
# Coordination Sequence:
#
# PCOD9525071 Si02
#       7
#    16  16  16  16  16  16  16
#     4   8  16  29  49  75  99 121 162 213 250 289
#     4   9  17  31  49  70  96 127 159 201 252 298
#     4  10  17  29  52  77  96 125 167 209 244 291
#     4  11  21  31  47  71 101 132 169 203 240 290
#     4  10  21  33  45  65 108 142 158 186 246 301
#     4   9  16  31  51  71  97 131 163 202 254 297
#     4   8  15  28  48  71  95 122 160 203 246 291
#
# _framework density 20.346361000000002
#
# number of rings (size 3 to 8) (size 9 to 14) (size 15 to 20)
#    0.000    2.714    1.429    3.000    0.000    0.857 
#    0.000    2.857    6.286    0.857    0.000    6.000 
#    0.000    0.000    0.000    0.000    0.000    0.000 
#
# Total GULP energy -312371.351238 kJ/mol
# GULP energy per Si atom -5578.059844 kJ/mol
# Density = 2.030005 g / cm^3
# Si number density = 20.346361 Si / 1000 Ang^3
#
#
#
# Elastic Constant Matrix: (Units=GPa)
#
#
# Indices 1 2 3 4 5 6 
#
# 1 54.1805 23.2483 6.2223 0.0000 0.0000 0.0000
# 2 23.2483 115.5409 6.1228 0.0000 0.0000 0.0000
# 3 6.2223 6.1228 57.9603 0.0000 0.0000 0.0000
# 4 0.0000 0.0000 0.0000 13.0267 0.0000 0.0000
# 5 0.0000 0.0000 0.0000 0.0000 2.4158 0.0000
# 6 0.0000 0.0000 0.0000 0.0000 0.0000 28.6404
#
#
#
# Elastic Compliance Matrix: (Units=1/GPa)
#
#
# Indices 1 2 3 4 5 6 
#
# 1 0.020379 -0.004007 -0.001764 0.000000 0.000000 0.000000
# 2 -0.004007 0.009492 -0.000572 0.000000 0.000000 0.000000
# 3 -0.001764 -0.000572 0.017503 0.000000 0.000000 0.000000
# 4 0.000000 0.000000 0.000000 0.076765 0.000000 0.000000
# 5 0.000000 0.000000 0.000000 0.000000 0.413949 0.000000
# 6 0.000000 0.000000 0.000000 0.000000 0.000000 0.034916
#
#
# Mechanical properties :
#
#
# Convention : Reuss Voigt Hill
#
# Bulk Modulus (GPa) = 28.83042 33.20759 31.01901
# Shear Modulus (GPa) = 8.37166 21.62247 14.99706
#
# Velocity S-wave (km/s) = 2.03064 3.26347 2.71788
# Velocity P-wave (km/s) = 4.43831 5.52783 5.01276
#
# Compressibility (1/GPa) = 0.03468558
#
# Stress axis : x y z
#
# Youngs Moduli (GPa) = 49.07054 105.35707 57.13275
#
# Poissons Ratio (x) = 0.42216 0.10081
# Poissons Ratio (y) = 0.19662 0.03271
# Poissons Ratio (z) = 0.08658 0.06032
#
# Static dielectric constant tensor:
#      x y z
#    x 1.729790 0.000000 0.000000 
#    y 0.000000 1.727720 0.000000 
#    z 0.000000 0.000000 1.859370 
# 
# From -- ./inp_files/32744.got.cif
#   From: 2010.05.17/outbox.cif.g08.bks.cpg/sg72_17_cif.got.tgz:32744.got - 2010.06.03 17:03:01.
