data_PCOD9525374
_publ_section_title
;
Structure prediction by ZEFSAII (Michael W. Deem and Ramdas Pophale) SiO2 
 PCOD9525374
Probable space group: I B A M
;
_chemical_formula_sum "Si O2"
_cell_formula_units_Z 116
_cell_length_a 18.349784
_cell_length_b 19.599147
_cell_length_c 15.243453
_cell_angle_alpha 90.000000
_cell_angle_beta 90.000000
_cell_angle_gamma 90.000000
_cell_volume 5482.157175
_symmetry_space_group_name_H-M "I B A M"
_symmetry_group_IT_number 72
_symmetry_cell_setting 'orthorhombic'
loop_
_space_group_symop_operation_xyz
x,y,z
-x,-y,z
x,-y,1/2-z
-x,y,1/2-z
-x,-y,-z
x,y,-z
-x,y,1/2+z
x,-y,1/2+z
1/2+x,1/2+y,1/2+z
1/2-x,1/2-y,1/2+z
1/2+x,1/2-y,-z
1/2-x,1/2+y,-z
1/2-x,1/2-y,1/2-z
1/2+x,1/2+y,1/2-z
1/2-x,1/2+y,z
1/2+x,1/2-y,z
loop_
_atom_site_type_symbol
_atom_site_label
_atom_site_fract_x
_atom_site_fract_y
_atom_site_fract_z
Si Si1 0.500000 0.000000 0.750000
Si Si2 0.876330 0.957678 0.893068
Si Si3 0.521629 0.336649 0.893552
Si Si4 0.073412 0.625154 0.162071
Si Si5 0.629713 0.615280 0.107176
Si Si6 0.709694 0.101939 0.896649
Si Si7 0.071227 0.689834 0.648822
Si Si8 0.787671 0.447655 0.105431
O O1 0.546697 0.050109 0.690448
O O2 0.937150 0.904877 0.863272
O O3 0.795258 0.934773 0.865196
O O4 0.886571 0.036522 0.868227
O O5 0.877648 0.957320 0.000000
O O6 0.437580 0.338443 0.862736
O O7 0.564597 0.269690 0.865378
O O8 0.521358 0.337180 0.000000
O O9 0.076347 0.670916 0.248820
O O10 0.153702 0.610322 0.127488
O O11 0.004417 0.657135 0.111023
O O12 0.712348 0.629045 0.137973
O O13 0.629093 0.619048 0.000000
O O14 0.642342 0.152429 0.887494
O O15 0.694104 0.025112 0.861779
O O16 0.721579 0.092514 0.000000
O O17 0.787174 0.450529 0.000000
#
# Coordination Sequence:
#
# PCOD9525374 Si02
#       8
#     4  16  16  16  16  16  16  16
#     4   8  16  32  54  72  92 140 180 210 244 288
#     4   8  15  29  51  80 107 130 168 222 270 306
#     4  10  18  31  52  78 105 139 179 213 256 315
#     4  10  20  35  52  72 101 139 180 214 254 310
#     4   8  15  29  52  80 107 135 170 219 265 306
#     4   9  17  31  52  81 111 134 166 215 268 311
#     4  10  21  34  49  71 106 147 175 209 253 314
#     4   9  17  31  53  79 104 130 169 226 272 307
#
# _framework density 21.159552999999999
#
# number of rings (size 3 to 8) (size 9 to 14) (size 15 to 20)
#    0.000    3.034    0.000    4.138    0.000    2.759 
#    2.483    2.414    3.034    0.000    0.000    3.862 
#    0.000    0.000    0.000    0.000    0.000    0.552 
#
# Total GULP energy -323286.879267 kJ/mol
# GULP energy per Si atom -5573.911712 kJ/mol
# Density = 2.111139 g / cm^3
# Si number density = 21.159553 Si / 1000 Ang^3
#
#
#
# Elastic Constant Matrix: (Units=GPa)
#
#
# Indices 1 2 3 4 5 6 
#
# 1 138.9530 40.3011 12.1010 0.0000 0.0000 0.0000
# 2 40.3011 42.6593 4.7478 0.0000 0.0000 0.0000
# 3 12.1010 4.7478 18.8887 0.0000 0.0000 0.0000
# 4 0.0000 0.0000 0.0000 12.1035 0.0000 0.0000
# 5 0.0000 0.0000 0.0000 0.0000 77.9249 0.0000
# 6 0.0000 0.0000 0.0000 0.0000 0.0000 28.5424
#
#
#
# Elastic Compliance Matrix: (Units=1/GPa)
#
#
# Indices 1 2 3 4 5 6 
#
# 1 0.010233 -0.009195 -0.004245 0.000000 0.000000 0.000000
# 2 -0.009195 0.032379 -0.002248 0.000000 0.000000 0.000000
# 3 -0.004245 -0.002248 0.056226 0.000000 0.000000 0.000000
# 4 0.000000 0.000000 0.000000 0.082621 0.000000 0.000000
# 5 0.000000 0.000000 0.000000 0.000000 0.012833 0.000000
# 6 0.000000 0.000000 0.000000 0.000000 0.000000 0.035036
#
#
# Mechanical properties :
#
#
# Convention : Reuss Voigt Hill
#
# Bulk Modulus (GPa) = 14.82297 34.97786 24.90041
# Shear Modulus (GPa) = 17.65602 33.27090 25.46346
#
# Velocity S-wave (km/s) = 2.89177 3.96963 3.47277
# Velocity P-wave (km/s) = 4.26267 6.13001 5.27955
#
# Compressibility (1/GPa) = 0.06746286
#
# Stress axis : x y z
#
# Youngs Moduli (GPa) = 97.72082 30.88461 17.78535
#
# Poissons Ratio (x) = 0.28399 0.07549
# Poissons Ratio (y) = 0.89856 0.03998
# Poissons Ratio (z) = 0.41479 0.06942
#
# Static dielectric constant tensor:
#      x y z
#    x 1.790190 0.000000 0.000000 
#    y 0.000000 1.726100 0.000000 
#    z 0.000000 0.000000 1.806950 
# 
# From -- ./inp_files/31757.got.cif
#   From: 2010.05.17/outbox.cif.g08.bks.cpg/sg72_16_cif.got.tgz:31757.got - 2010.06.03 17:03:01.
