data_PCOD9525349
_publ_section_title
;
Structure prediction by ZEFSAII (Michael W. Deem and Ramdas Pophale) SiO2 
 PCOD9525349
Probable space group: I B A M
;
_chemical_formula_sum "Si O2"
_cell_formula_units_Z 112
_cell_length_a 28.314412
_cell_length_b 14.465818
_cell_length_c 14.288140
_cell_angle_alpha 90.000000
_cell_angle_beta 90.000000
_cell_angle_gamma 90.000000
_cell_volume 5852.295419
_symmetry_space_group_name_H-M "I B A M"
_symmetry_group_IT_number 72
_symmetry_cell_setting 'orthorhombic'
loop_
_space_group_symop_operation_xyz
x,y,z
-x,-y,z
x,-y,1/2-z
-x,y,1/2-z
-x,-y,-z
x,y,-z
-x,y,1/2+z
x,-y,1/2+z
1/2+x,1/2+y,1/2+z
1/2-x,1/2-y,1/2+z
1/2+x,1/2-y,-z
1/2-x,1/2+y,-z
1/2-x,1/2-y,1/2-z
1/2+x,1/2+y,1/2-z
1/2-x,1/2+y,z
1/2+x,1/2-y,z
loop_
_atom_site_type_symbol
_atom_site_label
_atom_site_fract_x
_atom_site_fract_y
_atom_site_fract_z
Si Si1 0.314434 0.543349 0.393529
Si Si2 0.552272 0.322704 0.395132
Si Si3 0.696663 0.244784 0.611251
Si Si4 0.422230 0.485869 0.639449
Si Si5 0.701663 0.345430 0.887505
Si Si6 0.625512 0.247817 0.753973
Si Si7 0.947971 0.771062 0.892542
O O1 0.297371 0.549562 0.500000
O O2 0.306801 0.646935 0.358391
O O3 0.369658 0.515104 0.392524
O O4 0.291004 0.451084 0.353426
O O5 0.566936 0.294482 0.500000
O O6 0.544234 0.433023 0.397764
O O7 0.592820 0.304088 0.319829
O O8 0.503579 0.272660 0.369718
O O9 0.684624 0.237190 0.500000
O O10 0.749733 0.209678 0.623129
O O11 0.660509 0.194913 0.682683
O O12 0.423862 0.500000 0.750000
O O13 0.433127 0.380156 0.615347
O O14 0.659969 0.301087 0.826552
O O15 0.689970 0.346224 0.000000
O O16 0.584903 0.211521 0.823935
O O17 0.941941 0.743462 0.000000
#
# Coordination Sequence:
#
# PCOD9525349 Si02
#       7
#    16  16  16  16  16  16  16
#     4  10  18  31  49  68  94 130 168 205 244 292
#     4  11  22  32  44  65  95 130 169 208 242 283
#     4  10  21  35  51  72  96 126 168 214 256 296
#     4  12  19  29  46  66  92 131 173 208 241 284
#     4  10  21  35  51  72  96 126 168 214 256 296
#     4  12  20  33  49  67  91 128 168 210 244 292
#     4  11  22  32  44  65  95 130 169 208 242 283
#
# _framework density 19.137791
#
# number of rings (size 3 to 8) (size 9 to 14) (size 15 to 20)
#    0.000    1.143    4.286    3.429    0.000    1.714 
#    0.000    0.000    0.000    0.000    0.000    0.000 
#    0.000    0.000    0.000   10.286    0.000  105.143 
#
# Total GULP energy -312069.939346 kJ/mol
# GULP energy per Si atom -5572.677488 kJ/mol
# Density = 1.909423 g / cm^3
# Si number density = 19.137791 Si / 1000 Ang^3
#
#
#
# Elastic Constant Matrix: (Units=GPa)
#
#
# Indices 1 2 3 4 5 6 
#
# 1 113.3728 18.5212 52.3126 0.0000 0.0000 0.0000
# 2 18.5212 15.8426 4.3541 0.0000 0.0000 0.0000
# 3 52.3126 4.3541 126.9347 0.0000 0.0000 0.0000
# 4 0.0000 0.0000 0.0000 12.7175 0.0000 0.0000
# 5 0.0000 0.0000 0.0000 0.0000 47.0551 0.0000
# 6 0.0000 0.0000 0.0000 0.0000 0.0000 25.0619
#
#
#
# Elastic Compliance Matrix: (Units=1/GPa)
#
#
# Indices 1 2 3 4 5 6 
#
# 1 0.013516 -0.014406 -0.005076 0.000000 0.000000 0.000000
# 2 -0.014406 0.079077 0.003225 0.000000 0.000000 0.000000
# 3 -0.005076 0.003225 0.009859 0.000000 0.000000 0.000000
# 4 0.000000 0.000000 0.000000 0.078632 0.000000 0.000000
# 5 0.000000 0.000000 0.000000 0.000000 0.021252 0.000000
# 6 0.000000 0.000000 0.000000 0.000000 0.000000 0.039901
#
#
# Mechanical properties :
#
#
# Convention : Reuss Voigt Hill
#
# Bulk Modulus (GPa) = 14.29866 45.16953 29.73409
# Shear Modulus (GPa) = 16.77489 29.03104 22.90297
#
# Velocity S-wave (km/s) = 2.96384 3.89903 3.46315
# Velocity P-wave (km/s) = 4.38179 6.62747 5.61799
#
# Compressibility (1/GPa) = 0.06993664
#
# Stress axis : x y z
#
# Youngs Moduli (GPa) = 73.98527 12.64597 101.42549
#
# Poissons Ratio (x) = 0.18218 0.51485
# Poissons Ratio (y) = 1.06586 -0.32707
# Poissons Ratio (z) = 0.37556 -0.04078
#
# Static dielectric constant tensor:
#      x y z
#    x 1.713080 0.000000 0.000000 
#    y 0.000000 1.661970 0.000000 
#    z 0.000000 0.000000 1.752770 
# 
# From -- ./inp_files/25934.got.cif
#   From: 2010.05.17/outbox.cif.g08.bks.cpg/sg72_13_cif.got.tgz:25934.got - 2010.06.03 17:03:01.
