data_PCOD9525911
_publ_section_title
;
Structure prediction by ZEFSAII (Michael W. Deem and Ramdas Pophale) SiO2 
 PCOD9525911
Probable space group: I B A M
;
_chemical_formula_sum "Si O2"
_cell_formula_units_Z 80
_cell_length_a 17.063030
_cell_length_b 13.860647
_cell_length_c 17.018691
_cell_angle_alpha 90.000000
_cell_angle_beta 90.000000
_cell_angle_gamma 90.000000
_cell_volume 4024.999313
_symmetry_space_group_name_H-M "I B A M"
_symmetry_group_IT_number 72
_symmetry_cell_setting 'orthorhombic'
loop_
_space_group_symop_operation_xyz
x,y,z
-x,-y,z
x,-y,1/2-z
-x,y,1/2-z
-x,-y,-z
x,y,-z
-x,y,1/2+z
x,-y,1/2+z
1/2+x,1/2+y,1/2+z
1/2-x,1/2-y,1/2+z
1/2+x,1/2-y,-z
1/2-x,1/2+y,-z
1/2-x,1/2-y,1/2-z
1/2+x,1/2+y,1/2-z
1/2-x,1/2+y,z
1/2+x,1/2-y,z
loop_
_atom_site_type_symbol
_atom_site_label
_atom_site_fract_x
_atom_site_fract_y
_atom_site_fract_z
Si Si1 0.315192 0.815497 0.411461
Si Si2 0.924500 0.806110 0.798194
Si Si3 0.121448 0.391919 0.749331
Si Si4 0.652995 0.435149 0.911177
Si Si5 0.794767 0.877058 0.321601
O O1 0.347930 0.820251 0.500000
O O2 0.368802 0.855868 0.340749
O O3 0.235094 0.876920 0.410680
O O4 0.294020 0.706075 0.387480
O O5 0.923866 0.689979 0.798664
O O6 0.913245 0.862998 0.878636
O O7 0.847441 0.835248 0.748617
O O8 0.000000 0.838778 0.750000
O O9 0.089980 0.500000 0.750000
O O10 0.208328 0.395505 0.788217
O O11 0.666092 0.526921 0.855555
O O12 0.636611 0.465987 0.000000
#
# Coordination Sequence:
#
# PCOD9525911 Si02
#       5
#    16  16  16  16  16
#     4  10  19  32  54  87 116 141 178 237 294 335
#     4  11  23  39  57  80 116 160 192 230 281 348
#     4  11  19  37  60  83 111 145 196 242 283 345
#     4  11  21  35  58  90 115 142 190 241 293 345
#     4  11  19  37  58  85 112 146 192 234 292 345
#
# _framework density 19.875781
#
# number of rings (size 3 to 8) (size 9 to 14) (size 15 to 20)
#    0.000    1.200    6.000    2.400    0.000    2.000 
#    0.000    7.000    0.000    0.000    0.000    7.000 
#    0.000    0.000    0.000    0.000    0.000    0.000 
#
# Total GULP energy -223430.394890 kJ/mol
# GULP energy per Si atom -5585.759872 kJ/mol
# Density = 1.983054 g / cm^3
# Si number density = 19.875781 Si / 1000 Ang^3
#
#
#
# Elastic Constant Matrix: (Units=GPa)
#
#
# Indices 1 2 3 4 5 6 
#
# 1 36.6750 -8.9882 -9.6503 0.0000 0.0000 0.0000
# 2 -8.9882 132.8886 29.3932 0.0000 0.0000 0.0000
# 3 -9.6503 29.3932 95.5172 0.0000 0.0000 0.0000
# 4 0.0000 0.0000 0.0000 23.6144 0.0000 0.0000
# 5 0.0000 0.0000 0.0000 0.0000 15.2667 0.0000
# 6 0.0000 0.0000 0.0000 0.0000 0.0000 -1.4615
#
#
#
# Elastic Compliance Matrix: (Units=1/GPa)
#
#
# Indices 1 2 3 4 5 6 
#
# 1 0.028243 0.001373 0.002431 0.000000 0.000000 0.000000
# 2 0.001373 0.008141 -0.002367 0.000000 0.000000 0.000000
# 3 0.002431 -0.002367 0.011443 0.000000 0.000000 0.000000
# 4 0.000000 0.000000 0.000000 0.042347 0.000000 0.000000
# 5 0.000000 0.000000 0.000000 0.000000 0.065502 0.000000
# 6 0.000000 0.000000 0.000000 0.000000 0.000000 -0.684242
#
#
# Mechanical properties :
#
#
# Convention : Reuss Voigt Hill
#
# Bulk Modulus (GPa) = 19.72344 31.84334 25.78339
# Shear Modulus (GPa) = -9.71743 24.43901 7.36079
#
# Velocity S-wave (km/s) = -2.21353 3.51035 1.92651
# Velocity P-wave (km/s) = 1.84715 5.69965 4.23663
#
# Compressibility (1/GPa) = 0.05070109
#
# Stress axis : x y z
#
# Youngs Moduli (GPa) = 35.40749 122.82885 87.38806
#
# Poissons Ratio (x) = -0.16859 -0.21244
# Poissons Ratio (y) = -0.04860 0.20682
# Poissons Ratio (z) = -0.08608 0.29069
#
# Static dielectric constant tensor:
#      x y z
#    x 1.689720 0.000000 0.000000 
#    y 0.000000 1.738550 0.000000 
#    z 0.000000 0.000000 1.712550 
# 
# From -- ./inp_files/31364.got.cif
#   From: 2010.05.17/outbox.cif.g08.bks.cpg/sg72_16_cif.got.tgz:31364.got - 2010.06.03 17:03:01.
