data_PCOD9525024
_publ_section_title
;
Structure prediction by ZEFSAII (Michael W. Deem and Ramdas Pophale) SiO2 
 PCOD9525024
Probable space group: I B A M
;
_chemical_formula_sum "Si O2"
_cell_formula_units_Z 96
_cell_length_a 16.673531
_cell_length_b 18.039746
_cell_length_c 19.721770
_cell_angle_alpha 90.000000
_cell_angle_beta 90.000000
_cell_angle_gamma 90.000000
_cell_volume 5932.037521
_symmetry_space_group_name_H-M "I B A M"
_symmetry_group_IT_number 72
_symmetry_cell_setting 'orthorhombic'
loop_
_space_group_symop_operation_xyz
x,y,z
-x,-y,z
x,-y,1/2-z
-x,y,1/2-z
-x,-y,-z
x,y,-z
-x,y,1/2+z
x,-y,1/2+z
1/2+x,1/2+y,1/2+z
1/2-x,1/2-y,1/2+z
1/2+x,1/2-y,-z
1/2-x,1/2+y,-z
1/2-x,1/2-y,1/2-z
1/2+x,1/2+y,1/2-z
1/2-x,1/2+y,z
1/2+x,1/2-y,z
loop_
_atom_site_type_symbol
_atom_site_label
_atom_site_fract_x
_atom_site_fract_y
_atom_site_fract_z
Si Si1 0.732049 0.619241 0.578684
Si Si2 0.910399 0.860363 0.821092
Si Si3 0.791193 0.147806 0.798175
Si Si4 0.500000 0.228902 0.250000
Si Si5 0.839730 0.319750 0.807062
Si Si6 0.673031 0.452627 0.425261
Si Si7 0.000000 0.000000 0.623123
O O1 0.737023 0.642362 0.500000
O O2 0.652545 0.650069 0.617269
O O3 0.807490 0.642015 0.624862
O O4 0.719026 0.530765 0.580229
O O5 0.856922 0.880436 0.755776
O O6 0.955976 0.784952 0.802352
O O7 0.969398 0.928196 0.836126
O O8 0.812039 0.233716 0.811790
O O9 0.707984 0.146282 0.757209
O O10 0.798478 0.100772 0.865739
O O11 0.566794 0.182261 0.289565
O O12 0.686240 0.420655 0.500000
O O13 0.578665 0.472764 0.417163
#
# Coordination Sequence:
#
# PCOD9525024 Si02
#       7
#    16  16  16   8  16  16   8
#     4   9  19  34  49  69 100 133 160 189 232 289
#     4   9  18  29  46  70  99 129 155 187 230 286
#     4   9  18  32  48  69  95 125 161 193 231 285
#     4  10  18  31  48  71  96 120 160 212 248 270
#     4   9  18  32  51  71  93 123 161 203 239 277
#     4  10  20  31  46  70 100 130 157 190 233 285
#     4  10  17  27  44  72 103 127 152 182 227 289
#
# _framework density 16.183309999999999
#
# number of rings (size 3 to 8) (size 9 to 14) (size 15 to 20)
#    0.000    2.667    0.000    3.250    0.000   11.000 
#    0.000    0.833    0.000    3.000    0.000    2.333 
#    0.000    0.000    0.000    0.000    0.000    0.000 
#
# Total GULP energy -267501.563868 kJ/mol
# GULP energy per Si atom -5572.949247 kJ/mol
# Density = 1.614648 g / cm^3
# Si number density = 16.183310 Si / 1000 Ang^3
#
#
#
# Elastic Constant Matrix: (Units=GPa)
#
#
# Indices 1 2 3 4 5 6 
#
# 1 106.2145 35.1928 64.7426 0.0000 0.0000 0.0000
# 2 35.1928 37.1883 50.2290 0.0000 0.0000 0.0000
# 3 64.7426 50.2290 157.7079 0.0000 0.0000 0.0000
# 4 0.0000 0.0000 0.0000 46.8807 0.0000 0.0000
# 5 0.0000 0.0000 0.0000 0.0000 11.8859 0.0000
# 6 0.0000 0.0000 0.0000 0.0000 0.0000 28.5616
#
#
#
# Elastic Compliance Matrix: (Units=1/GPa)
#
#
# Indices 1 2 3 4 5 6 
#
# 1 0.014365 -0.009879 -0.002751 0.000000 0.000000 0.000000
# 2 -0.009879 0.053984 -0.013138 0.000000 0.000000 0.000000
# 3 -0.002751 -0.013138 0.011655 0.000000 0.000000 0.000000
# 4 0.000000 0.000000 0.000000 0.021331 0.000000 0.000000
# 5 0.000000 0.000000 0.000000 0.000000 0.084133 0.000000
# 6 0.000000 0.000000 0.000000 0.000000 0.000000 0.035012
#
#
# Mechanical properties :
#
#
# Convention : Reuss Voigt Hill
#
# Bulk Modulus (GPa) = 35.12695 66.82663 50.97679
# Shear Modulus (GPa) = 17.76174 27.52872 22.64523
#
# Velocity S-wave (km/s) = 3.31650 4.12886 3.74477
# Velocity P-wave (km/s) = 6.03476 8.00707 7.08984
#
# Compressibility (1/GPa) = 0.02846817
#
# Stress axis : x y z
#
# Youngs Moduli (GPa) = 69.61472 18.52403 85.80339
#
# Poissons Ratio (x) = 0.18299 0.23603
# Poissons Ratio (y) = 0.68769 1.12730
# Poissons Ratio (z) = 0.19150 0.24337
#
# Static dielectric constant tensor:
#      x y z
#    x 1.560270 0.000000 0.000000 
#    y 0.000000 1.533320 0.000000 
#    z 0.000000 0.000000 1.550810 
# 
# From -- ./inp_files/31660.got.cif
#   From: 2010.05.17/outbox.cif.g08.bks.cpg/sg72_16_cif.got.tgz:31660.got - 2010.06.03 17:03:01.
