data_PCOD9525390
_publ_section_title
;
Structure prediction by ZEFSAII (Michael W. Deem and Ramdas Pophale) SiO2 
 PCOD9525390
Probable space group: I B A M
;
_chemical_formula_sum "Si O2"
_cell_formula_units_Z 112
_cell_length_a 18.021871
_cell_length_b 16.704069
_cell_length_c 21.811466
_cell_angle_alpha 90.000000
_cell_angle_beta 90.000000
_cell_angle_gamma 90.000000
_cell_volume 6566.092680
_symmetry_space_group_name_H-M "I B A M"
_symmetry_group_IT_number 72
_symmetry_cell_setting 'orthorhombic'
loop_
_space_group_symop_operation_xyz
x,y,z
-x,-y,z
x,-y,1/2-z
-x,y,1/2-z
-x,-y,-z
x,y,-z
-x,y,1/2+z
x,-y,1/2+z
1/2+x,1/2+y,1/2+z
1/2-x,1/2-y,1/2+z
1/2+x,1/2-y,-z
1/2-x,1/2+y,-z
1/2-x,1/2-y,1/2-z
1/2+x,1/2+y,1/2-z
1/2-x,1/2+y,z
1/2+x,1/2-y,z
loop_
_atom_site_type_symbol
_atom_site_label
_atom_site_fract_x
_atom_site_fract_y
_atom_site_fract_z
Si Si1 0.680296 0.327790 0.573392
Si Si2 0.473050 0.586020 0.574117
Si Si3 0.898345 0.663085 0.393679
Si Si4 0.411389 0.096248 0.242071
Si Si5 0.917174 0.506607 0.930971
Si Si6 0.665961 0.146610 0.137075
Si Si7 0.049734 0.248230 0.073629
O O1 0.697478 0.334815 0.500000
O O2 0.610903 0.386459 0.587786
O O3 0.652374 0.237555 0.587093
O O4 0.749063 0.347332 0.617091
O O5 0.500000 0.500000 0.597478
O O6 0.476729 0.583663 0.500000
O O7 0.526119 0.659100 0.593121
O O8 0.891340 0.632680 0.324005
O O9 0.885268 0.582402 0.431602
O O10 0.982048 0.693618 0.407063
O O11 0.500000 0.110581 0.250000
O O12 0.360533 0.139390 0.292961
O O13 0.400402 0.000000 0.250000
O O14 0.867488 0.566732 0.893613
O O15 0.000000 0.500000 0.902949
O O16 0.925732 0.538140 0.000000
O O17 0.623157 0.220314 0.105553
O O18 0.056262 0.250689 0.000000
#
# Coordination Sequence:
#
# PCOD9525390 Si02
#       7
#    16  16  16  16  16  16  16
#     4  10  22  38  56  84 120 149 192 252 305 353
#     4   8  16  34  57  77 105 149 193 231 281 353
#     4  11  20  36  56  79 111 155 193 229 286 355
#     4  11  21  37  57  84 118 155 202 238 276 356
#     4  11  19  30  54  85 114 145 185 231 297 360
#     4  12  22  35  54  84 120 151 185 246 299 344
#     4  10  18  31  54  82 110 145 190 238 291 350
#
# _framework density 17.057328999999999
#
# number of rings (size 3 to 8) (size 9 to 14) (size 15 to 20)
#    0.000    1.571    4.286    3.429    0.000    0.571 
#    2.571    0.000    0.000    0.000    0.000    7.000 
#    0.000    0.000    0.000    0.000    0.000    0.000 
#
# Total GULP energy -312334.025364 kJ/mol
# GULP energy per Si atom -5577.393310 kJ/mol
# Density = 1.701851 g / cm^3
# Si number density = 17.057329 Si / 1000 Ang^3
#
#
#
# Elastic Constant Matrix: (Units=GPa)
#
#
# Indices 1 2 3 4 5 6 
#
# 1 86.1751 44.1741 25.5600 0.0000 0.0000 0.0000
# 2 44.1741 98.1115 20.7432 0.0000 0.0000 0.0000
# 3 25.5600 20.7432 91.3760 0.0000 0.0000 0.0000
# 4 0.0000 0.0000 0.0000 36.3071 0.0000 0.0000
# 5 0.0000 0.0000 0.0000 0.0000 25.7807 0.0000
# 6 0.0000 0.0000 0.0000 0.0000 0.0000 17.5721
#
#
#
# Elastic Compliance Matrix: (Units=1/GPa)
#
#
# Indices 1 2 3 4 5 6 
#
# 1 0.015807 -0.006494 -0.002948 0.000000 0.000000 0.000000
# 2 -0.006494 0.013374 -0.001220 0.000000 0.000000 0.000000
# 3 -0.002948 -0.001220 0.012045 0.000000 0.000000 0.000000
# 4 0.000000 0.000000 0.000000 0.027543 0.000000 0.000000
# 5 0.000000 0.000000 0.000000 0.000000 0.038789 0.000000
# 6 0.000000 0.000000 0.000000 0.000000 0.000000 0.056909
#
#
# Mechanical properties :
#
#
# Convention : Reuss Voigt Hill
#
# Bulk Modulus (GPa) = 50.23954 50.73523 50.48739
# Shear Modulus (GPa) = 25.98431 28.27767 27.13099
#
# Velocity S-wave (km/s) = 3.90725 4.07603 3.99253
# Velocity P-wave (km/s) = 7.06206 7.20837 7.13559
#
# Compressibility (1/GPa) = 0.01990464
#
# Stress axis : x y z
#
# Youngs Moduli (GPa) = 63.26143 74.77072 83.02113
#
# Poissons Ratio (x) = 0.48556 0.24470
# Poissons Ratio (y) = 0.41082 0.10125
# Poissons Ratio (z) = 0.18646 0.09119
#
# Static dielectric constant tensor:
#      x y z
#    x 1.573100 0.000000 0.000000 
#    y 0.000000 1.590300 0.000000 
#    z 0.000000 0.000000 1.599070 
# 
# From -- ./inp_files/39205.got.cif
#   From: 2010.05.17/outbox.cif.g08.bks.cpg/sg72_20_cif.got.tgz:39205.got - 2010.06.03 17:03:01.
