data_PCOD9525214
_publ_section_title
;
Structure prediction by ZEFSAII (Michael W. Deem and Ramdas Pophale) SiO2 
 PCOD9525214
Probable space group: I B A M
;
_chemical_formula_sum "Si O2"
_cell_formula_units_Z 128
_cell_length_a 20.517442
_cell_length_b 21.227765
_cell_length_c 14.720247
_cell_angle_alpha 90.000000
_cell_angle_beta 90.000000
_cell_angle_gamma 90.000000
_cell_volume 6411.248093
_symmetry_space_group_name_H-M "I B A M"
_symmetry_group_IT_number 72
_symmetry_cell_setting 'orthorhombic'
loop_
_space_group_symop_operation_xyz
x,y,z
-x,-y,z
x,-y,1/2-z
-x,y,1/2-z
-x,-y,-z
x,y,-z
-x,y,1/2+z
x,-y,1/2+z
1/2+x,1/2+y,1/2+z
1/2-x,1/2-y,1/2+z
1/2+x,1/2-y,-z
1/2-x,1/2+y,-z
1/2-x,1/2-y,1/2-z
1/2+x,1/2+y,1/2-z
1/2-x,1/2+y,z
1/2+x,1/2-y,z
loop_
_atom_site_type_symbol
_atom_site_label
_atom_site_fract_x
_atom_site_fract_y
_atom_site_fract_z
Si Si1 0.043641 0.555749 0.105669
Si Si2 0.007283 0.169619 0.358165
Si Si3 0.059097 0.041154 0.105689
Si Si4 0.161079 0.850291 0.891691
Si Si5 0.804762 0.987825 0.611656
Si Si6 0.825446 0.285531 0.109700
Si Si7 0.310053 0.921755 0.611563
Si Si8 0.478904 0.193840 0.145747
O O1 0.116587 0.563123 0.144445
O O2 0.008726 0.623994 0.108470
O O3 0.000000 0.500000 0.145395
O O4 0.054066 0.539852 0.000000
O O5 0.082413 0.151726 0.379567
O O6 0.992533 0.240462 0.392809
O O7 0.000000 0.171892 0.250000
O O8 0.960609 0.113957 0.390268
O O9 0.129697 0.023690 0.142656
O O10 0.062916 0.022359 0.000000
O O11 0.000000 0.000000 0.146083
O O12 0.189934 0.915656 0.856692
O O13 0.190360 0.784444 0.855008
O O14 0.171982 0.850417 0.000000
O O15 0.803388 0.987365 0.500000
O O16 0.741651 0.026441 0.640639
O O17 0.791576 0.350224 0.139943
O O18 0.901606 0.295857 0.132799
O O19 0.820161 0.283316 0.000000
O O20 0.311282 0.920909 0.500000
O O21 0.500000 0.191058 0.250000
#
# Coordination Sequence:
#
# PCOD9525214 Si02
#       8
#    16  16  16  16  16  16  16  16
#     4   9  17  30  50  75  97 117 147 189 239 284
#     4  10  19  29  43  67  94 124 158 197 232 267
#     4  10  18  29  44  66  93 122 156 192 230 274
#     4   9  15  26  44  67  91 122 160 193 228 277
#     4   9  16  26  43  65  90 120 152 187 229 273
#     4   8  14  25  44  67  91 120 157 194 226 272
#     4   8  14  26  44  67  92 116 146 186 228 273
#     4   9  17  28  44  70  93 120 154 190 227 274
#
# _framework density 19.964912000000002
#
# number of rings (size 3 to 8) (size 9 to 14) (size 15 to 20)
#    0.000    3.000    1.250    1.500    0.000    2.000 
#    0.000    0.000    2.750    0.000   13.000    7.875 
#    0.000    0.000    0.000    0.000    0.000    0.000 
#
# Total GULP energy -356302.137315 kJ/mol
# GULP energy per Si atom -5567.220896 kJ/mol
# Density = 1.991947 g / cm^3
# Si number density = 19.964912 Si / 1000 Ang^3
#
#
#
# Elastic Constant Matrix: (Units=GPa)
#
#
# Indices 1 2 3 4 5 6 
#
# 1 60.6687 85.4020 1.1088 0.0000 0.0000 0.0000
# 2 85.4020 222.4300 -2.6429 0.0000 0.0000 0.0000
# 3 1.1088 -2.6429 30.4628 0.0000 0.0000 0.0000
# 4 0.0000 0.0000 0.0000 15.0999 0.0000 0.0000
# 5 0.0000 0.0000 0.0000 0.0000 44.3471 0.0000
# 6 0.0000 0.0000 0.0000 0.0000 0.0000 31.5571
#
#
#
# Elastic Compliance Matrix: (Units=1/GPa)
#
#
# Indices 1 2 3 4 5 6 
#
# 1 0.036061 -0.013876 -0.002516 0.000000 0.000000 0.000000
# 2 -0.013876 0.009839 0.001359 0.000000 0.000000 0.000000
# 3 -0.002516 0.001359 0.033036 0.000000 0.000000 0.000000
# 4 0.000000 0.000000 0.000000 0.066226 0.000000 0.000000
# 5 0.000000 0.000000 0.000000 0.000000 0.022549 0.000000
# 6 0.000000 0.000000 0.000000 0.000000 0.000000 0.031689
#
#
# Mechanical properties :
#
#
# Convention : Reuss Voigt Hill
#
# Bulk Modulus (GPa) = 20.46221 53.47748 36.96984
# Shear Modulus (GPa) = 20.34524 33.51374 26.92949
#
# Velocity S-wave (km/s) = 3.19572 4.10156 3.67664
# Velocity P-wave (km/s) = 4.88755 7.01956 6.04824
#
# Compressibility (1/GPa) = 0.04887058
#
# Stress axis : x y z
#
# Youngs Moduli (GPa) = 27.73047 101.63119 30.26961
#
# Poissons Ratio (x) = 1.41020 0.07617
# Poissons Ratio (y) = 0.38478 -0.04113
# Poissons Ratio (z) = 0.06978 -0.13809
#
# Static dielectric constant tensor:
#      x y z
#    x 1.683150 0.000000 0.000000 
#    y 0.000000 1.769140 0.000000 
#    z 0.000000 0.000000 1.739710 
# 
# From -- ./inp_files/32955.got.cif
#   From: 2010.05.17/outbox.cif.g08.bks.cpg/sg72_17_cif.got.tgz:32955.got - 2010.06.03 17:03:01.
