data_PCOD9525120
_publ_section_title
;
Structure prediction by ZEFSAII (Michael W. Deem and Ramdas Pophale) SiO2 
 PCOD9525120
Probable space group: I B A M
;
_chemical_formula_sum "Si O2"
_cell_formula_units_Z 88
_cell_length_a 32.897696
_cell_length_b 5.348606
_cell_length_c 25.882985
_cell_angle_alpha 90.000000
_cell_angle_beta 90.000000
_cell_angle_gamma 90.000000
_cell_volume 4554.287583
_symmetry_space_group_name_H-M "I B A M"
_symmetry_group_IT_number 72
_symmetry_cell_setting 'orthorhombic'
loop_
_space_group_symop_operation_xyz
x,y,z
-x,-y,z
x,-y,1/2-z
-x,y,1/2-z
-x,-y,-z
x,y,-z
-x,y,1/2+z
x,-y,1/2+z
1/2+x,1/2+y,1/2+z
1/2-x,1/2-y,1/2+z
1/2+x,1/2-y,-z
1/2-x,1/2+y,-z
1/2-x,1/2-y,1/2-z
1/2+x,1/2+y,1/2-z
1/2-x,1/2+y,z
1/2+x,1/2-y,z
loop_
_atom_site_type_symbol
_atom_site_label
_atom_site_fract_x
_atom_site_fract_y
_atom_site_fract_z
Si Si1 0.775866 0.508152 0.938657
Si Si2 0.427947 0.717197 0.558903
Si Si3 0.141670 0.540639 0.125286
Si Si4 0.954746 0.111679 0.350475
Si Si5 0.000000 0.500000 0.600100
Si Si6 0.373051 0.465391 0.308437
O O1 0.751988 0.765626 0.927733
O O2 0.816817 0.491205 0.906036
O O3 0.785221 0.504511 0.000000
O O4 0.417681 0.658622 0.500000
O O5 0.394478 0.902019 0.583934
O O6 0.432800 0.482094 0.596962
O O7 0.473727 0.824407 0.563459
O O8 0.136511 0.295702 0.161804
O O9 0.141676 0.793209 0.159632
O O10 0.922461 0.039129 0.308067
O O11 0.965713 0.396358 0.361115
O O12 0.000000 0.000000 0.344233
O O13 0.358031 0.500000 0.250000
#
# Coordination Sequence:
#
# PCOD9525120 Si02
#       6
#    16  16  16  16   8  16
#     4  10  21  39  66  99 131 162 192 233 296 368
#     4  10  20  32  52  82 119 162 196 238 295 360
#     4  11  22  41  62  91 122 156 202 253 301 363
#     4   9  20  35  53  78 115 155 208 261 302 354
#     4  10  17  34  50  77 118 156 201 244 289 358
#     4  11  23  41  63  85 115 159 210 261 312 355
#
# _framework density 19.322452999999999
#
# number of rings (size 3 to 8) (size 9 to 14) (size 15 to 20)
#    0.000    1.818    1.818    2.455    0.000    4.364 
#    0.000    1.818    0.000   10.909    0.000    0.000 
#    0.000    0.000    0.000    0.000    0.000    0.000 
#
# Total GULP energy -245027.159893 kJ/mol
# GULP energy per Si atom -5568.799088 kJ/mol
# Density = 1.927847 g / cm^3
# Si number density = 19.322453 Si / 1000 Ang^3
#
#
#
# Elastic Constant Matrix: (Units=GPa)
#
#
# Indices 1 2 3 4 5 6 
#
# 1 88.1529 21.5202 35.8993 0.0000 0.0000 0.0000
# 2 21.5202 100.0156 33.3733 0.0000 0.0000 0.0000
# 3 35.8993 33.3733 92.8390 0.0000 0.0000 0.0000
# 4 0.0000 0.0000 0.0000 12.0284 0.0000 0.0000
# 5 0.0000 0.0000 0.0000 0.0000 19.3521 0.0000
# 6 0.0000 0.0000 0.0000 0.0000 0.0000 19.6522
#
#
#
# Elastic Compliance Matrix: (Units=1/GPa)
#
#
# Indices 1 2 3 4 5 6 
#
# 1 0.013619 -0.001333 -0.004787 0.000000 0.000000 0.000000
# 2 -0.001333 0.011492 -0.003616 0.000000 0.000000 0.000000
# 3 -0.004787 -0.003616 0.013922 0.000000 0.000000 0.000000
# 4 0.000000 0.000000 0.000000 0.083137 0.000000 0.000000
# 5 0.000000 0.000000 0.000000 0.000000 0.051674 0.000000
# 6 0.000000 0.000000 0.000000 0.000000 0.000000 0.050885
#
#
# Mechanical properties :
#
#
# Convention : Reuss Voigt Hill
#
# Bulk Modulus (GPa) = 51.12074 51.39923 51.25999
# Shear Modulus (GPa) = 19.94260 22.88752 21.41506
#
# Velocity S-wave (km/s) = 3.21611 3.44540 3.33272
# Velocity P-wave (km/s) = 6.34864 6.51814 6.43395
#
# Compressibility (1/GPa) = 0.01956153
#
# Stress axis : x y z
#
# Youngs Moduli (GPa) = 73.42796 87.01940 71.82845
#
# Poissons Ratio (x) = 0.11600 0.34384
# Poissons Ratio (y) = 0.09788 0.25970
# Poissons Ratio (z) = 0.35150 0.31462
#
# Static dielectric constant tensor:
#      x y z
#    x 1.674660 0.000000 0.000000 
#    y 0.000000 1.769020 0.000000 
#    z 0.000000 0.000000 1.675560 
# 
# From -- ./inp_files/46141.got.cif
#   From: 2010.05.17/outbox.cif.g08.bks.cpg/sg72_24_cif.got.tgz:46141.got - 2010.06.03 17:03:01.
