data_PCOD9525279
_publ_section_title
;
Structure prediction by ZEFSAII (Michael W. Deem and Ramdas Pophale) SiO2 
 PCOD9525279
Probable space group: I B A M
;
_chemical_formula_sum "Si O2"
_cell_formula_units_Z 80
_cell_length_a 24.732395
_cell_length_b 24.030499
_cell_length_c 8.840204
_cell_angle_alpha 90.000000
_cell_angle_beta 90.000000
_cell_angle_gamma 90.000000
_cell_volume 5254.014297
_symmetry_space_group_name_H-M "I B A M"
_symmetry_group_IT_number 72
_symmetry_cell_setting 'orthorhombic'
loop_
_space_group_symop_operation_xyz
x,y,z
-x,-y,z
x,-y,1/2-z
-x,y,1/2-z
-x,-y,-z
x,y,-z
-x,y,1/2+z
x,-y,1/2+z
1/2+x,1/2+y,1/2+z
1/2-x,1/2-y,1/2+z
1/2+x,1/2-y,-z
1/2-x,1/2+y,-z
1/2-x,1/2-y,1/2-z
1/2+x,1/2+y,1/2-z
1/2-x,1/2+y,z
1/2+x,1/2-y,z
loop_
_atom_site_type_symbol
_atom_site_label
_atom_site_fract_x
_atom_site_fract_y
_atom_site_fract_z
Si Si1 0.167373 0.725829 0.319619
Si Si2 0.171649 0.940419 0.181905
Si Si3 0.235578 0.162058 0.819561
Si Si4 0.443350 0.608058 0.318721
Si Si5 0.057239 0.239081 0.318711
O O1 0.165136 0.718920 0.500000
O O2 0.195917 0.785523 0.287394
O O3 0.206509 0.679951 0.246626
O O4 0.108004 0.728452 0.249103
O O5 0.210631 0.892182 0.242767
O O6 0.110183 0.924593 0.229878
O O7 0.185989 0.000000 0.250000
O O8 0.173276 0.941519 0.000000
O O9 0.238545 0.155186 0.000000
O O10 0.500000 0.588161 0.250000
O O11 0.447096 0.605045 0.500000
O O12 0.436485 0.673377 0.277679
O O13 0.056622 0.243050 0.500000
O O14 0.000000 0.257357 0.250000
#
# Coordination Sequence:
#
# PCOD9525279 Si02
#       5
#    16  16  16  16  16
#     4  10  19  31  50  73  97 125 157 197 242 293
#     4  11  22  36  50  68  93 125 164 208 249 290
#     4  10  20  33  50  71  94 124 160 199 244 292
#     4   9  19  32  47  64  89 123 162 205 245 284
#     4  10  18  30  47  70  98 128 161 198 242 289
#
# _framework density 15.226452
#
# number of rings (size 3 to 8) (size 9 to 14) (size 15 to 20)
#    0.000    2.000    2.000    2.400    0.000    4.400 
#    0.000    2.000    0.000    0.000    0.000    0.000 
#    0.000    0.800    0.000    8.000    0.000    4.800 
#
# Total GULP energy -223274.016010 kJ/mol
# GULP energy per Si atom -5581.850400 kJ/mol
# Density = 1.519180 g / cm^3
# Si number density = 15.226452 Si / 1000 Ang^3
#
#
#
# Elastic Constant Matrix: (Units=GPa)
#
#
# Indices 1 2 3 4 5 6 
#
# 1 122.7220 60.4772 55.5758 0.0000 0.0000 0.0000
# 2 60.4772 85.8162 43.4819 0.0000 0.0000 0.0000
# 3 55.5758 43.4819 51.1817 0.0000 0.0000 0.0000
# 4 0.0000 0.0000 0.0000 20.1193 0.0000 0.0000
# 5 0.0000 0.0000 0.0000 0.0000 30.5658 0.0000
# 6 0.0000 0.0000 0.0000 0.0000 0.0000 18.0591
#
#
#
# Elastic Compliance Matrix: (Units=1/GPa)
#
#
# Indices 1 2 3 4 5 6 
#
# 1 0.017014 -0.004617 -0.014552 0.000000 0.000000 0.000000
# 2 -0.004617 0.021713 -0.013433 0.000000 0.000000 0.000000
# 3 -0.014552 -0.013433 0.046752 0.000000 0.000000 0.000000
# 4 0.000000 0.000000 0.000000 0.049703 0.000000 0.000000
# 5 0.000000 0.000000 0.000000 0.000000 0.032716 0.000000
# 6 0.000000 0.000000 0.000000 0.000000 0.000000 0.055374
#
#
# Mechanical properties :
#
#
# Convention : Reuss Voigt Hill
#
# Bulk Modulus (GPa) = 49.32352 64.30997 56.81674
# Shear Modulus (GPa) = 16.93568 20.42785 18.68176
#
# Velocity S-wave (km/s) = 3.33866 3.66676 3.50655
# Velocity P-wave (km/s) = 6.87938 7.76236 7.33417
#
# Compressibility (1/GPa) = 0.02027430
#
# Stress axis : x y z
#
# Youngs Moduli (GPa) = 58.77618 46.05592 21.38933
#
# Poissons Ratio (x) = 0.21262 0.31126
# Poissons Ratio (y) = 0.27135 0.28733
# Poissons Ratio (z) = 0.85533 0.61868
#
# Static dielectric constant tensor:
#      x y z
#    x 1.498940 0.000000 0.000000 
#    y 0.000000 1.483020 0.000000 
#    z 0.000000 0.000000 1.503040 
# 
# From -- ./inp_files/7938.got.cif
#   From: 2010.05.17/outbox.cif.g08.bks.cpg/sg72_4_cif.got.tgz:7938.got - 2010.06.03 17:03:01.
