data_PCOD9525743
_publ_section_title
;
Structure prediction by ZEFSAII (Michael W. Deem and Ramdas Pophale) SiO2 
 PCOD9525743
Probable space group: I B A M
;
_chemical_formula_sum "Si O2"
_cell_formula_units_Z 116
_cell_length_a 24.346390
_cell_length_b 35.520452
_cell_length_c 9.058863
_cell_angle_alpha 90.000000
_cell_angle_beta 90.000000
_cell_angle_gamma 90.000000
_cell_volume 7834.057411
_symmetry_space_group_name_H-M "I B A M"
_symmetry_group_IT_number 72
_symmetry_cell_setting 'orthorhombic'
loop_
_space_group_symop_operation_xyz
x,y,z
-x,-y,z
x,-y,1/2-z
-x,y,1/2-z
-x,-y,-z
x,y,-z
-x,y,1/2+z
x,-y,1/2+z
1/2+x,1/2+y,1/2+z
1/2-x,1/2-y,1/2+z
1/2+x,1/2-y,-z
1/2-x,1/2+y,-z
1/2-x,1/2-y,1/2-z
1/2+x,1/2+y,1/2-z
1/2-x,1/2+y,z
1/2+x,1/2-y,z
loop_
_atom_site_type_symbol
_atom_site_label
_atom_site_fract_x
_atom_site_fract_y
_atom_site_fract_z
Si Si1 0.709260 0.960783 0.325420
Si Si2 0.058207 0.709687 0.676281
Si Si3 0.662785 0.242237 0.674696
Si Si4 0.583027 0.061509 0.837548
Si Si5 0.773737 0.616787 0.325874
Si Si6 0.244267 0.809160 0.174467
Si Si7 0.095870 0.366385 0.671345
Si Si8 0.500000 0.000000 0.250000
O O1 0.720690 0.961292 0.500000
O O2 0.643293 0.955435 0.307131
O O3 0.734202 0.923885 0.248056
O O4 0.725354 0.000000 0.250000
O O5 0.055609 0.711528 0.500000
O O6 0.106066 0.736192 0.740970
O O7 0.074661 0.667607 0.729322
O O8 0.000000 0.718853 0.750000
O O9 0.656200 0.234462 0.500000
O O10 0.706729 0.212970 0.742756
O O11 0.690468 0.283172 0.692242
O O12 0.570287 0.093798 0.719652
O O13 0.539862 0.027983 0.836430
O O14 0.585243 0.079513 0.000000
O O15 0.762223 0.615538 0.500000
O O16 0.740649 0.649733 0.244869
O O17 0.838502 0.627776 0.309175
O O18 0.256840 0.811508 0.000000
O O19 0.084665 0.358125 0.500000
#
# Coordination Sequence:
#
# PCOD9525743 Si02
#       8
#    16  16  16  16  16  16  16   4
#     4  10  19  33  48  63  84 111 145 182 230 283
#     4  12  24  37  53  69  92 123 157 192 233 282
#     4  10  20  34  50  72  99 123 153 191 233 281
#     4  10  22  35  47  60  77 104 137 181 232 283
#     4  10  19  31  50  71  93 118 149 189 233 282
#     4  10  19  31  51  75  98 123 151 189 236 282
#     4  10  21  36  51  66  87 112 145 189 234 281
#     4  12  22  36  48  62  78  96 144 190 242 288
#
# _framework density 14.807142000000001
#
# number of rings (size 3 to 8) (size 9 to 14) (size 15 to 20)
#    0.000    1.655    2.069    3.517    0.966    4.414 
#    0.000    0.000    0.000    0.000    0.000    0.000 
#    0.000    0.000    0.000    0.000    0.000    0.690 
#
# Total GULP energy -323840.608197 kJ/mol
# GULP energy per Si atom -5583.458762 kJ/mol
# Density = 1.477344 g / cm^3
# Si number density = 14.807142 Si / 1000 Ang^3
#
#
#
# Elastic Constant Matrix: (Units=GPa)
#
#
# Indices 1 2 3 4 5 6 
#
# 1 48.1861 35.5340 45.7106 0.0000 0.0000 0.0000
# 2 35.5340 114.1138 69.7204 0.0000 0.0000 0.0000
# 3 45.7106 69.7204 127.7371 0.0000 0.0000 0.0000
# 4 0.0000 0.0000 0.0000 26.5269 0.0000 0.0000
# 5 0.0000 0.0000 0.0000 0.0000 15.7203 0.0000
# 6 0.0000 0.0000 0.0000 0.0000 0.0000 21.0229
#
#
#
# Elastic Compliance Matrix: (Units=1/GPa)
#
#
# Indices 1 2 3 4 5 6 
#
# 1 0.032943 -0.004584 -0.009286 0.000000 0.000000 0.000000
# 2 -0.004584 0.013786 -0.005884 0.000000 0.000000 0.000000
# 3 -0.009286 -0.005884 0.014363 0.000000 0.000000 0.000000
# 4 0.000000 0.000000 0.000000 0.037698 0.000000 0.000000
# 5 0.000000 0.000000 0.000000 0.000000 0.063612 0.000000
# 6 0.000000 0.000000 0.000000 0.000000 0.000000 0.047567
#
#
# Mechanical properties :
#
#
# Convention : Reuss Voigt Hill
#
# Bulk Modulus (GPa) = 46.33395 65.77411 56.05403
# Shear Modulus (GPa) = 19.48014 21.92548 20.70281
#
# Velocity S-wave (km/s) = 3.63104 3.85221 3.74326
# Velocity P-wave (km/s) = 6.99563 8.01891 7.52469
#
# Compressibility (1/GPa) = 0.02158244
#
# Stress axis : x y z
#
# Youngs Moduli (GPa) = 30.35559 72.53962 69.62271
#
# Poissons Ratio (x) = 0.33255 0.64654
# Poissons Ratio (y) = 0.13916 0.40965
# Poissons Ratio (z) = 0.28189 0.42681
#
# Static dielectric constant tensor:
#      x y z
#    x 1.475970 0.000000 0.000000 
#    y 0.000000 1.493150 0.000000 
#    z 0.000000 0.000000 1.506490 
# 
# From -- ./inp_files/8711.got.cif
#   From: 2010.05.17/outbox.cif.g08.bks.cpg/sg72_5_cif.got.tgz:8711.got - 2010.06.03 17:03:01.
