data_PCOD9525064
_publ_section_title
;
Structure prediction by ZEFSAII (Michael W. Deem and Ramdas Pophale) SiO2 
 PCOD9525064
Probable space group: I B A M
;
_chemical_formula_sum "Si O2"
_cell_formula_units_Z 80
_cell_length_a 14.977819
_cell_length_b 16.897198
_cell_length_c 15.796067
_cell_angle_alpha 90.000000
_cell_angle_beta 90.000000
_cell_angle_gamma 90.000000
_cell_volume 3997.718761
_symmetry_space_group_name_H-M "I B A M"
_symmetry_group_IT_number 72
_symmetry_cell_setting 'orthorhombic'
loop_
_space_group_symop_operation_xyz
x,y,z
-x,-y,z
x,-y,1/2-z
-x,y,1/2-z
-x,-y,-z
x,y,-z
-x,y,1/2+z
x,-y,1/2+z
1/2+x,1/2+y,1/2+z
1/2-x,1/2-y,1/2+z
1/2+x,1/2-y,-z
1/2-x,1/2+y,-z
1/2-x,1/2-y,1/2-z
1/2+x,1/2+y,1/2-z
1/2-x,1/2+y,z
1/2+x,1/2-y,z
loop_
_atom_site_type_symbol
_atom_site_label
_atom_site_fract_x
_atom_site_fract_y
_atom_site_fract_z
Si Si1 0.210634 0.619523 0.093082
Si Si2 0.830453 0.686708 0.762795
Si Si3 0.398354 0.716104 0.907207
Si Si4 0.724679 0.456185 0.662670
Si Si5 0.970258 0.912220 0.349103
O O1 0.150278 0.653919 0.168906
O O2 0.305699 0.665811 0.097598
O O3 0.235649 0.527239 0.107319
O O4 0.172372 0.631728 0.000000
O O5 0.750000 0.750000 0.750000
O O6 0.900130 0.728817 0.824429
O O7 0.794995 0.610594 0.813557
O O8 0.477871 0.654099 0.899608
O O9 0.399077 0.755563 0.000000
O O10 0.696752 0.500000 0.750000
O O11 0.635232 0.411613 0.634936
O O12 0.000000 0.902955 0.250000
O O13 0.000000 0.000000 0.374769
#
# Coordination Sequence:
#
# PCOD9525064 Si02
#       5
#    16  16  16  16  16
#     4   9  17  29  47  70  97 135 183 229 270 314
#     4   9  18  32  47  67 103 147 181 218 269 319
#     4  10  20  32  46  70 107 146 180 221 267 322
#     4  10  17  29  48  75 104 141 182 220 266 327
#     4  11  17  28  49  74 104 142 179 215 266 326
#
# _framework density 20.011410999999999
#
# number of rings (size 3 to 8) (size 9 to 14) (size 15 to 20)
#    0.000    2.200    4.000    2.400    0.000    2.000 
#    0.000    0.000    0.000    3.600    0.000    0.000 
#    0.000   95.200    0.000  122.000    0.000    0.000 
#
# Total GULP energy -223032.633595 kJ/mol
# GULP energy per Si atom -5575.815840 kJ/mol
# Density = 1.996586 g / cm^3
# Si number density = 20.011411 Si / 1000 Ang^3
#
#
#
# Elastic Constant Matrix: (Units=GPa)
#
#
# Indices 1 2 3 4 5 6 
#
# 1 20.2337 18.4962 31.5711 0.0000 0.0000 0.0000
# 2 18.4962 65.5916 65.2002 0.0000 0.0000 0.0000
# 3 31.5711 65.2002 138.7558 0.0000 0.0000 0.0000
# 4 0.0000 0.0000 0.0000 16.3594 0.0000 0.0000
# 5 0.0000 0.0000 0.0000 0.0000 -36.7819 0.0000
# 6 0.0000 0.0000 0.0000 0.0000 0.0000 24.6562
#
#
#
# Elastic Compliance Matrix: (Units=1/GPa)
#
#
# Indices 1 2 3 4 5 6 
#
# 1 0.078946 -0.008269 -0.014077 0.000000 0.000000 0.000000
# 2 -0.008269 0.029475 -0.011968 0.000000 0.000000 0.000000
# 3 -0.014077 -0.011968 0.016034 0.000000 0.000000 0.000000
# 4 0.000000 0.000000 0.000000 0.061127 0.000000 0.000000
# 5 0.000000 0.000000 0.000000 0.000000 -0.027187 0.000000
# 6 0.000000 0.000000 0.000000 0.000000 0.000000 0.040558
#
#
# Mechanical properties :
#
#
# Convention : Reuss Voigt Hill
#
# Bulk Modulus (GPa) = 17.91294 50.56845 34.24070
# Shear Modulus (GPa) = 17.47094 8.13431 12.80263
#
# Velocity S-wave (km/s) = 2.95795 2.01833 2.53210
# Velocity P-wave (km/s) = 4.54277 5.54583 5.06917
#
# Compressibility (1/GPa) = 0.05582556
#
# Stress axis : x y z
#
# Youngs Moduli (GPa) = 12.66686 33.92742 62.36831
#
# Poissons Ratio (x) = 0.28054 0.87797
# Poissons Ratio (y) = 0.10474 0.74645
# Poissons Ratio (z) = 0.17831 0.40606
#
# Static dielectric constant tensor:
#      x y z
#    x 1.688750 0.000000 0.000000 
#    y 0.000000 1.700150 0.000000 
#    z 0.000000 0.000000 1.772800 
# 
# From -- ./inp_files/23103.got.cif
#   From: 2010.05.17/outbox.cif.g08.bks.cpg/sg72_12_cif.got.tgz:23103.got - 2010.06.03 17:03:01.
