data_PCOD9525829
_publ_section_title
;
Structure prediction by ZEFSAII (Michael W. Deem and Ramdas Pophale) SiO2 
 PCOD9525829
Probable space group: I B A M
;
_chemical_formula_sum "Si O2"
_cell_formula_units_Z 104
_cell_length_a 13.009244
_cell_length_b 18.170909
_cell_length_c 24.293702
_cell_angle_alpha 90.000000
_cell_angle_beta 90.000000
_cell_angle_gamma 90.000000
_cell_volume 5742.783087
_symmetry_space_group_name_H-M "I B A M"
_symmetry_group_IT_number 72
_symmetry_cell_setting 'orthorhombic'
loop_
_space_group_symop_operation_xyz
x,y,z
-x,-y,z
x,-y,1/2-z
-x,y,1/2-z
-x,-y,-z
x,y,-z
-x,y,1/2+z
x,-y,1/2+z
1/2+x,1/2+y,1/2+z
1/2-x,1/2-y,1/2+z
1/2+x,1/2-y,-z
1/2-x,1/2+y,-z
1/2-x,1/2-y,1/2-z
1/2+x,1/2+y,1/2-z
1/2-x,1/2+y,z
1/2+x,1/2-y,z
loop_
_atom_site_type_symbol
_atom_site_label
_atom_site_fract_x
_atom_site_fract_y
_atom_site_fract_z
Si Si1 0.659319 0.778350 0.876791
Si Si2 0.467265 0.731475 0.188762
Si Si3 0.000000 0.500000 0.843162
Si Si4 0.710505 0.613571 0.299205
Si Si5 0.166644 0.330411 0.890759
Si Si6 0.278793 0.953191 0.815627
Si Si7 0.471724 0.886148 0.559852
O O1 0.571546 0.729335 0.847059
O O2 0.707745 0.834071 0.830916
O O3 0.749264 0.730018 0.902015
O O4 0.608187 0.823066 0.925901
O O5 0.500000 0.752927 0.250000
O O6 0.396951 0.657783 0.193628
O O7 0.399483 0.794944 0.159760
O O8 0.100271 0.475173 0.809774
O O9 0.034077 0.562265 0.886595
O O10 0.716884 0.529616 0.321466
O O11 0.740002 0.596683 0.235441
O O12 0.221920 0.403564 0.869499
O O13 0.085213 0.351438 0.936712
O O14 0.452960 0.919712 0.500000
#
# Coordination Sequence:
#
# PCOD9525829 Si02
#       7
#    16  16   8  16  16  16  16
#     4  10  19  36  52  75 105 141 173 209 265 309
#     4  10  19  32  51  73 104 142 174 205 250 305
#     4  10  19  35  52  76 106 136 162 214 276 314
#     4  10  20  32  50  76 107 137 178 208 246 305
#     4   9  20  34  52  74 105 135 173 214 258 311
#     4  10  19  33  50  76 106 140 173 211 248 305
#     4  10  20  34  54  79 101 129 172 221 272 316
#
# _framework density 18.109687000000001
#
# number of rings (size 3 to 8) (size 9 to 14) (size 15 to 20)
#    0.000    2.154    1.538    2.077    0.000    4.308 
#    0.000    5.385    0.000    0.000    0.000    0.000 
#    0.000    7.077    0.000    0.000    0.000    0.000 
#
# Total GULP energy -289650.117484 kJ/mol
# GULP energy per Si atom -5570.194567 kJ/mol
# Density = 1.806847 g / cm^3
# Si number density = 18.109687 Si / 1000 Ang^3
#
#
#
# Elastic Constant Matrix: (Units=GPa)
#
#
# Indices 1 2 3 4 5 6 
#
# 1 50.7386 20.4984 6.8438 0.0000 0.0000 0.0000
# 2 20.4984 61.7442 8.8959 0.0000 0.0000 0.0000
# 3 6.8438 8.8959 46.8809 0.0000 0.0000 0.0000
# 4 0.0000 0.0000 0.0000 -7.0422 0.0000 0.0000
# 5 0.0000 0.0000 0.0000 0.0000 -10.9089 0.0000
# 6 0.0000 0.0000 0.0000 0.0000 0.0000 19.6510
#
#
#
# Elastic Compliance Matrix: (Units=1/GPa)
#
#
# Indices 1 2 3 4 5 6 
#
# 1 0.022935 -0.007332 -0.001957 0.000000 0.000000 0.000000
# 2 -0.007332 0.018995 -0.002534 0.000000 0.000000 0.000000
# 3 -0.001957 -0.002534 0.022097 0.000000 0.000000 0.000000
# 4 0.000000 0.000000 0.000000 -0.142002 0.000000 0.000000
# 5 0.000000 0.000000 0.000000 0.000000 -0.091668 0.000000
# 6 0.000000 0.000000 0.000000 0.000000 0.000000 0.050888
#
#
# Mechanical properties :
#
#
# Convention : Reuss Voigt Hill
#
# Bulk Modulus (GPa) = 24.76402 25.75999 25.26201
# Shear Modulus (GPa) = -61.23867 8.54836 -26.34516
#
# Velocity S-wave (km/s) = -5.82141 2.17499 -3.81826
# Velocity P-wave (km/s) = 5.61079 4.53461 2.33647
#
# Compressibility (1/GPa) = 0.04038116
#
# Stress axis : x y z
#
# Youngs Moduli (GPa) = 43.60144 52.64492 45.25474
#
# Poissons Ratio (x) = 0.38601 0.08855
# Poissons Ratio (y) = 0.31970 0.11468
# Poissons Ratio (z) = 0.08532 0.13340
#
# Static dielectric constant tensor:
#      x y z
#    x 1.638790 0.000000 0.000000 
#    y 0.000000 1.668340 0.000000 
#    z 0.000000 0.000000 1.616040 
# 
# From -- ./inp_files/48181.got.cif
#   From: 2010.05.17/outbox.cif.g08.bks.cpg/sg72_25_cif.got.tgz:48181.got - 2010.06.03 17:03:01.
