data_PCOD9525313
_publ_section_title
;
Structure prediction by ZEFSAII (Michael W. Deem and Ramdas Pophale) SiO2 
 PCOD9525313
Probable space group: I B A M
;
_chemical_formula_sum "Si O2"
_cell_formula_units_Z 80
_cell_length_a 24.167362
_cell_length_b 20.630366
_cell_length_c 10.202596
_cell_angle_alpha 90.000000
_cell_angle_beta 90.000000
_cell_angle_gamma 90.000000
_cell_volume 5086.825855
_symmetry_space_group_name_H-M "I B A M"
_symmetry_group_IT_number 72
_symmetry_cell_setting 'orthorhombic'
loop_
_space_group_symop_operation_xyz
x,y,z
-x,-y,z
x,-y,1/2-z
-x,y,1/2-z
-x,-y,-z
x,y,-z
-x,y,1/2+z
x,-y,1/2+z
1/2+x,1/2+y,1/2+z
1/2-x,1/2-y,1/2+z
1/2+x,1/2-y,-z
1/2-x,1/2+y,-z
1/2-x,1/2-y,1/2-z
1/2+x,1/2+y,1/2-z
1/2-x,1/2+y,z
1/2+x,1/2-y,z
loop_
_atom_site_type_symbol
_atom_site_label
_atom_site_fract_x
_atom_site_fract_y
_atom_site_fract_z
Si Si1 0.829482 0.085542 0.500000
Si Si2 0.443272 0.642053 0.000000
Si Si3 0.776858 0.147681 0.758014
Si Si4 0.329344 0.214269 0.842394
Si Si5 0.567822 0.361612 0.500000
Si Si6 0.562241 0.266017 0.748070
Si Si7 0.315594 0.565976 0.500000
O O1 0.895771 0.089050 0.500000
O O2 0.807402 0.122800 0.627818
O O3 0.811983 0.011092 0.500000
O O4 0.504880 0.612171 0.000000
O O5 0.434532 0.689011 0.124160
O O6 0.713918 0.163486 0.718027
O O7 0.803570 0.214781 0.810320
O O8 0.786552 0.096046 0.872240
O O9 0.388851 0.214779 0.771742
O O10 0.333857 0.207063 0.000000
O O11 0.570013 0.314931 0.625978
O O12 0.620058 0.409476 0.500000
O O13 0.500000 0.238387 0.750000
#
# Coordination Sequence:
#
# PCOD9525313 Si02
#       7
#     8   8  16  16   8  16   8
#     4  12  22  35  50  75 104 138 186 220 248 297
#     4  10  20  30  47  74 102 132 186 219 235 298
#     4  11  22  34  51  79  97 135 179 211 273 302
#     4  11  19  34  57  73 106 131 168 221 263 325
#     4  10  18  34  47  66 102 144 178 211 255 284
#     4  10  18  30  51  74 102 133 166 210 259 306
#     4  12  22  37  52  67 108 144 180 224 250 297
#
# _framework density 15.726899
#
# number of rings (size 3 to 8) (size 9 to 14) (size 15 to 20)
#    0.000    1.200    7.000    0.600    0.000    1.200 
#    0.000    0.000    0.000    6.000    0.000    0.000 
#    0.000    4.800    0.000    0.000    0.000    0.000 
#
# Total GULP energy -223113.554896 kJ/mol
# GULP energy per Si atom -5577.838872 kJ/mol
# Density = 1.569110 g / cm^3
# Si number density = 15.726899 Si / 1000 Ang^3
#
#
#
# Elastic Constant Matrix: (Units=GPa)
#
#
# Indices 1 2 3 4 5 6 
#
# 1 107.0952 29.9991 14.7236 0.0000 0.0000 0.0000
# 2 29.9991 42.0100 13.6255 0.0000 0.0000 0.0000
# 3 14.7236 13.6255 108.1046 0.0000 0.0000 0.0000
# 4 0.0000 0.0000 0.0000 2.6069 0.0000 0.0000
# 5 0.0000 0.0000 0.0000 0.0000 25.6728 0.0000
# 6 0.0000 0.0000 0.0000 0.0000 0.0000 18.5517
#
#
#
# Elastic Compliance Matrix: (Units=1/GPa)
#
#
# Indices 1 2 3 4 5 6 
#
# 1 0.011705 -0.008176 -0.000564 0.000000 0.000000 0.000000
# 2 -0.008176 0.030529 -0.002734 0.000000 0.000000 0.000000
# 3 -0.000564 -0.002734 0.009672 0.000000 0.000000 0.000000
# 4 0.000000 0.000000 0.000000 0.383595 0.000000 0.000000
# 5 0.000000 0.000000 0.000000 0.000000 0.038952 0.000000
# 6 0.000000 0.000000 0.000000 0.000000 0.000000 0.053903
#
#
# Mechanical properties :
#
#
# Convention : Reuss Voigt Hill
#
# Bulk Modulus (GPa) = 34.53255 41.54512 38.03884
# Shear Modulus (GPa) = 8.91336 22.62373 15.76854
#
# Velocity S-wave (km/s) = 2.38325 3.79692 3.16990
# Velocity P-wave (km/s) = 5.43861 6.75989 6.13492
#
# Compressibility (1/GPa) = 0.02895819
#
# Stress axis : x y z
#
# Youngs Moduli (GPa) = 85.43251 32.75577 103.39428
#
# Poissons Ratio (x) = 0.26780 0.05829
# Poissons Ratio (y) = 0.69847 0.28272
# Poissons Ratio (z) = 0.04816 0.08957
#
# Static dielectric constant tensor:
#      x y z
#    x 1.579890 0.000000 0.000000 
#    y 0.000000 1.480220 0.000000 
#    z 0.000000 0.000000 1.527950 
# 
# From -- ./inp_files/6830.got.cif
#   From: 2010.05.17/outbox.cif.g08.bks.cpg/sg72_4_cif.got.tgz:6830.got - 2010.06.03 17:03:01.
