data_PCOD9525094
_publ_section_title
;
Structure prediction by ZEFSAII (Michael W. Deem and Ramdas Pophale) SiO2 
 PCOD9525094
Probable space group: I B A M
;
_chemical_formula_sum "Si O2"
_cell_formula_units_Z 80
_cell_length_a 17.261291
_cell_length_b 17.601965
_cell_length_c 14.777584
_cell_angle_alpha 90.000000
_cell_angle_beta 90.000000
_cell_angle_gamma 90.000000
_cell_volume 4489.912360
_symmetry_space_group_name_H-M "I B A M"
_symmetry_group_IT_number 72
_symmetry_cell_setting 'orthorhombic'
loop_
_space_group_symop_operation_xyz
x,y,z
-x,-y,z
x,-y,1/2-z
-x,y,1/2-z
-x,-y,-z
x,y,-z
-x,y,1/2+z
x,-y,1/2+z
1/2+x,1/2+y,1/2+z
1/2-x,1/2-y,1/2+z
1/2+x,1/2-y,-z
1/2-x,1/2+y,-z
1/2-x,1/2-y,1/2-z
1/2+x,1/2+y,1/2-z
1/2-x,1/2+y,z
1/2+x,1/2-y,z
loop_
_atom_site_type_symbol
_atom_site_label
_atom_site_fract_x
_atom_site_fract_y
_atom_site_fract_z
Si Si1 0.053722 0.814178 0.000000
Si Si2 0.971139 0.914679 0.146411
Si Si3 0.125592 0.533843 0.150347
Si Si4 0.543854 0.137203 0.500000
Si Si5 0.793879 0.091432 0.000000
Si Si6 0.872304 0.405237 0.500000
Si Si7 0.697568 0.464249 0.152941
O O1 0.066260 0.724626 0.000000
O O2 0.137564 0.850937 0.000000
O O3 0.008999 0.849447 0.913979
O O4 0.877799 0.913167 0.134843
O O5 0.000000 0.906556 0.250000
O O6 0.000000 0.000000 0.117775
O O7 0.104079 0.500000 0.250000
O O8 0.214025 0.566584 0.154020
O O9 0.073720 0.592325 0.090558
O O10 0.126859 0.460125 0.086642
O O11 0.451001 0.139653 0.500000
O O12 0.801035 0.034014 0.916322
O O13 0.711173 0.133056 0.000000
O O14 0.682251 0.500000 0.250000
#
# Coordination Sequence:
#
# PCOD9525094 Si02
#       7
#     8  16  16   8   8   8  16
#     4  12  23  36  54  83 131 156 186 235 303 358
#     4  11  19  34  59  85 119 161 195 237 270 346
#     4   9  19  37  65  84 106 147 195 254 285 335
#     4  11  24  41  52  90 117 145 195 248 298 362
#     4  10  18  33  55  78 112 154 175 241 290 331
#     4   9  20  37  58  80 108 140 201 242 280 349
#     4  10  17  31  59  91 109 138 211 237 274 334
#
# _framework density 17.817720000000001
#
# number of rings (size 3 to 8) (size 9 to 14) (size 15 to 20)
#    0.000    1.800    4.000    2.700    0.000    1.600 
#    7.200    0.000    0.000    4.800    0.000    0.000 
#    0.000    0.000    0.000    0.000    0.000    0.000 
#
# Total GULP energy -222741.070900 kJ/mol
# GULP energy per Si atom -5568.526772 kJ/mol
# Density = 1.777717 g / cm^3
# Si number density = 17.817720 Si / 1000 Ang^3
#
#
#
# Elastic Constant Matrix: (Units=GPa)
#
#
# Indices 1 2 3 4 5 6 
#
# 1 138.4191 26.6068 29.9296 0.0000 0.0000 0.0000
# 2 26.6068 49.2296 35.3240 0.0000 0.0000 0.0000
# 3 29.9296 35.3240 126.5069 0.0000 0.0000 0.0000
# 4 0.0000 0.0000 0.0000 23.7519 0.0000 0.0000
# 5 0.0000 0.0000 0.0000 0.0000 24.3764 0.0000
# 6 0.0000 0.0000 0.0000 0.0000 0.0000 13.2874
#
#
#
# Elastic Compliance Matrix: (Units=1/GPa)
#
#
# Indices 1 2 3 4 5 6 
#
# 1 0.008138 -0.003773 -0.000872 0.000000 0.000000 0.000000
# 2 -0.003773 0.027151 -0.006689 0.000000 0.000000 0.000000
# 3 -0.000872 -0.006689 0.009979 0.000000 0.000000 0.000000
# 4 0.000000 0.000000 0.000000 0.042102 0.000000 0.000000
# 5 0.000000 0.000000 0.000000 0.000000 0.041023 0.000000
# 6 0.000000 0.000000 0.000000 0.000000 0.000000 0.075259
#
#
# Mechanical properties :
#
#
# Convention : Reuss Voigt Hill
#
# Bulk Modulus (GPa) = 44.24517 55.31962 49.78239
# Shear Modulus (GPa) = 21.38090 27.10283 24.24186
#
# Velocity S-wave (km/s) = 3.46783 3.90438 3.69256
# Velocity P-wave (km/s) = 6.39691 7.17220 6.79562
#
# Compressibility (1/GPa) = 0.02260134
#
# Stress axis : x y z
#
# Youngs Moduli (GPa) = 122.87790 36.83042 100.21369
#
# Poissons Ratio (x) = 0.13895 0.08738
# Poissons Ratio (y) = 0.46359 0.67031
# Poissons Ratio (z) = 0.10714 0.24635
#
# Static dielectric constant tensor:
#      x y z
#    x 1.697410 0.000000 0.000000 
#    y 0.000000 1.550610 0.000000 
#    z 0.000000 0.000000 1.635790 
# 
# From -- ./inp_files/23169.got.cif
#   From: 2010.05.17/outbox.cif.g08.bks.cpg/sg72_12_cif.got.tgz:23169.got - 2010.06.03 17:03:01.
