data_PCOD9525914
_publ_section_title
;
Structure prediction by ZEFSAII (Michael W. Deem and Ramdas Pophale) SiO2 
 PCOD9525914
Probable space group: I B A M
;
_chemical_formula_sum "Si O2"
_cell_formula_units_Z 96
_cell_length_a 11.527716
_cell_length_b 16.507107
_cell_length_c 23.192107
_cell_angle_alpha 90.000000
_cell_angle_beta 90.000000
_cell_angle_gamma 90.000000
_cell_volume 4413.208449
_symmetry_space_group_name_H-M "I B A M"
_symmetry_group_IT_number 72
_symmetry_cell_setting 'orthorhombic'
loop_
_space_group_symop_operation_xyz
x,y,z
-x,-y,z
x,-y,1/2-z
-x,y,1/2-z
-x,-y,-z
x,y,-z
-x,y,1/2+z
x,-y,1/2+z
1/2+x,1/2+y,1/2+z
1/2-x,1/2-y,1/2+z
1/2+x,1/2-y,-z
1/2-x,1/2+y,-z
1/2-x,1/2-y,1/2-z
1/2+x,1/2+y,1/2-z
1/2-x,1/2+y,z
1/2+x,1/2-y,z
loop_
_atom_site_type_symbol
_atom_site_label
_atom_site_fract_x
_atom_site_fract_y
_atom_site_fract_z
Si Si1 0.714451 0.393759 0.434493
Si Si2 0.373700 0.794407 0.434641
Si Si3 0.758648 0.346757 0.257787
Si Si4 0.060440 0.076810 0.336971
Si Si5 0.678976 0.655437 0.635875
Si Si6 0.590878 0.837119 0.640935
O O1 0.714259 0.420006 0.500000
O O2 0.660118 0.301613 0.432179
O O3 0.638587 0.447411 0.391561
O O4 0.841673 0.389355 0.406769
O O5 0.416586 0.809014 0.500000
O O6 0.259748 0.847777 0.420103
O O7 0.464549 0.817403 0.384141
O O8 0.750000 0.250000 0.250000
O O9 0.645957 0.375544 0.294284
O O10 0.744606 0.378832 0.192622
O O11 0.873305 0.368946 0.295197
O O12 0.951602 0.124874 0.362259
O O13 0.000000 0.000000 0.309498
O O14 0.658065 0.751627 0.642016
#
# Coordination Sequence:
#
# PCOD9525914 Si02
#       6
#    16  16  16  16  16  16
#     4   9  18  32  51  78 112 154 195 239 294 352
#     4  10  19  32  55  83 115 152 192 248 304 349
#     4   9  20  35  56  80 112 151 193 243 296 362
#     4  11  22  37  57  84 119 157 194 240 308 382
#     4  10  20  33  50  82 117 146 188 239 302 363
#     4   9  17  32  53  80 111 145 191 244 299 346
#
# _framework density 21.752882
#
# number of rings (size 3 to 8) (size 9 to 14) (size 15 to 20)
#    0.000    2.333    1.667    2.000    0.000    3.667 
#    0.000    0.000    0.000    4.000    0.000   10.500 
#    0.000    0.000    0.000    0.000    0.000    0.000 
#
# Total GULP energy -267245.572024 kJ/mol
# GULP energy per Si atom -5567.616084 kJ/mol
# Density = 2.170337 g / cm^3
# Si number density = 21.752882 Si / 1000 Ang^3
#
#
#
# Elastic Constant Matrix: (Units=GPa)
#
#
# Indices 1 2 3 4 5 6 
#
# 1 47.4349 5.0298 13.8414 0.0000 0.0000 0.0000
# 2 5.0298 24.3257 4.7665 0.0000 0.0000 0.0000
# 3 13.8414 4.7665 57.9212 0.0000 0.0000 0.0000
# 4 0.0000 0.0000 0.0000 4.4730 0.0000 0.0000
# 5 0.0000 0.0000 0.0000 0.0000 19.2352 0.0000
# 6 0.0000 0.0000 0.0000 0.0000 0.0000 21.4297
#
#
#
# Elastic Compliance Matrix: (Units=1/GPa)
#
#
# Indices 1 2 3 4 5 6 
#
# 1 0.022991 -0.003738 -0.005187 0.000000 0.000000 0.000000
# 2 -0.003738 0.042390 -0.002595 0.000000 0.000000 0.000000
# 3 -0.005187 -0.002595 0.018718 0.000000 0.000000 0.000000
# 4 0.000000 0.000000 0.000000 0.223566 0.000000 0.000000
# 5 0.000000 0.000000 0.000000 0.000000 0.051988 0.000000
# 6 0.000000 0.000000 0.000000 0.000000 0.000000 0.046664
#
#
# Mechanical properties :
#
#
# Convention : Reuss Voigt Hill
#
# Bulk Modulus (GPa) = 16.37724 19.66190 18.01957
# Shear Modulus (GPa) = 11.11828 16.09716 13.60772
#
# Velocity S-wave (km/s) = 2.26324 2.72325 2.50383
# Velocity P-wave (km/s) = 3.79141 4.35276 4.08175
#
# Compressibility (1/GPa) = 0.06106036
#
# Stress axis : x y z
#
# Youngs Moduli (GPa) = 43.49471 23.59038 53.42491
#
# Poissons Ratio (x) = 0.08817 0.27710
# Poissons Ratio (y) = 0.16257 0.13865
# Poissons Ratio (z) = 0.22559 0.06122
#
# Static dielectric constant tensor:
#      x y z
#    x 1.908010 0.000000 0.000000 
#    y 0.000000 1.892140 0.000000 
#    z 0.000000 0.000000 1.821620 
# 
# From -- ./inp_files/43341.got.cif
#   From: 2010.05.17/outbox.cif.g08.bks.cpg/sg72_22_cif.got.tgz:43341.got - 2010.06.03 17:03:01.
