data_PCOD9525190
_publ_section_title
;
Structure prediction by ZEFSAII (Michael W. Deem and Ramdas Pophale) SiO2 
 PCOD9525190
Probable space group: I B A M
;
_chemical_formula_sum "Si O2"
_cell_formula_units_Z 80
_cell_length_a 23.088953
_cell_length_b 12.015666
_cell_length_c 15.343569
_cell_angle_alpha 90.000000
_cell_angle_beta 90.000000
_cell_angle_gamma 90.000000
_cell_volume 4256.753268
_symmetry_space_group_name_H-M "I B A M"
_symmetry_group_IT_number 72
_symmetry_cell_setting 'orthorhombic'
loop_
_space_group_symop_operation_xyz
x,y,z
-x,-y,z
x,-y,1/2-z
-x,y,1/2-z
-x,-y,-z
x,y,-z
-x,y,1/2+z
x,-y,1/2+z
1/2+x,1/2+y,1/2+z
1/2-x,1/2-y,1/2+z
1/2+x,1/2-y,-z
1/2-x,1/2+y,-z
1/2-x,1/2-y,1/2-z
1/2+x,1/2+y,1/2-z
1/2-x,1/2+y,z
1/2+x,1/2-y,z
loop_
_atom_site_type_symbol
_atom_site_label
_atom_site_fract_x
_atom_site_fract_y
_atom_site_fract_z
Si Si1 0.355349 0.774885 0.901351
Si Si2 0.933612 0.475746 0.646919
Si Si3 0.338969 0.852486 0.403304
Si Si4 0.750223 0.955262 0.598764
Si Si5 0.309857 0.682429 0.264528
O O1 0.409918 0.853020 0.876004
O O2 0.300709 0.861273 0.900345
O O3 0.341978 0.682933 0.828112
O O4 0.360797 0.732772 0.000000
O O5 0.925953 0.500000 0.750000
O O6 0.891918 0.562300 0.598746
O O7 0.000000 0.500000 0.624545
O O8 0.331675 0.804190 0.500000
O O9 0.346039 0.761867 0.329377
O O10 0.282418 0.928511 0.384755
O O11 0.773791 0.957490 0.500000
O O12 0.793345 0.922413 0.675665
O O13 0.250000 0.750000 0.250000
#
# Coordination Sequence:
#
# PCOD9525190 Si02
#       5
#    16  16  16  16  16
#     4   9  17  28  40  57  82 112 149 184 216 254
#     4  10  18  29  45  63  88 121 156 186 221 267
#     4  10  19  31  47  67  91 120 157 188 224 269
#     4   8  16  28  43  63  85 112 147 188 222 265
#     4  10  18  28  45  60  85 118 154 186 229 263
#
# _framework density 18.793665000000001
#
# number of rings (size 3 to 8) (size 9 to 14) (size 15 to 20)
#    0.000    2.600    2.000    2.400    0.000    2.400 
#    0.000    0.000    0.000    1.200    0.000    0.000 
#    0.000    0.000    0.000   50.400    0.000  267.600 
#
# Total GULP energy -223149.805296 kJ/mol
# GULP energy per Si atom -5578.745132 kJ/mol
# Density = 1.875089 g / cm^3
# Si number density = 18.793665 Si / 1000 Ang^3
#
#
#
# Elastic Constant Matrix: (Units=GPa)
#
#
# Indices 1 2 3 4 5 6 
#
# 1 67.9739 24.6836 46.7175 0.0000 0.0000 0.0000
# 2 24.6836 31.6382 50.6049 0.0000 0.0000 0.0000
# 3 46.7175 50.6049 170.9073 0.0000 0.0000 0.0000
# 4 0.0000 0.0000 0.0000 8.1147 0.0000 0.0000
# 5 0.0000 0.0000 0.0000 0.0000 15.4253 0.0000
# 6 0.0000 0.0000 0.0000 0.0000 0.0000 18.0966
#
#
#
# Elastic Compliance Matrix: (Units=1/GPa)
#
#
# Indices 1 2 3 4 5 6 
#
# 1 0.020775 -0.013536 -0.001671 0.000000 0.000000 0.000000
# 2 -0.013536 0.068863 -0.016690 0.000000 0.000000 0.000000
# 3 -0.001671 -0.016690 0.011250 0.000000 0.000000 0.000000
# 4 0.000000 0.000000 0.000000 0.123233 0.000000 0.000000
# 5 0.000000 0.000000 0.000000 0.000000 0.064829 0.000000
# 6 0.000000 0.000000 0.000000 0.000000 0.000000 0.055259
#
#
# Mechanical properties :
#
#
# Convention : Reuss Voigt Hill
#
# Bulk Modulus (GPa) = 26.95809 57.17016 42.06413
# Shear Modulus (GPa) = 11.89436 18.22821 15.06128
#
# Velocity S-wave (km/s) = 2.51846 3.11772 2.83398
# Velocity P-wave (km/s) = 4.77831 6.59137 5.75667
#
# Compressibility (1/GPa) = 0.03709461
#
# Stress axis : x y z
#
# Youngs Moduli (GPa) = 48.13420 14.52154 88.89048
#
# Poissons Ratio (x) = 0.19656 0.14854
# Poissons Ratio (y) = 0.65153 1.48360
# Poissons Ratio (z) = 0.08044 0.24237
#
# Static dielectric constant tensor:
#      x y z
#    x 1.631060 0.000000 0.000000 
#    y 0.000000 1.686020 0.000000 
#    z 0.000000 0.000000 1.714510 
# 
# From -- ./inp_files/20185.got.cif
#   From: 2010.05.17/outbox.cif.g08.bks.cpg/sg72_11_cif.got.tgz:20185.got - 2010.06.03 17:03:01.
