data_PCOD9525609
_publ_section_title
;
Structure prediction by ZEFSAII (Michael W. Deem and Ramdas Pophale) SiO2 
 PCOD9525609
Probable space group: I B A M
;
_chemical_formula_sum "Si O2"
_cell_formula_units_Z 92
_cell_length_a 12.018920
_cell_length_b 15.016827
_cell_length_c 20.267884
_cell_angle_alpha 90.000000
_cell_angle_beta 90.000000
_cell_angle_gamma 90.000000
_cell_volume 3658.070170
_symmetry_space_group_name_H-M "I B A M"
_symmetry_group_IT_number 72
_symmetry_cell_setting 'orthorhombic'
loop_
_space_group_symop_operation_xyz
x,y,z
-x,-y,z
x,-y,1/2-z
-x,y,1/2-z
-x,-y,-z
x,y,-z
-x,y,1/2+z
x,-y,1/2+z
1/2+x,1/2+y,1/2+z
1/2-x,1/2-y,1/2+z
1/2+x,1/2-y,-z
1/2-x,1/2+y,-z
1/2-x,1/2-y,1/2-z
1/2+x,1/2+y,1/2-z
1/2-x,1/2+y,z
1/2+x,1/2-y,z
loop_
_atom_site_type_symbol
_atom_site_label
_atom_site_fract_x
_atom_site_fract_y
_atom_site_fract_z
Si Si1 0.415135 0.424466 0.381335
Si Si2 0.500000 0.000000 0.250000
Si Si3 0.757062 0.669929 0.853126
Si Si4 0.655108 0.978603 0.137320
Si Si5 0.394423 0.692678 0.771252
Si Si6 0.372127 0.693238 0.000000
Si Si7 0.251976 0.358616 0.000000
Si Si8 0.166320 0.438508 0.500000
O O1 0.500000 0.500000 0.402700
O O2 0.285701 0.452523 0.370277
O O3 0.447194 0.388288 0.310813
O O4 0.426094 0.348123 0.435814
O O5 0.414859 0.051088 0.200586
O O6 0.839068 0.585582 0.857294
O O7 0.674448 0.660327 0.791491
O O8 0.820731 0.757235 0.826616
O O9 0.703149 0.670298 0.926975
O O10 0.603925 0.941831 0.069348
O O11 0.500000 0.751268 0.750000
O O12 0.360825 0.798838 0.000000
O O13 0.249418 0.645564 0.000000
O O14 0.234238 0.465447 0.000000
#
# Coordination Sequence:
#
# PCOD9525609 Si02
#       8
#    16   4  16  16  16   8   8   8
#     4  11  22  40  68  99 136 172 220 277 348 417
#     4  12  24  38  66  88 120 170 226 266 328 402
#     4  10  22  41  62  87 128 168 218 272 327 403
#     4  10  22  40  62  94 123 171 215 272 327 394
#     4  11  23  38  60  94 130 170 211 273 333 405
#     4  10  19  38  65 104 133 174 225 278 343 416
#     4  10  18  41  68  89 129 181 219 276 341 401
#     4   8  20  38  63  91 132 166 219 282 322 403
#
# _framework density 25.149872999999999
#
# number of rings (size 3 to 8) (size 9 to 14) (size 15 to 20)
#    0.000    1.739    1.739    2.348    1.217    2.087 
#    0.000    3.478    0.000    2.087    0.000    0.609 
#    0.000    0.000    0.000    0.000    0.000    0.000 
#
# Total GULP energy -256591.048181 kJ/mol
# GULP energy per Si atom -5578.066265 kJ/mol
# Density = 2.509263 g / cm^3
# Si number density = 25.149873 Si / 1000 Ang^3
#
#
#
# Elastic Constant Matrix: (Units=GPa)
#
#
# Indices 1 2 3 4 5 6 
#
# 1 73.5845 -2.2135 16.6639 0.0000 0.0000 0.0000
# 2 -2.2135 62.8055 14.0242 0.0000 0.0000 0.0000
# 3 16.6639 14.0242 226.2931 0.0000 0.0000 0.0000
# 4 0.0000 0.0000 0.0000 32.2804 0.0000 0.0000
# 5 0.0000 0.0000 0.0000 0.0000 2.3068 0.0000
# 6 0.0000 0.0000 0.0000 0.0000 0.0000 12.7118
#
#
#
# Elastic Compliance Matrix: (Units=1/GPa)
#
#
# Indices 1 2 3 4 5 6 
#
# 1 0.013853 0.000726 -0.001065 0.000000 0.000000 0.000000
# 2 0.000726 0.016184 -0.001056 0.000000 0.000000 0.000000
# 3 -0.001065 -0.001056 0.004563 0.000000 0.000000 0.000000
# 4 0.000000 0.000000 0.000000 0.030979 0.000000 0.000000
# 5 0.000000 0.000000 0.000000 0.000000 0.433497 0.000000
# 6 0.000000 0.000000 0.000000 0.000000 0.000000 0.078667
#
#
# Mechanical properties :
#
#
# Convention : Reuss Voigt Hill
#
# Bulk Modulus (GPa) = 31.43809 46.62582 39.03196
# Shear Modulus (GPa) = 8.45830 31.74037 20.09933
#
# Velocity S-wave (km/s) = 1.83588 3.55639 2.83005
# Velocity P-wave (km/s) = 4.12570 5.95343 5.12175
#
# Compressibility (1/GPa) = 0.03180854
#
# Stress axis : x y z
#
# Youngs Moduli (GPa) = 72.18720 61.79074 219.15639
#
# Poissons Ratio (x) = -0.04486 0.23342
# Poissons Ratio (y) = -0.05241 0.23152
# Poissons Ratio (z) = 0.07689 0.06528
#
# Static dielectric constant tensor:
#      x y z
#    x 2.082620 0.000000 0.000000 
#    y 0.000000 1.971460 0.000000 
#    z 0.000000 0.000000 2.032070 
# 
# From -- ./inp_files/36945.got.cif
#   From: 2010.05.17/outbox.cif.g08.bks.cpg/sg72_19_cif.got.tgz:36945.got - 2010.06.03 17:03:01.
