data_PCOD9525757
_publ_section_title
;
Structure prediction by ZEFSAII (Michael W. Deem and Ramdas Pophale) SiO2 
 PCOD9525757
Probable space group: I B A M
;
_chemical_formula_sum "Si O2"
_cell_formula_units_Z 96
_cell_length_a 18.705726
_cell_length_b 19.604871
_cell_length_c 15.976505
_cell_angle_alpha 90.000000
_cell_angle_beta 90.000000
_cell_angle_gamma 90.000000
_cell_volume 5858.957358
_symmetry_space_group_name_H-M "I B A M"
_symmetry_group_IT_number 72
_symmetry_cell_setting 'orthorhombic'
loop_
_space_group_symop_operation_xyz
x,y,z
-x,-y,z
x,-y,1/2-z
-x,y,1/2-z
-x,-y,-z
x,y,-z
-x,y,1/2+z
x,-y,1/2+z
1/2+x,1/2+y,1/2+z
1/2-x,1/2-y,1/2+z
1/2+x,1/2-y,-z
1/2-x,1/2+y,-z
1/2-x,1/2-y,1/2-z
1/2+x,1/2+y,1/2-z
1/2-x,1/2+y,z
1/2+x,1/2-y,z
loop_
_atom_site_type_symbol
_atom_site_label
_atom_site_fract_x
_atom_site_fract_y
_atom_site_fract_z
Si Si1 0.644452 0.421593 0.598750
Si Si2 0.760212 0.577816 0.247086
Si Si3 0.845759 0.922685 0.904410
Si Si4 0.328911 0.217537 0.255051
Si Si5 0.949490 0.801441 0.667779
Si Si6 0.088383 0.777969 0.591851
O O1 0.660560 0.408311 0.500000
O O2 0.711175 0.413432 0.663370
O O3 0.622704 0.501389 0.605181
O O4 0.583553 0.370666 0.631309
O O5 0.786904 0.500000 0.250000
O O6 0.710338 0.586397 0.329327
O O7 0.818742 0.636783 0.251135
O O8 0.899438 0.859440 0.897049
O O9 0.815757 0.919680 0.000000
O O10 0.250000 0.250000 0.250000
O O11 0.382883 0.252819 0.189839
O O12 0.364148 0.238464 0.342313
O O13 0.000000 0.812572 0.750000
O O14 0.004680 0.766468 0.604814
O O15 0.112325 0.759393 0.500000
#
# Coordination Sequence:
#
# PCOD9525757 Si02
#       6
#    16  16  16  16  16  16
#     4  10  19  31  50  78 108 139 175 206 242 309
#     4  10  19  34  53  76 106 136 169 213 267 310
#     4   9  18  32  50  74 108 143 173 205 248 307
#     4  11  19  35  54  78 103 134 177 219 257 306
#     4  10  20  34  51  71 106 143 174 214 257 304
#     4  10  20  34  51  75 107 141 172 211 261 308
#
# _framework density 16.385168
#
# number of rings (size 3 to 8) (size 9 to 14) (size 15 to 20)
#    0.000    2.000    3.333    1.500    0.000    1.333 
#    0.000    6.667    0.000    4.500    0.000    1.167 
#    0.000    0.000    0.000    0.000    0.000    0.000 
#
# Total GULP energy -267366.110200 kJ/mol
# GULP energy per Si atom -5570.127296 kJ/mol
# Density = 1.634787 g / cm^3
# Si number density = 16.385168 Si / 1000 Ang^3
#
#
#
# Elastic Constant Matrix: (Units=GPa)
#
#
# Indices 1 2 3 4 5 6 
#
# 1 85.9615 58.3810 35.4865 0.0000 0.0000 0.0000
# 2 58.3810 96.4748 46.6215 0.0000 0.0000 0.0000
# 3 35.4865 46.6215 80.7485 0.0000 0.0000 0.0000
# 4 0.0000 0.0000 0.0000 16.3574 0.0000 0.0000
# 5 0.0000 0.0000 0.0000 0.0000 5.0352 0.0000
# 6 0.0000 0.0000 0.0000 0.0000 0.0000 24.2193
#
#
#
# Elastic Compliance Matrix: (Units=1/GPa)
#
#
# Indices 1 2 3 4 5 6 
#
# 1 0.020111 -0.010956 -0.002513 0.000000 0.000000 0.000000
# 2 -0.010956 0.020345 -0.006932 0.000000 0.000000 0.000000
# 3 -0.002513 -0.006932 0.017491 0.000000 0.000000 0.000000
# 4 0.000000 0.000000 0.000000 0.061135 0.000000 0.000000
# 5 0.000000 0.000000 0.000000 0.000000 0.198602 0.000000
# 6 0.000000 0.000000 0.000000 0.000000 0.000000 0.041289
#
#
# Mechanical properties :
#
#
# Convention : Reuss Voigt Hill
#
# Bulk Modulus (GPa) = 58.32236 60.46253 59.39245
# Shear Modulus (GPa) = 12.33082 17.30209 14.81645
#
# Velocity S-wave (km/s) = 2.74626 3.25308 3.01035
# Velocity P-wave (km/s) = 6.76223 7.14779 6.95768
#
# Compressibility (1/GPa) = 0.01714608
#
# Stress axis : x y z
#
# Youngs Moduli (GPa) = 49.72383 49.15214 57.17374
#
# Poissons Ratio (x) = 0.53850 0.14366
# Poissons Ratio (y) = 0.54476 0.39631
# Poissons Ratio (z) = 0.12494 0.34071
#
# Static dielectric constant tensor:
#      x y z
#    x 1.531900 0.000000 0.000000 
#    y 0.000000 1.555060 0.000000 
#    z 0.000000 0.000000 1.597000 
# 
# From -- ./inp_files/31641.got.cif
#   From: 2010.05.17/outbox.cif.g08.bks.cpg/sg72_16_cif.got.tgz:31641.got - 2010.06.03 17:03:01.
