data_PCOD9525333
_publ_section_title
;
Structure prediction by ZEFSAII (Michael W. Deem and Ramdas Pophale) SiO2 
 PCOD9525333
Probable space group: I B A M
;
_chemical_formula_sum "Si O2"
_cell_formula_units_Z 88
_cell_length_a 11.539510
_cell_length_b 31.139161
_cell_length_c 14.592692
_cell_angle_alpha 90.000000
_cell_angle_beta 90.000000
_cell_angle_gamma 90.000000
_cell_volume 5243.601644
_symmetry_space_group_name_H-M "I B A M"
_symmetry_group_IT_number 72
_symmetry_cell_setting 'orthorhombic'
loop_
_space_group_symop_operation_xyz
x,y,z
-x,-y,z
x,-y,1/2-z
-x,y,1/2-z
-x,-y,-z
x,y,-z
-x,y,1/2+z
x,-y,1/2+z
1/2+x,1/2+y,1/2+z
1/2-x,1/2-y,1/2+z
1/2+x,1/2-y,-z
1/2-x,1/2+y,-z
1/2-x,1/2-y,1/2-z
1/2+x,1/2+y,1/2-z
1/2-x,1/2+y,z
1/2+x,1/2-y,z
loop_
_atom_site_type_symbol
_atom_site_label
_atom_site_fract_x
_atom_site_fract_y
_atom_site_fract_z
Si Si1 0.658377 0.332900 0.500000
Si Si2 0.498278 0.179822 0.355577
Si Si3 0.130883 0.554381 0.000000
Si Si4 0.722420 0.123781 0.361809
Si Si5 0.789979 0.613322 0.145927
Si Si6 0.885227 0.832541 0.000000
Si Si7 0.852844 0.454826 0.500000
Si Si8 0.364084 0.766050 0.000000
O O1 0.695453 0.359879 0.410524
O O2 0.522519 0.326707 0.500000
O O3 0.742403 0.291576 0.500000
O O4 0.500000 0.192945 0.250000
O O5 0.624332 0.160679 0.377716
O O6 0.410124 0.139699 0.366603
O O7 0.442830 0.217438 0.415406
O O8 0.176600 0.581477 0.913505
O O9 0.172326 0.505275 0.000000
O O10 0.991521 0.552372 0.000000
O O11 0.733730 0.113708 0.254133
O O12 0.836270 0.141561 0.412288
O O13 0.804753 0.568907 0.090966
O O14 0.839216 0.783970 0.000000
#
# Coordination Sequence:
#
# PCOD9525333 Si02
#       8
#     8  16   8  16  16   8   8   8
#     4   9  21  38  53  78 104 143 191 225 267 329
#     4   9  17  33  55  78 102 145 181 213 266 335
#     4  10  19  29  51  89 127 133 177 219 271 336
#     4  10  20  35  54  80 112 149 177 223 273 327
#     4   9  18  36  57  74 108 150 185 210 270 329
#     4  11  24  35  54  80 104 142 185 236 275 315
#     4  10  18  30  54  89 114 150 168 220 273 328
#     4  10  20  36  54  76 108 141 174 234 281 322
#
# _framework density 16.782357999999999
#
# number of rings (size 3 to 8) (size 9 to 14) (size 15 to 20)
#    0.000    2.364    1.818    1.636    2.545    1.455 
#    3.273    4.545    0.000    8.727    0.000   10.182 
#    0.000    0.000    0.000    0.000    0.000    0.000 
#
# Total GULP energy -245239.719623 kJ/mol
# GULP energy per Si atom -5573.629991 kJ/mol
# Density = 1.674416 g / cm^3
# Si number density = 16.782358 Si / 1000 Ang^3
#
#
#
# Elastic Constant Matrix: (Units=GPa)
#
#
# Indices 1 2 3 4 5 6 
#
# 1 86.1591 31.1287 33.5385 0.0000 0.0000 0.0000
# 2 31.1287 110.1449 55.0771 0.0000 0.0000 0.0000
# 3 33.5385 55.0771 122.6136 0.0002 0.0001 0.0000
# 4 0.0000 0.0000 0.0002 -17.1832 0.0000 0.0000
# 5 0.0000 0.0000 0.0001 0.0000 6.3075 0.0000
# 6 0.0000 0.0000 0.0000 0.0000 0.0000 16.3305
#
#
#
# Elastic Compliance Matrix: (Units=1/GPa)
#
#
# Indices 1 2 3 4 5 6 
#
# 1 0.013520 -0.002543 -0.002556 0.000000 0.000000 0.000000
# 2 -0.002543 0.012187 -0.004779 0.000000 0.000000 0.000000
# 3 -0.002556 -0.004779 0.011001 0.000000 0.000000 0.000000
# 4 0.000000 0.000000 0.000000 -0.058196 0.000000 0.000000
# 5 0.000000 0.000000 0.000000 0.000000 0.158542 0.000000
# 6 0.000000 0.000000 0.000000 0.000000 0.000000 0.061235
#
#
# Mechanical properties :
#
#
# Convention : Reuss Voigt Hill
#
# Bulk Modulus (GPa) = 58.98511 62.04514 60.51512
# Shear Modulus (GPa) = 22.35179 14.36917 18.36048
#
# Velocity S-wave (km/s) = 3.65343 2.92928 3.31121
# Velocity P-wave (km/s) = 7.28149 6.96359 7.12431
#
# Compressibility (1/GPa) = 0.01695343
#
# Stress axis : x y z
#
# Youngs Moduli (GPa) = 73.96393 82.05291 90.89724
#
# Poissons Ratio (x) = 0.20866 0.23232
# Poissons Ratio (y) = 0.18809 0.43438
# Poissons Ratio (z) = 0.18904 0.39212
#
# Static dielectric constant tensor:
#      x y z
#    x 1.567840 0.000000 0.000000 
#    y 0.000000 1.545860 0.000000 
#    z 0.000000 0.000000 1.579380 
# 
# From -- ./inp_files/20567.got.cif
#   From: 2010.05.17/outbox.cif.g08.bks.cpg/sg72_11_cif.got.tgz:20567.got - 2010.06.03 17:03:01.
