data_PCOD9525738
_publ_section_title
;
Structure prediction by ZEFSAII (Michael W. Deem and Ramdas Pophale) SiO2 
 PCOD9525738
Probable space group: I B A M
;
_chemical_formula_sum "Si O2"
_cell_formula_units_Z 80
_cell_length_a 27.294071
_cell_length_b 19.012751
_cell_length_c 8.752506
_cell_angle_alpha 90.000000
_cell_angle_beta 90.000000
_cell_angle_gamma 90.000000
_cell_volume 4541.984989
_symmetry_space_group_name_H-M "I B A M"
_symmetry_group_IT_number 72
_symmetry_cell_setting 'orthorhombic'
loop_
_space_group_symop_operation_xyz
x,y,z
-x,-y,z
x,-y,1/2-z
-x,y,1/2-z
-x,-y,-z
x,y,-z
-x,y,1/2+z
x,-y,1/2+z
1/2+x,1/2+y,1/2+z
1/2-x,1/2-y,1/2+z
1/2+x,1/2-y,-z
1/2-x,1/2+y,-z
1/2-x,1/2-y,1/2-z
1/2+x,1/2+y,1/2-z
1/2-x,1/2+y,z
1/2+x,1/2-y,z
loop_
_atom_site_type_symbol
_atom_site_label
_atom_site_fract_x
_atom_site_fract_y
_atom_site_fract_z
Si Si1 0.054535 0.927156 0.317075
Si Si2 0.843753 0.424259 0.316102
Si Si3 0.104830 0.218913 0.816008
Si Si4 0.201454 0.715043 0.817937
Si Si5 0.552096 0.860942 0.682572
O O1 0.051479 0.932350 0.500000
O O2 0.085236 0.858009 0.277453
O O3 0.000000 0.919131 0.250000
O O4 0.074962 0.000000 0.250000
O O5 0.830566 0.500000 0.250000
O O6 0.841551 0.423798 0.500000
O O7 0.809952 0.361920 0.251559
O O8 0.900058 0.405455 0.269837
O O9 0.154847 0.238388 0.732482
O O10 0.065673 0.280088 0.776694
O O11 0.112532 0.223201 0.000000
O O12 0.250000 0.750000 0.750000
O O13 0.204697 0.710511 0.000000
O O14 0.500000 0.882224 0.750000
O O15 0.548766 0.865321 0.500000
#
# Coordination Sequence:
#
# PCOD9525738 Si02
#       5
#    16  16  16  16  16
#     4  10  19  31  49  73 106 143 179 219 264 315
#     4  10  21  38  57  81 112 144 179 219 263 313
#     4   9  19  35  52  74 104 138 177 223 268 316
#     4  11  22  38  61  84 106 136 174 220 270 322
#     4   9  18  31  49  74 106 141 178 217 257 306
#
# _framework density 17.613444999999999
#
# number of rings (size 3 to 8) (size 9 to 14) (size 15 to 20)
#    0.000    2.200    0.000    5.400    0.000    6.000 
#    0.000    3.000    0.000    2.400    0.000    0.000 
#    0.000    0.000    0.000    0.000    0.000    0.000 
#
# Total GULP energy -223265.637657 kJ/mol
# GULP energy per Si atom -5581.640941 kJ/mol
# Density = 1.757336 g / cm^3
# Si number density = 17.613445 Si / 1000 Ang^3
#
#
#
# Elastic Constant Matrix: (Units=GPa)
#
#
# Indices 1 2 3 4 5 6 
#
# 1 96.9000 56.7634 41.7576 0.0000 0.0000 0.0000
# 2 56.7634 154.7993 57.9155 0.0000 0.0000 0.0000
# 3 41.7576 57.9155 70.3405 0.0000 0.0000 0.0000
# 4 0.0000 0.0000 0.0000 29.5765 0.0000 0.0000
# 5 0.0000 0.0000 0.0000 0.0000 31.7961 0.0000
# 6 0.0000 0.0000 0.0000 0.0000 0.0000 10.3082
#
#
#
# Elastic Compliance Matrix: (Units=1/GPa)
#
#
# Indices 1 2 3 4 5 6 
#
# 1 0.014829 -0.003099 -0.006252 0.000000 0.000000 0.000000
# 2 -0.003099 0.009983 -0.006380 0.000000 0.000000 0.000000
# 3 -0.006252 -0.006380 0.023181 0.000000 0.000000 0.000000
# 4 0.000000 0.000000 0.000000 0.033811 0.000000 0.000000
# 5 0.000000 0.000000 0.000000 0.000000 0.031450 0.000000
# 6 0.000000 0.000000 0.000000 0.000000 0.000000 0.097010
#
#
# Mechanical properties :
#
#
# Convention : Reuss Voigt Hill
#
# Bulk Modulus (GPa) = 60.48923 70.54586 65.51755
# Shear Modulus (GPa) = 20.22343 25.37638 22.79991
#
# Velocity S-wave (km/s) = 3.39216 3.79982 3.60176
# Velocity P-wave (km/s) = 7.05404 7.70654 7.38750
#
# Compressibility (1/GPa) = 0.01653187
#
# Stress axis : x y z
#
# Youngs Moduli (GPa) = 67.43383 100.16695 43.13792
#
# Poissons Ratio (x) = 0.31038 0.26970
# Poissons Ratio (y) = 0.20895 0.27524
# Poissons Ratio (z) = 0.42160 0.63910
#
# Static dielectric constant tensor:
#      x y z
#    x 1.576600 0.000000 0.000000 
#    y 0.000000 1.602800 0.000000 
#    z 0.000000 0.000000 1.592190 
# 
# From -- ./inp_files/5037.got.cif
#   From: 2010.05.17/outbox.cif.g08.bks.cpg/sg72_3_cif.got.tgz:5037.got - 2010.06.03 17:03:01.
