data_PCOD9525143
_publ_section_title
;
Structure prediction by ZEFSAII (Michael W. Deem and Ramdas Pophale) SiO2 
 PCOD9525143
Probable space group: I B A M
;
_chemical_formula_sum "Si O2"
_cell_formula_units_Z 112
_cell_length_a 18.672244
_cell_length_b 22.588496
_cell_length_c 14.666035
_cell_angle_alpha 90.000000
_cell_angle_beta 90.000000
_cell_angle_gamma 90.000000
_cell_volume 6185.809574
_symmetry_space_group_name_H-M "I B A M"
_symmetry_group_IT_number 72
_symmetry_cell_setting 'orthorhombic'
loop_
_space_group_symop_operation_xyz
x,y,z
-x,-y,z
x,-y,1/2-z
-x,y,1/2-z
-x,-y,-z
x,y,-z
-x,y,1/2+z
x,-y,1/2+z
1/2+x,1/2+y,1/2+z
1/2-x,1/2-y,1/2+z
1/2+x,1/2-y,-z
1/2-x,1/2+y,-z
1/2-x,1/2-y,1/2-z
1/2+x,1/2+y,1/2-z
1/2-x,1/2+y,z
1/2+x,1/2-y,z
loop_
_atom_site_type_symbol
_atom_site_label
_atom_site_fract_x
_atom_site_fract_y
_atom_site_fract_z
Si Si1 0.394056 0.778315 0.890496
Si Si2 0.197087 0.335021 0.601483
Si Si3 0.242167 0.211440 0.659231
Si Si4 0.352011 0.355421 0.388330
Si Si5 0.950300 0.295009 0.111058
Si Si6 0.984159 0.933401 0.888658
Si Si7 0.600731 0.662295 0.109979
O O1 0.320827 0.810935 0.864657
O O2 0.382304 0.709548 0.861063
O O3 0.468700 0.805305 0.856652
O O4 0.398651 0.776550 0.000000
O O5 0.189195 0.360407 0.500000
O O6 0.217926 0.265200 0.593083
O O7 0.269455 0.362622 0.642885
O O8 0.118215 0.332357 0.645903
O O9 0.250000 0.250000 0.750000
O O10 0.178888 0.164461 0.654922
O O11 0.349372 0.354453 0.500000
O O12 0.408242 0.405323 0.360446
O O13 0.934731 0.225953 0.130288
O O14 0.948722 0.301112 0.000000
O O15 0.047663 0.889295 0.860242
O O16 0.983595 0.932874 0.000000
O O17 0.000000 0.000000 0.859350
O O18 0.609146 0.658269 0.000000
#
# Coordination Sequence:
#
# PCOD9525143 Si02
#       7
#    16  16  16  16  16  16  16
#     4   9  14  23  39  55  72  97 129 161 196 238
#     4   8  14  24  38  52  69  95 125 158 198 241
#     4  10  18  25  34  53  76 100 133 161 192 240
#     4   8  12  20  34  52  74  97 124 159 195 229
#     4   8  12  20  37  56  71  93 127 161 192 235
#     4   9  15  22  37  61  82 102 135 174 204 236
#     4   9  15  26  39  52  78 108 132 164 204 237
#
# _framework density 18.105957
#
# number of rings (size 3 to 8) (size 9 to 14) (size 15 to 20)
#    0.000    3.286    1.429    3.000    0.000    0.000 
#    0.000    2.857    0.000    0.000    0.000    8.000 
#    0.000    1.143    0.000   13.286    0.000   11.857 
#
# Total GULP energy -311762.900830 kJ/mol
# GULP energy per Si atom -5567.194658 kJ/mol
# Density = 1.806475 g / cm^3
# Si number density = 18.105957 Si / 1000 Ang^3
#
#
#
# Elastic Constant Matrix: (Units=GPa)
#
#
# Indices 1 2 3 4 5 6 
#
# 1 226.3810 48.3135 6.2734 0.0000 0.0000 0.0000
# 2 48.3135 49.7544 -6.5213 0.0000 0.0000 0.0000
# 3 6.2734 -6.5213 36.8502 0.0000 0.0000 0.0000
# 4 0.0000 0.0000 0.0000 2.6877 0.0000 0.0000
# 5 0.0000 0.0000 0.0000 0.0000 7.4929 0.0000
# 6 0.0000 0.0000 0.0000 0.0000 0.0000 15.6617
#
#
#
# Elastic Compliance Matrix: (Units=1/GPa)
#
#
# Indices 1 2 3 4 5 6 
#
# 1 0.005713 -0.005809 -0.002001 0.000000 0.000000 0.000000
# 2 -0.005809 0.026484 0.005676 0.000000 0.000000 0.000000
# 3 -0.002001 0.005676 0.028482 0.000000 0.000000 0.000000
# 4 0.000000 0.000000 0.000000 0.372071 0.000000 0.000000
# 5 0.000000 0.000000 0.000000 0.000000 0.133460 0.000000
# 6 0.000000 0.000000 0.000000 0.000000 0.000000 0.063850
#
#
# Mechanical properties :
#
#
# Convention : Reuss Voigt Hill
#
# Bulk Modulus (GPa) = 17.72738 45.45742 31.59240
# Shear Modulus (GPa) = 7.65543 22.82979 15.24261
#
# Velocity S-wave (km/s) = 2.05847 3.55477 2.90462
# Velocity P-wave (km/s) = 3.93216 6.48146 5.36056
#
# Compressibility (1/GPa) = 0.05640990
#
# Stress axis : x y z
#
# Youngs Moduli (GPa) = 175.05207 37.75896 35.11004
#
# Poissons Ratio (x) = 0.21936 0.07024
# Poissons Ratio (y) = 1.01694 -0.19928
# Poissons Ratio (z) = 0.35021 -0.21431
#
# Static dielectric constant tensor:
#      x y z
#    x 1.712250 0.000000 0.000000 
#    y 0.000000 1.562250 0.000000 
#    z 0.000000 0.000000 1.724530 
# 
# From -- ./inp_files/32024.got.cif
#   From: 2010.05.17/outbox.cif.g08.bks.cpg/sg72_17_cif.got.tgz:32024.got - 2010.06.03 17:03:01.
