data_PCOD9525941
_publ_section_title
;
Structure prediction by ZEFSAII (Michael W. Deem and Ramdas Pophale) SiO2 
 PCOD9525941
Probable space group: I B A M
;
_chemical_formula_sum "Si O2"
_cell_formula_units_Z 96
_cell_length_a 9.689475
_cell_length_b 26.308659
_cell_length_c 22.973968
_cell_angle_alpha 90.000000
_cell_angle_beta 90.000000
_cell_angle_gamma 90.000000
_cell_volume 5856.457152
_symmetry_space_group_name_H-M "I B A M"
_symmetry_group_IT_number 72
_symmetry_cell_setting 'orthorhombic'
loop_
_space_group_symop_operation_xyz
x,y,z
-x,-y,z
x,-y,1/2-z
-x,y,1/2-z
-x,-y,-z
x,y,-z
-x,y,1/2+z
x,-y,1/2+z
1/2+x,1/2+y,1/2+z
1/2-x,1/2-y,1/2+z
1/2+x,1/2-y,-z
1/2-x,1/2+y,-z
1/2-x,1/2-y,1/2-z
1/2+x,1/2+y,1/2-z
1/2-x,1/2+y,z
1/2+x,1/2-y,z
loop_
_atom_site_type_symbol
_atom_site_label
_atom_site_fract_x
_atom_site_fract_y
_atom_site_fract_z
Si Si1 0.779163 0.643458 0.694537
Si Si2 0.978232 0.714577 0.375631
Si Si3 0.140535 0.274267 0.500000
Si Si4 0.291402 0.141074 0.665772
Si Si5 0.509519 0.057670 0.679649
Si Si6 0.008084 0.836327 0.626535
Si Si7 0.057216 0.817282 0.500000
O O1 0.868601 0.689929 0.668535
O O2 0.785201 0.646716 0.764236
O O3 0.854113 0.592150 0.671349
O O4 0.625031 0.646770 0.671182
O O5 0.922646 0.703217 0.440631
O O6 0.991763 0.775008 0.369088
O O7 0.123468 0.687716 0.362159
O O8 0.082321 0.216735 0.500000
O O9 0.305571 0.281551 0.500000
O O10 0.383090 0.090995 0.655675
O O11 0.138916 0.139557 0.640557
O O12 0.500000 0.055564 0.750000
O O13 0.500000 0.000000 0.658032
O O14 0.056472 0.846968 0.560515
#
# Coordination Sequence:
#
# PCOD9525941 Si02
#       7
#    16  16   8  16  16  16   8
#     4  10  19  33  49  75 105 133 166 201 251 308
#     4  10  20  32  49  69 103 140 174 203 236 289
#     4  10  20  34  50  68  93 136 188 214 236 274
#     4  10  21  31  49  78 103 132 167 202 250 309
#     4   8  16  34  55  72  96 128 165 209 251 298
#     4  11  21  32  48  73 107 136 169 207 244 288
#     4  10  22  34  50  68  97 139 182 215 241 273
#
# _framework density 16.392163
#
# number of rings (size 3 to 8) (size 9 to 14) (size 15 to 20)
#    0.000    2.167    1.667    3.000    7.000    4.000 
#    0.000    0.833    0.000    4.000    0.000   22.167 
#    0.000    0.000    0.000    0.000    0.000    0.000 
#
# Total GULP energy -267581.386892 kJ/mol
# GULP energy per Si atom -5574.612227 kJ/mol
# Density = 1.635485 g / cm^3
# Si number density = 16.392163 Si / 1000 Ang^3
#
#
#
# Elastic Constant Matrix: (Units=GPa)
#
#
# Indices 1 2 3 4 5 6 
#
# 1 118.6913 33.5428 13.8526 0.0000 0.0000 0.0000
# 2 33.5428 81.8490 16.4647 0.0000 0.0000 0.0000
# 3 13.8526 16.4647 60.2352 0.0000 0.0000 0.0000
# 4 0.0000 0.0000 0.0000 -19.4367 0.0000 0.0000
# 5 0.0000 0.0000 0.0000 0.0000 26.1125 0.0000
# 6 0.0000 0.0000 0.0000 0.0000 0.0000 2.5361
#
#
#
# Elastic Compliance Matrix: (Units=1/GPa)
#
#
# Indices 1 2 3 4 5 6 
#
# 1 0.009610 -0.003697 -0.001200 0.000000 0.000000 0.000000
# 2 -0.003697 0.014351 -0.003072 0.000000 0.000000 0.000000
# 3 -0.001200 -0.003072 0.017717 0.000000 0.000000 0.000000
# 4 0.000000 0.000000 0.000000 -0.051449 0.000000 0.000000
# 5 0.000000 0.000000 0.000000 0.000000 0.038296 0.000000
# 6 0.000000 0.000000 0.000000 0.000000 0.000000 0.394314
#
#
# Mechanical properties :
#
#
# Convention : Reuss Voigt Hill
#
# Bulk Modulus (GPa) = 38.84986 43.16621 41.00803
# Shear Modulus (GPa) = 11.17677 14.97005 13.07341
#
# Velocity S-wave (km/s) = 2.61403 3.02527 2.82714
# Velocity P-wave (km/s) = 5.73259 6.21238 5.97730
#
# Compressibility (1/GPa) = 0.02574012
#
# Stress axis : x y z
#
# Youngs Moduli (GPa) = 104.05815 69.68280 56.44218
#
# Poissons Ratio (x) = 0.25762 0.06770
# Poissons Ratio (y) = 0.38470 0.17341
# Poissons Ratio (z) = 0.12482 0.21409
#
# Static dielectric constant tensor:
#      x y z
#    x 1.557980 0.000000 0.000000 
#    y 0.000000 1.543210 0.000000 
#    z 0.000000 0.000000 1.564580 
# 
# From -- ./inp_files/42606.got.cif
#   From: 2010.05.17/outbox.cif.g08.bks.cpg/sg72_22_cif.got.tgz:42606.got - 2010.06.03 17:03:01.
