data_PCOD9525814
_publ_section_title
;
Structure prediction by ZEFSAII (Michael W. Deem and Ramdas Pophale) SiO2 
 PCOD9525814
Probable space group: I B A M
;
_chemical_formula_sum "Si O2"
_cell_formula_units_Z 96
_cell_length_a 21.119835
_cell_length_b 31.144192
_cell_length_c 8.779246
_cell_angle_alpha 90.000000
_cell_angle_beta 90.000000
_cell_angle_gamma 90.000000
_cell_volume 5774.638572
_symmetry_space_group_name_H-M "I B A M"
_symmetry_group_IT_number 72
_symmetry_cell_setting 'orthorhombic'
loop_
_space_group_symop_operation_xyz
x,y,z
-x,-y,z
x,-y,1/2-z
-x,y,1/2-z
-x,-y,-z
x,y,-z
-x,y,1/2+z
x,-y,1/2+z
1/2+x,1/2+y,1/2+z
1/2-x,1/2-y,1/2+z
1/2+x,1/2-y,-z
1/2-x,1/2+y,-z
1/2-x,1/2-y,1/2-z
1/2+x,1/2+y,1/2-z
1/2-x,1/2+y,z
1/2+x,1/2-y,z
loop_
_atom_site_type_symbol
_atom_site_label
_atom_site_fract_x
_atom_site_fract_y
_atom_site_fract_z
Si Si1 0.436883 0.431086 0.681484
Si Si2 0.793706 0.955117 0.817805
Si Si3 0.697778 0.217077 0.318504
Si Si4 0.906262 0.160043 0.176709
Si Si5 0.933530 0.250683 0.680790
Si Si6 0.740985 0.364572 0.677109
O O1 0.500000 0.451668 0.750000
O O2 0.442529 0.428373 0.500000
O O3 0.369138 0.452104 0.717912
O O4 0.432164 0.383912 0.754995
O O5 0.762883 0.912368 0.746294
O O6 0.769691 0.000000 0.750000
O O7 0.786771 0.954247 0.000000
O O8 0.698090 0.222023 0.500000
O O9 0.750000 0.250000 0.250000
O O10 0.628654 0.227947 0.253352
O O11 0.716948 0.169030 0.269749
O O12 0.927218 0.200577 0.274148
O O13 0.830291 0.154695 0.182380
O O14 0.925093 0.165596 0.000000
O O15 0.933148 0.255789 0.500000
O O16 0.000000 0.266524 0.750000
O O17 0.760057 0.366221 0.500000
#
# Coordination Sequence:
#
# PCOD9525814 Si02
#       6
#    16  16  16  16  16  16
#     4  10  20  32  46  65  92 127 171 217 268 320
#     4  10  21  36  53  73  98 129 168 218 273 325
#     4  12  23  37  57  82 111 145 185 226 271 324
#     4  10  19  32  50  71  99 134 177 222 268 317
#     4  12  24  37  53  75 108 145 184 228 273 321
#     4  10  20  35  56  79 104 136 177 222 269 320
#
# _framework density 16.624417000000001
#
# number of rings (size 3 to 8) (size 9 to 14) (size 15 to 20)
#    0.000    1.333    1.667    5.500    0.000    3.667 
#    0.000    1.667    0.000    0.000    0.000    0.000 
#    0.000    0.667    0.000    6.667    0.000    4.000 
#
# Total GULP energy -268248.762160 kJ/mol
# GULP energy per Si atom -5588.515878 kJ/mol
# Density = 1.658658 g / cm^3
# Si number density = 16.624417 Si / 1000 Ang^3
#
#
#
# Elastic Constant Matrix: (Units=GPa)
#
#
# Indices 1 2 3 4 5 6 
#
# 1 91.1697 52.1082 57.2196 0.0000 0.0000 0.0000
# 2 52.1082 102.5634 66.1068 0.0000 0.0000 0.0000
# 3 57.2196 66.1068 126.5535 0.0000 0.0000 0.0000
# 4 0.0000 0.0000 0.0000 20.7396 0.0000 0.0000
# 5 0.0000 0.0000 0.0000 0.0000 25.2267 0.0000
# 6 0.0000 0.0000 0.0000 0.0000 0.0000 -40.7935
#
#
#
# Elastic Compliance Matrix: (Units=1/GPa)
#
#
# Indices 1 2 3 4 5 6 
#
# 1 0.017229 -0.005627 -0.004851 0.000000 0.000000 0.000000
# 2 -0.005627 0.016537 -0.006094 0.000000 0.000000 0.000000
# 3 -0.004851 -0.006094 0.013278 0.000000 0.000000 0.000000
# 4 0.000000 0.000000 0.000000 0.048217 0.000000 0.000000
# 5 0.000000 0.000000 0.000000 0.000000 0.039641 0.000000
# 6 0.000000 0.000000 0.000000 0.000000 0.000000 -0.024514
#
#
# Mechanical properties :
#
#
# Convention : Reuss Voigt Hill
#
# Bulk Modulus (GPa) = 71.93789 74.57285 73.25537
# Shear Modulus (GPa) = 33.74634 10.69136 22.21885
#
# Velocity S-wave (km/s) = 4.51036 2.53872 3.65981
# Velocity P-wave (km/s) = 8.39588 7.31767 7.87525
#
# Compressibility (1/GPa) = 0.01390088
#
# Stress axis : x y z
#
# Youngs Moduli (GPa) = 58.04205 60.47139 75.31129
#
# Poissons Ratio (x) = 0.34027 0.36530
# Poissons Ratio (y) = 0.32660 0.45895
# Poissons Ratio (z) = 0.28154 0.36852
#
# Static dielectric constant tensor:
#      x y z
#    x 1.564900 0.000000 0.000000 
#    y 0.000000 1.553290 0.000000 
#    z 0.000000 0.000000 1.553280 
# 
# From -- ./inp_files/5944.got.cif
#   From: 2010.05.17/outbox.cif.g08.bks.cpg/sg72_3_cif.got.tgz:5944.got - 2010.06.03 17:03:01.
