data_PCOD9525339
_publ_section_title
;
Structure prediction by ZEFSAII (Michael W. Deem and Ramdas Pophale) SiO2 
 PCOD9525339
Probable space group: I B A M
;
_chemical_formula_sum "Si O2"
_cell_formula_units_Z 120
_cell_length_a 18.359282
_cell_length_b 17.348695
_cell_length_c 16.817273
_cell_angle_alpha 90.000000
_cell_angle_beta 90.000000
_cell_angle_gamma 90.000000
_cell_volume 5356.462625
_symmetry_space_group_name_H-M "I B A M"
_symmetry_group_IT_number 72
_symmetry_cell_setting 'orthorhombic'
loop_
_space_group_symop_operation_xyz
x,y,z
-x,-y,z
x,-y,1/2-z
-x,y,1/2-z
-x,-y,-z
x,y,-z
-x,y,1/2+z
x,-y,1/2+z
1/2+x,1/2+y,1/2+z
1/2-x,1/2-y,1/2+z
1/2+x,1/2-y,-z
1/2-x,1/2+y,-z
1/2-x,1/2-y,1/2-z
1/2+x,1/2+y,1/2-z
1/2-x,1/2+y,z
1/2+x,1/2-y,z
loop_
_atom_site_type_symbol
_atom_site_label
_atom_site_fract_x
_atom_site_fract_y
_atom_site_fract_z
Si Si1 0.070162 0.831805 0.852506
Si Si2 0.101059 0.660998 0.094895
Si Si3 0.669941 0.760446 0.595455
Si Si4 0.160430 0.000000 0.750000
Si Si5 0.333374 0.984525 0.592310
Si Si6 0.781225 0.892172 0.366761
Si Si7 0.088685 0.874905 0.332854
Si Si8 0.442337 0.109752 0.596019
O O1 0.087988 0.742471 0.865068
O O2 0.136888 0.875768 0.894734
O O3 0.077977 0.847871 0.758436
O O4 0.988712 0.858040 0.875176
O O5 0.164945 0.603136 0.122945
O O6 0.027025 0.613643 0.112468
O O7 0.106598 0.677516 0.000000
O O8 0.678041 0.758423 0.500000
O O9 0.736440 0.812613 0.627687
O O10 0.652039 0.676024 0.627616
O O11 0.598574 0.811285 0.617664
O O12 0.209453 0.070346 0.720310
O O13 0.111012 0.035953 0.820106
O O14 0.353500 0.972977 0.500000
O O15 0.262824 0.038645 0.592205
O O16 0.395404 0.039420 0.629849
O O17 0.436491 0.105432 0.500000
#
# Coordination Sequence:
#
# PCOD9525339 Si02
#       8
#    16  16  16   8  16  16  16  16
#     4  10  22  37  60  91 121 160 210 270 316 375
#     4  10  18  30  55  88 120 158 210 260 308 370
#     4  10  20  38  64  92 127 166 207 262 325 383
#     4  10  24  43  66  88 117 166 218 264 313 384
#     4   9  18  32  52  82 121 161 197 245 307 376
#     4  10  22  38  57  86 123 162 206 257 316 375
#     4  10  22  42  65  91 121 162 215 262 314 381
#     4   8  14  28  51  81 116 155 197 242 302 368
#
# _framework density 22.402844000000002
#
# number of rings (size 3 to 8) (size 9 to 14) (size 15 to 20)
#    0.000    2.400    1.333    1.600    0.000   11.200 
#    0.000    2.667    0.000    0.800    0.000   15.867 
#    0.000    0.000    0.000    0.000    0.000    0.000 
#
# Total GULP energy -334255.496948 kJ/mol
# GULP energy per Si atom -5570.924949 kJ/mol
# Density = 2.235185 g / cm^3
# Si number density = 22.402844 Si / 1000 Ang^3
#
#
#
# Elastic Constant Matrix: (Units=GPa)
#
#
# Indices 1 2 3 4 5 6 
#
# 1 97.3434 61.5726 22.1772 0.0000 0.0000 0.0000
# 2 61.5726 123.4142 16.4280 0.0000 0.0000 0.0000
# 3 22.1772 16.4280 8.9426 0.0000 0.0000 0.0000
# 4 0.0000 0.0000 0.0000 72.7455 0.0000 0.0000
# 5 0.0000 0.0000 0.0000 0.0000 16.0568 0.0000
# 6 0.0000 0.0000 0.0000 0.0000 0.0000 -2.3571
#
#
#
# Elastic Compliance Matrix: (Units=1/GPa)
#
#
# Indices 1 2 3 4 5 6 
#
# 1 0.026532 -0.005928 -0.054907 0.000000 0.000000 0.000000
# 2 -0.005928 0.012050 -0.007435 0.000000 0.000000 0.000000
# 3 -0.054907 -0.007435 0.261648 0.000000 0.000000 0.000000
# 4 0.000000 0.000000 0.000000 0.013747 0.000000 0.000000
# 5 0.000000 0.000000 0.000000 0.000000 0.062279 0.000000
# 6 0.000000 0.000000 0.000000 0.000000 0.000000 -0.424247
#
#
# Mechanical properties :
#
#
# Convention : Reuss Voigt Hill
#
# Bulk Modulus (GPa) = 6.10912 47.78398 26.94655
# Shear Modulus (GPa) = 34.93772 25.92385 30.43078
#
# Velocity S-wave (km/s) = 3.95336 3.40541 3.68957
# Velocity P-wave (km/s) = 4.85506 6.06944 5.49590
#
# Compressibility (1/GPa) = 0.16368962
#
# Stress axis : x y z
#
# Youngs Moduli (GPa) = 37.69077 82.98667 3.82193
#
# Poissons Ratio (x) = 0.49196 0.20985
# Poissons Ratio (y) = 0.22344 0.02842
# Poissons Ratio (z) = 2.06948 0.61702
#
# Static dielectric constant tensor:
#      x y z
#    x 1.897520 0.000000 0.000000 
#    y 0.000000 1.876370 0.000000 
#    z 0.000000 0.000000 1.872600 
# 
# From -- ./inp_files/39268.got.cif
#   From: 2010.05.17/outbox.cif.g08.bks.cpg/sg72_20_cif.got.tgz:39268.got - 2010.06.03 17:03:01.
