data_PCOD9525579
_publ_section_title
;
Structure prediction by ZEFSAII (Michael W. Deem and Ramdas Pophale) SiO2 
 PCOD9525579
Probable space group: I B A M
;
_chemical_formula_sum "Si O2"
_cell_formula_units_Z 76
_cell_length_a 11.813105
_cell_length_b 18.575095
_cell_length_c 15.805213
_cell_angle_alpha 90.000000
_cell_angle_beta 90.000000
_cell_angle_gamma 90.000000
_cell_volume 3468.130739
_symmetry_space_group_name_H-M "I B A M"
_symmetry_group_IT_number 72
_symmetry_cell_setting 'orthorhombic'
loop_
_space_group_symop_operation_xyz
x,y,z
-x,-y,z
x,-y,1/2-z
-x,y,1/2-z
-x,-y,-z
x,y,-z
-x,y,1/2+z
x,-y,1/2+z
1/2+x,1/2+y,1/2+z
1/2-x,1/2-y,1/2+z
1/2+x,1/2-y,-z
1/2-x,1/2+y,-z
1/2-x,1/2-y,1/2-z
1/2+x,1/2+y,1/2-z
1/2-x,1/2+y,z
1/2+x,1/2-y,z
loop_
_atom_site_type_symbol
_atom_site_label
_atom_site_fract_x
_atom_site_fract_y
_atom_site_fract_z
Si Si1 0.793389 0.111447 0.000000
Si Si2 0.500000 0.000000 0.250000
Si Si3 0.704812 0.911478 0.318230
Si Si4 0.936626 0.104839 0.500000
Si Si5 0.107912 0.266753 0.000000
Si Si6 0.394320 0.403152 0.688085
Si Si7 0.088062 0.731185 0.678654
O O1 0.756305 0.074392 0.911407
O O2 0.722665 0.186619 0.000000
O O3 0.928487 0.120262 0.000000
O O4 0.415524 0.049793 0.305140
O O5 0.784204 0.927835 0.238295
O O6 0.690042 0.824502 0.313698
O O7 0.871633 0.181414 0.500000
O O8 0.909144 0.070038 0.408604
O O9 0.040730 0.283685 0.915093
O O10 0.500000 0.419338 0.750000
O O11 0.388591 0.315868 0.682961
O O12 0.000000 0.713048 0.750000
#
# Coordination Sequence:
#
# PCOD9525579 Si02
#       7
#     8   4  16   8   8  16  16
#     4  10  20  37  65  84 126 167 216 259 306 370
#     4  12  28  46  66  84 128 162 216 262 308 388
#     4  11  22  42  61  91 123 170 209 258 311 373
#     4  10  18  36  56  96 135 163 204 254 318 375
#     4   8  18  30  49  91 127 164 195 242 310 373
#     4  10  19  34  63  95 128 159 203 260 313 371
#     4   9  17  33  56  88 125 163 200 246 309 367
#
# _framework density 21.913822
#
# number of rings (size 3 to 8) (size 9 to 14) (size 15 to 20)
#    0.000    2.105    3.158    0.632    0.000    0.421 
#    0.000    2.632    0.000    1.263    0.000    0.000 
#    0.000    0.000    0.000    0.000    0.000    0.000 
#
# Total GULP energy -211917.597504 kJ/mol
# GULP energy per Si atom -5576.778882 kJ/mol
# Density = 2.186395 g / cm^3
# Si number density = 21.913822 Si / 1000 Ang^3
#
#
#
# Elastic Constant Matrix: (Units=GPa)
#
#
# Indices 1 2 3 4 5 6 
#
# 1 103.0751 29.8611 79.5372 0.0000 0.0000 0.0000
# 2 29.8611 94.5791 27.1015 0.0000 0.0000 0.0000
# 3 79.5372 27.1015 246.2653 0.0000 0.0000 0.0000
# 4 0.0000 0.0000 0.0000 -35.6107 0.0000 0.0000
# 5 0.0000 0.0000 0.0000 0.0000 34.8142 0.0000
# 6 0.0000 0.0000 0.0000 0.0000 0.0000 23.8267
#
#
#
# Elastic Compliance Matrix: (Units=1/GPa)
#
#
# Indices 1 2 3 4 5 6 
#
# 1 0.013789 -0.003178 -0.004104 0.000000 0.000000 0.000000
# 2 -0.003178 0.011650 -0.000256 0.000000 0.000000 0.000000
# 3 -0.004104 -0.000256 0.005414 0.000000 0.000000 0.000000
# 4 0.000000 0.000000 0.000000 -0.028081 0.000000 0.000000
# 5 0.000000 0.000000 0.000000 0.000000 0.028724 0.000000
# 6 0.000000 0.000000 0.000000 0.000000 0.000000 0.041970
#
#
# Mechanical properties :
#
#
# Convention : Reuss Voigt Hill
#
# Bulk Modulus (GPa) = 63.37712 79.65766 71.51739
# Shear Modulus (GPa) = 53.30566 25.10069 39.20318
#
# Velocity S-wave (km/s) = 4.93740 3.38809 4.23421
# Velocity P-wave (km/s) = 7.84141 7.19269 7.52405
#
# Compressibility (1/GPa) = 0.01577856
#
# Stress axis : x y z
#
# Youngs Moduli (GPa) = 72.52245 85.83915 184.69919
#
# Poissons Ratio (x) = 0.27276 0.75796
# Poissons Ratio (y) = 0.23045 0.04724
# Poissons Ratio (z) = 0.29761 0.02196
#
# Static dielectric constant tensor:
#      x y z
#    x 1.773370 0.000000 0.000000 
#    y 0.000000 1.842210 0.000000 
#    z 0.000000 0.000000 1.844100 
# 
# From -- ./inp_files/20271.got.cif
#   From: 2010.05.17/outbox.cif.g08.bks.cpg/sg72_11_cif.got.tgz:20271.got - 2010.06.03 17:03:01.
