data_PCOD9525637
_publ_section_title
;
Structure prediction by ZEFSAII (Michael W. Deem and Ramdas Pophale) SiO2 
 PCOD9525637
Probable space group: I B A M
;
_chemical_formula_sum "Si O2"
_cell_formula_units_Z 112
_cell_length_a 14.581522
_cell_length_b 27.362504
_cell_length_c 14.445393
_cell_angle_alpha 90.000000
_cell_angle_beta 90.000000
_cell_angle_gamma 90.000000
_cell_volume 5763.523353
_symmetry_space_group_name_H-M "I B A M"
_symmetry_group_IT_number 72
_symmetry_cell_setting 'orthorhombic'
loop_
_space_group_symop_operation_xyz
x,y,z
-x,-y,z
x,-y,1/2-z
-x,y,1/2-z
-x,-y,-z
x,y,-z
-x,y,1/2+z
x,-y,1/2+z
1/2+x,1/2+y,1/2+z
1/2-x,1/2-y,1/2+z
1/2+x,1/2-y,-z
1/2-x,1/2+y,-z
1/2-x,1/2-y,1/2-z
1/2+x,1/2+y,1/2-z
1/2-x,1/2+y,z
1/2+x,1/2-y,z
loop_
_atom_site_type_symbol
_atom_site_label
_atom_site_fract_x
_atom_site_fract_y
_atom_site_fract_z
Si Si1 0.180014 0.284770 0.198685
Si Si2 0.501111 0.890735 0.106015
Si Si3 0.649231 0.691543 0.895277
Si Si4 0.504455 0.558414 0.392704
Si Si5 0.637383 0.600773 0.233544
Si Si6 0.998756 0.272552 0.604282
Si Si7 0.152123 0.606315 0.246355
O O1 0.250000 0.250000 0.250000
O O2 0.241229 0.300337 0.109992
O O3 0.160453 0.334560 0.253377
O O4 0.084634 0.260363 0.171781
O O5 0.508335 0.831268 0.109816
O O6 0.410606 0.904762 0.163994
O O7 0.591127 0.909555 0.159248
O O8 0.496390 0.905668 0.000000
O O9 0.629382 0.655928 0.807890
O O10 0.590392 0.741071 0.882333
O O11 0.626668 0.673293 0.000000
O O12 0.500000 0.500000 0.384026
O O13 0.520344 0.571385 0.500000
O O14 0.577019 0.585257 0.323317
O O15 0.405445 0.572903 0.353542
O O16 0.743710 0.588676 0.250285
O O17 0.968238 0.261156 0.500000
#
# Coordination Sequence:
#
# PCOD9525637 Si02
#       7
#    16  16  16  16  16  16  16
#     4  10  19  29  43  63  92 133 181 231 272 308
#     4   9  17  32  51  71 101 142 188 230 262 299
#     4  10  20  32  48  72 101 136 179 225 271 316
#     4  10  22  41  63  85 108 135 167 201 246 316
#     4  10  20  35  55  81 112 137 165 213 267 317
#     4   9  18  32  47  62  90 137 185 224 261 299
#     4   9  19  31  47  75 103 134 175 217 265 312
#
# _framework density 19.432556999999999
#
# number of rings (size 3 to 8) (size 9 to 14) (size 15 to 20)
#    0.000    2.429    0.000    2.571    0.000   10.857 
#    0.000    0.714    0.000    0.857    0.000    8.000 
#    0.000   13.714    0.000    0.000    0.000    0.000 
#
# Total GULP energy -311906.118021 kJ/mol
# GULP energy per Si atom -5569.752108 kJ/mol
# Density = 1.938833 g / cm^3
# Si number density = 19.432557 Si / 1000 Ang^3
#
#
#
# Elastic Constant Matrix: (Units=GPa)
#
#
# Indices 1 2 3 4 5 6 
#
# 1 127.3198 10.5868 56.2685 0.0000 0.0000 0.0000
# 2 10.5868 15.0642 19.3526 0.0001 0.0000 0.0000
# 3 56.2685 19.3526 142.7047 0.0001 0.0000 0.0000
# 4 0.0000 0.0001 0.0001 19.4231 0.0000 0.0000
# 5 0.0000 0.0000 0.0000 0.0000 22.6511 0.0000
# 6 0.0000 0.0000 0.0000 0.0000 0.0000 7.4439
#
#
#
# Elastic Compliance Matrix: (Units=1/GPa)
#
#
# Indices 1 2 3 4 5 6 
#
# 1 0.009576 -0.002276 -0.003467 0.000000 0.000000 0.000000
# 2 -0.002276 0.080928 -0.010078 -0.000001 0.000000 0.000000
# 3 -0.003467 -0.010078 0.009741 0.000000 0.000000 0.000000
# 4 0.000000 -0.000001 0.000000 0.051485 0.000000 0.000000
# 5 0.000000 0.000000 0.000000 0.000000 0.044148 0.000000
# 6 0.000000 0.000000 0.000000 0.000000 0.000000 0.134339
#
#
# Mechanical properties :
#
#
# Convention : Reuss Voigt Hill
#
# Bulk Modulus (GPa) = 14.57630 50.83382 32.70506
# Shear Modulus (GPa) = 12.99628 23.16233 18.07931
#
# Velocity S-wave (km/s) = 2.58890 3.45619 3.05349
# Velocity P-wave (km/s) = 4.05633 6.49175 5.41279
#
# Compressibility (1/GPa) = 0.06860451
#
# Stress axis : x y z
#
# Youngs Moduli (GPa) = 104.43071 12.35665 102.65655
#
# Poissons Ratio (x) = 0.02812 0.35592
# Poissons Ratio (y) = 0.23763 1.03454
# Poissons Ratio (z) = 0.36207 0.12453
#
# Static dielectric constant tensor:
#      x y z
#    x 1.706740 0.000000 0.000000 
#    y 0.000000 1.728700 0.000000 
#    z 0.000000 0.000000 1.738760 
# 
# From -- ./inp_files/22296.got.cif
#   From: 2010.05.17/outbox.cif.g08.bks.cpg/sg72_12_cif.got.tgz:22296.got - 2010.06.03 17:03:01.
