data_PCOD9525254
_publ_section_title
;
Structure prediction by ZEFSAII (Michael W. Deem and Ramdas Pophale) SiO2 
 PCOD9525254
Probable space group: I B A M
;
_chemical_formula_sum "Si O2"
_cell_formula_units_Z 116
_cell_length_a 18.497693
_cell_length_b 17.993659
_cell_length_c 15.258832
_cell_angle_alpha 90.000000
_cell_angle_beta 90.000000
_cell_angle_gamma 90.000000
_cell_volume 5078.767650
_symmetry_space_group_name_H-M "I B A M"
_symmetry_group_IT_number 72
_symmetry_cell_setting 'orthorhombic'
loop_
_space_group_symop_operation_xyz
x,y,z
-x,-y,z
x,-y,1/2-z
-x,y,1/2-z
-x,-y,-z
x,y,-z
-x,y,1/2+z
x,-y,1/2+z
1/2+x,1/2+y,1/2+z
1/2-x,1/2-y,1/2+z
1/2+x,1/2-y,-z
1/2-x,1/2+y,-z
1/2-x,1/2-y,1/2-z
1/2+x,1/2+y,1/2-z
1/2-x,1/2+y,z
1/2+x,1/2-y,z
loop_
_atom_site_type_symbol
_atom_site_label
_atom_site_fract_x
_atom_site_fract_y
_atom_site_fract_z
Si Si1 0.288214 0.099763 0.892585
Si Si2 0.884943 0.679120 0.107860
Si Si3 0.471391 0.311477 0.400323
Si Si4 0.382723 0.387046 0.103243
Si Si5 0.000000 0.000000 0.250000
Si Si6 0.128322 0.939144 0.357597
Si Si7 0.728602 0.268976 0.606807
Si Si8 0.082941 0.488260 0.106838
O O1 0.213393 0.074568 0.846069
O O2 0.299119 0.186695 0.872177
O O3 0.357024 0.049405 0.867821
O O4 0.276990 0.092251 0.000000
O O5 0.947026 0.734386 0.141575
O O6 0.809699 0.715232 0.136278
O O7 0.892536 0.593976 0.134553
O O8 0.885994 0.679300 0.000000
O O9 0.491320 0.291621 0.500000
O O10 0.541457 0.353688 0.365893
O O11 0.402711 0.367164 0.407134
O O12 0.375637 0.475765 0.108825
O O13 0.319995 0.336403 0.142617
O O14 0.379773 0.373912 0.000000
O O15 0.938361 0.054140 0.290211
O O16 0.730172 0.271904 0.500000
O O17 0.000000 0.500000 0.135580
O O18 0.082048 0.489947 0.000000
#
# Coordination Sequence:
#
# PCOD9525254 Si02
#       8
#    16  16  16  16   4  16  16  16
#     4  10  19  32  54  82 114 149 181 215 267 336
#     4   9  16  27  41  66 105 142 171 203 247 303
#     4  10  18  29  50  77 103 135 171 215 270 336
#     4  10  19  29  50  79 107 135 171 215 268 338
#     4  12  28  40  54  76 102 140 194 254 296 316
#     4  12  21  38  53  74 104 144 183 229 283 336
#     4   9  17  28  45  77 112 138 171 211 259 327
#     4   9  18  29  45  75 118 154 175 202 252 327
#
# _framework density 22.840185000000002
#
# number of rings (size 3 to 8) (size 9 to 14) (size 15 to 20)
#    0.000    2.069    2.759    2.069    1.931    3.310 
#    0.000    0.000    0.000    0.828    0.000    0.483 
#    0.000    0.000    0.000    0.000    0.000    0.000 
#
# Total GULP energy -322969.017425 kJ/mol
# GULP energy per Si atom -5568.431335 kJ/mol
# Density = 2.278820 g / cm^3
# Si number density = 22.840185 Si / 1000 Ang^3
#
#
#
# Elastic Constant Matrix: (Units=GPa)
#
#
# Indices 1 2 3 4 5 6 
#
# 1 109.5028 44.6970 17.8284 0.0000 0.0000 0.0000
# 2 44.6970 147.2203 9.7119 0.0000 0.0000 0.0000
# 3 17.8284 9.7119 24.4402 0.0000 0.0000 0.0000
# 4 0.0000 0.0000 0.0000 10.1108 0.0000 0.0000
# 5 0.0000 0.0000 0.0000 0.0000 10.4341 0.0000
# 6 0.0000 0.0000 0.0000 0.0000 0.0000 -101.3646
#
#
#
# Elastic Compliance Matrix: (Units=1/GPa)
#
#
# Indices 1 2 3 4 5 6 
#
# 1 0.011543 -0.003029 -0.007217 0.000000 0.000000 0.000000
# 2 -0.003029 0.007770 -0.000878 0.000000 0.000000 0.000000
# 3 -0.007217 -0.000878 0.046530 0.000000 0.000000 0.000000
# 4 0.000000 0.000000 0.000000 0.098904 0.000000 0.000000
# 5 0.000000 0.000000 0.000000 0.000000 0.095839 0.000000
# 6 0.000000 0.000000 0.000000 0.000000 0.000000 -0.009865
#
#
# Mechanical properties :
#
#
# Convention : Reuss Voigt Hill
#
# Bulk Modulus (GPa) = 22.93830 47.29311 35.11570
# Shear Modulus (GPa) = 17.39125 -2.23553 7.57786
#
# Velocity S-wave (km/s) = 2.76240 -0.99040 1.82345
# Velocity P-wave (km/s) = 4.49880 4.40944 4.45435
#
# Compressibility (1/GPa) = 0.04359521
#
# Stress axis : x y z
#
# Youngs Moduli (GPa) = 86.62944 128.70062 21.49158
#
# Poissons Ratio (x) = 0.38978 0.15511
# Poissons Ratio (y) = 0.26236 0.01888
# Poissons Ratio (z) = 0.62521 0.11304
#
# Static dielectric constant tensor:
#      x y z
#    x 1.822640 0.000000 0.000000 
#    y 0.000000 1.844360 0.000000 
#    z 0.000000 0.000000 1.984470 
# 
# From -- ./inp_files/44537.got.cif
#   From: 2010.05.17/outbox.cif.g08.bks.cpg/sg72_23_cif.got.tgz:44537.got - 2010.06.03 17:03:01.
