data_PCOD9525818
_publ_section_title
;
Structure prediction by ZEFSAII (Michael W. Deem and Ramdas Pophale) SiO2 
 PCOD9525818
Probable space group: I B A M
;
_chemical_formula_sum "Si O2"
_cell_formula_units_Z 96
_cell_length_a 26.099018
_cell_length_b 25.965755
_cell_length_c 8.658159
_cell_angle_alpha 90.000000
_cell_angle_beta 90.000000
_cell_angle_gamma 90.000000
_cell_volume 5867.467314
_symmetry_space_group_name_H-M "I B A M"
_symmetry_group_IT_number 72
_symmetry_cell_setting 'orthorhombic'
loop_
_space_group_symop_operation_xyz
x,y,z
-x,-y,z
x,-y,1/2-z
-x,y,1/2-z
-x,-y,-z
x,y,-z
-x,y,1/2+z
x,-y,1/2+z
1/2+x,1/2+y,1/2+z
1/2-x,1/2-y,1/2+z
1/2+x,1/2-y,-z
1/2-x,1/2+y,-z
1/2-x,1/2-y,1/2-z
1/2+x,1/2+y,1/2-z
1/2-x,1/2+y,z
1/2+x,1/2-y,z
loop_
_atom_site_type_symbol
_atom_site_label
_atom_site_fract_x
_atom_site_fract_y
_atom_site_fract_z
Si Si1 0.442210 0.140745 0.815917
Si Si2 0.442324 0.361804 0.315025
Si Si3 0.057794 0.252603 0.814973
Si Si4 0.138740 0.058126 0.314332
Si Si5 0.863833 0.558236 0.813844
Si Si6 0.748839 0.057852 0.814368
O O1 0.500000 0.135993 0.750000
O O2 0.419657 0.195626 0.757957
O O3 0.407290 0.094670 0.754393
O O4 0.444750 0.140547 0.000000
O O5 0.500000 0.366802 0.250000
O O6 0.444888 0.365436 0.500000
O O7 0.421536 0.304227 0.275935
O O8 0.405402 0.405288 0.249060
O O9 0.000000 0.251285 0.750000
O O10 0.056888 0.258074 0.000000
O O11 0.136127 0.056116 0.500000
O O12 0.195517 0.079208 0.267616
O O13 0.133701 0.000000 0.250000
O O14 0.868443 0.500000 0.750000
O O15 0.806866 0.579234 0.768836
O O16 0.867407 0.556999 0.000000
O O17 0.748835 0.000000 0.750000
O O18 0.748878 0.056111 0.000000
#
# Coordination Sequence:
#
# PCOD9525818 Si02
#       6
#    16  16  16  16  16  16
#     4  11  21  33  50  73  99 128 161 196 238 285
#     4  10  20  33  50  73  99 128 161 198 241 287
#     4   9  17  31  50  70  93 123 160 199 237 280
#     4  10  19  32  50  73 100 129 161 197 239 286
#     4  10  19  33  51  73 100 128 160 197 239 285
#     4   8  16  30  49  70  93 124 160 197 235 279
#
# _framework density 16.361404
#
# number of rings (size 3 to 8) (size 9 to 14) (size 15 to 20)
#    0.000    2.333    0.000    4.500    0.000    4.000 
#    0.000    3.333    0.000    1.000    0.000    0.000 
#    0.000    0.000    0.000    0.000    0.000    0.000 
#
# Total GULP energy -267309.579701 kJ/mol
# GULP energy per Si atom -5568.949577 kJ/mol
# Density = 1.632416 g / cm^3
# Si number density = 16.361404 Si / 1000 Ang^3
#
#
#
# Elastic Constant Matrix: (Units=GPa)
#
#
# Indices 1 2 3 4 5 6 
#
# 1 111.6138 70.6424 42.7844 0.0000 0.0000 0.0000
# 2 70.6424 111.5113 47.1428 0.0000 0.0000 0.0000
# 3 42.7844 47.1428 79.3508 0.0000 0.0000 0.0000
# 4 0.0000 0.0000 0.0000 25.4696 0.0000 0.0000
# 5 0.0000 0.0000 0.0000 0.0000 15.8588 0.0000
# 6 0.0000 0.0000 0.0000 0.0000 0.0000 -3.0805
#
#
#
# Elastic Compliance Matrix: (Units=1/GPa)
#
#
# Indices 1 2 3 4 5 6 
#
# 1 0.015612 -0.008455 -0.003394 0.000000 0.000000 0.000000
# 2 -0.008455 0.016555 -0.005276 0.000000 0.000000 0.000000
# 3 -0.003394 -0.005276 0.017567 0.000000 0.000000 0.000000
# 4 0.000000 0.000000 0.000000 0.039262 0.000000 0.000000
# 5 0.000000 0.000000 0.000000 0.000000 0.063056 0.000000
# 6 0.000000 0.000000 0.000000 0.000000 0.000000 -0.324621
#
#
# Mechanical properties :
#
#
# Convention : Reuss Voigt Hill
#
# Bulk Modulus (GPa) = 64.59130 69.29059 66.94095
# Shear Modulus (GPa) = -37.55006 17.11001 -10.22002
#
# Velocity S-wave (km/s) = -4.79585 3.23732 -2.50200
# Velocity P-wave (km/s) = 2.98272 7.51103 5.71455
#
# Compressibility (1/GPa) = 0.01548196
#
# Stress axis : x y z
#
# Youngs Moduli (GPa) = 64.05287 60.40569 56.92427
#
# Poissons Ratio (x) = 0.51074 0.19323
# Poissons Ratio (y) = 0.54158 0.30035
# Poissons Ratio (z) = 0.21742 0.31872
#
# Static dielectric constant tensor:
#      x y z
#    x 1.559170 0.000000 0.000000 
#    y 0.000000 1.546460 0.000000 
#    z 0.000000 0.000000 1.549390 
# 
# From -- ./inp_files/5931.got.cif
#   From: 2010.05.17/outbox.cif.g08.bks.cpg/sg72_3_cif.got.tgz:5931.got - 2010.06.03 17:03:01.
