data_PCOD9525217
_publ_section_title
;
Structure prediction by ZEFSAII (Michael W. Deem and Ramdas Pophale) SiO2 
 PCOD9525217
Probable space group: I B A M
;
_chemical_formula_sum "Si O2"
_cell_formula_units_Z 96
_cell_length_a 24.793165
_cell_length_b 8.362433
_cell_length_c 27.687670
_cell_angle_alpha 90.000000
_cell_angle_beta 90.000000
_cell_angle_gamma 90.000000
_cell_volume 5740.517325
_symmetry_space_group_name_H-M "I B A M"
_symmetry_group_IT_number 72
_symmetry_cell_setting 'orthorhombic'
loop_
_space_group_symop_operation_xyz
x,y,z
-x,-y,z
x,-y,1/2-z
-x,y,1/2-z
-x,-y,-z
x,y,-z
-x,y,1/2+z
x,-y,1/2+z
1/2+x,1/2+y,1/2+z
1/2-x,1/2-y,1/2+z
1/2+x,1/2-y,-z
1/2-x,1/2+y,-z
1/2-x,1/2-y,1/2-z
1/2+x,1/2+y,1/2-z
1/2-x,1/2+y,z
1/2+x,1/2-y,z
loop_
_atom_site_type_symbol
_atom_site_label
_atom_site_fract_x
_atom_site_fract_y
_atom_site_fract_z
Si Si1 0.321488 0.189999 0.941289
Si Si2 0.292316 0.171438 0.558036
Si Si3 0.562540 0.554892 0.302227
Si Si4 0.920071 0.875021 0.395183
Si Si5 0.595645 0.700810 0.556508
Si Si6 0.475546 0.829009 0.864571
O O1 0.267099 0.281877 0.925209
O O2 0.373679 0.263485 0.916205
O O3 0.311670 0.005092 0.928394
O O4 0.327121 0.202141 0.000000
O O5 0.287886 0.171441 0.500000
O O6 0.340675 0.293817 0.569255
O O7 0.500000 0.500000 0.302759
O O8 0.583383 0.500000 0.250000
O O9 0.593420 0.460348 0.344260
O O10 0.555442 0.737712 0.320769
O O11 0.974446 0.777846 0.384058
O O12 0.927013 0.025380 0.431172
O O13 0.589686 0.737474 0.500000
O O14 0.565456 0.828106 0.590338
O O15 0.500000 0.000000 0.851428
#
# Coordination Sequence:
#
# PCOD9525217 Si02
#       6
#    16  16  16  16  16  16
#     4  10  18  29  45  67  95 123 157 198 235 276
#     4   9  18  30  45  66  92 126 164 197 228 269
#     4   8  16  33  51  67  91 120 153 194 239 286
#     4  10  19  30  47  69  93 124 158 195 239 286
#     4  10  19  31  46  66  97 135 168 195 229 277
#     4  10  20  32  48  73 100 125 158 196 237 289
#
# _framework density 16.723233
#
# number of rings (size 3 to 8) (size 9 to 14) (size 15 to 20)
#    0.000    2.500    0.000    4.000    0.000    5.000 
#    0.000    6.667    0.000    0.000    0.000   10.500 
#    0.000    0.000    0.000    0.333    0.000    0.000 
#
# Total GULP energy -267203.225923 kJ/mol
# GULP energy per Si atom -5566.733873 kJ/mol
# Density = 1.668517 g / cm^3
# Si number density = 16.723233 Si / 1000 Ang^3
#
#
#
# Elastic Constant Matrix: (Units=GPa)
#
#
# Indices 1 2 3 4 5 6 
#
# 1 62.7768 24.4541 19.2140 0.0000 0.0000 0.0000
# 2 24.4541 60.3542 19.0126 0.0000 0.0000 0.0000
# 3 19.2140 19.0126 82.2663 0.0000 0.0000 0.0000
# 4 0.0000 0.0000 0.0000 9.0658 0.0000 0.0000
# 5 0.0000 0.0000 0.0000 0.0000 1.0753 0.0000
# 6 0.0000 0.0000 0.0000 0.0000 0.0000 28.8376
#
#
#
# Elastic Compliance Matrix: (Units=1/GPa)
#
#
# Indices 1 2 3 4 5 6 
#
# 1 0.019557 -0.006994 -0.002951 0.000000 0.000000 0.000000
# 2 -0.006994 0.020371 -0.003074 0.000000 0.000000 0.000000
# 3 -0.002951 -0.003074 0.013555 0.000000 0.000000 0.000000
# 4 0.000000 0.000000 0.000000 0.110305 0.000000 0.000000
# 5 0.000000 0.000000 0.000000 0.000000 0.929940 0.000000
# 6 0.000000 0.000000 0.000000 0.000000 0.000000 0.034677
#
#
# Mechanical properties :
#
#
# Convention : Reuss Voigt Hill
#
# Bulk Modulus (GPa) = 36.43807 36.75097 36.59452
# Shear Modulus (GPa) = 4.29703 17.31018 10.80360
#
# Velocity S-wave (km/s) = 1.60470 3.22078 2.54446
# Velocity P-wave (km/s) = 5.02689 5.98790 5.52832
#
# Compressibility (1/GPa) = 0.02744383
#
# Stress axis : x y z
#
# Youngs Moduli (GPa) = 51.13162 49.08853 73.77098
#
# Poissons Ratio (x) = 0.34335 0.21772
# Poissons Ratio (y) = 0.35764 0.22680
# Poissons Ratio (z) = 0.15090 0.15092
#
# Static dielectric constant tensor:
#      x y z
#    x 1.569140 0.000000 0.000000 
#    y 0.000000 1.609650 0.000000 
#    z 0.000000 0.000000 1.574810 
# 
# From -- ./inp_files/47304.got.cif
#   From: 2010.05.17/outbox.cif.g08.bks.cpg/sg72_24_cif.got.tgz:47304.got - 2010.06.03 17:03:01.
