data_PCOD9525986
_publ_section_title
;
Structure prediction by ZEFSAII (Michael W. Deem and Ramdas Pophale) SiO2 
 PCOD9525986
Probable space group: I B A M
;
_chemical_formula_sum "Si O2"
_cell_formula_units_Z 80
_cell_length_a 5.159681
_cell_length_b 26.271078
_cell_length_c 25.670207
_cell_angle_alpha 90.000000
_cell_angle_beta 90.000000
_cell_angle_gamma 90.000000
_cell_volume 3479.606365
_symmetry_space_group_name_H-M "I B A M"
_symmetry_group_IT_number 72
_symmetry_cell_setting 'orthorhombic'
loop_
_space_group_symop_operation_xyz
x,y,z
-x,-y,z
x,-y,1/2-z
-x,y,1/2-z
-x,-y,-z
x,y,-z
-x,y,1/2+z
x,-y,1/2+z
1/2+x,1/2+y,1/2+z
1/2-x,1/2-y,1/2+z
1/2+x,1/2-y,-z
1/2-x,1/2+y,-z
1/2-x,1/2-y,1/2-z
1/2+x,1/2+y,1/2-z
1/2-x,1/2+y,z
1/2+x,1/2-y,z
loop_
_atom_site_type_symbol
_atom_site_label
_atom_site_fract_x
_atom_site_fract_y
_atom_site_fract_z
Si Si1 0.648690 0.430379 0.108228
Si Si2 0.489999 0.220413 0.687916
Si Si3 0.143541 0.363462 0.891602
Si Si4 0.724183 0.365664 0.500000
Si Si5 0.724551 0.064231 0.500000
Si Si6 0.752459 0.056302 0.726091
O O1 0.356483 0.408887 0.112543
O O2 0.725496 0.451693 0.164535
O O3 0.853740 0.384608 0.102173
O O4 0.713501 0.462052 0.055630
O O5 0.500000 0.213388 0.750000
O O6 0.785442 0.234725 0.674021
O O7 0.373816 0.172549 0.657656
O O8 0.223714 0.337160 0.946080
O O9 0.439714 0.390373 0.500000
O O10 0.934760 0.412638 0.500000
O O11 0.500000 0.082075 0.750000
O O12 0.000000 0.084112 0.750000
O O13 0.751536 0.000000 0.750000
#
# Coordination Sequence:
#
# PCOD9525986 Si02
#       6
#    16  16  16   8   8  16
#     4  10  19  33  55  80 103 134 176 222 263 311
#     4  10  21  36  50  68 101 141 175 213 262 312
#     4  10  19  33  54  78 103 132 176 221 264 313
#     4   8  16  30  48  75 105 128 160 222 272 302
#     4   8  16  30  50  75 103 132 168 216 266 306
#     4  10  21  36  53  75 110 143 166 205 265 317
#
# _framework density 22.991105000000001
#
# number of rings (size 3 to 8) (size 9 to 14) (size 15 to 20)
#    0.000    2.400    0.000    2.400    0.000    2.400 
#    0.000    1.000    0.000    4.800    0.000    0.000 
#    0.000    0.000    0.000    0.000    0.000    0.000 
#
# Total GULP energy -223007.585855 kJ/mol
# GULP energy per Si atom -5575.189646 kJ/mol
# Density = 2.293878 g / cm^3
# Si number density = 22.991105 Si / 1000 Ang^3
#
#
#
# Elastic Constant Matrix: (Units=GPa)
#
#
# Indices 1 2 3 4 5 6 
#
# 1 162.6301 10.1044 26.3296 0.0000 0.0000 0.0000
# 2 10.1044 18.1335 17.9976 0.0000 0.0000 0.0000
# 3 26.3296 17.9976 201.2282 0.0000 0.0000 0.0000
# 4 0.0000 0.0000 0.0000 90.7510 0.0000 0.0000
# 5 0.0000 0.0000 0.0000 0.0000 37.2816 0.0000
# 6 0.0000 0.0000 0.0000 0.0000 0.0000 12.3868
#
#
#
# Elastic Compliance Matrix: (Units=1/GPa)
#
#
# Indices 1 2 3 4 5 6 
#
# 1 0.006429 -0.003015 -0.000572 0.000000 0.000000 0.000000
# 2 -0.003015 0.061933 -0.005145 0.000000 0.000000 0.000000
# 3 -0.000572 -0.005145 0.005504 0.000000 0.000000 0.000000
# 4 0.000000 0.000000 0.000000 0.011019 0.000000 0.000000
# 5 0.000000 0.000000 0.000000 0.000000 0.026823 0.000000
# 6 0.000000 0.000000 0.000000 0.000000 0.000000 0.080731
#
#
# Mechanical properties :
#
#
# Convention : Reuss Voigt Hill
#
# Bulk Modulus (GPa) = 17.72945 54.53944 36.13444
# Shear Modulus (GPa) = 21.86248 49.92124 35.89186
#
# Velocity S-wave (km/s) = 3.08703 4.66481 3.95539
# Velocity P-wave (km/s) = 4.52045 7.26549 6.05070
#
# Compressibility (1/GPa) = 0.05640333
#
# Stress axis : x y z
#
# Youngs Moduli (GPa) = 155.55057 16.14659 181.67300
#
# Poissons Ratio (x) = 0.04868 0.10383
# Poissons Ratio (y) = 0.46899 0.93465
# Poissons Ratio (z) = 0.08890 0.08307
#
# Static dielectric constant tensor:
#      x y z
#    x 1.453680 0.000000 0.000000 
#    y 0.000000 1.628790 0.000000 
#    z 0.000000 0.000000 1.971770 
# 
# From -- ./inp_files/41588.got.cif
#   From: 2010.05.17/outbox.cif.g08.bks.cpg/sg72_21_cif.got.tgz:41588.got - 2010.06.03 17:03:01.
