data_PCOD9525606
_publ_section_title
;
Structure prediction by ZEFSAII (Michael W. Deem and Ramdas Pophale) SiO2 
 PCOD9525606
Probable space group: I B A M
;
_chemical_formula_sum "Si O2"
_cell_formula_units_Z 80
_cell_length_a 13.139070
_cell_length_b 22.121222
_cell_length_c 14.770759
_cell_angle_alpha 90.000000
_cell_angle_beta 90.000000
_cell_angle_gamma 90.000000
_cell_volume 4293.154845
_symmetry_space_group_name_H-M "I B A M"
_symmetry_group_IT_number 72
_symmetry_cell_setting 'orthorhombic'
loop_
_space_group_symop_operation_xyz
x,y,z
-x,-y,z
x,-y,1/2-z
-x,y,1/2-z
-x,-y,-z
x,y,-z
-x,y,1/2+z
x,-y,1/2+z
1/2+x,1/2+y,1/2+z
1/2-x,1/2-y,1/2+z
1/2+x,1/2-y,-z
1/2-x,1/2+y,-z
1/2-x,1/2-y,1/2-z
1/2+x,1/2+y,1/2-z
1/2-x,1/2+y,z
1/2+x,1/2-y,z
loop_
_atom_site_type_symbol
_atom_site_label
_atom_site_fract_x
_atom_site_fract_y
_atom_site_fract_z
Si Si1 0.918717 0.053350 0.000000
Si Si2 0.832008 0.336578 0.500000
Si Si3 0.094259 0.234429 0.308085
Si Si4 0.310707 0.830465 0.196830
Si Si5 0.115227 0.478868 0.000000
Si Si6 0.245572 0.965206 0.158324
Si Si7 0.411592 0.685598 0.500000
O O1 0.848804 0.047499 0.909585
O O2 0.966353 0.120637 0.000000
O O3 0.000000 0.000000 0.000000
O O4 0.855704 0.309380 0.598665
O O5 0.872194 0.405494 0.500000
O O6 0.708121 0.334250 0.500000
O O7 0.197302 0.196395 0.291332
O O8 0.121057 0.302005 0.275242
O O9 0.069470 0.224883 0.412135
O O10 0.000000 0.211398 0.250000
O O11 0.296516 0.901990 0.189312
O O12 0.174236 0.498487 0.908571
O O13 0.000000 0.500000 0.000000
O O14 0.218446 0.000000 0.250000
#
# Coordination Sequence:
#
# PCOD9525606 Si02
#       7
#     8   8  16  16   8  16   8
#     4  11  21  38  60  89 116 159 201 237 315 375
#     4   8  14  34  60  71 115 151 178 233 298 342
#     4  10  20  34  60  85 111 148 205 242 288 363
#     4   9  18  37  58  81 112 158 187 234 309 353
#     4   9  17  34  55  82 109 160 198 227 281 347
#     4  10  20  39  59  85 124 157 193 249 300 358
#     4  10  18  40  57  82 124 149 187 255 305 348
#
# _framework density 18.634315000000001
#
# number of rings (size 3 to 8) (size 9 to 14) (size 15 to 20)
#    0.000    2.400    6.000    0.000    0.000    3.200 
#    7.200    3.000    0.000    0.000    0.000    0.000 
#    0.000    0.000    0.000    0.000    0.000    0.000 
#
# Total GULP energy -222685.585490 kJ/mol
# GULP energy per Si atom -5567.139637 kJ/mol
# Density = 1.859190 g / cm^3
# Si number density = 18.634315 Si / 1000 Ang^3
#
#
#
# Elastic Constant Matrix: (Units=GPa)
#
#
# Indices 1 2 3 4 5 6 
#
# 1 53.9927 17.6036 46.2961 0.0000 0.0000 0.0000
# 2 17.6036 66.7783 65.0555 0.0001 0.0000 0.0000
# 3 46.2961 65.0555 181.2428 0.0002 0.0000 0.0000
# 4 0.0000 0.0001 0.0002 32.2418 0.0000 0.0000
# 5 0.0000 0.0000 0.0000 0.0000 9.7323 0.0000
# 6 0.0000 0.0000 0.0000 0.0000 0.0000 26.8134
#
#
#
# Elastic Compliance Matrix: (Units=1/GPa)
#
#
# Indices 1 2 3 4 5 6 
#
# 1 0.023728 -0.000539 -0.005868 0.000000 0.000000 0.000000
# 2 -0.000539 0.023039 -0.008132 0.000000 0.000000 0.000000
# 3 -0.005868 -0.008132 0.009935 0.000000 0.000000 0.000000
# 4 0.000000 0.000000 0.000000 0.031016 0.000000 0.000000
# 5 0.000000 0.000000 0.000000 0.000000 0.102750 0.000000
# 6 0.000000 0.000000 0.000000 0.000000 0.000000 0.037295
#
#
# Mechanical properties :
#
#
# Convention : Reuss Voigt Hill
#
# Bulk Modulus (GPa) = 36.19857 62.21380 49.20618
# Shear Modulus (GPa) = 18.79357 25.29474 22.04416
#
# Velocity S-wave (km/s) = 3.17921 3.68833 3.44319
# Velocity P-wave (km/s) = 5.73972 7.18314 6.50161
#
# Compressibility (1/GPa) = 0.02762540
#
# Stress axis : x y z
#
# Youngs Moduli (GPa) = 42.14459 43.40413 100.65206
#
# Poissons Ratio (x) = 0.02338 0.59059
# Poissons Ratio (y) = 0.02271 0.81852
# Poissons Ratio (z) = 0.24729 0.35297
#
# Static dielectric constant tensor:
#      x y z
#    x 1.669270 0.000000 0.000000 
#    y 0.000000 1.656750 0.000000 
#    z 0.000000 0.000000 1.682610 
# 
# From -- ./inp_files/20276.got.cif
#   From: 2010.05.17/outbox.cif.g08.bks.cpg/sg72_11_cif.got.tgz:20276.got - 2010.06.03 17:03:01.
