data_PCOD9525578
_publ_section_title
;
Structure prediction by ZEFSAII (Michael W. Deem and Ramdas Pophale) SiO2 
 PCOD9525578
Probable space group: I B A M
;
_chemical_formula_sum "Si O2"
_cell_formula_units_Z 104
_cell_length_a 11.869699
_cell_length_b 26.921503
_cell_length_c 15.858247
_cell_angle_alpha 90.000000
_cell_angle_beta 90.000000
_cell_angle_gamma 90.000000
_cell_volume 5067.505005
_symmetry_space_group_name_H-M "I B A M"
_symmetry_group_IT_number 72
_symmetry_cell_setting 'orthorhombic'
loop_
_space_group_symop_operation_xyz
x,y,z
-x,-y,z
x,-y,1/2-z
-x,y,1/2-z
-x,-y,-z
x,y,-z
-x,y,1/2+z
x,-y,1/2+z
1/2+x,1/2+y,1/2+z
1/2-x,1/2-y,1/2+z
1/2+x,1/2-y,-z
1/2-x,1/2+y,-z
1/2-x,1/2-y,1/2-z
1/2+x,1/2+y,1/2-z
1/2-x,1/2+y,z
1/2+x,1/2-y,z
loop_
_atom_site_type_symbol
_atom_site_label
_atom_site_fract_x
_atom_site_fract_y
_atom_site_fract_z
Si Si1 0.418047 0.369448 0.829350
Si Si2 0.203875 0.324805 0.597316
Si Si3 0.500000 0.922169 0.250000
Si Si4 0.231655 0.215700 0.600785
Si Si5 0.950194 0.650299 0.904562
Si Si6 0.925884 0.049225 0.407309
Si Si7 0.755110 0.579191 0.715402
O O1 0.500000 0.360678 0.750000
O O2 0.369218 0.318002 0.863928
O O3 0.493486 0.403340 0.890884
O O4 0.310781 0.402202 0.798338
O O5 0.242966 0.332760 0.500000
O O6 0.244435 0.272007 0.632355
O O7 0.232356 0.370991 0.657189
O O8 0.068484 0.321009 0.594350
O O9 0.535167 0.889696 0.331368
O O10 0.621551 0.944504 0.225968
O O11 0.215262 0.220045 0.500000
O O12 0.346586 0.185843 0.615539
O O13 0.933543 0.629840 0.000000
O O14 0.873854 0.053382 0.500000
O O15 0.831476 0.045814 0.336171
O O16 0.000000 0.000000 0.403816
#
# Coordination Sequence:
#
# PCOD9525578 Si02
#       7
#    16  16   8  16  16  16  16
#     4  10  21  35  53  86 118 153 201 254 311 367
#     4   9  19  33  51  78 114 157 204 251 301 359
#     4  10  18  36  56  85 118 154 194 246 299 368
#     4  10  19  34  53  76 112 158 205 254 306 363
#     4   9  18  32  50  74 107 155 202 245 299 361
#     4  10  22  41  66  90 117 158 205 260 317 370
#     4  10  20  35  57  87 119 155 196 245 306 372
#
# _framework density 20.522921
#
# number of rings (size 3 to 8) (size 9 to 14) (size 15 to 20)
#    0.000    2.308    1.538    0.923    0.000    6.462 
#    5.538    4.615    0.000    1.846    0.000    2.154 
#    0.000    0.000    0.000    0.000    0.000    0.000 
#
# Total GULP energy -290104.089810 kJ/mol
# GULP energy per Si atom -5578.924804 kJ/mol
# Density = 2.047621 g / cm^3
# Si number density = 20.522921 Si / 1000 Ang^3
#
#
#
# Elastic Constant Matrix: (Units=GPa)
#
#
# Indices 1 2 3 4 5 6 
#
# 1 85.4472 6.4881 11.2864 0.0000 0.0000 0.0000
# 2 6.4881 62.1146 17.8013 0.0000 0.0000 0.0000
# 3 11.2864 17.8013 43.4889 0.0000 0.0001 0.0000
# 4 0.0000 0.0000 0.0000 19.2898 0.0000 0.0000
# 5 0.0000 0.0000 0.0001 0.0000 20.8649 0.0000
# 6 0.0000 0.0000 0.0000 0.0000 0.0000 12.0391
#
#
#
# Elastic Compliance Matrix: (Units=1/GPa)
#
#
# Indices 1 2 3 4 5 6 
#
# 1 0.012128 -0.000413 -0.002978 0.000000 0.000000 0.000000
# 2 -0.000413 0.018253 -0.007364 0.000000 0.000000 0.000000
# 3 -0.002978 -0.007364 0.026782 0.000000 0.000000 0.000000
# 4 0.000000 0.000000 0.000000 0.051841 0.000000 0.000000
# 5 0.000000 0.000000 0.000000 0.000000 0.047927 0.000000
# 6 0.000000 0.000000 0.000000 0.000000 0.000000 0.083063
#
#
# Mechanical properties :
#
#
# Convention : Reuss Voigt Hill
#
# Bulk Modulus (GPa) = 28.04974 29.13360 28.59167
# Shear Modulus (GPa) = 18.28896 20.80375 19.54635
#
# Velocity S-wave (km/s) = 2.98845 3.18729 3.08947
# Velocity P-wave (km/s) = 5.06013 5.26987 5.16607
#
# Compressibility (1/GPa) = 0.03565095
#
# Stress axis : x y z
#
# Youngs Moduli (GPa) = 82.45449 54.78565 37.33891
#
# Poissons Ratio (x) = 0.02264 0.11121
# Poissons Ratio (y) = 0.03408 0.27497
# Poissons Ratio (z) = 0.24557 0.40345
#
# Static dielectric constant tensor:
#      x y z
#    x 1.742740 0.000000 0.000000 
#    y 0.000000 1.722410 0.000000 
#    z 0.000000 0.000000 1.750620 
# 
# From -- ./inp_files/29657.got.cif
#   From: 2010.05.17/outbox.cif.g08.bks.cpg/sg72_15_cif.got.tgz:29657.got - 2010.06.03 17:03:01.
