data_PCOD9525032
_publ_section_title
;
Structure prediction by ZEFSAII (Michael W. Deem and Ramdas Pophale) SiO2 
 PCOD9525032
Probable space group: I B A M
;
_chemical_formula_sum "Si O2"
_cell_formula_units_Z 88
_cell_length_a 9.333015
_cell_length_b 16.760826
_cell_length_c 22.937652
_cell_angle_alpha 90.000000
_cell_angle_beta 90.000000
_cell_angle_gamma 90.000000
_cell_volume 3588.114893
_symmetry_space_group_name_H-M "I B A M"
_symmetry_group_IT_number 72
_symmetry_cell_setting 'orthorhombic'
loop_
_space_group_symop_operation_xyz
x,y,z
-x,-y,z
x,-y,1/2-z
-x,y,1/2-z
-x,-y,-z
x,y,-z
-x,y,1/2+z
x,-y,1/2+z
1/2+x,1/2+y,1/2+z
1/2-x,1/2-y,1/2+z
1/2+x,1/2-y,-z
1/2-x,1/2+y,-z
1/2-x,1/2-y,1/2-z
1/2+x,1/2+y,1/2-z
1/2-x,1/2+y,z
1/2+x,1/2-y,z
loop_
_atom_site_type_symbol
_atom_site_label
_atom_site_fract_x
_atom_site_fract_y
_atom_site_fract_z
Si Si1 0.266701 0.463982 0.500000
Si Si2 0.000000 0.365923 0.250000
Si Si3 0.045533 0.128161 0.500000
Si Si4 0.834950 0.241829 0.811497
Si Si5 0.806617 0.066940 0.207797
Si Si6 0.272123 0.202995 0.567294
Si Si7 0.640595 0.031139 0.894081
O O1 0.382337 0.395308 0.500000
O O2 0.359876 0.546337 0.500000
O O3 0.164393 0.468635 0.445251
O O4 0.955612 0.308575 0.195902
O O5 0.854036 0.410258 0.268281
O O6 0.105794 0.176844 0.554964
O O7 0.750000 0.250000 0.750000
O O8 0.885543 0.149806 0.805597
O O9 0.744266 0.250683 0.871677
O O10 0.778628 0.026330 0.146117
O O11 0.861793 0.000000 0.250000
O O12 0.315444 0.227823 0.500000
O O13 0.359420 0.121892 0.582366
O O14 0.500000 0.000000 0.862129
#
# Coordination Sequence:
#
# PCOD9525032 Si02
#       7
#     8   8   8  16  16  16  16
#     4   9  15  26  44  73 108 148 183 229 288 355
#     4  10  19  36  59  76 112 154 190 240 299 352
#     4   7  14  28  46  69 101 159 194 215 288 358
#     4   9  19  35  58  86 113 151 200 241 298 352
#     4  10  20  36  56  85 111 150 195 237 288 355
#     4   8  16  31  52  76 111 153 196 232 287 359
#     4  10  17  27  49  81 112 146 185 237 297 343
#
# _framework density 24.525411999999999
#
# number of rings (size 3 to 8) (size 9 to 14) (size 15 to 20)
#    0.545    2.364    0.909    1.636    0.000    0.000 
#    3.273    0.455    2.000    1.091    9.455    0.000 
#    0.000    0.000    0.000    0.000    0.000    0.000 
#
# Total GULP energy -245053.830570 kJ/mol
# GULP energy per Si atom -5569.405240 kJ/mol
# Density = 2.446959 g / cm^3
# Si number density = 24.525412 Si / 1000 Ang^3
#
#
#
# Elastic Constant Matrix: (Units=GPa)
#
#
# Indices 1 2 3 4 5 6 
#
# 1 69.6981 23.4308 10.4926 0.0000 0.0000 0.0000
# 2 23.4308 71.1842 31.5279 0.0000 0.0000 0.0000
# 3 10.4926 31.5279 148.0210 0.0000 0.0000 0.0000
# 4 0.0000 0.0000 0.0000 28.1236 0.0000 0.0000
# 5 0.0000 0.0000 0.0000 0.0000 175.9474 0.0000
# 6 0.0000 0.0000 0.0000 0.0000 0.0000 -10.0749
#
#
#
# Elastic Compliance Matrix: (Units=1/GPa)
#
#
# Indices 1 2 3 4 5 6 
#
# 1 0.016133 -0.005304 -0.000014 0.000000 0.000000 0.000000
# 2 -0.005304 0.017255 -0.003299 0.000000 0.000000 0.000000
# 3 -0.000014 -0.003299 0.007460 0.000000 0.000000 0.000000
# 4 0.000000 0.000000 0.000000 0.035557 0.000000 0.000000
# 5 0.000000 0.000000 0.000000 0.000000 0.005684 0.000000
# 6 0.000000 0.000000 0.000000 0.000000 0.000000 -0.099257
#
#
# Mechanical properties :
#
#
# Convention : Reuss Voigt Hill
#
# Bulk Modulus (GPa) = 42.34947 46.64509 44.49728
# Shear Modulus (GPa) = 629.95601 53.69602 341.82601
#
# Velocity S-wave (km/s) = 16.04419 4.68418 11.81858
# Velocity P-wave (km/s) = 18.98754 6.95096 14.29759
#
# Compressibility (1/GPa) = 0.02361304
#
# Stress axis : x y z
#
# Youngs Moduli (GPa) = 61.98557 57.95340 134.05692
#
# Poissons Ratio (x) = 0.30739 0.00185
# Poissons Ratio (y) = 0.32878 0.44230
# Poissons Ratio (z) = 0.00086 0.19121
#
# Static dielectric constant tensor:
#      x y z
#    x 1.981990 0.000000 0.000000 
#    y 0.000000 2.006910 0.000000 
#    z 0.000000 0.000000 1.997130 
# 
# From -- ./inp_files/43273.got.cif
#   From: 2010.05.17/outbox.cif.g08.bks.cpg/sg72_22_cif.got.tgz:43273.got - 2010.06.03 17:03:01.
