data_PCOD9525429
_publ_section_title
;
Structure prediction by ZEFSAII (Michael W. Deem and Ramdas Pophale) SiO2 
 PCOD9525429
Probable space group: I B A M
;
_chemical_formula_sum "Si O2"
_cell_formula_units_Z 104
_cell_length_a 25.425485
_cell_length_b 9.698411
_cell_length_c 20.791405
_cell_angle_alpha 90.000000
_cell_angle_beta 90.000000
_cell_angle_gamma 90.000000
_cell_volume 5126.886097
_symmetry_space_group_name_H-M "I B A M"
_symmetry_group_IT_number 72
_symmetry_cell_setting 'orthorhombic'
loop_
_space_group_symop_operation_xyz
x,y,z
-x,-y,z
x,-y,1/2-z
-x,y,1/2-z
-x,-y,-z
x,y,-z
-x,y,1/2+z
x,-y,1/2+z
1/2+x,1/2+y,1/2+z
1/2-x,1/2-y,1/2+z
1/2+x,1/2-y,-z
1/2-x,1/2+y,-z
1/2-x,1/2-y,1/2-z
1/2+x,1/2+y,1/2-z
1/2-x,1/2+y,z
1/2+x,1/2-y,z
loop_
_atom_site_type_symbol
_atom_site_label
_atom_site_fract_x
_atom_site_fract_y
_atom_site_fract_z
Si Si1 0.899228 0.663073 0.136626
Si Si2 0.727137 0.143513 0.129717
Si Si3 0.736922 0.704489 0.500000
Si Si4 0.650375 0.903626 0.000000
Si Si5 0.380789 0.227885 0.500000
Si Si6 0.608606 0.852489 0.860368
Si Si7 0.723620 0.111394 0.693506
Si Si8 0.937331 0.157932 0.757142
O O1 0.835839 0.647170 0.134179
O O2 0.911524 0.736669 0.067987
O O3 0.918587 0.504231 0.142602
O O4 0.915092 0.750915 0.198272
O O5 0.747184 0.245428 0.185207
O O6 0.745604 0.987170 0.136531
O O7 0.745608 0.205199 0.063376
O O8 0.786412 0.602211 0.500000
O O9 0.673056 0.680310 0.500000
O O10 0.626307 0.837570 0.934922
O O11 0.636155 0.065638 0.000000
O O12 0.662563 0.860299 0.819366
O O13 0.576988 0.731837 0.824761
O O14 0.727971 0.000000 0.750000
O O15 0.000000 0.155832 0.750000
O O16 0.917599 0.000000 0.750000
#
# Coordination Sequence:
#
# PCOD9525429 Si02
#       8
#    16  16   8   8   8  16  16  16
#     4   9  19  38  60  88 118 155 200 244 290 348
#     4  10  21  32  53  80 116 159 194 234 273 330
#     4  10  18  32  52  78 118 162 196 225 277 322
#     4  10  18  36  59  83 124 154 202 248 283 335
#     4   8  18  34  59  85 120 160 198 249 287 328
#     4  10  20  38  63  88 115 157 198 245 290 346
#     4  11  21  34  51  80 118 157 196 236 280 331
#     4  11  25  44  64  86 115 147 188 247 314 371
#
# _framework density 20.285218
#
# number of rings (size 3 to 8) (size 9 to 14) (size 15 to 20)
#    0.000    2.000    1.538    3.692    0.000    3.077 
#    0.000    1.538    0.000    4.615    0.000    0.000 
#    0.000    0.000    0.000    0.000    0.000    0.000 
#
# Total GULP energy -289796.212765 kJ/mol
# GULP energy per Si atom -5573.004092 kJ/mol
# Density = 2.023905 g / cm^3
# Si number density = 20.285218 Si / 1000 Ang^3
#
#
#
# Elastic Constant Matrix: (Units=GPa)
#
#
# Indices 1 2 3 4 5 6 
#
# 1 18.3759 24.5553 20.7788 0.0000 0.0000 0.0000
# 2 24.5553 107.5108 44.5608 0.0000 0.0000 0.0000
# 3 20.7788 44.5608 131.0934 0.0000 0.0000 0.0000
# 4 0.0000 0.0000 0.0000 14.7106 0.0000 0.0000
# 5 0.0000 0.0000 0.0000 0.0000 -97.9086 0.0000
# 6 0.0000 0.0000 0.0000 0.0000 0.0000 -274.2862
#
#
#
# Elastic Compliance Matrix: (Units=1/GPa)
#
#
# Indices 1 2 3 4 5 6 
#
# 1 0.084964 -0.016091 -0.007998 0.000000 0.000000 0.000000
# 2 -0.016091 0.013874 -0.002166 0.000000 0.000000 0.000000
# 3 -0.007998 -0.002166 0.009632 0.000000 0.000000 0.000000
# 4 0.000000 0.000000 0.000000 0.067978 0.000000 0.000000
# 5 0.000000 0.000000 0.000000 0.000000 -0.010214 0.000000
# 6 0.000000 0.000000 0.000000 0.000000 0.000000 -0.003646
#
#
# Mechanical properties :
#
#
# Convention : Reuss Voigt Hill
#
# Bulk Modulus (GPa) = 17.86922 48.53000 33.19961
# Shear Modulus (GPa) = 21.39025 -60.35784 -19.48379
#
# Velocity S-wave (km/s) = 3.25079 -5.46069 -3.10254
# Velocity P-wave (km/s) = 4.78731 3.97280 1.88880
#
# Compressibility (1/GPa) = 0.05596216
#
# Stress axis : x y z
#
# Youngs Moduli (GPa) = 11.76965 72.07662 103.82163
#
# Poissons Ratio (x) = 1.15978 0.83032
# Poissons Ratio (y) = 0.18938 0.22483
# Poissons Ratio (z) = 0.09413 0.15609
#
# Static dielectric constant tensor:
#      x y z
#    x 1.701200 0.000000 0.000000 
#    y 0.000000 1.733400 0.000000 
#    z 0.000000 0.000000 1.894140 
# 
# From -- ./inp_files/40830.got.cif
#   From: 2010.05.17/outbox.cif.g08.bks.cpg/sg72_21_cif.got.tgz:40830.got - 2010.06.03 17:03:01.
