data_PCOD9525589
_publ_section_title
;
Structure prediction by ZEFSAII (Michael W. Deem and Ramdas Pophale) SiO2 
 PCOD9525589
Probable space group: I B A M
;
_chemical_formula_sum "Si O2"
_cell_formula_units_Z 64
_cell_length_a 9.845604
_cell_length_b 13.679048
_cell_length_c 22.751807
_cell_angle_alpha 90.000000
_cell_angle_beta 90.000000
_cell_angle_gamma 90.000000
_cell_volume 3064.179005
_symmetry_space_group_name_H-M "I B A M"
_symmetry_group_IT_number 72
_symmetry_cell_setting 'orthorhombic'
loop_
_space_group_symop_operation_xyz
x,y,z
-x,-y,z
x,-y,1/2-z
-x,y,1/2-z
-x,-y,-z
x,y,-z
-x,y,1/2+z
x,-y,1/2+z
1/2+x,1/2+y,1/2+z
1/2-x,1/2-y,1/2+z
1/2+x,1/2-y,-z
1/2-x,1/2+y,-z
1/2-x,1/2-y,1/2-z
1/2+x,1/2+y,1/2-z
1/2-x,1/2+y,z
1/2+x,1/2-y,z
loop_
_atom_site_type_symbol
_atom_site_label
_atom_site_fract_x
_atom_site_fract_y
_atom_site_fract_z
Si Si1 0.500000 0.000000 0.110348
Si Si2 0.375093 0.701430 0.138450
Si Si3 0.106514 0.709542 0.932191
Si Si4 0.000000 0.312939 0.250000
Si Si5 0.776378 0.457931 0.808838
O O1 0.552948 0.903017 0.077410
O O2 0.628192 0.027512 0.152033
O O3 0.231973 0.734222 0.110416
O O4 0.485927 0.721834 0.089461
O O5 0.424075 0.750799 0.199384
O O6 0.340148 0.589923 0.153034
O O7 0.142439 0.722195 0.000000
O O8 0.886881 0.378534 0.216310
O O9 0.715586 0.500000 0.750000
#
# Coordination Sequence:
#
# PCOD9525589 Si02
#       5
#     8  16  16   8  16
#     4  10  18  36  62  92 120 165 223 256 298 368
#     4  11  23  37  64  92 124 164 213 260 320 375
#     4  11  23  41  64  93 127 171 220 263 304 368
#     4  12  19  38  63  92 126 160 202 264 323 377
#     4  11  19  35  62  91 127 162 204 256 319 385
#
# _framework density 20.886507999999999
#
# number of rings (size 3 to 8) (size 9 to 14) (size 15 to 20)
#    0.000    1.000    7.500    1.875    0.000    0.000 
#    0.000    0.625    5.500    0.000    0.000   10.500 
#    0.000    0.000    0.000    0.000    0.000    0.000 
#
# Total GULP energy -178515.664504 kJ/mol
# GULP energy per Si atom -5578.614516 kJ/mol
# Density = 2.083897 g / cm^3
# Si number density = 20.886508 Si / 1000 Ang^3
#
#
#
# Elastic Constant Matrix: (Units=GPa)
#
#
# Indices 1 2 3 4 5 6 
#
# 1 82.9747 30.2841 31.1930 0.0000 0.0000 0.0000
# 2 30.2841 28.5532 25.1902 0.0000 0.0000 0.0000
# 3 31.1930 25.1902 106.4009 0.0000 0.0000 0.0000
# 4 0.0000 0.0000 0.0000 27.1193 0.0000 0.0000
# 5 0.0000 0.0000 0.0000 0.0000 30.7935 0.0000
# 6 0.0000 0.0000 0.0000 0.0000 0.0000 22.3691
#
#
#
# Elastic Compliance Matrix: (Units=1/GPa)
#
#
# Indices 1 2 3 4 5 6 
#
# 1 0.019756 -0.020027 -0.001050 0.000000 0.000000 0.000000
# 2 -0.020027 0.064570 -0.009416 0.000000 0.000000 0.000000
# 3 -0.001050 -0.009416 0.011935 0.000000 0.000000 0.000000
# 4 0.000000 0.000000 0.000000 0.036874 0.000000 0.000000
# 5 0.000000 0.000000 0.000000 0.000000 0.032474 0.000000
# 6 0.000000 0.000000 0.000000 0.000000 0.000000 0.044705
#
#
# Mechanical properties :
#
#
# Convention : Reuss Voigt Hill
#
# Bulk Modulus (GPa) = 28.34829 43.47371 35.91100
# Shear Modulus (GPa) = 17.66411 24.80714 21.23562
#
# Velocity S-wave (km/s) = 2.91128 3.45006 3.19206
# Velocity P-wave (km/s) = 4.99026 6.06053 5.55125
#
# Compressibility (1/GPa) = 0.03527550
#
# Stress axis : x y z
#
# Youngs Moduli (GPa) = 50.61685 15.48704 83.78369
#
# Poissons Ratio (x) = 0.31016 0.08801
# Poissons Ratio (y) = 1.01371 0.78887
# Poissons Ratio (z) = 0.05317 0.14582
#
# Static dielectric constant tensor:
#      x y z
#    x 1.741150 0.000000 0.000000 
#    y 0.000000 1.811780 0.000000 
#    z 0.000000 0.000000 1.758370 
# 
# From -- ./inp_files/41977.got.cif
#   From: 2010.05.17/outbox.cif.g08.bks.cpg/sg72_21_cif.got.tgz:41977.got - 2010.06.03 17:03:01.
