data_PCOD9525728
_publ_section_title
;
Structure prediction by ZEFSAII (Michael W. Deem and Ramdas Pophale) SiO2 
 PCOD9525728
Probable space group: I B A M
;
_chemical_formula_sum "Si O2"
_cell_formula_units_Z 116
_cell_length_a 27.648048
_cell_length_b 28.236836
_cell_length_c 7.482306
_cell_angle_alpha 90.000000
_cell_angle_beta 90.000000
_cell_angle_gamma 90.000000
_cell_volume 5841.386889
_symmetry_space_group_name_H-M "I B A M"
_symmetry_group_IT_number 72
_symmetry_cell_setting 'orthorhombic'
loop_
_space_group_symop_operation_xyz
x,y,z
-x,-y,z
x,-y,1/2-z
-x,y,1/2-z
-x,-y,-z
x,y,-z
-x,y,1/2+z
x,-y,1/2+z
1/2+x,1/2+y,1/2+z
1/2-x,1/2-y,1/2+z
1/2+x,1/2-y,-z
1/2-x,1/2+y,-z
1/2-x,1/2-y,1/2-z
1/2+x,1/2+y,1/2-z
1/2-x,1/2+y,z
1/2+x,1/2-y,z
loop_
_atom_site_type_symbol
_atom_site_label
_atom_site_fract_x
_atom_site_fract_y
_atom_site_fract_z
Si Si1 0.685724 0.208699 0.215164
Si Si2 0.342453 0.686352 0.219062
Si Si3 0.052598 0.785422 0.713429
Si Si4 0.178536 0.444750 0.712886
Si Si5 0.423125 0.817983 0.216575
Si Si6 0.257696 0.627459 0.204167
Si Si7 0.568489 0.921298 0.290439
Si Si8 0.500000 0.000000 0.250000
O O1 0.681534 0.263322 0.272161
O O2 0.633728 0.185963 0.259210
O O3 0.726923 0.176168 0.295893
O O4 0.691150 0.207854 0.000000
O O5 0.398560 0.688629 0.276240
O O6 0.309226 0.643167 0.282981
O O7 0.341697 0.685679 0.000000
O O8 0.057674 0.782233 0.500000
O O9 0.053985 0.731035 0.782729
O O10 0.000000 0.806543 0.750000
O O11 0.186713 0.500000 0.750000
O O12 0.176175 0.437477 0.500000
O O13 0.222034 0.411853 0.784935
O O14 0.125975 0.429839 0.783526
O O15 0.442171 0.868487 0.278360
O O16 0.426771 0.818817 0.000000
O O17 0.266880 0.612399 0.000000
O O18 0.554612 0.925853 0.500000
O O19 0.539528 0.961374 0.186378
#
# Coordination Sequence:
#
# PCOD9525728 Si02
#       8
#    16  16  16  16  16  16  16   4
#     4   9  15  27  48  70  92 124 155 184 231 290
#     4   8  16  30  47  68  99 129 156 186 231 288
#     4   9  17  31  49  68  94 129 162 191 228 275
#     4  11  23  37  54  72  93 121 159 200 248 297
#     4   8  16  30  47  64  87 123 157 189 234 285
#     4  10  19  31  48  72  96 122 154 195 237 285
#     4  11  22  38  53  66  91 120 159 208 253 294
#     4  12  26  32  52  74  86 120 166 212 260 284
#
# _framework density 19.858298000000001
#
# number of rings (size 3 to 8) (size 9 to 14) (size 15 to 20)
#    0.000    2.483    2.069    2.690    0.966    1.103 
#    0.000    4.138    0.000    0.000    0.000    0.000 
#    0.000    0.552    0.000    6.897    0.000    0.000 
#
# Total GULP energy -323496.947959 kJ/mol
# GULP energy per Si atom -5577.533586 kJ/mol
# Density = 1.981310 g / cm^3
# Si number density = 19.858298 Si / 1000 Ang^3
#
#
#
# Elastic Constant Matrix: (Units=GPa)
#
#
# Indices 1 2 3 4 5 6 
#
# 1 144.0471 70.2197 0.8639 0.0000 0.0000 0.0000
# 2 70.2197 75.4236 3.8700 0.0000 0.0000 0.0000
# 3 0.8639 3.8700 70.0808 0.0000 0.0000 0.0000
# 4 0.0000 0.0000 0.0000 -726.2562 0.0000 0.0000
# 5 0.0000 0.0000 0.0000 0.0000 11.2877 0.0000
# 6 0.0000 0.0000 0.0000 0.0000 0.0000 -53.5978
#
#
#
# Elastic Compliance Matrix: (Units=1/GPa)
#
#
# Indices 1 2 3 4 5 6 
#
# 1 0.012728 -0.011876 0.000499 0.000000 0.000000 0.000000
# 2 -0.011876 0.024376 -0.001200 0.000000 0.000000 0.000000
# 3 0.000499 -0.001200 0.014329 0.000000 0.000000 0.000000
# 4 0.000000 0.000000 0.000000 -0.001377 0.000000 0.000000
# 5 0.000000 0.000000 0.000000 0.000000 0.088592 0.000000
# 6 0.000000 0.000000 0.000000 0.000000 0.000000 -0.018657
#
#
# Mechanical properties :
#
#
# Convention : Reuss Voigt Hill
#
# Bulk Modulus (GPa) = 38.05040 48.82874 43.43957
# Shear Modulus (GPa) = 32.48764 -139.40671 -53.45953
#
# Velocity S-wave (km/s) = 4.04910 -8.38768 -5.19413
# Velocity P-wave (km/s) = 6.40803 8.31638 3.74829
#
# Compressibility (1/GPa) = 0.02628093
#
# Stress axis : x y z
#
# Youngs Moduli (GPa) = 78.56487 41.02334 69.78691
#
# Poissons Ratio (x) = 0.48718 -0.03482
# Poissons Ratio (y) = 0.93302 0.08372
# Poissons Ratio (z) = -0.03920 0.04922
#
# Static dielectric constant tensor:
#      x y z
#    x 1.736160 0.000000 0.000000 
#    y 0.000000 1.689930 0.000000 
#    z 0.000000 0.000000 1.874350 
# 
# From -- ./inp_files/8682.got.cif
#   From: 2010.05.17/outbox.cif.g08.bks.cpg/sg72_5_cif.got.tgz:8682.got - 2010.06.03 17:03:01.
