data_PCOD9525754
_publ_section_title
;
Structure prediction by ZEFSAII (Michael W. Deem and Ramdas Pophale) SiO2 
 PCOD9525754
Probable space group: I B A M
;
_chemical_formula_sum "Si O2"
_cell_formula_units_Z 96
_cell_length_a 20.620977
_cell_length_b 30.348022
_cell_length_c 8.895945
_cell_angle_alpha 90.000000
_cell_angle_beta 90.000000
_cell_angle_gamma 90.000000
_cell_volume 5567.134544
_symmetry_space_group_name_H-M "I B A M"
_symmetry_group_IT_number 72
_symmetry_cell_setting 'orthorhombic'
loop_
_space_group_symop_operation_xyz
x,y,z
-x,-y,z
x,-y,1/2-z
-x,y,1/2-z
-x,-y,-z
x,y,-z
-x,y,1/2+z
x,-y,1/2+z
1/2+x,1/2+y,1/2+z
1/2-x,1/2-y,1/2+z
1/2+x,1/2-y,-z
1/2-x,1/2+y,-z
1/2-x,1/2-y,1/2-z
1/2+x,1/2+y,1/2-z
1/2-x,1/2+y,z
1/2+x,1/2-y,z
loop_
_atom_site_type_symbol
_atom_site_label
_atom_site_fract_x
_atom_site_fract_y
_atom_site_fract_z
Si Si1 0.240039 0.363887 0.324919
Si Si2 0.096641 0.045766 0.327208
Si Si3 0.754664 0.545138 0.827259
Si Si4 0.932652 0.770412 0.320749
Si Si5 0.397037 0.637877 0.175936
Si Si6 0.809273 0.722827 0.179092
O O1 0.223942 0.357898 0.500000
O O2 0.224201 0.412550 0.266814
O O3 0.318416 0.359525 0.311416
O O4 0.204648 0.327309 0.225975
O O5 0.074543 0.047940 0.500000
O O6 0.175665 0.044830 0.328120
O O7 0.080398 0.090413 0.237788
O O8 0.075888 0.000000 0.250000
O O9 0.775881 0.500000 0.750000
O O10 0.775534 0.548025 0.000000
O O11 0.932565 0.767365 0.500000
O O12 0.923483 0.821288 0.270544
O O13 0.874152 0.742507 0.250585
O O14 0.000000 0.754842 0.250000
O O15 0.413888 0.642544 0.000000
O O16 0.750000 0.750000 0.250000
O O17 0.810163 0.728271 0.000000
#
# Coordination Sequence:
#
# PCOD9525754 Si02
#       6
#    16  16  16  16  16  16
#     4  10  19  31  50  76 106 139 178 221 267 317
#     4   9  16  26  42  66  96 130 171 216 267 316
#     4   9  16  26  41  65 100 138 174 213 263 317
#     4  12  25  41  59  79 107 141 180 224 273 326
#     4  10  19  32  51  74 102 135 176 220 268 319
#     4  12  23  37  57  82 110 142 181 225 273 323
#
# _framework density 17.244059
#
# number of rings (size 3 to 8) (size 9 to 14) (size 15 to 20)
#    0.000    1.667    1.667    5.000    0.000    5.333 
#    0.000    0.000    0.000    0.500    0.000    3.500 
#    0.000    0.667    0.000    6.667    0.000    4.333 
#
# Total GULP energy -268245.524105 kJ/mol
# GULP energy per Si atom -5588.448419 kJ/mol
# Density = 1.720481 g / cm^3
# Si number density = 17.244059 Si / 1000 Ang^3
#
#
#
# Elastic Constant Matrix: (Units=GPa)
#
#
# Indices 1 2 3 4 5 6 
#
# 1 76.0176 44.6649 54.6265 0.0000 0.0000 0.0000
# 2 44.6649 108.9809 53.2867 0.0000 0.0000 0.0000
# 3 54.6265 53.2867 171.9347 0.0000 0.0000 0.0000
# 4 0.0000 0.0000 0.0000 36.2090 0.0000 0.0000
# 5 0.0000 0.0000 0.0000 0.0000 17.0883 0.0000
# 6 0.0000 0.0000 0.0000 0.0000 0.0000 -2.1340
#
#
#
# Elastic Compliance Matrix: (Units=1/GPa)
#
#
# Indices 1 2 3 4 5 6 
#
# 1 0.019864 -0.005958 -0.004465 0.000000 0.000000 0.000000
# 2 -0.005958 0.012602 -0.002013 0.000000 0.000000 0.000000
# 3 -0.004465 -0.002013 0.007858 0.000000 0.000000 0.000000
# 4 0.000000 0.000000 0.000000 0.027617 0.000000 0.000000
# 5 0.000000 0.000000 0.000000 0.000000 0.058520 0.000000
# 6 0.000000 0.000000 0.000000 0.000000 0.000000 -0.468603
#
#
# Mechanical properties :
#
#
# Convention : Reuss Voigt Hill
#
# Bulk Modulus (GPa) = 64.70985 73.56549 69.13767
# Shear Modulus (GPa) = -16.01948 23.85633 3.91842
#
# Velocity S-wave (km/s) = -3.05123 3.72351 1.50906
# Velocity P-wave (km/s) = 5.01936 7.82560 6.57396
#
# Compressibility (1/GPa) = 0.01545360
#
# Stress axis : x y z
#
# Youngs Moduli (GPa) = 50.34283 79.35320 127.25274
#
# Poissons Ratio (x) = 0.47279 0.56812
# Poissons Ratio (y) = 0.29995 0.25611
# Poissons Ratio (z) = 0.22476 0.15971
#
# Static dielectric constant tensor:
#      x y z
#    x 1.512940 0.000000 0.000000 
#    y 0.000000 1.585490 0.000000 
#    z 0.000000 0.000000 1.574680 
# 
# From -- ./inp_files/5954.got.cif
#   From: 2010.05.17/outbox.cif.g08.bks.cpg/sg72_3_cif.got.tgz:5954.got - 2010.06.03 17:03:01.
