data_PCOD9525615
_publ_section_title
;
Structure prediction by ZEFSAII (Michael W. Deem and Ramdas Pophale) SiO2 
 PCOD9525615
Probable space group: I B A M
;
_chemical_formula_sum "Si O2"
_cell_formula_units_Z 96
_cell_length_a 28.222578
_cell_length_b 32.154667
_cell_length_c 8.927153
_cell_angle_alpha 90.000000
_cell_angle_beta 90.000000
_cell_angle_gamma 90.000000
_cell_volume 8101.280628
_symmetry_space_group_name_H-M "I B A M"
_symmetry_group_IT_number 72
_symmetry_cell_setting 'orthorhombic'
loop_
_space_group_symop_operation_xyz
x,y,z
-x,-y,z
x,-y,1/2-z
-x,y,1/2-z
-x,-y,-z
x,y,-z
-x,y,1/2+z
x,-y,1/2+z
1/2+x,1/2+y,1/2+z
1/2-x,1/2-y,1/2+z
1/2+x,1/2-y,-z
1/2-x,1/2+y,-z
1/2-x,1/2-y,1/2-z
1/2+x,1/2+y,1/2-z
1/2-x,1/2+y,z
1/2+x,1/2-y,z
loop_
_atom_site_type_symbol
_atom_site_label
_atom_site_fract_x
_atom_site_fract_y
_atom_site_fract_z
Si Si1 0.608832 0.382418 0.323074
Si Si2 0.220906 0.288464 0.679956
Si Si3 0.364293 0.748882 0.173871
Si Si4 0.307388 0.339181 0.673469
Si Si5 0.948323 0.203006 0.178299
Si Si6 0.449037 0.455047 0.679343
O O1 0.606219 0.391040 0.500000
O O2 0.661883 0.369696 0.274929
O O3 0.576017 0.341919 0.291251
O O4 0.588665 0.420764 0.229585
O O5 0.220179 0.284399 0.500000
O O6 0.250000 0.250000 0.750000
O O7 0.168442 0.283185 0.745689
O O8 0.253199 0.328658 0.716548
O O9 0.334649 0.705383 0.180066
O O10 0.413376 0.737764 0.253866
O O11 0.371143 0.759110 0.000000
O O12 0.308815 0.352745 0.500000
O O13 0.000000 0.204470 0.250000
O O14 0.951162 0.207684 0.000000
O O15 0.437519 0.500000 0.750000
O O16 0.500000 0.442963 0.750000
O O17 0.452852 0.457864 0.500000
#
# Coordination Sequence:
#
# PCOD9525615 Si02
#       6
#    16  16  16  16  16  16
#     4  10  19  29  41  56  71  87 108 135 169 207
#     4   9  15  23  35  50  68  87 108 132 160 195
#     4   9  16  25  36  49  66  87 111 136 164 198
#     4   8  15  25  36  51  69  88 107 130 161 197
#     4  10  19  28  38  51  68  89 113 141 172 206
#     4  11  21  33  46  57  70  86 108 136 168 207
#
# _framework density 11.849978
#
# number of rings (size 3 to 8) (size 9 to 14) (size 15 to 20)
#    0.000    2.500    0.000    5.500    0.000    8.000 
#    0.000    0.000    0.000    0.000    0.000    0.000 
#    0.000    0.000    0.000    0.000    0.000    0.000 
#
# Total GULP energy -267330.383804 kJ/mol
# GULP energy per Si atom -5569.382996 kJ/mol
# Density = 1.182301 g / cm^3
# Si number density = 11.849978 Si / 1000 Ang^3
#
#
#
# Elastic Constant Matrix: (Units=GPa)
#
#
# Indices 1 2 3 4 5 6 
#
# 1 57.4500 31.7616 42.6285 0.0000 0.0000 0.0000
# 2 31.7616 32.9771 32.2136 0.0000 0.0000 0.0000
# 3 42.6285 32.2136 76.6415 0.0000 0.0000 0.0000
# 4 0.0000 0.0000 0.0000 14.4203 0.0000 0.0000
# 5 0.0000 0.0000 0.0000 0.0000 22.4420 0.0000
# 6 0.0000 0.0000 0.0000 0.0000 0.0000 16.4736
#
#
#
# Elastic Compliance Matrix: (Units=1/GPa)
#
#
# Indices 1 2 3 4 5 6 
#
# 1 0.041877 -0.029827 -0.010756 0.000000 0.000000 0.000000
# 2 -0.029827 0.072692 -0.013964 0.000000 0.000000 0.000000
# 3 -0.010756 -0.013964 0.024899 0.000000 0.000000 0.000000
# 4 0.000000 0.000000 0.000000 0.069347 0.000000 0.000000
# 5 0.000000 0.000000 0.000000 0.000000 0.044559 0.000000
# 6 0.000000 0.000000 0.000000 0.000000 0.000000 0.060703
#
#
# Mechanical properties :
#
#
# Convention : Reuss Voigt Hill
#
# Bulk Modulus (GPa) = 32.92075 42.25288 37.58682
# Shear Modulus (GPa) = 11.53945 14.69817 13.11881
#
# Velocity S-wave (km/s) = 3.12395 3.52569 3.33088
# Velocity P-wave (km/s) = 6.39169 7.23242 6.82501
#
# Compressibility (1/GPa) = 0.03037598
#
# Stress axis : x y z
#
# Youngs Moduli (GPa) = 23.87927 13.75664 40.16185
#
# Poissons Ratio (x) = 0.41032 0.43197
# Poissons Ratio (y) = 0.71225 0.56080
# Poissons Ratio (z) = 0.25684 0.19209
#
# Static dielectric constant tensor:
#      x y z
#    x 1.400120 0.000000 0.000000 
#    y 0.000000 1.363550 0.000000 
#    z 0.000000 0.000000 1.394760 
# 
# From -- ./inp_files/8279.got.cif
#   From: 2010.05.17/outbox.cif.g08.bks.cpg/sg72_5_cif.got.tgz:8279.got - 2010.06.03 17:03:01.
