data_PCOD9525790
_publ_section_title
;
Structure prediction by ZEFSAII (Michael W. Deem and Ramdas Pophale) SiO2 
 PCOD9525790
Probable space group: I B A M
;
_chemical_formula_sum "Si O2"
_cell_formula_units_Z 92
_cell_length_a 19.437193
_cell_length_b 13.468655
_cell_length_c 13.796753
_cell_angle_alpha 90.000000
_cell_angle_beta 90.000000
_cell_angle_gamma 90.000000
_cell_volume 3611.891243
_symmetry_space_group_name_H-M "I B A M"
_symmetry_group_IT_number 72
_symmetry_cell_setting 'orthorhombic'
loop_
_space_group_symop_operation_xyz
x,y,z
-x,-y,z
x,-y,1/2-z
-x,y,1/2-z
-x,-y,-z
x,y,-z
-x,y,1/2+z
x,-y,1/2+z
1/2+x,1/2+y,1/2+z
1/2-x,1/2-y,1/2+z
1/2+x,1/2-y,-z
1/2-x,1/2+y,-z
1/2-x,1/2-y,1/2-z
1/2+x,1/2+y,1/2-z
1/2-x,1/2+y,z
1/2+x,1/2-y,z
loop_
_atom_site_type_symbol
_atom_site_label
_atom_site_fract_x
_atom_site_fract_y
_atom_site_fract_z
Si Si1 0.210264 0.368745 0.603137
Si Si2 0.494557 0.340483 0.886670
Si Si3 0.213393 0.872895 0.107052
Si Si4 0.500000 0.500000 0.250000
Si Si5 0.351487 0.360166 0.687100
Si Si6 0.000000 0.658612 0.750000
Si Si7 0.854456 0.620233 0.197817
O O1 0.181904 0.399826 0.500000
O O2 0.209329 0.248096 0.605577
O O3 0.290281 0.394913 0.616991
O O4 0.169312 0.408680 0.694610
O O5 0.460054 0.426393 0.822552
O O6 0.574291 0.369667 0.864272
O O7 0.476255 0.236483 0.834796
O O8 0.480550 0.340391 0.000000
O O9 0.174074 0.897806 0.206904
O O10 0.293485 0.904239 0.122448
O O11 0.188682 0.904256 0.000000
O O12 0.349604 0.240500 0.695497
O O13 0.063448 0.601758 0.699287
#
# Coordination Sequence:
#
# PCOD9525790 Si02
#       7
#    16  16  16   4  16   8  16
#     4   8  12  19  32  49  69  90 113 147 189 223
#     4  10  19  32  46  55  71  98 129 169 212 246
#     4   8  13  22  36  53  74  97 118 149 193 229
#     4  10  22  36  44  58  76  96 130 166 204 256
#     4   8  14  24  38  56  69  85 121 161 195 236
#     4   9  18  27  36  56  76 100 140 167 184 227
#     4   8  14  22  31  48  75  98 122 155 184 218
#
# _framework density 25.471419000000001
#
# number of rings (size 3 to 8) (size 9 to 14) (size 15 to 20)
#    0.000    3.478    0.000    2.870    0.000    4.870 
#    0.000    9.565    0.000    0.000    0.000    0.000 
#    0.000    0.000    0.000    0.000    0.000   13.913 
#
# Total GULP energy -256538.336733 kJ/mol
# GULP energy per Si atom -5576.920364 kJ/mol
# Density = 2.541345 g / cm^3
# Si number density = 25.471419 Si / 1000 Ang^3
#
#
#
# Elastic Constant Matrix: (Units=GPa)
#
#
# Indices 1 2 3 4 5 6 
#
# 1 114.8837 -11.5676 1.4591 0.0000 0.0000 0.0000
# 2 -11.5676 72.1605 12.4495 0.0000 0.0000 0.0000
# 3 1.4591 12.4495 183.5264 0.0000 0.0000 0.0000
# 4 0.0000 0.0000 0.0000 25.1969 0.0000 0.0000
# 5 0.0000 0.0000 0.0000 0.0000 15.0381 0.0000
# 6 0.0000 0.0000 0.0000 0.0000 0.0000 7.3367
#
#
#
# Elastic Compliance Matrix: (Units=1/GPa)
#
#
# Indices 1 2 3 4 5 6 
#
# 1 0.008852 0.001448 -0.000169 0.000000 0.000000 0.000000
# 2 0.001448 0.014259 -0.000979 0.000000 0.000000 0.000000
# 3 -0.000169 -0.000979 0.005517 0.000000 0.000000 0.000000
# 4 0.000000 0.000000 0.000000 0.039687 0.000000 0.000000
# 5 0.000000 0.000000 0.000000 0.000000 0.066498 0.000000
# 6 0.000000 0.000000 0.000000 0.000000 0.000000 0.136300
#
#
# Mechanical properties :
#
#
# Convention : Reuss Voigt Hill
#
# Bulk Modulus (GPa) = 34.21201 41.69475 37.95338
# Shear Modulus (GPa) = 17.84088 34.06299 25.95194
#
# Velocity S-wave (km/s) = 2.64943 3.66088 3.19543
# Velocity P-wave (km/s) = 4.77703 5.85441 5.34295
#
# Compressibility (1/GPa) = 0.02922950
#
# Stress axis : x y z
#
# Youngs Moduli (GPa) = 112.96361 70.13108 181.27289
#
# Poissons Ratio (x) = -0.10156 0.03057
# Poissons Ratio (y) = -0.16359 0.17743
# Poissons Ratio (z) = 0.01905 0.06864
#
# Static dielectric constant tensor:
#      x y z
#    x 2.078050 0.000000 0.000000 
#    y 0.000000 2.177920 0.000000 
#    z 0.000000 0.000000 1.935610 
# 
# From -- ./inp_files/24434.got.cif
#   From: 2010.05.17/outbox.cif.g08.bks.cpg/sg72_13_cif.got.tgz:24434.got - 2010.06.03 17:03:01.
