data_PCOD9525650
_publ_section_title
;
Structure prediction by ZEFSAII (Michael W. Deem and Ramdas Pophale) SiO2 
 PCOD9525650
Probable space group: I B A M
;
_chemical_formula_sum "Si O2"
_cell_formula_units_Z 80
_cell_length_a 30.278329
_cell_length_b 23.078095
_cell_length_c 8.984170
_cell_angle_alpha 90.000000
_cell_angle_beta 90.000000
_cell_angle_gamma 90.000000
_cell_volume 6277.833910
_symmetry_space_group_name_H-M "I B A M"
_symmetry_group_IT_number 72
_symmetry_cell_setting 'orthorhombic'
loop_
_space_group_symop_operation_xyz
x,y,z
-x,-y,z
x,-y,1/2-z
-x,y,1/2-z
-x,-y,-z
x,y,-z
-x,y,1/2+z
x,-y,1/2+z
1/2+x,1/2+y,1/2+z
1/2-x,1/2-y,1/2+z
1/2+x,1/2-y,-z
1/2-x,1/2+y,-z
1/2-x,1/2-y,1/2-z
1/2+x,1/2+y,1/2-z
1/2-x,1/2+y,z
1/2+x,1/2-y,z
loop_
_atom_site_type_symbol
_atom_site_label
_atom_site_fract_x
_atom_site_fract_y
_atom_site_fract_z
Si Si1 0.181071 0.741861 0.670902
Si Si2 0.230509 0.161739 0.329839
Si Si3 0.781675 0.562661 0.322590
Si Si4 0.135884 0.371295 0.820852
Si Si5 0.546032 0.063017 0.178357
O O1 0.172895 0.758933 0.500000
O O2 0.191408 0.797993 0.768230
O O3 0.225796 0.702787 0.672127
O O4 0.144176 0.695805 0.721330
O O5 0.223062 0.144070 0.500000
O O6 0.243557 0.107052 0.229891
O O7 0.775461 0.500000 0.250000
O O8 0.783330 0.558752 0.500000
O O9 0.827509 0.589750 0.260760
O O10 0.087287 0.395297 0.790652
O O11 0.143884 0.375195 0.000000
O O12 0.500000 0.083379 0.250000
O O13 0.555141 0.000000 0.250000
O O14 0.541339 0.057091 0.000000
#
# Coordination Sequence:
#
# PCOD9525650 Si02
#       5
#    16  16  16  16  16
#     4   8  14  25  39  54  71  91 116 147 182 217
#     4   9  16  26  38  53  73  94 118 147 179 216
#     4  11  20  28  39  54  73  97 124 154 187 220
#     4   9  18  30  42  56  73  93 121 156 190 224
#     4  10  19  30  42  55  72  95 122 154 191 229
#
# _framework density 12.743249
#
# number of rings (size 3 to 8) (size 9 to 14) (size 15 to 20)
#    0.000    2.600    0.000    5.400    0.000    8.000 
#    0.000    0.000    0.000    0.000    0.000    0.000 
#    0.000    0.000    0.000    0.000    0.000    1.000 
#
# Total GULP energy -222813.799503 kJ/mol
# GULP energy per Si atom -5570.344988 kJ/mol
# Density = 1.271425 g / cm^3
# Si number density = 12.743249 Si / 1000 Ang^3
#
#
#
# Elastic Constant Matrix: (Units=GPa)
#
#
# Indices 1 2 3 4 5 6 
#
# 1 66.1739 50.8105 36.3261 0.0000 0.0000 0.0000
# 2 50.8105 76.2892 48.1260 0.0000 0.0000 0.0000
# 3 36.3261 48.1260 76.8147 0.0000 0.0000 0.0000
# 4 0.0000 0.0000 0.0000 20.1470 0.0000 0.0000
# 5 0.0000 0.0000 0.0000 0.0000 13.8443 0.0000
# 6 0.0000 0.0000 0.0000 0.0000 0.0000 23.8750
#
#
#
# Elastic Compliance Matrix: (Units=1/GPa)
#
#
# Indices 1 2 3 4 5 6 
#
# 1 0.031309 -0.019036 -0.002880 0.000000 0.000000 0.000000
# 2 -0.019036 0.033248 -0.011829 0.000000 0.000000 0.000000
# 3 -0.002880 -0.011829 0.021791 0.000000 0.000000 0.000000
# 4 0.000000 0.000000 0.000000 0.049635 0.000000 0.000000
# 5 0.000000 0.000000 0.000000 0.000000 0.072232 0.000000
# 6 0.000000 0.000000 0.000000 0.000000 0.000000 0.041885
#
#
# Mechanical properties :
#
#
# Convention : Reuss Voigt Hill
#
# Bulk Modulus (GPa) = 53.02282 54.42256 53.72269
# Shear Modulus (GPa) = 15.43804 17.17427 16.30615
#
# Velocity S-wave (km/s) = 3.48439 3.67511 3.58102
# Velocity P-wave (km/s) = 7.60834 7.79796 7.70374
#
# Compressibility (1/GPa) = 0.01885980
#
# Stress axis : x y z
#
# Youngs Moduli (GPa) = 31.93975 30.07674 45.89033
#
# Poissons Ratio (x) = 0.57254 0.13216
# Poissons Ratio (y) = 0.60800 0.54282
# Poissons Ratio (z) = 0.09198 0.35577
#
# Static dielectric constant tensor:
#      x y z
#    x 1.404380 0.000000 0.000000 
#    y 0.000000 1.414420 0.000000 
#    z 0.000000 0.000000 1.431600 
# 
# From -- ./inp_files/6239.got.cif
#   From: 2010.05.17/outbox.cif.g08.bks.cpg/sg72_4_cif.got.tgz:6239.got - 2010.06.03 17:03:01.
