data_PCOD9525271
_publ_section_title
;
Structure prediction by ZEFSAII (Michael W. Deem and Ramdas Pophale) SiO2 
 PCOD9525271
Probable space group: I B A M
;
_chemical_formula_sum "Si O2"
_cell_formula_units_Z 64
_cell_length_a 28.406943
_cell_length_b 15.265049
_cell_length_c 8.451195
_cell_angle_alpha 90.000000
_cell_angle_beta 90.000000
_cell_angle_gamma 90.000000
_cell_volume 3664.720226
_symmetry_space_group_name_H-M "I B A M"
_symmetry_group_IT_number 72
_symmetry_cell_setting 'orthorhombic'
loop_
_space_group_symop_operation_xyz
x,y,z
-x,-y,z
x,-y,1/2-z
-x,y,1/2-z
-x,-y,-z
x,y,-z
-x,y,1/2+z
x,-y,1/2+z
1/2+x,1/2+y,1/2+z
1/2-x,1/2-y,1/2+z
1/2+x,1/2-y,-z
1/2-x,1/2+y,-z
1/2-x,1/2-y,1/2-z
1/2+x,1/2+y,1/2-z
1/2-x,1/2+y,z
1/2+x,1/2-y,z
loop_
_atom_site_type_symbol
_atom_site_label
_atom_site_fract_x
_atom_site_fract_y
_atom_site_fract_z
Si Si1 0.279282 0.596142 0.690044
Si Si2 0.052720 0.096835 0.309874
Si Si3 0.136249 0.777766 0.192899
Si Si4 0.826588 0.595827 0.689426
O O1 0.293931 0.500000 0.750000
O O2 0.277154 0.594841 0.500000
O O3 0.317330 0.667927 0.740954
O O4 0.227038 0.612707 0.755200
O O5 0.052318 0.094884 0.500000
O O6 0.090200 0.169275 0.255110
O O7 0.000000 0.114557 0.250000
O O8 0.066433 0.000000 0.250000
O O9 0.141767 0.677360 0.244497
O O10 0.135671 0.777793 0.000000
O O11 0.840693 0.500000 0.750000
O O12 0.826597 0.593621 0.500000
#
# Coordination Sequence:
#
# PCOD9525271 Si02
#       4
#    16  16  16  16
#     4  10  18  30  46  69  97 128 158 191 230 276
#     4  10  19  34  52  74  99 125 152 188 233 282
#     4   9  19  32  49  69  95 126 159 193 233 277
#     4  10  19  33  48  67  94 127 160 197 234 272
#
# _framework density 17.463816000000001
#
# number of rings (size 3 to 8) (size 9 to 14) (size 15 to 20)
#    0.000    2.250    0.000    6.000    0.000    0.000 
#    0.000   12.500    0.000    0.750    0.000    5.250 
#    0.000    0.000    0.000    0.000    0.000    0.000 
#
# Total GULP energy -178577.928320 kJ/mol
# GULP energy per Si atom -5580.560260 kJ/mol
# Density = 1.742407 g / cm^3
# Si number density = 17.463816 Si / 1000 Ang^3
#
#
#
# Elastic Constant Matrix: (Units=GPa)
#
#
# Indices 1 2 3 4 5 6 
#
# 1 82.8267 101.6697 19.6549 0.0000 0.0000 0.0000
# 2 101.6697 178.3182 29.9158 0.0000 0.0000 0.0000
# 3 19.6549 29.9158 50.1139 0.0000 0.0000 0.0000
# 4 0.0000 0.0000 0.0000 22.1890 0.0000 0.0000
# 5 0.0000 0.0000 0.0000 0.0000 13.5301 0.0000
# 6 0.0000 0.0000 0.0000 0.0000 0.0000 30.7422
#
#
#
# Elastic Compliance Matrix: (Units=1/GPa)
#
#
# Indices 1 2 3 4 5 6 
#
# 1 0.040471 -0.022684 -0.002332 0.000000 0.000000 0.000000
# 2 -0.022684 0.018946 -0.002413 0.000000 0.000000 0.000000
# 3 -0.002332 -0.002413 0.022310 0.000000 0.000000 0.000000
# 4 0.000000 0.000000 0.000000 0.045067 0.000000 0.000000
# 5 0.000000 0.000000 0.000000 0.000000 0.073909 0.000000
# 6 0.000000 0.000000 0.000000 0.000000 0.000000 0.032529
#
#
# Mechanical properties :
#
#
# Convention : Reuss Voigt Hill
#
# Bulk Modulus (GPa) = 37.21725 68.19329 52.70527
# Shear Modulus (GPa) = 16.83240 23.96013 20.39627
#
# Velocity S-wave (km/s) = 3.10795 3.70805 3.42119
# Velocity P-wave (km/s) = 5.85120 7.58063 6.77135
#
# Compressibility (1/GPa) = 0.02686926
#
# Stress axis : x y z
#
# Youngs Moduli (GPa) = 24.70908 52.78115 44.82348
#
# Poissons Ratio (x) = 1.19727 0.10452
# Poissons Ratio (y) = 0.56049 0.10818
# Poissons Ratio (z) = 0.05761 0.12738
#
# Static dielectric constant tensor:
#      x y z
#    x 1.576180 0.000000 0.000000 
#    y 0.000000 1.604100 0.000000 
#    z 0.000000 0.000000 1.598270 
# 
# From -- ./inp_files/3771.got.cif
#   From: 2010.05.17/outbox.cif.g08.bks.cpg/sg72_2_cif.got.tgz:3771.got - 2010.06.03 17:03:01.
