data_PCOD9525010
_publ_section_title
;
Structure prediction by ZEFSAII (Michael W. Deem and Ramdas Pophale) SiO2 
 PCOD9525010
Probable space group: I B A M
;
_chemical_formula_sum "Si O2"
_cell_formula_units_Z 96
_cell_length_a 22.525362
_cell_length_b 22.791414
_cell_length_c 8.648630
_cell_angle_alpha 90.000000
_cell_angle_beta 90.000000
_cell_angle_gamma 90.000000
_cell_volume 4440.075623
_symmetry_space_group_name_H-M "I B A M"
_symmetry_group_IT_number 72
_symmetry_cell_setting 'orthorhombic'
loop_
_space_group_symop_operation_xyz
x,y,z
-x,-y,z
x,-y,1/2-z
-x,y,1/2-z
-x,-y,-z
x,y,-z
-x,y,1/2+z
x,-y,1/2+z
1/2+x,1/2+y,1/2+z
1/2-x,1/2-y,1/2+z
1/2+x,1/2-y,-z
1/2-x,1/2+y,-z
1/2-x,1/2-y,1/2-z
1/2+x,1/2+y,1/2-z
1/2-x,1/2+y,z
1/2+x,1/2-y,z
loop_
_atom_site_type_symbol
_atom_site_label
_atom_site_fract_x
_atom_site_fract_y
_atom_site_fract_z
Si Si1 0.189100 0.065751 0.812648
Si Si2 0.186809 0.741753 0.827123
Si Si3 0.439132 0.763255 0.687268
Si Si4 0.439245 0.567009 0.185721
Si Si5 0.939678 0.396831 0.316595
Si Si6 0.182060 0.398759 0.675730
O O1 0.125150 0.092902 0.767389
O O2 0.252320 0.090196 0.757299
O O3 0.187789 0.000000 0.750000
O O4 0.190476 0.067316 0.000000
O O5 0.250000 0.750000 0.750000
O O6 0.124038 0.763215 0.757678
O O7 0.178449 0.671582 0.834194
O O8 0.191181 0.765983 0.000000
O O9 0.500000 0.735909 0.750000
O O10 0.439378 0.764002 0.500000
O O11 0.439783 0.830268 0.749602
O O12 0.438371 0.500000 0.250000
O O13 0.500000 0.594186 0.250000
O O14 0.442585 0.565254 0.000000
O O15 0.943649 0.394821 0.500000
O O16 0.875661 0.421578 0.265563
O O17 0.000000 0.425072 0.250000
O O18 0.179358 0.422054 0.500000
#
# Coordination Sequence:
#
# PCOD9525010 Si02
#       6
#    16  16  16  16  16  16
#     4   9  18  31  48  68  93 121 151 185 227 273
#     4   9  18  30  46  67  92 120 152 186 225 268
#     4   9  16  27  43  65  90 117 149 188 229 270
#     4   9  15  24  40  63  87 114 145 182 221 259
#     4  10  17  26  43  67  91 117 149 188 227 266
#     4   9  18  33  48  66  93 124 152 185 227 273
#
# _framework density 21.621254
#
# number of rings (size 3 to 8) (size 9 to 14) (size 15 to 20)
#    0.000    2.833    0.000    5.000    0.000    4.667 
#    0.000    0.000    0.000    1.500    0.000    8.167 
#    0.000    0.000    0.000    0.000    0.000    0.000 
#
# Total GULP energy -267234.858553 kJ/mol
# GULP energy per Si atom -5567.392887 kJ/mol
# Density = 2.157204 g / cm^3
# Si number density = 21.621254 Si / 1000 Ang^3
#
#
#
# Elastic Constant Matrix: (Units=GPa)
#
#
# Indices 1 2 3 4 5 6 
#
# 1 306.1806 14.7417 69.8398 0.0000 0.0000 0.0000
# 2 14.7417 29.2350 -3.0459 0.0000 0.0000 0.0000
# 3 69.8398 -3.0459 66.1880 0.0000 0.0000 0.0000
# 4 0.0000 0.0000 0.0000 1.0681 0.0000 0.0000
# 5 0.0000 0.0000 0.0000 0.0000 55.7642 0.0000
# 6 0.0000 0.0000 0.0000 0.0000 0.0000 22.2659
#
#
#
# Elastic Compliance Matrix: (Units=1/GPa)
#
#
# Indices 1 2 3 4 5 6 
#
# 1 0.004517 -0.002787 -0.004894 0.000000 0.000000 0.000000
# 2 -0.002787 0.036091 0.004602 0.000000 0.000000 0.000000
# 3 -0.004894 0.004602 0.020484 0.000000 0.000000 0.000000
# 4 0.000000 0.000000 0.000000 0.936220 0.000000 0.000000
# 5 0.000000 0.000000 0.000000 0.000000 0.017933 0.000000
# 6 0.000000 0.000000 0.000000 0.000000 0.000000 0.044912
#
#
# Mechanical properties :
#
#
# Convention : Reuss Voigt Hill
#
# Bulk Modulus (GPa) = 18.20408 62.74163 40.47286
# Shear Modulus (GPa) = 4.60989 37.15751 20.88370
#
# Velocity S-wave (km/s) = 1.46176 4.15005 3.11124
# Velocity P-wave (km/s) = 3.35958 7.21425 5.62726
#
# Compressibility (1/GPa) = 0.05493274
#
# Stress axis : x y z
#
# Youngs Moduli (GPa) = 221.40622 27.70803 48.81775
#
# Poissons Ratio (x) = 0.07723 0.23892
# Poissons Ratio (y) = 0.61714 -0.22466
# Poissons Ratio (z) = 1.08357 -0.12751
#
# Static dielectric constant tensor:
#      x y z
#    x 1.943080 0.000000 0.000000 
#    y 0.000000 1.828500 0.000000 
#    z 0.000000 0.000000 1.759450 
# 
# From -- ./inp_files/7119.got.cif
#   From: 2010.05.17/outbox.cif.g08.bks.cpg/sg72_4_cif.got.tgz:7119.got - 2010.06.03 17:03:01.
