data_PCOD9525395
_publ_section_title
;
Structure prediction by ZEFSAII (Michael W. Deem and Ramdas Pophale) SiO2 
 PCOD9525395
Probable space group: I B A M
;
_chemical_formula_sum "Si O2"
_cell_formula_units_Z 112
_cell_length_a 17.192243
_cell_length_b 21.144912
_cell_length_c 17.261741
_cell_angle_alpha 90.000000
_cell_angle_beta 90.000000
_cell_angle_gamma 90.000000
_cell_volume 6275.134214
_symmetry_space_group_name_H-M "I B A M"
_symmetry_group_IT_number 72
_symmetry_cell_setting 'orthorhombic'
loop_
_space_group_symop_operation_xyz
x,y,z
-x,-y,z
x,-y,1/2-z
-x,y,1/2-z
-x,-y,-z
x,y,-z
-x,y,1/2+z
x,-y,1/2+z
1/2+x,1/2+y,1/2+z
1/2-x,1/2-y,1/2+z
1/2+x,1/2-y,-z
1/2-x,1/2+y,-z
1/2-x,1/2-y,1/2-z
1/2+x,1/2+y,1/2-z
1/2-x,1/2+y,z
1/2+x,1/2-y,z
loop_
_atom_site_type_symbol
_atom_site_label
_atom_site_fract_x
_atom_site_fract_y
_atom_site_fract_z
Si Si1 0.920660 0.035455 0.827656
Si Si2 0.230046 0.348964 0.175513
Si Si3 0.586134 0.787758 0.761478
Si Si4 0.613005 0.353521 0.771116
Si Si5 0.763809 0.026441 0.910037
Si Si6 0.200562 0.110102 0.090051
Si Si7 0.310812 0.233021 0.089763
O O1 0.931478 0.105903 0.794053
O O2 0.855903 0.035819 0.892914
O O3 0.888494 0.000000 0.750000
O O4 0.000000 0.000000 0.847356
O O5 0.151489 0.326210 0.215292
O O6 0.298293 0.352457 0.239175
O O7 0.223266 0.417793 0.137298
O O8 0.262939 0.295361 0.116679
O O9 0.500000 0.814922 0.750000
O O10 0.584407 0.717502 0.725005
O O11 0.619168 0.778170 0.848976
O O12 0.625005 0.383478 0.855555
O O13 0.751641 0.953170 0.887091
O O14 0.745894 0.033845 0.000000
O O15 0.253058 0.172803 0.095391
O O16 0.178621 0.101689 0.000000
O O17 0.335360 0.239246 0.000000
#
# Coordination Sequence:
#
# PCOD9525395 Si02
#       7
#    16  16  16  16  16  16  16
#     4  10  20  30  49  75 111 153 181 215 274 333
#     4  10  19  36  57  79 108 146 195 236 280 334
#     4  11  22  35  56  86 115 149 188 242 299 350
#     4  10  18  35  55  78 110 150 196 228 268 345
#     4  10  21  34  53  81 106 140 190 238 278 328
#     4  10  18  31  55  81 104 138 192 242 278 323
#     4  10  19  37  59  79 108 147 190 236 284 338
#
# _framework density 17.848223999999998
#
# number of rings (size 3 to 8) (size 9 to 14) (size 15 to 20)
#    0.000    1.857    4.286    1.286    2.000    0.286 
#    0.000    2.143    0.000    3.857    0.000    3.000 
#    0.000    0.000    0.000    0.000    0.000    0.000 
#
# Total GULP energy -312202.084862 kJ/mol
# GULP energy per Si atom -5575.037230 kJ/mol
# Density = 1.780760 g / cm^3
# Si number density = 17.848224 Si / 1000 Ang^3
#
#
#
# Elastic Constant Matrix: (Units=GPa)
#
#
# Indices 1 2 3 4 5 6 
#
# 1 76.5900 12.4212 20.8689 0.0000 0.0000 0.0000
# 2 12.4212 97.6568 24.4976 0.0000 0.0000 0.0000
# 3 20.8689 24.4976 83.1429 0.0000 0.0000 0.0000
# 4 0.0000 0.0000 0.0000 24.5894 0.0000 0.0000
# 5 0.0000 0.0000 0.0000 0.0000 18.2964 0.0000
# 6 0.0000 0.0000 0.0000 0.0000 0.0000 16.9951
#
#
#
# Elastic Compliance Matrix: (Units=1/GPa)
#
#
# Indices 1 2 3 4 5 6 
#
# 1 0.014101 -0.000978 -0.003251 0.000000 0.000000 0.000000
# 2 -0.000978 0.011125 -0.003032 0.000000 0.000000 0.000000
# 3 -0.003251 -0.003032 0.013737 0.000000 0.000000 0.000000
# 4 0.000000 0.000000 0.000000 0.040668 0.000000 0.000000
# 5 0.000000 0.000000 0.000000 0.000000 0.054655 0.000000
# 6 0.000000 0.000000 0.000000 0.000000 0.000000 0.058840
#
#
# Mechanical properties :
#
#
# Convention : Reuss Voigt Hill
#
# Bulk Modulus (GPa) = 40.91683 41.44057 41.17870
# Shear Modulus (GPa) = 23.16994 25.28299 24.22647
#
# Velocity S-wave (km/s) = 3.60691 3.76780 3.68823
# Velocity P-wave (km/s) = 6.34989 6.49593 6.42332
#
# Compressibility (1/GPa) = 0.02443982
#
# Stress axis : x y z
#
# Youngs Moduli (GPa) = 70.91686 89.88736 72.79586
#
# Poissons Ratio (x) = 0.08791 0.23667
# Poissons Ratio (y) = 0.06935 0.22075
# Poissons Ratio (z) = 0.23057 0.27258
#
# Static dielectric constant tensor:
#      x y z
#    x 1.614320 0.000000 0.000000 
#    y 0.000000 1.670750 0.000000 
#    z 0.000000 0.000000 1.631720 
# 
# From -- ./inp_files/31873.got.cif
#   From: 2010.05.17/outbox.cif.g08.bks.cpg/sg72_16_cif.got.tgz:31873.got - 2010.06.03 17:03:01.
