data_PCOD9525389
_publ_section_title
;
Structure prediction by ZEFSAII (Michael W. Deem and Ramdas Pophale) SiO2 
 PCOD9525389
Probable space group: I B A M
;
_chemical_formula_sum "Si O2"
_cell_formula_units_Z 96
_cell_length_a 18.442007
_cell_length_b 16.763269
_cell_length_c 15.300025
_cell_angle_alpha 90.000000
_cell_angle_beta 90.000000
_cell_angle_gamma 90.000000
_cell_volume 4729.977090
_symmetry_space_group_name_H-M "I B A M"
_symmetry_group_IT_number 72
_symmetry_cell_setting 'orthorhombic'
loop_
_space_group_symop_operation_xyz
x,y,z
-x,-y,z
x,-y,1/2-z
-x,y,1/2-z
-x,-y,-z
x,y,-z
-x,y,1/2+z
x,-y,1/2+z
1/2+x,1/2+y,1/2+z
1/2-x,1/2-y,1/2+z
1/2+x,1/2-y,-z
1/2-x,1/2+y,-z
1/2-x,1/2-y,1/2-z
1/2+x,1/2+y,1/2-z
1/2-x,1/2+y,z
1/2+x,1/2-y,z
loop_
_atom_site_type_symbol
_atom_site_label
_atom_site_fract_x
_atom_site_fract_y
_atom_site_fract_z
Si Si1 0.547318 0.427766 0.899238
Si Si2 0.152617 0.665866 0.837151
Si Si3 0.584557 0.002554 0.642748
Si Si4 0.023925 0.767489 0.147904
Si Si5 0.111860 0.331337 0.867089
Si Si6 0.187158 0.834428 0.600161
O O1 0.500000 0.500000 0.859402
O O2 0.497609 0.349195 0.897292
O O3 0.624513 0.394136 0.863245
O O4 0.562594 0.450229 0.000000
O O5 0.122935 0.584935 0.880588
O O6 0.105978 0.741375 0.869509
O O7 0.130266 0.665836 0.735632
O O8 0.238274 0.667926 0.847837
O O9 0.500000 0.000000 0.619081
O O10 0.586961 0.000000 0.750000
O O11 0.621316 0.922596 0.605076
O O12 0.000000 0.778745 0.250000
O O13 0.971575 0.694959 0.119331
O O14 0.155746 0.255620 0.901797
O O15 0.202387 0.857682 0.500000
#
# Coordination Sequence:
#
# PCOD9525389 Si02
#       6
#    16  16  16  16  16  16
#     4   9  19  37  56  69  94 142 186 216 256 313
#     4  10  18  31  54  82 108 132 167 216 263 307
#     4   9  15  28  54  83 107 133 166 205 255 315
#     4   9  17  30  54  81 102 130 166 212 259 310
#     4   9  17  33  55  77 105 138 170 201 253 320
#     4  10  21  36  52  73 106 141 176 220 264 304
#
# _framework density 20.296081000000001
#
# number of rings (size 3 to 8) (size 9 to 14) (size 15 to 20)
#    0.000    2.667    1.667    0.500    0.000    1.000 
#    3.000    0.833    7.333    1.000    0.000    0.000 
#    0.000    0.000    0.000    0.000    0.000    0.000 
#
# Total GULP energy -267299.779436 kJ/mol
# GULP energy per Si atom -5568.745405 kJ/mol
# Density = 2.024989 g / cm^3
# Si number density = 20.296081 Si / 1000 Ang^3
#
#
#
# Elastic Constant Matrix: (Units=GPa)
#
#
# Indices 1 2 3 4 5 6 
#
# 1 143.8998 57.3349 3.1680 0.0000 0.0000 0.0000
# 2 57.3349 99.9257 11.9659 0.0000 0.0000 0.0000
# 3 3.1680 11.9659 23.8066 0.0000 0.0000 0.0000
# 4 0.0000 0.0000 0.0000 7.8450 0.0000 0.0000
# 5 0.0000 0.0000 0.0000 0.0000 7.4760 0.0000
# 6 0.0000 0.0000 0.0000 0.0000 0.0000 24.3776
#
#
#
# Elastic Compliance Matrix: (Units=1/GPa)
#
#
# Indices 1 2 3 4 5 6 
#
# 1 0.009059 -0.005377 0.001497 0.000000 0.000000 0.000000
# 2 -0.005377 0.013840 -0.006241 0.000000 0.000000 0.000000
# 3 0.001497 -0.006241 0.044943 0.000000 0.000000 0.000000
# 4 0.000000 0.000000 0.000000 0.127469 0.000000 0.000000
# 5 0.000000 0.000000 0.000000 0.000000 0.133761 0.000000
# 6 0.000000 0.000000 0.000000 0.000000 0.000000 0.041021
#
#
# Mechanical properties :
#
#
# Convention : Reuss Voigt Hill
#
# Bulk Modulus (GPa) = 21.00836 45.84108 33.42472
# Shear Modulus (GPa) = 12.30920 20.95063 16.62991
#
# Velocity S-wave (km/s) = 2.46536 3.21635 2.86556
# Velocity P-wave (km/s) = 4.29853 6.03560 5.23955
#
# Compressibility (1/GPa) = 0.04760009
#
# Stress axis : x y z
#
# Youngs Moduli (GPa) = 110.39123 72.25474 22.25055
#
# Poissons Ratio (x) = 0.38851 -0.03331
# Poissons Ratio (y) = 0.59357 0.13886
# Poissons Ratio (z) = -0.16527 0.45093
#
# Static dielectric constant tensor:
#      x y z
#    x 1.707880 0.000000 0.000000 
#    y 0.000000 1.724940 0.000000 
#    z 0.000000 0.000000 1.801140 
# 
# From -- ./inp_files/31600.got.cif
#   From: 2010.05.17/outbox.cif.g08.bks.cpg/sg72_16_cif.got.tgz:31600.got - 2010.06.03 17:03:01.
