data_PCOD9525372
_publ_section_title
;
Structure prediction by ZEFSAII (Michael W. Deem and Ramdas Pophale) SiO2 
 PCOD9525372
Probable space group: I B A M
;
_chemical_formula_sum "Si O2"
_cell_formula_units_Z 116
_cell_length_a 28.175610
_cell_length_b 27.607093
_cell_length_c 8.099089
_cell_angle_alpha 90.000000
_cell_angle_beta 90.000000
_cell_angle_gamma 90.000000
_cell_volume 6299.849535
_symmetry_space_group_name_H-M "I B A M"
_symmetry_group_IT_number 72
_symmetry_cell_setting 'orthorhombic'
loop_
_space_group_symop_operation_xyz
x,y,z
-x,-y,z
x,-y,1/2-z
-x,y,1/2-z
-x,-y,-z
x,y,-z
-x,y,1/2+z
x,-y,1/2+z
1/2+x,1/2+y,1/2+z
1/2-x,1/2-y,1/2+z
1/2+x,1/2-y,-z
1/2-x,1/2+y,-z
1/2-x,1/2-y,1/2-z
1/2+x,1/2+y,1/2-z
1/2-x,1/2+y,z
1/2+x,1/2-y,z
loop_
_atom_site_type_symbol
_atom_site_label
_atom_site_fract_x
_atom_site_fract_y
_atom_site_fract_z
Si Si1 0.213587 0.314964 0.198802
Si Si2 0.000000 0.500000 0.750000
Si Si3 0.211904 0.052566 0.808870
Si Si4 0.053833 0.316351 0.801741
Si Si5 0.684126 0.923551 0.303626
Si Si6 0.577436 0.927356 0.296803
Si Si7 0.134401 0.243966 0.198172
Si Si8 0.315869 0.343871 0.194431
O O1 0.186437 0.365667 0.224271
O O2 0.181306 0.271843 0.264180
O O3 0.266339 0.322431 0.267712
O O4 0.217739 0.309209 0.000000
O O5 0.960230 0.539943 0.698665
O O6 0.268912 0.055633 0.779911
O O7 0.187820 0.098788 0.723293
O O8 0.195760 0.000000 0.750000
O O9 0.202433 0.057761 0.000000
O O10 0.069130 0.370967 0.754930
O O11 0.089385 0.274539 0.739734
O O12 0.000000 0.307937 0.750000
O O13 0.056287 0.315803 0.000000
O O14 0.689732 0.931513 0.500000
O O15 0.631768 0.940687 0.256142
O O16 0.570491 0.933338 0.500000
O O17 0.140806 0.187633 0.237934
O O18 0.134528 0.248575 0.000000
O O19 0.315272 0.336179 0.000000
#
# Coordination Sequence:
#
# PCOD9525372 Si02
#       8
#    16   4  16  16  16  16  16  16
#     4   8  14  27  48  70  96 130 166 203 256 315
#     4  12  22  32  48  74  96 128 186 236 296 328
#     4  11  22  37  54  76 104 138 175 211 253 305
#     4  10  20  36  55  73  99 136 175 221 277 328
#     4   9  17  33  52  70  96 133 174 219 269 318
#     4  10  20  35  51  67  95 131 172 228 286 331
#     4  10  18  31  52  74 100 137 174 212 264 321
#     4  10  20  33  51  77 108 137 168 211 257 310
#
# _framework density 18.413139000000001
#
# number of rings (size 3 to 8) (size 9 to 14) (size 15 to 20)
#    0.000    2.207    2.069    3.103    0.966    0.552 
#    0.000    4.138    0.000    0.000    0.000    0.000 
#    0.000    0.552    0.000    5.793    0.000    3.172 
#
# Total GULP energy -323242.198808 kJ/mol
# GULP energy per Si atom -5573.141359 kJ/mol
# Density = 1.837123 g / cm^3
# Si number density = 18.413139 Si / 1000 Ang^3
#
#
#
# Elastic Constant Matrix: (Units=GPa)
#
#
# Indices 1 2 3 4 5 6 
#
# 1 64.7670 60.9729 9.3640 0.0000 0.0000 0.0000
# 2 60.9729 112.8813 6.4347 0.0000 0.0000 0.0000
# 3 9.3640 6.4347 20.4744 0.0000 0.0000 0.0000
# 4 0.0000 0.0000 0.0000 -70.4843 0.0000 0.0000
# 5 0.0000 0.0000 0.0000 0.0000 8.7629 0.0000
# 6 0.0000 0.0000 0.0000 0.0000 0.0000 -2.7674
#
#
#
# Elastic Compliance Matrix: (Units=1/GPa)
#
#
# Indices 1 2 3 4 5 6 
#
# 1 0.033214 -0.017386 -0.009726 0.000000 0.000000 0.000000
# 2 -0.017386 0.018121 0.002256 0.000000 0.000000 0.000000
# 3 -0.009726 0.002256 0.052581 0.000000 0.000000 0.000000
# 4 0.000000 0.000000 0.000000 -0.014188 0.000000 0.000000
# 5 0.000000 0.000000 0.000000 0.000000 0.114117 0.000000
# 6 0.000000 0.000000 0.000000 0.000000 0.000000 -0.361350
#
#
# Mechanical properties :
#
#
# Convention : Reuss Voigt Hill
#
# Bulk Modulus (GPa) = 18.44888 39.07398 28.76143
# Shear Modulus (GPa) = -55.72538 -4.80767 -30.26653
#
# Velocity S-wave (km/s) = -5.50723 -1.61761 -4.05871
# Velocity P-wave (km/s) = 5.51347 4.21638 2.51202
#
# Compressibility (1/GPa) = 0.05420382
#
# Stress axis : x y z
#
# Youngs Moduli (GPa) = 30.10811 55.18379 19.01843
#
# Poissons Ratio (x) = 0.95942 0.18498
# Poissons Ratio (y) = 0.52346 -0.04291
# Poissons Ratio (z) = 0.29284 -0.12451
#
# Static dielectric constant tensor:
#      x y z
#    x 1.636890 0.000000 0.000000 
#    y 0.000000 1.623670 0.000000 
#    z 0.000000 0.000000 1.666860 
# 
# From -- ./inp_files/8720.got.cif
#   From: 2010.05.17/outbox.cif.g08.bks.cpg/sg72_5_cif.got.tgz:8720.got - 2010.06.03 17:03:01.
