data_PCOD9525581
_publ_section_title
;
Structure prediction by ZEFSAII (Michael W. Deem and Ramdas Pophale) SiO2 
 PCOD9525581
Probable space group: I B A M
;
_chemical_formula_sum "Si O2"
_cell_formula_units_Z 112
_cell_length_a 10.963056
_cell_length_b 32.925410
_cell_length_c 14.599698
_cell_angle_alpha 90.000000
_cell_angle_beta 90.000000
_cell_angle_gamma 90.000000
_cell_volume 5269.952448
_symmetry_space_group_name_H-M "I B A M"
_symmetry_group_IT_number 72
_symmetry_cell_setting 'orthorhombic'
loop_
_space_group_symop_operation_xyz
x,y,z
-x,-y,z
x,-y,1/2-z
-x,y,1/2-z
-x,-y,-z
x,y,-z
-x,y,1/2+z
x,-y,1/2+z
1/2+x,1/2+y,1/2+z
1/2-x,1/2-y,1/2+z
1/2+x,1/2-y,-z
1/2-x,1/2+y,-z
1/2-x,1/2-y,1/2-z
1/2+x,1/2+y,1/2-z
1/2-x,1/2+y,z
1/2+x,1/2-y,z
loop_
_atom_site_type_symbol
_atom_site_label
_atom_site_fract_x
_atom_site_fract_y
_atom_site_fract_z
Si Si1 0.488032 0.677988 0.104599
Si Si2 0.712126 0.932579 0.893674
Si Si3 0.564273 0.065521 0.106686
Si Si4 0.200600 0.204788 0.257843
Si Si5 0.565974 0.591691 0.153985
Si Si6 0.682758 0.125304 0.226581
Si Si7 0.795458 0.014508 0.891862
O O1 0.605886 0.696337 0.158417
O O2 0.374955 0.691521 0.167467
O O3 0.495885 0.628434 0.104115
O O4 0.481835 0.691883 0.000000
O O5 0.573557 0.950251 0.890895
O O6 0.706717 0.895208 0.824884
O O7 0.800463 0.968359 0.856362
O O8 0.738366 0.921967 0.000000
O O9 0.574185 0.105406 0.169051
O O10 0.670381 0.035736 0.142312
O O11 0.591456 0.074675 0.000000
O O12 0.250000 0.250000 0.250000
O O13 0.312033 0.173328 0.268050
O O14 0.500000 0.587733 0.250000
O O15 0.699034 0.611297 0.168244
O O16 0.595185 0.546601 0.117711
O O17 0.777406 0.008264 0.000000
#
# Coordination Sequence:
#
# PCOD9525581 Si02
#       7
#    16  16  16  16  16  16  16
#     4  10  20  40  67  93 122 162 205 250 315 379
#     4  10  20  35  51  81 123 160 199 246 301 356
#     4   9  18  33  55  81 115 155 199 244 291 356
#     4  10  22  42  64  91 124 157 200 259 316 376
#     4  10  18  36  58  85 115 156 210 255 307 349
#     4  10  20  36  58  82 113 157 201 240 312 370
#     4   9  18  32  55  83 114 158 207 253 290 345
#
# _framework density 21.252565000000001
#
# number of rings (size 3 to 8) (size 9 to 14) (size 15 to 20)
#    0.000    2.286    2.857    1.286    0.000    8.571 
#    5.143    4.286    0.000    1.714    0.000    1.000 
#    0.000    0.000    0.000    0.000    0.000    0.000 
#
# Total GULP energy -312385.204041 kJ/mol
# GULP energy per Si atom -5578.307215 kJ/mol
# Density = 2.120419 g / cm^3
# Si number density = 21.252565 Si / 1000 Ang^3
#
#
#
# Elastic Constant Matrix: (Units=GPa)
#
#
# Indices 1 2 3 4 5 6 
#
# 1 59.3155 25.6383 15.9929 -0.0003 0.0000 0.0000
# 2 25.6383 148.8169 39.4857 -0.0003 0.0000 0.0000
# 3 15.9929 39.4857 107.7099 -0.0020 0.0002 0.0001
# 4 -0.0003 -0.0003 -0.0020 -20.5818 -0.0001 0.0000
# 5 0.0000 0.0000 0.0002 -0.0001 18.4839 -0.0002
# 6 0.0000 0.0000 0.0001 0.0000 -0.0002 24.3942
#
#
#
# Elastic Compliance Matrix: (Units=1/GPa)
#
#
# Indices 1 2 3 4 5 6 
#
# 1 0.018508 -0.002724 -0.001749 0.000000 0.000000 0.000000
# 2 -0.002724 0.007845 -0.002471 0.000000 0.000000 0.000000
# 3 -0.001749 -0.002471 0.010450 -0.000001 0.000000 0.000000
# 4 0.000000 0.000000 -0.000001 -0.048587 0.000000 0.000000
# 5 0.000000 0.000000 0.000000 0.000000 0.054101 0.000000
# 6 0.000000 0.000000 0.000000 0.000000 0.000000 0.040993
#
#
# Mechanical properties :
#
#
# Convention : Reuss Voigt Hill
#
# Bulk Modulus (GPa) = 43.64392 53.11955 48.38173
# Shear Modulus (GPa) = 47.69227 20.10761 33.89994
#
# Velocity S-wave (km/s) = 4.74230 3.07925 3.99820
# Velocity P-wave (km/s) = 7.11100 6.13931 6.64294
#
# Compressibility (1/GPa) = 0.02291270
#
# Stress axis : x y z
#
# Youngs Moduli (GPa) = 54.02986 127.47377 95.69461
#
# Poissons Ratio (x) = 0.34730 0.16740
# Poissons Ratio (y) = 0.14720 0.23649
# Poissons Ratio (z) = 0.09452 0.31503
#
# Static dielectric constant tensor:
#      x y z
#    x 1.848150 0.000000 0.000000 
#    y 0.000000 1.792690 0.000000 
#    z 0.000000 0.000000 1.765110 
# 
# From -- ./inp_files/20712.got.cif
#   From: 2010.05.17/outbox.cif.g08.bks.cpg/sg72_11_cif.got.tgz:20712.got - 2010.06.03 17:03:01.
