data_PCOD9525409
_publ_section_title
;
Structure prediction by ZEFSAII (Michael W. Deem and Ramdas Pophale) SiO2 
 PCOD9525409
Probable space group: I B A M
;
_chemical_formula_sum "Si O2"
_cell_formula_units_Z 64
_cell_length_a 21.249428
_cell_length_b 4.899067
_cell_length_c 29.622133
_cell_angle_alpha 90.000000
_cell_angle_beta 90.000000
_cell_angle_gamma 90.000000
_cell_volume 3083.734294
_symmetry_space_group_name_H-M "I B A M"
_symmetry_group_IT_number 72
_symmetry_cell_setting 'orthorhombic'
loop_
_space_group_symop_operation_xyz
x,y,z
-x,-y,z
x,-y,1/2-z
-x,y,1/2-z
-x,-y,-z
x,y,-z
-x,y,1/2+z
x,-y,1/2+z
1/2+x,1/2+y,1/2+z
1/2-x,1/2-y,1/2+z
1/2+x,1/2-y,-z
1/2-x,1/2+y,-z
1/2-x,1/2-y,1/2-z
1/2+x,1/2+y,1/2-z
1/2-x,1/2+y,z
1/2+x,1/2-y,z
loop_
_atom_site_type_symbol
_atom_site_label
_atom_site_fract_x
_atom_site_fract_y
_atom_site_fract_z
Si Si1 0.291744 0.203810 0.550030
Si Si2 0.153000 0.486192 0.857160
Si Si3 0.171962 0.949697 0.797537
Si Si4 0.543618 0.760286 0.814945
O O1 0.319102 0.152392 0.500000
O O2 0.228556 0.018582 0.552588
O O3 0.329837 0.110590 0.593350
O O4 0.156957 0.226954 0.823967
O O5 0.083154 0.617850 0.857063
O O6 0.196319 0.723882 0.833767
O O7 0.205792 0.000000 0.750000
O O8 0.104131 0.813293 0.784841
O O9 0.500000 0.500000 0.823139
O O10 0.500000 0.000000 0.797870
#
# Coordination Sequence:
#
# PCOD9525409 Si02
#       4
#    16  16  16  16
#     4  10  21  38  63  87 101 124 174 230 278 322
#     4  10  20  34  53  77 111 143 165 229 268 306
#     4  10  20  33  50  77 110 148 182 213 253 305
#     4  10  18  32  48  78 107 146 183 215 252 303
#
# _framework density 20.754057
#
# number of rings (size 3 to 8) (size 9 to 14) (size 15 to 20)
#    1.500    0.500    2.500    2.250    0.000    0.500 
#    4.500    0.000    0.000   16.500    0.000    0.000 
#    0.000    0.000    0.000    0.000    0.000    0.000 
#
# Total GULP energy -178293.737984 kJ/mol
# GULP energy per Si atom -5571.679312 kJ/mol
# Density = 2.070682 g / cm^3
# Si number density = 20.754057 Si / 1000 Ang^3
#
#
#
# Elastic Constant Matrix: (Units=GPa)
#
#
# Indices 1 2 3 4 5 6 
#
# 1 52.8376 8.4270 12.5443 0.0000 0.0000 0.0000
# 2 8.4270 127.5584 18.0771 0.0000 0.0000 0.0000
# 3 12.5443 18.0771 131.3545 0.0000 0.0000 0.0000
# 4 0.0000 0.0000 0.0000 26.5618 0.0000 0.0000
# 5 0.0000 0.0000 0.0000 0.0000 8.7560 0.0000
# 6 0.0000 0.0000 0.0000 0.0000 0.0000 24.5204
#
#
#
# Elastic Compliance Matrix: (Units=1/GPa)
#
#
# Indices 1 2 3 4 5 6 
#
# 1 0.019501 -0.001045 -0.001719 0.000000 0.000000 0.000000
# 2 -0.001045 0.008051 -0.001008 0.000000 0.000000 0.000000
# 3 -0.001719 -0.001008 0.007916 0.000000 0.000000 0.000000
# 4 0.000000 0.000000 0.000000 0.037648 0.000000 0.000000
# 5 0.000000 0.000000 0.000000 0.000000 0.114208 0.000000
# 6 0.000000 0.000000 0.000000 0.000000 0.000000 0.040782
#
#
# Mechanical properties :
#
#
# Convention : Reuss Voigt Hill
#
# Bulk Modulus (GPa) = 35.81046 43.31637 39.56342
# Shear Modulus (GPa) = 20.41173 30.14778 25.27975
#
# Velocity S-wave (km/s) = 3.13949 3.81546 3.49386
# Velocity P-wave (km/s) = 5.51670 6.35035 5.94815
#
# Compressibility (1/GPa) = 0.02792480
#
# Stress axis : x y z
#
# Youngs Moduli (GPa) = 51.28059 124.20114 126.32857
#
# Poissons Ratio (x) = 0.12976 0.21710
# Poissons Ratio (y) = 0.05358 0.12737
# Poissons Ratio (z) = 0.08813 0.12523
#
# Static dielectric constant tensor:
#      x y z
#    x 1.839540 0.000000 0.000000 
#    y 0.000000 1.797680 0.000000 
#    z 0.000000 0.000000 1.778000 
# 
# From -- ./inp_files/41426.got.cif
#   From: 2010.05.17/outbox.cif.g08.bks.cpg/sg72_21_cif.got.tgz:41426.got - 2010.06.03 17:03:01.
