data_PCOD9525618
_publ_section_title
;
Structure prediction by ZEFSAII (Michael W. Deem and Ramdas Pophale) SiO2 
 PCOD9525618
Probable space group: I B A M
;
_chemical_formula_sum "Si O2"
_cell_formula_units_Z 112
_cell_length_a 5.239348
_cell_length_b 35.751896
_cell_length_c 30.377577
_cell_angle_alpha 90.000000
_cell_angle_beta 90.000000
_cell_angle_gamma 90.000000
_cell_volume 5690.225193
_symmetry_space_group_name_H-M "I B A M"
_symmetry_group_IT_number 72
_symmetry_cell_setting 'orthorhombic'
loop_
_space_group_symop_operation_xyz
x,y,z
-x,-y,z
x,-y,1/2-z
-x,y,1/2-z
-x,-y,-z
x,y,-z
-x,y,1/2+z
x,-y,1/2+z
1/2+x,1/2+y,1/2+z
1/2-x,1/2-y,1/2+z
1/2+x,1/2-y,-z
1/2-x,1/2+y,-z
1/2-x,1/2-y,1/2-z
1/2+x,1/2+y,1/2-z
1/2-x,1/2+y,z
1/2+x,1/2-y,z
loop_
_atom_site_type_symbol
_atom_site_label
_atom_site_fract_x
_atom_site_fract_y
_atom_site_fract_z
Si Si1 0.754991 0.024837 0.949385
Si Si2 0.588632 0.347978 0.192810
Si Si3 0.587511 0.644696 0.589372
Si Si4 0.983593 0.763898 0.299535
Si Si5 0.081178 0.608493 0.705225
Si Si6 0.340673 0.727692 0.946934
Si Si7 0.419357 0.901393 0.100446
O O1 0.684324 0.059939 0.919227
O O2 0.500000 0.000000 0.949900
O O3 0.807966 0.037051 0.000000
O O4 0.000000 0.000000 0.935158
O O5 0.612840 0.346985 0.140780
O O6 0.482951 0.307817 0.205282
O O7 0.373151 0.377833 0.206350
O O8 0.871129 0.358230 0.208421
O O9 0.630581 0.684076 0.565520
O O10 0.301706 0.628098 0.586452
O O11 0.811041 0.613846 0.581075
O O12 0.737973 0.748625 0.322978
O O13 0.000000 0.746242 0.250000
O O14 0.052541 0.594656 0.654145
O O15 0.000000 0.585888 0.750000
O O16 0.580582 0.752536 0.931448
O O17 0.338717 0.729112 0.000000
#
# Coordination Sequence:
#
# PCOD9525618 Si02
#       7
#    16  16  16  16  16  16  16
#     4  10  21  38  61  89 121 154 181 213 271 341
#     4  10  20  32  47  69  95 128 173 220 272 327
#     4  10  21  35  53  78 107 139 183 236 280 321
#     4  10  19  28  39  57  82 115 157 206 260 316
#     4  10  19  33  53  74 101 137 174 220 270 316
#     4  10  21  36  53  74 104 145 189 232 285 345
#     4  10  21  36  56  86 113 141 187 232 273 328
#
# _framework density 19.682874999999999
#
# number of rings (size 3 to 8) (size 9 to 14) (size 15 to 20)
#    0.000    2.000    0.000    3.857    0.000    3.429 
#    0.000    0.000    0.000    0.429    0.000    1.000 
#    0.000    0.000    0.000    0.000    0.000    0.000 
#
# Total GULP energy -311945.506294 kJ/mol
# GULP energy per Si atom -5570.455470 kJ/mol
# Density = 1.963808 g / cm^3
# Si number density = 19.682875 Si / 1000 Ang^3
#
#
#
# Elastic Constant Matrix: (Units=GPa)
#
#
# Indices 1 2 3 4 5 6 
#
# 1 100.7119 -0.0570 19.3534 0.0000 0.0000 0.0000
# 2 -0.0570 60.1674 29.4893 0.0000 0.0000 0.0000
# 3 19.3534 29.4893 52.8484 0.0000 0.0000 0.0000
# 4 0.0000 0.0000 0.0000 6.1261 0.0000 0.0000
# 5 0.0000 0.0000 0.0000 0.0000 17.0384 0.0000
# 6 0.0000 0.0000 0.0000 0.0000 0.0000 32.5908
#
#
#
# Elastic Compliance Matrix: (Units=1/GPa)
#
#
# Indices 1 2 3 4 5 6 
#
# 1 0.010998 0.002731 -0.005551 0.000000 0.000000 0.000000
# 2 0.002731 0.023555 -0.014144 0.000000 0.000000 0.000000
# 3 -0.005551 -0.014144 0.028847 0.000000 0.000000 0.000000
# 4 0.000000 0.000000 0.000000 0.163235 0.000000 0.000000
# 5 0.000000 0.000000 0.000000 0.000000 0.058691 0.000000
# 6 0.000000 0.000000 0.000000 0.000000 0.000000 0.030684
#
#
# Mechanical properties :
#
#
# Convention : Reuss Voigt Hill
#
# Bulk Modulus (GPa) = 33.93062 34.58879 34.25970
# Shear Modulus (GPa) = 13.89806 22.14719 18.02263
#
# Velocity S-wave (km/s) = 2.66014 3.35804 3.02925
# Velocity P-wave (km/s) = 5.16828 5.71371 5.44783
#
# Compressibility (1/GPa) = 0.02947191
#
# Stress axis : x y z
#
# Youngs Moduli (GPa) = 90.92838 42.45362 34.66523
#
# Poissons Ratio (x) = -0.11595 0.19244
# Poissons Ratio (y) = -0.24836 0.49030
# Poissons Ratio (z) = 0.50479 0.60046
#
# Static dielectric constant tensor:
#      x y z
#    x 1.719110 0.000000 0.000000 
#    y 0.000000 1.655780 0.000000 
#    z 0.000000 0.000000 1.771600 
# 
# From -- ./inp_files/50458.got.cif
#   From: 2010.05.17/outbox.cif.g08.bks.cpg/sg72_26_cif.got.tgz:50458.got - 2010.06.03 17:03:01.
