data_PCOD9525659
_publ_section_title
;
Structure prediction by ZEFSAII (Michael W. Deem and Ramdas Pophale) SiO2 
 PCOD9525659
Probable space group: I B A M
;
_chemical_formula_sum "Si O2"
_cell_formula_units_Z 96
_cell_length_a 27.252696
_cell_length_b 23.327201
_cell_length_c 8.739935
_cell_angle_alpha 90.000000
_cell_angle_beta 90.000000
_cell_angle_gamma 90.000000
_cell_volume 5556.231164
_symmetry_space_group_name_H-M "I B A M"
_symmetry_group_IT_number 72
_symmetry_cell_setting 'orthorhombic'
loop_
_space_group_symop_operation_xyz
x,y,z
-x,-y,z
x,-y,1/2-z
-x,y,1/2-z
-x,-y,-z
x,y,-z
-x,y,1/2+z
x,-y,1/2+z
1/2+x,1/2+y,1/2+z
1/2-x,1/2-y,1/2+z
1/2+x,1/2-y,-z
1/2-x,1/2+y,-z
1/2-x,1/2-y,1/2-z
1/2+x,1/2+y,1/2-z
1/2-x,1/2+y,z
1/2+x,1/2-y,z
loop_
_atom_site_type_symbol
_atom_site_label
_atom_site_fract_x
_atom_site_fract_y
_atom_site_fract_z
Si Si1 0.361350 0.647076 0.671746
Si Si2 0.883770 0.666673 0.820612
Si Si3 0.217905 0.063602 0.182630
Si Si4 0.329723 0.936090 0.683675
Si Si5 0.945641 0.770725 0.314998
Si Si6 0.800600 0.736123 0.327591
O O1 0.370518 0.624228 0.500000
O O2 0.327056 0.602854 0.761438
O O3 0.411854 0.674788 0.735454
O O4 0.328947 0.704269 0.658428
O O5 0.872648 0.604755 0.747729
O O6 0.922373 0.710392 0.742720
O O7 0.832296 0.697604 0.784811
O O8 0.893980 0.662399 0.000000
O O9 0.273579 0.083500 0.226911
O O10 0.212288 0.000000 0.250000
O O11 0.217003 0.061204 0.000000
O O12 0.332179 0.937049 0.500000
O O13 0.334768 0.000000 0.750000
O O14 0.944749 0.770210 0.500000
O O15 0.000000 0.776206 0.250000
O O16 0.796607 0.711006 0.500000
O O17 0.750000 0.750000 0.250000
#
# Coordination Sequence:
#
# PCOD9525659 Si02
#       6
#    16  16  16  16  16  16
#     4   9  19  33  49  71 101 132 166 208 255 305
#     4  11  21  33  51  75 103 137 173 212 258 309
#     4  10  20  32  50  74 104 141 178 212 250 298
#     4  10  20  34  51  75 107 143 181 218 254 301
#     4  10  21  38  58  80 104 132 168 216 268 318
#     4  10  19  30  45  69 101 135 168 208 255 307
#
# _framework density 17.277898
#
# number of rings (size 3 to 8) (size 9 to 14) (size 15 to 20)
#    0.000    2.000    0.000    5.500    0.000    8.667 
#    0.000    0.000    0.000    1.000    0.000    7.000 
#    0.000    0.000    0.000    0.000    0.000    0.000 
#
# Total GULP energy -267477.848778 kJ/mol
# GULP energy per Si atom -5572.455183 kJ/mol
# Density = 1.723857 g / cm^3
# Si number density = 17.277898 Si / 1000 Ang^3
#
#
#
# Elastic Constant Matrix: (Units=GPa)
#
#
# Indices 1 2 3 4 5 6 
#
# 1 63.0535 13.7529 16.4691 0.0000 0.0000 0.0000
# 2 13.7529 66.0188 24.8018 0.0000 0.0000 0.0000
# 3 16.4691 24.8018 74.5602 0.0000 0.0000 0.0000
# 4 0.0000 0.0000 0.0000 29.4482 0.0000 0.0000
# 5 0.0000 0.0000 0.0000 0.0000 25.3438 0.0000
# 6 0.0000 0.0000 0.0000 0.0000 0.0000 23.9443
#
#
#
# Elastic Compliance Matrix: (Units=1/GPa)
#
#
# Indices 1 2 3 4 5 6 
#
# 1 0.017173 -0.002460 -0.002975 0.000000 0.000000 0.000000
# 2 -0.002460 0.017663 -0.005332 0.000000 0.000000 0.000000
# 3 -0.002975 -0.005332 0.015843 0.000000 0.000000 0.000000
# 4 0.000000 0.000000 0.000000 0.033958 0.000000 0.000000
# 5 0.000000 0.000000 0.000000 0.000000 0.039457 0.000000
# 6 0.000000 0.000000 0.000000 0.000000 0.000000 0.041764
#
#
# Mechanical properties :
#
#
# Convention : Reuss Voigt Hill
#
# Bulk Modulus (GPa) = 34.31130 34.85333 34.58231
# Shear Modulus (GPa) = 25.36703 25.65451 25.51077
#
# Velocity S-wave (km/s) = 3.83584 3.85751 3.84669
# Velocity P-wave (km/s) = 6.28648 6.32902 6.30779
#
# Compressibility (1/GPa) = 0.02914492
#
# Stress axis : x y z
#
# Youngs Moduli (GPa) = 58.23054 56.61633 63.12035
#
# Poissons Ratio (x) = 0.13927 0.18778
# Poissons Ratio (y) = 0.14324 0.33656
# Poissons Ratio (z) = 0.17324 0.30188
#
# Static dielectric constant tensor:
#      x y z
#    x 1.548820 0.000000 0.000000 
#    y 0.000000 1.594000 0.000000 
#    z 0.000000 0.000000 0.812810 
# 
# From -- ./inp_files/5927.got.cif
#   From: 2010.05.17/outbox.cif.g08.bks.cpg/sg72_3_cif.got.tgz:5927.got - 2010.06.03 17:03:01.
