data_PCOD9525113
_publ_section_title
;
Structure prediction by ZEFSAII (Michael W. Deem and Ramdas Pophale) SiO2 
 PCOD9525113
Probable space group: I B A M
;
_chemical_formula_sum "Si O2"
_cell_formula_units_Z 96
_cell_length_a 21.511904
_cell_length_b 8.500610
_cell_length_c 29.367817
_cell_angle_alpha 90.000000
_cell_angle_beta 90.000000
_cell_angle_gamma 90.000000
_cell_volume 5370.325482
_symmetry_space_group_name_H-M "I B A M"
_symmetry_group_IT_number 72
_symmetry_cell_setting 'orthorhombic'
loop_
_space_group_symop_operation_xyz
x,y,z
-x,-y,z
x,-y,1/2-z
-x,y,1/2-z
-x,-y,-z
x,y,-z
-x,y,1/2+z
x,-y,1/2+z
1/2+x,1/2+y,1/2+z
1/2-x,1/2-y,1/2+z
1/2+x,1/2-y,-z
1/2-x,1/2+y,-z
1/2-x,1/2-y,1/2-z
1/2+x,1/2+y,1/2-z
1/2-x,1/2+y,z
1/2+x,1/2-y,z
loop_
_atom_site_type_symbol
_atom_site_label
_atom_site_fract_x
_atom_site_fract_y
_atom_site_fract_z
Si Si1 0.817529 0.814410 0.741095
Si Si2 0.435623 0.432376 0.618427
Si Si3 0.270035 0.970337 0.410933
Si Si4 0.942492 0.831761 0.222799
Si Si5 0.842178 0.767924 0.052149
Si Si6 0.326897 0.674901 0.636764
O O1 0.750000 0.750000 0.750000
O O2 0.875238 0.752907 0.770903
O O3 0.833720 0.782493 0.689041
O O4 0.812731 0.000000 0.750000
O O5 0.500000 0.500000 0.599206
O O6 0.450537 0.364264 0.669144
O O7 0.398021 0.310692 0.586665
O O8 0.387593 0.576990 0.623566
O O9 0.311063 0.100171 0.436254
O O10 0.232761 0.060218 0.370559
O O11 0.214020 0.893593 0.440147
O O12 0.311915 0.828304 0.392659
O O13 0.000000 0.753761 0.250000
O O14 0.937210 0.000000 0.250000
O O15 0.862770 0.773972 0.000000
#
# Coordination Sequence:
#
# PCOD9525113 Si02
#       6
#    16  16  16  16  16  16
#     4  11  20  29  49  80 114 144 180 230 278 327
#     4  11  20  35  58  83 110 150 198 236 274 337
#     4   9  20  34  57  79 112 143 181 233 293 354
#     4  10  17  33  55  77 108 153 195 221 267 342
#     4  10  21  37  59  83 110 145 189 242 299 346
#     4  10  18  33  51  82 111 144 185 228 282 341
#
# _framework density 17.876011999999999
#
# number of rings (size 3 to 8) (size 9 to 14) (size 15 to 20)
#    0.000    1.833    5.000    1.500    4.667    0.333 
#    0.000    1.667    0.000    1.500    0.000    1.167 
#    0.000    0.000    0.000    0.000    0.000    0.000 
#
# Total GULP energy -267463.426343 kJ/mol
# GULP energy per Si atom -5572.154715 kJ/mol
# Density = 1.783533 g / cm^3
# Si number density = 17.876012 Si / 1000 Ang^3
#
#
#
# Elastic Constant Matrix: (Units=GPa)
#
#
# Indices 1 2 3 4 5 6 
#
# 1 132.2094 38.1124 31.6165 0.0000 0.0000 0.0000
# 2 38.1124 50.7260 22.5577 0.0000 0.0000 0.0000
# 3 31.6165 22.5577 87.7948 0.0000 0.0000 0.0000
# 4 0.0000 0.0000 0.0000 7.1711 0.0000 0.0000
# 5 0.0000 0.0000 0.0000 0.0000 18.0619 0.0000
# 6 0.0000 0.0000 0.0000 0.0000 0.0000 26.1881
#
#
#
# Elastic Compliance Matrix: (Units=1/GPa)
#
#
# Indices 1 2 3 4 5 6 
#
# 1 0.009920 -0.006621 -0.001871 0.000000 0.000000 0.000000
# 2 -0.006621 0.026676 -0.004470 0.000000 0.000000 0.000000
# 3 -0.001871 -0.004470 0.013212 0.000000 0.000000 0.000000
# 4 0.000000 0.000000 0.000000 0.139449 0.000000 0.000000
# 5 0.000000 0.000000 0.000000 0.000000 0.055365 0.000000
# 6 0.000000 0.000000 0.000000 0.000000 0.000000 0.038185
#
#
# Mechanical properties :
#
#
# Convention : Reuss Voigt Hill
#
# Bulk Modulus (GPa) = 41.86799 50.58929 46.22864
# Shear Modulus (GPa) = 15.78813 22.18046 18.98429
#
# Velocity S-wave (km/s) = 2.97510 3.52631 3.26237
# Velocity P-wave (km/s) = 5.93917 6.70383 6.33305
#
# Compressibility (1/GPa) = 0.02388459
#
# Stress axis : x y z
#
# Youngs Moduli (GPa) = 100.80732 37.48669 75.68619
#
# Poissons Ratio (x) = 0.24820 0.14162
# Poissons Ratio (y) = 0.66746 0.33829
# Poissons Ratio (z) = 0.18862 0.16755
#
# Static dielectric constant tensor:
#      x y z
#    x 1.662360 0.000000 0.000000 
#    y 0.000000 1.629390 0.000000 
#    z 0.000000 0.000000 1.618630 
# 
# From -- ./inp_files/49361.got.cif
#   From: 2010.05.17/outbox.cif.g08.bks.cpg/sg72_25_cif.got.tgz:49361.got - 2010.06.03 17:03:01.
