data_PCOD9525439
_publ_section_title
;
Structure prediction by ZEFSAII (Michael W. Deem and Ramdas Pophale) SiO2 
 PCOD9525439
Probable space group: I B A M
;
_chemical_formula_sum "Si O2"
_cell_formula_units_Z 104
_cell_length_a 26.932017
_cell_length_b 20.652780
_cell_length_c 9.615776
_cell_angle_alpha 90.000000
_cell_angle_beta 90.000000
_cell_angle_gamma 90.000000
_cell_volume 5348.496755
_symmetry_space_group_name_H-M "I B A M"
_symmetry_group_IT_number 72
_symmetry_cell_setting 'orthorhombic'
loop_
_space_group_symop_operation_xyz
x,y,z
-x,-y,z
x,-y,1/2-z
-x,y,1/2-z
-x,-y,-z
x,y,-z
-x,y,1/2+z
x,-y,1/2+z
1/2+x,1/2+y,1/2+z
1/2-x,1/2-y,1/2+z
1/2+x,1/2-y,-z
1/2-x,1/2+y,-z
1/2-x,1/2-y,1/2-z
1/2+x,1/2+y,1/2-z
1/2-x,1/2+y,z
1/2+x,1/2-y,z
loop_
_atom_site_type_symbol
_atom_site_label
_atom_site_fract_x
_atom_site_fract_y
_atom_site_fract_z
Si Si1 0.648798 0.500000 0.250000
Si Si2 0.454119 0.722999 0.160544
Si Si3 0.853766 0.691925 0.163211
Si Si4 0.592873 0.377096 0.349556
Si Si5 0.304338 0.702805 0.343413
Si Si6 0.732226 0.404937 0.849203
Si Si7 0.845578 0.438089 0.838134
O O1 0.613629 0.448951 0.326901
O O2 0.687011 0.455581 0.162664
O O3 0.500000 0.749024 0.250000
O O4 0.405898 0.769159 0.169199
O O5 0.439353 0.653731 0.227319
O O6 0.467379 0.716960 0.000000
O O7 0.813284 0.737681 0.239521
O O8 0.858422 0.626830 0.253323
O O9 0.842159 0.680229 0.000000
O O10 0.567806 0.372253 0.500000
O O11 0.641878 0.331999 0.353551
O O12 0.289337 0.721332 0.500000
O O13 0.271848 0.646665 0.273787
O O14 0.785335 0.439009 0.843175
O O15 0.727817 0.371724 0.000000
O O16 0.862917 0.500000 0.750000
O O17 0.862300 0.437172 0.000000
#
# Coordination Sequence:
#
# PCOD9525439 Si02
#       7
#     8  16  16  16  16  16  16
#     4  10  18  32  53  78 110 154 201 238 270 318
#     4  10  21  38  62  87 111 138 175 225 282 343
#     4  10  21  38  59  83 111 143 179 225 280 336
#     4   9  18  31  51  79 111 146 185 230 278 326
#     4   9  18  32  52  78 107 143 187 233 279 325
#     4  10  20  33  51  76 108 149 196 238 275 318
#     4  11  23  38  56  80 112 150 189 230 275 328
#
# _framework density 19.444716
#
# number of rings (size 3 to 8) (size 9 to 14) (size 15 to 20)
#    0.000    2.154    0.769    2.308    0.000    8.615 
#    0.000    0.385    0.000    2.308    0.000    3.231 
#    0.000    0.000    0.000    0.000    0.000    0.000 
#
# Total GULP energy -290125.163465 kJ/mol
# GULP energy per Si atom -5579.330067 kJ/mol
# Density = 1.940046 g / cm^3
# Si number density = 19.444716 Si / 1000 Ang^3
#
#
#
# Elastic Constant Matrix: (Units=GPa)
#
#
# Indices 1 2 3 4 5 6 
#
# 1 27.6318 5.2277 20.2245 0.0000 0.0000 0.0000
# 2 5.2277 115.3791 67.3213 0.0000 0.0000 0.0000
# 3 20.2245 67.3213 188.3711 0.0000 0.0000 0.0000
# 4 0.0000 0.0000 0.0000 22.7767 0.0000 0.0000
# 5 0.0000 0.0000 0.0000 0.0000 23.2783 0.0000
# 6 0.0000 0.0000 0.0000 0.0000 0.0000 17.7421
#
#
#
# Elastic Compliance Matrix: (Units=1/GPa)
#
#
# Indices 1 2 3 4 5 6 
#
# 1 0.039344 0.000862 -0.004532 0.000000 0.000000 0.000000
# 2 0.000862 0.010969 -0.004013 0.000000 0.000000 0.000000
# 3 -0.004532 -0.004013 0.007229 0.000000 0.000000 0.000000
# 4 0.000000 0.000000 0.000000 0.043904 0.000000 0.000000
# 5 0.000000 0.000000 0.000000 0.000000 0.042958 0.000000
# 6 0.000000 0.000000 0.000000 0.000000 0.000000 0.056363
#
#
# Mechanical properties :
#
#
# Convention : Reuss Voigt Hill
#
# Bulk Modulus (GPa) = 23.70975 57.43653 40.57314
# Shear Modulus (GPa) = 21.72073 28.66666 25.19369
#
# Velocity S-wave (km/s) = 3.34586 3.84378 3.60343
# Velocity P-wave (km/s) = 5.21020 7.02154 6.18257
#
# Compressibility (1/GPa) = 0.04217674
#
# Stress axis : x y z
#
# Youngs Moduli (GPa) = 25.41658 91.16220 138.32378
#
# Poissons Ratio (x) = -0.07856 0.62691
# Poissons Ratio (y) = -0.02190 0.55507
# Poissons Ratio (z) = 0.11519 0.36582
#
# Static dielectric constant tensor:
#      x y z
#    x 1.687770 0.000000 0.000000 
#    y 0.000000 1.668680 0.000000 
#    z 0.000000 0.000000 1.697430 
# 
# From -- ./inp_files/6144.got.cif
#   From: 2010.05.17/outbox.cif.g08.bks.cpg/sg72_4_cif.got.tgz:6144.got - 2010.06.03 17:03:01.
