data_PCOD9525455
_publ_section_title
;
Structure prediction by ZEFSAII (Michael W. Deem and Ramdas Pophale) SiO2 
 PCOD9525455
Probable space group: I B A M
;
_chemical_formula_sum "Si O2"
_cell_formula_units_Z 112
_cell_length_a 18.326113
_cell_length_b 19.495061
_cell_length_c 15.420422
_cell_angle_alpha 90.000000
_cell_angle_beta 90.000000
_cell_angle_gamma 90.000000
_cell_volume 5509.233980
_symmetry_space_group_name_H-M "I B A M"
_symmetry_group_IT_number 72
_symmetry_cell_setting 'orthorhombic'
loop_
_space_group_symop_operation_xyz
x,y,z
-x,-y,z
x,-y,1/2-z
-x,y,1/2-z
-x,-y,-z
x,y,-z
-x,y,1/2+z
x,-y,1/2+z
1/2+x,1/2+y,1/2+z
1/2-x,1/2-y,1/2+z
1/2+x,1/2-y,-z
1/2-x,1/2+y,-z
1/2-x,1/2-y,1/2-z
1/2+x,1/2+y,1/2-z
1/2-x,1/2+y,z
1/2+x,1/2-y,z
loop_
_atom_site_type_symbol
_atom_site_label
_atom_site_fract_x
_atom_site_fract_y
_atom_site_fract_z
Si Si1 0.307913 0.525126 0.151466
Si Si2 0.355625 0.036414 0.156017
Si Si3 0.784633 0.126735 0.099991
Si Si4 0.625332 0.889139 0.401230
Si Si5 0.462675 0.428804 0.395400
Si Si6 0.531987 0.847439 0.106039
Si Si7 0.069297 0.192055 0.393793
O O1 0.312792 0.500000 0.250000
O O2 0.228159 0.557747 0.138464
O O3 0.307888 0.453199 0.099779
O O4 0.377970 0.569985 0.129980
O O5 0.411239 0.097830 0.143499
O O6 0.359130 0.000000 0.250000
O O7 0.375185 0.971650 0.096074
O O8 0.703525 0.130729 0.140240
O O9 0.851171 0.168837 0.139459
O O10 0.777768 0.148466 0.000000
O O11 0.625815 0.862978 0.500000
O O12 0.549879 0.863846 0.361915
O O13 0.500000 0.500000 0.364914
O O14 0.465765 0.429355 0.500000
O O15 0.509212 0.363560 0.365085
O O16 0.551431 0.769689 0.129139
O O17 0.533886 0.853978 0.000000
O O18 0.070822 0.188488 0.500000
#
# Coordination Sequence:
#
# PCOD9525455 Si02
#       7
#    16  16  16  16  16  16  16
#     4  10  20  33  53  80 110 139 185 235 274 320
#     4  10  21  36  56  77 107 144 184 226 274 329
#     4   9  16  32  55  76 103 143 180 218 275 333
#     4   9  18  32  55  79 101 134 179 226 274 329
#     4  10  18  32  56  81 106 143 188 230 273 325
#     4  10  20  35  54  83 113 138 179 234 284 330
#     4   9  18  33  53  78 111 144 177 225 281 338
#
# _framework density 20.329505000000001
#
# number of rings (size 3 to 8) (size 9 to 14) (size 15 to 20)
#    0.000    2.429    1.429    1.286    0.000    4.286 
#    2.571    0.000    6.286    2.571    0.000    0.000 
#    0.000    0.000    0.000    0.000    0.000    0.000 
#
# Total GULP energy -312380.561593 kJ/mol
# GULP energy per Si atom -5578.224314 kJ/mol
# Density = 2.028323 g / cm^3
# Si number density = 20.329505 Si / 1000 Ang^3
#
#
#
# Elastic Constant Matrix: (Units=GPa)
#
#
# Indices 1 2 3 4 5 6 
#
# 1 246.9135 126.1794 11.9689 0.0000 0.0000 0.0000
# 2 126.1794 123.2347 8.9263 0.0000 0.0000 0.0000
# 3 11.9689 8.9263 29.1060 0.0000 0.0000 0.0000
# 4 0.0000 0.0000 0.0000 1.7901 0.0000 0.0000
# 5 0.0000 0.0000 0.0000 0.0000 22.8216 0.0000
# 6 0.0000 0.0000 0.0000 0.0000 0.0000 18.5114
#
#
#
# Elastic Compliance Matrix: (Units=1/GPa)
#
#
# Indices 1 2 3 4 5 6 
#
# 1 0.008515 -0.008657 -0.000847 0.000000 0.000000 0.000000
# 2 -0.008657 0.017101 -0.001684 0.000000 0.000000 0.000000
# 3 -0.000847 -0.001684 0.035222 0.000000 0.000000 0.000000
# 4 0.000000 0.000000 0.000000 0.558626 0.000000 0.000000
# 5 0.000000 0.000000 0.000000 0.000000 0.043818 0.000000
# 6 0.000000 0.000000 0.000000 0.000000 0.000000 0.054021
#
#
# Mechanical properties :
#
#
# Convention : Reuss Voigt Hill
#
# Bulk Modulus (GPa) = 26.00024 77.04483 51.52253
# Shear Modulus (GPa) = 6.64452 25.43659 16.04056
#
# Velocity S-wave (km/s) = 1.80984 3.54109 2.81201
# Velocity P-wave (km/s) = 4.14542 7.39590 5.99516
#
# Compressibility (1/GPa) = 0.03846118
#
# Stress axis : x y z
#
# Youngs Moduli (GPa) = 117.43775 58.47686 28.39142
#
# Poissons Ratio (x) = 0.50625 0.02403
# Poissons Ratio (y) = 1.01669 0.04783
# Poissons Ratio (z) = 0.09942 0.09850
#
# Static dielectric constant tensor:
#      x y z
#    x 1.751550 0.000000 0.000000 
#    y 0.000000 1.674040 0.000000 
#    z 0.000000 0.000000 1.833840 
# 
# From -- ./inp_files/31884.got.cif
#   From: 2010.05.17/outbox.cif.g08.bks.cpg/sg72_16_cif.got.tgz:31884.got - 2010.06.03 17:03:01.
