data_PCOD9525351
_publ_section_title
;
Structure prediction by ZEFSAII (Michael W. Deem and Ramdas Pophale) SiO2 
 PCOD9525351
Probable space group: I B A M
;
_chemical_formula_sum "Si O2"
_cell_formula_units_Z 128
_cell_length_a 19.280616
_cell_length_b 23.323989
_cell_length_c 17.864460
_cell_angle_alpha 90.000000
_cell_angle_beta 90.000000
_cell_angle_gamma 90.000000
_cell_volume 8033.663302
_symmetry_space_group_name_H-M "I B A M"
_symmetry_group_IT_number 72
_symmetry_cell_setting 'orthorhombic'
loop_
_space_group_symop_operation_xyz
x,y,z
-x,-y,z
x,-y,1/2-z
-x,y,1/2-z
-x,-y,-z
x,y,-z
-x,y,1/2+z
x,-y,1/2+z
1/2+x,1/2+y,1/2+z
1/2-x,1/2-y,1/2+z
1/2+x,1/2-y,-z
1/2-x,1/2+y,-z
1/2-x,1/2-y,1/2-z
1/2+x,1/2+y,1/2-z
1/2-x,1/2+y,z
1/2+x,1/2-y,z
loop_
_atom_site_type_symbol
_atom_site_label
_atom_site_fract_x
_atom_site_fract_y
_atom_site_fract_z
Si Si1 0.124515 0.072119 0.827453
Si Si2 0.357957 0.442812 0.849179
Si Si3 0.750894 0.858409 0.411403
Si Si4 0.007908 0.117319 0.413180
Si Si5 0.972061 0.253581 0.910863
Si Si6 0.669428 0.742874 0.164758
Si Si7 0.620473 0.789816 0.589811
Si Si8 0.306778 0.310450 0.323824
O O1 0.122700 0.065753 0.737774
O O2 0.050346 0.090653 0.860025
O O3 0.177195 0.124209 0.842241
O O4 0.144826 0.010840 0.861653
O O5 0.286548 0.410721 0.868535
O O6 0.418586 0.412518 0.896624
O O7 0.750563 0.869498 0.500000
O O8 0.798631 0.802720 0.394059
O O9 0.673614 0.839776 0.385657
O O10 0.988975 0.108471 0.500000
O O11 0.013370 0.185579 0.400240
O O12 0.903127 0.265988 0.864511
O O13 0.040299 0.288722 0.886574
O O14 0.960843 0.262330 0.000000
O O15 0.663732 0.707540 0.242220
O O16 0.726443 0.792250 0.176671
O O17 0.620894 0.789952 0.500000
O O18 0.654360 0.730927 0.618242
#
# Coordination Sequence:
#
# PCOD9525351 Si02
#       8
#    16  16  16  16  16  16  16  16
#     4  11  22  35  48  68 101 134 169 208 249 293
#     4  11  22  34  50  68  95 139 174 204 245 290
#     4  10  18  32  51  72  96 127 169 209 242 291
#     4  11  21  33  48  69  99 134 173 209 239 287
#     4  10  18  31  49  72 100 131 162 199 251 300
#     4  10  19  30  51  75  97 128 164 204 251 303
#     4   9  19  32  49  72 100 129 160 203 254 295
#     4  10  19  33  49  70 101 129 162 206 253 298
#
# _framework density 15.932956000000001
#
# number of rings (size 3 to 8) (size 9 to 14) (size 15 to 20)
#    0.000    1.750    3.750    1.500    0.000    3.500 
#    0.000    0.000    0.000    0.000    0.000    0.875 
#    0.000    5.000    0.000    0.000    0.000    0.000 
#
# Total GULP energy -356994.578884 kJ/mol
# GULP energy per Si atom -5578.040295 kJ/mol
# Density = 1.589669 g / cm^3
# Si number density = 15.932956 Si / 1000 Ang^3
#
#
#
# Elastic Constant Matrix: (Units=GPa)
#
#
# Indices 1 2 3 4 5 6 
#
# 1 125.3076 42.9092 33.7924 0.0000 0.0000 0.0000
# 2 42.9092 64.3039 17.2093 0.0000 0.0000 0.0000
# 3 33.7924 17.2093 28.9489 0.0000 0.0000 0.0000
# 4 0.0000 0.0000 0.0000 14.6587 0.0000 0.0000
# 5 0.0000 0.0000 0.0000 0.0000 23.5318 0.0000
# 6 0.0000 0.0000 0.0000 0.0000 0.0000 13.7568
#
#
#
# Elastic Compliance Matrix: (Units=1/GPa)
#
#
# Indices 1 2 3 4 5 6 
#
# 1 0.013118 -0.005536 -0.012022 0.000000 0.000000 0.000000
# 2 -0.005536 0.020830 -0.005920 0.000000 0.000000 0.000000
# 3 -0.012022 -0.005920 0.052096 0.000000 0.000000 0.000000
# 4 0.000000 0.000000 0.000000 0.068219 0.000000 0.000000
# 5 0.000000 0.000000 0.000000 0.000000 0.042496 0.000000
# 6 0.000000 0.000000 0.000000 0.000000 0.000000 0.072691
#
#
# Mechanical properties :
#
#
# Convention : Reuss Voigt Hill
#
# Bulk Modulus (GPa) = 25.58350 45.15357 35.36854
# Shear Modulus (GPa) = 15.17747 18.69943 16.93845
#
# Velocity S-wave (km/s) = 3.08974 3.42955 3.26407
# Velocity P-wave (km/s) = 5.36847 6.63955 6.03756
#
# Compressibility (1/GPa) = 0.03908769
#
# Stress axis : x y z
#
# Youngs Moduli (GPa) = 76.23037 48.00819 19.19523
#
# Poissons Ratio (x) = 0.26578 0.23076
# Poissons Ratio (y) = 0.42203 0.11364
# Poissons Ratio (z) = 0.91643 0.28422
#
# Static dielectric constant tensor:
#      x y z
#    x 1.547890 0.000000 0.000000 
#    y 0.000000 1.521750 0.000000 
#    z 0.000000 0.000000 1.551880 
# 
# From -- ./inp_files/32063.got.cif
#   From: 2010.05.17/outbox.cif.g08.bks.cpg/sg72_17_cif.got.tgz:32063.got - 2010.06.03 17:03:01.
