data_PCOD9525900
_publ_section_title
;
Structure prediction by ZEFSAII (Michael W. Deem and Ramdas Pophale) SiO2 
 PCOD9525900
Probable space group: I B A M
;
_chemical_formula_sum "Si O2"
_cell_formula_units_Z 104
_cell_length_a 15.764599
_cell_length_b 21.709599
_cell_length_c 15.181535
_cell_angle_alpha 90.000000
_cell_angle_beta 90.000000
_cell_angle_gamma 90.000000
_cell_volume 5195.775946
_symmetry_space_group_name_H-M "I B A M"
_symmetry_group_IT_number 72
_symmetry_cell_setting 'orthorhombic'
loop_
_space_group_symop_operation_xyz
x,y,z
-x,-y,z
x,-y,1/2-z
-x,y,1/2-z
-x,-y,-z
x,y,-z
-x,y,1/2+z
x,-y,1/2+z
1/2+x,1/2+y,1/2+z
1/2-x,1/2-y,1/2+z
1/2+x,1/2-y,-z
1/2-x,1/2+y,-z
1/2-x,1/2-y,1/2-z
1/2+x,1/2+y,1/2-z
1/2-x,1/2+y,z
1/2+x,1/2-y,z
loop_
_atom_site_type_symbol
_atom_site_label
_atom_site_fract_x
_atom_site_fract_y
_atom_site_fract_z
Si Si1 0.386421 0.273583 0.398501
Si Si2 0.235191 0.500000 0.750000
Si Si3 0.156479 0.332781 0.595064
Si Si4 0.521944 0.150145 0.148510
Si Si5 0.094621 0.526124 0.602849
Si Si6 0.803541 0.131056 0.723482
Si Si7 0.706378 0.701654 0.903530
O O1 0.405249 0.289902 0.500000
O O2 0.448996 0.220126 0.365838
O O3 0.373073 0.333177 0.336463
O O4 0.296188 0.237324 0.397006
O O5 0.170117 0.504814 0.666904
O O6 0.295842 0.558307 0.766260
O O7 0.198171 0.345679 0.500000
O O8 0.214749 0.351616 0.675652
O O9 0.142521 0.259425 0.600537
O O10 0.065503 0.363312 0.598654
O O11 0.500000 0.140303 0.250000
O O12 0.589078 0.100212 0.115565
O O13 0.109554 0.511449 0.500000
O O14 0.000000 0.500000 0.627081
O O15 0.806087 0.159171 0.820607
O O16 0.700961 0.671964 0.000000
#
# Coordination Sequence:
#
# PCOD9525900 Si02
#       7
#    16   8  16  16  16  16  16
#     4  10  20  34  53  77 107 141 178 224 276 325
#     4  12  25  36  52  74 101 144 200 234 264 324
#     4  10  19  32  54  81 108 136 168 209 262 326
#     4  12  21  33  55  83 114 145 180 220 268 328
#     4  11  23  37  52  75 114 156 188 223 268 325
#     4  11  21  36  52  73 105 143 182 227 275 319
#     4   9  18  33  52  75 102 133 170 216 272 325
#
# _framework density 20.016259999999999
#
# number of rings (size 3 to 8) (size 9 to 14) (size 15 to 20)
#    0.000    1.385    0.000   10.385    0.000    4.308 
#    0.000    0.000    0.000    0.000    0.000    4.846 
#    0.000    7.385    0.000    0.000    0.000    0.000 
#
# Total GULP energy -290360.560097 kJ/mol
# GULP energy per Si atom -5583.856925 kJ/mol
# Density = 1.997070 g / cm^3
# Si number density = 20.016260 Si / 1000 Ang^3
#
#
#
# Elastic Constant Matrix: (Units=GPa)
#
#
# Indices 1 2 3 4 5 6 
#
# 1 12.9623 5.2127 0.2851 0.0002 0.0000 0.0000
# 2 5.2127 113.8887 55.5618 0.0007 0.0000 0.0000
# 3 0.2851 55.5618 150.9549 0.0015 -0.0001 0.0000
# 4 0.0002 0.0007 0.0015 -424.4708 0.0001 0.0000
# 5 0.0000 0.0000 -0.0001 0.0001 6.8247 0.0000
# 6 0.0000 0.0000 0.0000 0.0000 0.0000 30.1788
#
#
#
# Elastic Compliance Matrix: (Units=1/GPa)
#
#
# Indices 1 2 3 4 5 6 
#
# 1 0.078849 -0.004310 0.001438 0.000000 0.000000 0.000000
# 2 -0.004310 0.010938 -0.004018 0.000000 0.000000 0.000000
# 3 0.001438 -0.004018 0.008101 0.000000 0.000000 0.000000
# 4 0.000000 0.000000 0.000000 -0.002356 0.000000 0.000000
# 5 0.000000 0.000000 0.000000 0.000000 0.146526 0.000000
# 6 0.000000 0.000000 0.000000 0.000000 0.000000 0.033136
#
#
# Mechanical properties :
#
#
# Convention : Reuss Voigt Hill
#
# Bulk Modulus (GPa) = 11.88974 44.43612 28.16293
# Shear Modulus (GPa) = 15.77239 -63.04370 -23.63566
#
# Velocity S-wave (km/s) = 2.81014 -5.61824 -3.44004
# Velocity P-wave (km/s) = 4.05982 4.45398 1.29534
#
# Compressibility (1/GPa) = 0.08410611
#
# Stress axis : x y z
#
# Youngs Moduli (GPa) = 12.68254 91.42528 123.44776
#
# Poissons Ratio (x) = 0.39407 -0.17746
# Poissons Ratio (y) = 0.05467 0.49598
# Poissons Ratio (z) = -0.01823 0.36732
#
# Static dielectric constant tensor:
#      x y z
#    x 1.726280 0.000000 0.000000 
#    y 0.000000 1.753470 0.000000 
#    z 0.000000 0.000000 1.685640 
# 
# From -- ./inp_files/23395.got.cif
#   From: 2010.05.17/outbox.cif.g08.bks.cpg/sg72_12_cif.got.tgz:23395.got - 2010.06.03 17:03:01.
