data_PCOD9525568
_publ_section_title
;
Structure prediction by ZEFSAII (Michael W. Deem and Ramdas Pophale) SiO2 
 PCOD9525568
Probable space group: I B A M
;
_chemical_formula_sum "Si O2"
_cell_formula_units_Z 112
_cell_length_a 32.787795
_cell_length_b 12.108075
_cell_length_c 15.148295
_cell_angle_alpha 90.000000
_cell_angle_beta 90.000000
_cell_angle_gamma 90.000000
_cell_volume 6013.828896
_symmetry_space_group_name_H-M "I B A M"
_symmetry_group_IT_number 72
_symmetry_cell_setting 'orthorhombic'
loop_
_space_group_symop_operation_xyz
x,y,z
-x,-y,z
x,-y,1/2-z
-x,y,1/2-z
-x,-y,-z
x,y,-z
-x,y,1/2+z
x,-y,1/2+z
1/2+x,1/2+y,1/2+z
1/2-x,1/2-y,1/2+z
1/2+x,1/2-y,-z
1/2-x,1/2+y,-z
1/2-x,1/2-y,1/2-z
1/2+x,1/2+y,1/2-z
1/2-x,1/2+y,z
1/2+x,1/2-y,z
loop_
_atom_site_type_symbol
_atom_site_label
_atom_site_fract_x
_atom_site_fract_y
_atom_site_fract_z
Si Si1 0.325510 0.366243 0.107162
Si Si2 0.952072 0.632713 0.754483
Si Si3 0.837110 0.511095 0.645740
Si Si4 0.397044 0.210274 0.899519
Si Si5 0.267097 0.829118 0.393322
Si Si6 0.322514 0.618009 0.108013
Si Si7 0.885995 0.703023 0.897736
O O1 0.369516 0.314509 0.126471
O O2 0.291985 0.277945 0.139364
O O3 0.322222 0.491234 0.137630
O O4 0.321843 0.367703 0.000000
O O5 0.947544 0.500000 0.750000
O O6 0.932194 0.686394 0.668536
O O7 0.924742 0.672708 0.837398
O O8 0.000000 0.657718 0.750000
O O9 0.843737 0.500000 0.750000
O O10 0.866238 0.606106 0.606741
O O11 0.791802 0.558823 0.630185
O O12 0.852377 0.395722 0.606475
O O13 0.410989 0.221756 0.000000
O O14 0.267076 0.825092 0.500000
O O15 0.220501 0.830080 0.363473
O O16 0.361451 0.689520 0.135783
O O17 0.323210 0.619468 0.000000
O O18 0.898016 0.717105 0.000000
#
# Coordination Sequence:
#
# PCOD9525568 Si02
#       7
#    16  16  16  16  16  16  16
#     4   8  16  31  51  77 108 147 195 234 270 324
#     4  11  23  39  59  88 119 141 176 238 295 353
#     4  11  19  33  53  78 114 151 190 234 278 329
#     4  10  18  35  60  80 106 150 188 223 279 343
#     4   9  18  31  52  79 109 152 200 240 275 322
#     4   9  19  33  53  82 114 152 196 239 282 328
#     4  11  21  36  58  83 116 157 187 228 290 348
#
# _framework density 18.623743000000001
#
# number of rings (size 3 to 8) (size 9 to 14) (size 15 to 20)
#    0.000    2.143    2.857    2.143    2.000    0.571 
#    0.000    4.286    0.000    1.714    0.000    4.000 
#    0.000    0.000    0.000    0.000    0.000    0.000 
#
# Total GULP energy -312508.281520 kJ/mol
# GULP energy per Si atom -5580.505027 kJ/mol
# Density = 1.858135 g / cm^3
# Si number density = 18.623743 Si / 1000 Ang^3
#
#
#
# Elastic Constant Matrix: (Units=GPa)
#
#
# Indices 1 2 3 4 5 6 
#
# 1 141.1425 61.1827 57.6100 0.0000 0.0000 0.0000
# 2 61.1827 101.7702 18.9126 0.0000 0.0000 0.0000
# 3 57.6100 18.9126 85.8717 0.0000 0.0000 0.0000
# 4 0.0000 0.0000 0.0000 0.0115 0.0000 0.0000
# 5 0.0000 0.0000 0.0000 0.0000 25.8591 0.0000
# 6 0.0000 0.0000 0.0000 0.0000 0.0000 27.8768
#
#
#
# Elastic Compliance Matrix: (Units=1/GPa)
#
#
# Indices 1 2 3 4 5 6 
#
# 1 0.012755 -0.006337 -0.007162 0.000000 0.000000 0.000000
# 2 -0.006337 0.013394 0.001302 0.000000 0.000000 0.000000
# 3 -0.007162 0.001302 0.016163 0.000000 0.000000 0.000000
# 4 0.000000 0.000000 0.000000 86.674537 0.000000 0.000000
# 5 0.000000 0.000000 0.000000 0.000000 0.038671 0.000000
# 6 0.000000 0.000000 0.000000 0.000000 0.000000 0.035872
#
#
# Mechanical properties :
#
#
# Convention : Reuss Voigt Hill
#
# Bulk Modulus (GPa) = 55.80958 67.13274 61.47116
# Shear Modulus (GPa) = 0.05759 23.48810 11.77284
#
# Velocity S-wave (km/s) = 0.17604 3.55518 2.51697
# Velocity P-wave (km/s) = 5.48391 7.27856 6.44402
#
# Compressibility (1/GPa) = 0.01791807
#
# Stress axis : x y z
#
# Youngs Moduli (GPa) = 78.39856 74.65967 61.86898
#
# Poissons Ratio (x) = 0.47315 0.44308
# Poissons Ratio (y) = 0.49685 -0.08054
# Poissons Ratio (z) = 0.56146 -0.09719
#
# Static dielectric constant tensor:
#      x y z
#    x 1.627310 0.000000 0.000000 
#    y 0.000000 1.652610 0.000000 
#    z 0.000000 0.000000 1.667960 
# 
# From -- ./inp_files/26363.got.cif
#   From: 2010.05.17/outbox.cif.g08.bks.cpg/sg72_14_cif.got.tgz:26363.got - 2010.06.03 17:03:01.
