data_PCOD9525016
_publ_section_title
;
Structure prediction by ZEFSAII (Michael W. Deem and Ramdas Pophale) SiO2 
 PCOD9525016
Probable space group: I B A M
;
_chemical_formula_sum "Si O2"
_cell_formula_units_Z 80
_cell_length_a 38.286506
_cell_length_b 19.090809
_cell_length_c 8.579999
_cell_angle_alpha 90.000000
_cell_angle_beta 90.000000
_cell_angle_gamma 90.000000
_cell_volume 6271.296072
_symmetry_space_group_name_H-M "I B A M"
_symmetry_group_IT_number 72
_symmetry_cell_setting 'orthorhombic'
loop_
_space_group_symop_operation_xyz
x,y,z
-x,-y,z
x,-y,1/2-z
-x,y,1/2-z
-x,-y,-z
x,y,-z
-x,y,1/2+z
x,-y,1/2+z
1/2+x,1/2+y,1/2+z
1/2-x,1/2-y,1/2+z
1/2+x,1/2-y,-z
1/2-x,1/2+y,-z
1/2-x,1/2-y,1/2-z
1/2+x,1/2+y,1/2-z
1/2-x,1/2+y,z
1/2+x,1/2-y,z
loop_
_atom_site_type_symbol
_atom_site_label
_atom_site_fract_x
_atom_site_fract_y
_atom_site_fract_z
Si Si1 0.390793 0.579278 0.814230
Si Si2 0.284358 0.788851 0.687365
Si Si3 0.963972 0.079834 0.185947
Si Si4 0.676963 0.655994 0.187758
Si Si5 0.246266 0.922084 0.312341
O O1 0.386267 0.500000 0.750000
O O2 0.427225 0.609177 0.746627
O O3 0.357848 0.624488 0.760819
O O4 0.393076 0.575676 0.000000
O O5 0.283797 0.787447 0.500000
O O6 0.250000 0.750000 0.750000
O O7 0.315696 0.737159 0.734839
O O8 0.277969 0.869371 0.733793
O O9 0.000000 0.112194 0.250000
O O10 0.963628 0.000000 0.250000
O O11 0.964673 0.078488 0.000000
O O12 0.710409 0.610917 0.244793
O O13 0.675085 0.651455 0.000000
O O14 0.243530 0.923065 0.500000
O O15 0.251024 0.000000 0.250000
#
# Coordination Sequence:
#
# PCOD9525016 Si02
#       5
#    16  16  16  16  16
#     4  11  20  29  39  54  73  95 122 154 186 219
#     4   8  16  28  41  53  69  91 118 147 181 220
#     4  10  17  27  40  54  71  93 119 149 181 215
#     4  10  18  29  41  54  71  94 120 152 188 222
#     4  10  18  28  40  56  73  93 119 151 185 221
#
# _framework density 12.756532999999999
#
# number of rings (size 3 to 8) (size 9 to 14) (size 15 to 20)
#    0.000    2.200    0.000    7.200    0.000    1.600 
#    0.000    0.000    0.000    0.000    0.000    0.000 
#    0.000    0.000    0.000    0.000    0.000    1.000 
#
# Total GULP energy -222731.732566 kJ/mol
# GULP energy per Si atom -5568.293314 kJ/mol
# Density = 1.272750 g / cm^3
# Si number density = 12.756533 Si / 1000 Ang^3
#
#
#
# Elastic Constant Matrix: (Units=GPa)
#
#
# Indices 1 2 3 4 5 6 
#
# 1 98.2331 47.8120 38.2572 0.0000 0.0000 0.0000
# 2 47.8120 79.1767 26.6372 0.0000 0.0000 0.0000
# 3 38.2572 26.6372 84.9546 0.0000 0.0000 0.0000
# 4 0.0000 0.0000 0.0000 10.2406 0.0000 0.0000
# 5 0.0000 0.0000 0.0000 0.0000 26.1378 0.0000
# 6 0.0000 0.0000 0.0000 0.0000 0.0000 13.1669
#
#
#
# Elastic Compliance Matrix: (Units=1/GPa)
#
#
# Indices 1 2 3 4 5 6 
#
# 1 0.015900 -0.008041 -0.004639 0.000000 0.000000 0.000000
# 2 -0.008041 0.018186 -0.002081 0.000000 0.000000 0.000000
# 3 -0.004639 -0.002081 0.014513 0.000000 0.000000 0.000000
# 4 0.000000 0.000000 0.000000 0.097650 0.000000 0.000000
# 5 0.000000 0.000000 0.000000 0.000000 0.038259 0.000000
# 6 0.000000 0.000000 0.000000 0.000000 0.000000 0.075948
#
#
# Mechanical properties :
#
#
# Convention : Reuss Voigt Hill
#
# Bulk Modulus (GPa) = 52.42052 54.19748 53.30900
# Shear Modulus (GPa) = 16.87272 19.88626 18.37949
#
# Velocity S-wave (km/s) = 3.64080 3.95258 3.79989
# Velocity P-wave (km/s) = 7.67178 7.96297 7.81873
#
# Compressibility (1/GPa) = 0.01907650
#
# Stress axis : x y z
#
# Youngs Moduli (GPa) = 62.89227 54.98835 68.90559
#
# Poissons Ratio (x) = 0.44215 0.31966
# Poissons Ratio (y) = 0.50571 0.14340
# Poissons Ratio (z) = 0.29176 0.11443
#
# Static dielectric constant tensor:
#      x y z
#    x 1.431210 0.000000 0.000000 
#    y 0.000000 1.423770 0.000000 
#    z 0.000000 0.000000 1.428830 
# 
# From -- ./inp_files/9102.got.cif
#   From: 2010.05.17/outbox.cif.g08.bks.cpg/sg72_5_cif.got.tgz:9102.got - 2010.06.03 17:03:01.
