data_PCOD9525424
_publ_section_title
;
Structure prediction by ZEFSAII (Michael W. Deem and Ramdas Pophale) SiO2 
 PCOD9525424
Probable space group: I B A M
;
_chemical_formula_sum "Si O2"
_cell_formula_units_Z 80
_cell_length_a 8.763772
_cell_length_b 29.690342
_cell_length_c 16.469925
_cell_angle_alpha 90.000000
_cell_angle_beta 90.000000
_cell_angle_gamma 90.000000
_cell_volume 4285.464404
_symmetry_space_group_name_H-M "I B A M"
_symmetry_group_IT_number 72
_symmetry_cell_setting 'orthorhombic'
loop_
_space_group_symop_operation_xyz
x,y,z
-x,-y,z
x,-y,1/2-z
-x,y,1/2-z
-x,-y,-z
x,y,-z
-x,y,1/2+z
x,-y,1/2+z
1/2+x,1/2+y,1/2+z
1/2-x,1/2-y,1/2+z
1/2+x,1/2-y,-z
1/2-x,1/2+y,-z
1/2-x,1/2-y,1/2-z
1/2+x,1/2+y,1/2-z
1/2-x,1/2+y,z
1/2+x,1/2-y,z
loop_
_atom_site_type_symbol
_atom_site_label
_atom_site_fract_x
_atom_site_fract_y
_atom_site_fract_z
Si Si1 0.392792 0.876598 0.827900
Si Si2 0.201734 0.794874 0.901001
Si Si3 0.652066 0.700232 0.401612
Si Si4 0.696749 0.106234 0.593583
Si Si5 0.680472 0.447277 0.760328
O O1 0.500000 0.866238 0.750000
O O2 0.301456 0.833726 0.860217
O O3 0.515025 0.892516 0.894608
O O4 0.277224 0.915935 0.800800
O O5 0.263576 0.745800 0.875803
O O6 0.024708 0.799741 0.877434
O O7 0.212813 0.798247 0.000000
O O8 0.655372 0.700903 0.500000
O O9 0.737049 0.654603 0.377109
O O10 0.737775 0.100343 0.500000
O O11 0.768369 0.068699 0.650750
O O12 0.713604 0.500000 0.750000
O O13 0.500000 0.439947 0.750000
#
# Coordination Sequence:
#
# PCOD9525424 Si02
#       5
#    16  16  16  16  16
#     4  10  21  35  54  80 110 145 182 227 281 331
#     4  10  18  32  52  77 109 147 186 226 270 325
#     4   9  18  31  53  80 110 145 183 225 270 317
#     4  10  20  37  59  85 113 147 189 230 270 330
#     4  10  22  42  62  81 111 147 181 229 290 338
#
# _framework density 18.667757000000002
#
# number of rings (size 3 to 8) (size 9 to 14) (size 15 to 20)
#    0.000    2.200    0.000    3.000    0.000    6.800 
#    0.000   16.000    0.000    0.000    0.000    0.000 
#    0.000    0.000    0.000    0.000    0.000    0.000 
#
# Total GULP energy -223347.268269 kJ/mol
# GULP energy per Si atom -5583.681707 kJ/mol
# Density = 1.862527 g / cm^3
# Si number density = 18.667757 Si / 1000 Ang^3
#
#
#
# Elastic Constant Matrix: (Units=GPa)
#
#
# Indices 1 2 3 4 5 6 
#
# 1 133.3249 93.4048 38.5532 0.0000 0.0000 0.0000
# 2 93.4048 167.0727 65.2880 0.0000 0.0000 0.0000
# 3 38.5532 65.2880 48.1112 0.0002 0.0000 0.0000
# 4 0.0000 0.0000 0.0002 32.3590 0.0000 0.0000
# 5 0.0000 0.0000 0.0000 0.0000 20.3643 0.0000
# 6 0.0000 0.0000 0.0000 0.0000 0.0000 34.9017
#
#
#
# Elastic Compliance Matrix: (Units=1/GPa)
#
#
# Indices 1 2 3 4 5 6 
#
# 1 0.012358 -0.006470 -0.001123 0.000000 0.000000 0.000000
# 2 -0.006470 0.016130 -0.016705 0.000000 0.000000 0.000000
# 3 -0.001123 -0.016705 0.044353 0.000000 0.000000 0.000000
# 4 0.000000 0.000000 0.000000 0.030903 0.000000 0.000000
# 5 0.000000 0.000000 0.000000 0.000000 0.049106 0.000000
# 6 0.000000 0.000000 0.000000 0.000000 0.000000 0.028652
#
#
# Mechanical properties :
#
#
# Convention : Reuss Voigt Hill
#
# Bulk Modulus (GPa) = 41.24243 82.55564 61.89904
# Shear Modulus (GPa) = 20.99253 27.60918 24.30085
#
# Velocity S-wave (km/s) = 3.35705 3.84992 3.61190
# Velocity P-wave (km/s) = 6.09649 8.00513 7.11510
#
# Compressibility (1/GPa) = 0.02424687
#
# Stress axis : x y z
#
# Youngs Moduli (GPa) = 80.91895 61.99440 22.54621
#
# Poissons Ratio (x) = 0.40112 0.02531
# Poissons Ratio (y) = 0.52357 0.37663
# Poissons Ratio (z) = 0.09084 1.03559
#
# Static dielectric constant tensor:
#      x y z
#    x 1.638440 0.000000 0.000000 
#    y 0.000000 1.609100 0.000000 
#    z 0.000000 0.000000 1.662140 
# 
# From -- ./inp_files/28091.got.cif
#   From: 2010.05.17/outbox.cif.g08.bks.cpg/sg72_15_cif.got.tgz:28091.got - 2010.06.03 17:03:01.
