data_PCOD9525386
_publ_section_title
;
Structure prediction by ZEFSAII (Michael W. Deem and Ramdas Pophale) SiO2 
 PCOD9525386
Probable space group: I B A M
;
_chemical_formula_sum "Si O2"
_cell_formula_units_Z 116
_cell_length_a 24.653954
_cell_length_b 15.799922
_cell_length_c 17.793845
_cell_angle_alpha 90.000000
_cell_angle_beta 90.000000
_cell_angle_gamma 90.000000
_cell_volume 6931.246233
_symmetry_space_group_name_H-M "I B A M"
_symmetry_group_IT_number 72
_symmetry_cell_setting 'orthorhombic'
loop_
_space_group_symop_operation_xyz
x,y,z
-x,-y,z
x,-y,1/2-z
-x,y,1/2-z
-x,-y,-z
x,y,-z
-x,y,1/2+z
x,-y,1/2+z
1/2+x,1/2+y,1/2+z
1/2-x,1/2-y,1/2+z
1/2+x,1/2-y,-z
1/2-x,1/2+y,-z
1/2-x,1/2-y,1/2-z
1/2+x,1/2+y,1/2-z
1/2-x,1/2+y,z
1/2+x,1/2-y,z
loop_
_atom_site_type_symbol
_atom_site_label
_atom_site_fract_x
_atom_site_fract_y
_atom_site_fract_z
Si Si1 0.742136 0.911263 0.793874
Si Si2 0.000000 0.000000 0.250000
Si Si3 0.168056 0.149050 0.307814
Si Si4 0.046706 0.715436 0.688664
Si Si5 0.410324 0.394443 0.671641
Si Si6 0.179518 0.011495 0.087915
Si Si7 0.124500 0.664009 0.816851
Si Si8 0.975796 0.593235 0.589837
O O1 0.776178 0.846738 0.740694
O O2 0.775324 0.931849 0.869620
O O3 0.681395 0.883125 0.809704
O O4 0.742120 0.000000 0.750000
O O5 0.963281 0.943601 0.196355
O O6 0.126938 0.108897 0.246734
O O7 0.141792 0.237924 0.333287
O O8 0.177023 0.081251 0.373695
O O9 0.073523 0.798597 0.654127
O O10 0.092276 0.667630 0.737612
O O11 0.000000 0.739597 0.750000
O O12 0.018050 0.658413 0.626856
O O13 0.376813 0.442096 0.608114
O O14 0.189103 0.005852 0.000000
O O15 0.082410 0.618822 0.873753
O O16 0.972701 0.600291 0.500000
O O17 0.000000 0.500000 0.608318
#
# Coordination Sequence:
#
# PCOD9525386 Si02
#       8
#    16   4  16  16  16  16  16  16
#     4   9  19  34  57  82 106 133 176 230 279 320
#     4  12  16  28  58  72 110 136 170 212 258 316
#     4   9  18  36  53  80 110 137 172 229 275 315
#     4   9  19  33  54  80 104 134 183 232 266 307
#     4  10  18  31  54  79 103 142 176 215 267 312
#     4  10  20  35  52  76 113 146 169 210 271 333
#     4  10  20  33  61  84  98 137 191 229 268 321
#     4  10  23  39  52  74 116 153 177 221 280 323
#
# _framework density 16.735807000000001
#
# number of rings (size 3 to 8) (size 9 to 14) (size 15 to 20)
#    0.000    2.345    2.069    1.241    1.931    3.586 
#    0.000    0.345    0.000    0.000    0.000    0.000 
#    0.000    0.000    0.000    0.000    0.000    0.000 
#
# Total GULP energy -323183.935481 kJ/mol
# GULP energy per Si atom -5572.136819 kJ/mol
# Density = 1.669772 g / cm^3
# Si number density = 16.735807 Si / 1000 Ang^3
#
#
#
# Elastic Constant Matrix: (Units=GPa)
#
#
# Indices 1 2 3 4 5 6 
#
# 1 133.6698 50.5458 52.3244 0.0000 0.0000 0.0000
# 2 50.5458 75.7787 53.4795 0.0000 0.0000 0.0000
# 3 52.3244 53.4795 93.9376 0.0000 0.0000 0.0000
# 4 0.0000 0.0000 0.0000 17.4386 0.0000 0.0000
# 5 0.0000 0.0000 0.0000 0.0000 12.0910 0.0000
# 6 0.0000 0.0000 0.0000 0.0000 0.0000 35.4036
#
#
#
# Elastic Compliance Matrix: (Units=1/GPa)
#
#
# Indices 1 2 3 4 5 6 
#
# 1 0.010524 -0.004819 -0.003119 0.000000 0.000000 0.000000
# 2 -0.004819 0.024266 -0.011131 0.000000 0.000000 0.000000
# 3 -0.003119 -0.011131 0.018719 0.000000 0.000000 0.000000
# 4 0.000000 0.000000 0.000000 0.057344 0.000000 0.000000
# 5 0.000000 0.000000 0.000000 0.000000 0.082706 0.000000
# 6 0.000000 0.000000 0.000000 0.000000 0.000000 0.028246
#
#
# Mechanical properties :
#
#
# Convention : Reuss Voigt Hill
#
# Bulk Modulus (GPa) = 65.04916 68.45395 66.75156
# Shear Modulus (GPa) = 18.86326 22.78906 20.82616
#
# Velocity S-wave (km/s) = 3.36090 3.69412 3.53144
# Velocity P-wave (km/s) = 7.34939 7.69330 7.52331
#
# Compressibility (1/GPa) = 0.01537299
#
# Stress axis : x y z
#
# Youngs Moduli (GPa) = 95.02016 41.21028 53.42095
#
# Poissons Ratio (x) = 0.19858 0.16660
# Poissons Ratio (y) = 0.45789 0.59461
# Poissons Ratio (z) = 0.29633 0.45870
#
# Static dielectric constant tensor:
#      x y z
#    x 1.573050 0.000000 0.000000 
#    y 0.000000 1.581900 0.000000 
#    z 0.000000 0.000000 1.528510 
# 
# From -- ./inp_files/34026.got.cif
#   From: 2010.05.17/outbox.cif.g08.bks.cpg/sg72_18_cif.got.tgz:34026.got - 2010.06.03 17:03:01.
