data_PCOD9525750
_publ_section_title
;
Structure prediction by ZEFSAII (Michael W. Deem and Ramdas Pophale) SiO2 
 PCOD9525750
Probable space group: I B A M
;
_chemical_formula_sum "Si O2"
_cell_formula_units_Z 112
_cell_length_a 22.624355
_cell_length_b 14.143447
_cell_length_c 21.512888
_cell_angle_alpha 90.000000
_cell_angle_beta 90.000000
_cell_angle_gamma 90.000000
_cell_volume 6883.830850
_symmetry_space_group_name_H-M "I B A M"
_symmetry_group_IT_number 72
_symmetry_cell_setting 'orthorhombic'
loop_
_space_group_symop_operation_xyz
x,y,z
-x,-y,z
x,-y,1/2-z
-x,y,1/2-z
-x,-y,-z
x,y,-z
-x,y,1/2+z
x,-y,1/2+z
1/2+x,1/2+y,1/2+z
1/2-x,1/2-y,1/2+z
1/2+x,1/2-y,-z
1/2-x,1/2+y,-z
1/2-x,1/2-y,1/2-z
1/2+x,1/2+y,1/2-z
1/2-x,1/2+y,z
1/2+x,1/2-y,z
loop_
_atom_site_type_symbol
_atom_site_label
_atom_site_fract_x
_atom_site_fract_y
_atom_site_fract_z
Si Si1 0.335062 0.695262 0.135173
Si Si2 0.841666 0.105599 0.768575
Si Si3 0.769670 0.572965 0.575331
Si Si4 0.850405 0.738257 0.570231
Si Si5 0.067963 0.106789 0.372586
Si Si6 0.061421 0.093972 0.073794
Si Si7 0.250066 0.861744 0.878756
O O1 0.345003 0.667583 0.206835
O O2 0.285578 0.625947 0.106302
O O3 0.392900 0.673329 0.095114
O O4 0.308081 0.799166 0.130543
O O5 0.904705 0.099078 0.803916
O O6 0.791322 0.138477 0.817076
O O7 0.824844 0.000000 0.750000
O O8 0.765608 0.575825 0.500000
O O9 0.826470 0.637219 0.594461
O O10 0.766901 0.465945 0.598993
O O11 0.869198 0.723476 0.500000
O O12 0.901796 0.797570 0.602763
O O13 0.792975 0.806998 0.573336
O O14 0.998459 0.107411 0.386490
O O15 0.087527 0.010027 0.408393
O O16 0.049104 0.095862 0.000000
#
# Coordination Sequence:
#
# PCOD9525750 Si02
#       7
#    16  16  16  16  16  16  16
#     4  11  21  34  49  77 104 135 168 209 261 306
#     4  11  19  35  52  74 102 138 170 210 254 302
#     4  10  19  31  50  75 102 134 169 210 258 311
#     4   9  17  30  49  72 100 132 169 210 255 307
#     4  10  20  34  51  72 101 136 171 209 254 307
#     4  11  21  33  52  76 104 135 168 209 258 310
#     4  10  20  32  51  72 105 133 169 211 256 310
#
# _framework density 16.270011
#
# number of rings (size 3 to 8) (size 9 to 14) (size 15 to 20)
#    0.000    1.714    2.857    3.857    0.000    2.286 
#    0.000    0.000    0.000    0.857    0.000    3.000 
#    0.000    0.000    0.000    0.000    0.000    0.000 
#
# Total GULP energy -311996.136753 kJ/mol
# GULP energy per Si atom -5571.359585 kJ/mol
# Density = 1.623298 g / cm^3
# Si number density = 16.270011 Si / 1000 Ang^3
#
#
#
# Elastic Constant Matrix: (Units=GPa)
#
#
# Indices 1 2 3 4 5 6 
#
# 1 65.4931 33.3061 31.0847 0.0000 0.0000 0.0000
# 2 33.3061 99.7038 26.3736 0.0000 0.0000 0.0000
# 3 31.0847 26.3736 71.7323 0.0000 0.0000 0.0000
# 4 0.0000 0.0000 0.0000 17.5638 0.0000 0.0000
# 5 0.0000 0.0000 0.0000 0.0000 16.3128 0.0000
# 6 0.0000 0.0000 0.0000 0.0000 0.0000 26.4631
#
#
#
# Elastic Compliance Matrix: (Units=1/GPa)
#
#
# Indices 1 2 3 4 5 6 
#
# 1 0.021411 -0.005204 -0.007365 0.000000 0.000000 0.000000
# 2 -0.005204 0.012375 -0.002295 0.000000 0.000000 0.000000
# 3 -0.007365 -0.002295 0.017976 0.000000 0.000000 0.000000
# 4 0.000000 0.000000 0.000000 0.056935 0.000000 0.000000
# 5 0.000000 0.000000 0.000000 0.000000 0.061301 0.000000
# 6 0.000000 0.000000 0.000000 0.000000 0.000000 0.037788
#
#
# Mechanical properties :
#
#
# Convention : Reuss Voigt Hill
#
# Bulk Modulus (GPa) = 45.38350 46.49533 45.93942
# Shear Modulus (GPa) = 20.41988 21.81227 21.11607
#
# Velocity S-wave (km/s) = 3.54653 3.66545 3.60648
# Velocity P-wave (km/s) = 6.68768 6.82300 6.75568
#
# Compressibility (1/GPa) = 0.02203444
#
# Stress axis : x y z
#
# Youngs Moduli (GPa) = 46.70527 80.80692 55.62995
#
# Poissons Ratio (x) = 0.42053 0.40971
# Poissons Ratio (y) = 0.24306 0.12766
# Poissons Ratio (z) = 0.34398 0.18543
#
# Static dielectric constant tensor:
#      x y z
#    x 1.553890 0.000000 0.000000 
#    y 0.000000 1.549260 0.000000 
#    z 0.000000 0.000000 1.566770 
# 
# From -- ./inp_files/37289.got.cif
#   From: 2010.05.17/outbox.cif.g08.bks.cpg/sg72_19_cif.got.tgz:37289.got - 2010.06.03 17:03:01.
