data_PCOD9525945
_publ_section_title
;
Structure prediction by ZEFSAII (Michael W. Deem and Ramdas Pophale) SiO2 
 PCOD9525945
Probable space group: I B A M
;
_chemical_formula_sum "Si O2"
_cell_formula_units_Z 96
_cell_length_a 19.043914
_cell_length_b 29.594503
_cell_length_c 8.460341
_cell_angle_alpha 90.000000
_cell_angle_beta 90.000000
_cell_angle_gamma 90.000000
_cell_volume 4768.207324
_symmetry_space_group_name_H-M "I B A M"
_symmetry_group_IT_number 72
_symmetry_cell_setting 'orthorhombic'
loop_
_space_group_symop_operation_xyz
x,y,z
-x,-y,z
x,-y,1/2-z
-x,y,1/2-z
-x,-y,-z
x,y,-z
-x,y,1/2+z
x,-y,1/2+z
1/2+x,1/2+y,1/2+z
1/2-x,1/2-y,1/2+z
1/2+x,1/2-y,-z
1/2-x,1/2+y,-z
1/2-x,1/2-y,1/2-z
1/2+x,1/2+y,1/2-z
1/2-x,1/2+y,z
1/2+x,1/2-y,z
loop_
_atom_site_type_symbol
_atom_site_label
_atom_site_fract_x
_atom_site_fract_y
_atom_site_fract_z
Si Si1 0.714677 0.450789 0.310927
Si Si2 0.125034 0.452817 0.690712
Si Si3 0.064204 0.363966 0.677203
Si Si4 0.690790 0.203192 0.319647
Si Si5 0.173972 0.852267 0.691214
Si Si6 0.920819 0.777215 0.690587
O O1 0.687386 0.500000 0.250000
O O2 0.712748 0.451333 0.500000
O O3 0.795366 0.448510 0.251994
O O4 0.680420 0.404025 0.249358
O O5 0.096276 0.500000 0.750000
O O6 0.127601 0.451177 0.500000
O O7 0.080165 0.411465 0.756835
O O8 0.041877 0.372986 0.500000
O O9 0.135924 0.337522 0.673751
O O10 0.000000 0.337298 0.750000
O O11 0.709003 0.217503 0.500000
O O12 0.760369 0.179609 0.250069
O O13 0.641236 0.242784 0.249139
O O14 0.176646 0.852627 0.500000
O O15 0.105356 0.826399 0.753340
O O16 0.921303 0.773311 0.500000
O O17 0.000000 0.768523 0.750000
#
# Coordination Sequence:
#
# PCOD9525945 Si02
#       6
#    16  16  16  16  16  16
#     4  11  21  35  58  89 120 153 195 243 296 356
#     4  10  19  33  51  71 104 144 190 241 297 351
#     4  10  20  34  50  72 105 149 193 242 294 348
#     4   9  19  37  59  83 117 155 198 246 294 347
#     4  11  21  39  64  90 122 158 197 249 301 350
#     4  11  23  40  61  89 122 160 202 246 299 359
#
# _framework density 20.133353
#
# number of rings (size 3 to 8) (size 9 to 14) (size 15 to 20)
#    0.000    1.667    1.667    5.000    0.000    1.667 
#    0.000    5.000    0.000    0.500    0.000    3.500 
#    0.000    0.000    0.000    0.000    0.000    0.000 
#
# Total GULP energy -267503.649174 kJ/mol
# GULP energy per Si atom -5572.992691 kJ/mol
# Density = 2.008753 g / cm^3
# Si number density = 20.133353 Si / 1000 Ang^3
#
#
#
# Elastic Constant Matrix: (Units=GPa)
#
#
# Indices 1 2 3 4 5 6 
#
# 1 47.9402 57.6058 20.7707 0.0000 0.0000 0.0000
# 2 57.6058 143.9978 29.0159 0.0000 0.0000 0.0000
# 3 20.7707 29.0159 73.2184 0.0002 0.0000 -0.0002
# 4 0.0000 0.0000 0.0002 31.1374 0.0000 0.0001
# 5 0.0000 0.0000 0.0000 0.0000 17.1420 0.0000
# 6 0.0000 0.0000 -0.0002 0.0001 0.0000 28.0613
#
#
#
# Elastic Compliance Matrix: (Units=1/GPa)
#
#
# Indices 1 2 3 4 5 6 
#
# 1 0.042285 -0.015757 -0.005751 0.000000 0.000000 0.000000
# 2 -0.015757 0.013419 -0.000848 0.000000 0.000000 0.000000
# 3 -0.005751 -0.000848 0.015625 0.000000 0.000000 0.000000
# 4 0.000000 0.000000 0.000000 0.032116 0.000000 0.000000
# 5 0.000000 0.000000 0.000000 0.000000 0.058336 0.000000
# 6 0.000000 0.000000 0.000000 0.000000 0.000000 0.035636
#
#
# Mechanical properties :
#
#
# Convention : Reuss Voigt Hill
#
# Bulk Modulus (GPa) = 37.56960 53.32679 45.44820
# Shear Modulus (GPa) = 19.92014 25.78573 22.85294
#
# Velocity S-wave (km/s) = 3.14890 3.58264 3.37275
# Velocity P-wave (km/s) = 5.64993 6.60742 6.14734
#
# Compressibility (1/GPa) = 0.02661727
#
# Stress axis : x y z
#
# Youngs Moduli (GPa) = 23.64895 74.52125 63.99908
#
# Poissons Ratio (x) = 1.17424 0.36806
# Poissons Ratio (y) = 0.37264 0.05426
# Poissons Ratio (z) = 0.13601 0.06318
#
# Static dielectric constant tensor:
#      x y z
#    x 1.713890 0.000000 0.000000 
#    y 0.000000 1.792580 0.000000 
#    z 0.000000 0.000000 1.734560 
# 
# From -- ./inp_files/6035.got.cif
#   From: 2010.05.17/outbox.cif.g08.bks.cpg/sg72_4_cif.got.tgz:6035.got - 2010.06.03 17:03:01.
