data_PCOD9525946
_publ_section_title
;
Structure prediction by ZEFSAII (Michael W. Deem and Ramdas Pophale) SiO2 
 PCOD9525946
Probable space group: I B A M
;
_chemical_formula_sum "Si O2"
_cell_formula_units_Z 128
_cell_length_a 17.030750
_cell_length_b 23.823251
_cell_length_c 18.930809
_cell_angle_alpha 90.000000
_cell_angle_beta 90.000000
_cell_angle_gamma 90.000000
_cell_volume 7680.756093
_symmetry_space_group_name_H-M "I B A M"
_symmetry_group_IT_number 72
_symmetry_cell_setting 'orthorhombic'
loop_
_space_group_symop_operation_xyz
x,y,z
-x,-y,z
x,-y,1/2-z
-x,y,1/2-z
-x,-y,-z
x,y,-z
-x,y,1/2+z
x,-y,1/2+z
1/2+x,1/2+y,1/2+z
1/2-x,1/2-y,1/2+z
1/2+x,1/2-y,-z
1/2-x,1/2+y,-z
1/2-x,1/2-y,1/2-z
1/2+x,1/2+y,1/2-z
1/2-x,1/2+y,z
1/2+x,1/2-y,z
loop_
_atom_site_type_symbol
_atom_site_label
_atom_site_fract_x
_atom_site_fract_y
_atom_site_fract_z
Si Si1 0.881742 0.069822 0.681884
Si Si2 0.533782 0.726490 0.082880
Si Si3 0.718971 0.854052 0.333020
Si Si4 0.977901 0.094242 0.917110
Si Si5 0.164942 0.048840 0.660175
Si Si6 0.686472 0.690374 0.697773
Si Si7 0.782710 0.757355 0.418218
Si Si8 0.432226 0.789993 0.194272
O O1 0.883198 0.062868 0.767023
O O2 0.850383 0.132418 0.670642
O O3 0.960908 0.065328 0.636368
O O4 0.827012 0.018101 0.657812
O O5 0.522742 0.660718 0.100383
O O6 0.624466 0.741739 0.096137
O O7 0.475910 0.766013 0.125717
O O8 0.518819 0.732254 0.000000
O O9 0.754370 0.916352 0.336908
O O10 0.762474 0.825183 0.266028
O O11 0.748524 0.818889 0.400488
O O12 0.627405 0.840792 0.321852
O O13 0.891281 0.070756 0.901625
O O14 0.998269 0.086928 0.000000
O O15 0.738306 0.716691 0.635588
O O16 0.621352 0.736758 0.718457
O O17 0.769544 0.743097 0.500000
O O18 0.500000 0.803525 0.250000
#
# Coordination Sequence:
#
# PCOD9525946 Si02
#       8
#    16  16  16  16  16  16  16  16
#     4  10  21  35  51  74  98 137 177 217 252 297
#     4  10  20  32  47  71 102 134 163 199 251 305
#     4  10  20  34  50  72  99 133 173 210 256 305
#     4  11  21  33  48  72 106 139 171 209 253 303
#     4  10  21  36  53  69  99 140 182 212 250 302
#     4  10  20  33  50  73 101 129 167 209 254 308
#     4  10  19  33  51  72 101 135 166 201 256 315
#     4  11  20  30  51  76 101 130 166 211 259 306
#
# _framework density 16.665026000000001
#
# number of rings (size 3 to 8) (size 9 to 14) (size 15 to 20)
#    0.000    1.750    2.500    3.750    1.750    4.500 
#    0.000    0.000    0.000    0.000    0.000   14.875 
#    0.000    2.000    0.000    0.000    0.000    0.250 
#
# Total GULP energy -356991.492737 kJ/mol
# GULP energy per Si atom -5577.992074 kJ/mol
# Density = 1.662710 g / cm^3
# Si number density = 16.665026 Si / 1000 Ang^3
#
#
#
# Elastic Constant Matrix: (Units=GPa)
#
#
# Indices 1 2 3 4 5 6 
#
# 1 71.9677 26.2150 13.2232 0.0000 0.0000 0.0000
# 2 26.2150 75.2973 6.6362 0.0000 0.0000 0.0000
# 3 13.2232 6.6362 32.9423 0.0000 0.0000 0.0000
# 4 0.0000 0.0000 0.0000 10.8452 0.0000 0.0000
# 5 0.0000 0.0000 0.0000 0.0000 22.2987 0.0000
# 6 0.0000 0.0000 0.0000 0.0000 0.0000 16.2439
#
#
#
# Elastic Compliance Matrix: (Units=1/GPa)
#
#
# Indices 1 2 3 4 5 6 
#
# 1 0.016903 -0.005382 -0.005701 0.000000 0.000000 0.000000
# 2 -0.005382 0.015235 -0.000908 0.000000 0.000000 0.000000
# 3 -0.005701 -0.000908 0.032827 0.000000 0.000000 0.000000
# 4 0.000000 0.000000 0.000000 0.092207 0.000000 0.000000
# 5 0.000000 0.000000 0.000000 0.000000 0.044846 0.000000
# 6 0.000000 0.000000 0.000000 0.000000 0.000000 0.061562
#
#
# Mechanical properties :
#
#
# Convention : Reuss Voigt Hill
#
# Bulk Modulus (GPa) = 24.40099 30.26179 27.33139
# Shear Modulus (GPa) = 16.59899 18.81976 17.70937
#
# Velocity S-wave (km/s) = 3.15943 3.36415 3.26339
# Velocity P-wave (km/s) = 5.28991 5.76960 5.53495
#
# Compressibility (1/GPa) = 0.04098195
#
# Stress axis : x y z
#
# Youngs Moduli (GPa) = 59.16052 65.63977 30.46240
#
# Poissons Ratio (x) = 0.35330 0.17366
# Poissons Ratio (y) = 0.31843 0.02767
# Poissons Ratio (z) = 0.33726 0.05963
#
# Static dielectric constant tensor:
#      x y z
#    x 1.567000 0.000000 0.000000 
#    y 0.000000 1.574070 0.000000 
#    z 0.000000 0.000000 1.578880 
# 
# From -- ./inp_files/32052.got.cif
#   From: 2010.05.17/outbox.cif.g08.bks.cpg/sg72_17_cif.got.tgz:32052.got - 2010.06.03 17:03:01.
