data_PCOD9525292
_publ_section_title
;
Structure prediction by ZEFSAII (Michael W. Deem and Ramdas Pophale) SiO2 
 PCOD9525292
Probable space group: I B A M
;
_chemical_formula_sum "Si O2"
_cell_formula_units_Z 104
_cell_length_a 31.323421
_cell_length_b 25.235026
_cell_length_c 9.336578
_cell_angle_alpha 90.000000
_cell_angle_beta 90.000000
_cell_angle_gamma 90.000000
_cell_volume 7380.073276
_symmetry_space_group_name_H-M "I B A M"
_symmetry_group_IT_number 72
_symmetry_cell_setting 'orthorhombic'
loop_
_space_group_symop_operation_xyz
x,y,z
-x,-y,z
x,-y,1/2-z
-x,y,1/2-z
-x,-y,-z
x,y,-z
-x,y,1/2+z
x,-y,1/2+z
1/2+x,1/2+y,1/2+z
1/2-x,1/2-y,1/2+z
1/2+x,1/2-y,-z
1/2-x,1/2+y,-z
1/2-x,1/2-y,1/2-z
1/2+x,1/2+y,1/2-z
1/2-x,1/2+y,z
1/2+x,1/2-y,z
loop_
_atom_site_type_symbol
_atom_site_label
_atom_site_fract_x
_atom_site_fract_y
_atom_site_fract_z
Si Si1 0.955188 0.894205 0.832060
Si Si2 0.884405 0.172787 0.834318
Si Si3 0.668788 0.567007 0.151776
Si Si4 0.592985 0.500000 0.250000
Si Si5 0.818098 0.239022 0.330091
Si Si6 0.767929 0.671364 0.329919
Si Si7 0.750140 0.051757 0.669711
O O1 0.923485 0.852781 0.753884
O O2 0.935161 0.953452 0.818094
O O3 0.000000 0.893856 0.750000
O O4 0.959744 0.881908 0.000000
O O5 0.849260 0.125936 0.838839
O O6 0.860389 0.219749 0.751772
O O7 0.895692 0.184978 0.000000
O O8 0.626648 0.531007 0.151374
O O9 0.700221 0.555616 0.281977
O O10 0.692273 0.559833 0.000000
O O11 0.825340 0.243374 0.500000
O O12 0.799758 0.292890 0.262280
O O13 0.779523 0.196207 0.309458
O O14 0.777256 0.676425 0.500000
O O15 0.768501 0.609384 0.290383
O O16 0.746691 0.046134 0.500000
O O17 0.732441 0.000000 0.750000
#
# Coordination Sequence:
#
# PCOD9525292 Si02
#       7
#    16  16  16   8  16  16  16
#     4  11  23  37  51  66  87 113 148 190 236 285
#     4  10  20  33  49  67  87 110 140 179 228 277
#     4  10  19  29  42  61  82 107 143 183 224 270
#     4  10  21  32  48  64  82 112 148 190 236 284
#     4  10  18  30  49  69  88 112 144 183 227 274
#     4   9  19  32  44  63  90 117 145 182 227 271
#     4  11  21  31  43  60  87 118 150 186 227 270
#
# _framework density 14.092000000000001
#
# number of rings (size 3 to 8) (size 9 to 14) (size 15 to 20)
#    0.000    1.846    2.308    2.538    0.000    6.769 
#    0.000    0.000    0.000    0.000    0.000    0.000 
#    0.000    0.000    0.000    0.000    0.000    0.769 
#
# Total GULP energy -289810.202365 kJ/mol
# GULP energy per Si atom -5573.273122 kJ/mol
# Density = 1.405993 g / cm^3
# Si number density = 14.092000 Si / 1000 Ang^3
#
#
#
# Elastic Constant Matrix: (Units=GPa)
#
#
# Indices 1 2 3 4 5 6 
#
# 1 57.1936 39.7566 44.6242 0.0000 0.0000 0.0000
# 2 39.7566 100.2548 54.5476 0.0000 0.0000 0.0000
# 3 44.6242 54.5476 107.9628 0.0000 0.0000 0.0000
# 4 0.0000 0.0000 0.0000 8.8670 0.0000 0.0000
# 5 0.0000 0.0000 0.0000 0.0000 15.3317 0.0000
# 6 0.0000 0.0000 0.0000 0.0000 0.0000 17.6016
#
#
#
# Elastic Compliance Matrix: (Units=1/GPa)
#
#
# Indices 1 2 3 4 5 6 
#
# 1 0.028840 -0.006828 -0.008471 0.000000 0.000000 0.000000
# 2 -0.006828 0.015373 -0.004945 0.000000 0.000000 0.000000
# 3 -0.008471 -0.004945 0.015262 0.000000 0.000000 0.000000
# 4 0.000000 0.000000 0.000000 0.112777 0.000000 0.000000
# 5 0.000000 0.000000 0.000000 0.000000 0.065225 0.000000
# 6 0.000000 0.000000 0.000000 0.000000 0.000000 0.056813
#
#
# Mechanical properties :
#
#
# Convention : Reuss Voigt Hill
#
# Bulk Modulus (GPa) = 52.66525 60.36311 56.51418
# Shear Modulus (GPa) = 14.65828 16.79226 15.72527
#
# Velocity S-wave (km/s) = 3.22869 3.45572 3.34413
# Velocity P-wave (km/s) = 7.16609 7.67142 7.42306
#
# Compressibility (1/GPa) = 0.01898785
#
# Stress axis : x y z
#
# Youngs Moduli (GPa) = 34.67454 65.05094 65.52257
#
# Poissons Ratio (x) = 0.44415 0.55501
# Poissons Ratio (y) = 0.23675 0.32400
# Poissons Ratio (z) = 0.29371 0.32166
#
# Static dielectric constant tensor:
#      x y z
#    x 1.438480 0.000000 0.000000 
#    y 0.000000 1.481420 0.000000 
#    z 0.000000 0.000000 1.489200 
# 
# From -- ./inp_files/9296.got.cif
#   From: 2010.05.17/outbox.cif.g08.bks.cpg/sg72_5_cif.got.tgz:9296.got - 2010.06.03 17:03:01.
