data_PCOD9525335
_publ_section_title
;
Structure prediction by ZEFSAII (Michael W. Deem and Ramdas Pophale) SiO2 
 PCOD9525335
Probable space group: I B A M
;
_chemical_formula_sum "Si O2"
_cell_formula_units_Z 104
_cell_length_a 20.580400
_cell_length_b 29.396713
_cell_length_c 8.903867
_cell_angle_alpha 90.000000
_cell_angle_beta 90.000000
_cell_angle_gamma 90.000000
_cell_volume 5386.804919
_symmetry_space_group_name_H-M "I B A M"
_symmetry_group_IT_number 72
_symmetry_cell_setting 'orthorhombic'
loop_
_space_group_symop_operation_xyz
x,y,z
-x,-y,z
x,-y,1/2-z
-x,y,1/2-z
-x,-y,-z
x,y,-z
-x,y,1/2+z
x,-y,1/2+z
1/2+x,1/2+y,1/2+z
1/2-x,1/2-y,1/2+z
1/2+x,1/2-y,-z
1/2-x,1/2+y,-z
1/2-x,1/2-y,1/2-z
1/2+x,1/2+y,1/2-z
1/2-x,1/2+y,z
1/2+x,1/2-y,z
loop_
_atom_site_type_symbol
_atom_site_label
_atom_site_fract_x
_atom_site_fract_y
_atom_site_fract_z
Si Si1 0.308566 0.049284 0.679650
Si Si2 0.000000 0.316215 0.750000
Si Si3 0.067813 0.851750 0.322929
Si Si4 0.695193 0.377583 0.323723
Si Si5 0.781551 0.306758 0.829567
Si Si6 0.896753 0.379948 0.827354
Si Si7 0.894480 0.757961 0.671874
O O1 0.318278 0.047028 0.500000
O O2 0.246336 0.082090 0.706850
O O3 0.369782 0.073397 0.760561
O O4 0.297898 0.000000 0.750000
O O5 0.055454 0.353768 0.788132
O O6 0.048315 0.280393 0.668453
O O7 0.062612 0.852939 0.500000
O O8 0.128469 0.881155 0.266080
O O9 0.082648 0.799985 0.270358
O O10 0.000000 0.865810 0.250000
O O11 0.682142 0.376867 0.500000
O O12 0.727878 0.329643 0.274506
O O13 0.834863 0.346945 0.840961
O O14 0.826687 0.265088 0.774867
O O15 0.757811 0.297556 0.000000
O O16 0.923326 0.383550 0.000000
O O17 0.885084 0.772817 0.500000
#
# Coordination Sequence:
#
# PCOD9525335 Si02
#       7
#    16   8  16  16  16  16  16
#     4  10  21  38  63  90 114 143 180 231 288 349
#     4  10  18  30  55  80 112 158 203 240 282 322
#     4  12  25  39  57  80 111 150 190 232 281 334
#     4  10  21  38  59  84 113 144 182 228 282 339
#     4   8  16  32  53  78 108 145 188 233 281 326
#     4   9  18  32  52  80 114 151 191 237 282 334
#     4  10  20  34  53  78 111 152 198 243 279 326
#
# _framework density 19.306436000000001
#
# number of rings (size 3 to 8) (size 9 to 14) (size 15 to 20)
#    0.000    2.154    0.769    3.692    0.000    4.923 
#    0.000    5.000    0.000    2.308    0.000    3.231 
#    0.000    0.000    0.000    0.000    0.000    0.000 
#
# Total GULP energy -289644.357564 kJ/mol
# GULP energy per Si atom -5570.083799 kJ/mol
# Density = 1.926249 g / cm^3
# Si number density = 19.306436 Si / 1000 Ang^3
#
#
#
# Elastic Constant Matrix: (Units=GPa)
#
#
# Indices 1 2 3 4 5 6 
#
# 1 55.2259 6.3149 17.6587 0.0000 0.0000 0.0000
# 2 6.3149 88.0681 17.6559 0.0000 0.0000 0.0000
# 3 17.6587 17.6559 63.3601 0.0000 0.0000 0.0000
# 4 0.0000 0.0000 0.0000 17.5445 0.0000 0.0000
# 5 0.0000 0.0000 0.0000 0.0000 22.5377 0.0000
# 6 0.0000 0.0000 0.0000 0.0000 0.0000 22.8268
#
#
#
# Elastic Compliance Matrix: (Units=1/GPa)
#
#
# Indices 1 2 3 4 5 6 
#
# 1 0.019888 -0.000333 -0.005450 0.000000 0.000000 0.000000
# 2 -0.000333 0.012032 -0.003260 0.000000 0.000000 0.000000
# 3 -0.005450 -0.003260 0.018210 0.000000 0.000000 0.000000
# 4 0.000000 0.000000 0.000000 0.056998 0.000000 0.000000
# 5 0.000000 0.000000 0.000000 0.000000 0.044370 0.000000
# 6 0.000000 0.000000 0.000000 0.000000 0.000000 0.043808
#
#
# Mechanical properties :
#
#
# Convention : Reuss Voigt Hill
#
# Bulk Modulus (GPa) = 31.20727 32.21257 31.70992
# Shear Modulus (GPa) = 22.31395 23.58344 22.94870
#
# Velocity S-wave (km/s) = 3.40336 3.49883 3.45143
# Velocity P-wave (km/s) = 5.62522 5.74835 5.68712
#
# Compressibility (1/GPa) = 0.03204382
#
# Stress axis : x y z
#
# Youngs Moduli (GPa) = 50.28102 83.10949 54.91434
#
# Poissons Ratio (x) = 0.02771 0.29928
# Poissons Ratio (y) = 0.01677 0.17902
# Poissons Ratio (z) = 0.27403 0.27094
#
# Static dielectric constant tensor:
#      x y z
#    x 1.717350 0.000000 0.000000 
#    y 0.000000 1.664540 0.000000 
#    z 0.000000 0.000000 1.690700 
# 
# From -- ./inp_files/6394.got.cif
#   From: 2010.05.17/outbox.cif.g08.bks.cpg/sg72_4_cif.got.tgz:6394.got - 2010.06.03 17:03:01.
