data_PCOD9525381
_publ_section_title
;
Structure prediction by ZEFSAII (Michael W. Deem and Ramdas Pophale) SiO2 
 PCOD9525381
Probable space group: I B A M
;
_chemical_formula_sum "Si O2"
_cell_formula_units_Z 112
_cell_length_a 27.363635
_cell_length_b 11.842951
_cell_length_c 13.889016
_cell_angle_alpha 90.000000
_cell_angle_beta 90.000000
_cell_angle_gamma 90.000000
_cell_volume 4500.960477
_symmetry_space_group_name_H-M "I B A M"
_symmetry_group_IT_number 72
_symmetry_cell_setting 'orthorhombic'
loop_
_space_group_symop_operation_xyz
x,y,z
-x,-y,z
x,-y,1/2-z
-x,y,1/2-z
-x,-y,-z
x,y,-z
-x,y,1/2+z
x,-y,1/2+z
1/2+x,1/2+y,1/2+z
1/2-x,1/2-y,1/2+z
1/2+x,1/2-y,-z
1/2-x,1/2+y,-z
1/2-x,1/2-y,1/2-z
1/2+x,1/2+y,1/2-z
1/2-x,1/2+y,z
1/2+x,1/2-y,z
loop_
_atom_site_type_symbol
_atom_site_label
_atom_site_fract_x
_atom_site_fract_y
_atom_site_fract_z
Si Si1 0.125079 0.488294 0.384332
Si Si2 0.568299 0.792386 0.885166
Si Si3 0.554195 0.530098 0.138957
Si Si4 0.772760 0.818193 0.881525
Si Si5 0.117168 0.173119 0.108093
Si Si6 0.461117 0.846104 0.117154
Si Si7 0.729734 0.064916 0.882532
O O1 0.130819 0.487828 0.500000
O O2 0.115346 0.361120 0.349098
O O3 0.074301 0.550337 0.361765
O O4 0.172903 0.553662 0.351892
O O5 0.566662 0.659715 0.872966
O O6 0.516444 0.840047 0.848279
O O7 0.568367 0.812043 0.000000
O O8 0.500000 0.500000 0.100495
O O9 0.552451 0.500000 0.250000
O O10 0.597575 0.453153 0.099951
O O11 0.829452 0.820179 0.848631
O O12 0.752512 0.692234 0.853502
O O13 0.751294 0.941475 0.852266
O O14 0.770836 0.819970 0.000000
O O15 0.071416 0.240380 0.152052
O O16 0.122975 0.222057 0.000000
O O17 0.465186 0.840826 0.000000
O O18 0.733516 0.065466 0.000000
#
# Coordination Sequence:
#
# PCOD9525381 Si02
#       7
#    16  16  16  16  16  16  16
#     4   9  16  27  45  74 108 136 165 207 259 304
#     4  10  19  30  50  78 103 132 173 214 248 297
#     4  11  23  36  49  70 102 140 170 207 257 308
#     4   9  17  28  45  71 103 137 172 209 259 311
#     4  10  18  31  53  75  97 133 175 208 246 303
#     4   9  15  26  46  73 103 131 164 205 249 297
#     4   9  16  27  43  70 110 143 164 206 265 312
#
# _framework density 24.883576999999999
#
# number of rings (size 3 to 8) (size 9 to 14) (size 15 to 20)
#    0.000    2.429    2.857    0.857    0.000    3.429 
#    0.000    4.286    0.000    0.857    0.000    4.000 
#    0.000    0.000    0.000    0.000    0.000    0.000 
#
# Total GULP energy -312584.040641 kJ/mol
# GULP energy per Si atom -5581.857869 kJ/mol
# Density = 2.482694 g / cm^3
# Si number density = 24.883577 Si / 1000 Ang^3
#
#
#
# Elastic Constant Matrix: (Units=GPa)
#
#
# Indices 1 2 3 4 5 6 
#
# 1 79.2738 79.1025 -5.2549 0.0000 0.0000 0.0000
# 2 79.1025 198.9837 4.1336 0.0000 0.0000 0.0000
# 3 -5.2549 4.1336 77.4581 0.0000 0.0000 0.0000
# 4 0.0000 0.0000 0.0000 12.9859 0.0000 0.0000
# 5 0.0000 0.0000 0.0000 0.0000 6.2510 0.0000
# 6 0.0000 0.0000 0.0000 0.0000 0.0000 106.1226
#
#
#
# Elastic Compliance Matrix: (Units=1/GPa)
#
#
# Indices 1 2 3 4 5 6 
#
# 1 0.021181 -0.008459 0.001888 0.000000 0.000000 0.000000
# 2 -0.008459 0.008410 -0.001023 0.000000 0.000000 0.000000
# 3 0.001888 -0.001023 0.013093 0.000000 0.000000 0.000000
# 4 0.000000 0.000000 0.000000 0.077007 0.000000 0.000000
# 5 0.000000 0.000000 0.000000 0.000000 0.159974 0.000000
# 6 0.000000 0.000000 0.000000 0.000000 0.000000 0.009423
#
#
# Mechanical properties :
#
#
# Convention : Reuss Voigt Hill
#
# Bulk Modulus (GPa) = 36.36886 56.85312 46.61099
# Shear Modulus (GPa) = 15.95207 43.58754 29.76981
#
# Velocity S-wave (km/s) = 2.53468 4.18982 3.46260
# Velocity P-wave (km/s) = 4.81804 6.80466 5.89563
#
# Compressibility (1/GPa) = 0.02749605
#
# Stress axis : x y z
#
# Youngs Moduli (GPa) = 47.21301 118.91188 76.37737
#
# Poissons Ratio (x) = 1.00590 -0.14423
# Poissons Ratio (y) = 0.39938 0.07811
# Poissons Ratio (z) = -0.08916 0.12161
#
# Static dielectric constant tensor:
#      x y z
#    x 1.918600 0.000000 0.000000 
#    y 0.000000 2.043570 0.000000 
#    z 0.000000 0.000000 2.090270 
# 
# From -- ./inp_files/40862.got.cif
#   From: 2010.05.17/outbox.cif.g08.bks.cpg/sg72_21_cif.got.tgz:40862.got - 2010.06.03 17:03:01.
