data_PCOD9525043
_publ_section_title
;
Structure prediction by ZEFSAII (Michael W. Deem and Ramdas Pophale) SiO2 
 PCOD9525043
Probable space group: I B A M
;
_chemical_formula_sum "Si O2"
_cell_formula_units_Z 96
_cell_length_a 23.928920
_cell_length_b 23.939595
_cell_length_c 8.693394
_cell_angle_alpha 90.000000
_cell_angle_beta 90.000000
_cell_angle_gamma 90.000000
_cell_volume 4979.999048
_symmetry_space_group_name_H-M "I B A M"
_symmetry_group_IT_number 72
_symmetry_cell_setting 'orthorhombic'
loop_
_space_group_symop_operation_xyz
x,y,z
-x,-y,z
x,-y,1/2-z
-x,y,1/2-z
-x,-y,-z
x,y,-z
-x,y,1/2+z
x,-y,1/2+z
1/2+x,1/2+y,1/2+z
1/2-x,1/2-y,1/2+z
1/2+x,1/2-y,-z
1/2-x,1/2+y,-z
1/2-x,1/2-y,1/2-z
1/2+x,1/2+y,1/2-z
1/2-x,1/2+y,z
1/2+x,1/2-y,z
loop_
_atom_site_type_symbol
_atom_site_label
_atom_site_fract_x
_atom_site_fract_y
_atom_site_fract_z
Si Si1 0.556098 0.936985 0.816562
Si Si2 0.436505 0.557243 0.815855
Si Si3 0.340546 0.736224 0.818508
Si Si4 0.242427 0.663763 0.682904
Si Si5 0.438076 0.326340 0.817851
Si Si6 0.180488 0.437509 0.684473
O O1 0.500000 0.909207 0.750000
O O2 0.617744 0.914847 0.777351
O O3 0.556905 0.000000 0.750000
O O4 0.551101 0.939566 0.000000
O O5 0.410375 0.500000 0.750000
O O6 0.500000 0.557819 0.750000
O O7 0.413589 0.616281 0.756064
O O8 0.437518 0.555590 0.000000
O O9 0.295245 0.689721 0.769336
O O10 0.309660 0.794567 0.784917
O O11 0.396797 0.723537 0.726682
O O12 0.351773 0.732937 0.000000
O O13 0.252731 0.664518 0.500000
O O14 0.225571 0.603147 0.741564
O O15 0.500000 0.317683 0.750000
O O16 0.442018 0.333726 0.000000
O O17 0.184980 0.500000 0.750000
O O18 0.185481 0.438791 0.500000
#
# Coordination Sequence:
#
# PCOD9525043 Si02
#       6
#    16  16  16  16  16  16
#     4   9  16  26  43  68  99 137 177 215 259 313
#     4  10  17  28  46  71 104 142 182 220 264 319
#     4  10  21  39  61  84 110 143 184 227 272 325
#     4  10  21  38  61  85 109 142 184 227 272 325
#     4  11  21  35  56  83 114 147 184 227 278 329
#     4  10  20  34  54  81 113 147 183 227 278 329
#
# _framework density 19.277113
#
# number of rings (size 3 to 8) (size 9 to 14) (size 15 to 20)
#    0.000    2.000    0.000    7.000    0.000    4.000 
#    0.000    1.667    0.000    2.000    0.000    0.000 
#    0.000    0.000    0.000    0.000    0.000    0.000 
#
# Total GULP energy -267842.271228 kJ/mol
# GULP energy per Si atom -5580.047317 kJ/mol
# Density = 1.923324 g / cm^3
# Si number density = 19.277113 Si / 1000 Ang^3
#
#
#
# Elastic Constant Matrix: (Units=GPa)
#
#
# Indices 1 2 3 4 5 6 
#
# 1 40.9759 24.4255 23.5587 0.0000 0.0000 0.0000
# 2 24.4255 49.0513 19.9289 0.0000 0.0000 0.0000
# 3 23.5587 19.9289 102.6060 0.0000 0.0000 0.0000
# 4 0.0000 0.0000 0.0000 16.2744 0.0000 0.0000
# 5 0.0000 0.0000 0.0000 0.0000 30.8672 0.0000
# 6 0.0000 0.0000 0.0000 0.0000 0.0000 21.5854
#
#
#
# Elastic Compliance Matrix: (Units=1/GPa)
#
#
# Indices 1 2 3 4 5 6 
#
# 1 0.037250 -0.016365 -0.005374 0.000000 0.000000 0.000000
# 2 -0.016365 0.029323 -0.001938 0.000000 0.000000 0.000000
# 3 -0.005374 -0.001938 0.011356 0.000000 0.000000 0.000000
# 4 0.000000 0.000000 0.000000 0.061446 0.000000 0.000000
# 5 0.000000 0.000000 0.000000 0.000000 0.032397 0.000000
# 6 0.000000 0.000000 0.000000 0.000000 0.000000 0.046328
#
#
# Mechanical properties :
#
#
# Convention : Reuss Voigt Hill
#
# Bulk Modulus (GPa) = 32.70666 36.49548 34.60107
# Shear Modulus (GPa) = 18.13919 22.06006 20.09962
#
# Velocity S-wave (km/s) = 3.07085 3.38652 3.23254
# Velocity P-wave (km/s) = 5.43847 5.85359 5.64984
#
# Compressibility (1/GPa) = 0.03057482
#
# Stress axis : x y z
#
# Youngs Moduli (GPa) = 26.84589 34.10243 88.05681
#
# Poissons Ratio (x) = 0.55810 0.47322
# Poissons Ratio (y) = 0.43934 0.17064
# Poissons Ratio (z) = 0.14427 0.06609
#
# Static dielectric constant tensor:
#      x y z
#    x 1.708700 0.000000 0.000000 
#    y 0.000000 1.704500 0.000000 
#    z 0.000000 0.000000 1.642420 
# 
# From -- ./inp_files/6954.got.cif
#   From: 2010.05.17/outbox.cif.g08.bks.cpg/sg72_4_cif.got.tgz:6954.got - 2010.06.03 17:03:01.
