data_PCOD9525196
_publ_section_title
;
Structure prediction by ZEFSAII (Michael W. Deem and Ramdas Pophale) SiO2 
 PCOD9525196
Probable space group: I B A M
;
_chemical_formula_sum "Si O2"
_cell_formula_units_Z 116
_cell_length_a 28.606325
_cell_length_b 27.503410
_cell_length_c 7.521104
_cell_angle_alpha 90.000000
_cell_angle_beta 90.000000
_cell_angle_gamma 90.000000
_cell_volume 5917.390163
_symmetry_space_group_name_H-M "I B A M"
_symmetry_group_IT_number 72
_symmetry_cell_setting 'orthorhombic'
loop_
_space_group_symop_operation_xyz
x,y,z
-x,-y,z
x,-y,1/2-z
-x,y,1/2-z
-x,-y,-z
x,y,-z
-x,y,1/2+z
x,-y,1/2+z
1/2+x,1/2+y,1/2+z
1/2-x,1/2-y,1/2+z
1/2+x,1/2-y,-z
1/2-x,1/2+y,-z
1/2-x,1/2-y,1/2-z
1/2+x,1/2+y,1/2-z
1/2-x,1/2+y,z
1/2+x,1/2-y,z
loop_
_atom_site_type_symbol
_atom_site_label
_atom_site_fract_x
_atom_site_fract_y
_atom_site_fract_z
Si Si1 0.206098 0.317347 0.214422
Si Si2 0.190277 0.159106 0.710657
Si Si3 0.718097 0.552803 0.710236
Si Si4 0.000000 0.500000 0.250000
Si Si5 0.054328 0.683568 0.212501
Si Si6 0.922973 0.573139 0.279894
Si Si7 0.128886 0.759382 0.795521
Si Si8 0.179814 0.426445 0.291422
O O1 0.259678 0.321039 0.279130
O O2 0.175387 0.274031 0.290460
O O3 0.182790 0.368216 0.270351
O O4 0.205682 0.314175 0.000000
O O5 0.191026 0.168458 0.500000
O O6 0.190962 0.101040 0.731717
O O7 0.146707 0.189656 0.784268
O O8 0.697526 0.500000 0.750000
O O9 0.722489 0.557589 0.500000
O O10 0.771217 0.554836 0.787690
O O11 0.961557 0.539569 0.189653
O O12 0.068221 0.629254 0.271125
O O13 0.088157 0.725877 0.285335
O O14 0.000000 0.692326 0.250000
O O15 0.061221 0.682678 0.000000
O O16 0.927458 0.569043 0.500000
O O17 0.870723 0.558268 0.223226
O O18 0.114822 0.768608 0.000000
O O19 0.179544 0.438517 0.500000
#
# Coordination Sequence:
#
# PCOD9525196 Si02
#       8
#    16  16  16   4  16  16  16  16
#     4  10  18  28  46  74 100 122 157 205 247 295
#     4   9  19  33  49  72 101 130 166 202 241 296
#     4  10  20  33  52  73 100 134 165 201 243 289
#     4  12  22  32  48  66  88 116 166 228 272 292
#     4  10  20  36  54  71  93 125 166 208 259 311
#     4  10  20  35  49  63  86 120 164 211 261 309
#     4  10  19  33  52  70  96 134 163 198 252 311
#     4   9  18  34  50  64  89 127 166 202 248 305
#
# _framework density 19.603235999999999
#
# number of rings (size 3 to 8) (size 9 to 14) (size 15 to 20)
#    0.000    2.207    2.069    1.448    0.966    2.207 
#    0.000    1.379    0.000    0.000    0.000    0.000 
#    0.000    0.552    0.000    6.345    0.000    1.931 
#
# Total GULP energy -323451.202243 kJ/mol
# GULP energy per Si atom -5576.744866 kJ/mol
# Density = 1.955862 g / cm^3
# Si number density = 19.603236 Si / 1000 Ang^3
#
#
#
# Elastic Constant Matrix: (Units=GPa)
#
#
# Indices 1 2 3 4 5 6 
#
# 1 87.1813 74.9368 8.5870 0.0000 0.0000 0.0000
# 2 74.9368 137.9777 -6.0910 0.0000 0.0000 0.0000
# 3 8.5870 -6.0910 54.0698 0.0000 0.0000 0.0000
# 4 0.0000 0.0000 0.0000 52.8803 0.0000 0.0000
# 5 0.0000 0.0000 0.0000 0.0000 7.0272 0.0000
# 6 0.0000 0.0000 0.0000 0.0000 0.0000 -86.8887
#
#
#
# Elastic Compliance Matrix: (Units=1/GPa)
#
#
# Indices 1 2 3 4 5 6 
#
# 1 0.022804 -0.012607 -0.005042 0.000000 0.000000 0.000000
# 2 -0.012607 0.014254 0.003608 0.000000 0.000000 0.000000
# 3 -0.005042 0.003608 0.019702 0.000000 0.000000 0.000000
# 4 0.000000 0.000000 0.000000 0.018911 0.000000 0.000000
# 5 0.000000 0.000000 0.000000 0.000000 0.142304 0.000000
# 6 0.000000 0.000000 0.000000 0.000000 0.000000 -0.011509
#
#
# Mechanical properties :
#
#
# Convention : Reuss Voigt Hill
#
# Bulk Modulus (GPa) = 34.87120 48.23272 41.55196
# Shear Modulus (GPa) = 20.48284 8.05684 14.26984
#
# Velocity S-wave (km/s) = 3.23595 2.02950 2.70095
# Velocity P-wave (km/s) = 5.63817 5.49088 5.56501
#
# Compressibility (1/GPa) = 0.02867696
#
# Stress axis : x y z
#
# Youngs Moduli (GPa) = 43.85265 70.15576 50.75693
#
# Poissons Ratio (x) = 0.88448 0.25590
# Poissons Ratio (y) = 0.55287 -0.18313
# Poissons Ratio (z) = 0.22109 -0.25312
#
# Static dielectric constant tensor:
#      x y z
#    x 1.695780 0.000000 0.000000 
#    y 0.000000 1.301850 0.000000 
#    z 0.000000 0.000000 1.056670 
# 
# From -- ./inp_files/7524.got.cif
#   From: 2010.05.17/outbox.cif.g08.bks.cpg/sg72_4_cif.got.tgz:7524.got - 2010.06.03 17:03:01.
