data_PCOD9525569
_publ_section_title
;
Structure prediction by ZEFSAII (Michael W. Deem and Ramdas Pophale) SiO2 
 PCOD9525569
Probable space group: I B A M
;
_chemical_formula_sum "Si O2"
_cell_formula_units_Z 60
_cell_length_a 14.375767
_cell_length_b 17.242615
_cell_length_c 14.328967
_cell_angle_alpha 90.000000
_cell_angle_beta 90.000000
_cell_angle_gamma 90.000000
_cell_volume 3551.804383
_symmetry_space_group_name_H-M "I B A M"
_symmetry_group_IT_number 72
_symmetry_cell_setting 'orthorhombic'
loop_
_space_group_symop_operation_xyz
x,y,z
-x,-y,z
x,-y,1/2-z
-x,y,1/2-z
-x,-y,-z
x,y,-z
-x,y,1/2+z
x,-y,1/2+z
1/2+x,1/2+y,1/2+z
1/2-x,1/2-y,1/2+z
1/2+x,1/2-y,-z
1/2-x,1/2+y,-z
1/2-x,1/2-y,1/2-z
1/2+x,1/2+y,1/2-z
1/2-x,1/2+y,z
1/2+x,1/2-y,z
loop_
_atom_site_type_symbol
_atom_site_label
_atom_site_fract_x
_atom_site_fract_y
_atom_site_fract_z
Si Si1 0.000000 0.000000 0.750000
Si Si2 0.716922 0.295284 0.500000
Si Si3 0.358113 0.432186 0.105117
Si Si4 0.378712 0.134310 0.000000
Si Si5 0.345913 0.998002 0.857849
Si Si6 0.413233 0.127844 0.500000
O O1 0.934718 0.948882 0.682312
O O2 0.672239 0.342726 0.412490
O O3 0.690042 0.206545 0.500000
O O4 0.826627 0.313526 0.500000
O O5 0.263215 0.477036 0.130428
O O6 0.387180 0.457964 0.000000
O O7 0.364092 0.078114 0.911404
O O8 0.485007 0.163429 0.000000
O O9 0.370592 0.000000 0.750000
O O10 0.400308 0.930177 0.912368
#
# Coordination Sequence:
#
# PCOD9525569 Si02
#       6
#     4   8  16   8  16   8
#     4  12  18  32  64  86 102 156 204 212 272 346
#     4   8  20  41  50  79 123 142 174 240 284 328
#     4   9  19  36  55  81 116 145 188 236 270 324
#     4  11  20  37  60  81 111 156 183 221 307 334
#     4  10  18  35  60  82 108 143 196 236 273 328
#     4   9  20  37  56  81 112 144 187 241 269 338
#
# _framework density 16.892823
#
# number of rings (size 3 to 8) (size 9 to 14) (size 15 to 20)
#    0.800    1.600    4.000    2.000    0.000    2.133 
#    4.800    8.000    0.000    0.000    0.000    0.000 
#    0.000    0.000    0.000    0.000    0.000    0.000 
#
# Total GULP energy -167050.327686 kJ/mol
# GULP energy per Si atom -5568.344256 kJ/mol
# Density = 1.685437 g / cm^3
# Si number density = 16.892823 Si / 1000 Ang^3
#
#
#
# Elastic Constant Matrix: (Units=GPa)
#
#
# Indices 1 2 3 4 5 6 
#
# 1 73.5888 42.7761 21.9402 0.0000 0.0000 0.0000
# 2 42.7761 92.4448 28.1477 0.0000 0.0000 0.0000
# 3 21.9402 28.1477 128.7878 0.0000 0.0000 0.0000
# 4 0.0000 0.0000 0.0000 4.0220 0.0000 0.0000
# 5 0.0000 0.0000 0.0000 0.0000 30.6986 0.0000
# 6 0.0000 0.0000 0.0000 0.0000 0.0000 13.2389
#
#
#
# Elastic Compliance Matrix: (Units=1/GPa)
#
#
# Indices 1 2 3 4 5 6 
#
# 1 0.018820 -0.008284 -0.001396 0.000000 0.000000 0.000000
# 2 -0.008284 0.015234 -0.001918 0.000000 0.000000 0.000000
# 3 -0.001396 -0.001918 0.008422 0.000000 0.000000 0.000000
# 4 0.000000 0.000000 0.000000 0.248633 0.000000 0.000000
# 5 0.000000 0.000000 0.000000 0.000000 0.032575 0.000000
# 6 0.000000 0.000000 0.000000 0.000000 0.000000 0.075535
#
#
# Mechanical properties :
#
#
# Convention : Reuss Voigt Hill
#
# Bulk Modulus (GPa) = 51.86468 53.39437 52.62953
# Shear Modulus (GPa) = 11.65930 23.05572 17.35751
#
# Velocity S-wave (km/s) = 2.63000 3.69836 3.20895
# Velocity P-wave (km/s) = 6.32388 7.06495 6.70466
#
# Compressibility (1/GPa) = 0.01928094
#
# Stress axis : x y z
#
# Youngs Moduli (GPa) = 53.13429 65.64120 118.73973
#
# Poissons Ratio (x) = 0.54374 0.16573
# Poissons Ratio (y) = 0.44014 0.22779
# Poissons Ratio (z) = 0.07416 0.12593
#
# Static dielectric constant tensor:
#      x y z
#    x 1.588100 0.000000 0.000000 
#    y 0.000000 1.541350 0.000000 
#    z 0.000000 0.000000 1.573200 
# 
# From -- ./inp_files/21281.got.cif
#   From: 2010.05.17/outbox.cif.g08.bks.cpg/sg72_11_cif.got.tgz:21281.got - 2010.06.03 17:03:01.
