data_PCOD9525807
_publ_section_title
;
Structure prediction by ZEFSAII (Michael W. Deem and Ramdas Pophale) SiO2 
 PCOD9525807
Probable space group: I B A M
;
_chemical_formula_sum "Si O2"
_cell_formula_units_Z 128
_cell_length_a 24.085446
_cell_length_b 12.730711
_cell_length_c 20.800952
_cell_angle_alpha 90.000000
_cell_angle_beta 90.000000
_cell_angle_gamma 90.000000
_cell_volume 6378.088835
_symmetry_space_group_name_H-M "I B A M"
_symmetry_group_IT_number 72
_symmetry_cell_setting 'orthorhombic'
loop_
_space_group_symop_operation_xyz
x,y,z
-x,-y,z
x,-y,1/2-z
-x,y,1/2-z
-x,-y,-z
x,y,-z
-x,y,1/2+z
x,-y,1/2+z
1/2+x,1/2+y,1/2+z
1/2-x,1/2-y,1/2+z
1/2+x,1/2-y,-z
1/2-x,1/2+y,-z
1/2-x,1/2-y,1/2-z
1/2+x,1/2+y,1/2-z
1/2-x,1/2+y,z
1/2+x,1/2-y,z
loop_
_atom_site_type_symbol
_atom_site_label
_atom_site_fract_x
_atom_site_fract_y
_atom_site_fract_z
Si Si1 0.844346 0.485826 0.827255
Si Si2 0.103934 0.111595 0.930180
Si Si3 0.015258 0.224188 0.426880
Si Si4 0.938823 0.050189 0.163847
Si Si5 0.894920 0.225396 0.240490
Si Si6 0.781643 0.719624 0.316452
Si Si7 0.038247 0.398846 0.670790
Si Si8 0.328044 0.217390 0.370356
O O1 0.853867 0.500000 0.750000
O O2 0.794034 0.403103 0.827891
O O3 0.902127 0.440661 0.853076
O O4 0.833302 0.592614 0.864720
O O5 0.146121 0.208088 0.923781
O O6 0.043409 0.165017 0.928875
O O7 0.102936 0.031106 0.870434
O O8 0.110398 0.058585 0.000000
O O9 0.033047 0.244448 0.500000
O O10 0.054700 0.145318 0.387841
O O11 0.010333 0.328324 0.384048
O O12 0.921091 0.111630 0.228397
O O13 0.000000 0.000000 0.170098
O O14 0.843395 0.234199 0.190390
O O15 0.940783 0.316222 0.226323
O O16 0.864993 0.245505 0.308019
O O17 0.750000 0.750000 0.250000
O O18 0.737312 0.759492 0.366885
O O19 0.000000 0.500000 0.684908
#
# Coordination Sequence:
#
# PCOD9525807 Si02
#       8
#    16  16  16  16  16  16  16  16
#     4  11  19  35  54  81 116 144 177 221 273 343
#     4  10  21  37  55  79 110 149 195 235 277 334
#     4   9  18  35  55  74 105 151 201 237 266 323
#     4   9  18  35  57  81 111 146 182 228 288 341
#     4   9  19  35  54  84 114 139 185 227 276 342
#     4   9  18  34  57  81 107 143 186 224 264 326
#     4  10  19  32  49  81 113 149 179 220 277 335
#     4  11  21  37  57  84 110 147 184 233 285 327
#
# _framework density 20.068707
#
# number of rings (size 3 to 8) (size 9 to 14) (size 15 to 20)
#    0.000    2.250    3.750    1.125    0.000    3.500 
#    2.250    7.500    0.000    9.750    0.000    0.000 
#    0.000    0.000    0.000    0.000    0.000    0.000 
#
# Total GULP energy -356622.118751 kJ/mol
# GULP energy per Si atom -5572.220605 kJ/mol
# Density = 2.002303 g / cm^3
# Si number density = 20.068707 Si / 1000 Ang^3
#
#
#
# Elastic Constant Matrix: (Units=GPa)
#
#
# Indices 1 2 3 4 5 6 
#
# 1 72.2674 27.4985 4.5362 0.0000 0.0000 0.0000
# 2 27.4985 128.8312 13.8029 0.0000 0.0000 0.0000
# 3 4.5362 13.8029 49.7798 0.0000 0.0000 0.0000
# 4 0.0000 0.0000 0.0000 15.8268 0.0000 0.0000
# 5 0.0000 0.0000 0.0000 0.0000 11.7310 0.0000
# 6 0.0000 0.0000 0.0000 0.0000 0.0000 34.9622
#
#
#
# Elastic Compliance Matrix: (Units=1/GPa)
#
#
# Indices 1 2 3 4 5 6 
#
# 1 0.015073 -0.003164 -0.000496 0.000000 0.000000 0.000000
# 2 -0.003164 0.008664 -0.002114 0.000000 0.000000 0.000000
# 3 -0.000496 -0.002114 0.020720 0.000000 0.000000 0.000000
# 4 0.000000 0.000000 0.000000 0.063184 0.000000 0.000000
# 5 0.000000 0.000000 0.000000 0.000000 0.085244 0.000000
# 6 0.000000 0.000000 0.000000 0.000000 0.000000 0.028602
#
#
# Mechanical properties :
#
#
# Convention : Reuss Voigt Hill
#
# Bulk Modulus (GPa) = 30.38780 38.06153 34.22466
# Shear Modulus (GPa) = 20.49139 26.17337 23.33238
#
# Velocity S-wave (km/s) = 3.19887 3.61527 3.41343
# Velocity P-wave (km/s) = 5.36828 6.03603 5.71192
#
# Compressibility (1/GPa) = 0.03290795
#
# Stress axis : x y z
#
# Youngs Moduli (GPa) = 66.34558 115.42094 48.26289
#
# Poissons Ratio (x) = 0.36520 0.02395
# Poissons Ratio (y) = 0.20992 0.10203
# Poissons Ratio (z) = 0.03292 0.24400
#
# Static dielectric constant tensor:
#      x y z
#    x 1.710770 0.000000 0.000000 
#    y 0.000000 1.638660 0.000000 
#    z 0.000000 0.000000 1.144210 
# 
# From -- ./inp_files/45810.got.cif
#   From: 2010.05.17/outbox.cif.g08.bks.cpg/sg72_23_cif.got.tgz:45810.got - 2010.06.03 17:03:01.
