data_PCOD9525308
_publ_section_title
;
Structure prediction by ZEFSAII (Michael W. Deem and Ramdas Pophale) SiO2 
 PCOD9525308
Probable space group: I B A M
;
_chemical_formula_sum "Si O2"
_cell_formula_units_Z 128
_cell_length_a 12.171465
_cell_length_b 27.959754
_cell_length_c 21.474332
_cell_angle_alpha 90.000000
_cell_angle_beta 90.000000
_cell_angle_gamma 90.000000
_cell_volume 7307.954988
_symmetry_space_group_name_H-M "I B A M"
_symmetry_group_IT_number 72
_symmetry_cell_setting 'orthorhombic'
loop_
_space_group_symop_operation_xyz
x,y,z
-x,-y,z
x,-y,1/2-z
-x,y,1/2-z
-x,-y,-z
x,y,-z
-x,y,1/2+z
x,-y,1/2+z
1/2+x,1/2+y,1/2+z
1/2-x,1/2-y,1/2+z
1/2+x,1/2-y,-z
1/2-x,1/2+y,-z
1/2-x,1/2-y,1/2-z
1/2+x,1/2+y,1/2-z
1/2-x,1/2+y,z
1/2+x,1/2-y,z
loop_
_atom_site_type_symbol
_atom_site_label
_atom_site_fract_x
_atom_site_fract_y
_atom_site_fract_z
Si Si1 0.672391 0.657597 0.215598
Si Si2 0.434010 0.953971 0.574970
Si Si3 0.554933 0.311892 0.166709
Si Si4 0.188120 0.977052 0.575610
Si Si5 0.689935 0.586729 0.109453
Si Si6 0.909398 0.298195 0.694571
Si Si7 0.417737 0.864210 0.926791
Si Si8 0.548817 0.388127 0.070335
O O1 0.576801 0.686095 0.177869
O O2 0.617349 0.655268 0.282758
O O3 0.686193 0.607781 0.179370
O O4 0.789217 0.684008 0.216651
O O5 0.437441 0.957561 0.500000
O O6 0.307336 0.956239 0.591994
O O7 0.493228 0.904721 0.589667
O O8 0.500000 0.000000 0.599960
O O9 0.591850 0.258123 0.179048
O O10 0.580104 0.338805 0.103203
O O11 0.179050 0.983566 0.500000
O O12 0.099695 0.937617 0.596358
O O13 0.183817 0.029803 0.604182
O O14 0.799859 0.609032 0.079511
O O15 0.581927 0.606485 0.075430
O O16 0.927971 0.324994 0.628055
O O17 0.000000 0.306478 0.750000
O O18 0.430779 0.849232 0.000000
O O19 0.587176 0.386175 0.000000
#
# Coordination Sequence:
#
# PCOD9525308 Si02
#       8
#    16  16  16  16  16  16  16  16
#     4   9  20  37  57  81 101 136 185 222 269 323
#     4   9  16  29  50  75 109 150 182 211 262 327
#     4  10  20  38  58  74 105 144 179 227 274 328
#     4  10  18  30  50  78 111 148 181 213 264 326
#     4  10  18  32  56  81 110 141 177 221 267 323
#     4  11  22  36  61  83 103 142 188 230 272 327
#     4  10  20  34  55  86 114 140 181 229 271 322
#     4  10  21  33  51  81 111 140 177 225 276 321
#
# _framework density 17.515160000000002
#
# number of rings (size 3 to 8) (size 9 to 14) (size 15 to 20)
#    0.000    2.125    2.500    1.875    0.000    2.500 
#    0.000    0.625    0.000    3.375    0.000    0.000 
#    0.000    0.000    0.000    0.000    0.000    0.000 
#
# Total GULP energy -356341.476267 kJ/mol
# GULP energy per Si atom -5567.835567 kJ/mol
# Density = 1.747529 g / cm^3
# Si number density = 17.515160 Si / 1000 Ang^3
#
#
#
# Elastic Constant Matrix: (Units=GPa)
#
#
# Indices 1 2 3 4 5 6 
#
# 1 77.4100 43.8549 29.0914 0.0000 0.0000 0.0000
# 2 43.8549 73.3169 50.5146 0.0000 0.0000 0.0000
# 3 29.0914 50.5146 70.7269 0.0000 0.0000 0.0000
# 4 0.0000 0.0000 0.0000 18.6946 0.0000 0.0000
# 5 0.0000 0.0000 0.0000 0.0000 12.2380 0.0000
# 6 0.0000 0.0000 0.0000 0.0000 0.0000 23.8806
#
#
#
# Elastic Compliance Matrix: (Units=1/GPa)
#
#
# Indices 1 2 3 4 5 6 
#
# 1 0.019553 -0.012117 0.000612 0.000000 0.000000 0.000000
# 2 -0.012117 0.034363 -0.019559 0.000000 0.000000 0.000000
# 3 0.000612 -0.019559 0.027857 0.000000 0.000000 0.000000
# 4 0.000000 0.000000 0.000000 0.053491 0.000000 0.000000
# 5 0.000000 0.000000 0.000000 0.000000 0.081712 0.000000
# 6 0.000000 0.000000 0.000000 0.000000 0.000000 0.041875
#
#
# Mechanical properties :
#
#
# Convention : Reuss Voigt Hill
#
# Bulk Modulus (GPa) = 50.90543 52.04175 51.47359
# Shear Modulus (GPa) = 15.26582 17.49549 16.38065
#
# Velocity S-wave (km/s) = 2.95545 3.16393 3.06147
# Velocity P-wave (km/s) = 6.38537 6.56690 6.47677
#
# Compressibility (1/GPa) = 0.01964427
#
# Stress axis : x y z
#
# Youngs Moduli (GPa) = 51.14278 29.10070 35.89814
#
# Poissons Ratio (x) = 0.35262 -0.02197
# Poissons Ratio (y) = 0.61972 0.70213
# Poissons Ratio (z) = -0.03129 0.56918
#
# Static dielectric constant tensor:
#      x y z
#    x 1.614320 0.000000 0.000000 
#    y 0.000000 1.584840 0.000000 
#    z 0.000000 0.000000 1.609810 
# 
# From -- ./inp_files/43676.got.cif
#   From: 2010.05.17/outbox.cif.g08.bks.cpg/sg72_22_cif.got.tgz:43676.got - 2010.06.03 17:03:01.
