data_PCOD9525720
_publ_section_title
;
Structure prediction by ZEFSAII (Michael W. Deem and Ramdas Pophale) SiO2 
 PCOD9525720
Probable space group: I B A M
;
_chemical_formula_sum "Si O2"
_cell_formula_units_Z 64
_cell_length_a 12.382026
_cell_length_b 23.854324
_cell_length_c 10.187122
_cell_angle_alpha 90.000000
_cell_angle_beta 90.000000
_cell_angle_gamma 90.000000
_cell_volume 3008.917863
_symmetry_space_group_name_H-M "I B A M"
_symmetry_group_IT_number 72
_symmetry_cell_setting 'orthorhombic'
loop_
_space_group_symop_operation_xyz
x,y,z
-x,-y,z
x,-y,1/2-z
-x,y,1/2-z
-x,-y,-z
x,y,-z
-x,y,1/2+z
x,-y,1/2+z
1/2+x,1/2+y,1/2+z
1/2-x,1/2-y,1/2+z
1/2+x,1/2-y,-z
1/2-x,1/2+y,-z
1/2-x,1/2-y,1/2-z
1/2+x,1/2+y,1/2-z
1/2-x,1/2+y,z
1/2+x,1/2-y,z
loop_
_atom_site_type_symbol
_atom_site_label
_atom_site_fract_x
_atom_site_fract_y
_atom_site_fract_z
Si Si1 0.328086 0.675976 0.346371
Si Si2 0.435470 0.940637 0.137008
Si Si3 0.094445 0.726502 0.655042
Si Si4 0.321921 0.547275 0.349204
O O1 0.358102 0.689415 0.500000
O O2 0.199078 0.686375 0.340422
O O3 0.373522 0.715749 0.231951
O O4 0.356320 0.611096 0.322278
O O5 0.500000 0.911043 0.250000
O O6 0.309702 0.951271 0.159633
O O7 0.500000 0.000000 0.125213
O O8 0.446364 0.909569 0.000000
O O9 0.068739 0.734899 0.500000
O O10 0.000000 0.705902 0.750000
O O11 0.361559 0.500000 0.250000
O O12 0.348633 0.533416 0.500000
#
# Coordination Sequence:
#
# PCOD9525720 Si02
#       4
#    16  16  16  16
#     4   9  20  37  56  81 113 148 189 231 274 332
#     4   9  15  24  37  56  87 130 172 205 239 293
#     4  10  20  37  60  84 110 142 185 236 289 335
#     4  10  19  31  47  71 106 146 181 217 263 317
#
# _framework density 21.270104
#
# number of rings (size 3 to 8) (size 9 to 14) (size 15 to 20)
#    0.000    2.500    2.500    0.750    0.000    3.000 
#    0.000    0.000    0.000    0.750    0.000    5.250 
#    0.000    0.000    0.000    0.000    0.000    0.000 
#
# Total GULP energy -178315.222900 kJ/mol
# GULP energy per Si atom -5572.350716 kJ/mol
# Density = 2.122169 g / cm^3
# Si number density = 21.270104 Si / 1000 Ang^3
#
#
#
# Elastic Constant Matrix: (Units=GPa)
#
#
# Indices 1 2 3 4 5 6 
#
# 1 42.2293 12.3872 20.0298 0.0000 0.0000 0.0000
# 2 12.3872 145.3540 78.6140 -0.0001 0.0000 0.0000
# 3 20.0298 78.6140 198.5253 -0.0003 0.0003 -0.0001
# 4 0.0000 -0.0001 -0.0003 17.5374 0.0001 0.0000
# 5 0.0000 0.0000 0.0003 0.0001 25.1150 0.0000
# 6 0.0000 0.0000 -0.0001 0.0000 0.0000 -1.3738
#
#
#
# Elastic Compliance Matrix: (Units=1/GPa)
#
#
# Indices 1 2 3 4 5 6 
#
# 1 0.024978 -0.000974 -0.002134 0.000000 0.000000 0.000000
# 2 -0.000974 0.008793 -0.003384 0.000000 0.000000 0.000000
# 3 -0.002134 -0.003384 0.006592 0.000000 0.000000 0.000000
# 4 0.000000 0.000000 0.000000 0.057021 0.000000 -0.000002
# 5 0.000000 0.000000 0.000000 0.000000 0.039817 0.000001
# 6 0.000000 0.000000 0.000000 -0.000002 0.000001 -0.727916
#
#
# Mechanical properties :
#
#
# Convention : Reuss Voigt Hill
#
# Bulk Modulus (GPa) = 36.52423 67.57451 52.04937
# Shear Modulus (GPa) = -8.79347 26.59422 8.90038
#
# Velocity S-wave (km/s) = -2.03548 3.53981 2.04781
# Velocity P-wave (km/s) = 3.41829 6.96747 5.48773
#
# Compressibility (1/GPa) = 0.02737909
#
# Stress axis : x y z
#
# Youngs Moduli (GPa) = 40.03459 113.72994 151.69150
#
# Poissons Ratio (x) = 0.11081 0.32376
# Poissons Ratio (y) = 0.03901 0.51325
# Poissons Ratio (z) = 0.08545 0.38481
#
# Static dielectric constant tensor:
#      x y z
#    x 1.834810 0.000000 0.000000 
#    y 0.000000 1.787530 0.000000 
#    z 0.000000 0.000000 1.895850 
# 
# From -- ./inp_files/12492.got.cif
#   From: 2010.05.17/outbox.cif.g08.bks.cpg/sg72_7_cif.got.tgz:12492.got - 2010.06.03 17:03:01.
