data_PCOD9525967
_publ_section_title
;
Structure prediction by ZEFSAII (Michael W. Deem and Ramdas Pophale) SiO2 
 PCOD9525967
Probable space group: I B A M
;
_chemical_formula_sum "Si O2"
_cell_formula_units_Z 112
_cell_length_a 19.400556
_cell_length_b 8.625302
_cell_length_c 28.725942
_cell_angle_alpha 90.000000
_cell_angle_beta 90.000000
_cell_angle_gamma 90.000000
_cell_volume 4806.874305
_symmetry_space_group_name_H-M "I B A M"
_symmetry_group_IT_number 72
_symmetry_cell_setting 'orthorhombic'
loop_
_space_group_symop_operation_xyz
x,y,z
-x,-y,z
x,-y,1/2-z
-x,y,1/2-z
-x,-y,-z
x,y,-z
-x,y,1/2+z
x,-y,1/2+z
1/2+x,1/2+y,1/2+z
1/2-x,1/2-y,1/2+z
1/2+x,1/2-y,-z
1/2-x,1/2+y,-z
1/2-x,1/2-y,1/2-z
1/2+x,1/2+y,1/2-z
1/2-x,1/2+y,z
1/2+x,1/2-y,z
loop_
_atom_site_type_symbol
_atom_site_label
_atom_site_fract_x
_atom_site_fract_y
_atom_site_fract_z
Si Si1 0.084328 0.295299 0.708064
Si Si2 0.192229 0.961196 0.798812
Si Si3 0.435326 0.296863 0.304215
Si Si4 0.908793 0.600598 0.393227
Si Si5 0.768190 0.535329 0.896008
Si Si6 0.541410 0.231040 0.089211
Si Si7 0.828722 0.832645 0.052785
O O1 0.079970 0.329826 0.763347
O O2 0.077653 0.405188 0.662979
O O3 0.018070 0.177979 0.702609
O O4 0.155783 0.205725 0.701186
O O5 0.126212 0.078597 0.799117
O O6 0.240914 0.967887 0.843294
O O7 0.228939 0.000000 0.750000
O O8 0.433567 0.256444 0.358041
O O9 0.827780 0.595624 0.400672
O O10 0.935636 0.446463 0.418779
O O11 0.958666 0.737001 0.411069
O O12 0.800929 0.696615 0.912970
O O13 0.705692 0.488570 0.929094
O O14 0.588699 0.336264 0.057531
O O15 0.809104 0.797699 0.000000
#
# Coordination Sequence:
#
# PCOD9525967 Si02
#       7
#    16  16  16  16  16  16  16
#     4   9  17  29  50  79 112 148 194 228 273 332
#     4  10  19  33  52  83 116 155 192 228 282 348
#     4   9  16  30  51  78 109 150 191 233 272 333
#     4   9  19  34  53  80 112 148 186 234 285 342
#     4  11  22  40  60  87 119 153 191 243 298 353
#     4   9  18  36  56  77 108 147 192 237 287 338
#     4  11  23  41  64  87 112 150 197 247 301 352
#
# _framework density 23.299966000000001
#
# number of rings (size 3 to 8) (size 9 to 14) (size 15 to 20)
#    0.000    2.286    1.429    1.714    0.000    2.286 
#    5.143   11.429    0.000    0.000    0.000    4.000 
#    0.000    0.000    0.000    0.000    0.000    0.000 
#
# Total GULP energy -311964.192233 kJ/mol
# GULP energy per Si atom -5570.789147 kJ/mol
# Density = 2.324693 g / cm^3
# Si number density = 23.299966 Si / 1000 Ang^3
#
#
#
# Elastic Constant Matrix: (Units=GPa)
#
#
# Indices 1 2 3 4 5 6 
#
# 1 90.0195 -2.1578 30.1485 0.0000 0.0000 0.0000
# 2 -2.1578 6.8182 -6.0640 0.0000 0.0000 0.0000
# 3 30.1485 -6.0640 74.4604 0.0000 0.0000 0.0000
# 4 0.0000 0.0000 0.0000 -6.7453 0.0000 0.0000
# 5 0.0000 0.0000 0.0000 0.0000 10.2715 0.0000
# 6 0.0000 0.0000 0.0000 0.0000 0.0000 15.2270
#
#
#
# Elastic Compliance Matrix: (Units=1/GPa)
#
#
# Indices 1 2 3 4 5 6 
#
# 1 0.012854 -0.000605 -0.005254 0.000000 0.000000 0.000000
# 2 -0.000605 0.158148 0.013124 0.000000 0.000000 0.000000
# 3 -0.005254 0.013124 0.016626 0.000000 0.000000 0.000000
# 4 0.000000 0.000000 0.000000 -0.148252 0.000000 0.000000
# 5 0.000000 0.000000 0.000000 0.000000 0.097356 0.000000
# 6 0.000000 0.000000 0.000000 0.000000 0.000000 0.065673
#
#
# Mechanical properties :
#
#
# Convention : Reuss Voigt Hill
#
# Bulk Modulus (GPa) = 4.94659 23.90571 14.42615
# Shear Modulus (GPa) = 19.58796 13.70876 16.64836
#
# Velocity S-wave (km/s) = 2.90260 2.42824 2.67596
# Velocity P-wave (km/s) = 3.65528 4.25959 3.96895
#
# Compressibility (1/GPa) = 0.20215947
#
# Stress axis : x y z
#
# Youngs Moduli (GPa) = 77.79862 6.32321 60.14699
#
# Poissons Ratio (x) = 0.00382 0.31599
# Poissons Ratio (y) = 0.04703 -0.78939
# Poissons Ratio (z) = 0.40872 -0.08299
#
# Static dielectric constant tensor:
#      x y z
#    x 1.926170 0.000000 0.000000 
#    y 0.000000 1.942360 0.000000 
#    z 0.000000 0.000000 1.850420 
# 
# From -- ./inp_files/45430.got.cif
#   From: 2010.05.17/outbox.cif.g08.bks.cpg/sg72_23_cif.got.tgz:45430.got - 2010.06.03 17:03:01.
