data_PCOD9525557
_publ_section_title
;
Structure prediction by ZEFSAII (Michael W. Deem and Ramdas Pophale) SiO2 
 PCOD9525557
Probable space group: I B A M
;
_chemical_formula_sum "Si O2"
_cell_formula_units_Z 112
_cell_length_a 11.028730
_cell_length_b 24.801834
_cell_length_c 22.778477
_cell_angle_alpha 90.000000
_cell_angle_beta 90.000000
_cell_angle_gamma 90.000000
_cell_volume 6230.659015
_symmetry_space_group_name_H-M "I B A M"
_symmetry_group_IT_number 72
_symmetry_cell_setting 'orthorhombic'
loop_
_space_group_symop_operation_xyz
x,y,z
-x,-y,z
x,-y,1/2-z
-x,y,1/2-z
-x,-y,-z
x,y,-z
-x,y,1/2+z
x,-y,1/2+z
1/2+x,1/2+y,1/2+z
1/2-x,1/2-y,1/2+z
1/2+x,1/2-y,-z
1/2-x,1/2+y,-z
1/2-x,1/2-y,1/2-z
1/2+x,1/2+y,1/2-z
1/2-x,1/2+y,z
1/2+x,1/2-y,z
loop_
_atom_site_type_symbol
_atom_site_label
_atom_site_fract_x
_atom_site_fract_y
_atom_site_fract_z
Si Si1 0.510811 0.387003 0.670714
Si Si2 0.858102 0.647534 0.246527
Si Si3 0.367296 0.329167 0.065890
Si Si4 0.318557 0.704742 0.830677
Si Si5 0.878711 0.676951 0.123360
Si Si6 0.871148 0.297857 0.069999
Si Si7 0.815570 0.061032 0.269120
O O1 0.574361 0.371284 0.610411
O O2 0.433972 0.332339 0.683619
O O3 0.609805 0.406467 0.718175
O O4 0.404987 0.431971 0.675180
O O5 0.778164 0.693686 0.278506
O O6 0.842936 0.638676 0.177009
O O7 0.808804 0.593408 0.277460
O O8 0.000000 0.659346 0.250000
O O9 0.222271 0.329128 0.073748
O O10 0.398898 0.266326 0.078936
O O11 0.404724 0.340695 0.000000
O O12 0.360790 0.765030 0.844529
O O13 0.246322 0.688464 0.890598
O O14 0.012018 0.672419 0.096877
O O15 0.855264 0.306190 0.000000
O O16 0.800868 0.000000 0.250000
#
# Coordination Sequence:
#
# PCOD9525557 Si02
#       7
#    16  16  16  16  16  16  16
#     4  10  18  35  55  79 106 138 176 221 272 326
#     4  11  21  35  55  81 111 138 180 228 279 329
#     4  10  20  32  50  78 109 149 187 217 250 310
#     4  10  21  32  49  80 113 147 183 217 267 320
#     4  11  19  34  49  76 113 154 184 217 253 319
#     4  10  20  33  49  72 113 158 191 216 248 302
#     4  10  22  39  61  81 104 135 177 232 288 339
#
# _framework density 17.975626999999999
#
# number of rings (size 3 to 8) (size 9 to 14) (size 15 to 20)
#    0.000    1.714    4.286    1.714    0.000    1.429 
#    5.143    0.000    0.000    1.714    0.000    0.000 
#    0.000    3.714    0.000    0.000    0.000    0.000 
#
# Total GULP energy -311794.689948 kJ/mol
# GULP energy per Si atom -5567.762321 kJ/mol
# Density = 1.793471 g / cm^3
# Si number density = 17.975627 Si / 1000 Ang^3
#
#
#
# Elastic Constant Matrix: (Units=GPa)
#
#
# Indices 1 2 3 4 5 6 
#
# 1 61.9954 9.9104 10.8544 0.0000 0.0000 0.0000
# 2 9.9104 51.2890 11.4869 0.0000 0.0000 0.0000
# 3 10.8544 11.4869 86.0428 0.0000 0.0000 0.0000
# 4 0.0000 0.0000 0.0000 14.5749 0.0000 0.0000
# 5 0.0000 0.0000 0.0000 0.0000 21.1312 0.0000
# 6 0.0000 0.0000 0.0000 0.0000 0.0000 12.8310
#
#
#
# Elastic Compliance Matrix: (Units=1/GPa)
#
#
# Indices 1 2 3 4 5 6 
#
# 1 0.016896 -0.002873 -0.001748 0.000000 0.000000 0.000000
# 2 -0.002873 0.020587 -0.002386 0.000000 0.000000 0.000000
# 3 -0.001748 -0.002386 0.012161 0.000000 0.000000 0.000000
# 4 0.000000 0.000000 0.000000 0.068611 0.000000 0.000000
# 5 0.000000 0.000000 0.000000 0.000000 0.047323 0.000000
# 6 0.000000 0.000000 0.000000 0.000000 0.000000 0.077936
#
#
# Mechanical properties :
#
#
# Convention : Reuss Voigt Hill
#
# Bulk Modulus (GPa) = 28.06651 29.31451 28.69051
# Shear Modulus (GPa) = 18.55944 20.84579 19.70262
#
# Velocity S-wave (km/s) = 3.21671 3.40909 3.31429
# Velocity P-wave (km/s) = 5.42621 5.64262 5.53547
#
# Compressibility (1/GPa) = 0.03562965
#
# Stress axis : x y z
#
# Youngs Moduli (GPa) = 59.18720 48.57459 82.22913
#
# Poissons Ratio (x) = 0.13957 0.14372
# Poissons Ratio (y) = 0.17006 0.19619
# Poissons Ratio (z) = 0.10345 0.11590
#
# Static dielectric constant tensor:
#      x y z
#    x 1.671600 0.000000 0.000000 
#    y 0.000000 1.605580 0.000000 
#    z 0.000000 0.000000 1.664390 
# 
# From -- ./inp_files/37322.got.cif
#   From: 2010.05.17/outbox.cif.g08.bks.cpg/sg72_19_cif.got.tgz:37322.got - 2010.06.03 17:03:01.
