data_PCOD9525075
_publ_section_title
;
Structure prediction by ZEFSAII (Michael W. Deem and Ramdas Pophale) SiO2 
 PCOD9525075
Probable space group: I B A M
;
_chemical_formula_sum "Si O2"
_cell_formula_units_Z 96
_cell_length_a 23.861051
_cell_length_b 11.085195
_cell_length_c 14.226538
_cell_angle_alpha 90.000000
_cell_angle_beta 90.000000
_cell_angle_gamma 90.000000
_cell_volume 3762.981944
_symmetry_space_group_name_H-M "I B A M"
_symmetry_group_IT_number 72
_symmetry_cell_setting 'orthorhombic'
loop_
_space_group_symop_operation_xyz
x,y,z
-x,-y,z
x,-y,1/2-z
-x,y,1/2-z
-x,-y,-z
x,y,-z
-x,y,1/2+z
x,-y,1/2+z
1/2+x,1/2+y,1/2+z
1/2-x,1/2-y,1/2+z
1/2+x,1/2-y,-z
1/2-x,1/2+y,-z
1/2-x,1/2-y,1/2-z
1/2+x,1/2+y,1/2-z
1/2-x,1/2+y,z
1/2+x,1/2-y,z
loop_
_atom_site_type_symbol
_atom_site_label
_atom_site_fract_x
_atom_site_fract_y
_atom_site_fract_z
Si Si1 0.244264 0.811240 0.608353
Si Si2 0.944725 0.753386 0.320759
Si Si3 0.434931 0.002907 0.136324
Si Si4 0.581150 0.496114 0.359863
Si Si5 0.614522 0.747460 0.368470
Si Si6 0.788515 0.936239 0.386745
O O1 0.264196 0.820443 0.500000
O O2 0.178527 0.775478 0.606431
O O3 0.273606 0.694892 0.652768
O O4 0.246450 0.947032 0.648167
O O5 0.923330 0.642380 0.384325
O O6 0.951086 0.873058 0.383734
O O7 0.895593 0.762456 0.243207
O O8 0.000000 0.732831 0.250000
O O9 0.404767 0.881615 0.102803
O O10 0.500000 0.000000 0.111439
O O11 0.429669 0.000000 0.250000
O O12 0.565723 0.500000 0.250000
O O13 0.578457 0.630629 0.400807
O O14 0.646664 0.464859 0.370190
O O15 0.779754 0.932449 0.500000
#
# Coordination Sequence:
#
# PCOD9525075 Si02
#       6
#    16  16  16  16  16  16
#     4   9  18  33  53  71  91 125 167 204 244 295
#     4  10  17  30  47  71  97 130 162 196 242 292
#     4   9  14  27  43  65  94 122 158 192 231 288
#     4   9  19  31  46  75 104 125 161 208 250 284
#     4   9  17  29  46  70  95 124 158 200 240 290
#     4   9  18  35  54  71  97 132 166 203 248 302
#
# _framework density 25.511683999999999
#
# number of rings (size 3 to 8) (size 9 to 14) (size 15 to 20)
#    0.000    2.833    3.333    0.000    0.000    4.333 
#    0.000   10.000    0.000    1.500    0.000    8.167 
#    0.000    0.000    0.000    0.000    0.000    0.000 
#
# Total GULP energy -267340.577586 kJ/mol
# GULP energy per Si atom -5569.595366 kJ/mol
# Density = 2.545362 g / cm^3
# Si number density = 25.511684 Si / 1000 Ang^3
#
#
#
# Elastic Constant Matrix: (Units=GPa)
#
#
# Indices 1 2 3 4 5 6 
#
# 1 49.8415 40.3516 -2.2686 0.0000 0.0000 0.0000
# 2 40.3516 260.9594 23.4517 0.0000 0.0000 0.0000
# 3 -2.2686 23.4517 90.3739 0.0000 0.0000 0.0000
# 4 0.0000 0.0000 0.0000 -20.4504 0.0000 0.0000
# 5 0.0000 0.0000 0.0000 0.0000 29.7864 0.0000
# 6 0.0000 0.0000 0.0000 0.0000 0.0000 33.7314
#
#
#
# Elastic Compliance Matrix: (Units=1/GPa)
#
#
# Indices 1 2 3 4 5 6 
#
# 1 0.023144 -0.003718 0.001546 0.000000 0.000000 0.000000
# 2 -0.003718 0.004521 -0.001266 0.000000 0.000000 0.000000
# 3 0.001546 -0.001266 0.011433 0.000000 0.000000 0.000000
# 4 0.000000 0.000000 0.000000 -0.048899 0.000000 0.000000
# 5 0.000000 0.000000 0.000000 0.000000 0.033572 0.000000
# 6 0.000000 0.000000 0.000000 0.000000 0.000000 0.029646
#
#
# Mechanical properties :
#
#
# Convention : Reuss Voigt Hill
#
# Bulk Modulus (GPa) = 31.03636 58.24935 44.64285
# Shear Modulus (GPa) = 70.38964 31.25616 50.82290
#
# Velocity S-wave (km/s) = 5.25843 3.50404 4.46818
# Velocity P-wave (km/s) = 7.00428 6.26523 6.64504
#
# Compressibility (1/GPa) = 0.03222028
#
# Stress axis : x y z
#
# Youngs Moduli (GPa) = 43.20836 221.20663 87.46941
#
# Poissons Ratio (x) = 0.82235 -0.13520
# Poissons Ratio (y) = 0.16063 0.11077
# Poissons Ratio (z) = -0.06679 0.28014
#
# Static dielectric constant tensor:
#      x y z
#    x 2.001480 0.000000 0.000000 
#    y 0.000000 2.270560 0.000000 
#    z 0.000000 0.000000 1.964690 
# 
# From -- ./inp_files/40855.got.cif
#   From: 2010.05.17/outbox.cif.g08.bks.cpg/sg72_21_cif.got.tgz:40855.got - 2010.06.03 17:03:01.
