data_PCOD9525683
_publ_section_title
;
Structure prediction by ZEFSAII (Michael W. Deem and Ramdas Pophale) SiO2 
 PCOD9525683
Probable space group: I B A M
;
_chemical_formula_sum "Si O2"
_cell_formula_units_Z 104
_cell_length_a 18.905244
_cell_length_b 20.465048
_cell_length_c 15.166838
_cell_angle_alpha 90.000000
_cell_angle_beta 90.000000
_cell_angle_gamma 90.000000
_cell_volume 5867.999965
_symmetry_space_group_name_H-M "I B A M"
_symmetry_group_IT_number 72
_symmetry_cell_setting 'orthorhombic'
loop_
_space_group_symop_operation_xyz
x,y,z
-x,-y,z
x,-y,1/2-z
-x,y,1/2-z
-x,-y,-z
x,y,-z
-x,y,1/2+z
x,-y,1/2+z
1/2+x,1/2+y,1/2+z
1/2-x,1/2-y,1/2+z
1/2+x,1/2-y,-z
1/2-x,1/2+y,-z
1/2-x,1/2-y,1/2-z
1/2+x,1/2+y,1/2-z
1/2-x,1/2+y,z
1/2+x,1/2-y,z
loop_
_atom_site_type_symbol
_atom_site_label
_atom_site_fract_x
_atom_site_fract_y
_atom_site_fract_z
Si Si1 0.354259 0.707659 0.899464
Si Si2 0.256711 0.327477 0.902572
Si Si3 0.676660 0.000000 0.750000
Si Si4 0.144568 0.288729 0.403285
Si Si5 0.043728 0.440366 0.157955
Si Si6 0.247440 0.624672 0.209763
Si Si7 0.015506 0.295813 0.145845
O O1 0.302701 0.770863 0.896087
O O2 0.317422 0.654309 0.836094
O O3 0.430278 0.737830 0.875759
O O4 0.354893 0.683408 0.000000
O O5 0.328553 0.285260 0.896691
O O6 0.252246 0.369362 0.815135
O O7 0.251318 0.358105 0.000000
O O8 0.621940 0.037010 0.815351
O O9 0.724276 0.050408 0.695356
O O10 0.168512 0.313402 0.500000
O O11 0.183144 0.330792 0.328125
O O12 0.061069 0.290761 0.397424
O O13 0.044969 0.367682 0.118980
O O14 0.000000 0.500000 0.112441
O O15 0.000000 0.432359 0.250000
O O16 0.000000 0.293970 0.250000
#
# Coordination Sequence:
#
# PCOD9525683 Si02
#       7
#    16  16   8  16  16  16  16
#     4  10  20  32  48  72 103 134 168 214 259 300
#     4   9  18  32  50  74  99 126 164 210 258 303
#     4  10  19  30  50  72  93 136 184 210 242 304
#     4  10  19  31  51  78 106 134 165 200 246 311
#     4   8  15  27  43  70 105 137 171 205 241 295
#     4  11  19  34  52  70 100 138 173 211 259 300
#     4  11  18  29  51  77 105 139 174 207 251 300
#
# _framework density 17.723244999999999
#
# number of rings (size 3 to 8) (size 9 to 14) (size 15 to 20)
#    0.000    2.308    0.000    9.231    0.000    0.000 
#    0.000    1.538    0.000   12.000    0.000    4.846 
#    0.000    7.385    0.000    0.000    0.000    0.000 
#
# Total GULP energy -289724.575983 kJ/mol
# GULP energy per Si atom -5571.626461 kJ/mol
# Density = 1.768291 g / cm^3
# Si number density = 17.723245 Si / 1000 Ang^3
#
#
#
# Elastic Constant Matrix: (Units=GPa)
#
#
# Indices 1 2 3 4 5 6 
#
# 1 88.1219 48.1839 24.2087 0.0000 0.0000 0.0000
# 2 48.1839 52.3388 22.3160 0.0000 0.0000 0.0000
# 3 24.2087 22.3160 93.9851 0.0000 0.0000 0.0000
# 4 0.0000 0.0000 0.0000 -45.9815 0.0000 0.0000
# 5 0.0000 0.0000 0.0000 0.0000 9.2461 0.0000
# 6 0.0000 0.0000 0.0000 0.0000 0.0000 21.5384
#
#
#
# Elastic Compliance Matrix: (Units=1/GPa)
#
#
# Indices 1 2 3 4 5 6 
#
# 1 0.022934 -0.020689 -0.000995 0.000000 0.000000 0.000000
# 2 -0.020689 0.039922 -0.004150 0.000000 0.000000 0.000000
# 3 -0.000995 -0.004150 0.011882 0.000000 0.000000 0.000000
# 4 0.000000 0.000000 0.000000 -0.021748 0.000000 0.000000
# 5 0.000000 0.000000 0.000000 0.000000 0.108154 0.000000
# 6 0.000000 0.000000 0.000000 0.000000 0.000000 0.046429
#
#
# Mechanical properties :
#
#
# Convention : Reuss Voigt Hill
#
# Bulk Modulus (GPa) = 43.34669 47.09589 45.22129
# Shear Modulus (GPa) = 18.73150 6.27642 12.50396
#
# Velocity S-wave (km/s) = 3.25451 1.88389 2.65903
# Velocity P-wave (km/s) = 6.21555 5.60024 5.91590
#
# Compressibility (1/GPa) = 0.02306981
#
# Stress axis : x y z
#
# Youngs Moduli (GPa) = 43.60410 25.04864 84.16334
#
# Poissons Ratio (x) = 0.51823 0.08373
# Poissons Ratio (y) = 0.90212 0.34929
# Poissons Ratio (z) = 0.04338 0.10396
#
# Static dielectric constant tensor:
#      x y z
#    x 1.626960 0.000000 0.000000 
#    y 0.000000 1.618620 0.000000 
#    z 0.000000 0.000000 1.607210 
# 
# From -- ./inp_files/23485.got.cif
#   From: 2010.05.17/outbox.cif.g08.bks.cpg/sg72_12_cif.got.tgz:23485.got - 2010.06.03 17:03:01.
