data_PCOD9525726
_publ_section_title
;
Structure prediction by ZEFSAII (Michael W. Deem and Ramdas Pophale) SiO2 
 PCOD9525726
Probable space group: I B A M
;
_chemical_formula_sum "Si O2"
_cell_formula_units_Z 80
_cell_length_a 19.500911
_cell_length_b 27.113373
_cell_length_c 8.523083
_cell_angle_alpha 90.000000
_cell_angle_beta 90.000000
_cell_angle_gamma 90.000000
_cell_volume 4506.456328
_symmetry_space_group_name_H-M "I B A M"
_symmetry_group_IT_number 72
_symmetry_cell_setting 'orthorhombic'
loop_
_space_group_symop_operation_xyz
x,y,z
-x,-y,z
x,-y,1/2-z
-x,y,1/2-z
-x,-y,-z
x,y,-z
-x,y,1/2+z
x,-y,1/2+z
1/2+x,1/2+y,1/2+z
1/2-x,1/2-y,1/2+z
1/2+x,1/2-y,-z
1/2-x,1/2+y,-z
1/2-x,1/2-y,1/2-z
1/2+x,1/2+y,1/2-z
1/2-x,1/2+y,z
1/2+x,1/2-y,z
loop_
_atom_site_type_symbol
_atom_site_label
_atom_site_fract_x
_atom_site_fract_y
_atom_site_fract_z
Si Si1 0.422226 0.645182 0.812025
Si Si2 0.327898 0.946677 0.310454
Si Si3 0.578177 0.748113 0.812041
Si Si4 0.669362 0.446734 0.810660
Si Si5 0.577715 0.143411 0.310371
O O1 0.500000 0.640990 0.750000
O O2 0.391692 0.697679 0.756231
O O3 0.377416 0.598708 0.757806
O O4 0.424452 0.645480 0.000000
O O5 0.329055 0.947270 0.500000
O O6 0.248630 0.940130 0.260400
O O7 0.375079 0.901582 0.255841
O O8 0.351589 0.000000 0.250000
O O9 0.500000 0.748749 0.750000
O O10 0.605870 0.802116 0.765726
O O11 0.577912 0.744601 0.000000
O O12 0.645575 0.500000 0.750000
O O13 0.668289 0.447553 0.000000
O O14 0.500000 0.138436 0.250000
O O15 0.575533 0.142382 0.500000
#
# Coordination Sequence:
#
# PCOD9525726 Si02
#       5
#    16  16  16  16  16
#     4  10  19  31  48  71  95 121 152 191 232 273
#     4   9  18  34  51  68  92 124 157 191 230 274
#     4   9  16  28  46  68  93 123 153 185 227 274
#     4   9  19  34  51  68  91 123 157 190 230 275
#     4   9  18  31  49  71  96 123 154 191 230 270
#
# _framework density 17.752306999999998
#
# number of rings (size 3 to 8) (size 9 to 14) (size 15 to 20)
#    0.000    2.800    0.000    2.400    0.000    4.000 
#    0.000    5.000    0.000    0.000    0.000    0.000 
#    0.000    0.000    0.000    0.000    0.000    0.000 
#
# Total GULP energy -222841.240501 kJ/mol
# GULP energy per Si atom -5571.031013 kJ/mol
# Density = 1.771190 g / cm^3
# Si number density = 17.752307 Si / 1000 Ang^3
#
#
#
# Elastic Constant Matrix: (Units=GPa)
#
#
# Indices 1 2 3 4 5 6 
#
# 1 50.1246 81.6226 13.0905 0.0000 0.0000 0.0000
# 2 81.6226 227.0414 31.8124 0.0000 0.0000 0.0000
# 3 13.0905 31.8124 21.6799 0.0000 0.0000 0.0000
# 4 0.0000 0.0000 0.0000 29.7106 0.0000 0.0000
# 5 0.0000 0.0000 0.0000 0.0000 14.6687 0.0000
# 6 0.0000 0.0000 0.0000 0.0000 0.0000 -7.1418
#
#
#
# Elastic Compliance Matrix: (Units=1/GPa)
#
#
# Indices 1 2 3 4 5 6 
#
# 1 0.048492 -0.016781 -0.004656 0.000000 0.000000 0.000000
# 2 -0.016781 0.011351 -0.006524 0.000000 0.000000 0.000000
# 3 -0.004656 -0.006524 0.058511 0.000000 0.000000 0.000000
# 4 0.000000 0.000000 0.000000 0.033658 0.000000 0.000000
# 5 0.000000 0.000000 0.000000 0.000000 0.068172 0.000000
# 6 0.000000 0.000000 0.000000 0.000000 0.000000 -0.140021
#
#
# Mechanical properties :
#
#
# Convention : Reuss Voigt Hill
#
# Bulk Modulus (GPa) = 16.01764 61.32190 38.66977
# Shear Modulus (GPa) = 31.86808 18.93552 25.40180
#
# Velocity S-wave (km/s) = 4.24152 3.26951 3.78683
# Velocity P-wave (km/s) = 5.74715 6.99078 6.39925
#
# Compressibility (1/GPa) = 0.06243118
#
# Stress axis : x y z
#
# Youngs Moduli (GPa) = 20.62205 88.09506 17.09083
#
# Poissons Ratio (x) = 1.47829 0.07958
# Poissons Ratio (y) = 0.34605 0.11151
# Poissons Ratio (z) = 0.09603 0.57476
#
# Static dielectric constant tensor:
#      x y z
#    x 1.576930 0.000000 0.000000 
#    y 0.000000 1.642720 0.000000 
#    z 0.000000 0.000000 1.608530 
# 
# From -- ./inp_files/4811.got.cif
#   From: 2010.05.17/outbox.cif.g08.bks.cpg/sg72_3_cif.got.tgz:4811.got - 2010.06.03 17:03:01.
