data_PCOD9525222
_publ_section_title
;
Structure prediction by ZEFSAII (Michael W. Deem and Ramdas Pophale) SiO2 
 PCOD9525222
Probable space group: I B A M
;
_chemical_formula_sum "Si O2"
_cell_formula_units_Z 80
_cell_length_a 25.015841
_cell_length_b 23.922669
_cell_length_c 8.689738
_cell_angle_alpha 90.000000
_cell_angle_beta 90.000000
_cell_angle_gamma 90.000000
_cell_volume 5200.336201
_symmetry_space_group_name_H-M "I B A M"
_symmetry_group_IT_number 72
_symmetry_cell_setting 'orthorhombic'
loop_
_space_group_symop_operation_xyz
x,y,z
-x,-y,z
x,-y,1/2-z
-x,y,1/2-z
-x,-y,-z
x,y,-z
-x,y,1/2+z
x,-y,1/2+z
1/2+x,1/2+y,1/2+z
1/2-x,1/2-y,1/2+z
1/2+x,1/2-y,-z
1/2-x,1/2+y,-z
1/2-x,1/2-y,1/2-z
1/2+x,1/2+y,1/2-z
1/2-x,1/2+y,z
1/2+x,1/2-y,z
loop_
_atom_site_type_symbol
_atom_site_label
_atom_site_fract_x
_atom_site_fract_y
_atom_site_fract_z
Si Si1 0.164114 0.439993 0.317150
Si Si2 0.944551 0.738125 0.683923
Si Si3 0.229634 0.660622 0.317178
Si Si4 0.556852 0.887463 0.684078
Si Si5 0.671323 0.731156 0.815652
O O1 0.179390 0.500000 0.250000
O O2 0.159109 0.442414 0.500000
O O3 0.206553 0.392675 0.269473
O O4 0.107103 0.421865 0.245807
O O5 0.949043 0.731636 0.500000
O O6 0.937160 0.676402 0.756405
O O7 0.891362 0.773326 0.718770
O O8 0.000000 0.761103 0.750000
O O9 0.225274 0.651547 0.500000
O O10 0.290251 0.679194 0.278444
O O11 0.194377 0.714539 0.270176
O O12 0.500000 0.907980 0.750000
O O13 0.555797 0.887956 0.500000
O O14 0.676667 0.741127 0.000000
#
# Coordination Sequence:
#
# PCOD9525222 Si02
#       5
#    16  16  16  16  16
#     4  12  24  38  52  69  93 124 162 206 246 288
#     4  10  18  29  46  70  99 130 160 196 236 280
#     4  10  19  32  50  72  94 123 161 199 242 287
#     4  11  21  34  50  69  92 125 163 204 243 284
#     4   9  18  31  49  71  98 127 158 196 238 287
#
# _framework density 15.383621
#
# number of rings (size 3 to 8) (size 9 to 14) (size 15 to 20)
#    0.000    1.600    2.000    6.000    0.000    2.000 
#    0.000    2.000    0.000    0.000    0.000    0.000 
#    0.000    0.800    0.000    9.200    0.000    2.800 
#
# Total GULP energy -223296.605855 kJ/mol
# GULP energy per Si atom -5582.415146 kJ/mol
# Density = 1.534861 g / cm^3
# Si number density = 15.383621 Si / 1000 Ang^3
#
#
#
# Elastic Constant Matrix: (Units=GPa)
#
#
# Indices 1 2 3 4 5 6 
#
# 1 112.5467 51.3720 52.9185 0.0000 0.0000 0.0000
# 2 51.3720 66.8072 39.5595 0.0000 0.0000 0.0000
# 3 52.9185 39.5595 104.8738 0.0000 0.0000 0.0000
# 4 0.0000 0.0000 0.0000 19.6686 0.0000 0.0000
# 5 0.0000 0.0000 0.0000 0.0000 24.8586 0.0000
# 6 0.0000 0.0000 0.0000 0.0000 0.0000 15.5408
#
#
#
# Elastic Compliance Matrix: (Units=1/GPa)
#
#
# Indices 1 2 3 4 5 6 
#
# 1 0.014964 -0.009059 -0.004133 0.000000 0.000000 0.000000
# 2 -0.009059 0.024757 -0.004768 0.000000 0.000000 0.000000
# 3 -0.004133 -0.004768 0.013419 0.000000 0.000000 0.000000
# 4 0.000000 0.000000 0.000000 0.050842 0.000000 0.000000
# 5 0.000000 0.000000 0.000000 0.000000 0.040228 0.000000
# 6 0.000000 0.000000 0.000000 0.000000 0.000000 0.064347
#
#
# Mechanical properties :
#
#
# Convention : Reuss Voigt Hill
#
# Bulk Modulus (GPa) = 58.07041 63.54752 60.80897
# Shear Modulus (GPa) = 19.98263 21.37212 20.67738
#
# Velocity S-wave (km/s) = 3.60801 3.73135 3.67020
# Velocity P-wave (km/s) = 7.42881 7.74352 7.58780
#
# Compressibility (1/GPa) = 0.01722048
#
# Stress axis : x y z
#
# Youngs Moduli (GPa) = 66.82880 40.39182 74.51881
#
# Poissons Ratio (x) = 0.36590 0.30802
# Poissons Ratio (y) = 0.60539 0.35529
# Poissons Ratio (z) = 0.27623 0.19258
#
# Static dielectric constant tensor:
#      x y z
#    x 1.541920 0.000000 0.000000 
#    y 0.000000 1.480650 0.000000 
#    z 0.000000 0.000000 1.515380 
# 
# From -- ./inp_files/5030.got.cif
#   From: 2010.05.17/outbox.cif.g08.bks.cpg/sg72_3_cif.got.tgz:5030.got - 2010.06.03 17:03:01.
