data_PCOD9525449
_publ_section_title
;
Structure prediction by ZEFSAII (Michael W. Deem and Ramdas Pophale) SiO2 
 PCOD9525449
Probable space group: I B A M
;
_chemical_formula_sum "Si O2"
_cell_formula_units_Z 96
_cell_length_a 20.405499
_cell_length_b 15.391236
_cell_length_c 17.481773
_cell_angle_alpha 90.000000
_cell_angle_beta 90.000000
_cell_angle_gamma 90.000000
_cell_volume 5490.427911
_symmetry_space_group_name_H-M "I B A M"
_symmetry_group_IT_number 72
_symmetry_cell_setting 'orthorhombic'
loop_
_space_group_symop_operation_xyz
x,y,z
-x,-y,z
x,-y,1/2-z
-x,y,1/2-z
-x,-y,-z
x,y,-z
-x,y,1/2+z
x,-y,1/2+z
1/2+x,1/2+y,1/2+z
1/2-x,1/2-y,1/2+z
1/2+x,1/2-y,-z
1/2-x,1/2+y,-z
1/2-x,1/2-y,1/2-z
1/2+x,1/2+y,1/2-z
1/2-x,1/2+y,z
1/2+x,1/2-y,z
loop_
_atom_site_type_symbol
_atom_site_label
_atom_site_fract_x
_atom_site_fract_y
_atom_site_fract_z
Si Si1 0.190296 0.885382 0.092151
Si Si2 0.303043 0.993783 0.659465
Si Si3 0.959043 0.917263 0.593372
Si Si4 0.831871 0.311616 0.092298
Si Si5 0.482505 0.224937 0.092917
Si Si6 0.438268 0.936777 0.908269
O O1 0.246067 0.946514 0.124899
O O2 0.117398 0.916559 0.115485
O O3 0.196404 0.783258 0.112996
O O4 0.192701 0.888720 0.000000
O O5 0.373029 0.029524 0.630785
O O6 0.300067 0.000000 0.750000
O O7 0.298767 0.894244 0.631032
O O8 0.960188 0.917781 0.500000
O O9 0.988815 0.824541 0.617947
O O10 0.000000 0.000000 0.620197
O O11 0.909424 0.308202 0.112709
O O12 0.828023 0.321141 0.000000
O O13 0.537932 0.158160 0.118581
O O14 0.484155 0.224329 0.000000
O O15 0.500000 0.000000 0.894726
O O16 0.427110 0.935546 0.000000
#
# Coordination Sequence:
#
# PCOD9525449 Si02
#       6
#    16  16  16  16  16  16
#     4   9  19  36  58  80 105 142 187 228 270 328
#     4  12  24  35  51  79 115 152 179 222 275 338
#     4   8  14  28  53  83 107 125 163 226 283 320
#     4   9  17  35  59  77 101 141 184 224 275 323
#     4   8  14  27  50  77 103 132 164 218 279 319
#     4  10  18  32  55  78 104 138 184 231 269 319
#
# _framework density 17.484977000000001
#
# number of rings (size 3 to 8) (size 9 to 14) (size 15 to 20)
#    0.000    2.667    1.667    3.500    0.000    1.000 
#    3.000    0.000    0.000    0.500    0.000    0.000 
#    0.000    0.000    0.000    0.000    0.000    0.000 
#
# Total GULP energy -267575.741959 kJ/mol
# GULP energy per Si atom -5574.494624 kJ/mol
# Density = 1.744518 g / cm^3
# Si number density = 17.484977 Si / 1000 Ang^3
#
#
#
# Elastic Constant Matrix: (Units=GPa)
#
#
# Indices 1 2 3 4 5 6 
#
# 1 90.4500 90.2511 32.6942 0.0000 0.0000 0.0000
# 2 90.2511 182.0036 47.7450 0.0000 0.0000 0.0000
# 3 32.6942 47.7450 28.0340 0.0000 0.0000 0.0000
# 4 0.0000 0.0000 0.0000 1.2517 0.0000 0.0000
# 5 0.0000 0.0000 0.0000 0.0000 -40.3455 0.0000
# 6 0.0000 0.0000 0.0000 0.0000 0.0000 34.4451
#
#
#
# Elastic Compliance Matrix: (Units=1/GPa)
#
#
# Indices 1 2 3 4 5 6 
#
# 1 0.024720 -0.008487 -0.014375 0.000000 0.000000 0.000000
# 2 -0.008487 0.012846 -0.011979 0.000000 0.000000 0.000000
# 3 -0.014375 -0.011979 0.072838 0.000000 0.000000 0.000000
# 4 0.000000 0.000000 0.000000 0.798927 0.000000 0.000000
# 5 0.000000 0.000000 0.000000 0.000000 -0.024786 0.000000
# 6 0.000000 0.000000 0.000000 0.000000 0.000000 0.029032
#
#
# Mechanical properties :
#
#
# Convention : Reuss Voigt Hill
#
# Bulk Modulus (GPa) = 24.55765 71.31871 47.93818
# Shear Modulus (GPa) = 5.01588 7.72341 6.36965
#
# Velocity S-wave (km/s) = 1.69556 2.10399 1.91072
# Velocity P-wave (km/s) = 4.23187 6.83955 5.68719
#
# Compressibility (1/GPa) = 0.04072051
#
# Stress axis : x y z
#
# Youngs Moduli (GPa) = 40.45234 77.84807 13.72915
#
# Poissons Ratio (x) = 0.66072 0.19736
# Poissons Ratio (y) = 0.34333 0.16447
# Poissons Ratio (z) = 0.58151 0.93256
#
# Static dielectric constant tensor:
#      x y z
#    x 1.569270 0.000000 0.000000 
#    y 0.000000 1.619370 0.000000 
#    z 0.000000 0.000000 1.573450 
# 
# From -- ./inp_files/21868.got.cif
#   From: 2010.05.17/outbox.cif.g08.bks.cpg/sg72_11_cif.got.tgz:21868.got - 2010.06.03 17:03:01.
