data_PCOD9525531
_publ_section_title
;
Structure prediction by ZEFSAII (Michael W. Deem and Ramdas Pophale) SiO2 
 PCOD9525531
Probable space group: I B A M
;
_chemical_formula_sum "Si O2"
_cell_formula_units_Z 116
_cell_length_a 25.693730
_cell_length_b 22.915967
_cell_length_c 10.126433
_cell_angle_alpha 90.000000
_cell_angle_beta 90.000000
_cell_angle_gamma 90.000000
_cell_volume 5962.410017
_symmetry_space_group_name_H-M "I B A M"
_symmetry_group_IT_number 72
_symmetry_cell_setting 'orthorhombic'
loop_
_space_group_symop_operation_xyz
x,y,z
-x,-y,z
x,-y,1/2-z
-x,y,1/2-z
-x,-y,-z
x,y,-z
-x,y,1/2+z
x,-y,1/2+z
1/2+x,1/2+y,1/2+z
1/2-x,1/2-y,1/2+z
1/2+x,1/2-y,-z
1/2-x,1/2+y,-z
1/2-x,1/2-y,1/2-z
1/2+x,1/2+y,1/2-z
1/2-x,1/2+y,z
1/2+x,1/2-y,z
loop_
_atom_site_type_symbol
_atom_site_label
_atom_site_fract_x
_atom_site_fract_y
_atom_site_fract_z
Si Si1 0.411625 0.195481 0.644568
Si Si2 0.808043 0.727044 0.720336
Si Si3 0.575284 0.096709 0.646453
Si Si4 0.451916 0.674118 0.154496
Si Si5 0.780668 0.051504 0.844523
Si Si6 0.695228 0.094362 0.645926
Si Si7 0.500000 0.000000 0.250000
Si Si8 0.863105 0.155336 0.145126
O O1 0.418794 0.169902 0.500000
O O2 0.350247 0.211182 0.665364
O O3 0.430378 0.148960 0.750574
O O4 0.442610 0.255938 0.654968
O O5 0.750000 0.750000 0.750000
O O6 0.802903 0.664942 0.648968
O O7 0.837039 0.780577 0.649291
O O8 0.568573 0.121220 0.500000
O O9 0.635180 0.076414 0.658968
O O10 0.536841 0.043289 0.668417
O O11 0.500000 0.660117 0.250000
O O12 0.401718 0.649608 0.231666
O O13 0.456635 0.656571 0.000000
O O14 0.728225 0.070288 0.767759
O O15 0.818676 0.106976 0.842005
O O16 0.802025 0.000000 0.750000
O O17 0.773775 0.036956 0.000000
O O18 0.714189 0.075997 0.500000
O O19 0.888709 0.148760 0.000000
#
# Coordination Sequence:
#
# PCOD9525531 Si02
#       8
#    16  16  16  16  16  16   4  16
#     4   9  21  37  57  86 119 155 195 243 297 363
#     4  10  18  34  57  93 126 161 197 242 302 369
#     4  10  24  43  60  81 109 149 202 259 318 370
#     4  10  21  37  60  91 122 158 196 238 295 356
#     4  11  24  41  61  88 121 164 206 246 298 356
#     4  10  21  38  61  89 119 157 201 254 312 372
#     4  12  26  44  64  86 106 152 220 282 330 372
#     4  10  21  38  60  90 125 161 202 248 299 362
#
# _framework density 19.455220000000001
#
# number of rings (size 3 to 8) (size 9 to 14) (size 15 to 20)
#    0.000    1.931    1.379    1.448    1.931    9.379 
#    0.000    0.000    0.000    0.414    0.000    2.897 
#    0.000    0.000    0.000    0.000    0.000    0.000 
#
# Total GULP energy -323425.133053 kJ/mol
# GULP energy per Si atom -5576.295397 kJ/mol
# Density = 1.941094 g / cm^3
# Si number density = 19.455220 Si / 1000 Ang^3
#
#
#
# Elastic Constant Matrix: (Units=GPa)
#
#
# Indices 1 2 3 4 5 6 
#
# 1 89.9009 27.1564 50.9882 0.0000 0.0000 0.0000
# 2 27.1564 79.5854 41.6431 0.0000 0.0000 0.0000
# 3 50.9882 41.6431 184.2531 0.0000 0.0000 0.0000
# 4 0.0000 0.0000 0.0000 13.6506 0.0000 0.0000
# 5 0.0000 0.0000 0.0000 0.0000 10.6378 0.0000
# 6 0.0000 0.0000 0.0000 0.0000 0.0000 29.5610
#
#
#
# Elastic Compliance Matrix: (Units=1/GPa)
#
#
# Indices 1 2 3 4 5 6 
#
# 1 0.013830 -0.003081 -0.003131 0.000000 0.000000 0.000000
# 2 -0.003081 0.014937 -0.002523 0.000000 0.000000 0.000000
# 3 -0.003131 -0.002523 0.006864 0.000000 0.000000 0.000000
# 4 0.000000 0.000000 0.000000 0.073257 0.000000 0.000000
# 5 0.000000 0.000000 0.000000 0.000000 0.094004 0.000000
# 6 0.000000 0.000000 0.000000 0.000000 0.000000 0.033828
#
#
# Mechanical properties :
#
#
# Convention : Reuss Voigt Hill
#
# Bulk Modulus (GPa) = 55.06443 65.92387 60.49415
# Shear Modulus (GPa) = 19.21283 26.36667 22.78975
#
# Velocity S-wave (km/s) = 3.14593 3.68536 3.42628
# Velocity P-wave (km/s) = 6.44674 7.21580 6.84208
#
# Compressibility (1/GPa) = 0.01816055
#
# Stress axis : x y z
#
# Youngs Moduli (GPa) = 72.30855 66.94930 145.68808
#
# Poissons Ratio (x) = 0.20626 0.45612
# Poissons Ratio (y) = 0.22277 0.36761
# Poissons Ratio (z) = 0.22638 0.16893
#
# Static dielectric constant tensor:
#      x y z
#    x 1.693570 0.000000 0.000000 
#    y 0.000000 1.662790 0.000000 
#    z 0.000000 0.000000 1.698630 
# 
# From -- ./inp_files/8429.got.cif
#   From: 2010.05.17/outbox.cif.g08.bks.cpg/sg72_5_cif.got.tgz:8429.got - 2010.06.03 17:03:01.
