data_PCOD9525924
_publ_section_title
;
Structure prediction by ZEFSAII (Michael W. Deem and Ramdas Pophale) SiO2 
 PCOD9525924
Probable space group: I B A M
;
_chemical_formula_sum "Si O2"
_cell_formula_units_Z 88
_cell_length_a 16.922271
_cell_length_b 30.002501
_cell_length_c 8.704576
_cell_angle_alpha 90.000000
_cell_angle_beta 90.000000
_cell_angle_gamma 90.000000
_cell_volume 4419.404221
_symmetry_space_group_name_H-M "I B A M"
_symmetry_group_IT_number 72
_symmetry_cell_setting 'orthorhombic'
loop_
_space_group_symop_operation_xyz
x,y,z
-x,-y,z
x,-y,1/2-z
-x,y,1/2-z
-x,-y,-z
x,y,-z
-x,y,1/2+z
x,-y,1/2+z
1/2+x,1/2+y,1/2+z
1/2-x,1/2-y,1/2+z
1/2+x,1/2-y,-z
1/2-x,1/2+y,-z
1/2-x,1/2-y,1/2-z
1/2+x,1/2+y,1/2-z
1/2-x,1/2+y,z
1/2+x,1/2-y,z
loop_
_atom_site_type_symbol
_atom_site_label
_atom_site_fract_x
_atom_site_fract_y
_atom_site_fract_z
Si Si1 0.261549 0.602555 0.183117
Si Si2 0.000000 0.620482 0.750000
Si Si3 0.382046 0.044727 0.829363
Si Si4 0.361340 0.179515 0.816597
Si Si5 0.915441 0.864870 0.682439
Si Si6 0.412499 0.733206 0.815673
O O1 0.196949 0.566681 0.240593
O O2 0.216901 0.650086 0.200130
O O3 0.343638 0.603316 0.270909
O O4 0.274007 0.596386 0.000000
O O5 0.053185 0.583987 0.839172
O O6 0.070672 0.655161 0.714026
O O7 0.409888 0.000000 0.750000
O O8 0.360738 0.031230 0.000000
O O9 0.355974 0.229815 0.758822
O O10 0.383743 0.178011 0.000000
O O11 0.921629 0.859490 0.500000
O O12 0.896952 0.816850 0.759090
O O13 0.000000 0.879254 0.750000
O O14 0.500000 0.743994 0.750000
O O15 0.411518 0.735102 0.000000
#
# Coordination Sequence:
#
# PCOD9525924 Si02
#       6
#    16   8  16  16  16  16
#     4   9  20  39  58  80 111 145 184 231 286 339
#     4  10  19  32  56  82 116 158 200 234 271 324
#     4  10  22  38  58  85 117 154 191 235 284 336
#     4  10  20  34  53  78 112 153 194 237 279 324
#     4  11  22  38  60  83 108 141 184 231 285 343
#     4  11  21  33  52  77 110 150 192 236 280 327
#
# _framework density 19.912185999999998
#
# number of rings (size 3 to 8) (size 9 to 14) (size 15 to 20)
#    0.000    1.818    0.909    6.273    0.000    5.091 
#    0.000    5.455    0.000    0.545    0.000    3.818 
#    0.000    0.000    0.000    0.000    0.000    0.000 
#
# Total GULP energy -245119.039827 kJ/mol
# GULP energy per Si atom -5570.887269 kJ/mol
# Density = 1.986686 g / cm^3
# Si number density = 19.912186 Si / 1000 Ang^3
#
#
#
# Elastic Constant Matrix: (Units=GPa)
#
#
# Indices 1 2 3 4 5 6 
#
# 1 110.0264 27.0536 40.6112 0.0011 -0.0001 0.0001
# 2 27.0536 37.8293 21.4242 0.0018 0.0008 0.0003
# 3 40.6112 21.4242 85.9176 0.0037 0.0013 0.0008
# 4 0.0011 0.0018 0.0037 4.3509 0.0002 0.0004
# 5 -0.0001 0.0008 0.0013 0.0002 9.0171 -0.0007
# 6 0.0001 0.0003 0.0008 0.0004 -0.0007 12.9216
#
#
#
# Elastic Compliance Matrix: (Units=1/GPa)
#
#
# Indices 1 2 3 4 5 6 
#
# 1 0.012193 -0.006353 -0.004179 0.000003 0.000001 0.000000
# 2 -0.006353 0.034092 -0.005498 -0.000008 -0.000002 0.000000
# 3 -0.004179 -0.005498 0.014986 -0.000009 -0.000002 -0.000001
# 4 0.000003 -0.000008 -0.000009 0.229838 -0.000005 -0.000006
# 5 0.000001 -0.000002 -0.000002 -0.000005 0.110901 0.000006
# 6 0.000000 0.000000 -0.000001 -0.000006 0.000006 0.077390
#
#
# Mechanical properties :
#
#
# Convention : Reuss Voigt Hill
#
# Bulk Modulus (GPa) = 34.23536 45.77237 40.00386
# Shear Modulus (GPa) = 9.59331 14.90355 12.24843
#
# Velocity S-wave (km/s) = 2.19733 2.73877 2.48286
# Velocity P-wave (km/s) = 4.86500 5.74789 5.32477
#
# Compressibility (1/GPa) = 0.02920957
#
# Stress axis : x y z
#
# Youngs Moduli (GPa) = 82.01095 29.33261 66.73110
#
# Poissons Ratio (x) = 0.18636 0.27889
# Poissons Ratio (y) = 0.52103 0.36689
# Poissons Ratio (z) = 0.34275 0.16127
#
# Static dielectric constant tensor:
#      x y z
#    x 1.718110 0.000000 0.000030 
#    y 0.000000 1.703240 0.000020 
#    z 0.000030 0.000020 -0.286110 
# 
# From -- ./inp_files/5114.got.cif
#   From: 2010.05.17/outbox.cif.g08.bks.cpg/sg72_3_cif.got.tgz:5114.got - 2010.06.03 17:03:01.
