data_PCOD9525033
_publ_section_title
;
Structure prediction by ZEFSAII (Michael W. Deem and Ramdas Pophale) SiO2 
 PCOD9525033
Probable space group: I B A M
;
_chemical_formula_sum "Si O2"
_cell_formula_units_Z 88
_cell_length_a 6.947041
_cell_length_b 29.506410
_cell_length_c 17.232267
_cell_angle_alpha 90.000000
_cell_angle_beta 90.000000
_cell_angle_gamma 90.000000
_cell_volume 3532.308691
_symmetry_space_group_name_H-M "I B A M"
_symmetry_group_IT_number 72
_symmetry_cell_setting 'orthorhombic'
loop_
_space_group_symop_operation_xyz
x,y,z
-x,-y,z
x,-y,1/2-z
-x,y,1/2-z
-x,-y,-z
x,y,-z
-x,y,1/2+z
x,-y,1/2+z
1/2+x,1/2+y,1/2+z
1/2-x,1/2-y,1/2+z
1/2+x,1/2-y,-z
1/2-x,1/2+y,-z
1/2-x,1/2-y,1/2-z
1/2+x,1/2+y,1/2-z
1/2-x,1/2+y,z
1/2+x,1/2-y,z
loop_
_atom_site_type_symbol
_atom_site_label
_atom_site_fract_x
_atom_site_fract_y
_atom_site_fract_z
Si Si1 0.304343 0.928667 0.500000
Si Si2 0.819872 0.125281 0.349865
Si Si3 0.731862 0.899678 0.683068
Si Si4 0.220829 0.984047 0.085559
Si Si5 0.634224 0.815569 0.588133
Si Si6 0.425326 0.715433 0.910834
O O1 0.246280 0.893544 0.431625
O O2 0.328216 0.969548 0.433734
O O3 0.715103 0.105322 0.274761
O O4 0.813597 0.180010 0.356752
O O5 0.043127 0.110538 0.337595
O O6 0.702833 0.949590 0.648646
O O7 0.614557 0.860330 0.639132
O O8 0.211913 0.959132 0.000000
O O9 0.000000 0.000000 0.101690
O O10 0.569129 0.824627 0.500000
O O11 0.556081 0.767156 0.616650
O O12 0.862027 0.805133 0.584557
O O13 0.348887 0.717686 0.000000
#
# Coordination Sequence:
#
# PCOD9525033 Si02
#       6
#     8  16  16  16  16  16
#     4  10  17  28  40  56  88 127 154 191 235 282
#     4  10  18  27  42  60  90 123 157 190 234 284
#     4  10  18  27  40  65  89 122 157 194 236 280
#     4   9  15  25  39  57  86 122 156 187 231 282
#     4   9  18  30  50  68  96 128 160 197 239 280
#     4   9  17  31  48  68  92 129 163 193 234 286
#
# _framework density 24.912883999999998
#
# number of rings (size 3 to 8) (size 9 to 14) (size 15 to 20)
#    0.545    2.000    2.727    0.545    1.273    1.455 
#    0.000    0.000    0.000    0.000    0.000    0.000 
#    0.000    2.909    0.000    3.273    0.364    0.000 
#
# Total GULP energy -245077.746134 kJ/mol
# GULP energy per Si atom -5569.948776 kJ/mol
# Density = 2.485618 g / cm^3
# Si number density = 24.912884 Si / 1000 Ang^3
#
#
#
# Elastic Constant Matrix: (Units=GPa)
#
#
# Indices 1 2 3 4 5 6 
#
# 1 68.0258 27.4753 44.5364 0.0000 0.0000 0.0000
# 2 27.4753 121.4920 101.6839 0.0000 0.0000 0.0000
# 3 44.5364 101.6839 180.1663 0.0000 0.0000 0.0000
# 4 0.0000 0.0000 0.0000 22.4921 0.0000 0.0000
# 5 0.0000 0.0000 0.0000 0.0000 16.6856 0.0000
# 6 0.0000 0.0000 0.0000 0.0000 0.0000 18.6746
#
#
#
# Elastic Compliance Matrix: (Units=1/GPa)
#
#
# Indices 1 2 3 4 5 6 
#
# 1 0.017565 -0.000641 -0.003980 0.000000 0.000000 0.000000
# 2 -0.000641 0.015623 -0.008659 0.000000 0.000000 0.000000
# 3 -0.003980 -0.008659 0.011421 0.000000 0.000000 0.000000
# 4 0.000000 0.000000 0.000000 0.044460 0.000000 0.000000
# 5 0.000000 0.000000 0.000000 0.000000 0.059932 0.000000
# 6 0.000000 0.000000 0.000000 0.000000 0.000000 0.053549
#
#
# Mechanical properties :
#
#
# Convention : Reuss Voigt Hill
#
# Bulk Modulus (GPa) = 55.40476 79.67505 67.53990
# Shear Modulus (GPa) = 21.26502 24.63635 22.95068
#
# Velocity S-wave (km/s) = 2.92477 3.14809 3.03848
# Velocity P-wave (km/s) = 5.80460 6.72792 6.28324
#
# Compressibility (1/GPa) = 0.01804899
#
# Stress axis : x y z
#
# Youngs Moduli (GPa) = 56.93124 64.00669 87.55431
#
# Poissons Ratio (x) = 0.04103 0.34849
# Poissons Ratio (y) = 0.03649 0.75815
# Poissons Ratio (z) = 0.22660 0.55425
#
# Static dielectric constant tensor:
#      x y z
#    x 2.207080 0.000000 0.000000 
#    y 0.000000 1.953100 0.000000 
#    z 0.000000 0.000000 1.889120 
# 
# From -- ./inp_files/29745.got.cif
#   From: 2010.05.17/outbox.cif.g08.bks.cpg/sg72_15_cif.got.tgz:29745.got - 2010.06.03 17:03:01.
