data_PCOD9525977
_publ_section_title
;
Structure prediction by ZEFSAII (Michael W. Deem and Ramdas Pophale) SiO2 
 PCOD9525977
Probable space group: I B A M
;
_chemical_formula_sum "Si O2"
_cell_formula_units_Z 80
_cell_length_a 31.194773
_cell_length_b 8.172327
_cell_length_c 15.321178
_cell_angle_alpha 90.000000
_cell_angle_beta 90.000000
_cell_angle_gamma 90.000000
_cell_volume 3905.887440
_symmetry_space_group_name_H-M "I B A M"
_symmetry_group_IT_number 72
_symmetry_cell_setting 'orthorhombic'
loop_
_space_group_symop_operation_xyz
x,y,z
-x,-y,z
x,-y,1/2-z
-x,y,1/2-z
-x,-y,-z
x,y,-z
-x,y,1/2+z
x,-y,1/2+z
1/2+x,1/2+y,1/2+z
1/2-x,1/2-y,1/2+z
1/2+x,1/2-y,-z
1/2-x,1/2+y,-z
1/2-x,1/2-y,1/2-z
1/2+x,1/2+y,1/2-z
1/2-x,1/2+y,z
1/2+x,1/2-y,z
loop_
_atom_site_type_symbol
_atom_site_label
_atom_site_fract_x
_atom_site_fract_y
_atom_site_fract_z
Si Si1 0.696453 0.563341 0.897193
Si Si2 0.724345 0.873144 0.812411
Si Si3 0.050418 0.688667 0.106385
Si Si4 0.049086 0.322317 0.893543
Si Si5 0.897232 0.009081 0.392785
O O1 0.697473 0.755475 0.873804
O O2 0.738681 0.473573 0.861914
O O3 0.652015 0.489775 0.862995
O O4 0.696987 0.544256 0.000000
O O5 0.750000 0.750000 0.750000
O O6 0.699872 0.000000 0.750000
O O7 0.063285 0.504682 0.134080
O O8 0.078843 0.842291 0.135131
O O9 0.000464 0.706497 0.131728
O O10 0.051535 0.690196 0.000000
O O11 0.077978 0.171542 0.864081
O O12 0.049725 0.322418 0.000000
O O13 0.897350 0.008478 0.500000
#
# Coordination Sequence:
#
# PCOD9525977 Si02
#       5
#    16  16  16  16  16
#     4  10  19  33  53  80 106 131 173 226 277 319
#     4   9  19  37  56  71  97 141 175 211 261 334
#     4   8  13  22  36  56  90 138 176 197 241 313
#     4   8  13  22  36  56  90 138 176 198 241 311
#     4   9  16  25  39  66 100 130 164 214 264 306
#
# _framework density 20.481902000000002
#
# number of rings (size 3 to 8) (size 9 to 14) (size 15 to 20)
#    0.000    3.200    0.000    2.400    0.000    2.400 
#    7.200    0.000    0.000    0.000    0.000    0.000 
#    0.000   28.800    0.000    0.000    0.000    0.200 
#
# Total GULP energy -222971.278650 kJ/mol
# GULP energy per Si atom -5574.281966 kJ/mol
# Density = 2.043528 g / cm^3
# Si number density = 20.481902 Si / 1000 Ang^3
#
#
#
# Elastic Constant Matrix: (Units=GPa)
#
#
# Indices 1 2 3 4 5 6 
#
# 1 71.0249 55.7165 6.1674 0.0000 0.0000 0.0000
# 2 55.7165 134.9751 14.3138 0.0000 0.0000 0.0000
# 3 6.1674 14.3138 40.6333 0.0000 0.0000 0.0000
# 4 0.0000 0.0000 0.0000 15.9800 0.0000 0.0000
# 5 0.0000 0.0000 0.0000 0.0000 -14.2354 0.0000
# 6 0.0000 0.0000 0.0000 0.0000 0.0000 7.5342
#
#
#
# Elastic Compliance Matrix: (Units=1/GPa)
#
#
# Indices 1 2 3 4 5 6 
#
# 1 0.020823 -0.008581 -0.000138 0.000000 0.000000 0.000000
# 2 -0.008581 0.011232 -0.002654 0.000000 0.000000 0.000000
# 3 -0.000138 -0.002654 0.025566 0.000000 0.000000 0.000000
# 4 0.000000 0.000000 0.000000 0.062578 0.000000 0.000000
# 5 0.000000 0.000000 0.000000 0.000000 -0.070248 0.000000
# 6 0.000000 0.000000 0.000000 0.000000 0.000000 0.132727
#
#
# Mechanical properties :
#
#
# Convention : Reuss Voigt Hill
#
# Bulk Modulus (GPa) = 28.67338 44.33649 36.50493
# Shear Modulus (GPa) = 23.03608 13.21815 18.12712
#
# Velocity S-wave (km/s) = 3.35730 2.54315 2.97817
# Velocity P-wave (km/s) = 5.39058 5.50610 5.44865
#
# Compressibility (1/GPa) = 0.03487556
#
# Stress axis : x y z
#
# Youngs Moduli (GPa) = 48.02392 89.02826 39.11398
#
# Poissons Ratio (x) = 0.76394 0.00539
# Poissons Ratio (y) = 0.41209 0.10382
# Poissons Ratio (z) = 0.00662 0.23631
#
# Static dielectric constant tensor:
#      x y z
#    x 2.197620 0.000000 0.000000 
#    y 0.000000 1.736110 0.000000 
#    z 0.000000 0.000000 1.769110 
# 
# From -- ./inp_files/33753.got.cif
#   From: 2010.05.17/outbox.cif.g08.bks.cpg/sg72_17_cif.got.tgz:33753.got - 2010.06.03 17:03:01.
