data_PCOD9525337
_publ_section_title
;
Structure prediction by ZEFSAII (Michael W. Deem and Ramdas Pophale) SiO2 
 PCOD9525337
Probable space group: I B A M
;
_chemical_formula_sum "Si O2"
_cell_formula_units_Z 80
_cell_length_a 14.930949
_cell_length_b 17.622718
_cell_length_c 17.365538
_cell_angle_alpha 90.000000
_cell_angle_beta 90.000000
_cell_angle_gamma 90.000000
_cell_volume 4569.288148
_symmetry_space_group_name_H-M "I B A M"
_symmetry_group_IT_number 72
_symmetry_cell_setting 'orthorhombic'
loop_
_space_group_symop_operation_xyz
x,y,z
-x,-y,z
x,-y,1/2-z
-x,y,1/2-z
-x,-y,-z
x,y,-z
-x,y,1/2+z
x,-y,1/2+z
1/2+x,1/2+y,1/2+z
1/2-x,1/2-y,1/2+z
1/2+x,1/2-y,-z
1/2-x,1/2+y,-z
1/2-x,1/2-y,1/2-z
1/2+x,1/2+y,1/2-z
1/2-x,1/2+y,z
1/2+x,1/2-y,z
loop_
_atom_site_type_symbol
_atom_site_label
_atom_site_fract_x
_atom_site_fract_y
_atom_site_fract_z
Si Si1 0.736242 0.673383 0.411514
Si Si2 0.628676 0.276402 0.319660
Si Si3 0.911872 0.633777 0.208656
Si Si4 0.543380 0.247825 0.912074
Si Si5 0.227272 0.083117 0.240915
O O1 0.758058 0.653280 0.500000
O O2 0.801239 0.739735 0.379788
O O3 0.635298 0.705351 0.409634
O O4 0.742510 0.606945 0.348058
O O5 0.613392 0.211141 0.255633
O O6 0.534266 0.286688 0.361893
O O7 0.668633 0.350625 0.279996
O O8 0.937755 0.665361 0.125186
O O9 0.823613 0.584018 0.216089
O O10 0.000000 0.601408 0.250000
O O11 0.513908 0.241095 0.000000
O O12 0.186816 0.000000 0.250000
#
# Coordination Sequence:
#
# PCOD9525337 Si02
#       5
#    16  16  16  16  16
#     4  10  19  35  55  78 107 138 183 241 278 316
#     4  10  18  34  54  78 104 141 189 223 274 329
#     4   9  17  33  57  77 103 135 185 234 270 323
#     4  10  18  30  55  83 102 131 183 241 278 309
#     4  11  21  35  53  80 115 153 184 216 280 357
#
# _framework density 17.508198
#
# number of rings (size 3 to 8) (size 9 to 14) (size 15 to 20)
#    0.000    2.000    4.000    1.800    0.000    0.400 
#    0.000    5.000    0.000    2.400    0.000    8.400 
#    0.000    0.000    0.000    0.000    0.000    0.000 
#
# Total GULP energy -223074.452429 kJ/mol
# GULP energy per Si atom -5576.861311 kJ/mol
# Density = 1.746835 g / cm^3
# Si number density = 17.508198 Si / 1000 Ang^3
#
#
#
# Elastic Constant Matrix: (Units=GPa)
#
#
# Indices 1 2 3 4 5 6 
#
# 1 77.2638 9.8740 11.2284 0.0000 0.0000 0.0000
# 2 9.8740 55.8619 24.8627 0.0000 0.0000 0.0000
# 3 11.2284 24.8627 101.6265 0.0000 0.0000 0.0000
# 4 0.0000 0.0000 0.0000 11.7691 0.0000 0.0000
# 5 0.0000 0.0000 0.0000 0.0000 24.6086 0.0000
# 6 0.0000 0.0000 0.0000 0.0000 0.0000 7.9874
#
#
#
# Elastic Compliance Matrix: (Units=1/GPa)
#
#
# Indices 1 2 3 4 5 6 
#
# 1 0.013333 -0.001909 -0.001006 0.000000 0.000000 0.000000
# 2 -0.001909 0.020362 -0.004771 0.000000 0.000000 0.000000
# 3 -0.001006 -0.004771 0.011118 0.000000 0.000000 0.000000
# 4 0.000000 0.000000 0.000000 0.084968 0.000000 0.000000
# 5 0.000000 0.000000 0.000000 0.000000 0.040636 0.000000
# 6 0.000000 0.000000 0.000000 0.000000 0.000000 0.125198
#
#
# Mechanical properties :
#
#
# Convention : Reuss Voigt Hill
#
# Bulk Modulus (GPa) = 33.96524 36.29804 35.13164
# Shear Modulus (GPa) = 15.58600 21.45882 18.52241
#
# Velocity S-wave (km/s) = 2.98688 3.50472 3.25611
# Velocity P-wave (km/s) = 5.59795 6.09544 5.85198
#
# Compressibility (1/GPa) = 0.02944186
#
# Stress axis : x y z
#
# Youngs Moduli (GPa) = 75.00285 49.11111 89.94234
#
# Poissons Ratio (x) = 0.09375 0.09049
# Poissons Ratio (y) = 0.14317 0.42908
# Poissons Ratio (z) = 0.07546 0.23429
#
# Static dielectric constant tensor:
#      x y z
#    x 1.631730 0.000000 0.000000 
#    y 0.000000 1.580470 0.000000 
#    z 0.000000 0.000000 1.620890 
# 
# From -- ./inp_files/30423.got.cif
#   From: 2010.05.17/outbox.cif.g08.bks.cpg/sg72_16_cif.got.tgz:30423.got - 2010.06.03 17:03:01.
