data_PCOD9525801
_publ_section_title
;
Structure prediction by ZEFSAII (Michael W. Deem and Ramdas Pophale) SiO2 
 PCOD9525801
Probable space group: I B A M
;
_chemical_formula_sum "Si O2"
_cell_formula_units_Z 72
_cell_length_a 19.735006
_cell_length_b 13.695481
_cell_length_c 11.670780
_cell_angle_alpha 90.000000
_cell_angle_beta 90.000000
_cell_angle_gamma 90.000000
_cell_volume 3154.383083
_symmetry_space_group_name_H-M "I B A M"
_symmetry_group_IT_number 72
_symmetry_cell_setting 'orthorhombic'
loop_
_space_group_symop_operation_xyz
x,y,z
-x,-y,z
x,-y,1/2-z
-x,y,1/2-z
-x,-y,-z
x,y,-z
-x,y,1/2+z
x,-y,1/2+z
1/2+x,1/2+y,1/2+z
1/2-x,1/2-y,1/2+z
1/2+x,1/2-y,-z
1/2-x,1/2+y,-z
1/2-x,1/2-y,1/2-z
1/2+x,1/2+y,1/2-z
1/2-x,1/2+y,z
1/2+x,1/2-y,z
loop_
_atom_site_type_symbol
_atom_site_label
_atom_site_fract_x
_atom_site_fract_y
_atom_site_fract_z
Si Si1 0.664500 0.682376 0.208071
Si Si2 0.226043 0.620289 0.127953
Si Si3 0.888258 0.500000 0.250000
Si Si4 0.972916 0.138172 0.873586
Si Si5 0.567903 0.188923 0.869496
O O1 0.716975 0.614393 0.274208
O O2 0.702629 0.766274 0.137252
O O3 0.607563 0.629391 0.134065
O O4 0.621211 0.741257 0.304464
O O5 0.161980 0.553868 0.160584
O O6 0.250243 0.598707 0.000000
O O7 0.930647 0.415773 0.311040
O O8 0.000000 0.100796 0.750000
O O9 0.997007 0.252156 0.871167
O O10 0.997628 0.104452 0.000000
O O11 0.590115 0.177476 0.000000
#
# Coordination Sequence:
#
# PCOD9525801 Si02
#       5
#    16  16   8  16  16
#     4   9  18  31  50  73  97 135 187 230 270 314
#     4  10  19  32  49  70 103 142 182 230 273 320
#     4  10  20  32  49  78 111 146 182 212 268 338
#     4   9  17  31  51  75 102 132 171 218 266 316
#     4   9  17  31  50  72 103 139 175 219 269 323
#
# _framework density 22.825381
#
# number of rings (size 3 to 8) (size 9 to 14) (size 15 to 20)
#    0.000    2.667    0.000    2.000    0.000    0.889 
#    0.000   18.333    0.000   34.667    0.000    7.000 
#    0.000   24.889    0.000    0.000    0.000    0.000 
#
# Total GULP energy -200886.308257 kJ/mol
# GULP energy per Si atom -5580.175229 kJ/mol
# Density = 2.277343 g / cm^3
# Si number density = 22.825381 Si / 1000 Ang^3
#
#
#
# Elastic Constant Matrix: (Units=GPa)
#
#
# Indices 1 2 3 4 5 6 
#
# 1 75.2016 19.5723 13.2827 0.0000 0.0000 0.0000
# 2 19.5723 98.4844 27.6046 0.0000 0.0000 0.0000
# 3 13.2827 27.6046 158.9134 0.0000 0.0000 0.0000
# 4 0.0000 0.0000 0.0000 -45.0629 0.0000 0.0000
# 5 0.0000 0.0000 0.0000 0.0000 15.6006 0.0000
# 6 0.0000 0.0000 0.0000 0.0000 0.0000 9.9417
#
#
#
# Elastic Compliance Matrix: (Units=1/GPa)
#
#
# Indices 1 2 3 4 5 6 
#
# 1 0.014102 -0.002599 -0.000727 0.000000 0.000000 0.000000
# 2 -0.002599 0.011152 -0.001720 0.000000 0.000000 0.000000
# 3 -0.000727 -0.001720 0.006652 0.000000 0.000000 0.000000
# 4 0.000000 0.000000 0.000000 -0.022191 0.000000 0.000000
# 5 0.000000 0.000000 0.000000 0.000000 0.064100 0.000000
# 6 0.000000 0.000000 0.000000 0.000000 0.000000 0.100587
#
#
# Mechanical properties :
#
#
# Convention : Reuss Voigt Hill
#
# Bulk Modulus (GPa) = 45.84022 50.39096 48.11559
# Shear Modulus (GPa) = 26.07334 14.23854 20.15594
#
# Velocity S-wave (km/s) = 3.38345 2.50031 2.97484
# Velocity P-wave (km/s) = 5.94897 5.51906 5.73805
#
# Compressibility (1/GPa) = 0.02181490
#
# Stress axis : x y z
#
# Youngs Moduli (GPa) = 70.90982 89.66608 150.32359
#
# Poissons Ratio (x) = 0.23302 0.10933
# Poissons Ratio (y) = 0.18428 0.25857
# Poissons Ratio (z) = 0.05157 0.15423
#
# Static dielectric constant tensor:
#      x y z
#    x 1.870420 0.000000 0.000000 
#    y 0.000000 1.824980 0.000000 
#    z 0.000000 0.000000 1.855040 
# 
# From -- ./inp_files/15327.got.cif
#   From: 2010.05.17/outbox.cif.g08.bks.cpg/sg72_8_cif.got.tgz:15327.got - 2010.06.03 17:03:01.
