data_PCOD9525607
_publ_section_title
;
Structure prediction by ZEFSAII (Michael W. Deem and Ramdas Pophale) SiO2 
 PCOD9525607
Probable space group: I B A M
;
_chemical_formula_sum "Si O2"
_cell_formula_units_Z 36
_cell_length_a 7.029447
_cell_length_b 14.084297
_cell_length_c 12.852111
_cell_angle_alpha 90.000000
_cell_angle_beta 90.000000
_cell_angle_gamma 90.000000
_cell_volume 1272.420927
_symmetry_space_group_name_H-M "I B A M"
_symmetry_group_IT_number 72
_symmetry_cell_setting 'orthorhombic'
loop_
_space_group_symop_operation_xyz
x,y,z
-x,-y,z
x,-y,1/2-z
-x,y,1/2-z
-x,-y,-z
x,y,-z
-x,y,1/2+z
x,-y,1/2+z
1/2+x,1/2+y,1/2+z
1/2-x,1/2-y,1/2+z
1/2+x,1/2-y,-z
1/2-x,1/2+y,-z
1/2-x,1/2-y,1/2-z
1/2+x,1/2+y,1/2-z
1/2-x,1/2+y,z
1/2+x,1/2-y,z
loop_
_atom_site_type_symbol
_atom_site_label
_atom_site_fract_x
_atom_site_fract_y
_atom_site_fract_z
Si Si1 0.500000 0.500000 0.000000
Si Si2 0.243425 0.870946 0.347140
Si Si3 0.684458 0.149130 0.886000
O O1 0.623980 0.444066 0.909814
O O2 0.222851 0.879283 0.222808
O O3 0.465851 0.881810 0.376750
O O4 0.186906 0.763744 0.380212
O O5 0.767693 0.118868 0.000000
#
# Coordination Sequence:
#
# PCOD9525607 Si02
#       3
#     4  16  16
#     4  12  20  40  58 124 160 220 256 390 412 530
#     4  10  22  34  73 108 168 205 288 341 450 484
#     4  10  18  40  65 116 149 231 274 347 403 572
#
# _framework density 28.292525000000001
#
# number of rings (size 3 to 8) (size 9 to 14) (size 15 to 20)
#    0.000    1.778    4.444    0.000    0.000    0.000 
#    0.000    1.111    0.000   26.667    0.000   24.889 
#    0.000   17.778    0.000    0.889    0.000    0.000 
#
# Total GULP energy -100947.380470 kJ/mol
# GULP energy per Si atom -5608.187804 kJ/mol
# Density = 2.822813 g / cm^3
# Si number density = 28.292525 Si / 1000 Ang^3
#
#
#
# Elastic Constant Matrix: (Units=GPa)
#
#
# Indices 1 2 3 4 5 6 
#
# 1 173.0942 57.6171 100.7572 0.0000 0.0000 0.0000
# 2 57.6171 162.1199 130.1665 0.0000 0.0000 0.0000
# 3 100.7572 130.1665 425.4868 0.0000 0.0000 0.0000
# 4 0.0000 0.0000 0.0000 45.7893 0.0000 0.0000
# 5 0.0000 0.0000 0.0000 0.0000 59.7457 0.0000
# 6 0.0000 0.0000 0.0000 0.0000 0.0000 56.1920
#
#
#
# Elastic Compliance Matrix: (Units=1/GPa)
#
#
# Indices 1 2 3 4 5 6 
#
# 1 0.006975 -0.001528 -0.001184 0.000000 0.000000 0.000000
# 2 -0.001528 0.008511 -0.002242 0.000000 0.000000 0.000000
# 3 -0.001184 -0.002242 0.003317 0.000000 0.000000 0.000000
# 4 0.000000 0.000000 0.000000 0.021839 0.000000 0.000000
# 5 0.000000 0.000000 0.000000 0.000000 0.016738 0.000000
# 6 0.000000 0.000000 0.000000 0.000000 0.000000 0.017796
#
#
# Mechanical properties :
#
#
# Convention : Reuss Voigt Hill
#
# Bulk Modulus (GPa) = 112.42928 148.64249 130.53589
# Shear Modulus (GPa) = 56.78606 63.82273 60.30439
#
# Velocity S-wave (km/s) = 4.48493 4.75470 4.62178
# Velocity P-wave (km/s) = 8.16357 9.09916 8.64403
#
# Compressibility (1/GPa) = 0.00889448
#
# Stress axis : x y z
#
# Youngs Moduli (GPa) = 143.36465 117.48852 301.51630
#
# Poissons Ratio (x) = 0.17954 0.35708
# Poissons Ratio (y) = 0.21908 0.67600
# Poissons Ratio (z) = 0.16978 0.26341
#
# Static dielectric constant tensor:
#      x y z
#    x 1.960560 0.000000 0.000000 
#    y 0.000000 1.848330 0.000000 
#    z 0.000000 0.000000 2.150520 
# 
# From -- ./inp_files/17822.got.cif
#   From: 2010.05.17/outbox.cif.g08.bks.cpg/sg72_9_cif.got.tgz:17822.got - 2010.06.03 17:03:01.
