data_PCOD9525789
_publ_section_title
;
Structure prediction by ZEFSAII (Michael W. Deem and Ramdas Pophale) SiO2 
 PCOD9525789
Probable space group: I B A M
;
_chemical_formula_sum "Si O2"
_cell_formula_units_Z 112
_cell_length_a 19.262029
_cell_length_b 19.382913
_cell_length_c 18.090451
_cell_angle_alpha 90.000000
_cell_angle_beta 90.000000
_cell_angle_gamma 90.000000
_cell_volume 6754.146445
_symmetry_space_group_name_H-M "I B A M"
_symmetry_group_IT_number 72
_symmetry_cell_setting 'orthorhombic'
loop_
_space_group_symop_operation_xyz
x,y,z
-x,-y,z
x,-y,1/2-z
-x,y,1/2-z
-x,-y,-z
x,y,-z
-x,y,1/2+z
x,-y,1/2+z
1/2+x,1/2+y,1/2+z
1/2-x,1/2-y,1/2+z
1/2+x,1/2-y,-z
1/2-x,1/2+y,-z
1/2-x,1/2-y,1/2-z
1/2+x,1/2+y,1/2-z
1/2-x,1/2+y,z
1/2+x,1/2-y,z
loop_
_atom_site_type_symbol
_atom_site_label
_atom_site_fract_x
_atom_site_fract_y
_atom_site_fract_z
Si Si1 0.565219 0.462621 0.669673
Si Si2 0.724231 0.845278 0.412511
Si Si3 0.018005 0.803589 0.831747
Si Si4 0.724195 0.480354 0.663107
Si Si5 0.372926 0.280541 0.588916
Si Si6 0.752437 0.621735 0.411013
Si Si7 0.853321 0.260022 0.913069
O O1 0.500000 0.500000 0.630005
O O2 0.569165 0.500000 0.750000
O O3 0.544695 0.382631 0.674311
O O4 0.643084 0.470319 0.639577
O O5 0.717820 0.864205 0.500000
O O6 0.735243 0.911436 0.360949
O O7 0.660576 0.794120 0.392431
O O8 0.793229 0.797868 0.406052
O O9 0.079623 0.760712 0.868006
O O10 0.000000 0.779097 0.750000
O O11 0.947626 0.796727 0.878284
O O12 0.726761 0.500000 0.750000
O O13 0.753712 0.545734 0.620020
O O14 0.375769 0.283109 0.500000
O O15 0.317439 0.338418 0.614229
O O16 0.751084 0.621330 0.500000
O O17 0.817353 0.668960 0.388599
O O18 0.870568 0.264622 0.000000
#
# Coordination Sequence:
#
# PCOD9525789 Si02
#       7
#    16  16  16  16  16  16  16
#     4  10  19  32  44  71 114 149 173 197 257 317
#     4   9  18  36  56  75 102 142 185 227 269 317
#     4  12  21  32  54  79 107 149 177 216 264 325
#     4  11  21  31  53  79 110 145 176 220 267 323
#     4   9  20  36  54  76 106 139 184 233 269 312
#     4   9  19  36  55  76 104 140 182 229 270 317
#     4   9  19  36  55  75 104 140 184 228 268 314
#
# _framework density 16.582405999999999
#
# number of rings (size 3 to 8) (size 9 to 14) (size 15 to 20)
#    0.000    2.143    2.857    3.429    2.000    1.143 
#    0.000    2.857    0.000    4.286    0.000    6.000 
#    0.000    0.000    0.000    0.000    0.000    0.000 
#
# Total GULP energy -312183.822070 kJ/mol
# GULP energy per Si atom -5574.711108 kJ/mol
# Density = 1.654466 g / cm^3
# Si number density = 16.582406 Si / 1000 Ang^3
#
#
#
# Elastic Constant Matrix: (Units=GPa)
#
#
# Indices 1 2 3 4 5 6 
#
# 1 89.1589 43.4750 29.6095 0.0000 0.0000 0.0000
# 2 43.4750 98.8358 29.4078 0.0000 0.0000 0.0000
# 3 29.6095 29.4078 30.4987 0.0000 0.0000 0.0000
# 4 0.0000 0.0000 0.0000 13.0449 0.0000 0.0000
# 5 0.0000 0.0000 0.0000 0.0000 19.1084 0.0000
# 6 0.0000 0.0000 0.0000 0.0000 0.0000 21.6202
#
#
#
# Elastic Compliance Matrix: (Units=1/GPa)
#
#
# Indices 1 2 3 4 5 6 
#
# 1 0.017467 -0.003699 -0.013391 0.000000 0.000000 0.000000
# 2 -0.003699 0.014972 -0.010845 0.000000 0.000000 0.000000
# 3 -0.013391 -0.010845 0.056246 0.000000 0.000000 0.000000
# 4 0.000000 0.000000 0.000000 0.076658 0.000000 0.000000
# 5 0.000000 0.000000 0.000000 0.000000 0.052333 0.000000
# 6 0.000000 0.000000 0.000000 0.000000 0.000000 0.046253
#
#
# Mechanical properties :
#
#
# Convention : Reuss Voigt Hill
#
# Bulk Modulus (GPa) = 30.47422 47.05309 38.76365
# Shear Modulus (GPa) = 15.11777 18.48813 16.80295
#
# Velocity S-wave (km/s) = 3.02267 3.34267 3.18669
# Velocity P-wave (km/s) = 5.53167 6.58292 6.08006
#
# Compressibility (1/GPa) = 0.03281462
#
# Stress axis : x y z
#
# Youngs Moduli (GPa) = 57.25234 66.79289 17.77895
#
# Poissons Ratio (x) = 0.24704 0.23808
# Poissons Ratio (y) = 0.21176 0.19282
# Poissons Ratio (z) = 0.76666 0.72439
#
# Static dielectric constant tensor:
#      x y z
#    x 1.557920 0.000000 0.000000 
#    y 0.000000 1.549990 0.000000 
#    z 0.000000 0.000000 1.571070 
# 
# From -- ./inp_files/39211.got.cif
#   From: 2010.05.17/outbox.cif.g08.bks.cpg/sg72_20_cif.got.tgz:39211.got - 2010.06.03 17:03:01.
