data_PCOD9525861
_publ_section_title
;
Structure prediction by ZEFSAII (Michael W. Deem and Ramdas Pophale) SiO2 
 PCOD9525861
Probable space group: I B A M
;
_chemical_formula_sum "Si O2"
_cell_formula_units_Z 88
_cell_length_a 23.291307
_cell_length_b 19.072629
_cell_length_c 9.192439
_cell_angle_alpha 90.000000
_cell_angle_beta 90.000000
_cell_angle_gamma 90.000000
_cell_volume 4083.524611
_symmetry_space_group_name_H-M "I B A M"
_symmetry_group_IT_number 72
_symmetry_cell_setting 'orthorhombic'
loop_
_space_group_symop_operation_xyz
x,y,z
-x,-y,z
x,-y,1/2-z
-x,y,1/2-z
-x,-y,-z
x,y,-z
-x,y,1/2+z
x,-y,1/2+z
1/2+x,1/2+y,1/2+z
1/2-x,1/2-y,1/2+z
1/2+x,1/2-y,-z
1/2-x,1/2+y,-z
1/2-x,1/2-y,1/2-z
1/2+x,1/2+y,1/2-z
1/2-x,1/2+y,z
1/2+x,1/2-y,z
loop_
_atom_site_type_symbol
_atom_site_label
_atom_site_fract_x
_atom_site_fract_y
_atom_site_fract_z
Si Si1 0.182807 0.662058 0.324091
Si Si2 0.267187 0.428879 0.331878
Si Si3 0.589302 0.068462 0.336315
Si Si4 0.405950 0.569244 0.166859
Si Si5 0.000000 0.677395 0.750000
Si Si6 0.900877 0.779997 0.832388
O O1 0.184676 0.660041 0.500000
O O2 0.242417 0.638362 0.252752
O O3 0.139209 0.604195 0.258932
O O4 0.153984 0.735959 0.276305
O O5 0.247917 0.500000 0.250000
O O6 0.248386 0.428142 0.500000
O O7 0.336208 0.430580 0.331900
O O8 0.608033 0.051221 0.500000
O O9 0.538670 0.125262 0.343871
O O10 0.570184 0.000000 0.250000
O O11 0.425660 0.500000 0.250000
O O12 0.418889 0.645630 0.235107
O O13 0.426223 0.565011 0.000000
O O14 0.954307 0.727224 0.828237
O O15 0.886657 0.796561 0.000000
#
# Coordination Sequence:
#
# PCOD9525861 Si02
#       6
#    16  16  16  16   8  16
#     4  10  20  34  53  78 110 146 180 216 259 307
#     4  10  19  32  52  78 109 144 180 217 257 306
#     4  11  22  35  53  78 109 145 184 222 258 304
#     4   9  19  37  59  81 106 137 173 215 265 320
#     4  10  21  36  57  78 104 138 178 222 269 316
#     4   9  19  37  57  77 105 139 174 217 269 319
#
# _framework density 21.550011999999999
#
# number of rings (size 3 to 8) (size 9 to 14) (size 15 to 20)
#    0.000    2.182    0.000    3.000    0.000    4.364 
#    0.000    5.909    0.000    2.182    0.000    0.000 
#    0.000    0.000    0.000    0.000    0.000    0.000 
#
# Total GULP energy -245436.615362 kJ/mol
# GULP energy per Si atom -5578.104895 kJ/mol
# Density = 2.150096 g / cm^3
# Si number density = 21.550012 Si / 1000 Ang^3
#
#
#
# Elastic Constant Matrix: (Units=GPa)
#
#
# Indices 1 2 3 4 5 6 
#
# 1 32.9143 9.1828 5.1569 0.0000 0.0000 0.0000
# 2 9.1828 156.5769 39.8320 0.0000 0.0000 0.0000
# 3 5.1569 39.8320 97.7405 0.0000 0.0000 0.0000
# 4 0.0000 0.0000 0.0000 22.8859 0.0000 0.0000
# 5 0.0000 0.0000 0.0000 0.0000 -2.2941 0.0000
# 6 0.0000 0.0000 0.0000 0.0000 0.0000 8.5532
#
#
#
# Elastic Compliance Matrix: (Units=1/GPa)
#
#
# Indices 1 2 3 4 5 6 
#
# 1 0.030974 -0.001563 -0.000997 0.000000 0.000000 0.000000
# 2 -0.001563 0.007204 -0.002853 0.000000 0.000000 0.000000
# 3 -0.000997 -0.002853 0.011447 0.000000 0.000000 0.000000
# 4 0.000000 0.000000 0.000000 0.043695 0.000000 0.000000
# 5 0.000000 0.000000 0.000000 0.000000 -0.435903 0.000000
# 6 0.000000 0.000000 0.000000 0.000000 0.000000 0.116915
#
#
# Mechanical properties :
#
#
# Convention : Reuss Voigt Hill
#
# Bulk Modulus (GPa) = 25.77462 43.95279 34.86370
# Shear Modulus (GPa) = -24.76379 21.36634 -1.69873
#
# Velocity S-wave (km/s) = -3.39356 3.15219 -0.88881
# Velocity P-wave (km/s) = 1.83539 5.80417 3.89357
#
# Compressibility (1/GPa) = 0.03879786
#
# Stress axis : x y z
#
# Youngs Moduli (GPa) = 32.28488 138.80805 87.36174
#
# Poissons Ratio (x) = 0.21694 0.08713
# Poissons Ratio (y) = 0.05046 0.24928
# Poissons Ratio (z) = 0.03220 0.39608
#
# Static dielectric constant tensor:
#      x y z
#    x 1.828650 0.000000 0.000000 
#    y 0.000000 1.830950 0.000000 
#    z 0.000000 0.000000 1.732340 
# 
# From -- ./inp_files/9063.got.cif
#   From: 2010.05.17/outbox.cif.g08.bks.cpg/sg72_5_cif.got.tgz:9063.got - 2010.06.03 17:03:01.
