data_PCOD9525629
_publ_section_title
;
Structure prediction by ZEFSAII (Michael W. Deem and Ramdas Pophale) SiO2 
 PCOD9525629
Probable space group: I B A M
;
_chemical_formula_sum "Si O2"
_cell_formula_units_Z 112
_cell_length_a 18.972000
_cell_length_b 19.052966
_cell_length_c 18.874302
_cell_angle_alpha 90.000000
_cell_angle_beta 90.000000
_cell_angle_gamma 90.000000
_cell_volume 6822.548131
_symmetry_space_group_name_H-M "I B A M"
_symmetry_group_IT_number 72
_symmetry_cell_setting 'orthorhombic'
loop_
_space_group_symop_operation_xyz
x,y,z
-x,-y,z
x,-y,1/2-z
-x,y,1/2-z
-x,-y,-z
x,y,-z
-x,y,1/2+z
x,-y,1/2+z
1/2+x,1/2+y,1/2+z
1/2-x,1/2-y,1/2+z
1/2+x,1/2-y,-z
1/2-x,1/2+y,-z
1/2-x,1/2-y,1/2-z
1/2+x,1/2+y,1/2-z
1/2-x,1/2+y,z
1/2+x,1/2-y,z
loop_
_atom_site_type_symbol
_atom_site_label
_atom_site_fract_x
_atom_site_fract_y
_atom_site_fract_z
Si Si1 0.381365 0.778761 0.084872
Si Si2 0.705316 0.328982 0.176318
Si Si3 0.727049 0.021554 0.332831
Si Si4 0.333735 0.278218 0.171236
Si Si5 0.243967 0.382144 0.916118
Si Si6 0.066307 0.461239 0.673230
Si Si7 0.523219 0.798527 0.171531
O O1 0.343611 0.710954 0.119555
O O2 0.330517 0.844787 0.104060
O O3 0.457594 0.790232 0.119060
O O4 0.384125 0.773282 0.000000
O O5 0.726127 0.408694 0.159656
O O6 0.669681 0.318546 0.253389
O O7 0.779222 0.286513 0.179398
O O8 0.645482 0.033767 0.355899
O O9 0.727362 0.000000 0.250000
O O10 0.752962 0.955724 0.377624
O O11 0.302840 0.328830 0.111663
O O12 0.409510 0.247977 0.152359
O O13 0.245558 0.389669 0.000000
O O14 0.070715 0.500000 0.750000
O O15 0.046546 0.379728 0.677773
O O16 0.000000 0.500000 0.635901
O O17 0.500000 0.776283 0.250000
#
# Coordination Sequence:
#
# PCOD9525629 Si02
#       7
#    16  16  16  16  16  16  16
#     4  10  23  39  56  81 121 156 186 236 297 349
#     4  10  19  34  57  85 114 145 197 243 282 329
#     4  11  20  32  57  88 115 147 192 238 281 336
#     4  10  20  34  56  86 112 147 196 243 278 333
#     4  10  22  39  57  81 119 156 183 230 299 351
#     4  10  19  28  48  86 123 150 181 225 276 340
#     4  12  20  33  57  89 113 150 195 235 283 337
#
# _framework density 16.416153999999999
#
# number of rings (size 3 to 8) (size 9 to 14) (size 15 to 20)
#    0.000    1.571    5.714    0.857    2.000    1.143 
#    0.000    0.714    0.000    3.429    0.000    2.000 
#    0.000    0.000    0.000    0.000    0.000    0.000 
#
# Total GULP energy -312328.011126 kJ/mol
# GULP energy per Si atom -5577.285913 kJ/mol
# Density = 1.637879 g / cm^3
# Si number density = 16.416154 Si / 1000 Ang^3
#
#
#
# Elastic Constant Matrix: (Units=GPa)
#
#
# Indices 1 2 3 4 5 6 
#
# 1 99.5723 65.3934 29.9862 0.0000 0.0000 0.0000
# 2 65.3934 129.4797 38.6421 0.0000 0.0000 0.0000
# 3 29.9862 38.6421 58.7462 0.0000 0.0000 0.0000
# 4 0.0000 0.0000 0.0000 20.5639 0.0000 0.0000
# 5 0.0000 0.0000 0.0000 0.0000 18.1373 0.0000
# 6 0.0000 0.0000 0.0000 0.0000 0.0000 15.4279
#
#
#
# Elastic Compliance Matrix: (Units=1/GPa)
#
#
# Indices 1 2 3 4 5 6 
#
# 1 0.015571 -0.006833 -0.003453 0.000000 0.000000 0.000000
# 2 -0.006833 0.012609 -0.004806 0.000000 0.000000 0.000000
# 3 -0.003453 -0.004806 0.021946 0.000000 0.000000 0.000000
# 4 0.000000 0.000000 0.000000 0.048629 0.000000 0.000000
# 5 0.000000 0.000000 0.000000 0.000000 0.055135 0.000000
# 6 0.000000 0.000000 0.000000 0.000000 0.000000 0.064818
#
#
# Mechanical properties :
#
#
# Convention : Reuss Voigt Hill
#
# Bulk Modulus (GPa) = 50.14751 61.76018 55.95385
# Shear Modulus (GPa) = 19.56657 21.07758 20.32207
#
# Velocity S-wave (km/s) = 3.45615 3.58712 3.52224
# Velocity P-wave (km/s) = 6.82207 7.40674 7.12041
#
# Compressibility (1/GPa) = 0.01994117
#
# Stress axis : x y z
#
# Youngs Moduli (GPa) = 64.22365 79.31078 45.56643
#
# Poissons Ratio (x) = 0.54196 0.15734
# Poissons Ratio (y) = 0.43887 0.21898
# Poissons Ratio (z) = 0.22176 0.38114
#
# Static dielectric constant tensor:
#      x y z
#    x 1.560240 0.000000 0.000000 
#    y 0.000000 1.538360 0.000000 
#    z 0.000000 0.000000 1.550460 
# 
# From -- ./inp_files/39204.got.cif
#   From: 2010.05.17/outbox.cif.g08.bks.cpg/sg72_20_cif.got.tgz:39204.got - 2010.06.03 17:03:01.
