data_PCOD9525377
_publ_section_title
;
Structure prediction by ZEFSAII (Michael W. Deem and Ramdas Pophale) SiO2 
 PCOD9525377
Probable space group: I B A M
;
_chemical_formula_sum "Si O2"
_cell_formula_units_Z 64
_cell_length_a 9.328630
_cell_length_b 18.178314
_cell_length_c 17.930195
_cell_angle_alpha 90.000000
_cell_angle_beta 90.000000
_cell_angle_gamma 90.000000
_cell_volume 3040.580330
_symmetry_space_group_name_H-M "I B A M"
_symmetry_group_IT_number 72
_symmetry_cell_setting 'orthorhombic'
loop_
_space_group_symop_operation_xyz
x,y,z
-x,-y,z
x,-y,1/2-z
-x,y,1/2-z
-x,-y,-z
x,y,-z
-x,y,1/2+z
x,-y,1/2+z
1/2+x,1/2+y,1/2+z
1/2-x,1/2-y,1/2+z
1/2+x,1/2-y,-z
1/2-x,1/2+y,-z
1/2-x,1/2-y,1/2-z
1/2+x,1/2+y,1/2-z
1/2-x,1/2+y,z
1/2+x,1/2-y,z
loop_
_atom_site_type_symbol
_atom_site_label
_atom_site_fract_x
_atom_site_fract_y
_atom_site_fract_z
Si Si1 0.091778 0.924532 0.082489
Si Si2 0.333203 0.586114 0.738573
Si Si3 0.187169 0.292782 0.321799
Si Si4 0.944369 0.233605 0.416634
O O1 0.197363 0.906491 0.150585
O O2 0.992447 0.852054 0.081554
O O3 0.155958 0.932751 0.000000
O O4 0.000000 0.000000 0.097015
O O5 0.332597 0.500000 0.750000
O O6 0.500000 0.612245 0.750000
O O7 0.227145 0.625326 0.795743
O O8 0.250000 0.250000 0.250000
O O9 0.029067 0.274474 0.349822
O O10 0.279883 0.268159 0.392984
O O11 0.966412 0.264067 0.500000
#
# Coordination Sequence:
#
# PCOD9525377 Si02
#       4
#    16  16  16  16
#     4  10  18  31  52  82 117 149 189 245 300 343
#     4  11  18  33  55  85 116 149 199 255 300 348
#     4  12  21  37  59  87 118 153 197 247 296 358
#     4  11  23  37  56  87 121 157 194 243 304 363
#
# _framework density 21.048613
#
# number of rings (size 3 to 8) (size 9 to 14) (size 15 to 20)
#    0.000    1.000    7.500    1.500    0.000    0.000 
#    0.000    1.250    0.000    3.000    0.000    1.750 
#    0.000    0.000    0.000    0.000    0.000    0.000 
#
# Total GULP energy -178423.383783 kJ/mol
# GULP energy per Si atom -5575.730743 kJ/mol
# Density = 2.100071 g / cm^3
# Si number density = 21.048613 Si / 1000 Ang^3
#
#
#
# Elastic Constant Matrix: (Units=GPa)
#
#
# Indices 1 2 3 4 5 6 
#
# 1 40.0176 8.7412 8.6845 0.0000 0.0000 0.0000
# 2 8.7412 68.8521 12.4796 0.0000 0.0000 0.0000
# 3 8.6845 12.4796 147.7675 0.0000 0.0000 0.0000
# 4 0.0000 0.0000 0.0000 31.0508 0.0000 0.0000
# 5 0.0000 0.0000 0.0000 0.0000 25.2114 0.0000
# 6 0.0000 0.0000 0.0000 0.0000 0.0000 15.5275
#
#
#
# Elastic Compliance Matrix: (Units=1/GPa)
#
#
# Indices 1 2 3 4 5 6 
#
# 1 0.025933 -0.003063 -0.001265 0.000000 0.000000 0.000000
# 2 -0.003063 0.015111 -0.001096 0.000000 0.000000 0.000000
# 3 -0.001265 -0.001096 0.006934 0.000000 0.000000 0.000000
# 4 0.000000 0.000000 0.000000 0.032205 0.000000 0.000000
# 5 0.000000 0.000000 0.000000 0.000000 0.039665 0.000000
# 6 0.000000 0.000000 0.000000 0.000000 0.000000 0.064402
#
#
# Mechanical properties :
#
#
# Convention : Reuss Voigt Hill
#
# Bulk Modulus (GPa) = 26.93292 35.16086 31.04689
# Shear Modulus (GPa) = 24.09920 29.47340 26.78630
#
# Velocity S-wave (km/s) = 3.38735 3.74606 3.57121
# Velocity P-wave (km/s) = 5.30304 5.95411 5.63798
#
# Compressibility (1/GPa) = 0.03712928
#
# Stress axis : x y z
#
# Youngs Moduli (GPa) = 38.56134 66.17503 144.20984
#
# Poissons Ratio (x) = 0.20269 0.18249
# Poissons Ratio (y) = 0.11811 0.15808
# Poissons Ratio (z) = 0.04880 0.07254
#
# Static dielectric constant tensor:
#      x y z
#    x 1.790380 0.000000 0.000000 
#    y 0.000000 1.835380 0.000000 
#    z 0.000000 0.000000 1.851980 
# 
# From -- ./inp_files/27669.got.cif
#   From: 2010.05.17/outbox.cif.g08.bks.cpg/sg72_14_cif.got.tgz:27669.got - 2010.06.03 17:03:01.
