data_PCOD9525416
_publ_section_title
;
Structure prediction by ZEFSAII (Michael W. Deem and Ramdas Pophale) SiO2 
 PCOD9525416
Probable space group: I B A M
;
_chemical_formula_sum "Si O2"
_cell_formula_units_Z 64
_cell_length_a 5.053292
_cell_length_b 31.737946
_cell_length_c 24.075966
_cell_angle_alpha 90.000000
_cell_angle_beta 90.000000
_cell_angle_gamma 90.000000
_cell_volume 3861.330118
_symmetry_space_group_name_H-M "I B A M"
_symmetry_group_IT_number 72
_symmetry_cell_setting 'orthorhombic'
loop_
_space_group_symop_operation_xyz
x,y,z
-x,-y,z
x,-y,1/2-z
-x,y,1/2-z
-x,-y,-z
x,y,-z
-x,y,1/2+z
x,-y,1/2+z
1/2+x,1/2+y,1/2+z
1/2-x,1/2-y,1/2+z
1/2+x,1/2-y,-z
1/2-x,1/2+y,-z
1/2-x,1/2-y,1/2-z
1/2+x,1/2+y,1/2-z
1/2-x,1/2+y,z
1/2+x,1/2-y,z
loop_
_atom_site_type_symbol
_atom_site_label
_atom_site_fract_x
_atom_site_fract_y
_atom_site_fract_z
Si Si1 0.248519 0.469913 0.000000
Si Si2 0.872369 0.277435 0.000000
Si Si3 0.500882 0.723956 0.816464
Si Si4 0.223472 0.159906 0.098726
Si Si5 0.201450 0.612352 0.437863
O O1 0.500000 0.500000 0.000000
O O2 0.235243 0.437616 0.052341
O O3 0.000000 0.500000 0.000000
O O4 0.801076 0.303883 0.054744
O O5 0.676272 0.237138 0.000000
O O6 0.500000 0.718669 0.750000
O O7 0.796824 0.738262 0.831763
O O8 0.388719 0.683245 0.847193
O O9 0.478976 0.129718 0.103460
O O10 0.982852 0.132553 0.074695
O O11 0.113155 0.626803 0.500000
#
# Coordination Sequence:
#
# PCOD9525416 Si02
#       5
#     8   8  16  16  16
#     4  10  18  32  50  72 104 136 158 184 230 306
#     4  12  20  26  40  62  88 122 160 192 238 290
#     4  10  21  36  51  68  92 132 180 221 256 287
#     4  12  19  34  46  67 100 128 163 207 254 286
#     4  10  20  32  48  71  99 132 153 195 243 299
#
# _framework density 16.574598000000002
#
# number of rings (size 3 to 8) (size 9 to 14) (size 15 to 20)
#    0.750    0.500    2.500    6.000    0.000    0.000 
#    0.000    0.000    0.000    0.000    0.000    0.000 
#    0.000   15.000    0.000    0.000    0.000    0.000 
#
# Total GULP energy -178479.317061 kJ/mol
# GULP energy per Si atom -5577.478658 kJ/mol
# Density = 1.653687 g / cm^3
# Si number density = 16.574598 Si / 1000 Ang^3
#
#
#
# Elastic Constant Matrix: (Units=GPa)
#
#
# Indices 1 2 3 4 5 6 
#
# 1 73.9104 27.9219 12.2192 0.0000 0.0000 0.0000
# 2 27.9219 92.5162 20.9589 0.0000 0.0000 0.0000
# 3 12.2192 20.9589 27.6465 0.0000 0.0000 0.0000
# 4 0.0000 0.0000 0.0000 17.3709 0.0000 0.0000
# 5 0.0000 0.0000 0.0000 0.0000 14.7710 0.0000
# 6 0.0000 0.0000 0.0000 0.0000 0.0000 32.4769
#
#
#
# Elastic Compliance Matrix: (Units=1/GPa)
#
#
# Indices 1 2 3 4 5 6 
#
# 1 0.015633 -0.003807 -0.004024 0.000000 0.000000 0.000000
# 2 -0.003807 0.013977 -0.008914 0.000000 0.000000 0.000000
# 3 -0.004024 -0.008914 0.044707 0.000000 0.000000 0.000000
# 4 0.000000 0.000000 0.000000 0.057568 0.000000 0.000000
# 5 0.000000 0.000000 0.000000 0.000000 0.067700 0.000000
# 6 0.000000 0.000000 0.000000 0.000000 0.000000 0.030791
#
#
# Mechanical properties :
#
#
# Convention : Reuss Voigt Hill
#
# Bulk Modulus (GPa) = 24.49235 35.14147 29.81691
# Shear Modulus (GPa) = 18.01972 21.78862 19.90417
#
# Velocity S-wave (km/s) = 3.30083 3.62965 3.46914
# Velocity P-wave (km/s) = 5.41631 6.23007 5.83739
#
# Compressibility (1/GPa) = 0.04082907
#
# Stress axis : x y z
#
# Youngs Moduli (GPa) = 63.96651 71.54555 22.36798
#
# Poissons Ratio (x) = 0.27235 0.09000
# Poissons Ratio (y) = 0.24350 0.19938
# Poissons Ratio (z) = 0.25738 0.63773
#
# Static dielectric constant tensor:
#      x y z
#    x 1.570230 0.000000 0.000000 
#    y 0.000000 1.566130 0.000000 
#    z 0.000000 0.000000 1.566570 
# 
# From -- ./inp_files/41415.got.cif
#   From: 2010.05.17/outbox.cif.g08.bks.cpg/sg72_21_cif.got.tgz:41415.got - 2010.06.03 17:03:01.
