data_PCOD9525669
_publ_section_title
;
Structure prediction by ZEFSAII (Michael W. Deem and Ramdas Pophale) SiO2 
 PCOD9525669
Probable space group: I B A M
;
_chemical_formula_sum "Si O2"
_cell_formula_units_Z 84
_cell_length_a 13.252878
_cell_length_b 18.486194
_cell_length_c 18.545297
_cell_angle_alpha 90.000000
_cell_angle_beta 90.000000
_cell_angle_gamma 90.000000
_cell_volume 4543.510116
_symmetry_space_group_name_H-M "I B A M"
_symmetry_group_IT_number 72
_symmetry_cell_setting 'orthorhombic'
loop_
_space_group_symop_operation_xyz
x,y,z
-x,-y,z
x,-y,1/2-z
-x,y,1/2-z
-x,-y,-z
x,y,-z
-x,y,1/2+z
x,-y,1/2+z
1/2+x,1/2+y,1/2+z
1/2-x,1/2-y,1/2+z
1/2+x,1/2-y,-z
1/2-x,1/2+y,-z
1/2-x,1/2-y,1/2-z
1/2+x,1/2+y,1/2-z
1/2-x,1/2+y,z
1/2+x,1/2-y,z
loop_
_atom_site_type_symbol
_atom_site_label
_atom_site_fract_x
_atom_site_fract_y
_atom_site_fract_z
Si Si1 0.092672 0.253316 0.709812
Si Si2 0.345565 0.919554 0.148035
Si Si3 0.300228 0.069172 0.082395
Si Si4 0.000000 0.500000 0.750000
Si Si5 0.220612 0.138325 0.775967
Si Si6 0.991045 0.322347 0.916770
O O1 0.119912 0.181355 0.754047
O O2 0.191535 0.302196 0.712403
O O3 0.052918 0.254910 0.628345
O O4 0.000000 0.291439 0.750000
O O5 0.254614 0.902013 0.202672
O O6 0.400642 0.851673 0.110691
O O7 0.319407 0.983801 0.093016
O O8 0.429424 0.952390 0.200536
O O9 0.228627 0.093473 0.149520
O O10 0.406791 0.113081 0.091231
O O11 0.265568 0.084025 0.000000
O O12 0.998565 0.304747 0.000000
#
# Coordination Sequence:
#
# PCOD9525669 Si02
#       6
#    16  16  16   4  16  16
#     4  10  19  36  54  71 103 144 181 221 258 310
#     4  12  17  29  50  79 107 137 174 215 275 330
#     4  10  19  30  47  77 113 136 165 218 274 324
#     4  12  16  24  50  76 106 136 162 212 262 320
#     4  10  20  32  54  78 102 139 185 218 258 325
#     4  10  19  31  49  77 107 137 170 215 276 325
#
# _framework density 18.487908000000001
#
# number of rings (size 3 to 8) (size 9 to 14) (size 15 to 20)
#    0.000    1.524    5.714    1.714    0.000    1.524 
#    0.000    2.857    0.000    2.286    0.000    1.333 
#    0.000    0.000    0.000    0.000    0.000    0.000 
#
# Total GULP energy -233818.037786 kJ/mol
# GULP energy per Si atom -5567.096138 kJ/mol
# Density = 1.844583 g / cm^3
# Si number density = 18.487908 Si / 1000 Ang^3
#
#
#
# Elastic Constant Matrix: (Units=GPa)
#
#
# Indices 1 2 3 4 5 6 
#
# 1 38.4515 19.8000 30.3461 0.0000 0.0000 0.0000
# 2 19.8000 36.8957 30.1797 0.0000 0.0000 0.0000
# 3 30.3461 30.1797 137.8293 0.0000 0.0000 0.0000
# 4 0.0000 0.0000 0.0000 6.9461 0.0000 0.0000
# 5 0.0000 0.0000 0.0000 0.0000 7.1554 0.0000
# 6 0.0000 0.0000 0.0000 0.0000 0.0000 61.0419
#
#
#
# Elastic Compliance Matrix: (Units=1/GPa)
#
#
# Indices 1 2 3 4 5 6 
#
# 1 0.038379 -0.016670 -0.004800 0.000000 0.000000 0.000000
# 2 -0.016670 0.040257 -0.005145 0.000000 0.000000 0.000000
# 3 -0.004800 -0.005145 0.009439 0.000000 0.000000 0.000000
# 4 0.000000 0.000000 0.000000 0.143965 0.000000 0.000000
# 5 0.000000 0.000000 0.000000 0.000000 0.139755 0.000000
# 6 0.000000 0.000000 0.000000 0.000000 0.000000 0.016382
#
#
# Mechanical properties :
#
#
# Convention : Reuss Voigt Hill
#
# Bulk Modulus (GPa) = 28.69754 41.53647 35.11701
# Shear Modulus (GPa) = 11.03702 23.88541 17.46122
#
# Velocity S-wave (km/s) = 2.44598 3.59827 3.07655
# Velocity P-wave (km/s) = 4.85109 6.30706 5.62637
#
# Compressibility (1/GPa) = 0.03484619
#
# Stress axis : x y z
#
# Youngs Moduli (GPa) = 26.05612 24.84010 105.94735
#
# Poissons Ratio (x) = 0.41408 0.50853
# Poissons Ratio (y) = 0.43435 0.54507
# Poissons Ratio (z) = 0.12506 0.12780
#
# Static dielectric constant tensor:
#      x y z
#    x 1.645860 0.000000 0.000000 
#    y 0.000000 1.489680 0.000000 
#    z 0.000000 0.000000 1.685190 
# 
# From -- ./inp_files/37028.got.cif
#   From: 2010.05.17/outbox.cif.g08.bks.cpg/sg72_19_cif.got.tgz:37028.got - 2010.06.03 17:03:01.
