data_PCOD9525412
_publ_section_title
;
Structure prediction by ZEFSAII (Michael W. Deem and Ramdas Pophale) SiO2 
 PCOD9525412
Probable space group: I B A M
;
_chemical_formula_sum "Si O2"
_cell_formula_units_Z 112
_cell_length_a 11.786296
_cell_length_b 27.489861
_cell_length_c 19.817977
_cell_angle_alpha 90.000000
_cell_angle_beta 90.000000
_cell_angle_gamma 90.000000
_cell_volume 6421.096661
_symmetry_space_group_name_H-M "I B A M"
_symmetry_group_IT_number 72
_symmetry_cell_setting 'orthorhombic'
loop_
_space_group_symop_operation_xyz
x,y,z
-x,-y,z
x,-y,1/2-z
-x,y,1/2-z
-x,-y,-z
x,y,-z
-x,y,1/2+z
x,-y,1/2+z
1/2+x,1/2+y,1/2+z
1/2-x,1/2-y,1/2+z
1/2+x,1/2-y,-z
1/2-x,1/2+y,-z
1/2-x,1/2-y,1/2-z
1/2+x,1/2+y,1/2-z
1/2-x,1/2+y,z
1/2+x,1/2-y,z
loop_
_atom_site_type_symbol
_atom_site_label
_atom_site_fract_x
_atom_site_fract_y
_atom_site_fract_z
Si Si1 0.316902 0.153339 0.739459
Si Si2 0.491305 0.804675 0.160761
Si Si3 0.343512 0.286002 0.677495
Si Si4 0.998731 0.945808 0.636144
Si Si5 0.190586 0.945948 0.253950
Si Si6 0.152066 0.752514 0.923060
Si Si7 0.494275 0.656713 0.923371
O O1 0.409811 0.169545 0.795849
O O2 0.381483 0.160944 0.668508
O O3 0.212469 0.189528 0.756863
O O4 0.275452 0.098769 0.748331
O O5 0.437122 0.754892 0.190689
O O6 0.549201 0.785516 0.092638
O O7 0.248480 0.260853 0.630437
O O8 0.402425 0.327048 0.631925
O O9 0.899962 0.943873 0.692674
O O10 0.115933 0.941052 0.678153
O O11 0.981310 0.899864 0.588293
O O12 0.000000 0.000000 0.605259
O O13 0.242512 0.000000 0.250000
O O14 0.100180 0.806486 0.913747
O O15 0.191355 0.747640 0.000000
O O16 0.453868 0.664985 0.000000
#
# Coordination Sequence:
#
# PCOD9525412 Si02
#       7
#    16  16  16  16  16  16  16
#     4  10  18  33  49  72 102 127 165 203 249 297
#     4   9  20  31  45  74 103 126 161 205 243 279
#     4  10  18  32  49  69 101 136 163 195 239 294
#     4   9  18  33  50  75  98 122 162 209 258 304
#     4   9  18  33  54  72  95 128 162 205 259 308
#     4   9  19  33  48  68 100 136 170 196 233 292
#     4  10  19  31  48  74  99 128 165 202 243 291
#
# _framework density 17.442502999999999
#
# number of rings (size 3 to 8) (size 9 to 14) (size 15 to 20)
#    0.000    2.571    1.429    1.714    2.000    0.857 
#    5.143    1.429    0.000    0.000    0.000    0.000 
#    0.000    2.571    0.000    0.000    0.000    0.000 
#
# Total GULP energy -311835.022841 kJ/mol
# GULP energy per Si atom -5568.482551 kJ/mol
# Density = 1.740280 g / cm^3
# Si number density = 17.442503 Si / 1000 Ang^3
#
#
#
# Elastic Constant Matrix: (Units=GPa)
#
#
# Indices 1 2 3 4 5 6 
#
# 1 46.2064 38.7776 15.1097 0.0000 0.0000 0.0000
# 2 38.7776 141.4102 24.1970 0.0000 0.0000 0.0000
# 3 15.1097 24.1970 43.3958 0.0000 0.0000 0.0000
# 4 0.0000 0.0000 0.0000 21.1106 0.0000 0.0000
# 5 0.0000 0.0000 0.0000 0.0000 16.7803 0.0000
# 6 0.0000 0.0000 0.0000 0.0000 0.0000 30.0618
#
#
#
# Elastic Compliance Matrix: (Units=1/GPa)
#
#
# Indices 1 2 3 4 5 6 
#
# 1 0.029635 -0.007032 -0.006398 0.000000 0.000000 0.000000
# 2 -0.007032 0.009486 -0.002841 0.000000 0.000000 0.000000
# 3 -0.006398 -0.002841 0.026855 0.000000 0.000000 0.000000
# 4 0.000000 0.000000 0.000000 0.047370 0.000000 0.000000
# 5 0.000000 0.000000 0.000000 0.000000 0.059594 0.000000
# 6 0.000000 0.000000 0.000000 0.000000 0.000000 0.033265
#
#
# Mechanical properties :
#
#
# Convention : Reuss Voigt Hill
#
# Bulk Modulus (GPa) = 29.90804 43.02011 36.46407
# Shear Modulus (GPa) = 20.00871 23.78575 21.89723
#
# Velocity S-wave (km/s) = 3.39060 3.69679 3.54700
# Velocity P-wave (km/s) = 5.70193 6.55280 6.14212
#
# Compressibility (1/GPa) = 0.03343583
#
# Stress axis : x y z
#
# Youngs Moduli (GPa) = 33.74332 105.41807 37.23658
#
# Poissons Ratio (x) = 0.74129 0.23823
# Poissons Ratio (y) = 0.23728 0.10579
# Poissons Ratio (z) = 0.21588 0.29948
#
# Static dielectric constant tensor:
#      x y z
#    x 1.629040 0.000000 0.000000 
#    y 0.000000 1.610350 0.000000 
#    z 0.000000 0.000000 1.618190 
# 
# From -- ./inp_files/43525.got.cif
#   From: 2010.05.17/outbox.cif.g08.bks.cpg/sg72_22_cif.got.tgz:43525.got - 2010.06.03 17:03:01.
