data_PCOD9525244
_publ_section_title
;
Structure prediction by ZEFSAII (Michael W. Deem and Ramdas Pophale) SiO2 
 PCOD9525244
Probable space group: I B A M
;
_chemical_formula_sum "Si O2"
_cell_formula_units_Z 64
_cell_length_a 23.431474
_cell_length_b 5.563190
_cell_length_c 19.118528
_cell_angle_alpha 90.000000
_cell_angle_beta 90.000000
_cell_angle_gamma 90.000000
_cell_volume 2492.171663
_symmetry_space_group_name_H-M "I B A M"
_symmetry_group_IT_number 72
_symmetry_cell_setting 'orthorhombic'
loop_
_space_group_symop_operation_xyz
x,y,z
-x,-y,z
x,-y,1/2-z
-x,y,1/2-z
-x,-y,-z
x,y,-z
-x,y,1/2+z
x,-y,1/2+z
1/2+x,1/2+y,1/2+z
1/2-x,1/2-y,1/2+z
1/2+x,1/2-y,-z
1/2-x,1/2+y,-z
1/2-x,1/2-y,1/2-z
1/2+x,1/2+y,1/2-z
1/2-x,1/2+y,z
1/2+x,1/2-y,z
loop_
_atom_site_type_symbol
_atom_site_label
_atom_site_fract_x
_atom_site_fract_y
_atom_site_fract_z
Si Si1 0.937413 0.562977 0.368886
Si Si2 0.141555 0.933479 0.500000
Si Si3 0.899806 0.929290 0.152312
Si Si4 0.769729 0.804593 0.170779
Si Si5 0.850540 0.566301 0.500000
O O1 0.924376 0.325185 0.323756
O O2 0.891299 0.570656 0.431507
O O3 0.000000 0.500000 0.397280
O O4 0.930438 0.820363 0.330744
O O5 0.101366 0.927635 0.432403
O O6 0.178219 0.692331 0.500000
O O7 0.178317 0.174930 0.500000
O O8 0.833151 0.913039 0.170728
O O9 0.750000 0.750000 0.250000
O O10 0.766672 0.530622 0.140179
#
# Coordination Sequence:
#
# PCOD9525244 Si02
#       5
#    16   8  16  16   8
#     4  10  18  29  48  77 112 151 181 210 257 317
#     4   8  16  28  45  71 107 146 175 213 271 312
#     4  10  19  33  51  77 112 143 180 227 264 317
#     4  10  21  38  59  81  99 129 183 238 283 324
#     4   8  15  26  42  67 105 150 191 211 234 300
#
# _framework density 25.680412
#
# number of rings (size 3 to 8) (size 9 to 14) (size 15 to 20)
#    0.000    2.500    0.000    2.625    0.000    0.000 
#    0.000    8.750    0.000    0.000    0.000   52.500 
#    0.000    0.000    0.000    0.000    0.000    0.000 
#
# Total GULP energy -178436.348925 kJ/mol
# GULP energy per Si atom -5576.135904 kJ/mol
# Density = 2.562196 g / cm^3
# Si number density = 25.680412 Si / 1000 Ang^3
#
#
#
# Elastic Constant Matrix: (Units=GPa)
#
#
# Indices 1 2 3 4 5 6 
#
# 1 90.0338 31.3410 -6.3581 0.0000 0.0000 0.0000
# 2 31.3410 360.4820 9.8386 0.0000 0.0000 0.0000
# 3 -6.3581 9.8386 75.4751 0.0000 0.0000 0.0000
# 4 0.0000 0.0000 0.0000 12.4307 0.0000 0.0000
# 5 0.0000 0.0000 0.0000 0.0000 41.4772 0.0000
# 6 0.0000 0.0000 0.0000 0.0000 0.0000 37.0614
#
#
#
# Elastic Compliance Matrix: (Units=1/GPa)
#
#
# Indices 1 2 3 4 5 6 
#
# 1 0.011545 -0.001034 0.001107 0.000000 0.000000 0.000000
# 2 -0.001034 0.002877 -0.000462 0.000000 0.000000 0.000000
# 3 0.001107 -0.000462 0.013403 0.000000 0.000000 0.000000
# 4 0.000000 0.000000 0.000000 0.080446 0.000000 0.000000
# 5 0.000000 0.000000 0.000000 0.000000 0.024110 0.000000
# 6 0.000000 0.000000 0.000000 0.000000 0.000000 0.026982
#
#
# Mechanical properties :
#
#
# Convention : Reuss Voigt Hill
#
# Bulk Modulus (GPa) = 36.97247 66.18155 51.57701
# Shear Modulus (GPa) = 29.55854 50.93846 40.24850
#
# Velocity S-wave (km/s) = 3.39634 4.45854 3.96319
# Velocity P-wave (km/s) = 5.45972 7.23408 6.40861
#
# Compressibility (1/GPa) = 0.02704715
#
# Stress axis : x y z
#
# Youngs Moduli (GPa) = 86.61708 347.63614 74.61057
#
# Poissons Ratio (x) = 0.35945 -0.08262
# Poissons Ratio (y) = 0.08956 0.03448
# Poissons Ratio (z) = -0.09592 0.16064
#
# Static dielectric constant tensor:
#      x y z
#    x 1.996980 0.000000 0.000000 
#    y 0.000000 2.222570 0.000000 
#    z 0.000000 0.000000 2.119670 
# 
# From -- ./inp_files/41410.got.cif
#   From: 2010.05.17/outbox.cif.g08.bks.cpg/sg72_21_cif.got.tgz:41410.got - 2010.06.03 17:03:01.
