data_PCOD9525545
_publ_section_title
;
Structure prediction by ZEFSAII (Michael W. Deem and Ramdas Pophale) SiO2 
 PCOD9525545
Probable space group: I B A M
;
_chemical_formula_sum "Si O2"
_cell_formula_units_Z 96
_cell_length_a 8.199361
_cell_length_b 18.637274
_cell_length_c 24.737388
_cell_angle_alpha 90.000000
_cell_angle_beta 90.000000
_cell_angle_gamma 90.000000
_cell_volume 3780.212718
_symmetry_space_group_name_H-M "I B A M"
_symmetry_group_IT_number 72
_symmetry_cell_setting 'orthorhombic'
loop_
_space_group_symop_operation_xyz
x,y,z
-x,-y,z
x,-y,1/2-z
-x,y,1/2-z
-x,-y,-z
x,y,-z
-x,y,1/2+z
x,-y,1/2+z
1/2+x,1/2+y,1/2+z
1/2-x,1/2-y,1/2+z
1/2+x,1/2-y,-z
1/2-x,1/2+y,-z
1/2-x,1/2-y,1/2-z
1/2+x,1/2+y,1/2-z
1/2-x,1/2+y,z
1/2+x,1/2-y,z
loop_
_atom_site_type_symbol
_atom_site_label
_atom_site_fract_x
_atom_site_fract_y
_atom_site_fract_z
Si Si1 0.305935 0.078121 0.743015
Si Si2 0.800424 0.211401 0.695412
Si Si3 0.025321 0.664907 0.937879
Si Si4 0.416068 0.694202 0.624635
Si Si5 0.331269 0.045317 0.624403
Si Si6 0.865675 0.918819 0.065167
O O1 0.500000 0.075816 0.750000
O O2 0.260594 0.131466 0.791240
O O3 0.272926 0.086713 0.678915
O O4 0.230913 0.000000 0.750000
O O5 0.750000 0.250000 0.750000
O O6 0.742627 0.262896 0.647014
O O7 0.985619 0.198715 0.681020
O O8 0.024756 0.745490 0.917665
O O9 0.895685 0.610453 0.911944
O O10 0.206873 0.632634 0.929946
O O11 0.986401 0.664577 0.000000
O O12 0.482988 0.621305 0.595327
O O13 0.500000 0.000000 0.636660
O O14 0.204034 0.990797 0.595440
O O15 0.894200 0.929811 0.000000
#
# Coordination Sequence:
#
# PCOD9525545 Si02
#       6
#    16  16  16  16  16  16
#     4  11  20  34  60  91 123 162 218 279 336 392
#     4  12  25  41  63  93 128 173 221 275 338 410
#     4  10  20  36  61  93 128 171 221 275 335 406
#     4  12  23  41  63  93 136 173 219 276 344 407
#     4  10  18  34  60  92 131 167 222 286 340 395
#     4  10  21  38  63  99 135 172 221 281 345 410
#
# _framework density 25.395396999999999
#
# number of rings (size 3 to 8) (size 9 to 14) (size 15 to 20)
#    0.000    1.167    3.333    5.500    0.000    2.000 
#    0.000    0.000    0.000   12.000    0.000    5.833 
#    0.000    0.000    0.000    0.000    0.000    0.000 
#
# Total GULP energy -267678.253159 kJ/mol
# GULP energy per Si atom -5576.630274 kJ/mol
# Density = 2.533760 g / cm^3
# Si number density = 25.395397 Si / 1000 Ang^3
#
#
#
# Elastic Constant Matrix: (Units=GPa)
#
#
# Indices 1 2 3 4 5 6 
#
# 1 71.9664 38.9196 28.4036 0.0000 0.0000 0.0000
# 2 38.9196 170.5297 37.7420 0.0000 0.0000 0.0000
# 3 28.4036 37.7420 141.0246 0.0000 0.0000 0.0000
# 4 0.0000 0.0000 0.0000 4.0989 0.0000 0.0000
# 5 0.0000 0.0000 0.0000 0.0000 18.5323 0.0000
# 6 0.0000 0.0000 0.0000 0.0000 0.0000 20.1980
#
#
#
# Elastic Compliance Matrix: (Units=1/GPa)
#
#
# Indices 1 2 3 4 5 6 
#
# 1 0.016630 -0.003246 -0.002481 0.000000 0.000000 0.000000
# 2 -0.003246 0.006867 -0.001184 0.000000 0.000000 0.000000
# 3 -0.002481 -0.001184 0.007907 0.000000 0.000000 0.000000
# 4 0.000000 0.000000 0.000000 0.243969 0.000000 0.000000
# 5 0.000000 0.000000 0.000000 0.000000 0.053960 0.000000
# 6 0.000000 0.000000 0.000000 0.000000 0.000000 0.049510
#
#
# Mechanical properties :
#
#
# Convention : Reuss Voigt Hill
#
# Bulk Modulus (GPa) = 56.87447 65.96124 61.41786
# Shear Modulus (GPa) = 12.54623 27.12954 19.83789
#
# Velocity S-wave (km/s) = 2.22510 3.27201 2.79796
# Velocity P-wave (km/s) = 5.38940 6.34861 5.88857
#
# Compressibility (1/GPa) = 0.01758258
#
# Stress axis : x y z
#
# Youngs Moduli (GPa) = 60.13197 145.62312 126.46324
#
# Poissons Ratio (x) = 0.47276 0.31371
# Poissons Ratio (y) = 0.19521 0.14973
# Poissons Ratio (z) = 0.14916 0.17241
#
# Static dielectric constant tensor:
#      x y z
#    x 1.885640 0.000000 0.000000 
#    y 0.000000 2.196290 0.000000 
#    z 0.000000 0.000000 2.008770 
# 
# From -- ./inp_files/47337.got.cif
#   From: 2010.05.17/outbox.cif.g08.bks.cpg/sg72_24_cif.got.tgz:47337.got - 2010.06.03 17:03:01.
