data_PCOD9525666
_publ_section_title
;
Structure prediction by ZEFSAII (Michael W. Deem and Ramdas Pophale) SiO2 
 PCOD9525666
Probable space group: I B A M
;
_chemical_formula_sum "Si O2"
_cell_formula_units_Z 88
_cell_length_a 16.810224
_cell_length_b 27.830964
_cell_length_c 9.665250
_cell_angle_alpha 90.000000
_cell_angle_beta 90.000000
_cell_angle_gamma 90.000000
_cell_volume 4521.836363
_symmetry_space_group_name_H-M "I B A M"
_symmetry_group_IT_number 72
_symmetry_cell_setting 'orthorhombic'
loop_
_space_group_symop_operation_xyz
x,y,z
-x,-y,z
x,-y,1/2-z
-x,y,1/2-z
-x,-y,-z
x,y,-z
-x,y,1/2+z
x,-y,1/2+z
1/2+x,1/2+y,1/2+z
1/2-x,1/2-y,1/2+z
1/2+x,1/2-y,-z
1/2-x,1/2+y,-z
1/2-x,1/2-y,1/2-z
1/2+x,1/2+y,1/2-z
1/2-x,1/2+y,z
1/2+x,1/2-y,z
loop_
_atom_site_type_symbol
_atom_site_label
_atom_site_fract_x
_atom_site_fract_y
_atom_site_fract_z
Si Si1 0.421965 0.121607 0.338119
Si Si2 0.854129 0.812520 0.655431
Si Si3 0.751146 0.093846 0.837054
Si Si4 0.383582 0.455921 0.342432
Si Si5 0.500000 0.624065 0.750000
Si Si6 0.580476 0.234933 0.837423
O O1 0.500000 0.110583 0.250000
O O2 0.439006 0.113842 0.500000
O O3 0.341805 0.093348 0.301860
O O4 0.402242 0.178435 0.322604
O O5 0.848944 0.792651 0.500000
O O6 0.785253 0.851817 0.675024
O O7 0.936518 0.842849 0.670539
O O8 0.856406 0.770691 0.768503
O O9 0.804486 0.062303 0.735637
O O10 0.761697 0.080852 0.000000
O O11 0.413123 0.500000 0.250000
O O12 0.369602 0.470576 0.500000
O O13 0.445819 0.411883 0.339593
O O14 0.500000 0.242880 0.750000
O O15 0.569761 0.245510 0.000000
#
# Coordination Sequence:
#
# PCOD9525666 Si02
#       6
#    16  16  16  16   8  16
#     4   9  19  36  56  78 105 139 179 224 276 330
#     4  10  19  31  49  73 106 145 183 224 267 308
#     4   9  20  38  56  77 107 140 176 224 278 328
#     4  11  23  38  58  84 112 145 183 224 271 326
#     4  10  21  34  54  78 112 148 192 222 257 308
#     4  10  19  30  47  72 104 143 185 226 267 314
#
# _framework density 19.461119
#
# number of rings (size 3 to 8) (size 9 to 14) (size 15 to 20)
#    0.000    2.182    0.909    1.909    0.000    8.000 
#    0.000    0.000    0.000    0.545    0.000    3.818 
#    0.000    0.000    0.000    0.000    0.000    0.000 
#
# Total GULP energy -245581.254871 kJ/mol
# GULP energy per Si atom -5581.392156 kJ/mol
# Density = 1.941682 g / cm^3
# Si number density = 19.461119 Si / 1000 Ang^3
#
#
#
# Elastic Constant Matrix: (Units=GPa)
#
#
# Indices 1 2 3 4 5 6 
#
# 1 121.7685 18.2549 46.4264 0.0001 0.0000 0.0000
# 2 18.2549 22.2914 23.3584 0.0003 -0.0003 0.0000
# 3 46.4264 23.3584 116.6479 0.0021 -0.0016 -0.0005
# 4 0.0001 0.0003 0.0021 22.9037 -0.0007 -0.0002
# 5 0.0000 -0.0003 -0.0016 -0.0007 9.7085 -0.0002
# 6 0.0000 0.0000 -0.0005 -0.0002 -0.0002 9.2072
#
#
#
# Elastic Compliance Matrix: (Units=1/GPa)
#
#
# Indices 1 2 3 4 5 6 
#
# 1 0.010128 -0.005151 -0.003000 0.000000 -0.000001 0.000000
# 2 -0.005151 0.059393 -0.009843 0.000000 0.000000 0.000000
# 3 -0.003000 -0.009843 0.011738 -0.000001 0.000002 0.000001
# 4 0.000000 0.000000 -0.000001 0.043661 0.000003 0.000001
# 5 -0.000001 0.000000 0.000002 0.000003 0.103003 0.000002
# 6 0.000000 0.000000 0.000001 0.000001 0.000002 0.108611
#
#
# Mechanical properties :
#
#
# Convention : Reuss Voigt Hill
#
# Bulk Modulus (GPa) = 22.08901 48.53190 35.31046
# Shear Modulus (GPa) = 12.89951 19.87508 16.38729
#
# Velocity S-wave (km/s) = 2.57735 3.19920 2.90496
# Velocity P-wave (km/s) = 4.49799 6.21599 5.42543
#
# Compressibility (1/GPa) = 0.04527138
#
# Stress axis : x y z
#
# Youngs Moduli (GPa) = 98.73463 16.83703 85.19546
#
# Poissons Ratio (x) = 0.08673 0.25555
# Poissons Ratio (y) = 0.50858 0.83859
# Poissons Ratio (z) = 0.29616 0.16573
#
# Static dielectric constant tensor:
#      x y z
#    x 1.691890 0.000000 0.000000 
#    y 0.000000 1.698160 0.000000 
#    z 0.000000 0.000000 1.656580 
# 
# From -- ./inp_files/5115.got.cif
#   From: 2010.05.17/outbox.cif.g08.bks.cpg/sg72_3_cif.got.tgz:5115.got - 2010.06.03 17:03:01.
