data_PCOD9525854
_publ_section_title
;
Structure prediction by ZEFSAII (Michael W. Deem and Ramdas Pophale) SiO2 
 PCOD9525854
Probable space group: I B A M
;
_chemical_formula_sum "Si O2"
_cell_formula_units_Z 80
_cell_length_a 23.978847
_cell_length_b 24.655140
_cell_length_c 8.670539
_cell_angle_alpha 90.000000
_cell_angle_beta 90.000000
_cell_angle_gamma 90.000000
_cell_volume 5126.038522
_symmetry_space_group_name_H-M "I B A M"
_symmetry_group_IT_number 72
_symmetry_cell_setting 'orthorhombic'
loop_
_space_group_symop_operation_xyz
x,y,z
-x,-y,z
x,-y,1/2-z
-x,y,1/2-z
-x,-y,-z
x,y,-z
-x,y,1/2+z
x,-y,1/2+z
1/2+x,1/2+y,1/2+z
1/2-x,1/2-y,1/2+z
1/2+x,1/2-y,-z
1/2-x,1/2+y,-z
1/2-x,1/2-y,1/2-z
1/2+x,1/2+y,1/2-z
1/2-x,1/2+y,z
1/2+x,1/2-y,z
loop_
_atom_site_type_symbol
_atom_site_label
_atom_site_fract_x
_atom_site_fract_y
_atom_site_fract_z
Si Si1 0.661816 0.734428 0.316037
Si Si2 0.440331 0.667490 0.316112
Si Si3 0.735226 0.557344 0.184153
Si Si4 0.274812 0.833564 0.683868
Si Si5 0.109682 0.941999 0.315206
O O1 0.654306 0.736632 0.500000
O O2 0.608132 0.708204 0.237723
O O3 0.678915 0.793004 0.250660
O O4 0.715143 0.695562 0.284591
O O5 0.500000 0.684502 0.250000
O O6 0.441793 0.664246 0.500000
O O7 0.425234 0.608427 0.247404
O O8 0.756086 0.500000 0.250000
O O9 0.772054 0.608042 0.237002
O O10 0.673334 0.564999 0.256077
O O11 0.730317 0.555008 0.000000
O O12 0.280551 0.838803 0.500000
O O13 0.109430 0.942591 0.500000
O O14 0.090008 0.000000 0.250000
#
# Coordination Sequence:
#
# PCOD9525854 Si02
#       5
#    16  16  16  16  16
#     4  10  20  34  52  74 100 129 166 206 251 300
#     4  12  24  38  54  72  97 130 169 213 256 298
#     4  11  20  31  49  73 102 134 167 205 250 297
#     4  10  19  32  52  75 102 131 164 204 249 301
#     4  11  21  35  51  70  95 128 169 212 254 297
#
# _framework density 15.606593999999999
#
# number of rings (size 3 to 8) (size 9 to 14) (size 15 to 20)
#    0.000    1.200    2.000    7.800    0.000    2.000 
#    0.000    2.000    0.000    0.000    0.000    0.000 
#    0.000    0.800    0.000    8.000    0.000    4.800 
#
# Total GULP energy -223559.746565 kJ/mol
# GULP energy per Si atom -5588.993664 kJ/mol
# Density = 1.557107 g / cm^3
# Si number density = 15.606594 Si / 1000 Ang^3
#
#
#
# Elastic Constant Matrix: (Units=GPa)
#
#
# Indices 1 2 3 4 5 6 
#
# 1 75.9944 50.8538 54.8265 0.0000 0.0000 0.0000
# 2 50.8538 103.9586 67.6533 0.0000 0.0000 0.0000
# 3 54.8265 67.6533 142.9831 0.0000 0.0000 0.0000
# 4 0.0000 0.0000 0.0000 30.6252 0.0000 0.0000
# 5 0.0000 0.0000 0.0000 0.0000 22.1684 0.0000
# 6 0.0000 0.0000 0.0000 0.0000 0.0000 16.1199
#
#
#
# Elastic Compliance Matrix: (Units=1/GPa)
#
#
# Indices 1 2 3 4 5 6 
#
# 1 0.021577 -0.007471 -0.004739 0.000000 0.000000 0.000000
# 2 -0.007471 0.016486 -0.004936 0.000000 0.000000 0.000000
# 3 -0.004739 -0.004936 0.011146 0.000000 0.000000 0.000000
# 4 0.000000 0.000000 0.000000 0.032653 0.000000 0.000000
# 5 0.000000 0.000000 0.000000 0.000000 0.045109 0.000000
# 6 0.000000 0.000000 0.000000 0.000000 0.000000 0.062035
#
#
# Mechanical properties :
#
#
# Convention : Reuss Voigt Hill
#
# Bulk Modulus (GPa) = 67.03172 74.40037 70.71604
# Shear Modulus (GPa) = 21.90388 23.75620 22.83004
#
# Velocity S-wave (km/s) = 3.75040 3.90576 3.82887
# Velocity P-wave (km/s) = 7.86118 8.25323 8.05959
#
# Compressibility (1/GPa) = 0.01491831
#
# Stress axis : x y z
#
# Youngs Moduli (GPa) = 46.34529 60.65805 89.71703
#
# Poissons Ratio (x) = 0.45319 0.42514
# Poissons Ratio (y) = 0.34626 0.44280
# Poissons Ratio (z) = 0.21961 0.29938
#
# Static dielectric constant tensor:
#      x y z
#    x 1.499790 0.000000 0.000000 
#    y 0.000000 1.526470 0.000000 
#    z 0.000000 0.000000 1.514690 
# 
# From -- ./inp_files/4808.got.cif
#   From: 2010.05.17/outbox.cif.g08.bks.cpg/sg72_3_cif.got.tgz:4808.got - 2010.06.03 17:03:01.
