data_PCOD9525879
_publ_section_title
;
Structure prediction by ZEFSAII (Michael W. Deem and Ramdas Pophale) SiO2 
 PCOD9525879
Probable space group: I B A M
;
_chemical_formula_sum "Si O2"
_cell_formula_units_Z 80
_cell_length_a 19.478167
_cell_length_b 27.056553
_cell_length_c 8.572573
_cell_angle_alpha 90.000000
_cell_angle_beta 90.000000
_cell_angle_gamma 90.000000
_cell_volume 4517.849337
_symmetry_space_group_name_H-M "I B A M"
_symmetry_group_IT_number 72
_symmetry_cell_setting 'orthorhombic'
loop_
_space_group_symop_operation_xyz
x,y,z
-x,-y,z
x,-y,1/2-z
-x,y,1/2-z
-x,-y,-z
x,y,-z
-x,y,1/2+z
x,-y,1/2+z
1/2+x,1/2+y,1/2+z
1/2-x,1/2-y,1/2+z
1/2+x,1/2-y,-z
1/2-x,1/2+y,-z
1/2-x,1/2-y,1/2-z
1/2+x,1/2+y,1/2-z
1/2-x,1/2+y,z
1/2+x,1/2-y,z
loop_
_atom_site_type_symbol
_atom_site_label
_atom_site_fract_x
_atom_site_fract_y
_atom_site_fract_z
Si Si1 0.423090 0.553263 0.812682
Si Si2 0.669428 0.141203 0.812704
Si Si3 0.824911 0.857307 0.189041
Si Si4 0.423105 0.946807 0.314404
Si Si5 0.172260 0.250626 0.812285
O O1 0.399327 0.500000 0.750000
O O2 0.500000 0.561184 0.750000
O O3 0.373344 0.597634 0.763286
O O4 0.425239 0.551580 0.000000
O O5 0.748867 0.137824 0.759974
O O6 0.625591 0.097411 0.739560
O O7 0.642983 0.196144 0.762568
O O8 0.665865 0.137873 0.000000
O O9 0.855687 0.803321 0.234039
O O10 0.818559 0.858286 0.000000
O O11 0.500000 0.938906 0.250000
O O12 0.425780 0.949227 0.500000
O O13 0.399068 0.000000 0.250000
O O14 0.250000 0.250000 0.750000
O O15 0.173476 0.251667 0.000000
#
# Coordination Sequence:
#
# PCOD9525879 Si02
#       5
#    16  16  16  16  16
#     4  10  20  34  52  71  97 131 167 207 253 302
#     4  10  19  32  53  80 106 134 168 208 251 300
#     4   9  18  33  52  75 102 135 172 213 255 297
#     4  11  22  38  57  76 102 135 170 209 253 304
#     4   8  15  29  49  72 101 133 167 205 249 297
#
# _framework density 17.707540999999999
#
# number of rings (size 3 to 8) (size 9 to 14) (size 15 to 20)
#    0.000    2.400    0.000    4.200    0.000    3.200 
#    0.000    3.000    0.000    2.400    0.000    0.000 
#    0.000    0.000    0.000    0.000    0.000    0.000 
#
# Total GULP energy -222924.516420 kJ/mol
# GULP energy per Si atom -5573.112911 kJ/mol
# Density = 1.766724 g / cm^3
# Si number density = 17.707541 Si / 1000 Ang^3
#
#
#
# Elastic Constant Matrix: (Units=GPa)
#
#
# Indices 1 2 3 4 5 6 
#
# 1 49.9029 85.5508 26.3916 0.0000 0.0000 0.0000
# 2 85.5508 228.0609 57.6369 0.0000 0.0000 0.0000
# 3 26.3916 57.6369 64.7682 0.0000 0.0000 0.0000
# 4 0.0000 0.0000 0.0000 24.5549 0.0000 0.0000
# 5 0.0000 0.0000 0.0000 0.0000 24.9311 0.0000
# 6 0.0000 0.0000 0.0000 0.0000 0.0000 -61.5884
#
#
#
# Elastic Compliance Matrix: (Units=1/GPa)
#
#
# Indices 1 2 3 4 5 6 
#
# 1 0.057612 -0.020228 -0.005475 0.000000 0.000000 0.000000
# 2 -0.020228 0.012759 -0.003112 0.000000 0.000000 0.000000
# 3 -0.005475 -0.003112 0.020440 0.000000 0.000000 0.000000
# 4 0.000000 0.000000 0.000000 0.040725 0.000000 0.000000
# 5 0.000000 0.000000 0.000000 0.000000 0.040110 0.000000
# 6 0.000000 0.000000 0.000000 0.000000 0.000000 -0.016237
#
#
# Mechanical properties :
#
#
# Convention : Reuss Voigt Hill
#
# Bulk Modulus (GPa) = 30.13719 75.76560 52.95139
# Shear Modulus (GPa) = 22.31151 9.12304 15.71728
#
# Velocity S-wave (km/s) = 3.55350 2.27228 2.98250
# Velocity P-wave (km/s) = 5.82176 7.05439 6.46751
#
# Compressibility (1/GPa) = 0.03318160
#
# Stress axis : x y z
#
# Youngs Moduli (GPa) = 17.35752 78.37483 48.92409
#
# Poissons Ratio (x) = 1.58536 0.26785
# Poissons Ratio (y) = 0.35111 0.15225
# Poissons Ratio (z) = 0.09503 0.24390
#
# Static dielectric constant tensor:
#      x y z
#    x 1.555370 0.000000 0.000000 
#    y 0.000000 1.652600 0.000000 
#    z 0.000000 0.000000 1.601530 
# 
# From -- ./inp_files/4771.got.cif
#   From: 2010.05.17/outbox.cif.g08.bks.cpg/sg72_3_cif.got.tgz:4771.got - 2010.06.03 17:03:01.
