data_PCOD9525717
_publ_section_title
;
Structure prediction by ZEFSAII (Michael W. Deem and Ramdas Pophale) SiO2 
 PCOD9525717
Probable space group: I B A M
;
_chemical_formula_sum "Si O2"
_cell_formula_units_Z 84
_cell_length_a 13.026942
_cell_length_b 12.425202
_cell_length_c 21.841590
_cell_angle_alpha 90.000000
_cell_angle_beta 90.000000
_cell_angle_gamma 90.000000
_cell_volume 3535.331867
_symmetry_space_group_name_H-M "I B A M"
_symmetry_group_IT_number 72
_symmetry_cell_setting 'orthorhombic'
loop_
_space_group_symop_operation_xyz
x,y,z
-x,-y,z
x,-y,1/2-z
-x,y,1/2-z
-x,-y,-z
x,y,-z
-x,y,1/2+z
x,-y,1/2+z
1/2+x,1/2+y,1/2+z
1/2-x,1/2-y,1/2+z
1/2+x,1/2-y,-z
1/2-x,1/2+y,-z
1/2-x,1/2-y,1/2-z
1/2+x,1/2+y,1/2-z
1/2-x,1/2+y,z
1/2+x,1/2-y,z
loop_
_atom_site_type_symbol
_atom_site_label
_atom_site_fract_x
_atom_site_fract_y
_atom_site_fract_z
Si Si1 0.884090 0.645490 0.225855
Si Si2 0.500000 0.000000 0.500000
Si Si3 0.242248 0.839295 0.667058
Si Si4 0.086458 0.152692 0.930391
Si Si5 0.644153 0.096060 0.908726
Si Si6 0.356175 0.689579 0.570749
O O1 0.834971 0.759049 0.203655
O O2 0.809301 0.608328 0.280099
O O3 0.878543 0.582127 0.162338
O O4 0.000000 0.652908 0.250000
O O5 0.411967 0.007633 0.552689
O O6 0.322320 0.775582 0.622490
O O7 0.164518 0.894021 0.619373
O O8 0.966598 0.138238 0.916504
O O9 0.100915 0.284377 0.927935
O O10 0.107633 0.118188 0.000000
O O11 0.762914 0.106715 0.924723
O O12 0.360416 0.731929 0.500000
#
# Coordination Sequence:
#
# PCOD9525717 Si02
#       6
#    16   4  16  16  16  16
#     4   9  17  28  42  63  97 131 167 207 253 319
#     4  12  20  36  50  64  96 138 186 234 256 324
#     4   9  15  24  40  65  98 136 162 199 260 325
#     4   9  15  25  43  70 105 135 168 212 267 329
#     4  10  19  31  47  70  97 138 181 214 272 322
#     4   9  15  26  44  70 104 134 171 218 265 328
#
# _framework density 23.760144
#
# number of rings (size 3 to 8) (size 9 to 14) (size 15 to 20)
#    0.000    3.048    1.905    4.000    0.000    0.000 
#    0.000    0.476    0.000    0.000    0.000    0.000 
#    0.000   27.429    0.000   43.429    0.000    0.571 
#
# Total GULP energy -234040.724028 kJ/mol
# GULP energy per Si atom -5572.398191 kJ/mol
# Density = 2.370606 g / cm^3
# Si number density = 23.760144 Si / 1000 Ang^3
#
#
#
# Elastic Constant Matrix: (Units=GPa)
#
#
# Indices 1 2 3 4 5 6 
#
# 1 181.3016 18.1468 123.7220 0.0000 0.0000 0.0000
# 2 18.1468 40.0384 25.0935 0.0000 0.0000 0.0000
# 3 123.7220 25.0935 240.1732 0.0000 0.0000 0.0000
# 4 0.0000 0.0000 0.0000 10.0076 0.0000 0.0000
# 5 0.0000 0.0000 0.0000 0.0000 83.8271 0.0000
# 6 0.0000 0.0000 0.0000 0.0000 0.0000 -9.4203
#
#
#
# Elastic Compliance Matrix: (Units=1/GPa)
#
#
# Indices 1 2 3 4 5 6 
#
# 1 0.008559 -0.001194 -0.004284 0.000000 0.000000 0.000000
# 2 -0.001194 0.026893 -0.002195 0.000000 0.000000 0.000000
# 3 -0.004284 -0.002195 0.006600 0.000000 0.000000 0.000000
# 4 0.000000 0.000000 0.000000 0.099924 0.000000 0.000000
# 5 0.000000 0.000000 0.000000 0.000000 0.011929 0.000000
# 6 0.000000 0.000000 0.000000 0.000000 0.000000 -0.106154
#
#
# Mechanical properties :
#
#
# Convention : Reuss Voigt Hill
#
# Bulk Modulus (GPa) = 37.44547 88.38199 62.91373
# Shear Modulus (GPa) = 69.44565 36.51960 52.98263
#
# Velocity S-wave (km/s) = 5.41214 3.92473 4.72730
# Velocity P-wave (km/s) = 7.40601 7.60370 7.50551
#
# Compressibility (1/GPa) = 0.02670550
#
# Stress axis : x y z
#
# Youngs Moduli (GPa) = 116.83962 37.18486 151.51765
#
# Poissons Ratio (x) = 0.04440 0.64913
# Poissons Ratio (y) = 0.13951 0.33253
# Poissons Ratio (z) = 0.50056 0.08161
#
# Static dielectric constant tensor:
#      x y z
#    x 1.858800 0.000000 0.000000 
#    y 0.000000 2.004790 0.000000 
#    z 0.000000 0.000000 1.862000 
# 
# From -- ./inp_files/37040.got.cif
#   From: 2010.05.17/outbox.cif.g08.bks.cpg/sg72_19_cif.got.tgz:37040.got - 2010.06.03 17:03:01.
