data_PCOD9525160
_publ_section_title
;
Structure prediction by ZEFSAII (Michael W. Deem and Ramdas Pophale) SiO2 
 PCOD9525160
Probable space group: I B A M
;
_chemical_formula_sum "Si O2"
_cell_formula_units_Z 96
_cell_length_a 24.274809
_cell_length_b 18.875566
_cell_length_c 9.058200
_cell_angle_alpha 90.000000
_cell_angle_beta 90.000000
_cell_angle_gamma 90.000000
_cell_volume 4150.474119
_symmetry_space_group_name_H-M "I B A M"
_symmetry_group_IT_number 72
_symmetry_cell_setting 'orthorhombic'
loop_
_space_group_symop_operation_xyz
x,y,z
-x,-y,z
x,-y,1/2-z
-x,y,1/2-z
-x,-y,-z
x,y,-z
-x,y,1/2+z
x,-y,1/2+z
1/2+x,1/2+y,1/2+z
1/2-x,1/2-y,1/2+z
1/2+x,1/2-y,-z
1/2-x,1/2+y,-z
1/2-x,1/2-y,1/2-z
1/2+x,1/2+y,1/2-z
1/2-x,1/2+y,z
1/2+x,1/2-y,z
loop_
_atom_site_type_symbol
_atom_site_label
_atom_site_fract_x
_atom_site_fract_y
_atom_site_fract_z
Si Si1 0.945354 0.624908 0.176764
Si Si2 0.675141 0.742420 0.658689
Si Si3 0.717120 0.404273 0.834047
Si Si4 0.074498 0.226417 0.669547
Si Si5 0.599480 0.571838 0.177395
Si Si6 0.323836 0.091433 0.665024
O O1 0.943559 0.707287 0.230689
O O2 0.887106 0.588801 0.220584
O O3 0.000000 0.593352 0.250000
O O4 0.948261 0.622869 0.000000
O O5 0.644155 0.726364 0.500000
O O6 0.720285 0.681712 0.659806
O O7 0.640148 0.731962 0.806428
O O8 0.686942 0.824361 0.648448
O O9 0.662286 0.420643 0.739716
O O10 0.774498 0.430363 0.770052
O O11 0.707973 0.430859 0.000000
O O12 0.057794 0.236947 0.500000
O O13 0.066110 0.144426 0.715280
O O14 0.576954 0.500000 0.250000
O O15 0.600701 0.567229 0.000000
O O16 0.320986 0.060164 0.500000
#
# Coordination Sequence:
#
# PCOD9525160 Si02
#       6
#    16  16  16  16  16  16
#     4  10  20  33  49  68  92 122 155 192 232 275
#     4   8  15  26  39  59  88 119 148 178 214 260
#     4  10  18  27  42  64  90 120 152 184 220 266
#     4   9  17  29  46  67  89 116 151 189 230 274
#     4  10  20  33  49  68  92 122 155 192 232 275
#     4   9  17  28  41  61  90 120 149 182 221 265
#
# _framework density 23.129888000000001
#
# number of rings (size 3 to 8) (size 9 to 14) (size 15 to 20)
#    0.000    2.667    0.000    3.500    0.000    6.000 
#    0.000    3.333    0.000    0.500    0.000    3.500 
#    0.000    0.667    0.000    7.000    0.000    3.833 
#
# Total GULP energy -267351.434249 kJ/mol
# GULP energy per Si atom -5569.821547 kJ/mol
# Density = 2.307724 g / cm^3
# Si number density = 23.129888 Si / 1000 Ang^3
#
#
#
# Elastic Constant Matrix: (Units=GPa)
#
#
# Indices 1 2 3 4 5 6 
#
# 1 97.0676 -6.2437 29.2302 0.0000 0.0000 0.0000
# 2 -6.2437 87.6411 9.5164 0.0000 0.0000 0.0000
# 3 29.2302 9.5164 62.5808 0.0000 0.0000 0.0000
# 4 0.0000 0.0000 0.0000 14.9012 0.0000 0.0000
# 5 0.0000 0.0000 0.0000 0.0000 18.8931 0.0000
# 6 0.0000 0.0000 0.0000 0.0000 0.0000 1.4029
#
#
#
# Elastic Compliance Matrix: (Units=1/GPa)
#
#
# Indices 1 2 3 4 5 6 
#
# 1 0.012182 0.001511 -0.005920 0.000000 0.000000 0.000000
# 2 0.001511 0.011789 -0.002498 0.000000 0.000000 0.000000
# 3 -0.005920 -0.002498 0.019124 0.000000 0.000000 0.000000
# 4 0.000000 0.000000 0.000000 0.067109 0.000000 0.000000
# 5 0.000000 0.000000 0.000000 0.000000 0.052929 0.000000
# 6 0.000000 0.000000 0.000000 0.000000 0.000000 0.712823
#
#
# Mechanical properties :
#
#
# Convention : Reuss Voigt Hill
#
# Bulk Modulus (GPa) = 34.15238 34.69949 34.42594
# Shear Modulus (GPa) = 5.55845 21.35855 13.45850
#
# Velocity S-wave (km/s) = 1.55189 3.04208 2.41481
# Velocity P-wave (km/s) = 4.24366 5.23197 4.76352
#
# Compressibility (1/GPa) = 0.02928053
#
# Stress axis : x y z
#
# Youngs Moduli (GPa) = 82.08928 84.82433 52.28983
#
# Poissons Ratio (x) = -0.12814 0.30954
# Poissons Ratio (y) = -0.12401 0.13064
# Poissons Ratio (z) = 0.48594 0.21192
#
# Static dielectric constant tensor:
#      x y z
#    x 1.907710 0.000000 0.000000 
#    y 0.000000 1.927800 0.000000 
#    z 0.000000 0.000000 1.891450 
# 
# From -- ./inp_files/8289.got.cif
#   From: 2010.05.17/outbox.cif.g08.bks.cpg/sg72_5_cif.got.tgz:8289.got - 2010.06.03 17:03:01.
