data_PCOD9525323
_publ_section_title
;
Structure prediction by ZEFSAII (Michael W. Deem and Ramdas Pophale) SiO2 
 PCOD9525323
Probable space group: I B A M
;
_chemical_formula_sum "Si O2"
_cell_formula_units_Z 96
_cell_length_a 24.631599
_cell_length_b 13.499100
_cell_length_c 17.881900
_cell_angle_alpha 90.000000
_cell_angle_beta 90.000000
_cell_angle_gamma 90.000000
_cell_volume 5945.810753
_symmetry_space_group_name_H-M "I B A M"
_symmetry_group_IT_number 72
_symmetry_cell_setting 'orthorhombic'
loop_
_space_group_symop_operation_xyz
x,y,z
-x,-y,z
x,-y,1/2-z
-x,y,1/2-z
-x,-y,-z
x,y,-z
-x,y,1/2+z
x,-y,1/2+z
1/2+x,1/2+y,1/2+z
1/2-x,1/2-y,1/2+z
1/2+x,1/2-y,-z
1/2-x,1/2+y,-z
1/2-x,1/2-y,1/2-z
1/2+x,1/2+y,1/2-z
1/2-x,1/2+y,z
1/2+x,1/2-y,z
loop_
_atom_site_type_symbol
_atom_site_label
_atom_site_fract_x
_atom_site_fract_y
_atom_site_fract_z
Si Si1 0.225978 0.945809 0.830337
Si Si2 0.063023 0.603325 0.656275
Si Si3 0.327231 0.201325 0.655761
Si Si4 0.747132 0.359167 0.914461
Si Si5 0.659666 0.746897 0.172012
Si Si6 0.558623 0.875632 0.837792
O O1 0.282913 0.885775 0.832651
O O2 0.179507 0.864064 0.846386
O O3 0.219244 0.000000 0.750000
O O4 0.228981 0.031879 0.891088
O O5 0.115143 0.661642 0.628290
O O6 0.070927 0.487770 0.635732
O O7 0.061791 0.612940 0.747156
O O8 0.003084 0.641778 0.635584
O O9 0.301056 0.282394 0.602285
O O10 0.336381 0.246787 0.738167
O O11 0.795773 0.322045 0.861468
O O12 0.764294 0.354306 0.000000
O O13 0.601952 0.790045 0.144835
#
# Coordination Sequence:
#
# PCOD9525323 Si02
#       6
#    16  16  16  16  16  16
#     4  11  18  30  48  72  95 131 168 197 240 289
#     4   8  14  24  45  73 102 121 155 197 247 281
#     4  10  18  30  52  72  96 131 162 197 240 295
#     4  11  22  33  46  72 102 128 161 203 247 290
#     4  10  18  31  52  71  98 131 164 198 240 292
#     4   8  14  25  43  75 100 124 153 201 241 284
#
# _framework density 16.145821999999999
#
# number of rings (size 3 to 8) (size 9 to 14) (size 15 to 20)
#    0.000    2.333    3.333    3.000    2.333    2.667 
#    0.000    0.000    0.000    2.000    0.000    4.667 
#    0.000    0.000    0.000    0.000    0.000    0.000 
#
# Total GULP energy -267283.670423 kJ/mol
# GULP energy per Si atom -5568.409800 kJ/mol
# Density = 1.610907 g / cm^3
# Si number density = 16.145822 Si / 1000 Ang^3
#
#
#
# Elastic Constant Matrix: (Units=GPa)
#
#
# Indices 1 2 3 4 5 6 
#
# 1 94.2658 48.5595 -10.1579 0.0000 0.0000 0.0000
# 2 48.5595 97.0178 0.4184 0.0000 0.0000 0.0000
# 3 -10.1579 0.4184 11.6599 0.0000 0.0000 0.0000
# 4 0.0000 0.0000 0.0000 6.4965 0.0000 0.0000
# 5 0.0000 0.0000 0.0000 0.0000 -2.8143 0.0000
# 6 0.0000 0.0000 0.0000 0.0000 0.0000 22.9233
#
#
#
# Elastic Compliance Matrix: (Units=1/GPa)
#
#
# Indices 1 2 3 4 5 6 
#
# 1 0.016463 -0.008303 0.014640 0.000000 0.000000 0.000000
# 2 -0.008303 0.014497 -0.007754 0.000000 0.000000 0.000000
# 3 0.014640 -0.007754 0.098797 0.000000 0.000000 0.000000
# 4 0.000000 0.000000 0.000000 0.153929 0.000000 0.000000
# 5 0.000000 0.000000 0.000000 0.000000 -0.355333 0.000000
# 6 0.000000 0.000000 0.000000 0.000000 0.000000 0.043624
#
#
# Mechanical properties :
#
#
# Convention : Reuss Voigt Hill
#
# Bulk Modulus (GPa) = 7.87879 31.17596 19.52737
# Shear Modulus (GPa) = 292.08920 16.26268 154.17594
#
# Velocity S-wave (km/s) = 13.46476 3.17714 9.78248
# Velocity P-wave (km/s) = 15.70425 5.72799 11.82018
#
# Compressibility (1/GPa) = 0.12692305
#
# Stress axis : x y z
#
# Youngs Moduli (GPa) = 60.74121 68.98054 10.12180
#
# Poissons Ratio (x) = 0.57277 -0.14819
# Poissons Ratio (y) = 0.50436 0.07848
# Poissons Ratio (z) = -0.88928 0.53487
#
# Static dielectric constant tensor:
#      x y z
#    x 1.560620 0.000000 0.000000 
#    y 0.000000 1.536460 0.000000 
#    z 0.000000 0.000000 1.532430 
# 
# From -- ./inp_files/33894.got.cif
#   From: 2010.05.17/outbox.cif.g08.bks.cpg/sg72_17_cif.got.tgz:33894.got - 2010.06.03 17:03:01.
