data_PCOD9525590
_publ_section_title
;
Structure prediction by ZEFSAII (Michael W. Deem and Ramdas Pophale) SiO2 
 PCOD9525590
Probable space group: I B A M
;
_chemical_formula_sum "Si O2"
_cell_formula_units_Z 88
_cell_length_a 21.242720
_cell_length_b 9.327944
_cell_length_c 22.842715
_cell_angle_alpha 90.000000
_cell_angle_beta 90.000000
_cell_angle_gamma 90.000000
_cell_volume 4526.304594
_symmetry_space_group_name_H-M "I B A M"
_symmetry_group_IT_number 72
_symmetry_cell_setting 'orthorhombic'
loop_
_space_group_symop_operation_xyz
x,y,z
-x,-y,z
x,-y,1/2-z
-x,y,1/2-z
-x,-y,-z
x,y,-z
-x,y,1/2+z
x,-y,1/2+z
1/2+x,1/2+y,1/2+z
1/2-x,1/2-y,1/2+z
1/2+x,1/2-y,-z
1/2-x,1/2+y,-z
1/2-x,1/2-y,1/2-z
1/2+x,1/2+y,1/2-z
1/2-x,1/2+y,z
1/2+x,1/2-y,z
loop_
_atom_site_type_symbol
_atom_site_label
_atom_site_fract_x
_atom_site_fract_y
_atom_site_fract_z
Si Si1 0.560757 0.840899 0.278708
Si Si2 0.493854 0.159898 0.594334
Si Si3 0.140425 0.308578 0.598270
Si Si4 0.322877 0.030498 0.500000
Si Si5 0.324743 0.582017 0.500000
Si Si6 0.810810 0.335081 0.230015
Si Si7 0.410000 0.696189 0.000000
O O1 0.500000 0.766998 0.250000
O O2 0.545592 0.858126 0.346349
O O3 0.627448 0.774465 0.263390
O O4 0.564065 0.000000 0.250000
O O5 0.565314 0.207207 0.606920
O O6 0.455739 0.269235 0.554302
O O7 0.500000 0.000000 0.567388
O O8 0.153096 0.447058 0.557588
O O9 0.174186 0.323713 0.660816
O O10 0.164791 0.178814 0.557806
O O11 0.247324 0.030117 0.500000
O O12 0.353953 0.186565 0.500000
O O13 0.376196 0.456162 0.500000
O O14 0.802971 0.500000 0.250000
O O15 0.750000 0.250000 0.250000
#
# Coordination Sequence:
#
# PCOD9525590 Si02
#       7
#    16  16  16   8   8  16   8
#     4  10  18  36  65  95 126 169 216 274 331 377
#     4  12  20  38  69  99 131 162 233 287 328 391
#     4  11  24  44  68  96 132 174 219 286 328 391
#     4  11  24  43  69  95 126 176 228 273 328 396
#     4  11  28  46  61  94 147 180 214 269 351 414
#     4  11  25  43  69 100 135 174 220 272 336 404
#     4  12  25  38  70 103 125 178 227 279 337 396
#
# _framework density 19.441908000000002
#
# number of rings (size 3 to 8) (size 9 to 14) (size 15 to 20)
#    0.000    0.909    5.455    3.545    2.545    2.909 
#    0.000    0.000    0.000    0.545    0.000    0.000 
#    0.000    0.000    0.000    0.000    0.000    0.000 
#
# Total GULP energy -245796.683718 kJ/mol
# GULP energy per Si atom -5586.288266 kJ/mol
# Density = 1.939766 g / cm^3
# Si number density = 19.441908 Si / 1000 Ang^3
#
#
#
# Elastic Constant Matrix: (Units=GPa)
#
#
# Indices 1 2 3 4 5 6 
#
# 1 174.5065 38.6086 68.1495 0.0000 0.0000 0.0000
# 2 38.6086 73.8393 45.9020 0.0000 0.0000 0.0000
# 3 68.1495 45.9020 176.9522 0.0000 0.0000 0.0000
# 4 0.0000 0.0000 0.0000 -7.4936 0.0000 0.0000
# 5 0.0000 0.0000 0.0000 0.0000 45.4862 0.0000
# 6 0.0000 0.0000 0.0000 0.0000 0.0000 31.6240
#
#
#
# Elastic Compliance Matrix: (Units=1/GPa)
#
#
# Indices 1 2 3 4 5 6 
#
# 1 0.007083 -0.002394 -0.002107 0.000000 0.000000 0.000000
# 2 -0.002394 0.016956 -0.003476 0.000000 0.000000 0.000000
# 3 -0.002107 -0.003476 0.007364 0.000000 0.000000 0.000000
# 4 0.000000 0.000000 0.000000 -0.133448 0.000000 0.000000
# 5 0.000000 0.000000 0.000000 0.000000 0.021985 0.000000
# 6 0.000000 0.000000 0.000000 0.000000 0.000000 0.031622
#
#
# Mechanical properties :
#
#
# Convention : Reuss Voigt Hill
#
# Bulk Modulus (GPa) = 64.72962 81.17980 72.95471
# Shear Modulus (GPa) = -182.91505 32.09919 -75.40793
#
# Velocity S-wave (km/s) = -9.71016 4.06770 -6.23462
# Velocity P-wave (km/s) = 9.60989 7.99420 3.77113
#
# Compressibility (1/GPa) = 0.01544888
#
# Stress axis : x y z
#
# Youngs Moduli (GPa) = 141.18654 58.97737 135.78707
#
# Poissons Ratio (x) = 0.14117 0.28609
# Poissons Ratio (y) = 0.33796 0.47206
# Poissons Ratio (z) = 0.29746 0.20503
#
# Static dielectric constant tensor:
#      x y z
#    x 1.709360 0.000000 0.000000 
#    y 0.000000 1.707720 0.000000 
#    z 0.000000 0.000000 1.680350 
# 
# From -- ./inp_files/45293.got.cif
#   From: 2010.05.17/outbox.cif.g08.bks.cpg/sg72_23_cif.got.tgz:45293.got - 2010.06.03 17:03:01.
