data_PCOD9525538
_publ_section_title
;
Structure prediction by ZEFSAII (Michael W. Deem and Ramdas Pophale) SiO2 
 PCOD9525538
Probable space group: I B A M
;
_chemical_formula_sum "Si O2"
_cell_formula_units_Z 108
_cell_length_a 11.170111
_cell_length_b 32.670037
_cell_length_c 14.751205
_cell_angle_alpha 90.000000
_cell_angle_beta 90.000000
_cell_angle_gamma 90.000000
_cell_volume 5383.126848
_symmetry_space_group_name_H-M "I B A M"
_symmetry_group_IT_number 72
_symmetry_cell_setting 'orthorhombic'
loop_
_space_group_symop_operation_xyz
x,y,z
-x,-y,z
x,-y,1/2-z
-x,y,1/2-z
-x,-y,-z
x,y,-z
-x,y,1/2+z
x,-y,1/2+z
1/2+x,1/2+y,1/2+z
1/2-x,1/2-y,1/2+z
1/2+x,1/2-y,-z
1/2-x,1/2+y,-z
1/2-x,1/2-y,1/2-z
1/2+x,1/2+y,1/2-z
1/2-x,1/2+y,z
1/2+x,1/2-y,z
loop_
_atom_site_type_symbol
_atom_site_label
_atom_site_fract_x
_atom_site_fract_y
_atom_site_fract_z
Si Si1 0.152406 0.175677 0.102256
Si Si2 0.920953 0.711135 0.395173
Si Si3 0.008283 0.624092 0.103632
Si Si4 0.687776 0.061877 0.846215
Si Si5 0.500000 0.000000 0.750000
Si Si6 0.757584 0.910529 0.839852
Si Si7 0.000000 0.223631 0.250000
Si Si8 0.637894 0.496384 0.861158
O O1 0.284891 0.195310 0.103515
O O2 0.170659 0.127623 0.121311
O O3 0.080716 0.195899 0.184362
O O4 0.103122 0.181833 0.000000
O O5 0.953351 0.722467 0.500000
O O6 0.933932 0.746823 0.322243
O O7 0.998768 0.671176 0.365248
O O8 0.116522 0.599642 0.149775
O O9 0.888582 0.597849 0.109435
O O10 0.047591 0.627604 0.000000
O O11 0.766359 0.083156 0.767591
O O12 0.589012 0.029622 0.806282
O O13 0.780507 0.033048 0.897655
O O14 0.801391 0.952910 0.882989
O O15 0.500000 0.500000 0.888000
O O16 0.641796 0.500000 0.750000
#
# Coordination Sequence:
#
# PCOD9525538 Si02
#       8
#    16  16  16  16   4  16   8  16
#     4  10  23  40  59  89 122 153 201 254 304 374
#     4   9  21  39  59  90 124 153 193 250 312 375
#     4  10  20  34  55  85 118 149 187 249 317 369
#     4  11  18  31  57  84 117 151 203 254 303 363
#     4  12  16  30  48  88 116 136 198 274 298 344
#     4  10  18  34  59  80 112 158 196 244 304 362
#     4  12  22  37  68  88 113 161 206 242 307 380
#     4   9  18  32  52  80 112 155 202 246 290 353
#
# _framework density 20.062688999999999
#
# number of rings (size 3 to 8) (size 9 to 14) (size 15 to 20)
#    0.000    1.926    3.704    2.222    4.148    2.370 
#    0.000    4.074    0.000    6.667    0.000    0.000 
#    0.000    0.000    0.000    0.000    0.000    0.000 
#
# Total GULP energy -301113.634584 kJ/mol
# GULP energy per Si atom -5576.178418 kJ/mol
# Density = 2.001703 g / cm^3
# Si number density = 20.062689 Si / 1000 Ang^3
#
#
#
# Elastic Constant Matrix: (Units=GPa)
#
#
# Indices 1 2 3 4 5 6 
#
# 1 76.4274 52.4093 26.6012 0.0002 -0.0001 0.0000
# 2 52.4093 120.0010 55.3286 -0.0001 0.0000 0.0000
# 3 26.6012 55.3286 107.5002 -0.0006 -0.0002 -0.0002
# 4 0.0002 -0.0001 -0.0006 57.3536 -0.0004 0.0000
# 5 -0.0001 0.0000 -0.0002 -0.0004 9.8000 0.0000
# 6 0.0000 0.0000 -0.0002 0.0000 0.0000 22.0160
#
#
#
# Elastic Compliance Matrix: (Units=1/GPa)
#
#
# Indices 1 2 3 4 5 6 
#
# 1 0.018704 -0.007912 -0.000556 0.000000 0.000000 0.000000
# 2 -0.007912 0.014273 -0.005388 0.000000 0.000000 0.000000
# 3 -0.000556 -0.005388 0.012213 0.000000 0.000000 0.000000
# 4 0.000000 0.000000 0.000000 0.017436 0.000001 0.000000
# 5 0.000000 0.000000 0.000000 0.000001 0.102041 0.000000
# 6 0.000000 0.000000 0.000000 0.000000 0.000000 0.045421
#
#
# Mechanical properties :
#
#
# Convention : Reuss Voigt Hill
#
# Bulk Modulus (GPa) = 57.21823 63.62300 60.42062
# Shear Modulus (GPa) = 20.52318 29.13988 24.83153
#
# Velocity S-wave (km/s) = 3.20183 3.81523 3.52191
# Velocity P-wave (km/s) = 6.50005 7.15464 6.83518
#
# Compressibility (1/GPa) = 0.01747695
#
# Stress axis : x y z
#
# Youngs Moduli (GPa) = 53.46571 70.06106 81.87896
#
# Poissons Ratio (x) = 0.55434 0.04552
# Poissons Ratio (y) = 0.42304 0.44119
# Poissons Ratio (z) = 0.02972 0.37751
#
# Static dielectric constant tensor:
#      x y z
#    x 1.694070 0.000000 0.000000 
#    y 0.000000 1.735270 0.000000 
#    z 0.000000 0.000000 1.745360 
# 
# From -- ./inp_files/20757.got.cif
#   From: 2010.05.17/outbox.cif.g08.bks.cpg/sg72_11_cif.got.tgz:20757.got - 2010.06.03 17:03:01.
