data_PCOD9525304
_publ_section_title
;
Structure prediction by ZEFSAII (Michael W. Deem and Ramdas Pophale) SiO2 
 PCOD9525304
Probable space group: I B A M
;
_chemical_formula_sum "Si O2"
_cell_formula_units_Z 112
_cell_length_a 16.188717
_cell_length_b 27.920094
_cell_length_c 14.263300
_cell_angle_alpha 90.000000
_cell_angle_beta 90.000000
_cell_angle_gamma 90.000000
_cell_volume 6446.876104
_symmetry_space_group_name_H-M "I B A M"
_symmetry_group_IT_number 72
_symmetry_cell_setting 'orthorhombic'
loop_
_space_group_symop_operation_xyz
x,y,z
-x,-y,z
x,-y,1/2-z
-x,y,1/2-z
-x,-y,-z
x,y,-z
-x,y,1/2+z
x,-y,1/2+z
1/2+x,1/2+y,1/2+z
1/2-x,1/2-y,1/2+z
1/2+x,1/2-y,-z
1/2-x,1/2+y,-z
1/2-x,1/2-y,1/2-z
1/2+x,1/2+y,1/2-z
1/2-x,1/2+y,z
1/2+x,1/2-y,z
loop_
_atom_site_type_symbol
_atom_site_label
_atom_site_fract_x
_atom_site_fract_y
_atom_site_fract_z
Si Si1 0.848913 0.533682 0.891658
Si Si2 0.222119 0.154698 0.888900
Si Si3 0.594416 0.291360 0.226304
Si Si4 0.955746 0.702667 0.107121
Si Si5 0.645860 0.238086 0.606882
Si Si6 0.671550 0.071501 0.306244
Si Si7 0.502950 0.901882 0.108997
O O1 0.836270 0.478620 0.862610
O O2 0.810446 0.562080 0.803337
O O3 0.944039 0.551939 0.887063
O O4 0.822546 0.542091 0.000000
O O5 0.138525 0.170378 0.838517
O O6 0.288051 0.197315 0.870305
O O7 0.261082 0.106238 0.849938
O O8 0.211295 0.151358 0.000000
O O9 0.500000 0.304036 0.250000
O O10 0.590374 0.239769 0.173633
O O11 0.645559 0.281425 0.320497
O O12 0.053335 0.715793 0.112301
O O13 0.951166 0.646448 0.128789
O O14 0.928397 0.710312 0.000000
O O15 0.659525 0.253543 0.500000
O O16 0.581030 0.094218 0.323788
O O17 0.532323 0.896885 0.000000
#
# Coordination Sequence:
#
# PCOD9525304 Si02
#       7
#    16  16  16  16  16  16  16
#     4  10  22  35  49  76 109 141 181 224 265 312
#     4  11  21  35  55  78 103 137 182 220 260 319
#     4  10  21  34  52  75 104 140 176 224 270 316
#     4   9  17  30  49  74 104 144 186 226 263 306
#     4   9  18  32  49  72 103 139 180 220 259 311
#     4  11  21  34  55  76 106 147 182 220 265 315
#     4  10  18  30  50  75 107 146 190 227 260 310
#
# _framework density 17.372755999999999
#
# number of rings (size 3 to 8) (size 9 to 14) (size 15 to 20)
#    0.000    2.000    1.429    3.000    2.000    4.000 
#    0.000    0.714    0.000    0.000    0.000    2.000 
#    0.000    5.714    0.000    0.000    0.000    0.000 
#
# Total GULP energy -312528.673294 kJ/mol
# GULP energy per Si atom -5580.869166 kJ/mol
# Density = 1.733321 g / cm^3
# Si number density = 17.372756 Si / 1000 Ang^3
#
#
#
# Elastic Constant Matrix: (Units=GPa)
#
#
# Indices 1 2 3 4 5 6 
#
# 1 44.2985 43.0382 41.3379 0.0000 0.0000 0.0000
# 2 43.0382 76.5366 48.6392 0.0000 0.0000 0.0000
# 3 41.3379 48.6392 113.3615 0.0000 0.0000 0.0000
# 4 0.0000 0.0000 0.0000 24.9625 0.0000 0.0000
# 5 0.0000 0.0000 0.0000 0.0000 19.2589 0.0000
# 6 0.0000 0.0000 0.0000 0.0000 0.0000 21.7690
#
#
#
# Elastic Compliance Matrix: (Units=1/GPa)
#
#
# Indices 1 2 3 4 5 6 
#
# 1 0.056419 -0.025644 -0.009571 0.000000 0.000000 0.000000
# 2 -0.025644 0.029619 -0.003357 0.000000 0.000000 0.000000
# 3 -0.009571 -0.003357 0.013752 0.000000 0.000000 0.000000
# 4 0.000000 0.000000 0.000000 0.040060 0.000000 0.000000
# 5 0.000000 0.000000 0.000000 0.000000 0.051924 0.000000
# 6 0.000000 0.000000 0.000000 0.000000 0.000000 0.045937
#
#
# Mechanical properties :
#
#
# Convention : Reuss Voigt Hill
#
# Bulk Modulus (GPa) = 44.15640 55.58080 49.86860
# Shear Modulus (GPa) = 15.50846 19.94349 17.72597
#
# Velocity S-wave (km/s) = 2.99103 3.39185 3.19773
# Velocity P-wave (km/s) = 6.11560 6.88492 6.51163
#
# Compressibility (1/GPa) = 0.02264677
#
# Stress axis : x y z
#
# Youngs Moduli (GPa) = 17.72439 33.76182 72.71659
#
# Poissons Ratio (x) = 0.86577 0.69597
# Poissons Ratio (y) = 0.45452 0.24414
# Poissons Ratio (z) = 0.16964 0.11335
#
# Static dielectric constant tensor:
#      x y z
#    x 1.563230 0.000000 0.000000 
#    y 0.000000 1.587750 0.000000 
#    z 0.000000 0.000000 1.655720 
# 
# From -- ./inp_files/22261.got.cif
#   From: 2010.05.17/outbox.cif.g08.bks.cpg/sg72_12_cif.got.tgz:22261.got - 2010.06.03 17:03:01.
