data_PCOD9525289
_publ_section_title
;
Structure prediction by ZEFSAII (Michael W. Deem and Ramdas Pophale) SiO2 
 PCOD9525289
Probable space group: I B A M
;
_chemical_formula_sum "Si O2"
_cell_formula_units_Z 80
_cell_length_a 18.475088
_cell_length_b 5.563727
_cell_length_c 31.621732
_cell_angle_alpha 90.000000
_cell_angle_beta 90.000000
_cell_angle_gamma 90.000000
_cell_volume 3250.408771
_symmetry_space_group_name_H-M "I B A M"
_symmetry_group_IT_number 72
_symmetry_cell_setting 'orthorhombic'
loop_
_space_group_symop_operation_xyz
x,y,z
-x,-y,z
x,-y,1/2-z
-x,y,1/2-z
-x,-y,-z
x,y,-z
-x,y,1/2+z
x,-y,1/2+z
1/2+x,1/2+y,1/2+z
1/2-x,1/2-y,1/2+z
1/2+x,1/2-y,-z
1/2-x,1/2+y,-z
1/2-x,1/2-y,1/2-z
1/2+x,1/2+y,1/2-z
1/2-x,1/2+y,z
1/2+x,1/2-y,z
loop_
_atom_site_type_symbol
_atom_site_label
_atom_site_fract_x
_atom_site_fract_y
_atom_site_fract_z
Si Si1 0.597981 0.914069 0.323042
Si Si2 0.086647 0.783709 0.049169
Si Si3 0.245563 0.065989 0.638389
Si Si4 0.118151 0.073599 0.705687
Si Si5 0.921789 0.712401 0.919386
O O1 0.685684 0.922518 0.329418
O O2 0.572598 0.669965 0.300722
O O3 0.571966 0.876419 0.371126
O O4 0.582337 0.164151 0.299360
O O5 0.116395 0.515622 0.058458
O O6 0.001489 0.748115 0.060644
O O7 0.111076 0.018938 0.075616
O O8 0.094572 0.841527 0.000000
O O9 0.248679 0.316216 0.614236
O O10 0.174684 0.070437 0.667161
O O11 0.155400 0.000000 0.750000
#
# Coordination Sequence:
#
# PCOD9525289 Si02
#       5
#    16  16  16  16  16
#     4  10  19  29  44  70  97 125 163 195 242 289
#     4  10  19  33  53  76  99 121 148 185 243 303
#     4   8  16  27  41  61  91 122 158 194 233 278
#     4  10  19  31  46  66  97 132 166 206 242 273
#     4  10  18  30  48  73 103 124 145 192 241 289
#
# _framework density 24.612287999999999
#
# number of rings (size 3 to 8) (size 9 to 14) (size 15 to 20)
#    0.000    2.400    0.000    4.800    0.000    7.200 
#    0.000    0.000    0.000    0.000    0.000   42.000 
#    0.000  244.800    0.000    0.000    0.000    0.000 
#
# Total GULP energy -222876.520847 kJ/mol
# GULP energy per Si atom -5571.913021 kJ/mol
# Density = 2.455627 g / cm^3
# Si number density = 24.612288 Si / 1000 Ang^3
#
#
#
# Elastic Constant Matrix: (Units=GPa)
#
#
# Indices 1 2 3 4 5 6 
#
# 1 47.9927 22.5262 -6.7818 0.0000 0.0000 0.0000
# 2 22.5262 338.4573 42.0271 0.0000 0.0000 0.0000
# 3 -6.7818 42.0271 97.7840 0.0000 0.0000 0.0000
# 4 0.0000 0.0000 0.0000 36.4292 0.0000 0.0000
# 5 0.0000 0.0000 0.0000 0.0000 -2.1048 0.0000
# 6 0.0000 0.0000 0.0000 0.0000 0.0000 15.1393
#
#
#
# Elastic Compliance Matrix: (Units=1/GPa)
#
#
# Indices 1 2 3 4 5 6 
#
# 1 0.021977 -0.001745 0.002274 0.000000 0.000000 0.000000
# 2 -0.001745 0.003260 -0.001522 0.000000 0.000000 0.000000
# 3 0.002274 -0.001522 0.011039 0.000000 0.000000 0.000000
# 4 0.000000 0.000000 0.000000 0.027451 0.000000 0.000000
# 5 0.000000 0.000000 0.000000 0.000000 -0.475112 0.000000
# 6 0.000000 0.000000 0.000000 0.000000 0.000000 0.066053
#
#
# Mechanical properties :
#
#
# Convention : Reuss Voigt Hill
#
# Bulk Modulus (GPa) = 29.16353 66.64189 47.90271
# Shear Modulus (GPa) = -15.06396 38.32359 11.62981
#
# Velocity S-wave (km/s) = -2.47665 3.95028 2.17611
# Velocity P-wave (km/s) = 1.92263 6.92400 5.08125
#
# Compressibility (1/GPa) = 0.03428941
#
# Stress axis : x y z
#
# Youngs Moduli (GPa) = 45.50223 306.77449 90.59190
#
# Poissons Ratio (x) = 0.53535 -0.20603
# Poissons Ratio (y) = 0.07941 0.13788
# Poissons Ratio (z) = -0.10348 0.46692
#
# Static dielectric constant tensor:
#      x y z
#    x 2.011770 0.000000 0.000000 
#    y 0.000000 2.230800 0.000000 
#    z 0.000000 0.000000 1.959290 
# 
# From -- ./inp_files/49818.got.cif
#   From: 2010.05.17/outbox.cif.g08.bks.cpg/sg72_25_cif.got.tgz:49818.got - 2010.06.03 17:03:01.
