data_PCOD9525076
_publ_section_title
;
Structure prediction by ZEFSAII (Michael W. Deem and Ramdas Pophale) SiO2 
 PCOD9525076
Probable space group: I B A M
;
_chemical_formula_sum "Si O2"
_cell_formula_units_Z 120
_cell_length_a 10.638886
_cell_length_b 25.161087
_cell_length_c 24.377322
_cell_angle_alpha 90.000000
_cell_angle_beta 90.000000
_cell_angle_gamma 90.000000
_cell_volume 6525.466262
_symmetry_space_group_name_H-M "I B A M"
_symmetry_group_IT_number 72
_symmetry_cell_setting 'orthorhombic'
loop_
_space_group_symop_operation_xyz
x,y,z
-x,-y,z
x,-y,1/2-z
-x,y,1/2-z
-x,-y,-z
x,y,-z
-x,y,1/2+z
x,-y,1/2+z
1/2+x,1/2+y,1/2+z
1/2-x,1/2-y,1/2+z
1/2+x,1/2-y,-z
1/2-x,1/2+y,-z
1/2-x,1/2-y,1/2-z
1/2+x,1/2+y,1/2-z
1/2-x,1/2+y,z
1/2+x,1/2-y,z
loop_
_atom_site_type_symbol
_atom_site_label
_atom_site_fract_x
_atom_site_fract_y
_atom_site_fract_z
Si Si1 0.875639 0.269367 0.219047
Si Si2 0.201173 0.383154 0.747876
Si Si3 0.772329 0.500000 0.250000
Si Si4 0.132407 0.202782 0.939824
Si Si5 0.148332 0.001137 0.366889
Si Si6 0.678823 0.386750 0.635224
Si Si7 0.382590 0.387490 0.350427
Si Si8 0.139893 0.773325 0.905345
O O1 0.750000 0.250000 0.250000
O O2 0.876097 0.333694 0.223872
O O3 0.871704 0.248007 0.157239
O O4 0.000000 0.249010 0.250000
O O5 0.154395 0.444298 0.742758
O O6 0.235773 0.375144 0.811607
O O7 0.325458 0.381760 0.709846
O O8 0.683468 0.507569 0.197289
O O9 0.142997 0.161676 0.889844
O O10 0.249995 0.241657 0.934634
O O11 0.997663 0.231077 0.931806
O O12 0.132246 0.176914 0.000000
O O13 0.182083 0.939814 0.377624
O O14 0.207128 0.055258 0.391093
O O15 0.000000 0.000000 0.377548
O O16 0.533000 0.392391 0.654009
O O17 0.678160 0.335433 0.596998
#
# Coordination Sequence:
#
# PCOD9525076 Si02
#       8
#    16  16   8  16  16  16  16  16
#     4  12  24  35  53  81 116 147 177 212 264 331
#     4  10  17  30  47  76 107 145 174 214 252 330
#     4   8  15  24  43  68 104 140 179 202 249 300
#     4  11  23  39  57  77 102 140 188 237 280 318
#     4   8  13  24  41  71 104 137 170 206 253 317
#     4   9  17  26  49  76 110 141 169 207 266 325
#     4   9  17  29  49  74 106 139 177 218 265 317
#     4  11  22  37  55  79 109 142 179 224 274 325
#
# _framework density 18.389491
#
# number of rings (size 3 to 8) (size 9 to 14) (size 15 to 20)
#    0.000    2.133    2.667    1.800    1.867    3.200 
#    0.000    0.333    0.000   10.800    0.000    0.933 
#    0.000    2.133    0.000    0.000    0.000    0.000 
#
# Total GULP energy -334037.430133 kJ/mol
# GULP energy per Si atom -5567.290502 kJ/mol
# Density = 1.834764 g / cm^3
# Si number density = 18.389491 Si / 1000 Ang^3
#
#
#
# Elastic Constant Matrix: (Units=GPa)
#
#
# Indices 1 2 3 4 5 6 
#
# 1 51.0172 15.8209 10.2098 0.0000 0.0000 0.0000
# 2 15.8209 93.9055 -0.3688 0.0000 0.0000 0.0000
# 3 10.2098 -0.3688 34.8091 0.0000 0.0000 0.0000
# 4 0.0000 0.0000 0.0000 3.7895 0.0000 0.0000
# 5 0.0000 0.0000 0.0000 0.0000 -14.2157 0.0000
# 6 0.0000 0.0000 0.0000 0.0000 0.0000 18.2080
#
#
#
# Elastic Compliance Matrix: (Units=1/GPa)
#
#
# Indices 1 2 3 4 5 6 
#
# 1 0.022065 -0.003743 -0.006512 0.000000 0.000000 0.000000
# 2 -0.003743 0.011284 0.001217 0.000000 0.000000 0.000000
# 3 -0.006512 0.001217 0.030651 0.000000 0.000000 0.000000
# 4 0.000000 0.000000 0.000000 0.263887 0.000000 0.000000
# 5 0.000000 0.000000 0.000000 0.000000 -0.070345 0.000000
# 6 0.000000 0.000000 0.000000 0.000000 0.000000 0.054921
#
#
# Mechanical properties :
#
#
# Convention : Reuss Voigt Hill
#
# Bulk Modulus (GPa) = 21.77410 25.67284 23.72347
# Shear Modulus (GPa) = 14.45726 11.82769 13.14248
#
# Velocity S-wave (km/s) = 2.80691 2.53884 2.67624
# Velocity P-wave (km/s) = 4.72982 4.75239 4.74112
#
# Compressibility (1/GPa) = 0.04592611
#
# Stress axis : x y z
#
# Youngs Moduli (GPa) = 45.32049 88.61795 32.62552
#
# Poissons Ratio (x) = 0.33170 0.21244
# Poissons Ratio (y) = 0.16964 -0.03972
# Poissons Ratio (z) = 0.29510 -0.10789
#
# Static dielectric constant tensor:
#      x y z
#    x 1.637320 0.000000 0.000000 
#    y 0.000000 1.750920 0.000000 
#    z 0.000000 0.000000 1.585980 
# 
# From -- ./inp_files/47688.got.cif
#   From: 2010.05.17/outbox.cif.g08.bks.cpg/sg72_24_cif.got.tgz:47688.got - 2010.06.03 17:03:01.
