data_PCOD9525405
_publ_section_title
;
Structure prediction by ZEFSAII (Michael W. Deem and Ramdas Pophale) SiO2 
 PCOD9525405
Probable space group: I B A M
;
_chemical_formula_sum "Si O2"
_cell_formula_units_Z 96
_cell_length_a 30.051424
_cell_length_b 26.843911
_cell_length_c 8.644974
_cell_angle_alpha 90.000000
_cell_angle_beta 90.000000
_cell_angle_gamma 90.000000
_cell_volume 6973.881086
_symmetry_space_group_name_H-M "I B A M"
_symmetry_group_IT_number 72
_symmetry_cell_setting 'orthorhombic'
loop_
_space_group_symop_operation_xyz
x,y,z
-x,-y,z
x,-y,1/2-z
-x,y,1/2-z
-x,-y,-z
x,y,-z
-x,y,1/2+z
x,-y,1/2+z
1/2+x,1/2+y,1/2+z
1/2-x,1/2-y,1/2+z
1/2+x,1/2-y,-z
1/2-x,1/2+y,-z
1/2-x,1/2-y,1/2-z
1/2+x,1/2+y,1/2-z
1/2-x,1/2+y,z
1/2+x,1/2-y,z
loop_
_atom_site_type_symbol
_atom_site_label
_atom_site_fract_x
_atom_site_fract_y
_atom_site_fract_z
Si Si1 0.047304 0.214774 0.814169
Si Si2 0.858122 0.245307 0.687789
Si Si3 0.861332 0.946048 0.315732
Si Si4 0.047866 0.097253 0.185469
Si Si5 0.773959 0.700271 0.813778
Si Si6 0.195160 0.855394 0.685606
O O1 0.091077 0.243816 0.757714
O O2 0.052791 0.156092 0.774069
O O3 0.000000 0.231940 0.750000
O O4 0.045832 0.217369 0.000000
O O5 0.859148 0.245209 0.500000
O O6 0.825387 0.290459 0.732651
O O7 0.834578 0.192987 0.732057
O O8 0.861278 0.946770 0.500000
O O9 0.910601 0.931721 0.255830
O O10 0.827689 0.903966 0.254662
O O11 0.849335 0.000000 0.250000
O O12 0.000000 0.080697 0.250000
O O13 0.048614 0.092901 0.000000
O O14 0.750000 0.750000 0.750000
O O15 0.745037 0.655532 0.744766
O O16 0.771176 0.699321 0.000000
O O17 0.194750 0.857833 0.500000
#
# Coordination Sequence:
#
# PCOD9525405 Si02
#       6
#    16  16  16  16  16  16
#     4   9  16  27  41  59  82 110 137 168 206 246
#     4   8  14  26  43  60  83 109 132 163 205 245
#     4  12  24  36  49  64  80 104 138 174 218 265
#     4  10  19  33  49  63  81 104 136 176 220 260
#     4   9  16  26  42  64  84 107 135 165 205 252
#     4  10  18  32  47  61  83 107 131 171 215 253
#
# _framework density 13.765649
#
# number of rings (size 3 to 8) (size 9 to 14) (size 15 to 20)
#    0.000    2.333    1.667    4.000    0.000    1.000 
#    0.000    3.333    0.000    0.000    0.000    0.000 
#    0.000    0.000    0.000    0.000    0.000    0.833 
#
# Total GULP energy -267484.797537 kJ/mol
# GULP energy per Si atom -5572.599949 kJ/mol
# Density = 1.373432 g / cm^3
# Si number density = 13.765649 Si / 1000 Ang^3
#
#
#
# Elastic Constant Matrix: (Units=GPa)
#
#
# Indices 1 2 3 4 5 6 
#
# 1 118.0718 57.7401 32.0447 0.0000 0.0000 0.0000
# 2 57.7401 56.4435 27.0616 0.0000 0.0000 0.0000
# 3 32.0447 27.0616 53.7699 0.0000 0.0000 0.0000
# 4 0.0000 0.0000 0.0000 15.8095 0.0000 0.0000
# 5 0.0000 0.0000 0.0000 0.0000 22.4656 0.0000
# 6 0.0000 0.0000 0.0000 0.0000 0.0000 16.1363
#
#
#
# Elastic Compliance Matrix: (Units=1/GPa)
#
#
# Indices 1 2 3 4 5 6 
#
# 1 0.017083 -0.016599 -0.001826 0.000000 0.000000 0.000000
# 2 -0.016599 0.039481 -0.009978 0.000000 0.000000 0.000000
# 3 -0.001826 -0.009978 0.024708 0.000000 0.000000 0.000000
# 4 0.000000 0.000000 0.000000 0.063253 0.000000 0.000000
# 5 0.000000 0.000000 0.000000 0.000000 0.044513 0.000000
# 6 0.000000 0.000000 0.000000 0.000000 0.000000 0.061972
#
#
# Mechanical properties :
#
#
# Convention : Reuss Voigt Hill
#
# Bulk Modulus (GPa) = 40.87512 51.33090 46.10301
# Shear Modulus (GPa) = 15.82420 18.31152 17.06786
#
# Velocity S-wave (km/s) = 3.39417 3.65119 3.52502
# Velocity P-wave (km/s) = 6.71703 7.42597 7.08038
#
# Compressibility (1/GPa) = 0.02446476
#
# Stress axis : x y z
#
# Youngs Moduli (GPa) = 58.53909 25.32838 40.47289
#
# Poissons Ratio (x) = 0.42044 0.07392
# Poissons Ratio (y) = 0.97171 0.40383
# Poissons Ratio (z) = 0.10691 0.25272
#
# Static dielectric constant tensor:
#      x y z
#    x 1.482110 0.000000 0.000000 
#    y 0.000000 1.446600 0.000000 
#    z 0.000000 0.000000 1.463280 
# 
# From -- ./inp_files/8476.got.cif
#   From: 2010.05.17/outbox.cif.g08.bks.cpg/sg72_5_cif.got.tgz:8476.got - 2010.06.03 17:03:01.
