data_PCOD9525459
_publ_section_title
;
Structure prediction by ZEFSAII (Michael W. Deem and Ramdas Pophale) SiO2 
 PCOD9525459
Probable space group: I B A M
;
_chemical_formula_sum "Si O2"
_cell_formula_units_Z 96
_cell_length_a 28.927559
_cell_length_b 19.464970
_cell_length_c 8.394502
_cell_angle_alpha 90.000000
_cell_angle_beta 90.000000
_cell_angle_gamma 90.000000
_cell_volume 4726.726391
_symmetry_space_group_name_H-M "I B A M"
_symmetry_group_IT_number 72
_symmetry_cell_setting 'orthorhombic'
loop_
_space_group_symop_operation_xyz
x,y,z
-x,-y,z
x,-y,1/2-z
-x,y,1/2-z
-x,-y,-z
x,y,-z
-x,y,1/2+z
x,-y,1/2+z
1/2+x,1/2+y,1/2+z
1/2-x,1/2-y,1/2+z
1/2+x,1/2-y,-z
1/2-x,1/2+y,-z
1/2-x,1/2-y,1/2-z
1/2+x,1/2+y,1/2-z
1/2-x,1/2+y,z
1/2+x,1/2-y,z
loop_
_atom_site_type_symbol
_atom_site_label
_atom_site_fract_x
_atom_site_fract_y
_atom_site_fract_z
Si Si1 0.203485 0.079406 0.811331
Si Si2 0.598376 0.922269 0.810057
Si Si3 0.196928 0.578343 0.310529
Si Si4 0.050792 0.288317 0.307495
Si Si5 0.448360 0.576309 0.192294
Si Si6 0.124590 0.820520 0.815809
O O1 0.253846 0.104111 0.751230
O O2 0.167307 0.138978 0.763564
O O3 0.194302 0.000000 0.750000
O O4 0.204060 0.072888 0.000000
O O5 0.648535 0.894015 0.754860
O O6 0.560007 0.867263 0.758972
O O7 0.591665 0.000000 0.750000
O O8 0.599011 0.925137 0.000000
O O9 0.196523 0.500000 0.250000
O O10 0.196331 0.580486 0.500000
O O11 0.050750 0.283094 0.500000
O O12 0.096294 0.245811 0.250996
O O13 0.000000 0.265156 0.250000
O O14 0.437224 0.500000 0.250000
O O15 0.500000 0.590359 0.250000
O O16 0.415612 0.624261 0.293081
O O17 0.443626 0.583323 0.000000
O O18 0.136626 0.807730 0.000000
#
# Coordination Sequence:
#
# PCOD9525459 Si02
#       6
#    16  16  16  16  16  16
#     4  11  21  35  56  85 118 156 196 240 282 330
#     4  10  20  38  62  91 118 147 183 228 282 343
#     4  10  18  32  56  87 118 152 187 230 281 336
#     4  10  24  42  62  84 114 150 189 234 287 344
#     4  11  21  34  51  74 101 137 183 235 285 334
#     4  11  22  38  55  77 109 149 191 236 282 333
#
# _framework density 20.310039
#
# number of rings (size 3 to 8) (size 9 to 14) (size 15 to 20)
#    0.000    1.500    0.000    9.000    0.000    4.333 
#    0.000    2.500    0.000    0.000    0.000    0.000 
#    0.000    0.000    0.000    0.000    0.000    0.000 
#
# Total GULP energy -267598.531761 kJ/mol
# GULP energy per Si atom -5574.969412 kJ/mol
# Density = 2.026381 g / cm^3
# Si number density = 20.310039 Si / 1000 Ang^3
#
#
#
# Elastic Constant Matrix: (Units=GPa)
#
#
# Indices 1 2 3 4 5 6 
#
# 1 87.4938 18.8778 -0.5943 0.0000 0.0000 0.0000
# 2 18.8778 99.1909 10.7336 0.0000 0.0000 0.0000
# 3 -0.5943 10.7336 76.4623 0.0000 0.0000 0.0000
# 4 0.0000 0.0000 0.0000 15.6908 0.0000 0.0000
# 5 0.0000 0.0000 0.0000 0.0000 11.1631 0.0000
# 6 0.0000 0.0000 0.0000 0.0000 0.0000 23.0174
#
#
#
# Elastic Compliance Matrix: (Units=1/GPa)
#
#
# Indices 1 2 3 4 5 6 
#
# 1 0.011932 -0.002316 0.000418 0.000000 0.000000 0.000000
# 2 -0.002316 0.010687 -0.001518 0.000000 0.000000 0.000000
# 3 0.000418 -0.001518 0.013295 0.000000 0.000000 0.000000
# 4 0.000000 0.000000 0.000000 0.063732 0.000000 0.000000
# 5 0.000000 0.000000 0.000000 0.000000 0.089581 0.000000
# 6 0.000000 0.000000 0.000000 0.000000 0.000000 0.043445
#
#
# Mechanical properties :
#
#
# Convention : Reuss Voigt Hill
#
# Bulk Modulus (GPa) = 34.38728 35.68681 35.03704
# Shear Modulus (GPa) = 20.06443 25.58292 22.82368
#
# Velocity S-wave (km/s) = 3.14651 3.55296 3.35589
# Velocity P-wave (km/s) = 5.49260 5.86861 5.68371
#
# Compressibility (1/GPa) = 0.02908052
#
# Stress axis : x y z
#
# Youngs Moduli (GPa) = 83.80862 93.57472 75.21791
#
# Poissons Ratio (x) = 0.21673 -0.03143
# Poissons Ratio (y) = 0.19411 0.11419
# Poissons Ratio (z) = -0.03502 0.14206
#
# Static dielectric constant tensor:
#      x y z
#    x 1.849490 0.000000 0.000000 
#    y 0.000000 2.208220 0.000000 
#    z 0.000000 0.000000 1.705850 
# 
# From -- ./inp_files/8045.got.cif
#   From: 2010.05.17/outbox.cif.g08.bks.cpg/sg72_5_cif.got.tgz:8045.got - 2010.06.03 17:03:01.
