data_PCOD9525497
_publ_section_title
;
Structure prediction by ZEFSAII (Michael W. Deem and Ramdas Pophale) SiO2 
 PCOD9525497
Probable space group: I B A M
;
_chemical_formula_sum "Si O2"
_cell_formula_units_Z 52
_cell_length_a 13.554758
_cell_length_b 19.142365
_cell_length_c 7.483661
_cell_angle_alpha 90.000000
_cell_angle_beta 90.000000
_cell_angle_gamma 90.000000
_cell_volume 1941.786456
_symmetry_space_group_name_H-M "I B A M"
_symmetry_group_IT_number 72
_symmetry_cell_setting 'orthorhombic'
loop_
_space_group_symop_operation_xyz
x,y,z
-x,-y,z
x,-y,1/2-z
-x,y,1/2-z
-x,-y,-z
x,y,-z
-x,y,1/2+z
x,-y,1/2+z
1/2+x,1/2+y,1/2+z
1/2-x,1/2-y,1/2+z
1/2+x,1/2-y,-z
1/2-x,1/2+y,-z
1/2-x,1/2-y,1/2-z
1/2+x,1/2+y,1/2-z
1/2-x,1/2+y,z
1/2+x,1/2-y,z
loop_
_atom_site_type_symbol
_atom_site_label
_atom_site_fract_x
_atom_site_fract_y
_atom_site_fract_z
Si Si1 0.112013 0.592583 0.803378
Si Si2 0.323187 0.599482 0.778491
Si Si3 0.000000 0.000000 0.250000
Si Si4 0.389550 0.251507 0.711034
O O1 0.215961 0.573612 0.713985
O O2 0.117188 0.677142 0.805621
O O3 0.000000 0.576717 0.750000
O O4 0.120074 0.562821 0.000000
O O5 0.415078 0.557315 0.696930
O O6 0.326057 0.681988 0.733615
O O7 0.332454 0.594680 0.000000
O O8 0.500000 0.276642 0.750000
O O9 0.377282 0.239000 0.500000
#
# Coordination Sequence:
#
# PCOD9525497 Si02
#       4
#    16  16   4  16
#     4  10  20  37  59  89 121 154 195 245 300 355
#     4  10  22  38  58  84 119 156 201 248 292 351
#     4  12  22  44  62  82 116 160 206 240 302 344
#     4  10  18  33  56  89 122 155 193 243 301 354
#
# _framework density 26.779464000000001
#
# number of rings (size 3 to 8) (size 9 to 14) (size 15 to 20)
#    0.000    1.846    1.538    5.077    0.000    0.000 
#    0.000   11.538    0.000    3.692    0.000    0.000 
#    0.000    0.000    0.000    0.000    0.000    0.000 
#
# Total GULP energy -144906.360132 kJ/mol
# GULP energy per Si atom -5573.321544 kJ/mol
# Density = 2.671851 g / cm^3
# Si number density = 26.779464 Si / 1000 Ang^3
#
#
#
# Elastic Constant Matrix: (Units=GPa)
#
#
# Indices 1 2 3 4 5 6 
#
# 1 296.4011 31.7843 24.1429 0.0000 0.0000 0.0000
# 2 31.7843 183.5919 8.1249 0.0000 0.0000 0.0000
# 3 24.1429 8.1249 108.7175 0.0000 0.0000 0.0000
# 4 0.0000 0.0000 0.0000 -16.8050 0.0000 0.0000
# 5 0.0000 0.0000 0.0000 0.0000 -44.0060 0.0000
# 6 0.0000 0.0000 0.0000 0.0000 0.0000 -10.5277
#
#
#
# Elastic Compliance Matrix: (Units=1/GPa)
#
#
# Indices 1 2 3 4 5 6 
#
# 1 0.003495 -0.000573 -0.000733 0.000000 0.000000 0.000000
# 2 -0.000573 0.005559 -0.000288 0.000000 0.000000 0.000000
# 3 -0.000733 -0.000288 0.009383 0.000000 0.000000 0.000000
# 4 0.000000 0.000000 0.000000 -0.059506 0.000000 0.000000
# 5 0.000000 0.000000 0.000000 0.000000 -0.022724 0.000000
# 6 0.000000 0.000000 0.000000 0.000000 0.000000 -0.094988
#
#
# Mechanical properties :
#
#
# Convention : Reuss Voigt Hill
#
# Bulk Modulus (GPa) = 65.58310 79.64608 72.61459
# Shear Modulus (GPa) = -33.22024 20.70947 -6.25538
#
# Velocity S-wave (km/s) = -3.52591 2.78391 -1.53002
# Velocity P-wave (km/s) = 2.82262 6.33558 4.90442
#
# Compressibility (1/GPa) = 0.01524783
#
# Stress axis : x y z
#
# Youngs Moduli (GPa) = 286.12775 179.89643 106.58085
#
# Poissons Ratio (x) = 0.10301 0.07816
# Poissons Ratio (y) = 0.16384 0.03072
# Poissons Ratio (z) = 0.20983 0.05186
#
# Static dielectric constant tensor:
#      x y z
#    x 2.202470 0.000000 0.000000 
#    y 0.000000 2.045550 0.000000 
#    z 0.000000 0.000000 2.066380 
# 
# From -- ./inp_files/3127.got.cif
#   From: 2010.05.17/outbox.cif.g08.bks.cpg/sg72_2_cif.got.tgz:3127.got - 2010.06.03 17:03:01.
