data_PCOD9525284
_publ_section_title
;
Structure prediction by ZEFSAII (Michael W. Deem and Ramdas Pophale) SiO2 
 PCOD9525284
Probable space group: I B A M
;
_chemical_formula_sum "Si O2"
_cell_formula_units_Z 64
_cell_length_a 28.706835
_cell_length_b 14.821159
_cell_length_c 8.605706
_cell_angle_alpha 90.000000
_cell_angle_beta 90.000000
_cell_angle_gamma 90.000000
_cell_volume 3661.457391
_symmetry_space_group_name_H-M "I B A M"
_symmetry_group_IT_number 72
_symmetry_cell_setting 'orthorhombic'
loop_
_space_group_symop_operation_xyz
x,y,z
-x,-y,z
x,-y,1/2-z
-x,y,1/2-z
-x,-y,-z
x,y,-z
-x,y,1/2+z
x,-y,1/2+z
1/2+x,1/2+y,1/2+z
1/2-x,1/2-y,1/2+z
1/2+x,1/2-y,-z
1/2-x,1/2+y,-z
1/2-x,1/2-y,1/2-z
1/2+x,1/2+y,1/2-z
1/2-x,1/2+y,z
1/2+x,1/2-y,z
loop_
_atom_site_type_symbol
_atom_site_label
_atom_site_fract_x
_atom_site_fract_y
_atom_site_fract_z
Si Si1 0.170940 0.092934 0.185339
Si Si2 0.858898 0.712349 0.686606
Si Si3 0.050713 0.600057 0.813965
Si Si4 0.734370 0.847242 0.313936
O O1 0.148675 0.186163 0.249081
O O2 0.224683 0.093422 0.242579
O O3 0.149367 0.000000 0.250000
O O4 0.169504 0.094336 0.000000
O O5 0.853984 0.715485 0.500000
O O6 0.908660 0.669980 0.728334
O O7 0.818367 0.647012 0.753844
O O8 0.061333 0.500000 0.750000
O O9 0.000000 0.626231 0.750000
O O10 0.048415 0.594818 0.000000
O O11 0.735641 0.851005 0.500000
O O12 0.750000 0.750000 0.250000
#
# Coordination Sequence:
#
# PCOD9525284 Si02
#       4
#    16  16  16  16
#     4  11  21  34  52  75 105 142 178 217 258 306
#     4  10  20  35  53  77 106 139 176 216 259 308
#     4  10  21  36  57  80 106 134 167 211 260 312
#     4  10  18  30  48  71 100 135 172 212 251 296
#
# _framework density 17.479378000000001
#
# number of rings (size 3 to 8) (size 9 to 14) (size 15 to 20)
#    0.000    1.750    0.000    9.750    0.000    5.000 
#    0.000    2.500    0.000    0.750    0.000    5.250 
#    0.000    0.000    0.000    0.000    0.000    0.000 
#
# Total GULP energy -178471.594983 kJ/mol
# GULP energy per Si atom -5577.237343 kJ/mol
# Density = 1.743959 g / cm^3
# Si number density = 17.479378 Si / 1000 Ang^3
#
#
#
# Elastic Constant Matrix: (Units=GPa)
#
#
# Indices 1 2 3 4 5 6 
#
# 1 130.0112 71.1619 52.7007 0.0000 0.0000 0.0000
# 2 71.1619 102.4297 38.8773 0.0000 0.0000 0.0000
# 3 52.7007 38.8773 121.2302 0.0000 0.0000 0.0000
# 4 0.0000 0.0000 0.0000 22.0809 0.0000 0.0000
# 5 0.0000 0.0000 0.0000 0.0000 24.6897 0.0000
# 6 0.0000 0.0000 0.0000 0.0000 0.0000 23.7601
#
#
#
# Elastic Compliance Matrix: (Units=1/GPa)
#
#
# Indices 1 2 3 4 5 6 
#
# 1 0.013446 -0.008110 -0.003244 0.000000 0.000000 0.000000
# 2 -0.008110 0.016007 -0.001608 0.000000 0.000000 0.000000
# 3 -0.003244 -0.001608 0.010175 0.000000 0.000000 0.000000
# 4 0.000000 0.000000 0.000000 0.045288 0.000000 0.000000
# 5 0.000000 0.000000 0.000000 0.000000 0.040503 0.000000
# 6 0.000000 0.000000 0.000000 0.000000 0.000000 0.042087
#
#
# Mechanical properties :
#
#
# Convention : Reuss Voigt Hill
#
# Bulk Modulus (GPa) = 72.97335 75.46120 74.21727
# Shear Modulus (GPa) = 25.25281 26.83490 26.04386
#
# Velocity S-wave (km/s) = 3.80507 3.92245 3.86421
# Velocity P-wave (km/s) = 7.81944 7.98621 7.90326
#
# Compressibility (1/GPa) = 0.01370363
#
# Stress axis : x y z
#
# Youngs Moduli (GPa) = 74.37322 62.47139 98.28250
#
# Poissons Ratio (x) = 0.50664 0.31886
# Poissons Ratio (y) = 0.60316 0.15803
# Poissons Ratio (z) = 0.24129 0.10045
#
# Static dielectric constant tensor:
#      x y z
#    x 1.615530 0.000000 0.000000 
#    y 0.000000 1.591940 0.000000 
#    z 0.000000 0.000000 1.576910 
# 
# From -- ./inp_files/3781.got.cif
#   From: 2010.05.17/outbox.cif.g08.bks.cpg/sg72_2_cif.got.tgz:3781.got - 2010.06.03 17:03:01.
