data_PCOD9525235
_publ_section_title
;
Structure prediction by ZEFSAII (Michael W. Deem and Ramdas Pophale) SiO2 
 PCOD9525235
Probable space group: I B A M
;
_chemical_formula_sum "Si O2"
_cell_formula_units_Z 64
_cell_length_a 20.710731
_cell_length_b 28.161361
_cell_length_c 5.435630
_cell_angle_alpha 90.000000
_cell_angle_beta 90.000000
_cell_angle_gamma 90.000000
_cell_volume 3170.289736
_symmetry_space_group_name_H-M "I B A M"
_symmetry_group_IT_number 72
_symmetry_cell_setting 'orthorhombic'
loop_
_space_group_symop_operation_xyz
x,y,z
-x,-y,z
x,-y,1/2-z
-x,y,1/2-z
-x,-y,-z
x,y,-z
-x,y,1/2+z
x,-y,1/2+z
1/2+x,1/2+y,1/2+z
1/2-x,1/2-y,1/2+z
1/2+x,1/2-y,-z
1/2-x,1/2+y,-z
1/2-x,1/2-y,1/2-z
1/2+x,1/2+y,1/2-z
1/2-x,1/2+y,z
1/2+x,1/2-y,z
loop_
_atom_site_type_symbol
_atom_site_label
_atom_site_fract_x
_atom_site_fract_y
_atom_site_fract_z
Si Si1 0.099729 0.513249 0.000000
Si Si2 0.868801 0.973286 0.500000
Si Si3 0.835460 0.232230 0.500000
Si Si4 0.966179 0.895782 0.500000
Si Si5 0.312390 0.790268 0.500000
Si Si6 0.224778 0.442836 0.000000
Si Si7 0.817967 0.398070 0.000000
Si Si8 0.020287 0.210215 0.000000
O O1 0.066669 0.500000 0.250000
O O2 0.165697 0.480473 0.000000
O O3 0.120555 0.567549 0.000000
O O4 0.896270 0.919547 0.500000
O O5 0.791639 0.970513 0.500000
O O6 0.889636 0.000000 0.750000
O O7 0.766318 0.205906 0.500000
O O8 0.833484 0.262981 0.751799
O O9 0.902364 0.202611 0.500000
O O10 0.000000 0.912583 0.750000
O O11 0.977796 0.838743 0.500000
O O12 0.336916 0.843615 0.500000
O O13 0.219423 0.411848 0.751213
O O14 0.000000 0.235792 0.250000
#
# Coordination Sequence:
#
# PCOD9525235 Si02
#       8
#     8   8   8   8   8   8   8   8
#     4   8  14  25  39  59  91 125 161 196 228 279
#     4  12  23  35  52  70  98 139 183 237 288 320
#     4  10  21  38  55  77 109 134 172 225 282 355
#     4  10  23  39  52  71  93 122 174 230 283 330
#     4  10  21  35  55  81 106 139 170 218 290 338
#     4  10  19  31  47  72 102 137 177 213 258 313
#     4  10  18  29  48  71 100 131 172 210 250 312
#     4  10  21  38  60  81 103 137 183 233 285 341
#
# _framework density 20.187429000000002
#
# number of rings (size 3 to 8) (size 9 to 14) (size 15 to 20)
#    0.000    2.000    0.000    5.250    0.000    5.500 
#    0.000    0.000    0.000    0.000    0.000    0.000 
#    0.000    0.000    0.000    0.000    0.000  393.750 
#
# Total GULP energy -178407.418985 kJ/mol
# GULP energy per Si atom -5575.231843 kJ/mol
# Density = 2.014148 g / cm^3
# Si number density = 20.187429 Si / 1000 Ang^3
#
#
#
# Elastic Constant Matrix: (Units=GPa)
#
#
# Indices 1 2 3 4 5 6 
#
# 1 71.3705 18.4652 17.1047 0.0000 0.0000 0.0000
# 2 18.4652 76.0197 26.2066 0.0000 0.0000 0.0000
# 3 17.1047 26.2066 204.9419 0.0000 0.0000 0.0000
# 4 0.0000 0.0000 0.0000 -4.5494 0.0000 0.0000
# 5 0.0000 0.0000 0.0000 0.0000 20.5453 0.0000
# 6 0.0000 0.0000 0.0000 0.0000 0.0000 -5.5107
#
#
#
# Elastic Compliance Matrix: (Units=1/GPa)
#
#
# Indices 1 2 3 4 5 6 
#
# 1 0.015084 -0.003379 -0.000827 0.000000 0.000000 0.000000
# 2 -0.003379 0.014518 -0.001574 0.000000 0.000000 0.000000
# 3 -0.000827 -0.001574 0.005150 0.000000 0.000000 0.000000
# 4 0.000000 0.000000 0.000000 -0.219810 0.000000 0.000000
# 5 0.000000 0.000000 0.000000 0.000000 0.048673 0.000000
# 6 0.000000 0.000000 0.000000 0.000000 0.000000 -0.181465
#
#
# Mechanical properties :
#
#
# Convention : Reuss Voigt Hill
#
# Bulk Modulus (GPa) = 43.11970 52.87612 47.99791
# Shear Modulus (GPa) = -16.74706 21.46743 2.36019
#
# Velocity S-wave (km/s) = -2.88337 3.26453 1.08244
# Velocity P-wave (km/s) = 3.21263 6.36074 5.03885
#
# Compressibility (1/GPa) = 0.02319125
#
# Stress axis : x y z
#
# Youngs Moduli (GPa) = 66.29665 68.88014 194.18334
#
# Poissons Ratio (x) = 0.23273 0.16056
# Poissons Ratio (y) = 0.22400 0.30574
# Poissons Ratio (z) = 0.05482 0.10845
#
# Static dielectric constant tensor:
#      x y z
#    x 1.710890 0.000000 0.000000 
#    y 0.000000 1.692990 0.000000 
#    z 0.000000 0.000000 1.796870 
# 
# From -- ./inp_files/694.got.cif
#   From: 2010.05.17/outbox.cif.g08.bks.cpg/sg72_1_cif.got.tgz:694.got - 2010.06.03 17:03:01.
