data_PCOD9525159
_publ_section_title
;
Structure prediction by ZEFSAII (Michael W. Deem and Ramdas Pophale) SiO2 
 PCOD9525159
Probable space group: I B A M
;
_chemical_formula_sum "Si O2"
_cell_formula_units_Z 112
_cell_length_a 16.447320
_cell_length_b 27.874699
_cell_length_c 15.666940
_cell_angle_alpha 90.000000
_cell_angle_beta 90.000000
_cell_angle_gamma 90.000000
_cell_volume 7182.729458
_symmetry_space_group_name_H-M "I B A M"
_symmetry_group_IT_number 72
_symmetry_cell_setting 'orthorhombic'
loop_
_space_group_symop_operation_xyz
x,y,z
-x,-y,z
x,-y,1/2-z
-x,y,1/2-z
-x,-y,-z
x,y,-z
-x,y,1/2+z
x,-y,1/2+z
1/2+x,1/2+y,1/2+z
1/2-x,1/2-y,1/2+z
1/2+x,1/2-y,-z
1/2-x,1/2+y,-z
1/2-x,1/2-y,1/2-z
1/2+x,1/2+y,1/2-z
1/2-x,1/2+y,z
1/2+x,1/2-y,z
loop_
_atom_site_type_symbol
_atom_site_label
_atom_site_fract_x
_atom_site_fract_y
_atom_site_fract_z
Si Si1 0.572044 0.782637 0.594504
Si Si2 0.168373 0.779782 0.730469
Si Si3 0.610824 0.093049 0.665779
Si Si4 0.388853 0.252977 0.094615
Si Si5 0.902128 0.504002 0.904963
Si Si6 0.075055 0.390605 0.862164
Si Si7 0.240336 0.334120 0.403854
O O1 0.596796 0.765026 0.500000
O O2 0.613537 0.753680 0.670271
O O3 0.475238 0.774204 0.602913
O O4 0.594602 0.838702 0.600652
O O5 0.250000 0.750000 0.750000
O O6 0.126195 0.786231 0.822761
O O7 0.194878 0.824403 0.671356
O O8 0.522149 0.102548 0.624099
O O9 0.597087 0.110316 0.762223
O O10 0.681369 0.122255 0.620319
O O11 0.628229 0.036156 0.660496
O O12 0.318838 0.212514 0.095237
O O13 0.387377 0.276082 0.000000
O O14 0.883871 0.560252 0.894442
O O15 0.000000 0.500000 0.897933
O O16 0.878168 0.488427 0.000000
O O17 0.273563 0.339607 0.500000
#
# Coordination Sequence:
#
# PCOD9525159 Si02
#       7
#    16  16  16  16  16  16  16
#     4  11  20  30  46  65  84 113 150 192 231 272
#     4  10  20  31  43  60  86 111 146 188 227 268
#     4  10  18  27  42  58  82 113 147 186 230 270
#     4   9  18  30  46  62  80 108 145 184 230 272
#     4   9  17  27  38  56  80 107 141 187 232 268
#     4  10  18  27  42  60  83 107 147 190 233 266
#     4  10  18  30  44  61  83 114 149 185 227 276
#
# _framework density 15.592957999999999
#
# number of rings (size 3 to 8) (size 9 to 14) (size 15 to 20)
#    0.000    2.143    1.429    3.857    2.000    3.429 
#    0.000    0.000    0.000    0.000    0.000    0.000 
#    0.000    0.000    0.000    0.000    0.000   70.000 
#
# Total GULP energy -311807.766409 kJ/mol
# GULP energy per Si atom -5567.995829 kJ/mol
# Density = 1.555747 g / cm^3
# Si number density = 15.592958 Si / 1000 Ang^3
#
#
#
# Elastic Constant Matrix: (Units=GPa)
#
#
# Indices 1 2 3 4 5 6 
#
# 1 19.7822 13.7675 28.1492 0.0000 0.0000 0.0000
# 2 13.7675 46.4649 37.0647 -0.0001 0.0000 0.0000
# 3 28.1492 37.0647 116.1603 -0.0003 0.0000 0.0000
# 4 0.0000 -0.0001 -0.0003 20.7118 0.0000 0.0000
# 5 0.0000 0.0000 0.0000 0.0000 18.7594 0.0000
# 6 0.0000 0.0000 0.0000 0.0000 0.0000 13.6110
#
#
#
# Elastic Compliance Matrix: (Units=1/GPa)
#
#
# Indices 1 2 3 4 5 6 
#
# 1 0.081303 -0.011233 -0.016118 0.000000 0.000000 0.000000
# 2 -0.011233 0.030422 -0.006985 0.000000 0.000000 0.000000
# 3 -0.016118 -0.006985 0.014743 0.000000 0.000000 0.000000
# 4 0.000000 0.000000 0.000000 0.048282 0.000000 0.000000
# 5 0.000000 0.000000 0.000000 0.000000 0.053307 0.000000
# 6 0.000000 0.000000 0.000000 0.000000 0.000000 0.073470
#
#
# Mechanical properties :
#
#
# Convention : Reuss Voigt Hill
#
# Bulk Modulus (GPa) = 17.30204 37.81891 27.56048
# Shear Modulus (GPa) = 12.83815 17.51150 15.17483
#
# Velocity S-wave (km/s) = 2.87249 3.35481 3.12298
# Velocity P-wave (km/s) = 4.70337 6.27000 5.54232
#
# Compressibility (1/GPa) = 0.05779665
#
# Stress axis : x y z
#
# Youngs Moduli (GPa) = 12.29964 32.87114 67.82664
#
# Poissons Ratio (x) = 0.36924 1.09323
# Poissons Ratio (y) = 0.13816 0.47377
# Poissons Ratio (z) = 0.19825 0.22960
#
# Static dielectric constant tensor:
#      x y z
#    x 1.505640 0.000000 0.000000 
#    y 0.000000 1.519870 0.000000 
#    z 0.000000 0.000000 1.589480 
# 
# From -- ./inp_files/22403.got.cif
#   From: 2010.05.17/outbox.cif.g08.bks.cpg/sg72_12_cif.got.tgz:22403.got - 2010.06.03 17:03:01.
