data_PCOD9525955
_publ_section_title
;
Structure prediction by ZEFSAII (Michael W. Deem and Ramdas Pophale) SiO2 
 PCOD9525955
Probable space group: I B A M
;
_chemical_formula_sum "Si O2"
_cell_formula_units_Z 112
_cell_length_a 22.422995
_cell_length_b 17.953071
_cell_length_c 15.279392
_cell_angle_alpha 90.000000
_cell_angle_beta 90.000000
_cell_angle_gamma 90.000000
_cell_volume 6150.896816
_symmetry_space_group_name_H-M "I B A M"
_symmetry_group_IT_number 72
_symmetry_cell_setting 'orthorhombic'
loop_
_space_group_symop_operation_xyz
x,y,z
-x,-y,z
x,-y,1/2-z
-x,y,1/2-z
-x,-y,-z
x,y,-z
-x,y,1/2+z
x,-y,1/2+z
1/2+x,1/2+y,1/2+z
1/2-x,1/2-y,1/2+z
1/2+x,1/2-y,-z
1/2-x,1/2+y,-z
1/2-x,1/2-y,1/2-z
1/2+x,1/2+y,1/2-z
1/2-x,1/2+y,z
1/2+x,1/2-y,z
loop_
_atom_site_type_symbol
_atom_site_label
_atom_site_fract_x
_atom_site_fract_y
_atom_site_fract_z
Si Si1 0.987291 0.203654 0.343779
Si Si2 0.876260 0.187104 0.897821
Si Si3 0.234604 0.113371 0.099164
Si Si4 0.860076 0.249198 0.401331
Si Si5 0.166548 0.022824 0.351509
Si Si6 0.050627 0.060775 0.096249
Si Si7 0.808476 0.701960 0.270861
O O1 0.931764 0.241910 0.392253
O O2 0.958570 0.121682 0.329924
O O3 0.000000 0.239584 0.250000
O O4 0.051439 0.188352 0.388107
O O5 0.844179 0.110160 0.867163
O O6 0.851011 0.250864 0.834774
O O7 0.861959 0.198276 0.000000
O O8 0.176130 0.169311 0.111979
O O9 0.282518 0.133959 0.173188
O O10 0.219591 0.026028 0.107900
O O11 0.254831 0.129449 0.000000
O O12 0.844915 0.272592 0.500000
O O13 0.838989 0.303869 0.323933
O O14 0.165731 0.000000 0.250000
O O15 0.110346 0.984047 0.396071
O O16 0.047696 0.097863 0.000000
O O17 0.000000 0.000000 0.101524
O O18 0.750000 0.750000 0.250000
#
# Coordination Sequence:
#
# PCOD9525955 Si02
#       7
#    16  16  16  16  16  16  16
#     4  12  21  32  48  73 105 142 174 223 271 322
#     4  12  23  35  53  78 107 138 182 233 276 315
#     4  10  20  35  55  71  97 142 189 232 282 331
#     4  10  19  33  52  72  97 136 181 222 270 328
#     4  12  22  33  49  74 103 142 185 232 271 320
#     4  11  21  30  42  64  99 141 182 215 255 311
#     4  10  21  38  52  71  98 137 187 236 275 319
#
# _framework density 18.208727
#
# number of rings (size 3 to 8) (size 9 to 14) (size 15 to 20)
#    0.000    1.000    4.286    5.571    0.000    0.571 
#    0.000    0.000    0.000    0.000    0.000    0.000 
#    0.000    0.000    0.000   39.857    0.000  173.286 
#
# Total GULP energy -312059.051468 kJ/mol
# GULP energy per Si atom -5572.483062 kJ/mol
# Density = 1.816728 g / cm^3
# Si number density = 18.208727 Si / 1000 Ang^3
#
#
#
# Elastic Constant Matrix: (Units=GPa)
#
#
# Indices 1 2 3 4 5 6 
#
# 1 52.8793 26.4598 29.7129 0.0000 0.0000 0.0000
# 2 26.4598 31.4996 19.2262 0.0000 0.0000 0.0000
# 3 29.7129 19.2262 135.0951 0.0000 0.0000 0.0000
# 4 0.0000 0.0000 0.0000 -12.7410 0.0000 0.0000
# 5 0.0000 0.0000 0.0000 0.0000 40.9932 0.0000
# 6 0.0000 0.0000 0.0000 0.0000 0.0000 23.7832
#
#
#
# Elastic Compliance Matrix: (Units=1/GPa)
#
#
# Indices 1 2 3 4 5 6 
#
# 1 0.034291 -0.026504 -0.003770 0.000000 0.000000 0.000000
# 2 -0.026504 0.055251 -0.002034 0.000000 0.000000 0.000000
# 3 -0.003770 -0.002034 0.008521 0.000000 0.000000 0.000000
# 4 0.000000 0.000000 0.000000 -0.078487 0.000000 0.000000
# 5 0.000000 0.000000 0.000000 0.000000 0.024394 0.000000
# 6 0.000000 0.000000 0.000000 0.000000 0.000000 0.042046
#
#
# Mechanical properties :
#
#
# Convention : Reuss Voigt Hill
#
# Bulk Modulus (GPa) = 29.89736 41.14133 35.51935
# Shear Modulus (GPa) = 30.90577 20.01210 25.45893
#
# Velocity S-wave (km/s) = 4.12431 3.31877 3.74327
# Velocity P-wave (km/s) = 6.25578 6.10975 6.18319
#
# Compressibility (1/GPa) = 0.03344776
#
# Stress axis : x y z
#
# Youngs Moduli (GPa) = 29.16182 18.09920 117.35906
#
# Poissons Ratio (x) = 0.47970 0.44246
# Poissons Ratio (y) = 0.77290 0.23869
# Poissons Ratio (z) = 0.10995 0.03681
#
# Static dielectric constant tensor:
#      x y z
#    x 1.646000 0.000000 0.000000 
#    y 0.000000 1.702000 0.000000 
#    z 0.000000 0.000000 1.746910 
# 
# From -- ./inp_files/25192.got.cif
#   From: 2010.05.17/outbox.cif.g08.bks.cpg/sg72_13_cif.got.tgz:25192.got - 2010.06.03 17:03:01.
