data_PCOD9525450
_publ_section_title
;
Structure prediction by ZEFSAII (Michael W. Deem and Ramdas Pophale) SiO2 
 PCOD9525450
Probable space group: I B A M
;
_chemical_formula_sum "Si O2"
_cell_formula_units_Z 84
_cell_length_a 13.802782
_cell_length_b 8.161789
_cell_length_c 29.093466
_cell_angle_alpha 90.000000
_cell_angle_beta 90.000000
_cell_angle_gamma 90.000000
_cell_volume 3277.535884
_symmetry_space_group_name_H-M "I B A M"
_symmetry_group_IT_number 72
_symmetry_cell_setting 'orthorhombic'
loop_
_space_group_symop_operation_xyz
x,y,z
-x,-y,z
x,-y,1/2-z
-x,y,1/2-z
-x,-y,-z
x,y,-z
-x,y,1/2+z
x,-y,1/2+z
1/2+x,1/2+y,1/2+z
1/2-x,1/2-y,1/2+z
1/2+x,1/2-y,-z
1/2-x,1/2+y,-z
1/2-x,1/2-y,1/2-z
1/2+x,1/2+y,1/2-z
1/2-x,1/2+y,z
1/2+x,1/2-y,z
loop_
_atom_site_type_symbol
_atom_site_label
_atom_site_fract_x
_atom_site_fract_y
_atom_site_fract_z
Si Si1 0.318205 0.728771 0.500000
Si Si2 0.706509 0.543476 0.095757
Si Si3 0.000000 0.500000 0.750000
Si Si4 0.522416 0.751631 0.685400
Si Si5 0.605274 0.101086 0.000000
Si Si6 0.158683 0.058252 0.700923
Si Si7 0.595480 0.804250 0.591254
O O1 0.336442 0.639474 0.449623
O O2 0.200496 0.718270 0.500000
O O3 0.354151 0.916110 0.500000
O O4 0.699957 0.599238 0.150025
O O5 0.656361 0.365589 0.093512
O O6 0.822647 0.554369 0.091487
O O7 0.064180 0.399712 0.785683
O O8 0.419286 0.704314 0.707115
O O9 0.591502 0.598121 0.690373
O O10 0.520776 0.798939 0.632602
O O11 0.545277 0.162199 0.043512
O O12 0.205943 0.000000 0.750000
#
# Coordination Sequence:
#
# PCOD9525450 Si02
#       7
#     8  16   4  16   8  16  16
#     4  10  18  32  55  84 113 164 192 232 290 358
#     4  10  20  34  59  84 118 151 197 242 291 340
#     4  12  20  34  56  82 104 138 184 250 276 348
#     4  10  21  36  59  80 108 148 200 230 287 345
#     4  10  18  32  55  78 123 153 192 232 292 349
#     4  10  19  41  60  78 110 161 197 231 287 368
#     4  10  20  36  55  87 114 154 189 243 285 346
#
# _framework density 25.629010000000001
#
# number of rings (size 3 to 8) (size 9 to 14) (size 15 to 20)
#    0.000    1.905    1.905    5.714    0.000    3.048 
#    1.714    2.857    0.000    6.286    0.000    0.000 
#    0.000    0.000    0.000    0.000    0.000    0.000 
#
# Total GULP energy -233857.131095 kJ/mol
# GULP energy per Si atom -5568.026931 kJ/mol
# Density = 2.557068 g / cm^3
# Si number density = 25.629010 Si / 1000 Ang^3
#
#
#
# Elastic Constant Matrix: (Units=GPa)
#
#
# Indices 1 2 3 4 5 6 
#
# 1 35.8345 6.5201 26.4139 0.0000 0.0000 0.0000
# 2 6.5201 75.3458 52.2818 0.0000 0.0000 0.0000
# 3 26.4139 52.2818 278.6373 0.0000 0.0000 0.0000
# 4 0.0000 0.0000 0.0000 32.9822 0.0000 0.0000
# 5 0.0000 0.0000 0.0000 0.0000 27.4308 0.0000
# 6 0.0000 0.0000 0.0000 0.0000 0.0000 14.6449
#
#
#
# Elastic Compliance Matrix: (Units=1/GPa)
#
#
# Indices 1 2 3 4 5 6 
#
# 1 0.030036 -0.000717 -0.002713 0.000000 0.000000 0.000000
# 2 -0.000717 0.015276 -0.002798 0.000000 0.000000 0.000000
# 3 -0.002713 -0.002798 0.004371 0.000000 0.000000 0.000000
# 4 0.000000 0.000000 0.000000 0.030319 0.000000 0.000000
# 5 0.000000 0.000000 0.000000 0.000000 0.036455 0.000000
# 6 0.000000 0.000000 0.000000 0.000000 0.000000 0.068283
#
#
# Mechanical properties :
#
#
# Convention : Reuss Voigt Hill
#
# Bulk Modulus (GPa) = 26.86204 62.24990 44.55597
# Shear Modulus (GPa) = 23.85427 35.31836 29.58632
#
# Velocity S-wave (km/s) = 3.05413 3.71625 3.40134
# Velocity P-wave (km/s) = 4.78966 6.53878 5.73134
#
# Compressibility (1/GPa) = 0.03722725
#
# Stress axis : x y z
#
# Youngs Moduli (GPa) = 33.29325 65.46254 228.77415
#
# Poissons Ratio (x) = 0.04692 0.62062
# Poissons Ratio (y) = 0.02386 0.64019
# Poissons Ratio (z) = 0.09032 0.18319
#
# Static dielectric constant tensor:
#      x y z
#    x 2.021450 0.000000 0.000000 
#    y 0.000000 2.067270 0.000000 
#    z 0.000000 0.000000 2.209530 
# 
# From -- ./inp_files/49615.got.cif
#   From: 2010.05.17/outbox.cif.g08.bks.cpg/sg72_25_cif.got.tgz:49615.got - 2010.06.03 17:03:01.
