data_PCOD9525176
_publ_section_title
;
Structure prediction by ZEFSAII (Michael W. Deem and Ramdas Pophale) SiO2 
 PCOD9525176
Probable space group: I B A M
;
_chemical_formula_sum "Si O2"
_cell_formula_units_Z 96
_cell_length_a 29.569846
_cell_length_b 27.040904
_cell_length_c 8.838122
_cell_angle_alpha 90.000000
_cell_angle_beta 90.000000
_cell_angle_gamma 90.000000
_cell_volume 7066.921404
_symmetry_space_group_name_H-M "I B A M"
_symmetry_group_IT_number 72
_symmetry_cell_setting 'orthorhombic'
loop_
_space_group_symop_operation_xyz
x,y,z
-x,-y,z
x,-y,1/2-z
-x,y,1/2-z
-x,-y,-z
x,y,-z
-x,y,1/2+z
x,-y,1/2+z
1/2+x,1/2+y,1/2+z
1/2-x,1/2-y,1/2+z
1/2+x,1/2-y,-z
1/2-x,1/2+y,-z
1/2-x,1/2-y,1/2-z
1/2+x,1/2+y,1/2-z
1/2-x,1/2+y,z
1/2+x,1/2-y,z
loop_
_atom_site_type_symbol
_atom_site_label
_atom_site_fract_x
_atom_site_fract_y
_atom_site_fract_z
Si Si1 0.774973 0.798007 0.818199
Si Si2 0.047306 0.404026 0.318380
Si Si3 0.047405 0.711684 0.180470
Si Si4 0.698050 0.855955 0.681383
Si Si5 0.356215 0.053033 0.817878
Si Si6 0.861105 0.257880 0.680802
O O1 0.750000 0.750000 0.750000
O O2 0.747588 0.843395 0.747337
O O3 0.827505 0.787534 0.781495
O O4 0.770410 0.798139 0.000000
O O5 0.044099 0.405694 0.500000
O O6 0.053051 0.346262 0.273209
O O7 0.092136 0.433281 0.272030
O O8 0.000000 0.422132 0.250000
O O9 0.090944 0.740873 0.238407
O O10 0.000000 0.728906 0.250000
O O11 0.045080 0.713233 0.000000
O O12 0.699972 0.859592 0.500000
O O13 0.675978 0.904211 0.753733
O O14 0.665781 0.808783 0.719339
O O15 0.344341 0.000000 0.750000
O O16 0.354121 0.052563 0.000000
O O17 0.867686 0.258141 0.500000
#
# Coordination Sequence:
#
# PCOD9525176 Si02
#       6
#    16  16  16  16  16  16
#     4   9  17  28  43  64  86 107 131 163 203 247
#     4   9  19  32  45  59  75 100 133 173 218 259
#     4  10  18  28  42  60  81 108 138 170 209 250
#     4  10  19  31  46  63  82 106 133 169 211 252
#     4  11  22  35  47  62  80 104 137 174 218 262
#     4   9  17  28  43  63  84 106 133 165 203 245
#
# _framework density 13.584415999999999
#
# number of rings (size 3 to 8) (size 9 to 14) (size 15 to 20)
#    0.000    2.333    1.667    3.000    0.000    5.667 
#    0.000    1.667    0.000    0.000    0.000    0.000 
#    0.000    0.000    0.000    0.000    0.000    0.833 
#
# Total GULP energy -267552.129827 kJ/mol
# GULP energy per Si atom -5574.002705 kJ/mol
# Density = 1.355350 g / cm^3
# Si number density = 13.584416 Si / 1000 Ang^3
#
#
#
# Elastic Constant Matrix: (Units=GPa)
#
#
# Indices 1 2 3 4 5 6 
#
# 1 106.1397 54.3439 46.2006 0.0000 0.0000 0.0000
# 2 54.3439 58.6679 28.3574 0.0000 0.0000 0.0000
# 3 46.2006 28.3574 41.9124 0.0000 0.0000 0.0000
# 4 0.0000 0.0000 0.0000 16.2654 0.0000 0.0000
# 5 0.0000 0.0000 0.0000 0.0000 25.9272 0.0000
# 6 0.0000 0.0000 0.0000 0.0000 0.0000 16.9264
#
#
#
# Elastic Compliance Matrix: (Units=1/GPa)
#
#
# Indices 1 2 3 4 5 6 
#
# 1 0.023973 -0.014017 -0.016942 0.000000 0.000000 0.000000
# 2 -0.014017 0.033524 -0.007231 0.000000 0.000000 0.000000
# 3 -0.016942 -0.007231 0.047427 0.000000 0.000000 0.000000
# 4 0.000000 0.000000 0.000000 0.061480 0.000000 0.000000
# 5 0.000000 0.000000 0.000000 0.000000 0.038569 0.000000
# 6 0.000000 0.000000 0.000000 0.000000 0.000000 0.059079
#
#
# Mechanical properties :
#
#
# Convention : Reuss Voigt Hill
#
# Bulk Modulus (GPa) = 35.03326 51.61377 43.32352
# Shear Modulus (GPa) = 14.28792 17.01169 15.64981
#
# Velocity S-wave (km/s) = 3.24665 3.54262 3.39786
# Velocity P-wave (km/s) = 6.31661 7.40343 6.88151
#
# Compressibility (1/GPa) = 0.02854430
#
# Stress axis : x y z
#
# Youngs Moduli (GPa) = 41.71420 29.82931 21.08524
#
# Poissons Ratio (x) = 0.41812 0.35722
# Poissons Ratio (y) = 0.58471 0.15246
# Poissons Ratio (z) = 0.70671 0.21569
#
# Static dielectric constant tensor:
#      x y z
#    x 1.457880 0.000000 0.000000 
#    y 0.000000 1.442820 0.000000 
#    z 0.000000 0.000000 1.450680 
# 
# From -- ./inp_files/6976.got.cif
#   From: 2010.05.17/outbox.cif.g08.bks.cpg/sg72_4_cif.got.tgz:6976.got - 2010.06.03 17:03:01.
