data_PCOD9525387
_publ_section_title
;
Structure prediction by ZEFSAII (Michael W. Deem and Ramdas Pophale) SiO2 
 PCOD9525387
Probable space group: I B A M
;
_chemical_formula_sum "Si O2"
_cell_formula_units_Z 52
_cell_length_a 5.480426
_cell_length_b 12.997864
_cell_length_c 30.881943
_cell_angle_alpha 90.000000
_cell_angle_beta 90.000000
_cell_angle_gamma 90.000000
_cell_volume 2199.839134
_symmetry_space_group_name_H-M "I B A M"
_symmetry_group_IT_number 72
_symmetry_cell_setting 'orthorhombic'
loop_
_space_group_symop_operation_xyz
x,y,z
-x,-y,z
x,-y,1/2-z
-x,y,1/2-z
-x,-y,-z
x,y,-z
-x,y,1/2+z
x,-y,1/2+z
1/2+x,1/2+y,1/2+z
1/2-x,1/2-y,1/2+z
1/2+x,1/2-y,-z
1/2-x,1/2+y,-z
1/2-x,1/2-y,1/2-z
1/2+x,1/2+y,1/2-z
1/2-x,1/2+y,z
1/2+x,1/2-y,z
loop_
_atom_site_type_symbol
_atom_site_label
_atom_site_fract_x
_atom_site_fract_y
_atom_site_fract_z
Si Si1 0.756676 0.439650 0.331949
Si Si2 0.139914 0.145877 0.583353
Si Si3 0.000000 0.500000 0.750000
Si Si4 0.139000 0.378891 0.550146
O O1 0.500000 0.500000 0.331738
O O2 0.715916 0.348352 0.366132
O O3 0.836687 0.429273 0.281807
O O4 0.000000 0.500000 0.348712
O O5 0.111867 0.256282 0.560996
O O6 0.361301 0.086947 0.559580
O O7 0.874648 0.095460 0.578831
O O8 0.199514 0.392883 0.500000
#
# Coordination Sequence:
#
# PCOD9525387 Si02
#       4
#    16  16   4  16
#     4  10  20  35  55  80 102 133 178 212 263 310
#     4  10  18  31  54  79 105 134 180 213 249 304
#     4   8  22  36  58  76  96 140 174 212 260 324
#     4  10  19  33  55  78 105 145 177 205 250 302
#
# _framework density 23.638093000000001
#
# number of rings (size 3 to 8) (size 9 to 14) (size 15 to 20)
#    0.923    1.231    0.000    6.923    0.000    0.000 
#    0.000    0.000    0.000   38.769    0.000    0.000 
#    0.000    0.000    0.000    0.000    0.000    0.000 
#
# Total GULP energy -144867.262137 kJ/mol
# GULP energy per Si atom -5571.817774 kJ/mol
# Density = 2.358429 g / cm^3
# Si number density = 23.638093 Si / 1000 Ang^3
#
#
#
# Elastic Constant Matrix: (Units=GPa)
#
#
# Indices 1 2 3 4 5 6 
#
# 1 214.5433 21.1648 25.0780 0.0000 0.0000 0.0000
# 2 21.1648 22.1186 -3.8688 0.0000 0.0000 0.0000
# 3 25.0780 -3.8688 175.7078 0.0000 0.0000 0.0000
# 4 0.0000 0.0000 0.0000 49.0132 0.0000 0.0000
# 5 0.0000 0.0000 0.0000 0.0000 38.9270 0.0000
# 6 0.0000 0.0000 0.0000 0.0000 0.0000 21.9745
#
#
#
# Elastic Compliance Matrix: (Units=1/GPa)
#
#
# Indices 1 2 3 4 5 6 
#
# 1 0.005275 -0.005200 -0.000867 0.000000 0.000000 0.000000
# 2 -0.005200 0.050511 0.001854 0.000000 0.000000 0.000000
# 3 -0.000867 0.001854 0.005856 0.000000 0.000000 0.000000
# 4 0.000000 0.000000 0.000000 0.020403 0.000000 0.000000
# 5 0.000000 0.000000 0.000000 0.000000 0.025689 0.000000
# 6 0.000000 0.000000 0.000000 0.000000 0.000000 0.045507
#
#
# Mechanical properties :
#
#
# Convention : Reuss Voigt Hill
#
# Bulk Modulus (GPa) = 18.79122 55.23531 37.01326
# Shear Modulus (GPa) = 27.86986 46.64931 37.25959
#
# Velocity S-wave (km/s) = 3.43742 4.44721 3.97451
# Velocity P-wave (km/s) = 4.87045 7.05606 6.06256
#
# Compressibility (1/GPa) = 0.05321635
#
# Stress axis : x y z
#
# Youngs Moduli (GPa) = 189.55888 19.79782 170.76796
#
# Poissons Ratio (x) = 0.10294 0.14813
# Poissons Ratio (y) = 0.98564 -0.31665
# Poissons Ratio (z) = 0.16443 -0.03671
#
# Static dielectric constant tensor:
#      x y z
#    x 1.956750 0.000000 0.000000 
#    y 0.000000 1.598880 0.000000 
#    z 0.000000 0.000000 1.850600 
# 
# From -- ./inp_files/48843.got.cif
#   From: 2010.05.17/outbox.cif.g08.bks.cpg/sg72_25_cif.got.tgz:48843.got - 2010.06.03 17:03:01.
