data_PCOD9525658
_publ_section_title
;
Structure prediction by ZEFSAII (Michael W. Deem and Ramdas Pophale) SiO2 
 PCOD9525658
Probable space group: I B A M
;
_chemical_formula_sum "Si O2"
_cell_formula_units_Z 80
_cell_length_a 27.865890
_cell_length_b 19.778380
_cell_length_c 8.681550
_cell_angle_alpha 90.000000
_cell_angle_beta 90.000000
_cell_angle_gamma 90.000000
_cell_volume 4784.768232
_symmetry_space_group_name_H-M "I B A M"
_symmetry_group_IT_number 72
_symmetry_cell_setting 'orthorhombic'
loop_
_space_group_symop_operation_xyz
x,y,z
-x,-y,z
x,-y,1/2-z
-x,y,1/2-z
-x,-y,-z
x,y,-z
-x,y,1/2+z
x,-y,1/2+z
1/2+x,1/2+y,1/2+z
1/2-x,1/2-y,1/2+z
1/2+x,1/2-y,-z
1/2-x,1/2+y,-z
1/2-x,1/2-y,1/2-z
1/2+x,1/2+y,1/2-z
1/2-x,1/2+y,z
1/2+x,1/2-y,z
loop_
_atom_site_type_symbol
_atom_site_label
_atom_site_fract_x
_atom_site_fract_y
_atom_site_fract_z
Si Si1 0.367107 0.675201 0.179564
Si Si2 0.947079 0.075238 0.815041
Si Si3 0.809007 0.067449 0.173635
Si Si4 0.700114 0.217063 0.682943
Si Si5 0.694889 0.069633 0.173716
O O1 0.410152 0.632748 0.257434
O O2 0.321889 0.626002 0.209040
O O3 0.346930 0.742630 0.257942
O O4 0.376762 0.685104 0.000000
O O5 0.000000 0.091088 0.750000
O O6 0.935472 0.000000 0.750000
O O7 0.947903 0.072292 0.000000
O O8 0.752308 0.060427 0.160345
O O9 0.828807 0.000000 0.250000
O O10 0.827849 0.079749 0.000000
O O11 0.703862 0.223434 0.500000
O O12 0.750000 0.250000 0.750000
O O13 0.691740 0.139389 0.732623
O O14 0.676272 0.000000 0.250000
O O15 0.675744 0.077986 0.000000
#
# Coordination Sequence:
#
# PCOD9525658 Si02
#       5
#    16  16  16  16  16
#     4  12  23  35  52  74 102 137 177 221 269 320
#     4  11  22  39  59  81 109 142 182 227 276 327
#     4  10  19  30  45  66  95 129 171 215 258 305
#     4  12  23  36  52  74 104 139 177 223 271 320
#     4  10  20  34  51  70  97 134 174 215 259 309
#
# _framework density 16.719723999999999
#
# number of rings (size 3 to 8) (size 9 to 14) (size 15 to 20)
#    0.000    1.000    2.000    7.800    0.000    1.600 
#    0.000    0.000    0.000    0.000    0.000    0.000 
#    0.000    0.800    0.000    8.000    0.000    4.800 
#
# Total GULP energy -223064.329164 kJ/mol
# GULP energy per Si atom -5576.608229 kJ/mol
# Density = 1.668167 g / cm^3
# Si number density = 16.719724 Si / 1000 Ang^3
#
#
#
# Elastic Constant Matrix: (Units=GPa)
#
#
# Indices 1 2 3 4 5 6 
#
# 1 64.9831 39.4224 44.4997 0.0000 0.0000 0.0000
# 2 39.4224 126.5110 63.3579 0.0000 0.0000 0.0000
# 3 44.4997 63.3579 174.8720 0.0000 0.0000 0.0000
# 4 0.0000 0.0000 0.0000 25.6613 0.0000 0.0000
# 5 0.0000 0.0000 0.0000 0.0000 20.0324 0.0000
# 6 0.0000 0.0000 0.0000 0.0000 0.0000 48.3041
#
#
#
# Elastic Compliance Matrix: (Units=1/GPa)
#
#
# Indices 1 2 3 4 5 6 
#
# 1 0.020654 -0.004647 -0.003572 0.000000 0.000000 0.000000
# 2 -0.004647 0.010702 -0.002695 0.000000 0.000000 0.000000
# 3 -0.003572 -0.002695 0.007604 0.000000 0.000000 0.000000
# 4 0.000000 0.000000 0.000000 0.038969 0.000000 0.000000
# 5 0.000000 0.000000 0.000000 0.000000 0.049919 0.000000
# 6 0.000000 0.000000 0.000000 0.000000 0.000000 0.020702
#
#
# Mechanical properties :
#
#
# Convention : Reuss Voigt Hill
#
# Bulk Modulus (GPa) = 58.37139 73.43625 65.90382
# Shear Modulus (GPa) = 28.39464 33.40529 30.89997
#
# Velocity S-wave (km/s) = 4.12548 4.47470 4.30363
# Velocity P-wave (km/s) = 7.59475 8.40919 8.01233
#
# Compressibility (1/GPa) = 0.01713168
#
# Stress axis : x y z
#
# Youngs Moduli (GPa) = 48.41690 93.43869 131.51171
#
# Poissons Ratio (x) = 0.43422 0.46978
# Poissons Ratio (y) = 0.22500 0.35442
# Poissons Ratio (z) = 0.17295 0.25182
#
# Static dielectric constant tensor:
#      x y z
#    x 1.572440 0.000000 0.000000 
#    y 0.000000 1.460530 0.000000 
#    z 0.000000 0.000000 1.591320 
# 
# From -- ./inp_files/4796.got.cif
#   From: 2010.05.17/outbox.cif.g08.bks.cpg/sg72_3_cif.got.tgz:4796.got - 2010.06.03 17:03:01.
