data_PCOD9525121
_publ_section_title
;
Structure prediction by ZEFSAII (Michael W. Deem and Ramdas Pophale) SiO2 
 PCOD9525121
Probable space group: I B A M
;
_chemical_formula_sum "Si O2"
_cell_formula_units_Z 112
_cell_length_a 12.292731
_cell_length_b 18.988794
_cell_length_c 26.713350
_cell_angle_alpha 90.000000
_cell_angle_beta 90.000000
_cell_angle_gamma 90.000000
_cell_volume 6235.540661
_symmetry_space_group_name_H-M "I B A M"
_symmetry_group_IT_number 72
_symmetry_cell_setting 'orthorhombic'
loop_
_space_group_symop_operation_xyz
x,y,z
-x,-y,z
x,-y,1/2-z
-x,y,1/2-z
-x,-y,-z
x,y,-z
-x,y,1/2+z
x,-y,1/2+z
1/2+x,1/2+y,1/2+z
1/2-x,1/2-y,1/2+z
1/2+x,1/2-y,-z
1/2-x,1/2+y,-z
1/2-x,1/2-y,1/2-z
1/2+x,1/2+y,1/2-z
1/2-x,1/2+y,z
1/2+x,1/2-y,z
loop_
_atom_site_type_symbol
_atom_site_label
_atom_site_fract_x
_atom_site_fract_y
_atom_site_fract_z
Si Si1 0.879780 0.339095 0.724562
Si Si2 0.257765 0.889411 0.320423
Si Si3 0.101310 0.401917 0.057527
Si Si4 0.916930 0.302110 0.893591
Si Si5 0.120229 0.526062 0.656377
Si Si6 0.404418 0.285656 0.652598
Si Si7 0.775436 0.734767 0.055620
O O1 0.794424 0.360590 0.766714
O O2 0.870652 0.397734 0.681358
O O3 0.862070 0.265120 0.696985
O O4 0.000000 0.340815 0.750000
O O5 0.338522 0.850041 0.359626
O O6 0.135739 0.863532 0.332970
O O7 0.289662 0.971072 0.325226
O O8 0.120846 0.464432 0.096472
O O9 0.204120 0.348725 0.058756
O O10 0.002995 0.353960 0.079702
O O11 0.080949 0.422040 0.000000
O O12 0.845924 0.260417 0.933970
O O13 0.975077 0.243830 0.858204
O O14 0.000000 0.500000 0.671587
O O15 0.345938 0.268139 0.600016
O O16 0.811495 0.756397 0.000000
#
# Coordination Sequence:
#
# PCOD9525121 Si02
#       7
#    16  16  16  16  16  16  16
#     4  12  19  34  55  77 108 149 173 216 267 318
#     4  11  22  32  53  78 112 139 173 217 263 318
#     4  10  19  33  51  76 109 141 175 219 270 321
#     4  10  17  34  52  77 106 135 176 219 269 312
#     4  12  20  34  49  81 111 143 174 210 268 333
#     4  10  20  35  51  81 109 135 182 222 261 311
#     4   9  18  32  52  76 102 140 179 216 266 317
#
# _framework density 17.961554
#
# number of rings (size 3 to 8) (size 9 to 14) (size 15 to 20)
#    0.000    1.429    7.143    1.286    0.000    0.857 
#    0.000    0.714    0.000    0.857    0.000    2.000 
#    0.000    0.000    0.000    0.000    0.000    0.000 
#
# Total GULP energy -312061.986860 kJ/mol
# GULP energy per Si atom -5572.535480 kJ/mol
# Density = 1.792067 g / cm^3
# Si number density = 17.961554 Si / 1000 Ang^3
#
#
#
# Elastic Constant Matrix: (Units=GPa)
#
#
# Indices 1 2 3 4 5 6 
#
# 1 15.2640 9.8273 -3.3090 0.0000 0.0000 0.0000
# 2 9.8273 50.9379 3.6834 0.0000 0.0000 0.0000
# 3 -3.3090 3.6834 93.2192 0.0000 0.0000 0.0000
# 4 0.0000 0.0000 0.0000 10.9667 0.0000 0.0000
# 5 0.0000 0.0000 0.0000 0.0000 21.8759 0.0000
# 6 0.0000 0.0000 0.0000 0.0000 0.0000 26.1770
#
#
#
# Elastic Compliance Matrix: (Units=1/GPa)
#
#
# Indices 1 2 3 4 5 6 
#
# 1 0.075791 -0.014859 0.003277 0.000000 0.000000 0.000000
# 2 -0.014859 0.022601 -0.001421 0.000000 0.000000 0.000000
# 3 0.003277 -0.001421 0.010900 0.000000 0.000000 0.000000
# 4 0.000000 0.000000 0.000000 0.091185 0.000000 0.000000
# 5 0.000000 0.000000 0.000000 0.000000 0.045712 0.000000
# 6 0.000000 0.000000 0.000000 0.000000 0.000000 0.038201
#
#
# Mechanical properties :
#
#
# Convention : Reuss Voigt Hill
#
# Bulk Modulus (GPa) = 12.00660 19.98050 15.99355
# Shear Modulus (GPa) = 14.78600 21.75186 18.26893
#
# Velocity S-wave (km/s) = 2.87226 3.48375 3.19268
# Velocity P-wave (km/s) = 4.20702 5.22783 4.74496
#
# Compressibility (1/GPa) = 0.08328754
#
# Stress axis : x y z
#
# Youngs Moduli (GPa) = 13.19424 44.24547 91.74415
#
# Poissons Ratio (x) = 0.65744 -0.30069
# Poissons Ratio (y) = 0.19605 0.13032
# Poissons Ratio (z) = -0.04324 0.06285
#
# Static dielectric constant tensor:
#      x y z
#    x 1.661150 0.000000 0.000000 
#    y 0.000000 1.620350 0.000000 
#    z 0.000000 0.000000 1.642040 
# 
# From -- ./inp_files/48272.got.cif
#   From: 2010.05.17/outbox.cif.g08.bks.cpg/sg72_25_cif.got.tgz:48272.got - 2010.06.03 17:03:01.
