data_PCOD9525207
_publ_section_title
;
Structure prediction by ZEFSAII (Michael W. Deem and Ramdas Pophale) SiO2 
 PCOD9525207
Probable space group: I B A M
;
_chemical_formula_sum "Si O2"
_cell_formula_units_Z 112
_cell_length_a 19.904183
_cell_length_b 19.969163
_cell_length_c 14.816226
_cell_angle_alpha 90.000000
_cell_angle_beta 90.000000
_cell_angle_gamma 90.000000
_cell_volume 5889.003492
_symmetry_space_group_name_H-M "I B A M"
_symmetry_group_IT_number 72
_symmetry_cell_setting 'orthorhombic'
loop_
_space_group_symop_operation_xyz
x,y,z
-x,-y,z
x,-y,1/2-z
-x,y,1/2-z
-x,-y,-z
x,y,-z
-x,y,1/2+z
x,-y,1/2+z
1/2+x,1/2+y,1/2+z
1/2-x,1/2-y,1/2+z
1/2+x,1/2-y,-z
1/2-x,1/2+y,-z
1/2-x,1/2-y,1/2-z
1/2+x,1/2+y,1/2-z
1/2-x,1/2+y,z
1/2+x,1/2-y,z
loop_
_atom_site_type_symbol
_atom_site_label
_atom_site_fract_x
_atom_site_fract_y
_atom_site_fract_z
Si Si1 0.247480 0.137762 0.641602
Si Si2 0.353637 0.242524 0.639264
Si Si3 0.491708 0.295576 0.357202
Si Si4 0.292345 0.508430 0.144734
Si Si5 0.743301 0.853037 0.861549
Si Si6 0.555641 0.552330 0.607870
Si Si7 0.862125 0.247614 0.858982
O O1 0.316292 0.174176 0.612800
O O2 0.251464 0.141163 0.751777
O O3 0.187306 0.187284 0.615546
O O4 0.228671 0.064043 0.607931
O O5 0.428998 0.253173 0.606802
O O6 0.304816 0.303992 0.611800
O O7 0.359175 0.247606 0.748958
O O8 0.500000 0.286433 0.250000
O O9 0.469736 0.372940 0.369950
O O10 0.563917 0.271347 0.392103
O O11 0.275635 0.500000 0.250000
O O12 0.253366 0.571929 0.105090
O O13 0.370795 0.529706 0.140687
O O14 0.674722 0.815899 0.888101
O O15 0.500000 0.500000 0.641160
O O16 0.559077 0.548040 0.500000
#
# Coordination Sequence:
#
# PCOD9525207 Si02
#       7
#    16  16  16  16  16  16  16
#     4   8  14  23  39  64  92 114 146 197 233 261
#     4   8  13  24  39  63  91 113 149 196 234 256
#     4  10  18  28  49  70  86 122 164 191 214 274
#     4  10  18  28  49  70  86 122 164 191 214 274
#     4   8  13  24  39  63  91 113 149 196 234 256
#     4  11  24  34  42  65 104 130 138 178 245 283
#     4   8  14  23  39  64  92 114 146 197 233 261
#
# _framework density 19.018497
#
# number of rings (size 3 to 8) (size 9 to 14) (size 15 to 20)
#    0.000    3.000    1.429    2.571    4.000    0.000 
#    0.000    0.000    0.000    2.571    0.000    6.000 
#    0.000    0.000    0.000    2.571    0.000    2.857 
#
# Total GULP energy -312071.458314 kJ/mol
# GULP energy per Si atom -5572.704613 kJ/mol
# Density = 1.897521 g / cm^3
# Si number density = 19.018497 Si / 1000 Ang^3
#
#
#
# Elastic Constant Matrix: (Units=GPa)
#
#
# Indices 1 2 3 4 5 6 
#
# 1 134.5748 109.6509 -10.0566 0.0000 0.0000 0.0000
# 2 109.6509 179.0451 0.1801 0.0000 0.0000 0.0000
# 3 -10.0566 0.1801 58.2725 0.0000 0.0000 0.0000
# 4 0.0000 0.0000 0.0000 -21.9702 0.0000 0.0000
# 5 0.0000 0.0000 0.0000 0.0000 -19.8080 0.0000
# 6 0.0000 0.0000 0.0000 0.0000 0.0000 29.8133
#
#
#
# Elastic Compliance Matrix: (Units=1/GPa)
#
#
# Indices 1 2 3 4 5 6 
#
# 1 0.015233 -0.009331 0.002658 0.000000 0.000000 0.000000
# 2 -0.009331 0.011302 -0.001645 0.000000 0.000000 0.000000
# 3 0.002658 -0.001645 0.017624 0.000000 0.000000 0.000000
# 4 0.000000 0.000000 0.000000 -0.045516 0.000000 0.000000
# 5 0.000000 0.000000 0.000000 0.000000 -0.050485 0.000000
# 6 0.000000 0.000000 0.000000 0.000000 0.000000 0.033542
#
#
# Mechanical properties :
#
#
# Convention : Reuss Voigt Hill
#
# Bulk Modulus (GPa) = 36.33656 63.49346 49.91501
# Shear Modulus (GPa) = 665.62940 15.74822 340.68881
#
# Velocity S-wave (km/s) = 18.72833 2.88070 13.39867
# Velocity P-wave (km/s) = 22.06387 6.67250 16.29934
#
# Compressibility (1/GPa) = 0.02752050
#
# Stress axis : x y z
#
# Youngs Moduli (GPa) = 65.64853 88.48301 56.73923
#
# Poissons Ratio (x) = 0.82567 -0.15079
# Poissons Ratio (y) = 0.61260 0.09336
# Poissons Ratio (z) = -0.17447 0.14558
#
# Static dielectric constant tensor:
#      x y z
#    x 1.672970 0.000000 0.000000 
#    y 0.000000 1.678560 0.000000 
#    z 0.000000 0.000000 1.714300 
# 
# From -- ./inp_files/39317.got.cif
#   From: 2010.05.17/outbox.cif.g08.bks.cpg/sg72_20_cif.got.tgz:39317.got - 2010.06.03 17:03:01.
