data_PCOD9525831
_publ_section_title
;
Structure prediction by ZEFSAII (Michael W. Deem and Ramdas Pophale) SiO2 
 PCOD9525831
Probable space group: I B A M
;
_chemical_formula_sum "Si O2"
_cell_formula_units_Z 112
_cell_length_a 11.527852
_cell_length_b 31.717616
_cell_length_c 14.520460
_cell_angle_alpha 90.000000
_cell_angle_beta 90.000000
_cell_angle_gamma 90.000000
_cell_volume 5309.202666
_symmetry_space_group_name_H-M "I B A M"
_symmetry_group_IT_number 72
_symmetry_cell_setting 'orthorhombic'
loop_
_space_group_symop_operation_xyz
x,y,z
-x,-y,z
x,-y,1/2-z
-x,y,1/2-z
-x,-y,-z
x,y,-z
-x,y,1/2+z
x,-y,1/2+z
1/2+x,1/2+y,1/2+z
1/2-x,1/2-y,1/2+z
1/2+x,1/2-y,-z
1/2-x,1/2+y,-z
1/2-x,1/2-y,1/2-z
1/2+x,1/2+y,1/2-z
1/2-x,1/2+y,z
1/2+x,1/2-y,z
loop_
_atom_site_type_symbol
_atom_site_label
_atom_site_fract_x
_atom_site_fract_y
_atom_site_fract_z
Si Si1 0.067745 0.041360 0.390078
Si Si2 0.945311 0.437383 0.887709
Si Si3 0.444928 0.370338 0.653194
Si Si4 0.809966 0.640027 0.388645
Si Si5 0.680417 0.020453 0.887222
Si Si6 0.292609 0.237087 0.112036
Si Si7 0.032881 0.775103 0.395346
O O1 0.075435 0.036561 0.500000
O O2 0.198378 0.038380 0.353119
O O3 0.006693 0.086259 0.375543
O O4 0.000000 0.000000 0.355915
O O5 0.912601 0.390612 0.859866
O O6 0.848560 0.472156 0.862278
O O7 0.070001 0.452883 0.855165
O O8 0.949206 0.438232 0.000000
O O9 0.500000 0.359560 0.750000
O O10 0.308095 0.377650 0.653988
O O11 0.458212 0.326007 0.599896
O O12 0.797050 0.637508 0.500000
O O13 0.823425 0.688719 0.365451
O O14 0.681202 0.021915 0.000000
O O15 0.157165 0.242140 0.143910
O O16 0.405210 0.263760 0.144295
O O17 0.285926 0.241528 0.000000
O O18 0.029531 0.758385 0.500000
#
# Coordination Sequence:
#
# PCOD9525831 Si02
#       7
#    16  16  16  16  16  16  16
#     4  10  19  32  51  75 101 130 166 207 254 302
#     4   8  13  24  44  70  99 126 155 196 245 294
#     4  11  22  34  49  71 100 135 171 207 246 297
#     4   9  16  30  51  72  95 130 168 202 248 304
#     4   8  14  24  41  70 101 124 154 199 245 292
#     4   8  15  28  50  76 100 123 162 207 253 303
#     4   9  17  34  54  76 102 132 165 210 262 310
#
# _framework density 21.095445000000002
#
# number of rings (size 3 to 8) (size 9 to 14) (size 15 to 20)
#    0.000    3.000    0.000    3.857    0.000    2.571 
#    2.571    2.857    0.000    0.857    0.000    2.000 
#    0.000    0.000    0.000    0.000    0.000    0.000 
#
# Total GULP energy -311980.799696 kJ/mol
# GULP energy per Si atom -5571.085709 kJ/mol
# Density = 2.104743 g / cm^3
# Si number density = 21.095445 Si / 1000 Ang^3
#
#
#
# Elastic Constant Matrix: (Units=GPa)
#
#
# Indices 1 2 3 4 5 6 
#
# 1 130.8792 69.6141 2.5180 0.0005 -0.0001 -0.0001
# 2 69.6141 77.8075 0.2940 -0.0001 0.0000 0.0000
# 3 2.5180 0.2940 18.2971 -0.0041 -0.0008 0.0004
# 4 0.0005 -0.0001 -0.0041 -31.0494 0.0010 0.0015
# 5 -0.0001 0.0000 -0.0008 0.0010 -14.6940 0.0002
# 6 -0.0001 0.0000 0.0004 0.0015 0.0002 42.6904
#
#
#
# Elastic Compliance Matrix: (Units=1/GPa)
#
#
# Indices 1 2 3 4 5 6 
#
# 1 0.014637 -0.013089 -0.001804 0.000001 0.000000 0.000000
# 2 -0.013089 0.024558 0.001407 0.000000 0.000000 0.000000
# 3 -0.001804 0.001407 0.054879 -0.000007 -0.000003 -0.000001
# 4 0.000001 0.000000 -0.000007 -0.032207 -0.000002 0.000001
# 5 0.000000 0.000000 -0.000003 -0.000002 -0.068055 0.000000
# 6 0.000000 0.000000 -0.000001 0.000001 0.000000 0.023424
#
#
# Mechanical properties :
#
#
# Convention : Reuss Voigt Hill
#
# Bulk Modulus (GPa) = 14.90282 41.31509 28.10896
# Shear Modulus (GPa) = 75.10033 9.69325 42.39679
#
# Velocity S-wave (km/s) = 5.97307 2.14591 4.48790
# Velocity P-wave (km/s) = 7.39255 5.07615 6.34102
#
# Compressibility (1/GPa) = 0.06710139
#
# Stress axis : x y z
#
# Youngs Moduli (GPa) = 68.31777 40.72018 18.22181
#
# Poissons Ratio (x) = 0.53300 0.03287
# Poissons Ratio (y) = 0.89423 -0.02563
# Poissons Ratio (z) = 0.12325 -0.05728
#
# Static dielectric constant tensor:
#      x y z
#    x 1.807460 0.000000 0.000000 
#    y 0.000000 1.744150 0.000000 
#    z 0.000000 0.000000 1.746110 
# 
# From -- ./inp_files/20737.got.cif
#   From: 2010.05.17/outbox.cif.g08.bks.cpg/sg72_11_cif.got.tgz:20737.got - 2010.06.03 17:03:01.
