data_PCOD9525060
_publ_section_title
;
Structure prediction by ZEFSAII (Michael W. Deem and Ramdas Pophale) SiO2 
 PCOD9525060
Probable space group: I B A M
;
_chemical_formula_sum "Si O2"
_cell_formula_units_Z 96
_cell_length_a 19.072136
_cell_length_b 14.726754
_cell_length_c 18.647114
_cell_angle_alpha 90.000000
_cell_angle_beta 90.000000
_cell_angle_gamma 90.000000
_cell_volume 5237.427125
_symmetry_space_group_name_H-M "I B A M"
_symmetry_group_IT_number 72
_symmetry_cell_setting 'orthorhombic'
loop_
_space_group_symop_operation_xyz
x,y,z
-x,-y,z
x,-y,1/2-z
-x,y,1/2-z
-x,-y,-z
x,y,-z
-x,y,1/2+z
x,-y,1/2+z
1/2+x,1/2+y,1/2+z
1/2-x,1/2-y,1/2+z
1/2+x,1/2-y,-z
1/2-x,1/2+y,-z
1/2-x,1/2-y,1/2-z
1/2+x,1/2+y,1/2-z
1/2-x,1/2+y,z
1/2+x,1/2-y,z
loop_
_atom_site_type_symbol
_atom_site_label
_atom_site_fract_x
_atom_site_fract_y
_atom_site_fract_z
Si Si1 0.274654 0.217234 0.082074
Si Si2 0.650199 0.363864 0.320345
Si Si3 0.110891 0.777622 0.578988
Si Si4 0.422838 0.793117 0.771727
Si Si5 0.223357 0.353607 0.730301
Si Si6 0.416481 0.490558 0.579851
O O1 0.321078 0.297557 0.116194
O O2 0.193226 0.246118 0.081090
O O3 0.276940 0.139931 0.144158
O O4 0.293890 0.193672 0.000000
O O5 0.600223 0.299534 0.271125
O O6 0.715902 0.402042 0.274429
O O7 0.611806 0.446191 0.357984
O O8 0.082574 0.756035 0.500000
O O9 0.074674 0.728996 0.644525
O O10 0.104156 0.885769 0.589368
O O11 0.500000 0.823946 0.750000
O O12 0.356535 0.859105 0.756705
O O13 0.250000 0.250000 0.750000
O O14 0.500000 0.500000 0.579415
O O15 0.390616 0.518214 0.500000
#
# Coordination Sequence:
#
# PCOD9525060 Si02
#       6
#    16  16  16  16  16  16
#     4   9  15  28  49  63  81 122 165 206 238 268
#     4  10  17  31  45  64  92 126 169 193 234 300
#     4  10  18  30  44  64  92 125 165 200 236 285
#     4  10  17  29  46  67  92 126 156 200 248 280
#     4   8  15  29  42  64  87 113 162 204 229 281
#     4  10  21  32  42  65 101 134 157 193 244 298
#
# _framework density 18.329611
#
# number of rings (size 3 to 8) (size 9 to 14) (size 15 to 20)
#    0.000    2.833    5.000    1.500    0.000    0.667 
#    0.000    5.000    0.000    0.000    0.000    0.000 
#    0.000   10.667    0.000   24.000    5.333    0.000 
#
# Total GULP energy -267213.574021 kJ/mol
# GULP energy per Si atom -5566.949459 kJ/mol
# Density = 1.828789 g / cm^3
# Si number density = 18.329611 Si / 1000 Ang^3
#
#
#
# Elastic Constant Matrix: (Units=GPa)
#
#
# Indices 1 2 3 4 5 6 
#
# 1 84.3298 4.7047 24.1112 0.0000 0.0000 0.0000
# 2 4.7047 7.3462 15.4477 0.0000 0.0000 0.0000
# 3 24.1112 15.4477 137.9560 0.0000 0.0000 0.0000
# 4 0.0000 0.0000 0.0000 26.3759 0.0000 0.0000
# 5 0.0000 0.0000 0.0000 0.0000 27.9247 0.0000
# 6 0.0000 0.0000 0.0000 0.0000 0.0000 7.8963
#
#
#
# Elastic Compliance Matrix: (Units=1/GPa)
#
#
# Indices 1 2 3 4 5 6 
#
# 1 0.012594 -0.004496 -0.001698 0.000000 0.000000 0.000000
# 2 -0.004496 0.179655 -0.019331 0.000000 0.000000 0.000000
# 3 -0.001698 -0.019331 0.009710 0.000000 0.000000 0.000000
# 4 0.000000 0.000000 0.000000 0.037913 0.000000 0.000000
# 5 0.000000 0.000000 0.000000 0.000000 0.035811 0.000000
# 6 0.000000 0.000000 0.000000 0.000000 0.000000 0.126641
#
#
# Mechanical properties :
#
#
# Convention : Reuss Voigt Hill
#
# Bulk Modulus (GPa) = 6.62647 35.35101 20.98874
# Shear Modulus (GPa) = 9.92700 24.79728 17.36214
#
# Velocity S-wave (km/s) = 2.32972 3.68211 3.08103
# Velocity P-wave (km/s) = 3.29542 6.11599 4.91249
#
# Compressibility (1/GPa) = 0.15090988
#
# Stress axis : x y z
#
# Youngs Moduli (GPa) = 79.40011 5.56623 102.98630
#
# Poissons Ratio (x) = 0.02502 0.17485
# Poissons Ratio (y) = 0.35696 1.99084
# Poissons Ratio (z) = 0.13480 0.10760
#
# Static dielectric constant tensor:
#      x y z
#    x 1.658510 0.000000 0.000000 
#    y 0.000000 1.676840 0.000000 
#    z 0.000000 0.000000 1.688560 
# 
# From -- ./inp_files/31820.got.cif
#   From: 2010.05.17/outbox.cif.g08.bks.cpg/sg72_16_cif.got.tgz:31820.got - 2010.06.03 17:03:01.
