data_PCOD9525237
_publ_section_title
;
Structure prediction by ZEFSAII (Michael W. Deem and Ramdas Pophale) SiO2 
 PCOD9525237
Probable space group: I B A M
;
_chemical_formula_sum "Si O2"
_cell_formula_units_Z 96
_cell_length_a 16.851071
_cell_length_b 19.210709
_cell_length_c 15.452902
_cell_angle_alpha 90.000000
_cell_angle_beta 90.000000
_cell_angle_gamma 90.000000
_cell_volume 5002.429218
_symmetry_space_group_name_H-M "I B A M"
_symmetry_group_IT_number 72
_symmetry_cell_setting 'orthorhombic'
loop_
_space_group_symop_operation_xyz
x,y,z
-x,-y,z
x,-y,1/2-z
-x,y,1/2-z
-x,-y,-z
x,y,-z
-x,y,1/2+z
x,-y,1/2+z
1/2+x,1/2+y,1/2+z
1/2-x,1/2-y,1/2+z
1/2+x,1/2-y,-z
1/2-x,1/2+y,-z
1/2-x,1/2-y,1/2-z
1/2+x,1/2+y,1/2-z
1/2-x,1/2+y,z
1/2+x,1/2-y,z
loop_
_atom_site_type_symbol
_atom_site_label
_atom_site_fract_x
_atom_site_fract_y
_atom_site_fract_z
Si Si1 0.014751 0.922598 0.605274
Si Si2 0.673288 0.341943 0.900946
Si Si3 0.342240 0.829594 0.666860
Si Si4 0.508884 0.079393 0.644427
Si Si5 0.561309 0.286064 0.397722
Si Si6 0.591440 0.203226 0.854847
O O1 0.016101 0.925881 0.500000
O O2 0.098614 0.887927 0.630337
O O3 0.946920 0.866333 0.628299
O O4 0.000000 0.000000 0.638191
O O5 0.752172 0.351162 0.845757
O O6 0.645503 0.261151 0.899924
O O7 0.690627 0.361494 0.000000
O O8 0.405301 0.885332 0.628367
O O9 0.358811 0.755594 0.620158
O O10 0.365739 0.815719 0.765719
O O11 0.500000 0.080410 0.750000
O O12 0.440193 0.130028 0.607602
O O13 0.500000 0.000000 0.615959
O O14 0.542280 0.281197 0.500000
O O15 0.492556 0.244195 0.347433
#
# Coordination Sequence:
#
# PCOD9525237 Si02
#       6
#    16  16  16  16  16  16
#     4   8  15  29  48  67  89 124 164 197 239 295
#     4  10  19  31  49  71  97 127 162 206 248 287
#     4  10  18  29  48  73  98 124 159 205 246 283
#     4   8  15  29  49  71  95 125 157 189 235 294
#     4   9  16  28  48  70  94 124 159 198 238 288
#     4   9  17  30  49  70  94 127 161 191 231 290
#
# _framework density 19.190676
#
# number of rings (size 3 to 8) (size 9 to 14) (size 15 to 20)
#    0.000    3.000    0.000    4.000    0.000    0.000 
#    0.000    1.667    0.000   30.000    0.000    0.000 
#    0.000    0.000    0.000    0.000    0.000    8.667 
#
# Total GULP energy -267250.354652 kJ/mol
# GULP energy per Si atom -5567.715722 kJ/mol
# Density = 1.914700 g / cm^3
# Si number density = 19.190676 Si / 1000 Ang^3
#
#
#
# Elastic Constant Matrix: (Units=GPa)
#
#
# Indices 1 2 3 4 5 6 
#
# 1 75.2893 49.3560 8.9071 0.0000 0.0000 0.0000
# 2 49.3560 169.8650 10.7431 0.0000 0.0000 0.0000
# 3 8.9071 10.7431 42.1113 0.0000 0.0000 0.0000
# 4 0.0000 0.0000 0.0000 14.4060 0.0000 0.0000
# 5 0.0000 0.0000 0.0000 0.0000 15.2185 0.0000
# 6 0.0000 0.0000 0.0000 0.0000 0.0000 15.2434
#
#
#
# Elastic Compliance Matrix: (Units=1/GPa)
#
#
# Indices 1 2 3 4 5 6 
#
# 1 0.016628 -0.004685 -0.002322 0.000000 0.000000 0.000000
# 2 -0.004685 0.007303 -0.000872 0.000000 0.000000 0.000000
# 3 -0.002322 -0.000872 0.024460 0.000000 0.000000 0.000000
# 4 0.000000 0.000000 0.000000 0.069415 0.000000 0.000000
# 5 0.000000 0.000000 0.000000 0.000000 0.065710 0.000000
# 6 0.000000 0.000000 0.000000 0.000000 0.000000 0.065602
#
#
# Mechanical properties :
#
#
# Convention : Reuss Voigt Hill
#
# Bulk Modulus (GPa) = 30.64308 47.25311 38.94809
# Shear Modulus (GPa) = 18.13211 23.52421 20.82816
#
# Velocity S-wave (km/s) = 3.07716 3.50496 3.29800
# Velocity P-wave (km/s) = 5.35047 6.40750 5.90270
#
# Compressibility (1/GPa) = 0.03263380
#
# Stress axis : x y z
#
# Youngs Moduli (GPa) = 60.14051 136.92385 40.88271
#
# Poissons Ratio (x) = 0.64142 0.09493
# Poissons Ratio (y) = 0.28173 0.03566
# Poissons Ratio (z) = 0.13964 0.11944
#
# Static dielectric constant tensor:
#      x y z
#    x 1.664600 0.000000 0.000000 
#    y 0.000000 1.698600 0.000000 
#    z 0.000000 0.000000 1.714330 
# 
# From -- ./inp_files/31818.got.cif
#   From: 2010.05.17/outbox.cif.g08.bks.cpg/sg72_16_cif.got.tgz:31818.got - 2010.06.03 17:03:01.
