data_PCOD9525891
_publ_section_title
;
Structure prediction by ZEFSAII (Michael W. Deem and Ramdas Pophale) SiO2 
 PCOD9525891
Probable space group: I B A M
;
_chemical_formula_sum "Si O2"
_cell_formula_units_Z 80
_cell_length_a 11.646307
_cell_length_b 16.439007
_cell_length_c 19.855262
_cell_angle_alpha 90.000000
_cell_angle_beta 90.000000
_cell_angle_gamma 90.000000
_cell_volume 3801.363817
_symmetry_space_group_name_H-M "I B A M"
_symmetry_group_IT_number 72
_symmetry_cell_setting 'orthorhombic'
loop_
_space_group_symop_operation_xyz
x,y,z
-x,-y,z
x,-y,1/2-z
-x,y,1/2-z
-x,-y,-z
x,y,-z
-x,y,1/2+z
x,-y,1/2+z
1/2+x,1/2+y,1/2+z
1/2-x,1/2-y,1/2+z
1/2+x,1/2-y,-z
1/2-x,1/2+y,-z
1/2-x,1/2-y,1/2-z
1/2+x,1/2+y,1/2-z
1/2-x,1/2+y,z
1/2+x,1/2-y,z
loop_
_atom_site_type_symbol
_atom_site_label
_atom_site_fract_x
_atom_site_fract_y
_atom_site_fract_z
Si Si1 0.810549 0.090690 0.238746
Si Si2 0.524142 0.904958 0.922929
Si Si3 0.645252 0.243524 0.076373
Si Si4 0.837826 0.697102 0.321663
Si Si5 0.492604 0.346010 0.839928
O O1 0.714405 0.157672 0.254513
O O2 0.881272 0.096601 0.168823
O O3 0.907025 0.112719 0.295792
O O4 0.767718 0.000000 0.250000
O O5 0.414828 0.844529 0.915578
O O6 0.613297 0.875231 0.867470
O O7 0.500000 0.000000 0.914832
O O8 0.565683 0.892043 0.000000
O O9 0.742777 0.260157 0.131071
O O10 0.548713 0.313089 0.091695
O O11 0.687649 0.250234 0.000000
O O12 0.937246 0.762596 0.310580
#
# Coordination Sequence:
#
# PCOD9525891 Si02
#       5
#    16  16  16  16  16
#     4  10  20  35  54  75 102 136 172 213 259 303
#     4   9  18  33  51  75 108 138 167 211 261 303
#     4   9  18  32  52  77 103 135 171 206 251 307
#     4  10  19  32  54  77 101 135 175 214 251 302
#     4   9  18  33  52  73 100 133 168 207 252 304
#
# _framework density 21.045079000000001
#
# number of rings (size 3 to 8) (size 9 to 14) (size 15 to 20)
#    0.000    2.600    0.000    2.400    0.000    2.400 
#    0.000    4.000    0.000   10.800    0.000    0.000 
#    0.000    0.000    0.000    0.000    0.000    0.000 
#
# Total GULP energy -222907.608253 kJ/mol
# GULP energy per Si atom -5572.690206 kJ/mol
# Density = 2.099718 g / cm^3
# Si number density = 21.045079 Si / 1000 Ang^3
#
#
#
# Elastic Constant Matrix: (Units=GPa)
#
#
# Indices 1 2 3 4 5 6 
#
# 1 39.5112 8.9258 30.8182 0.0000 0.0000 0.0000
# 2 8.9258 92.8965 32.4427 0.0000 0.0000 0.0000
# 3 30.8182 32.4427 83.8442 0.0000 0.0000 0.0000
# 4 0.0000 0.0000 0.0000 30.0639 0.0000 0.0000
# 5 0.0000 0.0000 0.0000 0.0000 21.8684 0.0000
# 6 0.0000 0.0000 0.0000 0.0000 0.0000 23.7772
#
#
#
# Elastic Compliance Matrix: (Units=1/GPa)
#
#
# Indices 1 2 3 4 5 6 
#
# 1 0.035623 0.001330 -0.013608 0.000000 0.000000 0.000000
# 2 0.001330 0.012496 -0.005324 0.000000 0.000000 0.000000
# 3 -0.013608 -0.005324 0.018989 0.000000 0.000000 0.000000
# 4 0.000000 0.000000 0.000000 0.033263 0.000000 0.000000
# 5 0.000000 0.000000 0.000000 0.000000 0.045728 0.000000
# 6 0.000000 0.000000 0.000000 0.000000 0.000000 0.042057
#
#
# Mechanical properties :
#
#
# Convention : Reuss Voigt Hill
#
# Bulk Modulus (GPa) = 31.34501 40.06947 35.70724
# Shear Modulus (GPa) = 21.36790 24.74625 23.05707
#
# Velocity S-wave (km/s) = 3.18990 3.43281 3.31358
# Velocity P-wave (km/s) = 5.33796 5.89860 5.62527
#
# Compressibility (1/GPa) = 0.03190300
#
# Stress axis : x y z
#
# Youngs Moduli (GPa) = 28.07156 80.02406 52.66229
#
# Poissons Ratio (x) = -0.10641 0.71665
# Poissons Ratio (y) = -0.03733 0.28038
# Poissons Ratio (z) = 0.38201 0.42605
#
# Static dielectric constant tensor:
#      x y z
#    x 1.813890 0.000000 0.000000 
#    y 0.000000 1.771310 0.000000 
#    z 0.000000 0.000000 1.775940 
# 
# From -- ./inp_files/43080.got.cif
#   From: 2010.05.17/outbox.cif.g08.bks.cpg/sg72_22_cif.got.tgz:43080.got - 2010.06.03 17:03:01.
