data_PCOD9525700
_publ_section_title
;
Structure prediction by ZEFSAII (Michael W. Deem and Ramdas Pophale) SiO2 
 PCOD9525700
Probable space group: I B A M
;
_chemical_formula_sum "Si O2"
_cell_formula_units_Z 96
_cell_length_a 25.081568
_cell_length_b 25.648268
_cell_length_c 9.301045
_cell_angle_alpha 90.000000
_cell_angle_beta 90.000000
_cell_angle_gamma 90.000000
_cell_volume 5983.350882
_symmetry_space_group_name_H-M "I B A M"
_symmetry_group_IT_number 72
_symmetry_cell_setting 'orthorhombic'
loop_
_space_group_symop_operation_xyz
x,y,z
-x,-y,z
x,-y,1/2-z
-x,y,1/2-z
-x,-y,-z
x,y,-z
-x,y,1/2+z
x,-y,1/2+z
1/2+x,1/2+y,1/2+z
1/2-x,1/2-y,1/2+z
1/2+x,1/2-y,-z
1/2-x,1/2+y,-z
1/2-x,1/2-y,1/2-z
1/2+x,1/2+y,1/2-z
1/2-x,1/2+y,z
1/2+x,1/2-y,z
loop_
_atom_site_type_symbol
_atom_site_label
_atom_site_fract_x
_atom_site_fract_y
_atom_site_fract_z
Si Si1 0.164697 0.249118 0.172306
Si Si2 0.948958 0.882474 0.662416
Si Si3 0.123144 0.949457 0.336292
Si Si4 0.751463 0.448962 0.835828
Si Si5 0.052715 0.242597 0.334774
Si Si6 0.743096 0.170038 0.326411
O O1 0.107397 0.251808 0.248443
O O2 0.198286 0.195504 0.199225
O O3 0.201719 0.294052 0.240783
O O4 0.159480 0.254568 0.000000
O O5 0.947624 0.902536 0.500000
O O6 0.897635 0.899977 0.750341
O O7 0.952252 0.820176 0.657037
O O8 0.000000 0.902330 0.750000
O O9 0.104100 0.948720 0.500000
O O10 0.187018 0.951043 0.338284
O O11 0.103744 0.000000 0.250000
O O12 0.770154 0.500000 0.750000
O O13 0.763127 0.390368 0.782205
O O14 0.770464 0.452697 0.000000
O O15 0.055057 0.261942 0.500000
O O16 0.000000 0.261687 0.250000
O O17 0.734651 0.173352 0.500000
#
# Coordination Sequence:
#
# PCOD9525700 Si02
#       6
#    16  16  16  16  16  16
#     4  10  19  31  49  72  97 126 161 198 237 283
#     4  10  20  32  45  61  80 107 144 185 229 273
#     4  10  19  31  45  61  82 109 144 186 230 273
#     4   9  18  31  47  66  90 120 152 188 229 275
#     4  10  20  33  49  68  92 121 153 190 232 280
#     4   9  18  32  48  69  98 129 159 194 239 285
#
# _framework density 16.044521
#
# number of rings (size 3 to 8) (size 9 to 14) (size 15 to 20)
#    0.000    2.333    0.000    3.000    0.000    5.667 
#    0.000    1.667    0.000    0.000    0.000    0.000 
#    0.000    0.667    0.000    7.000    0.000    3.833 
#
# Total GULP energy -267463.208607 kJ/mol
# GULP energy per Si atom -5572.150179 kJ/mol
# Density = 1.600800 g / cm^3
# Si number density = 16.044521 Si / 1000 Ang^3
#
#
#
# Elastic Constant Matrix: (Units=GPa)
#
#
# Indices 1 2 3 4 5 6 
#
# 1 79.4514 17.5144 49.2324 0.0000 0.0000 0.0000
# 2 17.5144 82.8530 37.7911 0.0000 0.0000 0.0000
# 3 49.2324 37.7911 108.8426 0.0000 0.0000 0.0000
# 4 0.0000 0.0000 0.0000 22.1753 0.0000 0.0000
# 5 0.0000 0.0000 0.0000 0.0000 18.1441 0.0000
# 6 0.0000 0.0000 0.0000 0.0000 0.0000 21.4260
#
#
#
# Elastic Compliance Matrix: (Units=1/GPa)
#
#
# Indices 1 2 3 4 5 6 
#
# 1 0.017489 -0.000105 -0.007874 0.000000 0.000000 0.000000
# 2 -0.000105 0.014341 -0.004932 0.000000 0.000000 0.000000
# 3 -0.007874 -0.004932 0.014462 0.000000 0.000000 0.000000
# 4 0.000000 0.000000 0.000000 0.045095 0.000000 0.000000
# 5 0.000000 0.000000 0.000000 0.000000 0.055114 0.000000
# 6 0.000000 0.000000 0.000000 0.000000 0.000000 0.046672
#
#
# Mechanical properties :
#
#
# Convention : Reuss Voigt Hill
#
# Bulk Modulus (GPa) = 48.85388 53.35810 51.10599
# Shear Modulus (GPa) = 22.14166 23.45637 22.79902
#
# Velocity S-wave (km/s) = 3.71888 3.82770 3.77368
# Velocity P-wave (km/s) = 6.99680 7.27073 7.13508
#
# Compressibility (1/GPa) = 0.02046920
#
# Stress axis : x y z
#
# Youngs Moduli (GPa) = 57.17979 69.72853 69.14904
#
# Poissons Ratio (x) = 0.00735 0.54448
# Poissons Ratio (y) = 0.00603 0.34102
# Poissons Ratio (z) = 0.45023 0.34388
#
# Static dielectric constant tensor:
#      x y z
#    x 1.530190 0.000000 0.000000 
#    y 0.000000 1.550670 0.000000 
#    z 0.000000 0.000000 1.553210 
# 
# From -- ./inp_files/5934.got.cif
#   From: 2010.05.17/outbox.cif.g08.bks.cpg/sg72_3_cif.got.tgz:5934.got - 2010.06.03 17:03:01.
