data_PCOD9525130
_publ_section_title
;
Structure prediction by ZEFSAII (Michael W. Deem and Ramdas Pophale) SiO2 
 PCOD9525130
Probable space group: I B A M
;
_chemical_formula_sum "Si O2"
_cell_formula_units_Z 88
_cell_length_a 13.064418
_cell_length_b 20.580196
_cell_length_c 14.982101
_cell_angle_alpha 90.000000
_cell_angle_beta 90.000000
_cell_angle_gamma 90.000000
_cell_volume 4028.211773
_symmetry_space_group_name_H-M "I B A M"
_symmetry_group_IT_number 72
_symmetry_cell_setting 'orthorhombic'
loop_
_space_group_symop_operation_xyz
x,y,z
-x,-y,z
x,-y,1/2-z
-x,y,1/2-z
-x,-y,-z
x,y,-z
-x,y,1/2+z
x,-y,1/2+z
1/2+x,1/2+y,1/2+z
1/2-x,1/2-y,1/2+z
1/2+x,1/2-y,-z
1/2-x,1/2+y,-z
1/2-x,1/2-y,1/2-z
1/2+x,1/2+y,1/2-z
1/2-x,1/2+y,z
1/2+x,1/2-y,z
loop_
_atom_site_type_symbol
_atom_site_label
_atom_site_fract_x
_atom_site_fract_y
_atom_site_fract_z
Si Si1 0.896114 0.898946 0.500000
Si Si2 0.079219 0.191639 0.815387
Si Si3 0.628138 0.949966 0.326395
Si Si4 0.716078 0.658239 0.162460
Si Si5 0.377453 0.619805 0.000000
Si Si6 0.720290 0.008189 0.500000
Si Si7 0.937228 0.321314 0.603083
O O1 0.868724 0.857100 0.587824
O O2 0.014149 0.918801 0.500000
O O3 0.814609 0.956939 0.500000
O O4 0.173876 0.196154 0.747127
O O5 0.114509 0.160138 0.908123
O O6 0.024190 0.259047 0.843855
O O7 0.000000 0.153733 0.750000
O O8 0.732344 0.909520 0.303809
O O9 0.549345 0.891857 0.351563
O O10 0.604138 0.000000 0.250000
O O11 0.652898 0.990947 0.414568
O O12 0.813437 0.688272 0.110622
O O13 0.275435 0.577168 0.000000
O O14 0.968430 0.322286 0.500000
#
# Coordination Sequence:
#
# PCOD9525130 Si02
#       7
#     8  16  16  16   8   8  16
#     4  10  17  35  52  75 113 161 183 226 275 319
#     4  12  23  35  54  81 114 149 191 234 282 340
#     4   9  17  33  57  79 110 140 186 230 278 330
#     4   9  18  34  55  76 108 148 187 229 277 326
#     4  12  23  32  52  78 122 150 190 226 274 337
#     4  10  19  33  52  79 113 155 190 224 270 333
#     4  10  19  37  59  79 107 150 185 234 291 332
#
# _framework density 21.845922000000002
#
# number of rings (size 3 to 8) (size 9 to 14) (size 15 to 20)
#    1.091    0.727    4.545    1.909    0.000    0.000 
#    0.000    0.000    0.000    1.636    0.000    1.273 
#    0.000    0.000    0.000    0.000    0.000    0.000 
#
# Total GULP energy -245136.834954 kJ/mol
# GULP energy per Si atom -5571.291703 kJ/mol
# Density = 2.179620 g / cm^3
# Si number density = 21.845922 Si / 1000 Ang^3
#
#
#
# Elastic Constant Matrix: (Units=GPa)
#
#
# Indices 1 2 3 4 5 6 
#
# 1 27.7765 7.1652 13.2174 0.0000 0.0000 0.0000
# 2 7.1652 102.5646 75.5265 -0.0001 -0.0001 0.0000
# 3 13.2174 75.5265 179.0457 -0.0001 -0.0002 0.0000
# 4 0.0000 -0.0001 -0.0001 38.3778 -0.0002 0.0000
# 5 0.0000 -0.0001 -0.0002 -0.0002 -3.4081 0.0000
# 6 0.0000 0.0000 0.0000 0.0000 0.0000 22.6205
#
#
#
# Elastic Compliance Matrix: (Units=1/GPa)
#
#
# Indices 1 2 3 4 5 6 
#
# 1 0.037362 -0.000840 -0.002404 0.000000 0.000000 0.000000
# 2 -0.000840 0.014162 -0.005912 0.000000 0.000000 0.000000
# 3 -0.002404 -0.005912 0.008256 0.000000 0.000000 0.000000
# 4 0.000000 0.000000 0.000000 0.026057 -0.000001 0.000000
# 5 0.000000 0.000000 0.000000 -0.000001 -0.293423 0.000000
# 6 0.000000 0.000000 0.000000 0.000000 0.000000 0.044208
#
#
# Mechanical properties :
#
#
# Convention : Reuss Voigt Hill
#
# Bulk Modulus (GPa) = 24.11429 55.68946 39.90188
# Shear Modulus (GPa) = -38.09735 25.74989 -6.17373
#
# Velocity S-wave (km/s) = -4.18055 3.43695 -1.68290
# Velocity P-wave (km/s) = 3.49862 6.42631 3.81164
#
# Compressibility (1/GPa) = 0.04146918
#
# Stress axis : x y z
#
# Youngs Moduli (GPa) = 26.76502 70.61106 121.11752
#
# Poissons Ratio (x) = 0.05932 0.29114
# Poissons Ratio (y) = 0.02248 0.71604
# Poissons Ratio (z) = 0.06434 0.41745
#
# Static dielectric constant tensor:
#      x y z
#    x 1.827630 0.000000 0.000000 
#    y 0.000000 1.856790 0.000000 
#    z 0.000000 0.000000 1.797350 
# 
# From -- ./inp_files/23345.got.cif
#   From: 2010.05.17/outbox.cif.g08.bks.cpg/sg72_12_cif.got.tgz:23345.got - 2010.06.03 17:03:01.
