data_PCOD9525723
_publ_section_title
;
Structure prediction by ZEFSAII (Michael W. Deem and Ramdas Pophale) SiO2 
 PCOD9525723
Probable space group: I B A M
;
_chemical_formula_sum "Si O2"
_cell_formula_units_Z 96
_cell_length_a 27.493005
_cell_length_b 23.950685
_cell_length_c 8.466091
_cell_angle_alpha 90.000000
_cell_angle_beta 90.000000
_cell_angle_gamma 90.000000
_cell_volume 5574.720298
_symmetry_space_group_name_H-M "I B A M"
_symmetry_group_IT_number 72
_symmetry_cell_setting 'orthorhombic'
loop_
_space_group_symop_operation_xyz
x,y,z
-x,-y,z
x,-y,1/2-z
-x,y,1/2-z
-x,-y,-z
x,y,-z
-x,y,1/2+z
x,-y,1/2+z
1/2+x,1/2+y,1/2+z
1/2-x,1/2-y,1/2+z
1/2+x,1/2-y,-z
1/2-x,1/2+y,-z
1/2-x,1/2-y,1/2-z
1/2+x,1/2+y,1/2-z
1/2-x,1/2+y,z
1/2+x,1/2-y,z
loop_
_atom_site_type_symbol
_atom_site_label
_atom_site_fract_x
_atom_site_fract_y
_atom_site_fract_z
Si Si1 0.446119 0.937568 0.811510
Si Si2 0.447916 0.562936 0.313301
Si Si3 0.052983 0.232860 0.684501
Si Si4 0.695530 0.256200 0.809639
Si Si5 0.610545 0.829862 0.308948
Si Si6 0.627190 0.351392 0.182334
O O1 0.500000 0.920217 0.750000
O O2 0.402716 0.894033 0.771790
O O3 0.436694 0.000000 0.750000
O O4 0.449626 0.939547 0.000000
O O5 0.444181 0.500000 0.250000
O O6 0.500000 0.586257 0.250000
O O7 0.451823 0.562225 0.500000
O O8 0.399754 0.597045 0.264903
O O9 0.057959 0.217074 0.500000
O O10 0.070081 0.295560 0.713804
O O11 0.086878 0.196452 0.797496
O O12 0.000000 0.225399 0.750000
O O13 0.750000 0.250000 0.750000
O O14 0.660762 0.203090 0.766261
O O15 0.673229 0.316075 0.752991
O O16 0.694891 0.258598 0.000000
O O17 0.605002 0.823472 0.500000
O O18 0.635710 0.365975 0.000000
#
# Coordination Sequence:
#
# PCOD9525723 Si02
#       6
#    16  16  16  16  16  16
#     4  10  19  31  48  70 100 134 168 200 236 281
#     4  11  21  34  52  76 106 141 176 209 245 293
#     4  11  20  29  44  68  97 129 162 199 243 295
#     4   9  19  35  55  76  99 125 160 207 259 306
#     4   9  19  34  49  69  97 129 162 202 247 293
#     4  10  20  35  51  71 100 132 166 207 250 296
#
# _framework density 17.220594999999999
#
# number of rings (size 3 to 8) (size 9 to 14) (size 15 to 20)
#    0.000    2.000    0.000    7.000    0.000    6.000 
#    0.000    0.000    0.000    1.000    0.000    4.667 
#    0.000    0.000    0.000    0.000    0.000    0.000 
#
# Total GULP energy -267254.819913 kJ/mol
# GULP energy per Si atom -5567.808748 kJ/mol
# Density = 1.718140 g / cm^3
# Si number density = 17.220595 Si / 1000 Ang^3
#
#
#
# Elastic Constant Matrix: (Units=GPa)
#
#
# Indices 1 2 3 4 5 6 
#
# 1 95.3773 47.9323 14.1447 0.0000 0.0000 0.0000
# 2 47.9323 98.7501 24.7212 0.0000 0.0000 0.0000
# 3 14.1447 24.7212 48.5559 0.0000 0.0000 0.0000
# 4 0.0000 0.0000 0.0000 19.2181 0.0000 0.0000
# 5 0.0000 0.0000 0.0000 0.0000 24.5661 0.0000
# 6 0.0000 0.0000 0.0000 0.0000 0.0000 18.9618
#
#
#
# Elastic Compliance Matrix: (Units=1/GPa)
#
#
# Indices 1 2 3 4 5 6 
#
# 1 0.013888 -0.006565 -0.000703 0.000000 0.000000 0.000000
# 2 -0.006565 0.014709 -0.005576 0.000000 0.000000 0.000000
# 3 -0.000703 -0.005576 0.023639 0.000000 0.000000 0.000000
# 4 0.000000 0.000000 0.000000 0.052034 0.000000 0.000000
# 5 0.000000 0.000000 0.000000 0.000000 0.040707 0.000000
# 6 0.000000 0.000000 0.000000 0.000000 0.000000 0.052738
#
#
# Mechanical properties :
#
#
# Convention : Reuss Voigt Hill
#
# Bulk Modulus (GPa) = 37.66948 46.25328 41.96138
# Shear Modulus (GPa) = 21.52819 22.94153 22.23486
#
# Velocity S-wave (km/s) = 3.53957 3.65391 3.59720
# Velocity P-wave (km/s) = 6.21505 6.68723 6.45546
#
# Compressibility (1/GPa) = 0.02654669
#
# Stress axis : x y z
#
# Youngs Moduli (GPa) = 72.00288 67.98434 42.30329
#
# Poissons Ratio (x) = 0.44633 0.02975
# Poissons Ratio (y) = 0.47271 0.23590
# Poissons Ratio (z) = 0.05063 0.37911
#
# Static dielectric constant tensor:
#      x y z
#    x 1.574860 0.000000 0.000000 
#    y 0.000000 1.642870 0.000000 
#    z 0.000000 0.000000 1.602060 
# 
# From -- ./inp_files/8470.got.cif
#   From: 2010.05.17/outbox.cif.g08.bks.cpg/sg72_5_cif.got.tgz:8470.got - 2010.06.03 17:03:01.
