data_PCOD9525340
_publ_section_title
;
Structure prediction by ZEFSAII (Michael W. Deem and Ramdas Pophale) SiO2 
 PCOD9525340
Probable space group: I B A M
;
_chemical_formula_sum "Si O2"
_cell_formula_units_Z 116
_cell_length_a 22.264301
_cell_length_b 14.705399
_cell_length_c 19.059199
_cell_angle_alpha 90.000000
_cell_angle_beta 90.000000
_cell_angle_gamma 90.000000
_cell_volume 6240.085238
_symmetry_space_group_name_H-M "I B A M"
_symmetry_group_IT_number 72
_symmetry_cell_setting 'orthorhombic'
loop_
_space_group_symop_operation_xyz
x,y,z
-x,-y,z
x,-y,1/2-z
-x,y,1/2-z
-x,-y,-z
x,y,-z
-x,y,1/2+z
x,-y,1/2+z
1/2+x,1/2+y,1/2+z
1/2-x,1/2-y,1/2+z
1/2+x,1/2-y,-z
1/2-x,1/2+y,-z
1/2-x,1/2-y,1/2-z
1/2+x,1/2+y,1/2-z
1/2-x,1/2+y,z
1/2+x,1/2-y,z
loop_
_atom_site_type_symbol
_atom_site_label
_atom_site_fract_x
_atom_site_fract_y
_atom_site_fract_z
Si Si1 0.473279 0.813888 0.328005
Si Si2 0.824760 0.213354 0.642148
Si Si3 0.000000 0.000000 0.250000
Si Si4 0.261812 0.376886 0.188294
Si Si5 0.608357 0.021181 0.332835
Si Si6 0.734638 0.929922 0.149691
Si Si7 0.917487 0.339956 0.579761
Si Si8 0.896688 0.849434 0.718397
O O1 0.500000 0.813415 0.250000
O O2 0.448265 0.914179 0.340257
O O3 0.523679 0.796067 0.385370
O O4 0.423027 0.737114 0.322039
O O5 0.775972 0.286556 0.671814
O O6 0.784756 0.130732 0.612665
O O7 0.864350 0.267415 0.586895
O O8 0.871390 0.179864 0.703622
O O9 0.949558 0.073550 0.219826
O O10 0.246893 0.402913 0.268862
O O11 0.242402 0.462373 0.141941
O O12 0.333651 0.374518 0.182538
O O13 0.664128 0.080421 0.361950
O O14 0.618678 0.000000 0.250000
O O15 0.599676 0.926899 0.372810
O O16 0.927596 0.367286 0.500000
#
# Coordination Sequence:
#
# PCOD9525340 Si02
#       8
#    16  16   4  16  16  16  16  16
#     4  12  22  36  58  87 118 159 210 246 301 371
#     4  11  19  37  57  83 123 158 203 251 311 375
#     4  12  20  32  48  88 144 156 196 270 322 368
#     4  10  18  30  55  91 124 147 198 263 310 353
#     4  12  20  36  60  91 123 159 204 253 309 366
#     4  10  18  30  55  91 118 154 193 248 312 361
#     4  12  26  41  59  86 125 165 204 255 312 377
#     4  11  20  33  56  92 122 162 201 264 312 363
#
# _framework density 18.589490000000001
#
# number of rings (size 3 to 8) (size 9 to 14) (size 15 to 20)
#    0.000    0.828    6.207    5.379    0.000    1.103 
#    0.000    0.690    0.000    2.483    0.000   12.552 
#    0.000    0.000    0.000    0.000    0.000    0.000 
#
# Total GULP energy -323117.102461 kJ/mol
# GULP energy per Si atom -5570.984525 kJ/mol
# Density = 1.854718 g / cm^3
# Si number density = 18.589490 Si / 1000 Ang^3
#
#
#
# Elastic Constant Matrix: (Units=GPa)
#
#
# Indices 1 2 3 4 5 6 
#
# 1 92.1061 6.7619 6.8873 0.0000 0.0000 0.0000
# 2 6.7619 70.2782 0.7221 0.0000 0.0000 0.0000
# 3 6.8873 0.7221 52.6350 0.0000 0.0000 0.0000
# 4 0.0000 0.0000 0.0000 8.2831 0.0000 0.0000
# 5 0.0000 0.0000 0.0000 0.0000 3.7360 0.0000
# 6 0.0000 0.0000 0.0000 0.0000 0.0000 77.9066
#
#
#
# Elastic Compliance Matrix: (Units=1/GPa)
#
#
# Indices 1 2 3 4 5 6 
#
# 1 0.011041 -0.001048 -0.001430 0.000000 0.000000 0.000000
# 2 -0.001048 0.014331 -0.000060 0.000000 0.000000 0.000000
# 3 -0.001430 -0.000060 0.019187 0.000000 0.000000 0.000000
# 4 0.000000 0.000000 0.000000 0.120727 0.000000 0.000000
# 5 0.000000 0.000000 0.000000 0.000000 0.267669 0.000000
# 6 0.000000 0.000000 0.000000 0.000000 0.000000 0.012836
#
#
# Mechanical properties :
#
#
# Convention : Reuss Voigt Hill
#
# Bulk Modulus (GPa) = 25.32716 27.08464 26.20590
# Shear Modulus (GPa) = 10.77526 31.36167 21.06846
#
# Velocity S-wave (km/s) = 2.41019 4.11185 3.37018
# Velocity P-wave (km/s) = 4.62595 6.09463 5.41036
#
# Compressibility (1/GPa) = 0.03948331
#
# Stress axis : x y z
#
# Youngs Moduli (GPa) = 90.57223 69.78083 52.11932
#
# Poissons Ratio (x) = 0.07310 0.07455
# Poissons Ratio (y) = 0.09489 0.00310
# Poissons Ratio (z) = 0.12955 0.00415
#
# Static dielectric constant tensor:
#      x y z
#    x 1.688310 0.000000 0.000000 
#    y 0.000000 1.648230 0.000000 
#    z 0.000000 0.000000 1.662530 
# 
# From -- ./inp_files/33430.got.cif
#   From: 2010.05.17/outbox.cif.g08.bks.cpg/sg72_17_cif.got.tgz:33430.got - 2010.06.03 17:03:01.
