data_PCOD9525958
_publ_section_title
;
Structure prediction by ZEFSAII (Michael W. Deem and Ramdas Pophale) SiO2 
 PCOD9525958
Probable space group: I B A M
;
_chemical_formula_sum "Si O2"
_cell_formula_units_Z 112
_cell_length_a 11.635241
_cell_length_b 31.540981
_cell_length_c 16.475955
_cell_angle_alpha 90.000000
_cell_angle_beta 90.000000
_cell_angle_gamma 90.000000
_cell_volume 6046.459902
_symmetry_space_group_name_H-M "I B A M"
_symmetry_group_IT_number 72
_symmetry_cell_setting 'orthorhombic'
loop_
_space_group_symop_operation_xyz
x,y,z
-x,-y,z
x,-y,1/2-z
-x,y,1/2-z
-x,-y,-z
x,y,-z
-x,y,1/2+z
x,-y,1/2+z
1/2+x,1/2+y,1/2+z
1/2-x,1/2-y,1/2+z
1/2+x,1/2-y,-z
1/2-x,1/2+y,-z
1/2-x,1/2-y,1/2-z
1/2+x,1/2+y,1/2-z
1/2-x,1/2+y,z
1/2+x,1/2-y,z
loop_
_atom_site_type_symbol
_atom_site_label
_atom_site_fract_x
_atom_site_fract_y
_atom_site_fract_z
Si Si1 0.392378 0.169176 0.902215
Si Si2 0.488144 0.451513 0.595744
Si Si3 0.647846 0.380241 0.675373
Si Si4 0.343802 0.833996 0.098068
Si Si5 0.981582 0.818292 0.908573
Si Si6 0.193867 0.111299 0.864948
Si Si7 0.785291 0.240966 0.598764
O O1 0.523794 0.167708 0.874479
O O2 0.323076 0.126367 0.880276
O O3 0.316031 0.209535 0.872344
O O4 0.395368 0.172690 0.000000
O O5 0.500000 0.500000 0.622473
O O6 0.514652 0.448956 0.500000
O O7 0.575571 0.420169 0.642088
O O8 0.359170 0.433456 0.608695
O O9 0.770415 0.372585 0.633413
O O10 0.573373 0.339132 0.650010
O O11 0.664651 0.383423 0.770636
O O12 0.283995 0.789656 0.123437
O O13 0.341528 0.836032 0.000000
O O14 0.882346 0.854059 0.912795
O O15 0.910934 0.777748 0.879429
O O16 0.028721 0.811262 0.000000
O O17 0.782665 0.239702 0.500000
#
# Coordination Sequence:
#
# PCOD9525958 Si02
#       7
#    16  16  16  16  16  16  16
#     4   9  18  34  53  71  99 141 190 227 261 310
#     4  10  20  36  61  89 109 128 164 212 259 313
#     4  11  21  31  50  77 112 142 166 212 268 323
#     4  10  20  32  50  74 101 139 185 230 267 301
#     4   9  16  30  51  71  96 131 177 221 259 306
#     4  10  19  33  52  74 107 142 171 203 259 322
#     4   8  16  29  49  73  94 128 184 237 266 295
#
# _framework density 18.523235
#
# number of rings (size 3 to 8) (size 9 to 14) (size 15 to 20)
#    0.000    2.429    0.000    6.000    2.000    1.714 
#    0.000    2.857    6.286    0.857    0.000    6.000 
#    0.000    0.000    0.000    0.000    0.000    0.000 
#
# Total GULP energy -312294.491260 kJ/mol
# GULP energy per Si atom -5576.687344 kJ/mol
# Density = 1.848108 g / cm^3
# Si number density = 18.523235 Si / 1000 Ang^3
#
#
#
# Elastic Constant Matrix: (Units=GPa)
#
#
# Indices 1 2 3 4 5 6 
#
# 1 112.6421 50.5306 17.3794 0.0000 0.0000 0.0000
# 2 50.5306 98.7767 11.3219 0.0000 0.0000 0.0000
# 3 17.3794 11.3219 48.9729 0.0000 0.0000 0.0000
# 4 0.0000 0.0000 0.0000 -19.6655 0.0001 0.0000
# 5 0.0000 0.0000 0.0000 0.0001 15.9333 0.0000
# 6 0.0000 0.0000 0.0000 0.0000 0.0000 18.3248
#
#
#
# Elastic Compliance Matrix: (Units=1/GPa)
#
#
# Indices 1 2 3 4 5 6 
#
# 1 0.011908 -0.005760 -0.002894 0.000000 0.000000 0.000000
# 2 -0.005760 0.013186 -0.001004 0.000000 0.000000 0.000000
# 3 -0.002894 -0.001004 0.021679 0.000000 0.000000 0.000000
# 4 0.000000 0.000000 0.000000 -0.050850 0.000000 0.000000
# 5 0.000000 0.000000 0.000000 0.000000 0.062762 0.000000
# 6 0.000000 0.000000 0.000000 0.000000 0.000000 0.054571
#
#
# Mechanical properties :
#
#
# Convention : Reuss Voigt Hill
#
# Bulk Modulus (GPa) = 36.42275 46.53951 41.48113
# Shear Modulus (GPa) = 35.27994 14.99583 25.13788
#
# Velocity S-wave (km/s) = 4.36894 2.84838 3.68788
# Velocity P-wave (km/s) = 6.71983 5.99976 6.36998
#
# Compressibility (1/GPa) = 0.02745537
#
# Stress axis : x y z
#
# Youngs Moduli (GPa) = 83.97612 75.84045 46.12810
#
# Poissons Ratio (x) = 0.43684 0.13351
# Poissons Ratio (y) = 0.48371 0.04632
# Poissons Ratio (z) = 0.24305 0.07616
#
# Static dielectric constant tensor:
#      x y z
#    x 1.695980 0.000000 0.000000 
#    y 0.000000 1.644020 0.000000 
#    z 0.000000 0.000000 1.651650 
# 
# From -- ./inp_files/20702.got.cif
#   From: 2010.05.17/outbox.cif.g08.bks.cpg/sg72_11_cif.got.tgz:20702.got - 2010.06.03 17:03:01.
