data_PCOD9525904
_publ_section_title
;
Structure prediction by ZEFSAII (Michael W. Deem and Ramdas Pophale) SiO2 
 PCOD9525904
Probable space group: I B A M
;
_chemical_formula_sum "Si O2"
_cell_formula_units_Z 80
_cell_length_a 13.633438
_cell_length_b 12.742669
_cell_length_c 21.593128
_cell_angle_alpha 90.000000
_cell_angle_beta 90.000000
_cell_angle_gamma 90.000000
_cell_volume 3751.296128
_symmetry_space_group_name_H-M "I B A M"
_symmetry_group_IT_number 72
_symmetry_cell_setting 'orthorhombic'
loop_
_space_group_symop_operation_xyz
x,y,z
-x,-y,z
x,-y,1/2-z
-x,y,1/2-z
-x,-y,-z
x,y,-z
-x,y,1/2+z
x,-y,1/2+z
1/2+x,1/2+y,1/2+z
1/2-x,1/2-y,1/2+z
1/2+x,1/2-y,-z
1/2-x,1/2+y,-z
1/2-x,1/2-y,1/2-z
1/2+x,1/2+y,1/2-z
1/2-x,1/2+y,z
1/2+x,1/2-y,z
loop_
_atom_site_type_symbol
_atom_site_label
_atom_site_fract_x
_atom_site_fract_y
_atom_site_fract_z
Si Si1 0.180101 0.652278 0.930907
Si Si2 0.397029 0.627287 0.608871
Si Si3 0.103065 0.896538 0.568488
Si Si4 0.188343 0.401108 0.293828
Si Si5 0.615881 0.674499 0.243777
O O1 0.133819 0.766946 0.924645
O O2 0.297472 0.666700 0.928401
O O3 0.156759 0.591447 0.866366
O O4 0.157222 0.607853 0.000000
O O5 0.370450 0.518910 0.576269
O O6 0.515240 0.629674 0.614061
O O7 0.352818 0.627665 0.677191
O O8 0.059420 0.882179 0.500000
O O9 0.168443 0.500000 0.250000
O O10 0.305597 0.374484 0.291058
O O11 0.135869 0.298808 0.263995
O O12 0.500000 0.653761 0.250000
#
# Coordination Sequence:
#
# PCOD9525904 Si02
#       5
#    16  16  16  16  16
#     4  10  20  34  55  82 111 144 183 230 280 327
#     4  10  19  34  54  79 111 145 186 232 272 325
#     4  10  19  32  54  82 112 148 186 224 274 329
#     4  10  21  37  55  80 113 144 180 226 273 327
#     4  10  21  35  55  81 108 141 182 224 271 327
#
# _framework density 21.325963000000002
#
# number of rings (size 3 to 8) (size 9 to 14) (size 15 to 20)
#    0.000    2.000    0.000    4.800    0.000    2.400 
#    0.000    0.000    0.000    3.600    0.000   16.800 
#    0.000    0.000    0.000    0.000    0.000    0.000 
#
# Total GULP energy -223134.724588 kJ/mol
# GULP energy per Si atom -5578.368115 kJ/mol
# Density = 2.127742 g / cm^3
# Si number density = 21.325963 Si / 1000 Ang^3
#
#
#
# Elastic Constant Matrix: (Units=GPa)
#
#
# Indices 1 2 3 4 5 6 
#
# 1 35.2001 30.1864 -7.2071 0.0000 0.0000 0.0000
# 2 30.1864 79.5128 43.4612 0.0000 0.0000 0.0000
# 3 -7.2071 43.4612 156.6004 0.0000 0.0000 0.0000
# 4 0.0000 0.0000 0.0000 27.4188 0.0000 0.0000
# 5 0.0000 0.0000 0.0000 0.0000 24.1476 0.0000
# 6 0.0000 0.0000 0.0000 0.0000 0.0000 21.5422
#
#
#
# Elastic Compliance Matrix: (Units=1/GPa)
#
#
# Indices 1 2 3 4 5 6 
#
# 1 0.051257 -0.024459 0.009147 0.000000 0.000000 0.000000
# 2 -0.024459 0.026497 -0.008479 0.000000 0.000000 0.000000
# 3 0.009147 -0.008479 0.009160 0.000000 0.000000 0.000000
# 4 0.000000 0.000000 0.000000 0.036471 0.000000 0.000000
# 5 0.000000 0.000000 0.000000 0.000000 0.041412 0.000000
# 6 0.000000 0.000000 0.000000 0.000000 0.000000 0.046420
#
#
# Mechanical properties :
#
#
# Convention : Reuss Voigt Hill
#
# Bulk Modulus (GPa) = 25.42503 44.91048 35.16775
# Shear Modulus (GPa) = 18.38837 28.27992 23.33415
#
# Velocity S-wave (km/s) = 2.93960 3.64549 3.31141
# Velocity P-wave (km/s) = 4.84455 6.23091 5.58094
#
# Compressibility (1/GPa) = 0.03933132
#
# Stress axis : x y z
#
# Youngs Moduli (GPa) = 19.50950 37.74006 109.17120
#
# Poissons Ratio (x) = 0.92309 -0.99860
# Poissons Ratio (y) = 0.47718 0.92570
# Poissons Ratio (z) = -0.17845 0.32001
#
# Static dielectric constant tensor:
#      x y z
#    x 1.783630 0.000000 0.000000 
#    y 0.000000 1.744780 0.000000 
#    z 0.000000 0.000000 1.829650 
# 
# From -- ./inp_files/37840.got.cif
#   From: 2010.05.17/outbox.cif.g08.bks.cpg/sg72_19_cif.got.tgz:37840.got - 2010.06.03 17:03:01.
