data_PCOD9525850
_publ_section_title
;
Structure prediction by ZEFSAII (Michael W. Deem and Ramdas Pophale) SiO2 
 PCOD9525850
Probable space group: I B A M
;
_chemical_formula_sum "Si O2"
_cell_formula_units_Z 112
_cell_length_a 29.466436
_cell_length_b 13.291455
_cell_length_c 18.673462
_cell_angle_alpha 90.000000
_cell_angle_beta 90.000000
_cell_angle_gamma 90.000000
_cell_volume 7313.495156
_symmetry_space_group_name_H-M "I B A M"
_symmetry_group_IT_number 72
_symmetry_cell_setting 'orthorhombic'
loop_
_space_group_symop_operation_xyz
x,y,z
-x,-y,z
x,-y,1/2-z
-x,y,1/2-z
-x,-y,-z
x,y,-z
-x,y,1/2+z
x,-y,1/2+z
1/2+x,1/2+y,1/2+z
1/2-x,1/2-y,1/2+z
1/2+x,1/2-y,-z
1/2-x,1/2+y,-z
1/2-x,1/2-y,1/2-z
1/2+x,1/2+y,1/2-z
1/2-x,1/2+y,z
1/2+x,1/2-y,z
loop_
_atom_site_type_symbol
_atom_site_label
_atom_site_fract_x
_atom_site_fract_y
_atom_site_fract_z
Si Si1 0.093239 0.399838 0.841074
Si Si2 0.220358 0.046499 0.672683
Si Si3 0.418213 0.135505 0.825883
Si Si4 0.173861 0.748590 0.164364
Si Si5 0.756649 0.851432 0.914755
Si Si6 0.003800 0.621980 0.581311
Si Si7 0.308033 0.184782 0.672910
O O1 0.077994 0.372157 0.760086
O O2 0.094564 0.520983 0.848123
O O3 0.143709 0.358778 0.850482
O O4 0.054819 0.356530 0.893092
O O5 0.185812 0.134975 0.649749
O O6 0.269406 0.100144 0.679895
O O7 0.207938 0.000000 0.750000
O O8 0.226523 0.957513 0.616170
O O9 0.377455 0.210971 0.845032
O O10 0.465255 0.160969 0.864823
O O11 0.207688 0.678881 0.118189
O O12 0.186367 0.731622 0.247992
O O13 0.789873 0.766773 0.882470
O O14 0.755250 0.850478 0.000000
O O15 0.995598 0.654643 0.500000
O O16 0.000000 0.500000 0.583592
#
# Coordination Sequence:
#
# PCOD9525850 Si02
#       7
#    16  16  16  16  16  16  16
#     4   9  17  28  48  70  95 122 162 195 239 282
#     4  11  18  32  53  69  97 133 167 199 248 292
#     4   9  17  29  47  71  95 122 160 201 232 287
#     4  10  19  33  52  72  93 131 167 201 243 295
#     4  11  22  33  46  71 102 128 162 205 243 285
#     4   9  17  29  43  64  96 131 155 188 241 291
#     4  10  19  32  52  71  93 129 166 201 238 295
#
# _framework density 15.314155
#
# number of rings (size 3 to 8) (size 9 to 14) (size 15 to 20)
#    0.000    2.143    2.857    2.143    2.000    5.143 
#    0.000    2.857    0.000    0.000    0.000    1.000 
#    0.000    2.286    0.000    0.000    0.000    0.000 
#
# Total GULP energy -312195.599530 kJ/mol
# GULP energy per Si atom -5574.921420 kJ/mol
# Density = 1.527930 g / cm^3
# Si number density = 15.314155 Si / 1000 Ang^3
#
#
#
# Elastic Constant Matrix: (Units=GPa)
#
#
# Indices 1 2 3 4 5 6 
#
# 1 69.1614 16.6139 19.8036 0.0000 0.0000 0.0000
# 2 16.6139 60.7076 22.7830 0.0000 0.0000 0.0000
# 3 19.8036 22.7830 54.9091 0.0000 0.0000 0.0000
# 4 0.0000 0.0000 0.0000 15.1587 0.0000 0.0000
# 5 0.0000 0.0000 0.0000 0.0000 5.9293 0.0000
# 6 0.0000 0.0000 0.0000 0.0000 0.0000 17.6705
#
#
#
# Elastic Compliance Matrix: (Units=1/GPa)
#
#
# Indices 1 2 3 4 5 6 
#
# 1 0.016490 -0.002701 -0.004826 0.000000 0.000000 0.000000
# 2 -0.002701 0.019953 -0.007305 0.000000 0.000000 0.000000
# 3 -0.004826 -0.007305 0.022983 0.000000 0.000000 0.000000
# 4 0.000000 0.000000 0.000000 0.065969 0.000000 0.000000
# 5 0.000000 0.000000 0.000000 0.000000 0.168653 0.000000
# 6 0.000000 0.000000 0.000000 0.000000 0.000000 0.056592
#
#
# Mechanical properties :
#
#
# Convention : Reuss Voigt Hill
#
# Bulk Modulus (GPa) = 33.60056 33.68656 33.64356
# Shear Modulus (GPa) = 12.81312 16.12354 14.46833
#
# Velocity S-wave (km/s) = 2.89569 3.24829 3.07704
# Velocity P-wave (km/s) = 5.75921 6.00943 5.88565
#
# Compressibility (1/GPa) = 0.02976141
#
# Stress axis : x y z
#
# Youngs Moduli (GPa) = 60.64336 50.11760 43.50955
#
# Poissons Ratio (x) = 0.13539 0.20999
# Poissons Ratio (y) = 0.16383 0.31782
# Poissons Ratio (z) = 0.29269 0.36609
#
# Static dielectric constant tensor:
#      x y z
#    x 1.503430 0.000000 0.000000 
#    y 0.000000 1.503450 0.000000 
#    z 0.000000 0.000000 1.511190 
# 
# From -- ./inp_files/40870.got.cif
#   From: 2010.05.17/outbox.cif.g08.bks.cpg/sg72_21_cif.got.tgz:40870.got - 2010.06.03 17:03:01.
