data_PCOD9525740
_publ_section_title
;
Structure prediction by ZEFSAII (Michael W. Deem and Ramdas Pophale) SiO2 
 PCOD9525740
Probable space group: I B A M
;
_chemical_formula_sum "Si O2"
_cell_formula_units_Z 112
_cell_length_a 21.901857
_cell_length_b 14.154469
_cell_length_c 20.810273
_cell_angle_alpha 90.000000
_cell_angle_beta 90.000000
_cell_angle_gamma 90.000000
_cell_volume 6451.375168
_symmetry_space_group_name_H-M "I B A M"
_symmetry_group_IT_number 72
_symmetry_cell_setting 'orthorhombic'
loop_
_space_group_symop_operation_xyz
x,y,z
-x,-y,z
x,-y,1/2-z
-x,y,1/2-z
-x,-y,-z
x,y,-z
-x,y,1/2+z
x,-y,1/2+z
1/2+x,1/2+y,1/2+z
1/2-x,1/2-y,1/2+z
1/2+x,1/2-y,-z
1/2-x,1/2+y,-z
1/2-x,1/2-y,1/2-z
1/2+x,1/2+y,1/2-z
1/2-x,1/2+y,z
1/2+x,1/2-y,z
loop_
_atom_site_type_symbol
_atom_site_label
_atom_site_fract_x
_atom_site_fract_y
_atom_site_fract_z
Si Si1 0.662986 0.838479 0.736104
Si Si2 0.782102 0.006436 0.426553
Si Si3 0.324143 0.297917 0.923864
Si Si4 0.229964 0.819401 0.338932
Si Si5 0.025276 0.607671 0.428737
Si Si6 0.083374 0.669531 0.146619
Si Si7 0.353235 0.030297 0.382490
O O1 0.719813 0.849986 0.785507
O O2 0.679848 0.745324 0.695426
O O3 0.602490 0.825743 0.778996
O O4 0.658122 0.925595 0.687641
O O5 0.793196 0.036318 0.500000
O O6 0.817995 0.909729 0.413435
O O7 0.710484 0.979995 0.418685
O O8 0.794258 0.089922 0.376552
O O9 0.267577 0.245839 0.888994
O O10 0.383841 0.254043 0.891093
O O11 0.323100 0.279066 0.000000
O O12 0.013157 0.646936 0.500000
O O13 0.096982 0.597899 0.415641
O O14 0.000000 0.500000 0.428633
O O15 0.986736 0.660319 0.374003
O O16 0.116592 0.573008 0.122662
#
# Coordination Sequence:
#
# PCOD9525740 Si02
#       7
#    16  16  16  16  16  16  16
#     4  10  20  33  47  73 101 139 177 208 261 319
#     4  11  21  32  50  76 106 139 175 221 266 313
#     4  10  19  31  49  73  98 136 180 215 262 317
#     4  10  20  33  49  69 105 142 171 214 260 313
#     4   9  19  33  49  72 101 137 177 213 257 307
#     4  10  20  33  50  71 101 144 175 218 255 310
#     4  11  19  31  51  75 105 137 173 216 259 314
#
# _framework density 17.36064
#
# number of rings (size 3 to 8) (size 9 to 14) (size 15 to 20)
#    0.000    1.857    4.286    1.714    0.000    1.714 
#    0.000    2.143    0.000    0.000    0.000    1.000 
#    0.000    8.000    0.000    0.000    0.000    0.000 
#
# Total GULP energy -312403.417494 kJ/mol
# GULP energy per Si atom -5578.632455 kJ/mol
# Density = 1.732113 g / cm^3
# Si number density = 17.360640 Si / 1000 Ang^3
#
#
#
# Elastic Constant Matrix: (Units=GPa)
#
#
# Indices 1 2 3 4 5 6 
#
# 1 35.3186 13.7097 1.2029 0.0000 0.0000 0.0000
# 2 13.7097 70.0063 36.6056 0.0000 0.0000 0.0000
# 3 1.2029 36.6056 72.5209 0.0000 0.0000 0.0000
# 4 0.0000 0.0000 0.0000 36.3071 0.0000 0.0000
# 5 0.0000 0.0000 0.0000 0.0000 16.1829 0.0000
# 6 0.0000 0.0000 0.0000 0.0000 0.0000 18.1963
#
#
#
# Elastic Compliance Matrix: (Units=1/GPa)
#
#
# Indices 1 2 3 4 5 6 
#
# 1 0.031282 -0.007954 0.003496 0.000000 0.000000 0.000000
# 2 -0.007954 0.021429 -0.010685 0.000000 0.000000 0.000000
# 3 0.003496 -0.010685 0.019124 0.000000 0.000000 0.000000
# 4 0.000000 0.000000 0.000000 0.027543 0.000000 0.000000
# 5 0.000000 0.000000 0.000000 0.000000 0.061794 0.000000
# 6 0.000000 0.000000 0.000000 0.000000 0.000000 0.054956
#
#
# Mechanical properties :
#
#
# Convention : Reuss Voigt Hill
#
# Bulk Modulus (GPa) = 24.06730 31.20913 27.63822
# Shear Modulus (GPa) = 19.21129 22.55910 20.88519
#
# Velocity S-wave (km/s) = 3.33017 3.60868 3.47222
# Velocity P-wave (km/s) = 5.35537 5.94806 5.65948
#
# Compressibility (1/GPa) = 0.04155015
#
# Stress axis : x y z
#
# Youngs Moduli (GPa) = 31.96698 46.66578 52.28961
#
# Poissons Ratio (x) = 0.37119 -0.18281
# Poissons Ratio (y) = 0.25427 0.55869
# Poissons Ratio (z) = -0.11176 0.49860
#
# Static dielectric constant tensor:
#      x y z
#    x 1.588970 0.000000 0.000000 
#    y 0.000000 1.585280 0.000000 
#    z 0.000000 0.000000 1.618500 
# 
# From -- ./inp_files/40374.got.cif
#   From: 2010.05.17/outbox.cif.g08.bks.cpg/sg72_21_cif.got.tgz:40374.got - 2010.06.03 17:03:01.
