data_PCOD9525158
_publ_section_title
;
Structure prediction by ZEFSAII (Michael W. Deem and Ramdas Pophale) SiO2 
 PCOD9525158
Probable space group: I B A M
;
_chemical_formula_sum "Si O2"
_cell_formula_units_Z 116
_cell_length_a 18.254745
_cell_length_b 23.587010
_cell_length_c 16.038735
_cell_angle_alpha 90.000000
_cell_angle_beta 90.000000
_cell_angle_gamma 90.000000
_cell_volume 6905.875963
_symmetry_space_group_name_H-M "I B A M"
_symmetry_group_IT_number 72
_symmetry_cell_setting 'orthorhombic'
loop_
_space_group_symop_operation_xyz
x,y,z
-x,-y,z
x,-y,1/2-z
-x,y,1/2-z
-x,-y,-z
x,y,-z
-x,y,1/2+z
x,-y,1/2+z
1/2+x,1/2+y,1/2+z
1/2-x,1/2-y,1/2+z
1/2+x,1/2-y,-z
1/2-x,1/2+y,-z
1/2-x,1/2-y,1/2-z
1/2+x,1/2+y,1/2-z
1/2-x,1/2+y,z
1/2+x,1/2-y,z
loop_
_atom_site_type_symbol
_atom_site_label
_atom_site_fract_x
_atom_site_fract_y
_atom_site_fract_z
Si Si1 0.346355 0.212534 0.906925
Si Si2 0.200865 0.812948 0.674772
Si Si3 0.444695 0.669485 0.094972
Si Si4 0.007954 0.290035 0.154281
Si Si5 0.061569 0.929531 0.903187
Si Si6 0.662886 0.804980 0.595561
Si Si7 0.000000 0.000000 0.250000
Si Si8 0.312156 0.657613 0.365804
O O1 0.286139 0.183461 0.847904
O O2 0.430323 0.199041 0.888280
O O3 0.337644 0.280958 0.900598
O O4 0.326444 0.195658 0.000000
O O5 0.139849 0.841914 0.616572
O O6 0.183030 0.746214 0.658945
O O7 0.185018 0.834035 0.766772
O O8 0.474623 0.722329 0.148443
O O9 0.493991 0.614464 0.103946
O O10 0.451318 0.689390 0.000000
O O11 0.078962 0.319571 0.113873
O O12 0.000000 0.305960 0.250000
O O13 0.134583 0.891687 0.895181
O O14 0.050896 0.967248 0.819188
O O15 0.060093 0.953043 0.000000
O O16 0.668472 0.784218 0.500000
O O17 0.727501 0.849865 0.607981
#
# Coordination Sequence:
#
# PCOD9525158 Si02
#       8
#    16  16  16  16  16  16   4  16
#     4  11  18  27  42  63  93 130 167 202 233 267
#     4  10  18  27  41  64  92 120 161 201 237 263
#     4  10  19  31  46  64  88 121 159 198 235 283
#     4  11  19  27  41  63  93 126 168 203 234 262
#     4  11  23  38  56  74  94 124 163 203 251 309
#     4  10  19  29  40  60  91 125 162 205 237 264
#     4  12  26  40  56  74  96 116 148 212 276 306
#     4  11  19  31  48  66  87 123 164 202 235 282
#
# _framework density 16.79729
#
# number of rings (size 3 to 8) (size 9 to 14) (size 15 to 20)
#    0.000    1.379    1.379   10.552    0.966    0.000 
#    0.000    0.000    0.000    0.000    0.000    0.000 
#    0.000    0.000    0.000   15.517    0.000   74.621 
#
# Total GULP energy -323214.503665 kJ/mol
# GULP energy per Si atom -5572.663856 kJ/mol
# Density = 1.675906 g / cm^3
# Si number density = 16.797290 Si / 1000 Ang^3
#
#
#
# Elastic Constant Matrix: (Units=GPa)
#
#
# Indices 1 2 3 4 5 6 
#
# 1 141.7884 21.1653 27.9278 0.0000 0.0000 0.0000
# 2 21.1653 21.3306 24.8350 0.0000 0.0000 0.0000
# 3 27.9278 24.8350 101.2659 0.0000 0.0000 0.0000
# 4 0.0000 0.0000 0.0000 -11.1273 0.0000 0.0000
# 5 0.0000 0.0000 0.0000 0.0000 27.7914 0.0000
# 6 0.0000 0.0000 0.0000 0.0000 0.0000 13.0795
#
#
#
# Elastic Compliance Matrix: (Units=1/GPa)
#
#
# Indices 1 2 3 4 5 6 
#
# 1 0.008289 -0.007787 -0.000376 0.000000 0.000000 0.000000
# 2 -0.007787 0.072932 -0.015739 0.000000 0.000000 0.000000
# 3 -0.000376 -0.015739 0.013839 0.000000 0.000000 0.000000
# 4 0.000000 0.000000 0.000000 -0.089869 0.000000 0.000000
# 5 0.000000 0.000000 0.000000 0.000000 0.035982 0.000000
# 6 0.000000 0.000000 0.000000 0.000000 0.000000 0.076456
#
#
# Mechanical properties :
#
#
# Convention : Reuss Voigt Hill
#
# Bulk Modulus (GPa) = 21.16139 45.80459 33.48299
# Shear Modulus (GPa) = 27.59624 18.64583 23.12104
#
# Velocity S-wave (km/s) = 4.05767 3.33536 3.71411
# Velocity P-wave (km/s) = 5.88033 6.49315 6.19433
#
# Compressibility (1/GPa) = 0.04725586
#
# Stress axis : x y z
#
# Youngs Moduli (GPa) = 120.63792 13.71147 72.26147
#
# Poissons Ratio (x) = 0.10677 0.02720
# Poissons Ratio (y) = 0.93938 1.13730
# Poissons Ratio (z) = 0.04541 0.21580
#
# Static dielectric constant tensor:
#      x y z
#    x 1.625140 0.000000 0.000000 
#    y 0.000000 1.550750 0.000000 
#    z 0.000000 0.000000 1.607610 
# 
# From -- ./inp_files/23534.got.cif
#   From: 2010.05.17/outbox.cif.g08.bks.cpg/sg72_12_cif.got.tgz:23534.got - 2010.06.03 17:03:01.
