data_PCOD9525513
_publ_section_title
;
Structure prediction by ZEFSAII (Michael W. Deem and Ramdas Pophale) SiO2 
 PCOD9525513
Probable space group: I B A M
;
_chemical_formula_sum "Si O2"
_cell_formula_units_Z 68
_cell_length_a 5.557428
_cell_length_b 21.232493
_cell_length_c 26.580349
_cell_angle_alpha 90.000000
_cell_angle_beta 90.000000
_cell_angle_gamma 90.000000
_cell_volume 3136.429380
_symmetry_space_group_name_H-M "I B A M"
_symmetry_group_IT_number 72
_symmetry_cell_setting 'orthorhombic'
loop_
_space_group_symop_operation_xyz
x,y,z
-x,-y,z
x,-y,1/2-z
-x,y,1/2-z
-x,-y,-z
x,y,-z
-x,y,1/2+z
x,-y,1/2+z
1/2+x,1/2+y,1/2+z
1/2-x,1/2-y,1/2+z
1/2+x,1/2-y,-z
1/2-x,1/2+y,-z
1/2-x,1/2-y,1/2-z
1/2+x,1/2+y,1/2-z
1/2-x,1/2+y,z
1/2+x,1/2-y,z
loop_
_atom_site_type_symbol
_atom_site_label
_atom_site_fract_x
_atom_site_fract_y
_atom_site_fract_z
Si Si1 0.685207 0.289224 0.556438
Si Si2 0.749880 0.493608 0.092193
Si Si3 0.727450 0.898201 0.179478
Si Si4 0.727574 0.377015 0.347943
Si Si5 0.000000 0.500000 0.750000
O O1 0.690187 0.317123 0.500000
O O2 0.429738 0.252543 0.560686
O O3 0.698077 0.338886 0.600895
O O4 0.500000 0.500000 0.063845
O O5 0.754458 0.428799 0.123345
O O6 0.746887 0.549315 0.134767
O O7 0.000000 0.500000 0.063858
O O8 0.479851 0.859114 0.178153
O O9 0.670392 0.954272 0.217857
O O10 0.989833 0.868719 0.185747
#
# Coordination Sequence:
#
# PCOD9525513 Si02
#       5
#    16  16  16  16   4
#     4  10  21  37  59  85 105 131 186 247 278 315
#     4   8  14  27  42  67  98 137 162 202 242 316
#     4  10  20  30  51  79 115 144 176 220 261 316
#     4  10  18  34  50  76 110 147 170 219 279 334
#     4  12  20  34  52  90 118 142 184 238 240 306
#
# _framework density 21.680705
#
# number of rings (size 3 to 8) (size 9 to 14) (size 15 to 20)
#    0.000    2.353    3.529    1.412    0.000    1.882 
#    0.000    0.000    0.000   12.706    0.000   16.471 
#    0.000    0.000    0.000    0.000    0.000    0.000 
#
# Total GULP energy -189424.945705 kJ/mol
# GULP energy per Si atom -5571.321933 kJ/mol
# Density = 2.163136 g / cm^3
# Si number density = 21.680705 Si / 1000 Ang^3
#
#
#
# Elastic Constant Matrix: (Units=GPa)
#
#
# Indices 1 2 3 4 5 6 
#
# 1 263.1908 12.1026 35.0815 0.0000 0.0000 0.0000
# 2 12.1026 15.2415 23.5660 0.0000 0.0000 0.0000
# 3 35.0815 23.5660 77.7633 0.0000 0.0000 0.0000
# 4 0.0000 0.0000 0.0000 39.1133 0.0000 0.0000
# 5 0.0000 0.0000 0.0000 0.0000 -23.6228 0.0000
# 6 0.0000 0.0000 0.0000 0.0000 0.0000 14.6801
#
#
#
# Elastic Compliance Matrix: (Units=1/GPa)
#
#
# Indices 1 2 3 4 5 6 
#
# 1 0.004047 -0.000735 -0.001603 0.000000 0.000000 0.000000
# 2 -0.000735 0.123592 -0.037123 0.000000 0.000000 0.000000
# 3 -0.001603 -0.037123 0.024833 0.000000 0.000000 0.000000
# 4 0.000000 0.000000 0.000000 0.025567 0.000000 0.000000
# 5 0.000000 0.000000 0.000000 0.000000 -0.042332 0.000000
# 6 0.000000 0.000000 0.000000 0.000000 0.000000 0.068120
#
#
# Mechanical properties :
#
#
# Convention : Reuss Voigt Hill
#
# Bulk Modulus (GPa) = 13.59616 55.29953 34.44785
# Shear Modulus (GPa) = 16.27264 25.06381 20.66822
#
# Velocity S-wave (km/s) = 2.74260 3.40375 3.09091
# Velocity P-wave (km/s) = 4.03904 6.40383 5.35364
#
# Compressibility (1/GPa) = 0.07355016
#
# Stress axis : x y z
#
# Youngs Moduli (GPa) = 247.09716 8.09114 40.26953
#
# Poissons Ratio (x) = 0.00595 0.06455
# Poissons Ratio (y) = 0.18163 1.49491
# Poissons Ratio (z) = 0.39609 0.30037
#
# Static dielectric constant tensor:
#      x y z
#    x 1.965720 0.000000 0.000000 
#    y 0.000000 1.771170 0.000000 
#    z 0.000000 0.000000 1.752540 
# 
# From -- ./inp_files/46567.got.cif
#   From: 2010.05.17/outbox.cif.g08.bks.cpg/sg72_24_cif.got.tgz:46567.got - 2010.06.03 17:03:01.
