data_PCOD9525677
_publ_section_title
;
Structure prediction by ZEFSAII (Michael W. Deem and Ramdas Pophale) SiO2 
 PCOD9525677
Probable space group: I B A M
;
_chemical_formula_sum "Si O2"
_cell_formula_units_Z 96
_cell_length_a 11.500265
_cell_length_b 15.198770
_cell_length_c 21.969707
_cell_angle_alpha 90.000000
_cell_angle_beta 90.000000
_cell_angle_gamma 90.000000
_cell_volume 3840.082509
_symmetry_space_group_name_H-M "I B A M"
_symmetry_group_IT_number 72
_symmetry_cell_setting 'orthorhombic'
loop_
_space_group_symop_operation_xyz
x,y,z
-x,-y,z
x,-y,1/2-z
-x,y,1/2-z
-x,-y,-z
x,y,-z
-x,y,1/2+z
x,-y,1/2+z
1/2+x,1/2+y,1/2+z
1/2-x,1/2-y,1/2+z
1/2+x,1/2-y,-z
1/2-x,1/2+y,-z
1/2-x,1/2-y,1/2-z
1/2+x,1/2+y,1/2-z
1/2-x,1/2+y,z
1/2+x,1/2-y,z
loop_
_atom_site_type_symbol
_atom_site_label
_atom_site_fract_x
_atom_site_fract_y
_atom_site_fract_z
Si Si1 0.894070 0.566597 0.567784
Si Si2 0.958022 0.336282 0.337066
Si Si3 0.684048 0.409524 0.876222
Si Si4 0.246497 0.357518 0.756831
Si Si5 0.236272 0.283142 0.070228
Si Si6 0.940305 0.849598 0.353354
O O1 0.886638 0.609454 0.500000
O O2 0.768288 0.525926 0.586134
O O3 0.000000 0.500000 0.562528
O O4 0.935037 0.619039 0.628429
O O5 0.883418 0.376501 0.281709
O O6 0.860266 0.330335 0.389336
O O7 0.997974 0.236457 0.323762
O O8 0.722703 0.401877 0.806411
O O9 0.717699 0.318349 0.910634
O O10 0.545201 0.411090 0.874624
O O11 0.250000 0.250000 0.750000
O O12 0.346750 0.384007 0.804792
O O13 0.363351 0.314342 0.090802
O O14 0.215204 0.296791 0.000000
#
# Coordination Sequence:
#
# PCOD9525677 Si02
#       6
#    16  16  16  16  16  16
#     4  11  24  42  59  77 111 159 206 250 293 346
#     4  10  20  34  54  80 113 149 191 235 287 357
#     4  11  21  32  52  82 114 149 193 236 292 358
#     4  11  18  32  53  84 119 153 180 225 302 364
#     4  10  19  30  49  79 114 148 183 240 303 351
#     4  10  19  30  52  84 121 148 180 237 300 365
#
# _framework density 24.999462999999999
#
# number of rings (size 3 to 8) (size 9 to 14) (size 15 to 20)
#    0.000    1.500    6.667    1.500    0.000    5.333 
#    0.000    1.667    0.000    4.000    0.000   15.167 
#    0.000    0.000    0.000    0.000    0.000    0.000 
#
# Total GULP energy -268320.904081 kJ/mol
# GULP energy per Si atom -5590.018835 kJ/mol
# Density = 2.494256 g / cm^3
# Si number density = 24.999463 Si / 1000 Ang^3
#
#
#
# Elastic Constant Matrix: (Units=GPa)
#
#
# Indices 1 2 3 4 5 6 
#
# 1 198.1210 20.6463 38.9029 0.0000 0.0000 0.0000
# 2 20.6463 45.3877 4.1237 0.0000 0.0000 0.0000
# 3 38.9029 4.1237 99.0359 0.0000 0.0000 0.0000
# 4 0.0000 0.0000 0.0000 3.7337 0.0000 0.0000
# 5 0.0000 0.0000 0.0000 0.0000 23.0240 0.0000
# 6 0.0000 0.0000 0.0000 0.0000 0.0000 26.5297
#
#
#
# Elastic Compliance Matrix: (Units=1/GPa)
#
#
# Indices 1 2 3 4 5 6 
#
# 1 0.005720 -0.002407 -0.002147 0.000000 0.000000 0.000000
# 2 -0.002407 0.023129 -0.000018 0.000000 0.000000 0.000000
# 3 -0.002147 -0.000018 0.010941 0.000000 0.000000 0.000000
# 4 0.000000 0.000000 0.000000 0.267832 0.000000 0.000000
# 5 0.000000 0.000000 0.000000 0.000000 0.043433 0.000000
# 6 0.000000 0.000000 0.000000 0.000000 0.000000 0.037694
#
#
# Mechanical properties :
#
#
# Convention : Reuss Voigt Hill
#
# Bulk Modulus (GPa) = 32.62874 52.21003 42.41939
# Shear Modulus (GPa) = 12.25170 29.24894 20.75032
#
# Velocity S-wave (km/s) = 2.21617 3.42421 2.88415
# Velocity P-wave (km/s) = 4.43043 6.04677 5.30057
#
# Compressibility (1/GPa) = 0.03064783
#
# Stress axis : x y z
#
# Youngs Moduli (GPa) = 174.83318 43.23612 91.39689
#
# Poissons Ratio (x) = 0.10406 0.19619
# Poissons Ratio (y) = 0.42079 0.00161
# Poissons Ratio (z) = 0.37529 0.00076
#
# Static dielectric constant tensor:
#      x y z
#    x 2.040970 0.000000 0.000000 
#    y 0.000000 2.126460 0.000000 
#    z 0.000000 0.000000 1.949410 
# 
# From -- ./inp_files/37088.got.cif
#   From: 2010.05.17/outbox.cif.g08.bks.cpg/sg72_19_cif.got.tgz:37088.got - 2010.06.03 17:03:01.
