data_PCOD9525768
_publ_section_title
;
Structure prediction by ZEFSAII (Michael W. Deem and Ramdas Pophale) SiO2 
 PCOD9525768
Probable space group: I B A M
;
_chemical_formula_sum "Si O2"
_cell_formula_units_Z 128
_cell_length_a 12.761032
_cell_length_b 23.971769
_cell_length_c 23.075129
_cell_angle_alpha 90.000000
_cell_angle_beta 90.000000
_cell_angle_gamma 90.000000
_cell_volume 7058.786060
_symmetry_space_group_name_H-M "I B A M"
_symmetry_group_IT_number 72
_symmetry_cell_setting 'orthorhombic'
loop_
_space_group_symop_operation_xyz
x,y,z
-x,-y,z
x,-y,1/2-z
-x,y,1/2-z
-x,-y,-z
x,y,-z
-x,y,1/2+z
x,-y,1/2+z
1/2+x,1/2+y,1/2+z
1/2-x,1/2-y,1/2+z
1/2+x,1/2-y,-z
1/2-x,1/2+y,-z
1/2-x,1/2-y,1/2-z
1/2+x,1/2+y,1/2-z
1/2-x,1/2+y,z
1/2+x,1/2-y,z
loop_
_atom_site_type_symbol
_atom_site_label
_atom_site_fract_x
_atom_site_fract_y
_atom_site_fract_z
Si Si1 0.374475 0.436182 0.757355
Si Si2 0.238118 0.215635 0.569782
Si Si3 0.319129 0.842062 0.430568
Si Si4 0.329871 0.535518 0.381703
Si Si5 0.393802 0.029310 0.433886
Si Si6 0.446274 0.632895 0.566965
Si Si7 0.645959 0.407839 0.866274
Si Si8 0.445719 0.159619 0.566196
O O1 0.337142 0.500000 0.750000
O O2 0.500000 0.435327 0.750000
O O3 0.344028 0.426924 0.823754
O O4 0.335768 0.400872 0.702643
O O5 0.241374 0.206814 0.500000
O O6 0.228820 0.281055 0.580121
O O7 0.135004 0.180725 0.587164
O O8 0.347636 0.191753 0.593524
O O9 0.321177 0.852487 0.500000
O O10 0.248466 0.888562 0.400566
O O11 0.438340 0.838834 0.408145
O O12 0.209547 0.522875 0.396108
O O13 0.382994 0.574246 0.429980
O O14 0.379414 0.473948 0.374594
O O15 0.375026 0.008563 0.500000
O O16 0.414296 0.095145 0.436850
O O17 0.500000 0.000000 0.412605
O O18 0.477640 0.643833 0.500000
O O19 0.547961 0.625774 0.607197
O O20 0.458098 0.181642 0.500000
#
# Coordination Sequence:
#
# PCOD9525768 Si02
#       8
#    16  16  16  16  16  16  16  16
#     4   9  18  35  54  74 103 145 189 221 267 333
#     4   9  19  34  51  75 108 148 188 218 266 339
#     4  10  21  34  53  79 111 148 182 229 282 328
#     4  11  20  34  55  80 111 149 184 225 277 340
#     4  10  19  31  51  80 115 149 180 217 275 349
#     4  11  21  32  51  83 115 143 177 226 282 337
#     4  11  22  34  53  82 112 139 184 235 280 325
#     4   9  17  32  49  70 104 145 182 210 257 335
#
# _framework density 18.133431000000002
#
# number of rings (size 3 to 8) (size 9 to 14) (size 15 to 20)
#    0.000    2.000    2.500    1.875    1.750    3.500 
#    0.000    0.000    0.000    9.375    0.000    0.000 
#    0.000    0.000    0.000    0.000    0.000    0.000 
#
# Total GULP energy -356627.365526 kJ/mol
# GULP energy per Si atom -5572.302586 kJ/mol
# Density = 1.809216 g / cm^3
# Si number density = 18.133431 Si / 1000 Ang^3
#
#
#
# Elastic Constant Matrix: (Units=GPa)
#
#
# Indices 1 2 3 4 5 6 
#
# 1 108.7959 16.2538 37.5425 0.0000 0.0000 0.0000
# 2 16.2538 46.8759 17.0619 0.0000 0.0000 0.0000
# 3 37.5425 17.0619 73.5757 0.0000 0.0000 0.0000
# 4 0.0000 0.0000 0.0000 10.9458 0.0000 0.0000
# 5 0.0000 0.0000 0.0000 0.0000 -6.1606 0.0000
# 6 0.0000 0.0000 0.0000 0.0000 0.0000 4.0389
#
#
#
# Elastic Compliance Matrix: (Units=1/GPa)
#
#
# Indices 1 2 3 4 5 6 
#
# 1 0.011323 -0.001991 -0.005316 0.000000 0.000000 0.000000
# 2 -0.001991 0.023650 -0.004468 0.000000 0.000000 0.000000
# 3 -0.005316 -0.004468 0.017340 0.000000 0.000000 0.000000
# 4 0.000000 0.000000 0.000000 0.091359 0.000000 0.000000
# 5 0.000000 0.000000 0.000000 0.000000 -0.162321 0.000000
# 6 0.000000 0.000000 0.000000 0.000000 0.000000 0.247594
#
#
# Mechanical properties :
#
#
# Convention : Reuss Voigt Hill
#
# Bulk Modulus (GPa) = 34.76795 41.21821 37.99308
# Shear Modulus (GPa) = 19.07788 12.32411 15.70100
#
# Velocity S-wave (km/s) = 3.24710 2.60981 2.94574
# Velocity P-wave (km/s) = 5.76830 5.64458 5.70678
#
# Compressibility (1/GPa) = 0.02876212
#
# Stress axis : x y z
#
# Youngs Moduli (GPa) = 88.31224 42.28383 57.66962
#
# Poissons Ratio (x) = 0.08420 0.30658
# Poissons Ratio (y) = 0.17586 0.25768
# Poissons Ratio (z) = 0.46947 0.18893
#
# Static dielectric constant tensor:
#      x y z
#    x 1.657120 0.000000 0.000000 
#    y 0.000000 1.630180 0.000000 
#    z 0.000000 0.000000 1.696900 
# 
# From -- ./inp_files/43684.got.cif
#   From: 2010.05.17/outbox.cif.g08.bks.cpg/sg72_22_cif.got.tgz:43684.got - 2010.06.03 17:03:01.
