data_PCOD9525517
_publ_section_title
;
Structure prediction by ZEFSAII (Michael W. Deem and Ramdas Pophale) SiO2 
 PCOD9525517
Probable space group: I B A M
;
_chemical_formula_sum "Si O2"
_cell_formula_units_Z 128
_cell_length_a 24.284691
_cell_length_b 12.159487
_cell_length_c 24.231185
_cell_angle_alpha 90.000000
_cell_angle_beta 90.000000
_cell_angle_gamma 90.000000
_cell_volume 7155.211705
_symmetry_space_group_name_H-M "I B A M"
_symmetry_group_IT_number 72
_symmetry_cell_setting 'orthorhombic'
loop_
_space_group_symop_operation_xyz
x,y,z
-x,-y,z
x,-y,1/2-z
-x,y,1/2-z
-x,-y,-z
x,y,-z
-x,y,1/2+z
x,-y,1/2+z
1/2+x,1/2+y,1/2+z
1/2-x,1/2-y,1/2+z
1/2+x,1/2-y,-z
1/2-x,1/2+y,-z
1/2-x,1/2-y,1/2-z
1/2+x,1/2+y,1/2-z
1/2-x,1/2+y,z
1/2+x,1/2-y,z
loop_
_atom_site_type_symbol
_atom_site_label
_atom_site_fract_x
_atom_site_fract_y
_atom_site_fract_z
Si Si1 0.909645 0.288036 0.566491
Si Si2 0.525529 0.876977 0.062802
Si Si3 0.333959 0.613586 0.127156
Si Si4 0.315218 0.721652 0.757765
Si Si5 0.223375 0.681041 0.937430
Si Si6 0.802108 0.558139 0.803644
Si Si7 0.366915 0.970463 0.601846
Si Si8 0.810986 0.127927 0.858778
O O1 0.904344 0.275139 0.500000
O O2 0.880355 0.190185 0.599620
O O3 0.882571 0.405761 0.583113
O O4 0.974821 0.299970 0.579678
O O5 0.500000 0.000000 0.060897
O O6 0.580081 0.892056 0.098389
O O7 0.542112 0.848873 0.000000
O O8 0.325672 0.638610 0.192166
O O9 0.277519 0.648545 0.096703
O O10 0.340992 0.482760 0.122119
O O11 0.250000 0.750000 0.750000
O O12 0.336280 0.837698 0.781575
O O13 0.334160 0.678430 0.698476
O O14 0.180850 0.580140 0.935666
O O15 0.193964 0.780733 0.905559
O O16 0.237851 0.709894 0.000000
O O17 0.777580 0.500000 0.750000
O O18 0.841189 0.478184 0.837508
O O19 0.752198 0.594026 0.843085
#
# Coordination Sequence:
#
# PCOD9525517 Si02
#       8
#    16  16  16  16  16  16  16  16
#     4  10  20  36  57  83 112 146 191 237 290 346
#     4   8  16  32  56  80 105 144 187 228 273 339
#     4  12  21  35  52  80 109 153 184 239 280 335
#     4  10  18  34  52  74 106 145 193 226 261 334
#     4  12  24  34  49  79 116 150 181 226 289 346
#     4  11  19  32  54  81 112 148 186 234 278 338
#     4  11  19  35  55  83 112 145 188 233 294 343
#     4  11  22  37  51  72 115 154 196 223 274 345
#
# _framework density 17.889057000000001
#
# number of rings (size 3 to 8) (size 9 to 14) (size 15 to 20)
#    0.000    1.375    5.000    4.875    0.000    1.000 
#    0.000    0.000    0.000    4.125    0.000    2.625 
#    0.000    4.250    0.000    0.000    0.000    0.000 
#
# Total GULP energy -356957.175163 kJ/mol
# GULP energy per Si atom -5577.455862 kJ/mol
# Density = 1.784834 g / cm^3
# Si number density = 17.889057 Si / 1000 Ang^3
#
#
#
# Elastic Constant Matrix: (Units=GPa)
#
#
# Indices 1 2 3 4 5 6 
#
# 1 66.8236 17.3209 14.9870 0.0000 0.0000 0.0000
# 2 17.3209 82.2114 29.5615 0.0000 0.0000 0.0000
# 3 14.9870 29.5615 87.4014 0.0000 0.0000 0.0000
# 4 0.0000 0.0000 0.0000 19.9456 0.0000 0.0000
# 5 0.0000 0.0000 0.0000 0.0000 15.6248 0.0000
# 6 0.0000 0.0000 0.0000 0.0000 0.0000 23.5539
#
#
#
# Elastic Compliance Matrix: (Units=1/GPa)
#
#
# Indices 1 2 3 4 5 6 
#
# 1 0.016084 -0.002729 -0.001835 0.000000 0.000000 0.000000
# 2 -0.002729 0.014311 -0.004372 0.000000 0.000000 0.000000
# 3 -0.001835 -0.004372 0.013235 0.000000 0.000000 0.000000
# 4 0.000000 0.000000 0.000000 0.050136 0.000000 0.000000
# 5 0.000000 0.000000 0.000000 0.000000 0.064001 0.000000
# 6 0.000000 0.000000 0.000000 0.000000 0.000000 0.042456
#
#
# Mechanical properties :
#
#
# Convention : Reuss Voigt Hill
#
# Bulk Modulus (GPa) = 38.82414 40.01945 39.42180
# Shear Modulus (GPa) = 22.05747 23.46266 22.76007
#
# Velocity S-wave (km/s) = 3.51524 3.62548 3.57079
# Velocity P-wave (km/s) = 6.18270 6.32020 6.25183
#
# Compressibility (1/GPa) = 0.02575717
#
# Stress axis : x y z
#
# Youngs Moduli (GPa) = 62.17501 69.87677 75.55735
#
# Poissons Ratio (x) = 0.19068 0.13865
# Poissons Ratio (y) = 0.16966 0.33037
# Poissons Ratio (z) = 0.11409 0.30553
#
# Static dielectric constant tensor:
#      x y z
#    x 1.617830 0.000000 0.000000 
#    y 0.000000 1.674030 0.000000 
#    z 0.000000 0.000000 1.627930 
# 
# From -- ./inp_files/45814.got.cif
#   From: 2010.05.17/outbox.cif.g08.bks.cpg/sg72_23_cif.got.tgz:45814.got - 2010.06.03 17:03:01.
