data_PCOD9525610
_publ_section_title
;
Structure prediction by ZEFSAII (Michael W. Deem and Ramdas Pophale) SiO2 
 PCOD9525610
Probable space group: I B A M
;
_chemical_formula_sum "Si O2"
_cell_formula_units_Z 68
_cell_length_a 18.360509
_cell_length_b 9.787939
_cell_length_c 14.591268
_cell_angle_alpha 90.000000
_cell_angle_beta 90.000000
_cell_angle_gamma 90.000000
_cell_volume 2622.219273
_symmetry_space_group_name_H-M "I B A M"
_symmetry_group_IT_number 72
_symmetry_cell_setting 'orthorhombic'
loop_
_space_group_symop_operation_xyz
x,y,z
-x,-y,z
x,-y,1/2-z
-x,y,1/2-z
-x,-y,-z
x,y,-z
-x,y,1/2+z
x,-y,1/2+z
1/2+x,1/2+y,1/2+z
1/2-x,1/2-y,1/2+z
1/2+x,1/2-y,-z
1/2-x,1/2+y,-z
1/2-x,1/2-y,1/2-z
1/2+x,1/2+y,1/2-z
1/2-x,1/2+y,z
1/2+x,1/2-y,z
loop_
_atom_site_type_symbol
_atom_site_label
_atom_site_fract_x
_atom_site_fract_y
_atom_site_fract_z
Si Si1 0.616321 0.075065 0.391378
Si Si2 0.500000 0.000000 0.250000
Si Si3 0.840167 0.976687 0.349515
Si Si4 0.940162 0.626060 0.000000
Si Si5 0.051634 0.128113 0.500000
Si Si6 0.743602 0.260623 0.108003
O O1 0.615503 0.125187 0.500000
O O2 0.551754 0.090050 0.317327
O O3 0.609835 0.911394 0.412760
O O4 0.689231 0.142611 0.358137
O O5 0.895511 0.891794 0.412792
O O6 0.767111 0.881823 0.344664
O O7 0.871941 0.000000 0.250000
O O8 0.821502 0.129175 0.384239
O O9 0.000000 0.500000 0.000000
O O10 0.989751 0.755306 0.000000
O O11 0.000000 0.000000 0.500000
O O12 0.747700 0.227762 0.000000
#
# Coordination Sequence:
#
# PCOD9525610 Si02
#       6
#    16   4  16   8   8  16
#     4   9  21  37  64 104 139 175 238 293 351 424
#     4  12  18  32  60 102 138 176 228 288 354 406
#     4  12  27  48  74 110 148 192 253 314 376 444
#     4  10  18  43  67  96 135 175 238 288 338 431
#     4  12  28  49  73 102 153 202 237 300 391 447
#     4  11  22  48  78 105 148 195 246 311 371 443
#
# _framework density 25.932234000000001
#
# number of rings (size 3 to 8) (size 9 to 14) (size 15 to 20)
#    0.706    0.471    3.529    2.471    1.647    2.353 
#    4.235    0.000    0.000    0.000    0.000    0.000 
#    0.000    0.000    0.000    0.000    0.000    0.000 
#
# Total GULP energy -189326.261177 kJ/mol
# GULP energy per Si atom -5568.419446 kJ/mol
# Density = 2.587321 g / cm^3
# Si number density = 25.932234 Si / 1000 Ang^3
#
#
#
# Elastic Constant Matrix: (Units=GPa)
#
#
# Indices 1 2 3 4 5 6 
#
# 1 46.4445 12.1666 23.1936 0.0000 0.0000 0.0000
# 2 12.1666 169.8649 20.4343 0.0000 0.0000 0.0000
# 3 23.1936 20.4343 156.2675 0.0000 0.0000 0.0000
# 4 0.0000 0.0000 0.0000 18.0447 0.0000 0.0000
# 5 0.0000 0.0000 0.0000 0.0000 26.3022 0.0000
# 6 0.0000 0.0000 0.0000 0.0000 0.0000 54.8664
#
#
#
# Elastic Compliance Matrix: (Units=1/GPa)
#
#
# Indices 1 2 3 4 5 6 
#
# 1 0.023528 -0.001285 -0.003324 0.000000 0.000000 0.000000
# 2 -0.001285 0.006051 -0.000601 0.000000 0.000000 0.000000
# 3 -0.003324 -0.000601 0.006971 0.000000 0.000000 0.000000
# 4 0.000000 0.000000 0.000000 0.055418 0.000000 0.000000
# 5 0.000000 0.000000 0.000000 0.000000 0.038020 0.000000
# 6 0.000000 0.000000 0.000000 0.000000 0.000000 0.018226
#
#
# Mechanical properties :
#
#
# Convention : Reuss Voigt Hill
#
# Bulk Modulus (GPa) = 38.26934 53.79623 46.03278
# Shear Modulus (GPa) = 29.87862 40.96148 35.42005
#
# Velocity S-wave (km/s) = 3.39806 3.97868 3.69978
# Velocity P-wave (km/s) = 5.49411 6.47275 6.00340
#
# Compressibility (1/GPa) = 0.02613058
#
# Stress axis : x y z
#
# Youngs Moduli (GPa) = 42.50309 165.25279 143.44811
#
# Poissons Ratio (x) = 0.21240 0.47682
# Poissons Ratio (y) = 0.05463 0.08615
# Poissons Ratio (z) = 0.14128 0.09924
#
# Static dielectric constant tensor:
#      x y z
#    x 2.242040 0.000000 0.000000 
#    y 0.000000 2.237680 0.000000 
#    z 0.000000 0.000000 2.105920 
# 
# From -- ./inp_files/32335.got.cif
#   From: 2010.05.17/outbox.cif.g08.bks.cpg/sg72_17_cif.got.tgz:32335.got - 2010.06.03 17:03:01.
