data_PCOD9525512
_publ_section_title
;
Structure prediction by ZEFSAII (Michael W. Deem and Ramdas Pophale) SiO2 
 PCOD9525512
Probable space group: I B A M
;
_chemical_formula_sum "Si O2"
_cell_formula_units_Z 68
_cell_length_a 24.718685
_cell_length_b 5.585647
_cell_length_c 18.919050
_cell_angle_alpha 90.000000
_cell_angle_beta 90.000000
_cell_angle_gamma 90.000000
_cell_volume 2612.150371
_symmetry_space_group_name_H-M "I B A M"
_symmetry_group_IT_number 72
_symmetry_cell_setting 'orthorhombic'
loop_
_space_group_symop_operation_xyz
x,y,z
-x,-y,z
x,-y,1/2-z
-x,y,1/2-z
-x,-y,-z
x,y,-z
-x,y,1/2+z
x,-y,1/2+z
1/2+x,1/2+y,1/2+z
1/2-x,1/2-y,1/2+z
1/2+x,1/2-y,-z
1/2-x,1/2+y,-z
1/2-x,1/2-y,1/2-z
1/2+x,1/2+y,1/2-z
1/2-x,1/2+y,z
1/2+x,1/2-y,z
loop_
_atom_site_type_symbol
_atom_site_label
_atom_site_fract_x
_atom_site_fract_y
_atom_site_fract_z
Si Si1 0.927757 0.782100 0.630156
Si Si2 0.771552 0.357789 0.418977
Si Si3 0.500000 0.500000 0.750000
Si Si4 0.603487 0.784073 0.610709
Si Si5 0.838288 0.250395 0.758896
O O1 0.932017 0.520291 0.596010
O O2 0.868732 0.760238 0.666964
O O3 0.968264 0.830107 0.694899
O O4 0.923896 0.033381 0.588598
O O5 0.751484 0.370702 0.500000
O O6 0.754471 0.615459 0.387889
O O7 0.836046 0.318679 0.418772
O O8 0.615815 0.759826 0.695807
O O9 0.809239 0.500000 0.750000
O O10 0.809654 0.000000 0.750000
#
# Coordination Sequence:
#
# PCOD9525512 Si02
#       5
#    16  16   4  16  16
#     4  10  20  30  51  77 112 143 175 220 256 309
#     4  10  21  37  59  84 103 129 183 242 273 314
#     4  12  20  34  52  90 110 142 188 234 236 298
#     4  10  18  34  50  75 108 145 167 217 277 326
#     4   8  14  27  42  65  94 137 159 200 239 307
#
# _framework density 26.032191999999998
#
# number of rings (size 3 to 8) (size 9 to 14) (size 15 to 20)
#    0.000    2.353    3.529    1.412    0.000    1.882 
#    0.000    0.000    0.000   38.118    0.000    4.941 
#    0.000    0.000    0.000    0.000    0.000    0.000 
#
# Total GULP energy -189755.730105 kJ/mol
# GULP energy per Si atom -5581.050885 kJ/mol
# Density = 2.597294 g / cm^3
# Si number density = 26.032192 Si / 1000 Ang^3
#
#
#
# Elastic Constant Matrix: (Units=GPa)
#
#
# Indices 1 2 3 4 5 6 
#
# 1 82.9113 52.7356 1.8198 0.0000 0.0000 0.0000
# 2 52.7356 348.9292 5.4698 0.0000 0.0000 0.0000
# 3 1.8198 5.4698 48.2410 0.0000 0.0000 0.0000
# 4 0.0000 0.0000 0.0000 -3.7588 0.0000 0.0000
# 5 0.0000 0.0000 0.0000 0.0000 8.0990 0.0000
# 6 0.0000 0.0000 0.0000 0.0000 0.0000 31.7314
#
#
#
# Elastic Compliance Matrix: (Units=1/GPa)
#
#
# Indices 1 2 3 4 5 6 
#
# 1 0.013347 -0.002013 -0.000275 0.000000 0.000000 0.000000
# 2 -0.002013 0.003175 -0.000284 0.000000 0.000000 0.000000
# 3 -0.000275 -0.000284 0.020772 0.000000 0.000000 0.000000
# 4 0.000000 0.000000 0.000000 -0.266040 0.000000 0.000000
# 5 0.000000 0.000000 0.000000 0.000000 0.123472 0.000000
# 6 0.000000 0.000000 0.000000 0.000000 0.000000 0.031515
#
#
# Mechanical properties :
#
#
# Convention : Reuss Voigt Hill
#
# Bulk Modulus (GPa) = 31.10479 66.68132 48.89306
# Shear Modulus (GPa) = -86.35854 35.21806 -25.57024
#
# Velocity S-wave (km/s) = -5.76591 3.68212 -3.13749
# Velocity P-wave (km/s) = 5.68798 6.61422 2.38692
#
# Compressibility (1/GPa) = 0.03214939
#
# Stress axis : x y z
#
# Youngs Moduli (GPa) = 74.92058 315.00099 48.14211
#
# Poissons Ratio (x) = 0.63408 0.01325
# Poissons Ratio (y) = 0.15081 0.01367
# Poissons Ratio (z) = 0.02062 0.08946
#
# Static dielectric constant tensor:
#      x y z
#    x 2.006020 0.000000 0.000000 
#    y 0.000000 2.215740 0.000000 
#    z 0.000000 0.000000 2.051380 
# 
# From -- ./inp_files/40593.got.cif
#   From: 2010.05.17/outbox.cif.g08.bks.cpg/sg72_21_cif.got.tgz:40593.got - 2010.06.03 17:03:01.
