data_PCOD9525736
_publ_section_title
;
Structure prediction by ZEFSAII (Michael W. Deem and Ramdas Pophale) SiO2 
 PCOD9525736
Probable space group: I B A M
;
_chemical_formula_sum "Si O2"
_cell_formula_units_Z 96
_cell_length_a 25.478620
_cell_length_b 25.705516
_cell_length_c 8.932573
_cell_angle_alpha 90.000000
_cell_angle_beta 90.000000
_cell_angle_gamma 90.000000
_cell_volume 5850.308955
_symmetry_space_group_name_H-M "I B A M"
_symmetry_group_IT_number 72
_symmetry_cell_setting 'orthorhombic'
loop_
_space_group_symop_operation_xyz
x,y,z
-x,-y,z
x,-y,1/2-z
-x,y,1/2-z
-x,-y,-z
x,y,-z
-x,y,1/2+z
x,-y,1/2+z
1/2+x,1/2+y,1/2+z
1/2-x,1/2-y,1/2+z
1/2+x,1/2-y,-z
1/2-x,1/2+y,-z
1/2-x,1/2-y,1/2-z
1/2+x,1/2+y,1/2-z
1/2-x,1/2+y,z
1/2+x,1/2-y,z
loop_
_atom_site_type_symbol
_atom_site_label
_atom_site_fract_x
_atom_site_fract_y
_atom_site_fract_z
Si Si1 0.246461 0.169206 0.821189
Si Si2 0.666095 0.762438 0.321655
Si Si3 0.947796 0.613289 0.330115
Si Si4 0.636896 0.051522 0.177692
Si Si5 0.946738 0.262037 0.830301
Si Si6 0.747785 0.447180 0.820639
O O1 0.300129 0.189198 0.744040
O O2 0.201912 0.211792 0.787451
O O3 0.227770 0.110802 0.781649
O O4 0.256036 0.169597 0.000000
O O5 0.662244 0.768617 0.500000
O O6 0.608413 0.754259 0.253907
O O7 0.941428 0.593526 0.500000
O O8 0.898957 0.598918 0.227203
O O9 0.952140 0.675386 0.338642
O O10 0.000000 0.592742 0.250000
O O11 0.693062 0.055370 0.257084
O O12 0.611319 0.000000 0.250000
O O13 0.642463 0.047204 0.000000
O O14 0.000000 0.242681 0.750000
O O15 0.943706 0.241915 0.000000
O O16 0.723940 0.500000 0.750000
O O17 0.748085 0.452849 0.000000
#
# Coordination Sequence:
#
# PCOD9525736 Si02
#       6
#    16  16  16  16  16  16
#     4   9  19  33  48  69  98 129 158 193 236 280
#     4  10  19  31  49  72  97 126 160 195 233 279
#     4  10  20  33  46  61  81 107 142 183 226 268
#     4  11  21  32  45  61  81 108 144 184 227 270
#     4  10  20  33  49  68  92 121 152 188 229 274
#     4  10  19  32  48  66  90 119 152 188 227 270
#
# _framework density 16.409389000000001
#
# number of rings (size 3 to 8) (size 9 to 14) (size 15 to 20)
#    0.000    2.000    0.000    5.500    0.000    8.333 
#    0.000    1.667    0.000    0.000    0.000    0.000 
#    0.000    0.667    0.000    7.667    0.000    2.333 
#
# Total GULP energy -267570.092245 kJ/mol
# GULP energy per Si atom -5574.376922 kJ/mol
# Density = 1.637204 g / cm^3
# Si number density = 16.409389 Si / 1000 Ang^3
#
#
#
# Elastic Constant Matrix: (Units=GPa)
#
#
# Indices 1 2 3 4 5 6 
#
# 1 73.5495 12.3732 35.6987 0.0000 0.0000 0.0000
# 2 12.3732 75.7946 31.0371 0.0000 0.0000 0.0000
# 3 35.6987 31.0371 74.6556 0.0000 0.0000 0.0000
# 4 0.0000 0.0000 0.0000 20.3679 0.0000 0.0000
# 5 0.0000 0.0000 0.0000 0.0000 14.1197 0.0000
# 6 0.0000 0.0000 0.0000 0.0000 0.0000 12.4732
#
#
#
# Elastic Compliance Matrix: (Units=1/GPa)
#
#
# Indices 1 2 3 4 5 6 
#
# 1 0.017736 0.000696 -0.008770 0.000000 0.000000 0.000000
# 2 0.000696 0.015928 -0.006955 0.000000 0.000000 0.000000
# 3 -0.008770 -0.006955 0.020480 0.000000 0.000000 0.000000
# 4 0.000000 0.000000 0.000000 0.049097 0.000000 0.000000
# 5 0.000000 0.000000 0.000000 0.000000 0.070823 0.000000
# 6 0.000000 0.000000 0.000000 0.000000 0.000000 0.080172
#
#
# Mechanical properties :
#
#
# Convention : Reuss Voigt Hill
#
# Bulk Modulus (GPa) = 41.51810 42.46865 41.99338
# Shear Modulus (GPa) = 17.10444 19.05154 18.07799
#
# Velocity S-wave (km/s) = 3.23206 3.41106 3.32277
# Velocity P-wave (km/s) = 6.26774 6.43822 6.35355
#
# Compressibility (1/GPa) = 0.02408588
#
# Stress axis : x y z
#
# Youngs Moduli (GPa) = 56.38225 62.78344 48.82829
#
# Poissons Ratio (x) = -0.04370 0.42824
# Poissons Ratio (y) = -0.03924 0.33958
# Poissons Ratio (z) = 0.49449 0.43663
#
# Static dielectric constant tensor:
#      x y z
#    x 1.536880 0.000000 0.000000 
#    y 0.000000 1.622310 0.000000 
#    z 0.000000 0.000000 1.562670 
# 
# From -- ./inp_files/7086.got.cif
#   From: 2010.05.17/outbox.cif.g08.bks.cpg/sg72_4_cif.got.tgz:7086.got - 2010.06.03 17:03:01.
