data_PCOD9525675
_publ_section_title
;
Structure prediction by ZEFSAII (Michael W. Deem and Ramdas Pophale) SiO2 
 PCOD9525675
Probable space group: I B A M
;
_chemical_formula_sum "Si O2"
_cell_formula_units_Z 104
_cell_length_a 9.194787
_cell_length_b 23.701718
_cell_length_c 26.793412
_cell_angle_alpha 90.000000
_cell_angle_beta 90.000000
_cell_angle_gamma 90.000000
_cell_volume 5839.148523
_symmetry_space_group_name_H-M "I B A M"
_symmetry_group_IT_number 72
_symmetry_cell_setting 'orthorhombic'
loop_
_space_group_symop_operation_xyz
x,y,z
-x,-y,z
x,-y,1/2-z
-x,y,1/2-z
-x,-y,-z
x,y,-z
-x,y,1/2+z
x,-y,1/2+z
1/2+x,1/2+y,1/2+z
1/2-x,1/2-y,1/2+z
1/2+x,1/2-y,-z
1/2-x,1/2+y,-z
1/2-x,1/2-y,1/2-z
1/2+x,1/2+y,1/2-z
1/2-x,1/2+y,z
1/2+x,1/2-y,z
loop_
_atom_site_type_symbol
_atom_site_label
_atom_site_fract_x
_atom_site_fract_y
_atom_site_fract_z
Si Si1 0.390016 0.636713 0.391120
Si Si2 0.000000 0.705059 0.250000
Si Si3 0.946318 0.305316 0.500000
Si Si4 0.956140 0.065207 0.694649
Si Si5 0.076325 0.771547 0.347695
Si Si6 0.189326 0.363760 0.322214
Si Si7 0.594163 0.681828 0.000000
Si Si8 0.436398 0.847261 0.103469
O O1 0.466399 0.592959 0.353579
O O2 0.430781 0.695987 0.364395
O O3 0.438156 0.647097 0.448839
O O4 0.219447 0.623570 0.392961
O O5 0.941021 0.744932 0.206659
O O6 0.875139 0.665307 0.272721
O O7 0.768580 0.304873 0.500000
O O8 0.994449 0.341007 0.547928
O O9 0.009716 0.241789 0.500000
O O10 0.787066 0.081886 0.688572
O O11 0.000000 0.088631 0.750000
O O12 0.000000 0.000000 0.694909
O O13 0.204858 0.817011 0.347412
O O14 0.096248 0.718058 0.382654
O O15 0.053184 0.371986 0.358591
#
# Coordination Sequence:
#
# PCOD9525675 Si02
#       8
#    16   8   8  16  16  16   8  16
#     4  10  21  35  57  77 117 150 190 229 271 326
#     4  10  20  30  50  79 121 142 186 210 270 326
#     4  10  20  30  52  77 128 158 186 215 256 321
#     4  10  24  44  63  78 102 139 189 242 301 337
#     4  10  19  30  48  79 115 159 183 210 258 326
#     4  10  22  33  54  79 110 148 187 226 275 330
#     4  10  20  34  51  85 111 164 189 219 265 321
#     4  10  19  33  50  83 118 151 185 220 264 323
#
# _framework density 17.810817
#
# number of rings (size 3 to 8) (size 9 to 14) (size 15 to 20)
#    0.000    2.000    1.538    2.308   10.769    0.000 
#    0.000    1.154    0.000    0.000    0.000    3.231 
#    0.000    0.000    0.000    0.000    0.000    0.000 
#
# Total GULP energy -289751.552090 kJ/mol
# GULP energy per Si atom -5572.145233 kJ/mol
# Density = 1.777028 g / cm^3
# Si number density = 17.810817 Si / 1000 Ang^3
#
#
#
# Elastic Constant Matrix: (Units=GPa)
#
#
# Indices 1 2 3 4 5 6 
#
# 1 76.5013 19.4653 38.9197 0.0000 0.0000 0.0000
# 2 19.4653 38.6314 32.2694 0.0000 0.0000 0.0000
# 3 38.9197 32.2694 139.6939 0.0000 0.0000 0.0000
# 4 0.0000 0.0000 0.0000 22.3499 0.0000 0.0000
# 5 0.0000 0.0000 0.0000 0.0000 12.1863 0.0000
# 6 0.0000 0.0000 0.0000 0.0000 0.0000 -3.7319
#
#
#
# Elastic Compliance Matrix: (Units=1/GPa)
#
#
# Indices 1 2 3 4 5 6 
#
# 1 0.016093 -0.005407 -0.003235 0.000000 0.000000 0.000000
# 2 -0.005407 0.033891 -0.006323 0.000000 0.000000 0.000000
# 3 -0.003235 -0.006323 0.009520 0.000000 0.000000 0.000000
# 4 0.000000 0.000000 0.000000 0.044743 0.000000 0.000000
# 5 0.000000 0.000000 0.000000 0.000000 0.082059 0.000000
# 6 0.000000 0.000000 0.000000 0.000000 0.000000 -0.267964
#
#
# Mechanical properties :
#
#
# Convention : Reuss Voigt Hill
#
# Bulk Modulus (GPa) = 33.81064 48.45949 41.13506
# Shear Modulus (GPa) = -119.41892 17.10567 -51.15663
#
# Velocity S-wave (km/s) = -8.19720 3.10241 -5.36513
# Velocity P-wave (km/s) = 8.40046 6.33247 3.90304
#
# Compressibility (1/GPa) = 0.02957649
#
# Stress axis : x y z
#
# Youngs Moduli (GPa) = 62.13866 29.50601 105.03964
#
# Poissons Ratio (x) = 0.15954 0.33976
# Poissons Ratio (y) = 0.33598 0.66412
# Poissons Ratio (z) = 0.20100 0.18655
#
# Static dielectric constant tensor:
#      x y z
#    x 1.652300 0.000000 0.000000 
#    y 0.000000 1.586010 0.000000 
#    z 0.000000 0.000000 1.831550 
# 
# From -- ./inp_files/47589.got.cif
#   From: 2010.05.17/outbox.cif.g08.bks.cpg/sg72_24_cif.got.tgz:47589.got - 2010.06.03 17:03:01.
