data_PCOD9525132
_publ_section_title
;
Structure prediction by ZEFSAII (Michael W. Deem and Ramdas Pophale) SiO2 
 PCOD9525132
Probable space group: I B A M
;
_chemical_formula_sum "Si O2"
_cell_formula_units_Z 96
_cell_length_a 21.361444
_cell_length_b 14.154900
_cell_length_c 16.989542
_cell_angle_alpha 90.000000
_cell_angle_beta 90.000000
_cell_angle_gamma 90.000000
_cell_volume 5137.112586
_symmetry_space_group_name_H-M "I B A M"
_symmetry_group_IT_number 72
_symmetry_cell_setting 'orthorhombic'
loop_
_space_group_symop_operation_xyz
x,y,z
-x,-y,z
x,-y,1/2-z
-x,y,1/2-z
-x,-y,-z
x,y,-z
-x,y,1/2+z
x,-y,1/2+z
1/2+x,1/2+y,1/2+z
1/2-x,1/2-y,1/2+z
1/2+x,1/2-y,-z
1/2-x,1/2+y,-z
1/2-x,1/2-y,1/2-z
1/2+x,1/2+y,1/2-z
1/2-x,1/2+y,z
1/2+x,1/2-y,z
loop_
_atom_site_type_symbol
_atom_site_label
_atom_site_fract_x
_atom_site_fract_y
_atom_site_fract_z
Si Si1 0.687753 0.748507 0.303242
Si Si2 0.937339 0.043431 0.839558
Si Si3 0.562446 0.238731 0.301069
Si Si4 0.314669 0.065344 0.593068
Si Si5 0.306789 0.532964 0.841593
Si Si6 0.063873 0.554421 0.905317
O O1 0.750000 0.750000 0.250000
O O2 0.625184 0.760468 0.251412
O O3 0.690381 0.835087 0.363189
O O4 0.686151 0.645512 0.342659
O O5 0.942695 0.155785 0.835807
O O6 0.935325 0.000000 0.750000
O O7 0.870689 0.013076 0.873866
O O8 0.000000 0.000000 0.876581
O O9 0.500000 0.222675 0.250000
O O10 0.566720 0.155927 0.364591
O O11 0.319053 0.080073 0.500000
O O12 0.253988 0.003539 0.613802
O O13 0.376661 0.008675 0.619169
O O14 0.299671 0.500000 0.750000
O O15 0.000000 0.500000 0.883990
O O16 0.065284 0.564694 0.000000
#
# Coordination Sequence:
#
# PCOD9525132 Si02
#       6
#    16  16  16  16  16  16
#     4  12  22  36  62  91 118 154 204 253 299 358
#     4  10  17  35  58  91 123 150 188 247 309 350
#     4  12  21  34  65  97 113 157 209 252 296 365
#     4  11  25  42  60  86 125 165 201 251 311 366
#     4  11  20  38  62  88 119 161 198 250 305 355
#     4  10  24  44  60  83 127 168 201 252 312 361
#
# _framework density 18.687541
#
# number of rings (size 3 to 8) (size 9 to 14) (size 15 to 20)
#    0.000    1.000    6.667    2.000    0.000    2.333 
#    0.000    5.000    0.000    4.000    0.000    0.000 
#    0.000    0.000    0.000    0.000    0.000    0.000 
#
# Total GULP energy -268209.261074 kJ/mol
# GULP energy per Si atom -5587.692939 kJ/mol
# Density = 1.864501 g / cm^3
# Si number density = 18.687541 Si / 1000 Ang^3
#
#
#
# Elastic Constant Matrix: (Units=GPa)
#
#
# Indices 1 2 3 4 5 6 
#
# 1 181.1682 61.0668 41.3591 0.0000 0.0000 0.0000
# 2 61.0668 191.6539 59.5537 0.0000 0.0000 0.0000
# 3 41.3591 59.5537 32.4944 0.0000 0.0000 0.0000
# 4 0.0000 0.0000 0.0000 16.0535 0.0000 0.0000
# 5 0.0000 0.0000 0.0000 0.0000 18.5034 0.0000
# 6 0.0000 0.0000 0.0000 0.0000 0.0000 33.4212
#
#
#
# Elastic Compliance Matrix: (Units=1/GPa)
#
#
# Indices 1 2 3 4 5 6 
#
# 1 0.007943 0.001418 -0.012710 0.000000 0.000000 0.000000
# 2 0.001418 0.012373 -0.024483 0.000000 0.000000 0.000000
# 3 -0.012710 -0.024483 0.091821 0.000000 0.000000 0.000000
# 4 0.000000 0.000000 0.000000 0.062292 0.000000 0.000000
# 5 0.000000 0.000000 0.000000 0.000000 0.054044 0.000000
# 6 0.000000 0.000000 0.000000 0.000000 0.000000 0.029921
#
#
# Mechanical properties :
#
#
# Convention : Reuss Voigt Hill
#
# Bulk Modulus (GPa) = 24.63631 81.03064 52.83347
# Shear Modulus (GPa) = 14.55720 29.81808 22.18764
#
# Velocity S-wave (km/s) = 2.79405 3.99885 3.44945
# Velocity P-wave (km/s) = 4.86013 8.04835 6.64819
#
# Compressibility (1/GPa) = 0.04059050
#
# Stress axis : x y z
#
# Youngs Moduli (GPa) = 125.89519 80.81861 10.89070
#
# Poissons Ratio (x) = -0.11463 0.13842
# Poissons Ratio (y) = -0.17857 0.26663
# Poissons Ratio (z) = 1.60008 1.97864
#
# Static dielectric constant tensor:
#      x y z
#    x 1.646560 0.000000 0.000000 
#    y 0.000000 1.615710 0.000000 
#    z 0.000000 0.000000 1.636370 
# 
# From -- ./inp_files/24107.got.cif
#   From: 2010.05.17/outbox.cif.g08.bks.cpg/sg72_13_cif.got.tgz:24107.got - 2010.06.03 17:03:01.
