data_PCOD9525041
_publ_section_title
;
Structure prediction by ZEFSAII (Michael W. Deem and Ramdas Pophale) SiO2 
 PCOD9525041
Probable space group: I B A M
;
_chemical_formula_sum "Si O2"
_cell_formula_units_Z 56
_cell_length_a 29.368753
_cell_length_b 12.822293
_cell_length_c 5.607297
_cell_angle_alpha 90.000000
_cell_angle_beta 90.000000
_cell_angle_gamma 90.000000
_cell_volume 2111.566500
_symmetry_space_group_name_H-M "I B A M"
_symmetry_group_IT_number 72
_symmetry_cell_setting 'orthorhombic'
loop_
_space_group_symop_operation_xyz
x,y,z
-x,-y,z
x,-y,1/2-z
-x,y,1/2-z
-x,-y,-z
x,y,-z
-x,y,1/2+z
x,-y,1/2+z
1/2+x,1/2+y,1/2+z
1/2-x,1/2-y,1/2+z
1/2+x,1/2-y,-z
1/2-x,1/2+y,-z
1/2-x,1/2-y,1/2-z
1/2+x,1/2+y,1/2-z
1/2-x,1/2+y,z
1/2+x,1/2-y,z
loop_
_atom_site_type_symbol
_atom_site_label
_atom_site_fract_x
_atom_site_fract_y
_atom_site_fract_z
Si Si1 0.062928 0.827060 0.500000
Si Si2 0.255864 0.383309 0.500000
Si Si3 0.870256 0.369036 0.500000
Si Si4 0.983963 0.676975 0.500000
Si Si5 0.907013 0.167024 0.000000
Si Si6 0.838897 0.589033 0.500000
Si Si7 0.298196 0.662184 0.500000
O O1 0.090222 0.715452 0.500000
O O2 0.076386 0.878862 0.251954
O O3 0.011456 0.787229 0.500000
O O4 0.211822 0.458928 0.500000
O O5 0.283770 0.387738 0.745481
O O6 0.229723 0.271181 0.500000
O O7 0.876025 0.494767 0.500000
O O8 0.844049 0.353532 0.747825
O O9 0.931779 0.716345 0.500000
O O10 0.000000 0.626101 0.750000
O O11 0.852831 0.165034 0.000000
#
# Coordination Sequence:
#
# PCOD9525041 Si02
#       7
#     8   8   8   8   8   8   8
#     4  10  17  28  46  66  86 108 143 185 213 252
#     4  10  19  30  41  60  84 104 135 178 221 257
#     4  10  19  30  47  66  81 110 149 178 220 265
#     4   8  16  27  41  63  85 109 138 176 217 257
#     4  10  18  29  44  65  88 112 142 179 226 265
#     4  10  20  32  44  63  87 111 142 187 226 262
#     4  10  19  28  43  61  80 108 137 171 218 270
#
# _framework density 26.520593000000002
#
# number of rings (size 3 to 8) (size 9 to 14) (size 15 to 20)
#    0.000    2.286    0.000    4.286    0.000    2.286 
#    0.000    0.000    0.000    0.000    0.000  133.000 
#    0.000    0.000    0.000    0.000    0.000    0.000 
#
# Total GULP energy -156258.931549 kJ/mol
# GULP energy per Si atom -5580.676127 kJ/mol
# Density = 2.646023 g / cm^3
# Si number density = 26.520593 Si / 1000 Ang^3
#
#
#
# Elastic Constant Matrix: (Units=GPa)
#
#
# Indices 1 2 3 4 5 6 
#
# 1 145.1601 15.8493 74.1880 0.0000 0.0000 0.0000
# 2 15.8493 84.7741 17.5976 0.0000 0.0000 0.0000
# 3 74.1880 17.5976 338.1635 0.0002 0.0001 0.0000
# 4 0.0000 0.0000 0.0002 -12.6463 0.0000 0.0000
# 5 0.0000 0.0000 0.0001 0.0000 59.9375 0.0000
# 6 0.0000 0.0000 0.0000 0.0000 0.0000 -0.3631
#
#
#
# Elastic Compliance Matrix: (Units=1/GPa)
#
#
# Indices 1 2 3 4 5 6 
#
# 1 0.007863 -0.001124 -0.001667 0.000000 0.000000 0.000000
# 2 -0.001124 0.012086 -0.000382 0.000000 0.000000 0.000000
# 3 -0.001667 -0.000382 0.003343 0.000000 0.000000 0.000000
# 4 0.000000 0.000000 0.000000 -0.079075 0.000000 -0.000007
# 5 0.000000 0.000000 0.000000 0.000000 0.016684 0.000000
# 6 0.000000 0.000000 0.000000 -0.000007 0.000000 -2.753789
#
#
# Mechanical properties :
#
#
# Convention : Reuss Voigt Hill
#
# Bulk Modulus (GPa) = 59.01263 87.04086 73.02674
# Shear Modulus (GPa) = -1.79798 40.08314 19.14258
#
# Velocity S-wave (km/s) = -0.82428 3.89189 2.68955
# Velocity P-wave (km/s) = 4.62537 7.28609 6.10250
#
# Compressibility (1/GPa) = 0.01694552
#
# Stress axis : x y z
#
# Youngs Moduli (GPa) = 127.17044 82.74318 299.16152
#
# Poissons Ratio (x) = 0.09302 0.49859
# Poissons Ratio (y) = 0.14296 0.11437
# Poissons Ratio (z) = 0.21195 0.03163
#
# Static dielectric constant tensor:
#      x y z
#    x 2.106930 0.000000 0.000000 
#    y 0.000000 2.185440 0.000000 
#    z 0.000000 0.000000 2.127360 
# 
# From -- ./inp_files/658.got.cif
#   From: 2010.05.17/outbox.cif.g08.bks.cpg/sg72_1_cif.got.tgz:658.got - 2010.06.03 17:03:01.
