data_PCOD9525161
_publ_section_title
;
Structure prediction by ZEFSAII (Michael W. Deem and Ramdas Pophale) SiO2 
 PCOD9525161
Probable space group: I B A M
;
_chemical_formula_sum "Si O2"
_cell_formula_units_Z 80
_cell_length_a 24.376597
_cell_length_b 25.336327
_cell_length_c 8.443327
_cell_angle_alpha 90.000000
_cell_angle_beta 90.000000
_cell_angle_gamma 90.000000
_cell_volume 5214.712172
_symmetry_space_group_name_H-M "I B A M"
_symmetry_group_IT_number 72
_symmetry_cell_setting 'orthorhombic'
loop_
_space_group_symop_operation_xyz
x,y,z
-x,-y,z
x,-y,1/2-z
-x,y,1/2-z
-x,-y,-z
x,y,-z
-x,y,1/2+z
x,-y,1/2+z
1/2+x,1/2+y,1/2+z
1/2-x,1/2-y,1/2+z
1/2+x,1/2-y,-z
1/2-x,1/2+y,-z
1/2-x,1/2-y,1/2-z
1/2+x,1/2+y,1/2-z
1/2-x,1/2+y,z
1/2+x,1/2-y,z
loop_
_atom_site_type_symbol
_atom_site_label
_atom_site_fract_x
_atom_site_fract_y
_atom_site_fract_z
Si Si1 0.271305 0.668940 0.808735
Si Si2 0.335228 0.231314 0.691599
Si Si3 0.260524 0.943642 0.310265
Si Si4 0.885674 0.443414 0.689922
Si Si5 0.439429 0.834066 0.191184
O O1 0.318916 0.709419 0.756958
O O2 0.214168 0.694104 0.750257
O O3 0.272723 0.608144 0.756849
O O4 0.270657 0.669251 0.000000
O O5 0.334858 0.230054 0.500000
O O6 0.392979 0.207379 0.745286
O O7 0.261940 0.944929 0.500000
O O8 0.323168 0.937714 0.250236
O O9 0.239674 0.000000 0.250000
O O10 0.906692 0.500000 0.750000
O O11 0.884365 0.444222 0.500000
O O12 0.920373 0.392734 0.743073
O O13 0.500000 0.822029 0.250000
O O14 0.439468 0.834004 0.000000
#
# Coordination Sequence:
#
# PCOD9525161 Si02
#       5
#    16  16  16  16  16
#     4   9  17  28  46  67  86 110 141 175 211 258
#     4   9  17  31  46  63  86 111 141 176 217 257
#     4  10  18  27  42  65  89 115 142 173 211 253
#     4  10  19  31  44  60  81 112 148 184 219 250
#     4  10  21  33  46  61  83 113 146 183 220 255
#
# _framework density 15.341210999999999
#
# number of rings (size 3 to 8) (size 9 to 14) (size 15 to 20)
#    0.000    2.400    2.000    2.400    0.000    3.600 
#    0.000    2.000    0.000    0.000    0.000    0.000 
#    0.000    0.800    0.000   10.000    0.000    0.000 
#
# Total GULP energy -222930.215265 kJ/mol
# GULP energy per Si atom -5573.255382 kJ/mol
# Density = 1.530629 g / cm^3
# Si number density = 15.341211 Si / 1000 Ang^3
#
#
#
# Elastic Constant Matrix: (Units=GPa)
#
#
# Indices 1 2 3 4 5 6 
#
# 1 88.2315 76.6618 11.9380 0.0000 0.0000 0.0000
# 2 76.6618 150.9005 18.7170 0.0000 0.0000 0.0000
# 3 11.9380 18.7170 14.5305 0.0000 0.0000 0.0000
# 4 0.0000 0.0000 0.0000 15.1713 0.0000 0.0000
# 5 0.0000 0.0000 0.0000 0.0000 15.8440 0.0000
# 6 0.0000 0.0000 0.0000 0.0000 0.0000 22.1120
#
#
#
# Elastic Compliance Matrix: (Units=1/GPa)
#
#
# Indices 1 2 3 4 5 6 
#
# 1 0.020491 -0.009904 -0.004077 0.000000 0.000000 0.000000
# 2 -0.009904 0.012674 -0.008189 0.000000 0.000000 0.000000
# 3 -0.004077 -0.008189 0.082719 0.000000 0.000000 0.000000
# 4 0.000000 0.000000 0.000000 0.065914 0.000000 0.000000
# 5 0.000000 0.000000 0.000000 0.000000 0.063115 0.000000
# 6 0.000000 0.000000 0.000000 0.000000 0.000000 0.045224
#
#
# Mechanical properties :
#
#
# Convention : Reuss Voigt Hill
#
# Bulk Modulus (GPa) = 13.97748 52.03289 33.00518
# Shear Modulus (GPa) = 13.95378 20.38185 17.16782
#
# Velocity S-wave (km/s) = 3.01917 3.64891 3.34887
# Velocity P-wave (km/s) = 4.61353 7.19329 6.04268
#
# Compressibility (1/GPa) = 0.07154367
#
# Stress axis : x y z
#
# Youngs Moduli (GPa) = 48.80185 78.90006 12.08916
#
# Poissons Ratio (x) = 0.78145 0.04929
# Poissons Ratio (y) = 0.48335 0.09900
# Poissons Ratio (z) = 0.19897 0.64610
#
# Static dielectric constant tensor:
#      x y z
#    x 1.479090 0.000000 0.000000 
#    y 0.000000 1.552740 0.000000 
#    z 0.000000 0.000000 1.644580 
# 
# From -- ./inp_files/6238.got.cif
#   From: 2010.05.17/outbox.cif.g08.bks.cpg/sg72_4_cif.got.tgz:6238.got - 2010.06.03 17:03:01.
