data_PCOD9525205
_publ_section_title
;
Structure prediction by ZEFSAII (Michael W. Deem and Ramdas Pophale) SiO2 
 PCOD9525205
Probable space group: I B A M
;
_chemical_formula_sum "Si O2"
_cell_formula_units_Z 80
_cell_length_a 24.705426
_cell_length_b 24.280926
_cell_length_c 9.065524
_cell_angle_alpha 90.000000
_cell_angle_beta 90.000000
_cell_angle_gamma 90.000000
_cell_volume 5438.141507
_symmetry_space_group_name_H-M "I B A M"
_symmetry_group_IT_number 72
_symmetry_cell_setting 'orthorhombic'
loop_
_space_group_symop_operation_xyz
x,y,z
-x,-y,z
x,-y,1/2-z
-x,y,1/2-z
-x,-y,-z
x,y,-z
-x,y,1/2+z
x,-y,1/2+z
1/2+x,1/2+y,1/2+z
1/2-x,1/2-y,1/2+z
1/2+x,1/2-y,-z
1/2-x,1/2+y,-z
1/2-x,1/2-y,1/2-z
1/2+x,1/2+y,1/2-z
1/2-x,1/2+y,z
1/2+x,1/2-y,z
loop_
_atom_site_type_symbol
_atom_site_label
_atom_site_fract_x
_atom_site_fract_y
_atom_site_fract_z
Si Si1 0.943466 0.741137 0.324015
Si Si2 0.229398 0.668514 0.175999
Si Si3 0.164599 0.767890 0.674996
Si Si4 0.943899 0.610655 0.676444
Si Si5 0.169473 0.557777 0.822634
O O1 0.945862 0.746912 0.500000
O O2 0.892262 0.772566 0.257202
O O3 0.935769 0.675683 0.290265
O O4 0.000000 0.757696 0.250000
O O5 0.193942 0.713023 0.263728
O O6 0.292042 0.683454 0.202376
O O7 0.210367 0.607369 0.214933
O O8 0.218855 0.676371 0.000000
O O9 0.156111 0.763119 0.500000
O O10 0.948813 0.605879 0.500000
O O11 0.890814 0.577384 0.724001
O O12 0.000000 0.592642 0.750000
O O13 0.183208 0.500000 0.750000
O O14 0.169092 0.552410 0.000000
#
# Coordination Sequence:
#
# PCOD9525205 Si02
#       5
#    16  16  16  16  16
#     4  10  18  30  46  66  94 122 149 185 227 270
#     4   9  18  33  47  63  91 120 149 187 231 273
#     4  10  18  28  48  71  89 116 151 185 226 277
#     4   9  18  31  45  59  83 116 151 189 228 261
#     4  10  20  34  47  62  86 118 153 194 233 265
#
# _framework density 14.710908999999999
#
# number of rings (size 3 to 8) (size 9 to 14) (size 15 to 20)
#    0.000    2.400    2.000    1.200    0.000    3.600 
#    0.000    2.000    0.000    0.000    0.000    0.000 
#    0.000    0.800    0.000    9.200    0.000    2.800 
#
# Total GULP energy -223039.832486 kJ/mol
# GULP energy per Si atom -5575.995812 kJ/mol
# Density = 1.467743 g / cm^3
# Si number density = 14.710909 Si / 1000 Ang^3
#
#
#
# Elastic Constant Matrix: (Units=GPa)
#
#
# Indices 1 2 3 4 5 6 
#
# 1 119.0951 59.8571 52.3957 0.0000 0.0000 0.0000
# 2 59.8571 83.6442 32.2079 0.0000 0.0000 0.0000
# 3 52.3957 32.2079 37.2977 0.0000 0.0000 0.0000
# 4 0.0000 0.0000 0.0000 19.2517 0.0000 0.0000
# 5 0.0000 0.0000 0.0000 0.0000 27.2235 0.0000
# 6 0.0000 0.0000 0.0000 0.0000 0.0000 18.7537
#
#
#
# Elastic Compliance Matrix: (Units=1/GPa)
#
#
# Indices 1 2 3 4 5 6 
#
# 1 0.024000 -0.006281 -0.028292 0.000000 0.000000 0.000000
# 2 -0.006281 0.019555 -0.008063 0.000000 0.000000 0.000000
# 3 -0.028292 -0.008063 0.073518 0.000000 0.000000 0.000000
# 4 0.000000 0.000000 0.000000 0.051943 0.000000 0.000000
# 5 0.000000 0.000000 0.000000 0.000000 0.036733 0.000000
# 6 0.000000 0.000000 0.000000 0.000000 0.000000 0.053323
#
#
# Mechanical properties :
#
#
# Convention : Reuss Voigt Hill
#
# Bulk Modulus (GPa) = 31.44448 58.77317 45.10883
# Shear Modulus (GPa) = 14.08671 19.41753 16.75212
#
# Velocity S-wave (km/s) = 3.09782 3.63704 3.37821
# Velocity P-wave (km/s) = 5.84950 7.59449 6.77838
#
# Compressibility (1/GPa) = 0.03180209
#
# Stress axis : x y z
#
# Youngs Moduli (GPa) = 41.66582 51.13823 13.60213
#
# Poissons Ratio (x) = 0.32120 0.38483
# Poissons Ratio (y) = 0.26171 0.10967
# Poissons Ratio (z) = 1.17880 0.41231
#
# Static dielectric constant tensor:
#      x y z
#    x 1.496100 0.000000 0.000000 
#    y 0.000000 1.464560 0.000000 
#    z 0.000000 0.000000 1.490270 
# 
# From -- ./inp_files/4764.got.cif
#   From: 2010.05.17/outbox.cif.g08.bks.cpg/sg72_3_cif.got.tgz:4764.got - 2010.06.03 17:03:01.
