data_PCOD9525930
_publ_section_title
;
Structure prediction by ZEFSAII (Michael W. Deem and Ramdas Pophale) SiO2 
 PCOD9525930
Probable space group: I B A M
;
_chemical_formula_sum "Si O2"
_cell_formula_units_Z 96
_cell_length_a 29.238204
_cell_length_b 20.634394
_cell_length_c 8.703357
_cell_angle_alpha 90.000000
_cell_angle_beta 90.000000
_cell_angle_gamma 90.000000
_cell_volume 5250.845125
_symmetry_space_group_name_H-M "I B A M"
_symmetry_group_IT_number 72
_symmetry_cell_setting 'orthorhombic'
loop_
_space_group_symop_operation_xyz
x,y,z
-x,-y,z
x,-y,1/2-z
-x,y,1/2-z
-x,-y,-z
x,y,-z
-x,y,1/2+z
x,-y,1/2+z
1/2+x,1/2+y,1/2+z
1/2-x,1/2-y,1/2+z
1/2+x,1/2-y,-z
1/2-x,1/2+y,-z
1/2-x,1/2-y,1/2-z
1/2+x,1/2+y,1/2-z
1/2-x,1/2+y,z
1/2+x,1/2-y,z
loop_
_atom_site_type_symbol
_atom_site_label
_atom_site_fract_x
_atom_site_fract_y
_atom_site_fract_z
Si Si1 0.593222 0.699808 0.182217
Si Si2 0.631401 0.072773 0.185878
Si Si3 0.777879 0.651316 0.176022
Si Si4 0.050984 0.336370 0.313849
Si Si5 0.448844 0.565537 0.314867
Si Si6 0.809833 0.801171 0.173111
O O1 0.568688 0.765136 0.240010
O O2 0.573272 0.632275 0.240680
O O3 0.646647 0.698623 0.218032
O O4 0.586191 0.700526 0.000000
O O5 0.678955 0.108965 0.230536
O O6 0.588271 0.112469 0.252264
O O7 0.631235 0.000000 0.250000
O O8 0.629010 0.073007 0.000000
O O9 0.793134 0.726562 0.173720
O O10 0.731548 0.652796 0.273845
O O11 0.767638 0.632251 0.000000
O O12 0.050256 0.338499 0.500000
O O13 0.000000 0.348026 0.250000
O O14 0.426379 0.500000 0.250000
O O15 0.500000 0.566609 0.250000
O O16 0.449206 0.562878 0.500000
O O17 0.823966 0.817378 0.000000
#
# Coordination Sequence:
#
# PCOD9525930 Si02
#       6
#    16  16  16  16  16  16
#     4  10  21  36  56  84 117 151 188 234 288 340
#     4  11  23  41  62  86 117 154 196 241 293 350
#     4   9  19  36  56  82 114 146 181 227 278 334
#     4  11  23  39  60  86 116 152 194 245 296 347
#     4  10  20  35  54  78 108 147 188 229 277 334
#     4  10  19  32  57  87 113 143 183 229 278 333
#
# _framework density 18.282771
#
# number of rings (size 3 to 8) (size 9 to 14) (size 15 to 20)
#    0.000    1.833    1.667    3.000    0.000    4.333 
#    0.000    2.500    0.000    0.000    0.000    0.000 
#    0.000    0.000    0.000    0.000    0.000    0.000 
#
# Total GULP energy -267727.280339 kJ/mol
# GULP energy per Si atom -5577.651674 kJ/mol
# Density = 1.824116 g / cm^3
# Si number density = 18.282771 Si / 1000 Ang^3
#
#
#
# Elastic Constant Matrix: (Units=GPa)
#
#
# Indices 1 2 3 4 5 6 
#
# 1 77.5746 51.6978 9.3414 0.0000 0.0000 0.0000
# 2 51.6978 120.6472 34.2886 0.0000 0.0000 0.0000
# 3 9.3414 34.2886 33.1382 0.0000 0.0000 0.0000
# 4 0.0000 0.0000 0.0000 24.8751 0.0000 0.0000
# 5 0.0000 0.0000 0.0000 0.0000 19.3351 0.0000
# 6 0.0000 0.0000 0.0000 0.0000 0.0000 -185.2180
#
#
#
# Elastic Compliance Matrix: (Units=1/GPa)
#
#
# Indices 1 2 3 4 5 6 
#
# 1 0.018451 -0.009106 0.004221 0.000000 0.000000 0.000000
# 2 -0.009106 0.016235 -0.014232 0.000000 0.000000 0.000000
# 3 0.004221 -0.014232 0.043713 0.000000 0.000000 0.000000
# 4 0.000000 0.000000 0.000000 0.040201 0.000000 0.000000
# 5 0.000000 0.000000 0.000000 0.000000 0.051719 0.000000
# 6 0.000000 0.000000 0.000000 0.000000 0.000000 -0.005399
#
#
# Mechanical properties :
#
#
# Convention : Reuss Voigt Hill
#
# Bulk Modulus (GPa) = 24.89733 46.89061 35.89397
# Shear Modulus (GPa) = 23.09010 -19.13274 1.97868
#
# Velocity S-wave (km/s) = 3.55765 -3.23846 1.04145
# Velocity P-wave (km/s) = 5.52479 3.42339 4.59581
#
# Compressibility (1/GPa) = 0.04016495
#
# Stress axis : x y z
#
# Youngs Moduli (GPa) = 54.19773 61.59390 22.87651
#
# Poissons Ratio (x) = 0.56087 -0.09656
# Poissons Ratio (y) = 0.49352 0.32558
# Poissons Ratio (z) = -0.22876 0.87661
#
# Static dielectric constant tensor:
#      x y z
#    x 1.614440 0.000000 0.000000 
#    y 0.000000 1.641800 0.000000 
#    z 0.000000 0.000000 1.628430 
# 
# From -- ./inp_files/5962.got.cif
#   From: 2010.05.17/outbox.cif.g08.bks.cpg/sg72_3_cif.got.tgz:5962.got - 2010.06.03 17:03:01.
