data_PCOD9525221
_publ_section_title
;
Structure prediction by ZEFSAII (Michael W. Deem and Ramdas Pophale) SiO2 
 PCOD9525221
Probable space group: I B A M
;
_chemical_formula_sum "Si O2"
_cell_formula_units_Z 128
_cell_length_a 24.159612
_cell_length_b 18.425959
_cell_length_c 18.062217
_cell_angle_alpha 90.000000
_cell_angle_beta 90.000000
_cell_angle_gamma 90.000000
_cell_volume 8040.649133
_symmetry_space_group_name_H-M "I B A M"
_symmetry_group_IT_number 72
_symmetry_cell_setting 'orthorhombic'
loop_
_space_group_symop_operation_xyz
x,y,z
-x,-y,z
x,-y,1/2-z
-x,y,1/2-z
-x,-y,-z
x,y,-z
-x,y,1/2+z
x,-y,1/2+z
1/2+x,1/2+y,1/2+z
1/2-x,1/2-y,1/2+z
1/2+x,1/2-y,-z
1/2-x,1/2+y,-z
1/2-x,1/2-y,1/2-z
1/2+x,1/2+y,1/2-z
1/2-x,1/2+y,z
1/2+x,1/2-y,z
loop_
_atom_site_type_symbol
_atom_site_label
_atom_site_fract_x
_atom_site_fract_y
_atom_site_fract_z
Si Si1 0.815924 0.307140 0.411758
Si Si2 0.212782 0.914944 0.912037
Si Si3 0.269515 0.035430 0.828642
Si Si4 0.245458 0.294846 0.673973
Si Si5 0.855612 0.221336 0.089438
Si Si6 0.386084 0.968713 0.589273
Si Si7 0.069589 0.623533 0.409637
Si Si8 0.451166 0.823488 0.410153
O O1 0.817869 0.299409 0.500000
O O2 0.767730 0.366187 0.396147
O O3 0.796502 0.233129 0.375047
O O4 0.874909 0.335595 0.385084
O O5 0.161485 0.861712 0.893434
O O6 0.221172 0.988609 0.867411
O O7 0.211801 0.929155 0.000000
O O8 0.254949 0.119334 0.817050
O O9 0.281644 0.000000 0.750000
O O10 0.324673 0.028536 0.878190
O O11 0.250000 0.250000 0.750000
O O12 0.190057 0.270515 0.630363
O O13 0.915921 0.252134 0.110389
O O14 0.848742 0.229642 0.000000
O O15 0.381971 0.969860 0.500000
O O16 0.422087 0.039220 0.611345
O O17 0.415727 0.894281 0.611498
O O18 0.068799 0.624453 0.500000
O O19 0.013572 0.662270 0.383589
O O20 0.453617 0.823103 0.500000
#
# Coordination Sequence:
#
# PCOD9525221 Si02
#       8
#    16  16  16  16  16  16  16  16
#     4   9  17  31  49  70  94 123 155 193 235 279
#     4   9  17  30  48  69  94 124 159 197 241 288
#     4  12  22  31  46  68  94 128 162 198 247 288
#     4  11  22  33  47  66  93 126 161 202 243 289
#     4   9  17  31  49  70  95 123 158 199 236 279
#     4  10  18  29  46  70  98 129 164 194 224 278
#     4   9  16  27  47  72  99 127 158 195 230 275
#     4   9  16  27  46  73  98 126 163 195 228 275
#
# _framework density 15.919112999999999
#
# number of rings (size 3 to 8) (size 9 to 14) (size 15 to 20)
#    0.000    2.250    2.500    3.375    0.000    3.000 
#    0.000    0.000    0.000    3.750    0.000    0.875 
#    0.000    6.000    0.000    0.000    0.000    0.000 
#
# Total GULP energy -356640.887719 kJ/mol
# GULP energy per Si atom -5572.513871 kJ/mol
# Density = 1.588288 g / cm^3
# Si number density = 15.919113 Si / 1000 Ang^3
#
#
#
# Elastic Constant Matrix: (Units=GPa)
#
#
# Indices 1 2 3 4 5 6 
#
# 1 76.5811 42.9809 11.0297 0.0000 0.0000 0.0000
# 2 42.9809 100.9242 24.8973 0.0000 0.0000 0.0000
# 3 11.0297 24.8973 20.6280 0.0000 0.0000 0.0000
# 4 0.0000 0.0000 0.0000 23.3197 0.0000 0.0000
# 5 0.0000 0.0000 0.0000 0.0000 1.7348 0.0000
# 6 0.0000 0.0000 0.0000 0.0000 0.0000 21.6228
#
#
#
# Elastic Compliance Matrix: (Units=1/GPa)
#
#
# Indices 1 2 3 4 5 6 
#
# 1 0.017163 -0.007185 -0.000506 0.000000 0.000000 0.000000
# 2 -0.007185 0.017117 -0.016818 0.000000 0.000000 0.000000
# 3 -0.000506 -0.016818 0.069047 0.000000 0.000000 0.000000
# 4 0.000000 0.000000 0.000000 0.042882 0.000000 0.000000
# 5 0.000000 0.000000 0.000000 0.000000 0.576422 0.000000
# 6 0.000000 0.000000 0.000000 0.000000 0.000000 0.046247
#
#
# Mechanical properties :
#
#
# Convention : Reuss Voigt Hill
#
# Bulk Modulus (GPa) = 18.41259 39.54989 28.98124
# Shear Modulus (GPa) = 5.98087 17.28383 11.63235
#
# Velocity S-wave (km/s) = 1.94041 3.29861 2.70611
# Velocity P-wave (km/s) = 4.07575 6.27742 5.29234
#
# Compressibility (1/GPa) = 0.05431066
#
# Stress axis : x y z
#
# Youngs Moduli (GPa) = 58.26411 58.42117 14.48292
#
# Poissons Ratio (x) = 0.41974 0.00732
# Poissons Ratio (y) = 0.41861 0.24358
# Poissons Ratio (z) = 0.02945 0.98253
#
# Static dielectric constant tensor:
#      x y z
#    x 1.537480 0.000000 0.000000 
#    y 0.000000 1.546380 0.000000 
#    z 0.000000 0.000000 1.550840 
# 
# From -- ./inp_files/33547.got.cif
#   From: 2010.05.17/outbox.cif.g08.bks.cpg/sg72_17_cif.got.tgz:33547.got - 2010.06.03 17:03:01.
