data_PCOD9525297
_publ_section_title
;
Structure prediction by ZEFSAII (Michael W. Deem and Ramdas Pophale) SiO2 
 PCOD9525297
Probable space group: I B A M
;
_chemical_formula_sum "Si O2"
_cell_formula_units_Z 112
_cell_length_a 26.045964
_cell_length_b 12.054517
_cell_length_c 13.660540
_cell_angle_alpha 90.000000
_cell_angle_beta 90.000000
_cell_angle_gamma 90.000000
_cell_volume 4289.020451
_symmetry_space_group_name_H-M "I B A M"
_symmetry_group_IT_number 72
_symmetry_cell_setting 'orthorhombic'
loop_
_space_group_symop_operation_xyz
x,y,z
-x,-y,z
x,-y,1/2-z
-x,y,1/2-z
-x,-y,-z
x,y,-z
-x,y,1/2+z
x,-y,1/2+z
1/2+x,1/2+y,1/2+z
1/2-x,1/2-y,1/2+z
1/2+x,1/2-y,-z
1/2-x,1/2+y,-z
1/2-x,1/2-y,1/2-z
1/2+x,1/2+y,1/2-z
1/2-x,1/2+y,z
1/2+x,1/2-y,z
loop_
_atom_site_type_symbol
_atom_site_label
_atom_site_fract_x
_atom_site_fract_y
_atom_site_fract_z
Si Si1 0.316353 0.552266 0.381331
Si Si2 0.353511 0.321122 0.380390
Si Si3 0.531911 0.686791 0.616678
Si Si4 0.584007 0.688765 0.880664
Si Si5 0.205623 0.600845 0.620038
Si Si6 0.859058 0.591922 0.393153
Si Si7 0.450122 0.946286 0.857189
O O1 0.316308 0.553393 0.500000
O O2 0.317534 0.423615 0.352209
O O3 0.370186 0.607262 0.353508
O O4 0.264903 0.615673 0.351638
O O5 0.355178 0.314385 0.500000
O O6 0.411894 0.353545 0.349568
O O7 0.330235 0.203242 0.346215
O O8 0.530374 0.662526 0.500000
O O9 0.473979 0.660839 0.653642
O O10 0.539773 0.817449 0.635201
O O11 0.606239 0.809594 0.849579
O O12 0.579802 0.691974 0.000000
O O13 0.203509 0.600446 0.500000
O O14 0.188384 0.475541 0.650026
O O15 0.842622 0.635070 0.500000
O O16 0.898241 0.489063 0.403059
O O17 0.500000 0.000000 0.902832
O O18 0.447240 0.000000 0.750000
#
# Coordination Sequence:
#
# PCOD9525297 Si02
#       7
#    16  16  16  16  16  16  16
#     4   9  18  29  41  69 107 136 171 216 258 300
#     4   9  17  28  44  67  99 137 171 209 255 304
#     4  10  18  31  50  72 102 138 173 208 258 319
#     4   9  18  28  44  69 100 136 167 207 257 306
#     4   9  17  27  44  68  99 136 171 210 258 306
#     4  10  18  30  49  73 101 133 168 206 256 312
#     4  11  21  31  46  74 109 130 165 213 261 308
#
# _framework density 26.113188999999998
#
# number of rings (size 3 to 8) (size 9 to 14) (size 15 to 20)
#    0.000    2.429    2.857    0.429    2.000    1.143 
#    0.000    2.857    0.000    0.000    0.000    5.000 
#    0.000    0.000    0.000    0.000    0.000    0.000 
#
# Total GULP energy -312798.551125 kJ/mol
# GULP energy per Si atom -5585.688413 kJ/mol
# Density = 2.605375 g / cm^3
# Si number density = 26.113189 Si / 1000 Ang^3
#
#
#
# Elastic Constant Matrix: (Units=GPa)
#
#
# Indices 1 2 3 4 5 6 
#
# 1 199.7070 60.3000 31.2842 0.0000 0.0000 0.0000
# 2 60.3000 64.6039 -12.5931 0.0000 0.0000 0.0000
# 3 31.2842 -12.5931 98.4860 0.0000 0.0000 0.0000
# 4 0.0000 0.0000 0.0000 6.4780 0.0000 0.0000
# 5 0.0000 0.0000 0.0000 0.0000 25.8198 0.0000
# 6 0.0000 0.0000 0.0000 0.0000 0.0000 37.3023
#
#
#
# Elastic Compliance Matrix: (Units=1/GPa)
#
#
# Indices 1 2 3 4 5 6 
#
# 1 0.008056 -0.008223 -0.003610 0.000000 0.000000 0.000000
# 2 -0.008223 0.024268 0.005715 0.000000 0.000000 0.000000
# 3 -0.003610 0.005715 0.012031 0.000000 0.000000 0.000000
# 4 0.000000 0.000000 0.000000 0.154369 0.000000 0.000000
# 5 0.000000 0.000000 0.000000 0.000000 0.038730 0.000000
# 6 0.000000 0.000000 0.000000 0.000000 0.000000 0.026808
#
#
# Mechanical properties :
#
#
# Convention : Reuss Voigt Hill
#
# Bulk Modulus (GPa) = 31.13438 57.86436 44.49937
# Shear Modulus (GPa) = 17.40923 32.84041 25.12482
#
# Velocity S-wave (km/s) = 2.58482 3.55014 3.10522
# Velocity P-wave (km/s) = 4.56696 6.24594 5.47124
#
# Compressibility (1/GPa) = 0.03211883
#
# Stress axis : x y z
#
# Youngs Moduli (GPa) = 124.13565 41.20659 83.11641
#
# Poissons Ratio (x) = 0.33883 0.30008
# Poissons Ratio (y) = 1.02074 -0.47501
# Poissons Ratio (z) = 0.44817 -0.23550
#
# Static dielectric constant tensor:
#      x y z
#    x 2.072050 0.000000 0.000000 
#    y 0.000000 2.005570 0.000000 
#    z 0.000000 0.000000 2.138520 
# 
# From -- ./inp_files/40356.got.cif
#   From: 2010.05.17/outbox.cif.g08.bks.cpg/sg72_21_cif.got.tgz:40356.got - 2010.06.03 17:03:01.
