data_PCOD9525396
_publ_section_title
;
Structure prediction by ZEFSAII (Michael W. Deem and Ramdas Pophale) SiO2 
 PCOD9525396
Probable space group: I B A M
;
_chemical_formula_sum "Si O2"
_cell_formula_units_Z 96
_cell_length_a 25.976993
_cell_length_b 21.944844
_cell_length_c 8.771608
_cell_angle_alpha 90.000000
_cell_angle_beta 90.000000
_cell_angle_gamma 90.000000
_cell_volume 5000.352145
_symmetry_space_group_name_H-M "I B A M"
_symmetry_group_IT_number 72
_symmetry_cell_setting 'orthorhombic'
loop_
_space_group_symop_operation_xyz
x,y,z
-x,-y,z
x,-y,1/2-z
-x,y,1/2-z
-x,-y,-z
x,y,-z
-x,y,1/2+z
x,-y,1/2+z
1/2+x,1/2+y,1/2+z
1/2-x,1/2-y,1/2+z
1/2+x,1/2-y,-z
1/2-x,1/2+y,-z
1/2-x,1/2-y,1/2-z
1/2+x,1/2+y,1/2-z
1/2-x,1/2+y,z
1/2+x,1/2-y,z
loop_
_atom_site_type_symbol
_atom_site_label
_atom_site_fract_x
_atom_site_fract_y
_atom_site_fract_z
Si Si1 0.945042 0.932387 0.316525
Si Si2 0.554260 0.889676 0.179029
Si Si3 0.727839 0.436667 0.315943
Si Si4 0.854935 0.150596 0.684002
Si Si5 0.886916 0.285680 0.323575
Si Si6 0.342292 0.911314 0.823981
O O1 0.945875 0.934160 0.500000
O O2 0.900964 0.889056 0.253568
O O3 0.000000 0.911761 0.250000
O O4 0.936565 0.000000 0.250000
O O5 0.500000 0.908386 0.250000
O O6 0.568243 0.820002 0.230383
O O7 0.604752 0.926032 0.237492
O O8 0.550945 0.893615 0.000000
O O9 0.705801 0.500000 0.250000
O O10 0.725795 0.436949 0.500000
O O11 0.696436 0.379621 0.251260
O O12 0.787554 0.433035 0.265093
O O13 0.854019 0.146621 0.500000
O O14 0.866212 0.220700 0.727414
O O15 0.903952 0.280412 0.500000
O O16 0.842505 0.337266 0.319911
O O17 0.347671 0.930220 0.000000
#
# Coordination Sequence:
#
# PCOD9525396 Si02
#       6
#    16  16  16  16  16  16
#     4  11  22  38  57  77 105 142 188 235 284 332
#     4  10  18  31  55  83 113 147 183 223 271 332
#     4  11  23  39  60  83 113 148 189 236 282 335
#     4  11  22  37  57  82 113 147 188 233 278 332
#     4   8  18  36  54  78 110 144 180 222 272 326
#     4   8  18  38  57  80 112 149 187 229 280 331
#
# _framework density 19.198647000000001
#
# number of rings (size 3 to 8) (size 9 to 14) (size 15 to 20)
#    1.000    1.167    0.000    4.500    0.000    4.000 
#    0.000    0.000    0.000    0.500    0.000    3.500 
#    0.000    0.000    0.000    0.000    0.000    0.000 
#
# Total GULP energy -267496.599771 kJ/mol
# GULP energy per Si atom -5572.845829 kJ/mol
# Density = 1.915495 g / cm^3
# Si number density = 19.198647 Si / 1000 Ang^3
#
#
#
# Elastic Constant Matrix: (Units=GPa)
#
#
# Indices 1 2 3 4 5 6 
#
# 1 103.1558 31.9594 34.5094 0.0000 0.0000 0.0000
# 2 31.9594 45.3661 20.3989 0.0000 0.0000 0.0000
# 3 34.5094 20.3989 82.6817 0.0000 0.0000 0.0000
# 4 0.0000 0.0000 0.0000 10.7709 0.0000 0.0000
# 5 0.0000 0.0000 0.0000 0.0000 30.3979 0.0000
# 6 0.0000 0.0000 0.0000 0.0000 0.0000 26.6942
#
#
#
# Elastic Compliance Matrix: (Units=1/GPa)
#
#
# Indices 1 2 3 4 5 6 
#
# 1 0.013311 -0.007738 -0.003647 0.000000 0.000000 0.000000
# 2 -0.007738 0.029291 -0.003997 0.000000 0.000000 0.000000
# 3 -0.003647 -0.003997 0.014603 0.000000 0.000000 0.000000
# 4 0.000000 0.000000 0.000000 0.092843 0.000000 0.000000
# 5 0.000000 0.000000 0.000000 0.000000 0.032897 0.000000
# 6 0.000000 0.000000 0.000000 0.000000 0.000000 0.037461
#
#
# Mechanical properties :
#
#
# Convention : Reuss Voigt Hill
#
# Bulk Modulus (GPa) = 37.81838 44.99319 41.40578
# Shear Modulus (GPa) = 19.23197 23.19499 21.21348
#
# Velocity S-wave (km/s) = 3.16845 3.47963 3.32768
# Velocity P-wave (km/s) = 5.75558 6.29525 6.03146
#
# Compressibility (1/GPa) = 0.02644217
#
# Stress axis : x y z
#
# Youngs Moduli (GPa) = 75.12384 34.13987 68.47999
#
# Poissons Ratio (x) = 0.26417 0.24973
# Poissons Ratio (y) = 0.58129 0.27372
# Poissons Ratio (z) = 0.27396 0.13646
#
# Static dielectric constant tensor:
#      x y z
#    x 1.679820 0.000000 0.000000 
#    y 0.000000 1.670600 0.000000 
#    z 0.000000 0.000000 1.647120 
# 
# From -- ./inp_files/8276.got.cif
#   From: 2010.05.17/outbox.cif.g08.bks.cpg/sg72_5_cif.got.tgz:8276.got - 2010.06.03 17:03:01.
