data_PCOD9525028
_publ_section_title
;
Structure prediction by ZEFSAII (Michael W. Deem and Ramdas Pophale) SiO2 
 PCOD9525028
Probable space group: I B A M
;
_chemical_formula_sum "Si O2"
_cell_formula_units_Z 112
_cell_length_a 23.482731
_cell_length_b 15.461214
_cell_length_c 18.039441
_cell_angle_alpha 90.000000
_cell_angle_beta 90.000000
_cell_angle_gamma 90.000000
_cell_volume 6549.607432
_symmetry_space_group_name_H-M "I B A M"
_symmetry_group_IT_number 72
_symmetry_cell_setting 'orthorhombic'
loop_
_space_group_symop_operation_xyz
x,y,z
-x,-y,z
x,-y,1/2-z
-x,y,1/2-z
-x,-y,-z
x,y,-z
-x,y,1/2+z
x,-y,1/2+z
1/2+x,1/2+y,1/2+z
1/2-x,1/2-y,1/2+z
1/2+x,1/2-y,-z
1/2-x,1/2+y,-z
1/2-x,1/2-y,1/2-z
1/2+x,1/2+y,1/2-z
1/2-x,1/2+y,z
1/2+x,1/2-y,z
loop_
_atom_site_type_symbol
_atom_site_label
_atom_site_fract_x
_atom_site_fract_y
_atom_site_fract_z
Si Si1 0.716443 0.164514 0.349944
Si Si2 0.065726 0.743099 0.239126
Si Si3 0.338870 0.370196 0.299898
Si Si4 0.858776 0.597069 0.780997
Si Si5 0.621457 0.279325 0.584824
Si Si6 0.205430 0.473021 0.916019
Si Si7 0.169052 0.053378 0.637283
O O1 0.783684 0.174973 0.336435
O O2 0.685942 0.149775 0.270533
O O3 0.683364 0.239011 0.393802
O O4 0.704584 0.073794 0.391623
O O5 0.107429 0.810253 0.281850
O O6 0.083380 0.650193 0.272248
O O7 0.081463 0.745393 0.151416
O O8 0.000000 0.763439 0.250000
O O9 0.320270 0.406538 0.219150
O O10 0.351755 0.455550 0.348656
O O11 0.863991 0.500000 0.750000
O O12 0.833131 0.584086 0.861959
O O13 0.606850 0.257543 0.500000
O O14 0.626566 0.382331 0.596023
O O15 0.271190 0.448067 0.904616
O O16 0.187523 0.464009 0.000000
#
# Coordination Sequence:
#
# PCOD9525028 Si02
#       7
#    16  16  16  16  16  16  16
#     4   9  17  30  51  76 104 140 171 211 271 333
#     4  10  22  37  56  75 101 145 197 231 260 312
#     4   9  17  32  52  74 102 137 179 222 259 319
#     4   9  18  32  52  78 106 137 174 217 269 324
#     4  10  20  33  53  78 106 135 173 223 277 332
#     4  10  17  27  46  76 114 138 164 209 270 339
#     4   9  17  29  48  75 105 136 164 211 273 325
#
# _framework density 17.100261
#
# number of rings (size 3 to 8) (size 9 to 14) (size 15 to 20)
#    0.000    2.571    1.429    0.857    2.000    2.000 
#    0.000    6.429    0.000    6.857    0.000    6.000 
#    0.000    0.000    0.000    0.000    0.000    0.000 
#
# Total GULP energy -312082.612587 kJ/mol
# GULP energy per Si atom -5572.903796 kJ/mol
# Density = 1.706134 g / cm^3
# Si number density = 17.100261 Si / 1000 Ang^3
#
#
#
# Elastic Constant Matrix: (Units=GPa)
#
#
# Indices 1 2 3 4 5 6 
#
# 1 88.7257 28.9646 37.4826 0.0000 0.0000 0.0000
# 2 28.9646 58.4045 28.8323 0.0000 0.0000 0.0000
# 3 37.4826 28.8323 119.1991 0.0000 0.0000 0.0000
# 4 0.0000 0.0000 0.0000 14.6283 0.0000 0.0000
# 5 0.0000 0.0000 0.0000 0.0000 10.3764 0.0000
# 6 0.0000 0.0000 0.0000 0.0000 0.0000 16.7244
#
#
#
# Elastic Compliance Matrix: (Units=1/GPa)
#
#
# Indices 1 2 3 4 5 6 
#
# 1 0.014442 -0.005588 -0.003190 0.000000 0.000000 0.000000
# 2 -0.005588 0.021606 -0.003469 0.000000 0.000000 0.000000
# 3 -0.003190 -0.003469 0.010231 0.000000 0.000000 0.000000
# 4 0.000000 0.000000 0.000000 0.068361 0.000000 0.000000
# 5 0.000000 0.000000 0.000000 0.000000 0.096373 0.000000
# 6 0.000000 0.000000 0.000000 0.000000 0.000000 0.059793
#
#
# Mechanical properties :
#
#
# Convention : Reuss Voigt Hill
#
# Bulk Modulus (GPa) = 45.90029 50.76538 48.33284
# Shear Modulus (GPa) = 16.52559 19.74912 18.13735
#
# Velocity S-wave (km/s) = 3.11206 3.40207 3.26029
# Velocity P-wave (km/s) = 6.30978 6.72187 6.51908
#
# Compressibility (1/GPa) = 0.02178636
#
# Stress axis : x y z
#
# Youngs Moduli (GPa) = 69.24070 46.28434 97.73745
#
# Poissons Ratio (x) = 0.25862 0.31177
# Poissons Ratio (y) = 0.38689 0.33905
# Poissons Ratio (z) = 0.22087 0.16056
#
# Static dielectric constant tensor:
#      x y z
#    x 1.552200 0.000000 0.000000 
#    y 0.000000 1.628310 0.000000 
#    z 0.000000 0.000000 1.585390 
# 
# From -- ./inp_files/25221.got.cif
#   From: 2010.05.17/outbox.cif.g08.bks.cpg/sg72_13_cif.got.tgz:25221.got - 2010.06.03 17:03:01.
