data_PCOD9525233
_publ_section_title
;
Structure prediction by ZEFSAII (Michael W. Deem and Ramdas Pophale) SiO2 
 PCOD9525233
Probable space group: I B A M
;
_chemical_formula_sum "Si O2"
_cell_formula_units_Z 80
_cell_length_a 14.054785
_cell_length_b 17.395085
_cell_length_c 15.160988
_cell_angle_alpha 90.000000
_cell_angle_beta 90.000000
_cell_angle_gamma 90.000000
_cell_volume 3706.621715
_symmetry_space_group_name_H-M "I B A M"
_symmetry_group_IT_number 72
_symmetry_cell_setting 'orthorhombic'
loop_
_space_group_symop_operation_xyz
x,y,z
-x,-y,z
x,-y,1/2-z
-x,y,1/2-z
-x,-y,-z
x,y,-z
-x,y,1/2+z
x,-y,1/2+z
1/2+x,1/2+y,1/2+z
1/2-x,1/2-y,1/2+z
1/2+x,1/2-y,-z
1/2-x,1/2+y,-z
1/2-x,1/2-y,1/2-z
1/2+x,1/2+y,1/2-z
1/2-x,1/2+y,z
1/2+x,1/2-y,z
loop_
_atom_site_type_symbol
_atom_site_label
_atom_site_fract_x
_atom_site_fract_y
_atom_site_fract_z
Si Si1 0.953934 0.256654 0.903739
Si Si2 0.976869 0.583570 0.146582
Si Si3 0.327019 0.298605 0.402762
Si Si4 0.893088 0.867306 0.268426
Si Si5 0.262020 0.126563 0.397233
O O1 0.913911 0.214586 0.817439
O O2 0.961059 0.347814 0.894435
O O3 0.063074 0.228221 0.906818
O O4 0.912205 0.235431 0.000000
O O5 0.865392 0.598541 0.132757
O O6 0.000000 0.500000 0.110193
O O7 0.000000 0.584966 0.250000
O O8 0.301183 0.329682 0.500000
O O9 0.330596 0.354850 0.319465
O O10 0.269400 0.219939 0.386899
O O11 0.824556 0.906849 0.339794
O O12 0.000000 0.898840 0.250000
O O13 0.250397 0.109266 0.500000
#
# Coordination Sequence:
#
# PCOD9525233 Si02
#       5
#    16  16  16  16  16
#     4   9  16  27  44  69 104 145 182 216 264 320
#     4  10  20  34  52  75 107 145 186 230 277 328
#     4   8  15  26  41  63  95 137 179 218 262 314
#     4  10  18  29  47  73 110 146 180 223 270 324
#     4  10  19  31  49  75 107 144 182 220 270 326
#
# _framework density 21.582996000000001
#
# number of rings (size 3 to 8) (size 9 to 14) (size 15 to 20)
#    0.000    2.600    0.000    6.000    0.000    2.400 
#    0.000    0.000    0.000    1.200    0.000    2.800 
#    0.000    8.000    0.000    0.000    0.000    0.000 
#
# Total GULP energy -223029.908021 kJ/mol
# GULP energy per Si atom -5575.747701 kJ/mol
# Density = 2.153387 g / cm^3
# Si number density = 21.582996 Si / 1000 Ang^3
#
#
#
# Elastic Constant Matrix: (Units=GPa)
#
#
# Indices 1 2 3 4 5 6 
#
# 1 112.1840 -5.4595 46.3334 0.0000 0.0000 0.0000
# 2 -5.4595 17.4934 -4.2640 0.0000 0.0000 0.0000
# 3 46.3334 -4.2640 138.7925 0.0000 0.0000 0.0000
# 4 0.0000 0.0000 0.0000 -9.4827 0.0000 0.0000
# 5 0.0000 0.0000 0.0000 0.0000 11.2822 0.0000
# 6 0.0000 0.0000 0.0000 0.0000 0.0000 -4.5717
#
#
#
# Elastic Compliance Matrix: (Units=1/GPa)
#
#
# Indices 1 2 3 4 5 6 
#
# 1 0.010441 0.002427 -0.003411 0.000000 0.000000 0.000000
# 2 0.002427 0.058160 0.000977 0.000000 0.000000 0.000000
# 3 -0.003411 0.000977 0.008374 0.000000 0.000000 0.000000
# 4 0.000000 0.000000 0.000000 -0.105455 0.000000 0.000000
# 5 0.000000 0.000000 0.000000 0.000000 0.088636 0.000000
# 6 0.000000 0.000000 0.000000 0.000000 0.000000 -0.218736
#
#
# Mechanical properties :
#
#
# Convention : Reuss Voigt Hill
#
# Bulk Modulus (GPa) = 12.99382 37.96552 25.47967
# Shear Modulus (GPa) = -37.61840 14.90289 -11.35776
#
# Velocity S-wave (km/s) = -4.17941 2.63057 -2.29647
# Velocity P-wave (km/s) = 4.15410 5.18220 2.19074
#
# Compressibility (1/GPa) = 0.07695965
#
# Stress axis : x y z
#
# Youngs Moduli (GPa) = 95.77818 17.19402 119.42191
#
# Poissons Ratio (x) = -0.04173 0.40734
# Poissons Ratio (y) = -0.23246 -0.11662
# Poissons Ratio (z) = 0.32669 -0.01679
#
# Static dielectric constant tensor:
#      x y z
#    x 1.839220 0.000000 0.000000 
#    y 0.000000 1.761560 0.000000 
#    z 0.000000 0.000000 1.853890 
# 
# From -- ./inp_files/21560.got.cif
#   From: 2010.05.17/outbox.cif.g08.bks.cpg/sg72_11_cif.got.tgz:21560.got - 2010.06.03 17:03:01.
