data_PCOD9525994
_publ_section_title
;
Structure prediction by ZEFSAII (Michael W. Deem and Ramdas Pophale) SiO2 
 PCOD9525994
Probable space group: I B A M
;
_chemical_formula_sum "Si O2"
_cell_formula_units_Z 88
_cell_length_a 13.048668
_cell_length_b 24.827728
_cell_length_c 14.375069
_cell_angle_alpha 90.000000
_cell_angle_beta 90.000000
_cell_angle_gamma 90.000000
_cell_volume 4657.073564
_symmetry_space_group_name_H-M "I B A M"
_symmetry_group_IT_number 72
_symmetry_cell_setting 'orthorhombic'
loop_
_space_group_symop_operation_xyz
x,y,z
-x,-y,z
x,-y,1/2-z
-x,y,1/2-z
-x,-y,-z
x,y,-z
-x,y,1/2+z
x,-y,1/2+z
1/2+x,1/2+y,1/2+z
1/2-x,1/2-y,1/2+z
1/2+x,1/2-y,-z
1/2-x,1/2+y,-z
1/2-x,1/2-y,1/2-z
1/2+x,1/2+y,1/2-z
1/2-x,1/2+y,z
1/2+x,1/2-y,z
loop_
_atom_site_type_symbol
_atom_site_label
_atom_site_fract_x
_atom_site_fract_y
_atom_site_fract_z
Si Si1 0.836955 0.282131 0.344834
Si Si2 0.059586 0.928744 0.661127
Si Si3 0.596907 0.599531 0.000000
Si Si4 0.790282 0.166647 0.313443
Si Si5 0.996710 0.311882 0.500000
Si Si6 0.683510 0.514254 0.500000
Si Si7 0.831592 0.779414 0.500000
Si Si8 0.811691 0.379751 0.000000
O O1 0.859669 0.220890 0.313791
O O2 0.798185 0.319797 0.261352
O O3 0.924720 0.307040 0.409254
O O4 0.738419 0.271176 0.409913
O O5 0.136540 0.883997 0.702355
O O6 0.121556 0.969376 0.593871
O O7 0.000000 0.948812 0.750000
O O8 0.977241 0.904795 0.588983
O O9 0.679937 0.550728 0.000000
O O10 0.643180 0.658057 0.000000
O O11 0.738624 0.149698 0.411083
O O12 0.072362 0.260280 0.500000
O O13 0.068771 0.364415 0.500000
O O14 0.778699 0.556927 0.500000
#
# Coordination Sequence:
#
# PCOD9525994 Si02
#       8
#    16  16   8  16   8   8   8   8
#     4  10  21  33  52  80 112 146 195 236 290 349
#     4  10  19  33  54  79 111 148 184 225 282 346
#     4  11  21  33  53  83 109 148 194 227 280 345
#     4  10  19  35  50  77 115 149 183 241 292 343
#     4  11  20  35  58  79 108 160 191 238 289 356
#     4   9  22  36  53  77 114 148 185 239 278 342
#     4  11  20  36  53  81 116 145 188 241 291 330
#     4  10  19  38  55  71 109 154 191 233 299 339
#
# _framework density 18.895987000000002
#
# number of rings (size 3 to 8) (size 9 to 14) (size 15 to 20)
#    0.000    1.818    1.818    4.364    0.000    2.182 
#    0.000    0.000    0.000    2.182    0.000    0.000 
#    0.000   11.636    0.000    0.000    0.000    0.727 
#
# Total GULP energy -245319.197502 kJ/mol
# GULP energy per Si atom -5575.436307 kJ/mol
# Density = 1.885298 g / cm^3
# Si number density = 18.895987 Si / 1000 Ang^3
#
#
#
# Elastic Constant Matrix: (Units=GPa)
#
#
# Indices 1 2 3 4 5 6 
#
# 1 79.7667 31.4050 32.1133 0.0000 0.0000 0.0000
# 2 31.4050 74.2557 -1.9014 -0.0001 0.0000 0.0000
# 3 32.1133 -1.9014 100.6032 0.0000 0.0000 0.0000
# 4 0.0000 -0.0001 0.0000 -14.6219 -0.0001 0.0000
# 5 0.0000 0.0000 0.0000 -0.0001 14.0791 0.0000
# 6 0.0000 0.0000 0.0000 0.0000 0.0000 -9.4341
#
#
#
# Elastic Compliance Matrix: (Units=1/GPa)
#
#
# Indices 1 2 3 4 5 6 
#
# 1 0.017950 -0.007742 -0.005876 0.000000 0.000000 0.000000
# 2 -0.007742 0.016813 0.002789 0.000000 0.000000 0.000000
# 3 -0.005876 0.002789 0.011869 0.000000 0.000000 0.000000
# 4 0.000000 0.000000 0.000000 -0.068390 0.000000 0.000000
# 5 0.000000 0.000000 0.000000 0.000000 0.071027 0.000000
# 6 0.000000 0.000000 0.000000 0.000000 0.000000 -0.105998
#
#
# Mechanical properties :
#
#
# Convention : Reuss Voigt Hill
#
# Bulk Modulus (GPa) = 40.04314 41.98438 41.01376
# Shear Modulus (GPa) = -186.94081 10.87185 -88.03448
#
# Velocity S-wave (km/s) = -9.95722 2.40125 -6.83302
# Velocity P-wave (km/s) = 10.53364 5.47311 6.36407
#
# Compressibility (1/GPa) = 0.02497307
#
# Stress axis : x y z
#
# Youngs Moduli (GPa) = 55.70880 59.47837 84.25660
#
# Poissons Ratio (x) = 0.46050 0.49511
# Poissons Ratio (y) = 0.43131 -0.23500
# Poissons Ratio (z) = 0.32736 -0.16589
#
# Static dielectric constant tensor:
#      x y z
#    x 1.677060 0.000000 0.000000 
#    y 0.000000 1.671390 0.000000 
#    z 0.000000 0.000000 2.157290 
# 
# From -- ./inp_files/20570.got.cif
#   From: 2010.05.17/outbox.cif.g08.bks.cpg/sg72_11_cif.got.tgz:20570.got - 2010.06.03 17:03:01.
