data_PCOD9525998
_publ_section_title
;
Structure prediction by ZEFSAII (Michael W. Deem and Ramdas Pophale) SiO2 
 PCOD9525998
Probable space group: I B A M
;
_chemical_formula_sum "Si O2"
_cell_formula_units_Z 104
_cell_length_a 10.279424
_cell_length_b 25.237172
_cell_length_c 25.311163
_cell_angle_alpha 90.000000
_cell_angle_beta 90.000000
_cell_angle_gamma 90.000000
_cell_volume 6566.312812
_symmetry_space_group_name_H-M "I B A M"
_symmetry_group_IT_number 72
_symmetry_cell_setting 'orthorhombic'
loop_
_space_group_symop_operation_xyz
x,y,z
-x,-y,z
x,-y,1/2-z
-x,y,1/2-z
-x,-y,-z
x,y,-z
-x,y,1/2+z
x,-y,1/2+z
1/2+x,1/2+y,1/2+z
1/2-x,1/2-y,1/2+z
1/2+x,1/2-y,-z
1/2-x,1/2+y,-z
1/2-x,1/2-y,1/2-z
1/2+x,1/2+y,1/2-z
1/2-x,1/2+y,z
1/2+x,1/2-y,z
loop_
_atom_site_type_symbol
_atom_site_label
_atom_site_fract_x
_atom_site_fract_y
_atom_site_fract_z
Si Si1 0.194813 0.000000 0.750000
Si Si2 0.630377 0.184904 0.216325
Si Si3 0.738542 0.920050 0.334668
Si Si4 0.053844 0.914368 0.670071
Si Si5 0.362490 0.028286 0.559284
Si Si6 0.379102 0.700785 0.210238
Si Si7 0.612613 0.544497 0.443624
O O1 0.281150 0.034200 0.709326
O O2 0.112789 0.042363 0.787537
O O3 0.500000 0.175531 0.250000
O O4 0.671918 0.134381 0.182691
O O5 0.621997 0.240691 0.184264
O O6 0.745635 0.193680 0.258284
O O7 0.684231 0.935763 0.392009
O O8 0.896565 0.916220 0.332055
O O9 0.097267 0.854719 0.681921
O O10 0.101140 0.926348 0.611353
O O11 0.368913 0.053169 0.500000
O O12 0.500000 0.000000 0.569742
O O13 0.250906 0.984039 0.556219
O O14 0.500000 0.704829 0.250000
O O15 0.500000 0.500000 0.442331
O O16 0.596707 0.573710 0.500000
#
# Coordination Sequence:
#
# PCOD9525998 Si02
#       7
#     8  16  16  16  16  16  16
#     4  12  21  30  49  88 115 140 171 224 281 322
#     4  10  22  35  51  78 108 145 183 224 263 330
#     4  12  21  33  54  81 113 142 180 224 275 326
#     4  12  19  32  56  81 109 142 179 233 269 319
#     4  10  22  38  54  77 113 150 180 217 273 331
#     4  10  19  36  55  73 106 147 186 217 270 327
#     4  10  19  33  54  81 107 140 185 222 256 319
#
# _framework density 15.838418000000001
#
# number of rings (size 3 to 8) (size 9 to 14) (size 15 to 20)
#    0.000    1.231    6.154    1.385    0.000    2.462 
#    0.000    0.000    0.000    0.923    0.000    0.000 
#    0.000    0.000    0.000    0.000    0.000    0.000 
#
# Total GULP energy -289469.943138 kJ/mol
# GULP energy per Si atom -5566.729676 kJ/mol
# Density = 1.580237 g / cm^3
# Si number density = 15.838418 Si / 1000 Ang^3
#
#
#
# Elastic Constant Matrix: (Units=GPa)
#
#
# Indices 1 2 3 4 5 6 
#
# 1 97.6681 28.8805 30.0021 0.0000 0.0000 0.0000
# 2 28.8805 134.2435 79.2472 0.0000 0.0000 0.0000
# 3 30.0021 79.2472 128.7481 0.0000 0.0000 0.0000
# 4 0.0000 0.0000 0.0000 24.8990 0.0000 0.0000
# 5 0.0000 0.0000 0.0000 0.0000 18.4592 0.0000
# 6 0.0000 0.0000 0.0000 0.0000 0.0000 24.1205
#
#
#
# Elastic Compliance Matrix: (Units=1/GPa)
#
#
# Indices 1 2 3 4 5 6 
#
# 1 0.011185 -0.001363 -0.001768 0.000000 0.000000 0.000000
# 2 -0.001363 0.011867 -0.006987 0.000000 0.000000 0.000000
# 3 -0.001768 -0.006987 0.012479 0.000000 0.000000 0.000000
# 4 0.000000 0.000000 0.000000 0.040162 0.000000 0.000000
# 5 0.000000 0.000000 0.000000 0.000000 0.054174 0.000000
# 6 0.000000 0.000000 0.000000 0.000000 0.000000 0.041458
#
#
# Mechanical properties :
#
#
# Convention : Reuss Voigt Hill
#
# Bulk Modulus (GPa) = 65.37282 70.76882 68.07082
# Shear Modulus (GPa) = 25.42483 28.33106 26.87794
#
# Velocity S-wave (km/s) = 4.01092 4.23396 4.12395
# Velocity P-wave (km/s) = 7.92556 8.28738 8.10848
#
# Compressibility (1/GPa) = 0.01529688
#
# Stress axis : x y z
#
# Youngs Moduli (GPa) = 89.40790 84.26920 80.13184
#
# Poissons Ratio (x) = 0.11484 0.14164
# Poissons Ratio (y) = 0.12185 0.55985
# Poissons Ratio (z) = 0.15803 0.58876
#
# Static dielectric constant tensor:
#      x y z
#    x 1.530770 0.000000 0.000000 
#    y 0.000000 1.592660 0.000000 
#    z 0.000000 0.000000 1.571780 
# 
# From -- ./inp_files/47568.got.cif
#   From: 2010.05.17/outbox.cif.g08.bks.cpg/sg72_24_cif.got.tgz:47568.got - 2010.06.03 17:03:01.
