data_PCOD9525739
_publ_section_title
;
Structure prediction by ZEFSAII (Michael W. Deem and Ramdas Pophale) SiO2 
 PCOD9525739
Probable space group: I B A M
;
_chemical_formula_sum "Si O2"
_cell_formula_units_Z 56
_cell_length_a 27.101630
_cell_length_b 15.277076
_cell_length_c 5.548762
_cell_angle_alpha 90.000000
_cell_angle_beta 90.000000
_cell_angle_gamma 90.000000
_cell_volume 2297.374246
_symmetry_space_group_name_H-M "I B A M"
_symmetry_group_IT_number 72
_symmetry_cell_setting 'orthorhombic'
loop_
_space_group_symop_operation_xyz
x,y,z
-x,-y,z
x,-y,1/2-z
-x,y,1/2-z
-x,-y,-z
x,y,-z
-x,y,1/2+z
x,-y,1/2+z
1/2+x,1/2+y,1/2+z
1/2-x,1/2-y,1/2+z
1/2+x,1/2-y,-z
1/2-x,1/2+y,-z
1/2-x,1/2-y,1/2-z
1/2+x,1/2+y,1/2-z
1/2-x,1/2+y,z
1/2+x,1/2-y,z
loop_
_atom_site_type_symbol
_atom_site_label
_atom_site_fract_x
_atom_site_fract_y
_atom_site_fract_z
Si Si1 0.373151 0.957078 0.500000
Si Si2 0.063454 0.861989 0.000000
Si Si3 0.753630 0.456152 0.000000
Si Si4 0.811488 0.206217 0.500000
Si Si5 0.082138 0.860531 0.500000
Si Si6 0.153968 0.732871 0.000000
Si Si7 0.986539 0.298116 0.500000
O O1 0.313056 0.964073 0.500000
O O2 0.379932 0.853207 0.500000
O O3 0.390986 0.000000 0.750000
O O4 0.061272 0.903465 0.739570
O O5 0.117118 0.815095 0.000000
O O6 0.023518 0.784922 0.000000
O O7 0.735959 0.500000 0.250000
O O8 0.735027 0.357039 0.000000
O O9 0.859072 0.141845 0.500000
O O10 0.816614 0.261159 0.747083
O O11 0.065491 0.755735 0.500000
O O12 0.000000 0.345505 0.750000
#
# Coordination Sequence:
#
# PCOD9525739 Si02
#       7
#     8   8   8   8   8   8   8
#     4  10  21  36  51  68  95 131 164 194 238 294
#     4   8  14  23  37  60  90 114 140 182 231 270
#     4  10  21  36  51  68  95 131 164 194 238 294
#     4  10  19  31  49  73  98 120 157 205 242 276
#     4   8  14  23  37  60  90 114 140 182 231 270
#     4  10  19  31  49  73  98 120 157 205 242 276
#     4   8  12  20  34  54  86 116 138 170 226 274
#
# _framework density 24.375653
#
# number of rings (size 3 to 8) (size 9 to 14) (size 15 to 20)
#    0.000    2.857    0.000    1.714    0.000    1.143 
#    0.000    0.000    0.000    0.000    0.000    0.000 
#    0.000  171.429    0.000    0.000    0.000    0.000 
#
# Total GULP energy -156238.169658 kJ/mol
# GULP energy per Si atom -5579.934631 kJ/mol
# Density = 2.432017 g / cm^3
# Si number density = 24.375653 Si / 1000 Ang^3
#
#
#
# Elastic Constant Matrix: (Units=GPa)
#
#
# Indices 1 2 3 4 5 6 
#
# 1 48.7482 -0.2697 28.3299 0.0000 0.0000 0.0000
# 2 -0.2697 46.1201 33.0112 0.0000 0.0000 0.0000
# 3 28.3299 33.0112 260.0239 0.0000 0.0000 -0.0001
# 4 0.0000 0.0000 0.0000 80.5862 0.0000 0.0000
# 5 0.0000 0.0000 0.0000 0.0000 13.4679 0.0000
# 6 0.0000 0.0000 -0.0001 0.0000 0.0000 263.5322
#
#
#
# Elastic Compliance Matrix: (Units=1/GPa)
#
#
# Indices 1 2 3 4 5 6 
#
# 1 0.022073 0.002035 -0.002663 0.000000 0.000000 0.000000
# 2 0.002035 0.024037 -0.003273 0.000000 0.000000 0.000000
# 3 -0.002663 -0.003273 0.004552 0.000000 0.000000 0.000000
# 4 0.000000 0.000000 0.000000 0.012409 0.000000 0.000000
# 5 0.000000 0.000000 0.000000 0.000000 0.074251 0.000000
# 6 0.000000 0.000000 0.000000 0.000000 0.000000 0.003795
#
#
# Mechanical properties :
#
#
# Convention : Reuss Voigt Hill
#
# Bulk Modulus (GPa) = 23.33241 53.00390 38.16816
# Shear Modulus (GPa) = 30.63634 91.10530 60.87082
#
# Velocity S-wave (km/s) = 3.54904 6.12019 5.00262
# Velocity P-wave (km/s) = 5.13683 8.46960 7.00432
#
# Compressibility (1/GPa) = 0.04285883
#
# Stress axis : x y z
#
# Youngs Moduli (GPa) = 45.30515 41.60182 219.70608
#
# Poissons Ratio (x) = -0.08467 0.58513
# Poissons Ratio (y) = -0.09221 0.71919
# Poissons Ratio (z) = 0.12066 0.13618
#
# Static dielectric constant tensor:
#      x y z
#    x 1.984490 0.000000 0.000000 
#    y 0.000000 1.889800 0.000000 
#    z 0.000000 0.000000 2.133370 
# 
# From -- ./inp_files/372.got.cif
#   From: 2010.05.17/outbox.cif.g08.bks.cpg/sg72_1_cif.got.tgz:372.got - 2010.06.03 17:03:01.
