data_PCOD9525701
_publ_section_title
;
Structure prediction by ZEFSAII (Michael W. Deem and Ramdas Pophale) SiO2 
 PCOD9525701
Probable space group: I B A M
;
_chemical_formula_sum "Si O2"
_cell_formula_units_Z 96
_cell_length_a 25.815596
_cell_length_b 25.177709
_cell_length_c 8.867216
_cell_angle_alpha 90.000000
_cell_angle_beta 90.000000
_cell_angle_gamma 90.000000
_cell_volume 5763.491453
_symmetry_space_group_name_H-M "I B A M"
_symmetry_group_IT_number 72
_symmetry_cell_setting 'orthorhombic'
loop_
_space_group_symop_operation_xyz
x,y,z
-x,-y,z
x,-y,1/2-z
-x,y,1/2-z
-x,-y,-z
x,y,-z
-x,y,1/2+z
x,-y,1/2+z
1/2+x,1/2+y,1/2+z
1/2-x,1/2-y,1/2+z
1/2+x,1/2-y,-z
1/2-x,1/2+y,-z
1/2-x,1/2-y,1/2-z
1/2+x,1/2+y,1/2-z
1/2-x,1/2+y,z
1/2+x,1/2-y,z
loop_
_atom_site_type_symbol
_atom_site_label
_atom_site_fract_x
_atom_site_fract_y
_atom_site_fract_z
Si Si1 0.248495 0.945022 0.180006
Si Si2 0.448295 0.114575 0.670832
Si Si3 0.862770 0.553067 0.321245
Si Si4 0.552386 0.758176 0.329781
Si Si5 0.331757 0.236309 0.321177
Si Si6 0.754266 0.835599 0.823109
O O1 0.307556 0.942143 0.240409
O O2 0.227198 0.888831 0.239119
O O3 0.226689 0.000000 0.250000
O O4 0.247244 0.948061 0.000000
O O5 0.500000 0.093388 0.750000
O O6 0.441739 0.094396 0.500000
O O7 0.399679 0.100480 0.773355
O O8 0.452982 0.178006 0.661890
O O9 0.887449 0.500000 0.250000
O O10 0.856270 0.548690 0.500000
O O11 0.500000 0.738310 0.250000
O O12 0.553538 0.736545 0.500000
O O13 0.610245 0.751669 0.262393
O O14 0.336556 0.222958 0.500000
O O15 0.299101 0.189205 0.242996
O O16 0.296583 0.288900 0.307385
O O17 0.746847 0.847402 0.000000
#
# Coordination Sequence:
#
# PCOD9525701 Si02
#       6
#    16  16  16  16  16  16
#     4  11  21  34  50  68  92 121 154 191 233 280
#     4  10  19  31  45  62  84 112 148 189 232 274
#     4  11  21  33  47  63  82 108 145 187 233 279
#     4   9  18  31  47  66  90 120 152 188 228 271
#     4   9  18  32  49  71 100 131 161 196 239 284
#     4  10  19  31  49  73  99 128 162 197 237 285
#
# _framework density 16.656569999999999
#
# number of rings (size 3 to 8) (size 9 to 14) (size 15 to 20)
#    0.000    2.000    0.000    6.000    0.000    3.667 
#    0.000    1.667    0.000    0.000    0.000    0.000 
#    0.000    0.667    0.000    7.667    0.000    2.333 
#
# Total GULP energy -267581.326213 kJ/mol
# GULP energy per Si atom -5574.610963 kJ/mol
# Density = 1.661866 g / cm^3
# Si number density = 16.656570 Si / 1000 Ang^3
#
#
#
# Elastic Constant Matrix: (Units=GPa)
#
#
# Indices 1 2 3 4 5 6 
#
# 1 70.7689 0.8495 20.4688 0.0000 0.0000 0.0000
# 2 0.8495 56.9138 38.1703 0.0000 0.0000 0.0000
# 3 20.4688 38.1703 114.1710 0.0000 0.0000 0.0000
# 4 0.0000 0.0000 0.0000 22.0795 0.0000 0.0000
# 5 0.0000 0.0000 0.0000 0.0000 20.3054 0.0000
# 6 0.0000 0.0000 0.0000 0.0000 0.0000 10.2343
#
#
#
# Elastic Compliance Matrix: (Units=1/GPa)
#
#
# Indices 1 2 3 4 5 6 
#
# 1 0.015086 0.002048 -0.003389 0.000000 0.000000 0.000000
# 2 0.002048 0.022927 -0.008032 0.000000 0.000000 0.000000
# 3 -0.003389 -0.008032 0.012052 0.000000 0.000000 0.000000
# 4 0.000000 0.000000 0.000000 0.045291 0.000000 0.000000
# 5 0.000000 0.000000 0.000000 0.000000 0.049248 0.000000
# 6 0.000000 0.000000 0.000000 0.000000 0.000000 0.097711
#
#
# Mechanical properties :
#
#
# Convention : Reuss Voigt Hill
#
# Bulk Modulus (GPa) = 31.93086 40.09231 36.01159
# Shear Modulus (GPa) = 18.41616 22.68151 20.54884
#
# Velocity S-wave (km/s) = 3.32872 3.69415 3.51618
# Velocity P-wave (km/s) = 5.82972 6.50522 6.17671
#
# Compressibility (1/GPa) = 0.03131767
#
# Stress axis : x y z
#
# Youngs Moduli (GPa) = 66.28558 43.61711 82.97519
#
# Poissons Ratio (x) = -0.08933 0.28123
# Poissons Ratio (y) = -0.13575 0.66647
# Poissons Ratio (z) = 0.22467 0.35034
#
# Static dielectric constant tensor:
#      x y z
#    x 1.576750 0.000000 0.000000 
#    y 0.000000 1.618210 0.000000 
#    z 0.000000 0.000000 1.580300 
# 
# From -- ./inp_files/7089.got.cif
#   From: 2010.05.17/outbox.cif.g08.bks.cpg/sg72_4_cif.got.tgz:7089.got - 2010.06.03 17:03:01.
