data_PCOD9525095
_publ_section_title
;
Structure prediction by ZEFSAII (Michael W. Deem and Ramdas Pophale) SiO2 
 PCOD9525095
Probable space group: I B A M
;
_chemical_formula_sum "Si O2"
_cell_formula_units_Z 80
_cell_length_a 11.500702
_cell_length_b 14.320582
_cell_length_c 23.595578
_cell_angle_alpha 90.000000
_cell_angle_beta 90.000000
_cell_angle_gamma 90.000000
_cell_volume 3886.114918
_symmetry_space_group_name_H-M "I B A M"
_symmetry_group_IT_number 72
_symmetry_cell_setting 'orthorhombic'
loop_
_space_group_symop_operation_xyz
x,y,z
-x,-y,z
x,-y,1/2-z
-x,y,1/2-z
-x,-y,-z
x,y,-z
-x,y,1/2+z
x,-y,1/2+z
1/2+x,1/2+y,1/2+z
1/2-x,1/2-y,1/2+z
1/2+x,1/2-y,-z
1/2-x,1/2+y,-z
1/2-x,1/2-y,1/2-z
1/2+x,1/2+y,1/2-z
1/2-x,1/2+y,z
1/2+x,1/2-y,z
loop_
_atom_site_type_symbol
_atom_site_label
_atom_site_fract_x
_atom_site_fract_y
_atom_site_fract_z
Si Si1 0.136048 0.475570 0.564390
Si Si2 0.224778 0.874785 0.868230
Si Si3 0.237636 0.664975 0.851244
Si Si4 0.884489 0.344156 0.731317
Si Si5 0.475414 0.642620 0.186860
O O1 0.164967 0.447945 0.500000
O O2 0.221531 0.559203 0.584139
O O3 0.154470 0.394363 0.609677
O O4 0.000000 0.500000 0.566101
O O5 0.252389 0.765838 0.879813
O O6 0.299034 0.896170 0.811108
O O7 0.088622 0.874244 0.851189
O O8 0.185391 0.681465 0.788376
O O9 0.357879 0.608519 0.842766
O O10 0.936963 0.251374 0.699760
O O11 0.000000 0.397120 0.750000
O O12 0.500000 0.605611 0.250000
#
# Coordination Sequence:
#
# PCOD9525095 Si02
#       5
#    16  16  16  16  16
#     4  11  28  49  65  90 128 176 242 289 319 394
#     4  11  21  39  68  96 135 176 210 269 348 398
#     4  11  21  38  68  99 135 176 212 269 344 404
#     4  10  17  31  61 101 135 165 206 257 326 416
#     4  10  17  34  62  98 139 168 195 255 329 415
#
# _framework density 20.586113000000001
#
# number of rings (size 3 to 8) (size 9 to 14) (size 15 to 20)
#    0.000    1.400    6.000    2.400    2.800    2.400 
#    0.000    5.000    0.000    0.000    0.000    0.000 
#    0.000    0.000    0.000    0.000    0.000    0.000 
#
# Total GULP energy -223150.950594 kJ/mol
# GULP energy per Si atom -5578.773765 kJ/mol
# Density = 2.053926 g / cm^3
# Si number density = 20.586113 Si / 1000 Ang^3
#
#
#
# Elastic Constant Matrix: (Units=GPa)
#
#
# Indices 1 2 3 4 5 6 
#
# 1 139.9724 3.0697 26.5598 0.0000 0.0000 0.0000
# 2 3.0697 54.1883 16.5620 0.0000 0.0000 0.0000
# 3 26.5598 16.5620 84.8371 0.0000 0.0000 0.0000
# 4 0.0000 0.0000 0.0000 16.2225 0.0000 0.0000
# 5 0.0000 0.0000 0.0000 0.0000 31.1950 0.0000
# 6 0.0000 0.0000 0.0000 0.0000 0.0000 17.8858
#
#
#
# Elastic Compliance Matrix: (Units=1/GPa)
#
#
# Indices 1 2 3 4 5 6 
#
# 1 0.007601 0.000316 -0.002441 0.000000 0.000000 0.000000
# 2 0.000316 0.019638 -0.003933 0.000000 0.000000 0.000000
# 3 -0.002441 -0.003933 0.013319 0.000000 0.000000 0.000000
# 4 0.000000 0.000000 0.000000 0.061643 0.000000 0.000000
# 5 0.000000 0.000000 0.000000 0.000000 0.032056 0.000000
# 6 0.000000 0.000000 0.000000 0.000000 0.000000 0.055910
#
#
# Mechanical properties :
#
#
# Convention : Reuss Voigt Hill
#
# Bulk Modulus (GPa) = 35.15958 41.26453 38.21205
# Shear Modulus (GPa) = 23.61115 28.58109 26.09612
#
# Velocity S-wave (km/s) = 3.39033 3.73012 3.56428
# Velocity P-wave (km/s) = 5.69580 6.21612 5.96164
#
# Compressibility (1/GPa) = 0.02844175
#
# Stress axis : x y z
#
# Youngs Moduli (GPa) = 131.56951 50.92107 75.07937
#
# Poissons Ratio (x) = -0.01607 0.18328
# Poissons Ratio (y) = -0.04151 0.29525
# Poissons Ratio (z) = 0.32117 0.20025
#
# Static dielectric constant tensor:
#      x y z
#    x 1.763610 0.000000 0.000000 
#    y 0.000000 1.824020 0.000000 
#    z 0.000000 0.000000 1.715050 
# 
# From -- ./inp_files/43090.got.cif
#   From: 2010.05.17/outbox.cif.g08.bks.cpg/sg72_22_cif.got.tgz:43090.got - 2010.06.03 17:03:01.
