data_PCOD9525561
_publ_section_title
;
Structure prediction by ZEFSAII (Michael W. Deem and Ramdas Pophale) SiO2 
 PCOD9525561
Probable space group: I B A M
;
_chemical_formula_sum "Si O2"
_cell_formula_units_Z 100
_cell_length_a 18.881786
_cell_length_b 20.242096
_cell_length_c 14.806570
_cell_angle_alpha 90.000000
_cell_angle_beta 90.000000
_cell_angle_gamma 90.000000
_cell_volume 5659.173587
_symmetry_space_group_name_H-M "I B A M"
_symmetry_group_IT_number 72
_symmetry_cell_setting 'orthorhombic'
loop_
_space_group_symop_operation_xyz
x,y,z
-x,-y,z
x,-y,1/2-z
-x,y,1/2-z
-x,-y,-z
x,y,-z
-x,y,1/2+z
x,-y,1/2+z
1/2+x,1/2+y,1/2+z
1/2-x,1/2-y,1/2+z
1/2+x,1/2-y,-z
1/2-x,1/2+y,-z
1/2-x,1/2-y,1/2-z
1/2+x,1/2+y,1/2-z
1/2-x,1/2+y,z
1/2+x,1/2-y,z
loop_
_atom_site_type_symbol
_atom_site_label
_atom_site_fract_x
_atom_site_fract_y
_atom_site_fract_z
Si Si1 0.914907 0.424652 0.247144
Si Si2 0.194090 0.806121 0.390509
Si Si3 0.500000 0.500000 0.750000
Si Si4 0.937219 0.101117 0.605383
Si Si5 0.355846 0.176848 0.892647
Si Si6 0.612806 0.821612 0.397484
Si Si7 0.517716 0.267902 0.644254
O O1 0.890466 0.500000 0.250000
O O2 0.890340 0.384162 0.159928
O O3 0.888369 0.383862 0.333170
O O4 0.000000 0.423848 0.250000
O O5 0.192921 0.802976 0.500000
O O6 0.136636 0.862521 0.368481
O O7 0.274415 0.817002 0.362320
O O8 0.164189 0.735507 0.359832
O O9 0.543785 0.453211 0.819420
O O10 0.933118 0.078058 0.500000
O O11 0.995951 0.160002 0.608758
O O12 0.403447 0.241578 0.872094
O O13 0.356974 0.166500 0.000000
O O14 0.631921 0.838395 0.500000
O O15 0.536011 0.785968 0.397563
O O16 0.500000 0.267775 0.750000
#
# Coordination Sequence:
#
# PCOD9525561 Si02
#       7
#    16  16   4  16  16  16  16
#     4  11  23  36  50  79 115 147 188 227 261 324
#     4   8  19  36  59  85 111 139 179 234 291 331
#     4  12  22  36  64  86 108 156 206 216 268 342
#     4  10  21  39  58  85 119 147 184 237 280 329
#     4  11  20  36  60  85 110 144 184 230 285 335
#     4  10  18  35  57  78 106 145 180 226 285 326
#     4  11  18  34  58  86 112 136 184 241 280 325
#
# _framework density 17.670424000000001
#
# number of rings (size 3 to 8) (size 9 to 14) (size 15 to 20)
#    0.000    1.760    4.000    2.640    0.000    1.280 
#    1.440    1.600    0.000    0.000    0.000    0.000 
#    0.000    0.000    0.000    0.000    0.000    0.000 
#
# Total GULP energy -278919.235262 kJ/mol
# GULP energy per Si atom -5578.384705 kJ/mol
# Density = 1.763021 g / cm^3
# Si number density = 17.670424 Si / 1000 Ang^3
#
#
#
# Elastic Constant Matrix: (Units=GPa)
#
#
# Indices 1 2 3 4 5 6 
#
# 1 118.1818 58.3457 30.3784 0.0000 0.0000 0.0000
# 2 58.3457 122.4101 53.0010 0.0000 0.0000 0.0000
# 3 30.3784 53.0010 113.1833 0.0000 0.0000 0.0000
# 4 0.0000 0.0000 0.0000 -7.4924 0.0000 0.0000
# 5 0.0000 0.0000 0.0000 0.0000 13.5269 0.0000
# 6 0.0000 0.0000 0.0000 0.0000 0.0000 1.7974
#
#
#
# Elastic Compliance Matrix: (Units=1/GPa)
#
#
# Indices 1 2 3 4 5 6 
#
# 1 0.011101 -0.005019 -0.000629 0.000000 0.000000 0.000000
# 2 -0.005019 0.012516 -0.004514 0.000000 0.000000 0.000000
# 3 -0.000629 -0.004514 0.011118 0.000000 0.000000 0.000000
# 4 0.000000 0.000000 0.000000 -0.133469 0.000000 0.000000
# 5 0.000000 0.000000 0.000000 0.000000 0.073927 0.000000
# 6 0.000000 0.000000 0.000000 0.000000 0.000000 0.556350
#
#
# Mechanical properties :
#
#
# Convention : Reuss Voigt Hill
#
# Bulk Modulus (GPa) = 69.39207 70.80284 70.09745
# Shear Modulus (GPa) = 8.98198 15.70306 12.34252
#
# Velocity S-wave (km/s) = 2.25701 2.98428 2.64575
# Velocity P-wave (km/s) = 6.79320 7.21319 7.00634
#
# Compressibility (1/GPa) = 0.01441087
#
# Stress axis : x y z
#
# Youngs Moduli (GPa) = 90.08175 79.89925 89.94532
#
# Poissons Ratio (x) = 0.40099 0.05661
# Poissons Ratio (y) = 0.45209 0.40600
# Poissons Ratio (z) = 0.05670 0.36065
#
# Static dielectric constant tensor:
#      x y z
#    x 1.617240 0.000000 0.000000 
#    y 0.000000 1.590790 0.000000 
#    z 0.000000 0.000000 1.635020 
# 
# From -- ./inp_files/23359.got.cif
#   From: 2010.05.17/outbox.cif.g08.bks.cpg/sg72_12_cif.got.tgz:23359.got - 2010.06.03 17:03:01.
