data_PCOD9525711
_publ_section_title
;
Structure prediction by ZEFSAII (Michael W. Deem and Ramdas Pophale) SiO2 
 PCOD9525711
Probable space group: I B A M
;
_chemical_formula_sum "Si O2"
_cell_formula_units_Z 96
_cell_length_a 26.286571
_cell_length_b 26.086833
_cell_length_c 8.385731
_cell_angle_alpha 90.000000
_cell_angle_beta 90.000000
_cell_angle_gamma 90.000000
_cell_volume 5750.375728
_symmetry_space_group_name_H-M "I B A M"
_symmetry_group_IT_number 72
_symmetry_cell_setting 'orthorhombic'
loop_
_space_group_symop_operation_xyz
x,y,z
-x,-y,z
x,-y,1/2-z
-x,y,1/2-z
-x,-y,-z
x,y,-z
-x,y,1/2+z
x,-y,1/2+z
1/2+x,1/2+y,1/2+z
1/2-x,1/2-y,1/2+z
1/2+x,1/2-y,-z
1/2-x,1/2+y,-z
1/2-x,1/2-y,1/2-z
1/2+x,1/2+y,1/2-z
1/2-x,1/2+y,z
1/2+x,1/2-y,z
loop_
_atom_site_type_symbol
_atom_site_label
_atom_site_fract_x
_atom_site_fract_y
_atom_site_fract_z
Si Si1 0.054741 0.251763 0.185414
Si Si2 0.762420 0.446686 0.807904
Si Si3 0.449563 0.135461 0.185277
Si Si4 0.246547 0.669500 0.191779
Si Si5 0.168273 0.748977 0.307029
Si Si6 0.122928 0.554135 0.687304
O O1 0.053956 0.312995 0.212227
O O2 0.111066 0.238911 0.252830
O O3 0.000000 0.232643 0.250000
O O4 0.055248 0.238926 0.000000
O O5 0.736693 0.500000 0.750000
O O6 0.742160 0.389753 0.766794
O O7 0.817367 0.446457 0.724116
O O8 0.767846 0.449415 0.000000
O O9 0.500000 0.107597 0.250000
O O10 0.402025 0.099824 0.215669
O O11 0.454432 0.148893 0.000000
O O12 0.194066 0.695047 0.254957
O O13 0.292095 0.707035 0.245204
O O14 0.243585 0.671942 0.000000
O O15 0.166346 0.748281 0.500000
O O16 0.102098 0.500000 0.750000
O O17 0.113676 0.560207 0.500000
#
# Coordination Sequence:
#
# PCOD9525711 Si02
#       6
#    16  16  16  16  16  16
#     4  10  19  31  47  66  89 117 148 182 220 264
#     4  10  19  31  47  66  89 117 148 182 220 264
#     4  11  21  33  46  61  81 107 142 181 222 263
#     4   9  18  31  47  68  93 121 152 186 225 269
#     4   9  18  31  47  68  93 121 152 186 225 269
#     4  11  21  33  46  61  81 107 142 181 222 263
#
# _framework density 16.694561
#
# number of rings (size 3 to 8) (size 9 to 14) (size 15 to 20)
#    0.000    2.000    0.000    7.000    0.000    5.667 
#    0.000    1.667    0.000    0.000    0.000    0.000 
#    0.000    0.667    0.000    8.333    0.000    0.000 
#
# Total GULP energy -267377.057974 kJ/mol
# GULP energy per Si atom -5570.355374 kJ/mol
# Density = 1.665656 g / cm^3
# Si number density = 16.694561 Si / 1000 Ang^3
#
#
#
# Elastic Constant Matrix: (Units=GPa)
#
#
# Indices 1 2 3 4 5 6 
#
# 1 89.6820 22.3497 7.7213 0.0000 0.0000 0.0000
# 2 22.3497 78.8606 4.5679 0.0000 0.0000 0.0000
# 3 7.7213 4.5679 30.2347 0.0000 0.0000 0.0000
# 4 0.0000 0.0000 0.0000 16.3446 0.0000 0.0000
# 5 0.0000 0.0000 0.0000 0.0000 18.3428 0.0000
# 6 0.0000 0.0000 0.0000 0.0000 0.0000 5.0790
#
#
#
# Elastic Compliance Matrix: (Units=1/GPa)
#
#
# Indices 1 2 3 4 5 6 
#
# 1 0.012200 -0.003306 -0.002616 0.000000 0.000000 0.000000
# 2 -0.003306 0.013688 -0.001224 0.000000 0.000000 0.000000
# 3 -0.002616 -0.001224 0.033928 0.000000 0.000000 0.000000
# 4 0.000000 0.000000 0.000000 0.061182 0.000000 0.000000
# 5 0.000000 0.000000 0.000000 0.000000 0.054517 0.000000
# 6 0.000000 0.000000 0.000000 0.000000 0.000000 0.196890
#
#
# Mechanical properties :
#
#
# Convention : Reuss Voigt Hill
#
# Bulk Modulus (GPa) = 21.96642 29.78388 25.87515
# Shear Modulus (GPa) = 12.44178 18.89582 15.66880
#
# Velocity S-wave (km/s) = 2.73291 3.36796 3.06691
# Velocity P-wave (km/s) = 4.81090 5.74486 5.29850
#
# Compressibility (1/GPa) = 0.04552404
#
# Stress axis : x y z
#
# Youngs Moduli (GPa) = 81.96978 73.05444 29.47454
#
# Poissons Ratio (x) = 0.24151 0.07711
# Poissons Ratio (y) = 0.27099 0.03607
# Poissons Ratio (z) = 0.21444 0.08941
#
# Static dielectric constant tensor:
#      x y z
#    x 1.624230 0.000000 0.000000 
#    y 0.000000 1.586690 0.000000 
#    z 0.000000 0.000000 1.575090 
# 
# From -- ./inp_files/7116.got.cif
#   From: 2010.05.17/outbox.cif.g08.bks.cpg/sg72_4_cif.got.tgz:7116.got - 2010.06.03 17:03:01.
