data_PCOD9525290
_publ_section_title
;
Structure prediction by ZEFSAII (Michael W. Deem and Ramdas Pophale) SiO2 
 PCOD9525290
Probable space group: I B A M
;
_chemical_formula_sum "Si O2"
_cell_formula_units_Z 80
_cell_length_a 17.479896
_cell_length_b 15.013885
_cell_length_c 15.578130
_cell_angle_alpha 90.000000
_cell_angle_beta 90.000000
_cell_angle_gamma 90.000000
_cell_volume 4088.342326
_symmetry_space_group_name_H-M "I B A M"
_symmetry_group_IT_number 72
_symmetry_cell_setting 'orthorhombic'
loop_
_space_group_symop_operation_xyz
x,y,z
-x,-y,z
x,-y,1/2-z
-x,y,1/2-z
-x,-y,-z
x,y,-z
-x,y,1/2+z
x,-y,1/2+z
1/2+x,1/2+y,1/2+z
1/2-x,1/2-y,1/2+z
1/2+x,1/2-y,-z
1/2-x,1/2+y,-z
1/2-x,1/2-y,1/2-z
1/2+x,1/2+y,1/2-z
1/2-x,1/2+y,z
1/2+x,1/2-y,z
loop_
_atom_site_type_symbol
_atom_site_label
_atom_site_fract_x
_atom_site_fract_y
_atom_site_fract_z
Si Si1 0.880521 0.287202 0.095562
Si Si2 0.921610 0.960180 0.898292
Si Si3 0.813157 0.327607 0.265716
Si Si4 0.459354 0.269548 0.661279
Si Si5 0.794847 0.905258 0.398843
O O1 0.843217 0.347653 0.169714
O O2 0.845146 0.186689 0.103861
O O3 0.971599 0.275596 0.109037
O O4 0.863165 0.319060 0.000000
O O5 0.924328 0.855810 0.883391
O O6 0.848412 0.014130 0.867854
O O7 0.922146 0.978160 0.000000
O O8 0.000000 0.000000 0.861562
O O9 0.750000 0.250000 0.250000
O O10 0.888728 0.292099 0.313528
O O11 0.772849 0.394978 0.330638
O O12 0.500000 0.298398 0.750000
O O13 0.772613 0.916021 0.500000
#
# Coordination Sequence:
#
# PCOD9525290 Si02
#       5
#    16  16  16  16  16
#     4   9  16  30  49  68  97 136 177 224 266 307
#     4  10  18  30  48  73 105 141 178 212 258 321
#     4   9  19  33  44  69 104 140 179 214 264 323
#     4  10  19  30  47  75 102 138 180 219 263 324
#     4   9  17  30  47  68 105 145 174 217 263 309
#
# _framework density 19.567833
#
# number of rings (size 3 to 8) (size 9 to 14) (size 15 to 20)
#    0.000    2.600    2.000    0.600    0.000    2.000 
#    0.000    0.000    0.000    0.000    0.000    1.400 
#    0.000   50.400    0.000   90.800    0.000    0.000 
#
# Total GULP energy -222959.986468 kJ/mol
# GULP energy per Si atom -5573.999662 kJ/mol
# Density = 1.952330 g / cm^3
# Si number density = 19.567833 Si / 1000 Ang^3
#
#
#
# Elastic Constant Matrix: (Units=GPa)
#
#
# Indices 1 2 3 4 5 6 
#
# 1 121.0187 33.3918 73.8824 0.0000 0.0000 0.0000
# 2 33.3918 17.0293 28.3745 0.0000 0.0000 0.0000
# 3 73.8824 28.3745 107.5131 0.0000 0.0000 0.0000
# 4 0.0000 0.0000 0.0000 4.1409 0.0000 0.0000
# 5 0.0000 0.0000 0.0000 0.0000 18.9278 0.0000
# 6 0.0000 0.0000 0.0000 0.0000 0.0000 29.4506
#
#
#
# Elastic Compliance Matrix: (Units=1/GPa)
#
#
# Indices 1 2 3 4 5 6 
#
# 1 0.019993 -0.029114 -0.006056 0.000000 0.000000 0.000000
# 2 -0.029114 0.147208 -0.018844 0.000000 0.000000 0.000000
# 3 -0.006056 -0.018844 0.018436 0.000000 0.000000 0.000000
# 4 0.000000 0.000000 0.000000 0.241491 0.000000 0.000000
# 5 0.000000 0.000000 0.000000 0.000000 0.052832 0.000000
# 6 0.000000 0.000000 0.000000 0.000000 0.000000 0.033955
#
#
# Mechanical properties :
#
#
# Convention : Reuss Voigt Hill
#
# Bulk Modulus (GPa) = 12.88485 57.42873 35.15679
# Shear Modulus (GPa) = 7.71828 17.83135 12.77482
#
# Velocity S-wave (km/s) = 1.98820 3.02198 2.55786
# Velocity P-wave (km/s) = 3.44523 6.44893 5.17003
#
# Compressibility (1/GPa) = 0.07761055
#
# Stress axis : x y z
#
# Youngs Moduli (GPa) = 50.01663 6.79311 54.24200
#
# Poissons Ratio (x) = 0.19777 0.32847
# Poissons Ratio (y) = 1.45617 1.02213
# Poissons Ratio (z) = 0.30289 0.12801
#
# Static dielectric constant tensor:
#      x y z
#    x 1.686320 0.000000 0.000000 
#    y 0.000000 1.661450 0.000000 
#    z 0.000000 0.000000 1.731690 
# 
# From -- ./inp_files/30477.got.cif
#   From: 2010.05.17/outbox.cif.g08.bks.cpg/sg72_16_cif.got.tgz:30477.got - 2010.06.03 17:03:01.
