data_PCOD9525811
_publ_section_title
;
Structure prediction by ZEFSAII (Michael W. Deem and Ramdas Pophale) SiO2 
 PCOD9525811
Probable space group: I B A M
;
_chemical_formula_sum "Si O2"
_cell_formula_units_Z 112
_cell_length_a 38.729300
_cell_length_b 19.775561
_cell_length_c 7.636536
_cell_angle_alpha 90.000000
_cell_angle_beta 90.000000
_cell_angle_gamma 90.000000
_cell_volume 5848.774313
_symmetry_space_group_name_H-M "I B A M"
_symmetry_group_IT_number 72
_symmetry_cell_setting 'orthorhombic'
loop_
_space_group_symop_operation_xyz
x,y,z
-x,-y,z
x,-y,1/2-z
-x,y,1/2-z
-x,-y,-z
x,y,-z
-x,y,1/2+z
x,-y,1/2+z
1/2+x,1/2+y,1/2+z
1/2-x,1/2-y,1/2+z
1/2+x,1/2-y,-z
1/2-x,1/2+y,-z
1/2-x,1/2-y,1/2-z
1/2+x,1/2+y,1/2-z
1/2-x,1/2+y,z
1/2+x,1/2-y,z
loop_
_atom_site_type_symbol
_atom_site_label
_atom_site_fract_x
_atom_site_fract_y
_atom_site_fract_z
Si Si1 0.316272 0.576022 0.210193
Si Si2 0.395748 0.424528 0.710194
Si Si3 0.213392 0.783337 0.289411
Si Si4 0.353056 0.796472 0.787560
Si Si5 0.922405 0.786531 0.787893
Si Si6 0.460973 0.842386 0.789953
Si Si7 0.894195 0.577887 0.210060
O O1 0.303835 0.500000 0.250000
O O2 0.356027 0.582006 0.275667
O O3 0.293737 0.639735 0.273572
O O4 0.317840 0.580736 0.000000
O O5 0.407931 0.500000 0.750000
O O6 0.393902 0.418023 0.500000
O O7 0.419527 0.363295 0.776119
O O8 0.210571 0.785746 0.500000
O O9 0.250000 0.750000 0.250000
O O10 0.182298 0.735782 0.222434
O O11 0.385390 0.747758 0.748608
O O12 0.364567 0.870709 0.725767
O O13 0.350646 0.798774 0.000000
O O14 0.950928 0.733044 0.724440
O O15 0.925657 0.788723 0.000000
O O16 0.500000 0.861428 0.750000
O O17 0.431223 0.893508 0.725480
O O18 0.458002 0.840931 0.000000
O O19 0.888936 0.500000 0.250000
O O20 0.894700 0.584219 0.000000
#
# Coordination Sequence:
#
# PCOD9525811 Si02
#       7
#    16  16  16  16  16  16  16
#     4   9  17  29  47  69  93 120 149 188 235 280
#     4   9  15  25  44  69  92 114 145 187 229 270
#     4  10  19  32  50  71  95 126 162 197 236 283
#     4   8  14  29  50  67  86 118 158 191 226 277
#     4   8  13  26  48  67  86 118 157 189 221 272
#     4   9  18  31  48  70  94 123 158 194 234 280
#     4   9  18  32  51  72  93 122 159 197 237 282
#
# _framework density 19.149311000000001
#
# number of rings (size 3 to 8) (size 9 to 14) (size 15 to 20)
#    0.000    3.143    1.429    1.714    0.000    1.429 
#    0.000    3.571    0.000    5.571    0.000    3.000 
#    0.000    0.000    0.000    0.000    0.000    0.000 
#
# Total GULP energy -311947.521429 kJ/mol
# GULP energy per Si atom -5570.491454 kJ/mol
# Density = 1.910573 g / cm^3
# Si number density = 19.149311 Si / 1000 Ang^3
#
#
#
# Elastic Constant Matrix: (Units=GPa)
#
#
# Indices 1 2 3 4 5 6 
#
# 1 73.5129 46.9612 2.5813 0.0000 0.0000 0.0000
# 2 46.9612 173.8906 6.0908 0.0000 0.0000 0.0000
# 3 2.5813 6.0908 34.8029 0.0000 0.0001 0.0000
# 4 0.0000 0.0000 0.0000 20.6680 0.0000 0.0000
# 5 0.0000 0.0000 0.0001 0.0000 33.8097 0.0000
# 6 0.0000 0.0000 0.0000 0.0000 0.0000 20.1477
#
#
#
# Elastic Compliance Matrix: (Units=1/GPa)
#
#
# Indices 1 2 3 4 5 6 
#
# 1 0.016446 -0.004426 -0.000445 0.000000 0.000000 0.000000
# 2 -0.004426 0.006977 -0.000893 0.000000 0.000000 0.000000
# 3 -0.000445 -0.000893 0.028923 0.000000 0.000000 0.000000
# 4 0.000000 0.000000 0.000000 0.048384 0.000000 0.000000
# 5 0.000000 0.000000 0.000000 0.000000 0.029577 0.000000
# 6 0.000000 0.000000 0.000000 0.000000 0.000000 0.049633
#
#
# Mechanical properties :
#
#
# Convention : Reuss Voigt Hill
#
# Bulk Modulus (GPa) = 24.49901 43.71922 34.10911
# Shear Modulus (GPa) = 24.38142 30.02995 27.20569
#
# Velocity S-wave (km/s) = 3.57210 3.96435 3.77332
# Velocity P-wave (km/s) = 5.46211 6.62080 6.06917
#
# Compressibility (1/GPa) = 0.04081798
#
# Stress axis : x y z
#
# Youngs Moduli (GPa) = 60.80510 143.32265 34.57515
#
# Poissons Ratio (x) = 0.63432 0.01539
# Poissons Ratio (y) = 0.26911 0.03087
# Poissons Ratio (z) = 0.02707 0.12796
#
# Static dielectric constant tensor:
#      x y z
#    x 1.642520 0.000000 0.000000 
#    y 0.000000 1.702180 0.000000 
#    z 0.000000 0.000000 1.728880 
# 
# From -- ./inp_files/13139.got.cif
#   From: 2010.05.17/outbox.cif.g08.bks.cpg/sg72_7_cif.got.tgz:13139.got - 2010.06.03 17:03:01.
