data_PCOD9525345
_publ_section_title
;
Structure prediction by ZEFSAII (Michael W. Deem and Ramdas Pophale) SiO2 
 PCOD9525345
Probable space group: I B A M
;
_chemical_formula_sum "Si O2"
_cell_formula_units_Z 112
_cell_length_a 15.948581
_cell_length_b 28.993883
_cell_length_c 15.135108
_cell_angle_alpha 90.000000
_cell_angle_beta 90.000000
_cell_angle_gamma 90.000000
_cell_volume 6998.644838
_symmetry_space_group_name_H-M "I B A M"
_symmetry_group_IT_number 72
_symmetry_cell_setting 'orthorhombic'
loop_
_space_group_symop_operation_xyz
x,y,z
-x,-y,z
x,-y,1/2-z
-x,y,1/2-z
-x,-y,-z
x,y,-z
-x,y,1/2+z
x,-y,1/2+z
1/2+x,1/2+y,1/2+z
1/2-x,1/2-y,1/2+z
1/2+x,1/2-y,-z
1/2-x,1/2+y,-z
1/2-x,1/2-y,1/2-z
1/2+x,1/2+y,1/2-z
1/2-x,1/2+y,z
1/2+x,1/2-y,z
loop_
_atom_site_type_symbol
_atom_site_label
_atom_site_fract_x
_atom_site_fract_y
_atom_site_fract_z
Si Si1 0.405631 0.096417 0.719080
Si Si2 0.111002 0.722475 0.901711
Si Si3 0.175717 0.588746 0.098839
Si Si4 0.788196 0.166511 0.402648
Si Si5 0.400976 0.011708 0.600968
Si Si6 0.073435 0.314153 0.896813
Si Si7 0.654585 0.736185 0.272983
O O1 0.500000 0.087692 0.750000
O O2 0.361154 0.108113 0.810456
O O3 0.374856 0.050288 0.670652
O O4 0.402933 0.138350 0.650760
O O5 0.196508 0.692226 0.898161
O O6 0.109595 0.758397 0.821124
O O7 0.027229 0.692088 0.891990
O O8 0.108587 0.743524 0.000000
O O9 0.267224 0.612176 0.099545
O O10 0.154820 0.534500 0.106077
O O11 0.140753 0.601509 0.000000
O O12 0.823115 0.178000 0.500000
O O13 0.841652 0.187639 0.323528
O O14 0.395912 0.029377 0.500000
O O15 0.500000 0.000000 0.615583
O O16 0.115980 0.273196 0.841064
O O17 0.097459 0.313027 0.000000
O O18 0.750000 0.750000 0.250000
#
# Coordination Sequence:
#
# PCOD9525345 Si02
#       7
#    16  16  16  16  16  16  16
#     4  12  20  28  43  61  85 115 151 189 234 271
#     4   9  18  30  44  63  87 112 142 183 234 277
#     4  10  20  31  42  57  80 109 148 191 233 271
#     4   9  17  30  46  62  82 113 151 192 230 277
#     4  10  20  31  42  59  82 113 150 192 234 273
#     4  11  22  33  46  67  92 119 153 198 241 281
#     4  10  18  31  47  64  84 113 151 191 232 279
#
# _framework density 16.003098999999999
#
# number of rings (size 3 to 8) (size 9 to 14) (size 15 to 20)
#    0.000    1.857    1.429    5.143    0.000    2.286 
#    0.000    0.000    0.000    0.000    0.000    0.000 
#    0.000    0.000    0.000    0.000    0.000   70.000 
#
# Total GULP energy -311807.797915 kJ/mol
# GULP energy per Si atom -5567.996391 kJ/mol
# Density = 1.596668 g / cm^3
# Si number density = 16.003099 Si / 1000 Ang^3
#
#
#
# Elastic Constant Matrix: (Units=GPa)
#
#
# Indices 1 2 3 4 5 6 
#
# 1 11.6663 14.6401 21.1831 0.0000 0.0000 0.0000
# 2 14.6401 79.0382 55.2006 0.0000 0.0000 0.0000
# 3 21.1831 55.2006 157.6630 0.0000 0.0000 0.0000
# 4 0.0000 0.0000 0.0000 0.6533 0.0000 0.0000
# 5 0.0000 0.0000 0.0000 0.0000 22.9910 0.0000
# 6 0.0000 0.0000 0.0000 0.0000 0.0000 22.4062
#
#
#
# Elastic Compliance Matrix: (Units=1/GPa)
#
#
# Indices 1 2 3 4 5 6 
#
# 1 0.125845 -0.015224 -0.011578 0.000002 0.000000 0.000000
# 2 -0.015224 0.018589 -0.004463 0.000000 0.000000 0.000000
# 3 -0.011578 -0.004463 0.009461 0.000000 0.000000 0.000000
# 4 0.000002 0.000000 0.000000 1.530642 0.000000 0.000000
# 5 0.000000 0.000000 0.000000 0.000000 0.043495 0.000000
# 6 0.000000 0.000000 0.000000 0.000000 0.000000 0.044631
#
#
# Mechanical properties :
#
#
# Convention : Reuss Voigt Hill
#
# Bulk Modulus (GPa) = 10.94513 47.82389 29.38451
# Shear Modulus (GPa) = 2.68004 19.69967 11.18986
#
# Velocity S-wave (km/s) = 1.29551 3.51235 2.64717
# Velocity P-wave (km/s) = 3.01530 6.81160 5.26735
#
# Compressibility (1/GPa) = 0.09136483
#
# Stress axis : x y z
#
# Youngs Moduli (GPa) = 7.94631 53.79556 105.69996
#
# Poissons Ratio (x) = 0.81898 1.22378
# Poissons Ratio (y) = 0.12097 0.47172
# Poissons Ratio (z) = 0.09200 0.24008
#
# Static dielectric constant tensor:
#      x y z
#    x 1.547690 0.000000 0.000000 
#    y 0.000000 1.562330 0.000000 
#    z 0.000000 0.000000 1.189500 
# 
# From -- ./inp_files/22420.got.cif
#   From: 2010.05.17/outbox.cif.g08.bks.cpg/sg72_12_cif.got.tgz:22420.got - 2010.06.03 17:03:01.
