data_PCOD9525013
_publ_section_title
;
Structure prediction by ZEFSAII (Michael W. Deem and Ramdas Pophale) SiO2 
 PCOD9525013
Probable space group: I B A M
;
_chemical_formula_sum "Si O2"
_cell_formula_units_Z 116
_cell_length_a 9.508077
_cell_length_b 24.701039
_cell_length_c 24.632914
_cell_angle_alpha 90.000000
_cell_angle_beta 90.000000
_cell_angle_gamma 90.000000
_cell_volume 5785.270929
_symmetry_space_group_name_H-M "I B A M"
_symmetry_group_IT_number 72
_symmetry_cell_setting 'orthorhombic'
loop_
_space_group_symop_operation_xyz
x,y,z
-x,-y,z
x,-y,1/2-z
-x,y,1/2-z
-x,-y,-z
x,y,-z
-x,y,1/2+z
x,-y,1/2+z
1/2+x,1/2+y,1/2+z
1/2-x,1/2-y,1/2+z
1/2+x,1/2-y,-z
1/2-x,1/2+y,-z
1/2-x,1/2-y,1/2-z
1/2+x,1/2+y,1/2-z
1/2-x,1/2+y,z
1/2+x,1/2-y,z
loop_
_atom_site_type_symbol
_atom_site_label
_atom_site_fract_x
_atom_site_fract_y
_atom_site_fract_z
Si Si1 0.500000 0.000000 0.250000
Si Si2 0.460457 0.586229 0.307357
Si Si3 0.763730 0.982940 0.825851
Si Si4 0.838783 0.283016 0.436825
Si Si5 0.613897 0.367343 0.582961
Si Si6 0.686153 0.031818 0.061807
Si Si7 0.187573 0.163740 0.062385
Si Si8 0.029442 0.618505 0.065976
O O1 0.381959 0.026393 0.208144
O O2 0.500000 0.611716 0.250000
O O3 0.344856 0.537540 0.303152
O O4 0.610378 0.560485 0.324435
O O5 0.399389 0.625795 0.352505
O O6 0.733219 0.994585 0.889097
O O7 0.881017 0.277212 0.500000
O O8 0.686989 0.311450 0.433812
O O9 0.836043 0.223183 0.412302
O O10 0.940495 0.329541 0.413849
O O11 0.704382 0.417493 0.561077
O O12 0.456484 0.368096 0.562008
O O13 0.542836 0.061995 0.079687
O O14 0.677970 0.009597 0.000000
O O15 0.314379 0.129164 0.085847
O O16 0.230874 0.174704 0.000000
O O17 0.020265 0.617997 0.000000
#
# Coordination Sequence:
#
# PCOD9525013 Si02
#       8
#     4  16  16  16  16  16  16  16
#     4  12  20  34  58  84  96 122 188 234 244 306
#     4  10  19  39  56  74 105 131 174 222 276 304
#     4  10  20  35  59  80 101 137 174 227 262 308
#     4   9  16  28  44  68 103 140 177 207 245 301
#     4  10  19  29  52  77  99 140 176 216 250 309
#     4   9  18  34  50  72 110 145 171 202 268 330
#     4  10  17  26  44  72 104 136 175 213 244 295
#     4   8  15  26  40  61  99 140 164 203 253 300
#
# _framework density 20.050920000000001
#
# number of rings (size 3 to 8) (size 9 to 14) (size 15 to 20)
#    0.000    2.483    1.379    3.310    0.000    3.310 
#    0.000    7.241    0.000    0.828    0.000    0.000 
#    0.000    0.000    0.000    0.000    0.000    0.000 
#
# Total GULP energy -323178.218585 kJ/mol
# GULP energy per Si atom -5572.038251 kJ/mol
# Density = 2.000528 g / cm^3
# Si number density = 20.050920 Si / 1000 Ang^3
#
#
#
# Elastic Constant Matrix: (Units=GPa)
#
#
# Indices 1 2 3 4 5 6 
#
# 1 128.8438 17.0641 2.4675 0.0000 0.0000 0.0000
# 2 17.0641 49.4222 13.1321 0.0000 0.0000 0.0000
# 3 2.4675 13.1321 79.2685 0.0000 0.0000 0.0000
# 4 0.0000 0.0000 0.0000 9.5980 0.0000 0.0000
# 5 0.0000 0.0000 0.0000 0.0000 28.0265 0.0000
# 6 0.0000 0.0000 0.0000 0.0000 0.0000 10.0950
#
#
#
# Elastic Compliance Matrix: (Units=1/GPa)
#
#
# Indices 1 2 3 4 5 6 
#
# 1 0.008137 -0.002868 0.000222 0.000000 0.000000 0.000000
# 2 -0.002868 0.022177 -0.003585 0.000000 0.000000 0.000000
# 3 0.000222 -0.003585 0.013202 0.000000 0.000000 0.000000
# 4 0.000000 0.000000 0.000000 0.104188 0.000000 0.000000
# 5 0.000000 0.000000 0.000000 0.000000 0.035681 0.000000
# 6 0.000000 0.000000 0.000000 0.000000 0.000000 0.099059
#
#
# Mechanical properties :
#
#
# Convention : Reuss Voigt Hill
#
# Bulk Modulus (GPa) = 32.20233 35.87356 34.03794
# Shear Modulus (GPa) = 16.37961 24.53527 20.45744
#
# Velocity S-wave (km/s) = 2.86125 3.50186 3.19764
# Velocity P-wave (km/s) = 5.19719 5.85498 5.53586
#
# Compressibility (1/GPa) = 0.03105366
#
# Stress axis : x y z
#
# Youngs Moduli (GPa) = 122.89564 45.09235 75.74445
#
# Poissons Ratio (x) = 0.12934 -0.01681
# Poissons Ratio (y) = 0.35252 0.27152
# Poissons Ratio (z) = -0.02727 0.16164
#
# Static dielectric constant tensor:
#      x y z
#    x 1.755900 0.000000 0.000000 
#    y 0.000000 1.742000 0.000000 
#    z 0.000000 0.000000 1.748840 
# 
# From -- ./inp_files/42702.got.cif
#   From: 2010.05.17/outbox.cif.g08.bks.cpg/sg72_22_cif.got.tgz:42702.got - 2010.06.03 17:03:01.
