data_PCOD9525537
_publ_section_title
;
Structure prediction by ZEFSAII (Michael W. Deem and Ramdas Pophale) SiO2 
 PCOD9525537
Probable space group: I B A M
;
_chemical_formula_sum "Si O2"
_cell_formula_units_Z 96
_cell_length_a 11.059756
_cell_length_b 20.033268
_cell_length_c 20.904593
_cell_angle_alpha 90.000000
_cell_angle_beta 90.000000
_cell_angle_gamma 90.000000
_cell_volume 4631.685509
_symmetry_space_group_name_H-M "I B A M"
_symmetry_group_IT_number 72
_symmetry_cell_setting 'orthorhombic'
loop_
_space_group_symop_operation_xyz
x,y,z
-x,-y,z
x,-y,1/2-z
-x,y,1/2-z
-x,-y,-z
x,y,-z
-x,y,1/2+z
x,-y,1/2+z
1/2+x,1/2+y,1/2+z
1/2-x,1/2-y,1/2+z
1/2+x,1/2-y,-z
1/2-x,1/2+y,-z
1/2-x,1/2-y,1/2-z
1/2+x,1/2+y,1/2-z
1/2-x,1/2+y,z
1/2+x,1/2-y,z
loop_
_atom_site_type_symbol
_atom_site_label
_atom_site_fract_x
_atom_site_fract_y
_atom_site_fract_z
Si Si1 0.053299 0.570415 0.821635
Si Si2 0.270823 0.749335 0.102431
Si Si3 0.898114 0.131228 0.339113
Si Si4 0.688118 0.502630 0.320920
Si Si5 0.669036 0.353606 0.690801
Si Si6 0.976154 0.316953 0.069890
O O1 0.191416 0.547024 0.814828
O O2 0.000000 0.500000 0.845896
O O3 0.000000 0.584406 0.750000
O O4 0.035438 0.631162 0.870692
O O5 0.317524 0.675308 0.115522
O O6 0.249751 0.793274 0.166381
O O7 0.388673 0.784963 0.071627
O O8 0.135864 0.736390 0.074289
O O9 0.896627 0.053448 0.358649
O O10 0.847967 0.142697 0.266886
O O11 0.034885 0.155472 0.336732
O O12 0.632738 0.500000 0.250000
O O13 0.712990 0.425760 0.336351
O O14 0.962750 0.350297 0.000000
#
# Coordination Sequence:
#
# PCOD9525537 Si02
#       6
#    16  16  16  16  16  16
#     4  11  22  39  66 100 131 168 213 268 333 395
#     4  12  23  43  65  90 125 175 229 270 325 390
#     4  10  20  35  58  95 132 173 215 267 329 390
#     4  10  18  34  58  93 131 169 208 263 331 389
#     4  10  21  35  59  97 135 168 215 271 329 394
#     4  12  28  46  68  94 131 179 222 273 328 392
#
# _framework density 20.726796
#
# number of rings (size 3 to 8) (size 9 to 14) (size 15 to 20)
#    0.000    1.167    5.000    2.500    2.333    3.667 
#    0.000    0.000    0.000    0.000    0.000    2.333 
#    0.000    0.000    0.000    0.000    0.000    0.000 
#
# Total GULP energy -267215.313935 kJ/mol
# GULP energy per Si atom -5566.985707 kJ/mol
# Density = 2.067962 g / cm^3
# Si number density = 20.726796 Si / 1000 Ang^3
#
#
#
# Elastic Constant Matrix: (Units=GPa)
#
#
# Indices 1 2 3 4 5 6 
#
# 1 117.0153 17.0617 26.9453 0.0000 0.0000 0.0000
# 2 17.0617 100.0846 37.0357 0.0000 0.0000 0.0000
# 3 26.9453 37.0357 72.5284 0.0000 0.0000 0.0000
# 4 0.0000 0.0000 0.0000 7.2461 0.0000 0.0000
# 5 0.0000 0.0000 0.0000 0.0000 -1.1126 0.0000
# 6 0.0000 0.0000 0.0000 0.0000 0.0000 38.8375
#
#
#
# Elastic Compliance Matrix: (Units=1/GPa)
#
#
# Indices 1 2 3 4 5 6 
#
# 1 0.009357 -0.000381 -0.003282 0.000000 0.000000 0.000000
# 2 -0.000381 0.012335 -0.006157 0.000000 0.000000 0.000000
# 3 -0.003282 -0.006157 0.018151 0.000000 0.000000 0.000000
# 4 0.000000 0.000000 0.000000 0.138006 0.000000 0.000000
# 5 0.000000 0.000000 0.000000 0.000000 -0.898763 0.000000
# 6 0.000000 0.000000 0.000000 0.000000 0.000000 0.025748
#
#
# Mechanical properties :
#
#
# Convention : Reuss Voigt Hill
#
# Bulk Modulus (GPa) = 49.49649 50.19043 49.84346
# Shear Modulus (GPa) = -7.47617 22.89989 7.71186
#
# Velocity S-wave (km/s) = -1.90127 3.32753 1.93101
# Velocity P-wave (km/s) = 4.37178 6.24748 5.39182
#
# Compressibility (1/GPa) = 0.02020345
#
# Stress axis : x y z
#
# Youngs Moduli (GPa) = 106.87041 81.07085 55.09312
#
# Poissons Ratio (x) = 0.03086 0.18081
# Poissons Ratio (y) = 0.04068 0.33922
# Poissons Ratio (z) = 0.35074 0.49917
#
# Static dielectric constant tensor:
#      x y z
#    x 1.880910 0.000000 0.000000 
#    y 0.000000 1.805670 0.000000 
#    z 0.000000 0.000000 1.721060 
# 
# From -- ./inp_files/48124.got.cif
#   From: 2010.05.17/outbox.cif.g08.bks.cpg/sg72_25_cif.got.tgz:48124.got - 2010.06.03 17:03:01.
