data_PCOD9525582
_publ_section_title
;
Structure prediction by ZEFSAII (Michael W. Deem and Ramdas Pophale) SiO2 
 PCOD9525582
Probable space group: I B A M
;
_chemical_formula_sum "Si O2"
_cell_formula_units_Z 88
_cell_length_a 21.348123
_cell_length_b 13.139742
_cell_length_c 17.523564
_cell_angle_alpha 90.000000
_cell_angle_beta 90.000000
_cell_angle_gamma 90.000000
_cell_volume 4915.514407
_symmetry_space_group_name_H-M "I B A M"
_symmetry_group_IT_number 72
_symmetry_cell_setting 'orthorhombic'
loop_
_space_group_symop_operation_xyz
x,y,z
-x,-y,z
x,-y,1/2-z
-x,y,1/2-z
-x,-y,-z
x,y,-z
-x,y,1/2+z
x,-y,1/2+z
1/2+x,1/2+y,1/2+z
1/2-x,1/2-y,1/2+z
1/2+x,1/2-y,-z
1/2-x,1/2+y,-z
1/2-x,1/2-y,1/2-z
1/2+x,1/2+y,1/2-z
1/2-x,1/2+y,z
1/2+x,1/2-y,z
loop_
_atom_site_type_symbol
_atom_site_label
_atom_site_fract_x
_atom_site_fract_y
_atom_site_fract_z
Si Si1 0.562210 0.441216 0.327392
Si Si2 0.803266 0.498887 0.910198
Si Si3 0.905130 0.407049 0.304106
Si Si4 0.177106 0.871751 0.912350
Si Si5 0.000000 0.249889 0.250000
Si Si6 0.300281 0.809086 0.301606
O O1 0.500000 0.500000 0.355863
O O2 0.581084 0.500000 0.250000
O O3 0.620006 0.441912 0.384447
O O4 0.541655 0.328056 0.300436
O O5 0.868336 0.546864 0.877315
O O6 0.745439 0.577467 0.903954
O O7 0.783398 0.405412 0.855099
O O8 0.809548 0.471424 0.000000
O O9 0.926171 0.500000 0.250000
O O10 0.851051 0.351040 0.256661
O O11 0.960275 0.323711 0.306073
O O12 0.173997 0.773779 0.859677
O O13 0.168454 0.844887 0.000000
O O14 0.250000 0.750000 0.250000
#
# Coordination Sequence:
#
# PCOD9525582 Si02
#       6
#    16  16  16  16   8  16
#     4   9  21  36  58  83 116 153 198 241 285 350
#     4  10  23  39  55  87 124 149 186 245 300 347
#     4  10  20  34  59  83 108 148 193 238 283 341
#     4  11  22  37  59  85 119 155 188 238 299 350
#     4  10  18  36  58  86 108 150 202 246 272 338
#     4  11  21  35  61  85 111 150 197 237 284 343
#
# _framework density 17.9025
#
# number of rings (size 3 to 8) (size 9 to 14) (size 15 to 20)
#    0.000    2.000    3.636    0.818    2.545    0.364 
#    0.000    0.909    0.000    2.182    0.000    0.000 
#    0.000    0.000    0.000    0.000    0.000    0.000 
#
# Total GULP energy -245057.611678 kJ/mol
# GULP energy per Si atom -5569.491175 kJ/mol
# Density = 1.786175 g / cm^3
# Si number density = 17.902500 Si / 1000 Ang^3
#
#
#
# Elastic Constant Matrix: (Units=GPa)
#
#
# Indices 1 2 3 4 5 6 
#
# 1 58.4373 23.6056 33.8562 0.0000 0.0000 0.0000
# 2 23.6056 85.6320 32.5912 0.0000 0.0000 0.0000
# 3 33.8562 32.5912 93.5676 0.0000 0.0000 0.0000
# 4 0.0000 0.0000 0.0000 17.2254 0.0000 0.0000
# 5 0.0000 0.0000 0.0000 0.0000 21.7315 0.0000
# 6 0.0000 0.0000 0.0000 0.0000 0.0000 16.0227
#
#
#
# Elastic Compliance Matrix: (Units=1/GPa)
#
#
# Indices 1 2 3 4 5 6 
#
# 1 0.022569 -0.003589 -0.006916 0.000000 0.000000 0.000000
# 2 -0.003589 0.014033 -0.003589 0.000000 0.000000 0.000000
# 3 -0.006916 -0.003589 0.014440 0.000000 0.000000 0.000000
# 4 0.000000 0.000000 0.000000 0.058054 0.000000 0.000000
# 5 0.000000 0.000000 0.000000 0.000000 0.046016 0.000000
# 6 0.000000 0.000000 0.000000 0.000000 0.000000 0.062412
#
#
# Mechanical properties :
#
#
# Convention : Reuss Voigt Hill
#
# Bulk Modulus (GPa) = 43.75738 46.41586 45.08662
# Shear Modulus (GPa) = 19.73698 20.83485 20.28592
#
# Velocity S-wave (km/s) = 3.32395 3.41515 3.36986
# Velocity P-wave (km/s) = 6.26312 6.44471 6.35456
#
# Compressibility (1/GPa) = 0.02285329
#
# Stress axis : x y z
#
# Youngs Moduli (GPa) = 44.30830 71.25868 69.25111
#
# Poissons Ratio (x) = 0.25576 0.47895
# Poissons Ratio (y) = 0.15903 0.24857
# Poissons Ratio (z) = 0.30644 0.25577
#
# Static dielectric constant tensor:
#      x y z
#    x 1.644060 0.000000 0.000000 
#    y 0.000000 1.652780 0.000000 
#    z 0.000000 0.000000 1.608680 
# 
# From -- ./inp_files/32462.got.cif
#   From: 2010.05.17/outbox.cif.g08.bks.cpg/sg72_17_cif.got.tgz:32462.got - 2010.06.03 17:03:01.
