data_PCOD9525403
_publ_section_title
;
Structure prediction by ZEFSAII (Michael W. Deem and Ramdas Pophale) SiO2 
 PCOD9525403
Probable space group: I B A M
;
_chemical_formula_sum "Si O2"
_cell_formula_units_Z 128
_cell_length_a 22.535138
_cell_length_b 18.690261
_cell_length_c 18.728868
_cell_angle_alpha 90.000000
_cell_angle_beta 90.000000
_cell_angle_gamma 90.000000
_cell_volume 7888.367168
_symmetry_space_group_name_H-M "I B A M"
_symmetry_group_IT_number 72
_symmetry_cell_setting 'orthorhombic'
loop_
_space_group_symop_operation_xyz
x,y,z
-x,-y,z
x,-y,1/2-z
-x,y,1/2-z
-x,-y,-z
x,y,-z
-x,y,1/2+z
x,-y,1/2+z
1/2+x,1/2+y,1/2+z
1/2-x,1/2-y,1/2+z
1/2+x,1/2-y,-z
1/2-x,1/2+y,-z
1/2-x,1/2-y,1/2-z
1/2+x,1/2+y,1/2-z
1/2-x,1/2+y,z
1/2+x,1/2-y,z
loop_
_atom_site_type_symbol
_atom_site_label
_atom_site_fract_x
_atom_site_fract_y
_atom_site_fract_z
Si Si1 0.925606 0.112654 0.415178
Si Si2 0.390355 0.524725 0.670863
Si Si3 0.788008 0.396883 0.191483
Si Si4 0.033746 0.833999 0.826626
Si Si5 0.759584 0.810255 0.582834
Si Si6 0.676171 0.704269 0.660163
Si Si7 0.860242 0.260003 0.816924
Si Si8 0.250648 0.955836 0.845413
O O1 0.922524 0.111321 0.500000
O O2 0.873414 0.159814 0.380707
O O3 0.985463 0.148962 0.386488
O O4 0.917711 0.032537 0.383757
O O5 0.406833 0.500000 0.750000
O O6 0.417730 0.603118 0.665384
O O7 0.319022 0.526015 0.665821
O O8 0.730843 0.348723 0.174417
O O9 0.843125 0.343742 0.180583
O O10 0.778030 0.421282 0.273346
O O11 0.784467 0.469083 0.144812
O O12 0.072244 0.761891 0.832983
O O13 0.000000 0.837286 0.750000
O O14 0.769482 0.794524 0.500000
O O15 0.702672 0.768211 0.613166
O O16 0.815010 0.781979 0.630251
O O17 0.749114 0.894343 0.595627
O O18 0.653767 0.732711 0.736533
#
# Coordination Sequence:
#
# PCOD9525403 Si02
#       8
#    16  16  16  16  16  16  16  16
#     4  12  26  38  54  81 114 151 195 239 278 324
#     4  12  20  35  55  79 111 150 191 221 265 332
#     4  10  18  31  59  82 104 137 186 232 275 331
#     4  12  23  36  57  76 106 155 194 227 271 325
#     4  11  22  34  53  83 117 147 181 230 288 339
#     4  11  18  38  57  79 107 146 191 231 279 334
#     4  11  20  37  58  80 105 148 194 236 273 331
#     4  11  18  33  54  83 112 146 176 224 284 340
#
# _framework density 16.226424999999999
#
# number of rings (size 3 to 8) (size 9 to 14) (size 15 to 20)
#    0.000    0.750    8.750    1.500    0.000    2.000 
#    0.000    0.625    0.000    0.000    0.000    6.125 
#    0.000    2.000    0.000    0.000    0.000    0.000 
#
# Total GULP energy -357197.589990 kJ/mol
# GULP energy per Si atom -5581.212344 kJ/mol
# Density = 1.618949 g / cm^3
# Si number density = 16.226425 Si / 1000 Ang^3
#
#
#
# Elastic Constant Matrix: (Units=GPa)
#
#
# Indices 1 2 3 4 5 6 
#
# 1 57.6003 36.0740 6.1696 0.0000 0.0000 0.0000
# 2 36.0740 96.3928 17.1645 0.0000 0.0000 0.0000
# 3 6.1696 17.1645 87.4680 0.0000 0.0000 0.0000
# 4 0.0000 0.0000 0.0000 15.3378 0.0000 0.0000
# 5 0.0000 0.0000 0.0000 0.0000 10.0567 0.0000
# 6 0.0000 0.0000 0.0000 0.0000 0.0000 29.9361
#
#
#
# Elastic Compliance Matrix: (Units=1/GPa)
#
#
# Indices 1 2 3 4 5 6 
#
# 1 0.022676 -0.008498 0.000068 0.000000 0.000000 0.000000
# 2 -0.008498 0.013935 -0.002135 0.000000 0.000000 0.000000
# 3 0.000068 -0.002135 0.011847 0.000000 0.000000 0.000000
# 4 0.000000 0.000000 0.000000 0.065199 0.000000 0.000000
# 5 0.000000 0.000000 0.000000 0.000000 0.099436 0.000000
# 6 0.000000 0.000000 0.000000 0.000000 0.000000 0.033404
#
#
# Mechanical properties :
#
#
# Convention : Reuss Voigt Hill
#
# Bulk Modulus (GPa) = 36.59347 40.03083 38.31215
# Shear Modulus (GPa) = 18.06773 23.20299 20.63536
#
# Velocity S-wave (km/s) = 3.34050 3.78557 3.56998
# Velocity P-wave (km/s) = 6.12203 6.62051 6.37614
#
# Compressibility (1/GPa) = 0.02732728
#
# Stress axis : x y z
#
# Youngs Moduli (GPa) = 44.09929 71.76248 84.41011
#
# Poissons Ratio (x) = 0.60987 -0.00576
# Poissons Ratio (y) = 0.37477 0.18022
# Poissons Ratio (z) = -0.00301 0.15322
#
# Static dielectric constant tensor:
#      x y z
#    x 1.546980 0.000000 0.000000 
#    y 0.000000 1.576590 0.000000 
#    z 0.000000 0.000000 1.545810 
# 
# From -- ./inp_files/32957.got.cif
#   From: 2010.05.17/outbox.cif.g08.bks.cpg/sg72_17_cif.got.tgz:32957.got - 2010.06.03 17:03:01.
