data_PCOD9525896
_publ_section_title
;
Structure prediction by ZEFSAII (Michael W. Deem and Ramdas Pophale) SiO2 
 PCOD9525896
Probable space group: I B A M
;
_chemical_formula_sum "Si O2"
_cell_formula_units_Z 96
_cell_length_a 26.182528
_cell_length_b 10.526382
_cell_length_c 14.257714
_cell_angle_alpha 90.000000
_cell_angle_beta 90.000000
_cell_angle_gamma 90.000000
_cell_volume 3929.529938
_symmetry_space_group_name_H-M "I B A M"
_symmetry_group_IT_number 72
_symmetry_cell_setting 'orthorhombic'
loop_
_space_group_symop_operation_xyz
x,y,z
-x,-y,z
x,-y,1/2-z
-x,y,1/2-z
-x,-y,-z
x,y,-z
-x,y,1/2+z
x,-y,1/2+z
1/2+x,1/2+y,1/2+z
1/2-x,1/2-y,1/2+z
1/2+x,1/2-y,-z
1/2-x,1/2+y,-z
1/2-x,1/2-y,1/2-z
1/2+x,1/2+y,1/2-z
1/2-x,1/2+y,z
1/2+x,1/2-y,z
loop_
_atom_site_type_symbol
_atom_site_label
_atom_site_fract_x
_atom_site_fract_y
_atom_site_fract_z
Si Si1 0.304090 0.644596 0.385257
Si Si2 0.726654 0.361344 0.114184
Si Si3 0.381429 0.264319 0.391524
Si Si4 0.412898 0.271873 0.107611
Si Si5 0.940015 0.497712 0.638160
Si Si6 0.482933 0.356797 0.608374
O O1 0.305114 0.645043 0.500000
O O2 0.278551 0.509843 0.358166
O O3 0.272873 0.770032 0.355562
O O4 0.362945 0.659891 0.353982
O O5 0.674657 0.290130 0.146200
O O6 0.729751 0.362457 0.000000
O O7 0.375603 0.303844 0.500000
O O8 0.427194 0.346475 0.348410
O O9 0.406622 0.125108 0.388205
O O10 0.408433 0.120397 0.105792
O O11 0.468820 0.287248 0.153127
O O12 0.417908 0.319537 0.000000
O O13 0.942340 0.500000 0.750000
O O14 0.000000 0.500000 0.605316
O O15 0.500000 0.500000 0.605988
O O16 0.478090 0.309121 0.500000
#
# Coordination Sequence:
#
# PCOD9525896 Si02
#       6
#    16  16  16  16  16  16
#     4   9  18  31  50  82 118 145 175 223 279 326
#     4   9  18  31  50  82 118 145 175 223 279 326
#     4  10  19  32  54  80 108 139 180 224 269 328
#     4  10  19  32  54  80 108 139 180 224 269 328
#     4  11  23  37  53  77 111 145 181 226 279 330
#     4   9  16  27  47  76 106 135 168 217 274 323
#
# _framework density 24.430402999999998
#
# number of rings (size 3 to 8) (size 9 to 14) (size 15 to 20)
#    0.000    2.333    1.667    1.500    2.333    4.667 
#    0.000    0.000    0.000    6.000    0.000    0.000 
#    0.000    0.000    0.000    0.000    0.000    0.000 
#
# Total GULP energy -267929.230161 kJ/mol
# GULP energy per Si atom -5581.858962 kJ/mol
# Density = 2.437480 g / cm^3
# Si number density = 24.430403 Si / 1000 Ang^3
#
#
#
# Elastic Constant Matrix: (Units=GPa)
#
#
# Indices 1 2 3 4 5 6 
#
# 1 129.6849 39.7300 -3.2021 0.0000 0.0000 0.0000
# 2 39.7300 121.8965 -26.9913 0.0000 0.0000 0.0000
# 3 -3.2021 -26.9913 87.6341 0.0000 0.0000 0.0000
# 4 0.0000 0.0000 0.0000 -332.5742 0.0000 0.0000
# 5 0.0000 0.0000 0.0000 0.0000 13.4059 0.0000
# 6 0.0000 0.0000 0.0000 0.0000 0.0000 40.7184
#
#
#
# Elastic Compliance Matrix: (Units=1/GPa)
#
#
# Indices 1 2 3 4 5 6 
#
# 1 0.008595 -0.002932 -0.000589 0.000000 0.000000 0.000000
# 2 -0.002932 0.009804 0.002913 0.000000 0.000000 0.000000
# 3 -0.000589 0.002913 0.012287 0.000000 0.000000 0.000000
# 4 0.000000 0.000000 0.000000 -0.003007 0.000000 0.000000
# 5 0.000000 0.000000 0.000000 0.000000 0.074594 0.000000
# 6 0.000000 0.000000 0.000000 0.000000 0.000000 0.024559
#
#
# Mechanical properties :
#
#
# Convention : Reuss Voigt Hill
#
# Bulk Modulus (GPa) = 33.93361 39.80987 36.87174
# Shear Modulus (GPa) = 36.26585 -33.71139 1.27723
#
# Velocity S-wave (km/s) = 3.85704 -3.71872 0.72384
# Velocity P-wave (km/s) = 5.80997 1.45188 3.97793
#
# Compressibility (1/GPa) = 0.02946931
#
# Stress axis : x y z
#
# Youngs Moduli (GPa) = 116.35225 101.99792 81.38928
#
# Poissons Ratio (x) = 0.29902 0.04793
# Poissons Ratio (y) = 0.34110 -0.23705
# Poissons Ratio (z) = 0.06852 -0.29707
#
# Static dielectric constant tensor:
#      x y z
#    x 1.962620 0.000000 0.000000 
#    y 0.000000 1.978620 0.000000 
#    z 0.000000 0.000000 1.993660 
# 
# From -- ./inp_files/36037.got.cif
#   From: 2010.05.17/outbox.cif.g08.bks.cpg/sg72_19_cif.got.tgz:36037.got - 2010.06.03 17:03:01.
