data_PCOD9525446
_publ_section_title
;
Structure prediction by ZEFSAII (Michael W. Deem and Ramdas Pophale) SiO2 
 PCOD9525446
Probable space group: I B A M
;
_chemical_formula_sum "Si O2"
_cell_formula_units_Z 60
_cell_length_a 15.510738
_cell_length_b 18.570503
_cell_length_c 10.952428
_cell_angle_alpha 90.000000
_cell_angle_beta 90.000000
_cell_angle_gamma 90.000000
_cell_volume 3154.761528
_symmetry_space_group_name_H-M "I B A M"
_symmetry_group_IT_number 72
_symmetry_cell_setting 'orthorhombic'
loop_
_space_group_symop_operation_xyz
x,y,z
-x,-y,z
x,-y,1/2-z
-x,y,1/2-z
-x,-y,-z
x,y,-z
-x,y,1/2+z
x,-y,1/2+z
1/2+x,1/2+y,1/2+z
1/2-x,1/2-y,1/2+z
1/2+x,1/2-y,-z
1/2-x,1/2+y,-z
1/2-x,1/2-y,1/2-z
1/2+x,1/2+y,1/2-z
1/2-x,1/2+y,z
1/2+x,1/2-y,z
loop_
_atom_site_type_symbol
_atom_site_label
_atom_site_fract_x
_atom_site_fract_y
_atom_site_fract_z
Si Si1 0.500000 0.000000 0.750000
Si Si2 0.064424 0.908921 0.864807
Si Si3 0.931055 0.255499 0.859067
Si Si4 0.296682 0.500000 0.750000
Si Si5 0.348063 0.903535 0.358134
O O1 0.434954 0.947491 0.677124
O O2 0.099853 0.827076 0.855279
O O3 0.139834 0.966789 0.850738
O O4 0.000000 0.917390 0.750000
O O5 0.023511 0.914856 0.000000
O O6 0.863164 0.318986 0.837139
O O7 0.000000 0.262408 0.750000
O O8 0.964129 0.266963 0.000000
O O9 0.233139 0.563559 0.789564
O O10 0.332847 0.915328 0.500000
#
# Coordination Sequence:
#
# PCOD9525446 Si02
#       5
#     4  16  16   8  16
#     4  10  18  32  54  82 110 150 188 228 274 338
#     4  10  22  40  62  84 110 147 192 237 281 332
#     4   9  18  36  59  83 110 146 189 232 277 331
#     4  11  23  35  53  84 118 150 187 227 281 333
#     4  10  20  34  54  81 116 150 185 229 279 335
#
# _framework density 19.018871000000001
#
# number of rings (size 3 to 8) (size 9 to 14) (size 15 to 20)
#    0.000    2.133    1.333    1.600    0.000    4.267 
#    0.000    1.333    0.000    0.000    0.000    0.000 
#    0.000    0.000    0.000    0.000    0.000    0.000 
#
# Total GULP energy -167117.837300 kJ/mol
# GULP energy per Si atom -5570.594577 kJ/mol
# Density = 1.897558 g / cm^3
# Si number density = 19.018871 Si / 1000 Ang^3
#
#
#
# Elastic Constant Matrix: (Units=GPa)
#
#
# Indices 1 2 3 4 5 6 
#
# 1 65.1275 34.1128 38.2418 0.0000 0.0000 0.0000
# 2 34.1128 113.3617 35.4786 0.0000 0.0000 0.0000
# 3 38.2418 35.4786 106.0911 0.0000 0.0000 0.0000
# 4 0.0000 0.0000 0.0000 171.0633 0.0000 0.0000
# 5 0.0000 0.0000 0.0000 0.0000 13.0155 0.0000
# 6 0.0000 0.0000 0.0000 0.0000 0.0000 26.0112
#
#
#
# Elastic Compliance Matrix: (Units=1/GPa)
#
#
# Indices 1 2 3 4 5 6 
#
# 1 0.021339 -0.004483 -0.006193 0.000000 0.000000 0.000000
# 2 -0.004483 0.010794 -0.001994 0.000000 0.000000 0.000000
# 3 -0.006193 -0.001994 0.012325 0.000000 0.000000 0.000000
# 4 0.000000 0.000000 0.000000 0.005846 0.000000 0.000000
# 5 0.000000 0.000000 0.000000 0.000000 0.076831 0.000000
# 6 0.000000 0.000000 0.000000 0.000000 0.000000 0.038445
#
#
# Mechanical properties :
#
#
# Convention : Reuss Voigt Hill
#
# Bulk Modulus (GPa) = 52.30424 55.58297 53.94361
# Shear Modulus (GPa) = 25.34311 53.80116 39.57213
#
# Velocity S-wave (km/s) = 3.65434 5.32444 4.56639
# Velocity P-wave (km/s) = 6.73547 8.19074 7.49849
#
# Compressibility (1/GPa) = 0.01911891
#
# Stress axis : x y z
#
# Youngs Moduli (GPa) = 46.86273 92.64062 81.13713
#
# Poissons Ratio (x) = 0.41533 0.50245
# Poissons Ratio (y) = 0.21010 0.16177
# Poissons Ratio (z) = 0.29020 0.18471
#
# Static dielectric constant tensor:
#      x y z
#    x 1.627800 0.000000 0.000000 
#    y 0.000000 1.689810 0.000000 
#    z 0.000000 0.000000 1.669120 
# 
# From -- ./inp_files/12319.got.cif
#   From: 2010.05.17/outbox.cif.g08.bks.cpg/sg72_7_cif.got.tgz:12319.got - 2010.06.03 17:03:01.
