data_PCOD9525623
_publ_section_title
;
Structure prediction by ZEFSAII (Michael W. Deem and Ramdas Pophale) SiO2 
 PCOD9525623
Probable space group: I B A M
;
_chemical_formula_sum "Si O2"
_cell_formula_units_Z 96
_cell_length_a 26.916720
_cell_length_b 29.526896
_cell_length_c 8.995846
_cell_angle_alpha 90.000000
_cell_angle_beta 90.000000
_cell_angle_gamma 90.000000
_cell_volume 7149.603266
_symmetry_space_group_name_H-M "I B A M"
_symmetry_group_IT_number 72
_symmetry_cell_setting 'orthorhombic'
loop_
_space_group_symop_operation_xyz
x,y,z
-x,-y,z
x,-y,1/2-z
-x,y,1/2-z
-x,-y,-z
x,y,-z
-x,y,1/2+z
x,-y,1/2+z
1/2+x,1/2+y,1/2+z
1/2-x,1/2-y,1/2+z
1/2+x,1/2-y,-z
1/2-x,1/2+y,-z
1/2-x,1/2-y,1/2-z
1/2+x,1/2+y,1/2-z
1/2-x,1/2+y,z
1/2+x,1/2-y,z
loop_
_atom_site_type_symbol
_atom_site_label
_atom_site_fract_x
_atom_site_fract_y
_atom_site_fract_z
Si Si1 0.297549 0.725215 0.822180
Si Si2 0.743181 0.861814 0.822274
Si Si3 0.095327 0.452102 0.177667
Si Si4 0.947958 0.361877 0.178457
Si Si5 0.353340 0.800858 0.677641
Si Si6 0.786235 0.547340 0.175980
O O1 0.250000 0.750000 0.750000
O O2 0.288443 0.672370 0.786389
O O3 0.343725 0.753179 0.758231
O O4 0.295427 0.729730 0.000000
O O5 0.692272 0.834732 0.783076
O O6 0.742086 0.909550 0.741365
O O7 0.742294 0.868835 0.000000
O O8 0.080409 0.500000 0.250000
O O9 0.067570 0.410230 0.252906
O O10 0.154575 0.446447 0.206116
O O11 0.087427 0.452697 0.000000
O O12 0.904384 0.326086 0.213838
O O13 0.000000 0.348060 0.250000
O O14 0.951571 0.365638 0.000000
O O15 0.350628 0.793882 0.500000
O O16 0.771319 0.500000 0.250000
O O17 0.779944 0.544662 0.000000
#
# Coordination Sequence:
#
# PCOD9525623 Si02
#       6
#    16  16  16  16  16  16
#     4   9  17  27  42  63  84 105 129 160 199 241
#     4   9  16  28  43  61  83 105 130 163 201 239
#     4  10  20  33  47  62  77 100 134 172 216 257
#     4  11  22  35  48  62  80 103 134 173 216 257
#     4   9  18  31  45  60  81 105 129 166 207 245
#     4  10  19  28  42  61  81 107 136 167 203 245
#
# _framework density 13.427319000000001
#
# number of rings (size 3 to 8) (size 9 to 14) (size 15 to 20)
#    0.000    2.333    1.667    3.000    0.000    6.333 
#    0.000    1.667    0.000    0.000    0.000    0.000 
#    0.000    0.000    0.000    0.000    0.000    0.833 
#
# Total GULP energy -267565.173295 kJ/mol
# GULP energy per Si atom -5574.274444 kJ/mol
# Density = 1.339676 g / cm^3
# Si number density = 13.427319 Si / 1000 Ang^3
#
#
#
# Elastic Constant Matrix: (Units=GPa)
#
#
# Indices 1 2 3 4 5 6 
#
# 1 52.5889 52.0842 31.2571 0.0000 0.0000 0.0000
# 2 52.0842 106.2821 47.2083 0.0000 0.0000 0.0000
# 3 31.2571 47.2083 39.7733 0.0000 0.0000 0.0000
# 4 0.0000 0.0000 0.0000 27.1156 0.0000 0.0000
# 5 0.0000 0.0000 0.0000 0.0000 17.0817 0.0000
# 6 0.0000 0.0000 0.0000 0.0000 0.0000 15.4928
#
#
#
# Elastic Compliance Matrix: (Units=1/GPa)
#
#
# Indices 1 2 3 4 5 6 
#
# 1 0.042451 -0.012659 -0.018336 0.000000 0.000000 0.000000
# 2 -0.012659 0.023676 -0.018153 0.000000 0.000000 0.000000
# 3 -0.018336 -0.018153 0.061099 0.000000 0.000000 0.000000
# 4 0.000000 0.000000 0.000000 0.036879 0.000000 0.000000
# 5 0.000000 0.000000 0.000000 0.000000 0.058542 0.000000
# 6 0.000000 0.000000 0.000000 0.000000 0.000000 0.064546
#
#
# Mechanical properties :
#
#
# Convention : Reuss Voigt Hill
#
# Bulk Modulus (GPa) = 34.56682 51.08261 42.82471
# Shear Modulus (GPa) = 12.65395 16.47770 14.56583
#
# Velocity S-wave (km/s) = 3.07319 3.50691 3.29719
# Velocity P-wave (km/s) = 6.19614 7.38405 6.81603
#
# Compressibility (1/GPa) = 0.02892948
#
# Stress axis : x y z
#
# Youngs Moduli (GPa) = 23.55643 42.23733 16.36678
#
# Poissons Ratio (x) = 0.53468 0.30011
# Poissons Ratio (y) = 0.29820 0.29711
# Poissons Ratio (z) = 0.43194 0.76674
#
# Static dielectric constant tensor:
#      x y z
#    x 1.431570 0.000000 0.000000 
#    y 0.000000 1.442820 0.000000 
#    z 0.000000 0.000000 1.444070 
# 
# From -- ./inp_files/7084.got.cif
#   From: 2010.05.17/outbox.cif.g08.bks.cpg/sg72_4_cif.got.tgz:7084.got - 2010.06.03 17:03:01.
