data_PCOD9525314
_publ_section_title
;
Structure prediction by ZEFSAII (Michael W. Deem and Ramdas Pophale) SiO2 
 PCOD9525314
Probable space group: I B A M
;
_chemical_formula_sum "Si O2"
_cell_formula_units_Z 56
_cell_length_a 5.289243
_cell_length_b 13.886345
_cell_length_c 32.880374
_cell_angle_alpha 90.000000
_cell_angle_beta 90.000000
_cell_angle_gamma 90.000000
_cell_volume 2415.006031
_symmetry_space_group_name_H-M "I B A M"
_symmetry_group_IT_number 72
_symmetry_cell_setting 'orthorhombic'
loop_
_space_group_symop_operation_xyz
x,y,z
-x,-y,z
x,-y,1/2-z
-x,y,1/2-z
-x,-y,-z
x,y,-z
-x,y,1/2+z
x,-y,1/2+z
1/2+x,1/2+y,1/2+z
1/2-x,1/2-y,1/2+z
1/2+x,1/2-y,-z
1/2-x,1/2+y,-z
1/2-x,1/2-y,1/2-z
1/2+x,1/2+y,1/2-z
1/2-x,1/2+y,z
1/2+x,1/2-y,z
loop_
_atom_site_type_symbol
_atom_site_label
_atom_site_fract_x
_atom_site_fract_y
_atom_site_fract_z
Si Si1 0.300748 0.394102 0.921047
Si Si2 0.000000 0.816623 0.750000
Si Si3 0.472772 0.683604 0.338640
Si Si4 0.297864 0.888863 0.453317
O O1 0.413335 0.386552 0.875991
O O2 0.516695 0.347138 0.949024
O O3 0.251722 0.501580 0.937892
O O4 0.021646 0.349798 0.925061
O O5 0.250000 0.750000 0.750000
O O6 0.019325 0.866266 0.794044
O O7 0.740015 0.739799 0.341203
O O8 0.379786 0.887374 0.500000
#
# Coordination Sequence:
#
# PCOD9525314 Si02
#       4
#    16   8  16  16
#     4  10  18  30  51  74  94 122 166 205 239 282
#     4   8  16  30  48  69  94 127 160 186 224 284
#     4  10  19  32  50  74 101 127 158 199 246 294
#     4  10  19  33  53  70  92 129 170 207 236 282
#
# _framework density 23.188348999999999
#
# number of rings (size 3 to 8) (size 9 to 14) (size 15 to 20)
#    0.000    2.286    0.000    6.000    0.000    0.000 
#    0.000    0.000    0.000   32.571    0.000    8.000 
#    0.000    0.000    0.000    0.000    0.000    0.000 
#
# Total GULP energy -156040.166622 kJ/mol
# GULP energy per Si atom -5572.863094 kJ/mol
# Density = 2.313557 g / cm^3
# Si number density = 23.188349 Si / 1000 Ang^3
#
#
#
# Elastic Constant Matrix: (Units=GPa)
#
#
# Indices 1 2 3 4 5 6 
#
# 1 198.2729 -8.3450 18.1723 0.0000 0.0000 0.0000
# 2 -8.3450 62.1560 1.4786 0.0000 0.0000 0.0000
# 3 18.1723 1.4786 207.0526 0.0000 0.0000 0.0000
# 4 0.0000 0.0000 0.0000 14.2758 0.0000 0.0000
# 5 0.0000 0.0000 0.0000 0.0000 38.2898 0.0000
# 6 0.0000 0.0000 0.0000 0.0000 0.0000 3.6044
#
#
#
# Elastic Compliance Matrix: (Units=1/GPa)
#
#
# Indices 1 2 3 4 5 6 
#
# 1 0.005115 0.000697 -0.000454 0.000000 0.000000 0.000000
# 2 0.000697 0.016186 -0.000177 0.000000 0.000000 0.000000
# 3 -0.000454 -0.000177 0.004871 0.000000 0.000000 0.000000
# 4 0.000000 0.000000 0.000000 0.070049 0.000000 0.000000
# 5 0.000000 0.000000 0.000000 0.000000 0.026117 0.000000
# 6 0.000000 0.000000 0.000000 0.000000 0.000000 0.277442
#
#
# Mechanical properties :
#
#
# Convention : Reuss Voigt Hill
#
# Bulk Modulus (GPa) = 38.01518 54.45480 46.23499
# Shear Modulus (GPa) = 12.24248 41.64569 26.94409
#
# Velocity S-wave (km/s) = 2.30023 4.24249 3.41246
# Velocity P-wave (km/s) = 4.84607 6.89442 5.95892
#
# Compressibility (1/GPa) = 0.02630528
#
# Stress axis : x y z
#
# Youngs Moduli (GPa) = 195.52231 61.78030 205.30559
#
# Poissons Ratio (x) = -0.04309 0.09318
# Poissons Ratio (y) = -0.13637 0.03630
# Poissons Ratio (z) = 0.08874 0.01092
#
# Static dielectric constant tensor:
#      x y z
#    x 2.028800 0.000000 0.000000 
#    y 0.000000 1.619820 0.000000 
#    z 0.000000 0.000000 1.907340 
# 
# From -- ./inp_files/50073.got.cif
#   From: 2010.05.17/outbox.cif.g08.bks.cpg/sg72_26_cif.got.tgz:50073.got - 2010.06.03 17:03:01.
