data_PCOD9525273
_publ_section_title
;
Structure prediction by ZEFSAII (Michael W. Deem and Ramdas Pophale) SiO2 
 PCOD9525273
Probable space group: I B A M
;
_chemical_formula_sum "Si O2"
_cell_formula_units_Z 80
_cell_length_a 19.147995
_cell_length_b 27.312537
_cell_length_c 8.551798
_cell_angle_alpha 90.000000
_cell_angle_beta 90.000000
_cell_angle_gamma 90.000000
_cell_volume 4472.422071
_symmetry_space_group_name_H-M "I B A M"
_symmetry_group_IT_number 72
_symmetry_cell_setting 'orthorhombic'
loop_
_space_group_symop_operation_xyz
x,y,z
-x,-y,z
x,-y,1/2-z
-x,y,1/2-z
-x,-y,-z
x,y,-z
-x,y,1/2+z
x,-y,1/2+z
1/2+x,1/2+y,1/2+z
1/2-x,1/2-y,1/2+z
1/2+x,1/2-y,-z
1/2-x,1/2+y,-z
1/2-x,1/2-y,1/2-z
1/2+x,1/2+y,1/2-z
1/2-x,1/2+y,z
1/2+x,1/2-y,z
loop_
_atom_site_type_symbol
_atom_site_label
_atom_site_fract_x
_atom_site_fract_y
_atom_site_fract_z
Si Si1 0.286008 0.701184 0.812070
Si Si2 0.218717 0.599203 0.189610
Si Si3 0.637056 0.552873 0.687863
Si Si4 0.926845 0.555422 0.311950
Si Si5 0.075844 0.153890 0.686483
O O1 0.250000 0.750000 0.750000
O O2 0.240412 0.653784 0.763310
O O3 0.363234 0.689739 0.747700
O O4 0.289130 0.702257 0.000000
O O5 0.282314 0.563592 0.237150
O O6 0.142608 0.583066 0.243627
O O7 0.217522 0.598168 0.000000
O O8 0.614574 0.500000 0.750000
O O9 0.633337 0.553536 0.500000
O O10 0.594166 0.599199 0.751843
O O11 0.922172 0.500000 0.250000
O O12 0.928547 0.554731 0.500000
O O13 0.000000 0.576414 0.250000
O O14 0.075998 0.153432 0.500000
O O15 0.000000 0.167952 0.750000
#
# Coordination Sequence:
#
# PCOD9525273 Si02
#       5
#    16  16  16  16  16
#     4  10  20  38  60  83 107 137 176 221 269 320
#     4   8  17  32  51  72 101 135 173 218 262 307
#     4  10  19  33  52  78 108 142 180 220 263 316
#     4  10  18  30  46  69  99 135 170 208 253 302
#     4  11  22  38  58  82 110 143 178 219 267 319
#
# _framework density 17.887398999999998
#
# number of rings (size 3 to 8) (size 9 to 14) (size 15 to 20)
#    0.000    2.200    0.000    6.000    0.000    0.400 
#    0.000   14.000    0.000    2.400    0.000    0.000 
#    0.000    0.000    0.000    0.000    0.000    0.000 
#
# Total GULP energy -223230.217217 kJ/mol
# GULP energy per Si atom -5580.755430 kJ/mol
# Density = 1.784669 g / cm^3
# Si number density = 17.887399 Si / 1000 Ang^3
#
#
#
# Elastic Constant Matrix: (Units=GPa)
#
#
# Indices 1 2 3 4 5 6 
#
# 1 155.5512 55.1323 43.0814 0.0000 0.0000 0.0000
# 2 55.1323 96.4505 35.2583 0.0000 0.0000 0.0000
# 3 43.0814 35.2583 94.9306 0.0000 0.0000 0.0000
# 4 0.0000 0.0000 0.0000 27.6225 0.0000 0.0000
# 5 0.0000 0.0000 0.0000 0.0000 25.8722 0.0000
# 6 0.0000 0.0000 0.0000 0.0000 0.0000 8.5604
#
#
#
# Elastic Compliance Matrix: (Units=1/GPa)
#
#
# Indices 1 2 3 4 5 6 
#
# 1 0.008501 -0.003991 -0.002376 0.000000 0.000000 0.000000
# 2 -0.003991 0.013870 -0.003340 0.000000 0.000000 0.000000
# 3 -0.002376 -0.003340 0.012853 0.000000 0.000000 0.000000
# 4 0.000000 0.000000 0.000000 0.036202 0.000000 0.000000
# 5 0.000000 0.000000 0.000000 0.000000 0.038652 0.000000
# 6 0.000000 0.000000 0.000000 0.000000 0.000000 0.116817
#
#
# Mechanical properties :
#
#
# Convention : Reuss Voigt Hill
#
# Bulk Modulus (GPa) = 63.25027 68.20847 65.72937
# Shear Modulus (GPa) = 19.87439 26.64171 23.25805
#
# Velocity S-wave (km/s) = 3.33691 3.86348 3.60981
# Velocity P-wave (km/s) = 7.09109 7.62344 7.36208
#
# Compressibility (1/GPa) = 0.01581021
#
# Stress axis : x y z
#
# Youngs Moduli (GPa) = 117.62975 72.09592 77.80364
#
# Poissons Ratio (x) = 0.28773 0.18484
# Poissons Ratio (y) = 0.46945 0.25990
# Poissons Ratio (z) = 0.27946 0.24083
#
# Static dielectric constant tensor:
#      x y z
#    x 1.627310 0.000000 0.000000 
#    y 0.000000 1.586120 0.000000 
#    z 0.000000 0.000000 1.606250 
# 
# From -- ./inp_files/4797.got.cif
#   From: 2010.05.17/outbox.cif.g08.bks.cpg/sg72_3_cif.got.tgz:4797.got - 2010.06.03 17:03:01.
