data_PCOD9525593
_publ_section_title
;
Structure prediction by ZEFSAII (Michael W. Deem and Ramdas Pophale) SiO2 
 PCOD9525593
Probable space group: I B A M
;
_chemical_formula_sum "Si O2"
_cell_formula_units_Z 68
_cell_length_a 11.829432
_cell_length_b 8.925128
_cell_length_c 24.003141
_cell_angle_alpha 90.000000
_cell_angle_beta 90.000000
_cell_angle_gamma 90.000000
_cell_volume 2534.232299
_symmetry_space_group_name_H-M "I B A M"
_symmetry_group_IT_number 72
_symmetry_cell_setting 'orthorhombic'
loop_
_space_group_symop_operation_xyz
x,y,z
-x,-y,z
x,-y,1/2-z
-x,y,1/2-z
-x,-y,-z
x,y,-z
-x,y,1/2+z
x,-y,1/2+z
1/2+x,1/2+y,1/2+z
1/2-x,1/2-y,1/2+z
1/2+x,1/2-y,-z
1/2-x,1/2+y,-z
1/2-x,1/2-y,1/2-z
1/2+x,1/2+y,1/2-z
1/2-x,1/2+y,z
1/2+x,1/2-y,z
loop_
_atom_site_type_symbol
_atom_site_label
_atom_site_fract_x
_atom_site_fract_y
_atom_site_fract_z
Si Si1 0.504536 0.266105 0.675627
Si Si2 0.815029 0.972680 0.190410
Si Si3 0.249056 0.550025 0.563406
Si Si4 0.000000 0.500000 0.250000
Si Si5 0.418152 0.183625 0.940369
O O1 0.377685 0.311845 0.691653
O O2 0.587892 0.399459 0.691689
O O3 0.509185 0.241770 0.610212
O O4 0.549089 0.118891 0.705722
O O5 0.753505 0.000000 0.250000
O O6 0.774087 0.991748 0.126742
O O7 0.291009 0.499154 0.500000
O O8 0.300178 0.717945 0.564645
O O9 0.120944 0.488853 0.560794
O O10 0.468143 0.222577 0.000000
#
# Coordination Sequence:
#
# PCOD9525593 Si02
#       5
#    16  16  16   4  16
#     4  10  20  34  56  77 109 145 180 229 277 332
#     4  10  18  37  57  79 109 151 187 223 274 337
#     4   9  19  35  57  81 114 147 183 229 275 325
#     4  12  20  34  50  80 108 134 180 232 296 310
#     4   9  19  37  56  80 109 146 185 227 275 329
#
# _framework density 26.832585000000002
#
# number of rings (size 3 to 8) (size 9 to 14) (size 15 to 20)
#    0.000    2.353    2.353    0.706    0.000    2.824 
#    2.118    7.647    0.000    0.000    0.000    0.000 
#    0.000    0.000    0.000    0.000    0.000    0.000 
#
# Total GULP energy -189313.685048 kJ/mol
# GULP energy per Si atom -5568.049560 kJ/mol
# Density = 2.677151 g / cm^3
# Si number density = 26.832585 Si / 1000 Ang^3
#
#
#
# Elastic Constant Matrix: (Units=GPa)
#
#
# Indices 1 2 3 4 5 6 
#
# 1 40.6977 25.5247 48.8300 0.0000 0.0000 0.0000
# 2 25.5247 94.8017 56.3282 0.0000 0.0000 0.0000
# 3 48.8300 56.3282 317.1751 0.0000 0.0000 0.0000
# 4 0.0000 0.0000 0.0000 45.6062 0.0000 0.0000
# 5 0.0000 0.0000 0.0000 0.0000 32.2763 0.0000
# 6 0.0000 0.0000 0.0000 0.0000 0.0000 33.9621
#
#
#
# Elastic Compliance Matrix: (Units=1/GPa)
#
#
# Indices 1 2 3 4 5 6 
#
# 1 0.033522 -0.006662 -0.003978 0.000000 0.000000 0.000000
# 2 -0.006662 0.013117 -0.001304 0.000000 0.000000 0.000000
# 3 -0.003978 -0.001304 0.003997 0.000000 0.000000 0.000000
# 4 0.000000 0.000000 0.000000 0.021927 0.000000 0.000000
# 5 0.000000 0.000000 0.000000 0.000000 0.030982 0.000000
# 6 0.000000 0.000000 0.000000 0.000000 0.000000 0.029445
#
#
# Mechanical properties :
#
#
# Convention : Reuss Voigt Hill
#
# Bulk Modulus (GPa) = 37.38537 79.33782 58.36159
# Shear Modulus (GPa) = 30.15803 43.83504 36.99653
#
# Velocity S-wave (km/s) = 3.35615 4.04623 3.71724
# Velocity P-wave (km/s) = 5.38344 7.17364 6.34202
#
# Compressibility (1/GPa) = 0.02674843
#
# Stress axis : x y z
#
# Youngs Moduli (GPa) = 29.83084 76.23830 250.20319
#
# Poissons Ratio (x) = 0.50792 0.99523
# Poissons Ratio (y) = 0.19874 0.32621
# Poissons Ratio (z) = 0.11866 0.09940
#
# Static dielectric constant tensor:
#      x y z
#    x 2.273970 0.000000 0.000000 
#    y 0.000000 2.054640 0.000000 
#    z 0.000000 0.000000 2.092060 
# 
# From -- ./inp_files/32313.got.cif
#   From: 2010.05.17/outbox.cif.g08.bks.cpg/sg72_17_cif.got.tgz:32313.got - 2010.06.03 17:03:01.
