data_PCOD9525457
_publ_section_title
;
Structure prediction by ZEFSAII (Michael W. Deem and Ramdas Pophale) SiO2 
 PCOD9525457
Probable space group: I B A M
;
_chemical_formula_sum "Si O2"
_cell_formula_units_Z 96
_cell_length_a 19.497111
_cell_length_b 28.381403
_cell_length_c 8.773291
_cell_angle_alpha 90.000000
_cell_angle_beta 90.000000
_cell_angle_gamma 90.000000
_cell_volume 4854.747640
_symmetry_space_group_name_H-M "I B A M"
_symmetry_group_IT_number 72
_symmetry_cell_setting 'orthorhombic'
loop_
_space_group_symop_operation_xyz
x,y,z
-x,-y,z
x,-y,1/2-z
-x,y,1/2-z
-x,-y,-z
x,y,-z
-x,y,1/2+z
x,-y,1/2+z
1/2+x,1/2+y,1/2+z
1/2-x,1/2-y,1/2+z
1/2+x,1/2-y,-z
1/2-x,1/2+y,-z
1/2-x,1/2-y,1/2-z
1/2+x,1/2+y,1/2-z
1/2-x,1/2+y,z
1/2+x,1/2-y,z
loop_
_atom_site_type_symbol
_atom_site_label
_atom_site_fract_x
_atom_site_fract_y
_atom_site_fract_z
Si Si1 0.710101 0.449164 0.817094
Si Si2 0.424355 0.602561 0.182288
Si Si3 0.563964 0.049674 0.671056
Si Si4 0.318553 0.875038 0.675447
Si Si5 0.078180 0.299499 0.817222
Si Si6 0.423071 0.299729 0.816939
O O1 0.730704 0.500000 0.750000
O O2 0.630154 0.438523 0.786633
O O3 0.751327 0.402217 0.763086
O O4 0.720659 0.450942 0.000000
O O5 0.500000 0.593694 0.250000
O O6 0.394778 0.650885 0.255383
O O7 0.430104 0.609074 0.000000
O O8 0.500000 0.074768 0.750000
O O9 0.543022 0.041185 0.500000
O O10 0.629744 0.081121 0.671405
O O11 0.576060 0.000000 0.750000
O O12 0.306600 0.858564 0.500000
O O13 0.363011 0.836378 0.765897
O O14 0.103785 0.248952 0.752850
O O15 0.000000 0.307786 0.750000
O O16 0.071667 0.298662 0.000000
O O17 0.500000 0.300961 0.750000
O O18 0.422894 0.298149 0.000000
#
# Coordination Sequence:
#
# PCOD9525457 Si02
#       6
#    16  16  16  16  16  16
#     4  10  23  41  61  83 113 149 187 232 285 341
#     4  10  20  37  61  89 116 145 181 227 280 340
#     4  10  19  30  47  68  95 129 173 224 272 318
#     4  10  21  37  53  75 107 146 188 232 278 327
#     4  11  21  34  55  84 116 153 193 235 277 325
#     4  10  18  32  56  85 116 149 183 227 278 333
#
# _framework density 19.774457000000002
#
# number of rings (size 3 to 8) (size 9 to 14) (size 15 to 20)
#    0.000    1.833    0.000    7.500    0.000    5.000 
#    0.000    2.500    0.000    0.000    0.000    0.000 
#    0.000    0.000    0.000    0.000    0.000    0.000 
#
# Total GULP energy -267465.049956 kJ/mol
# GULP energy per Si atom -5572.188541 kJ/mol
# Density = 1.972945 g / cm^3
# Si number density = 19.774457 Si / 1000 Ang^3
#
#
#
# Elastic Constant Matrix: (Units=GPa)
#
#
# Indices 1 2 3 4 5 6 
#
# 1 78.8961 27.7850 24.3176 0.0000 0.0000 0.0000
# 2 27.7850 77.4344 30.5397 0.0000 0.0000 0.0000
# 3 24.3176 30.5397 123.2460 0.0000 0.0000 0.0000
# 4 0.0000 0.0000 0.0000 3.7022 0.0000 0.0000
# 5 0.0000 0.0000 0.0000 0.0000 17.7819 0.0000
# 6 0.0000 0.0000 0.0000 0.0000 0.0000 46.0776
#
#
#
# Elastic Compliance Matrix: (Units=1/GPa)
#
#
# Indices 1 2 3 4 5 6 
#
# 1 0.014854 -0.004626 -0.001785 0.000000 0.000000 0.000000
# 2 -0.004626 0.015754 -0.002991 0.000000 0.000000 0.000000
# 3 -0.001785 -0.002991 0.009207 0.000000 0.000000 0.000000
# 4 0.000000 0.000000 0.000000 0.270110 0.000000 0.000000
# 5 0.000000 0.000000 0.000000 0.000000 0.056237 0.000000
# 6 0.000000 0.000000 0.000000 0.000000 0.000000 0.021703
#
#
# Mechanical properties :
#
#
# Convention : Reuss Voigt Hill
#
# Bulk Modulus (GPa) = 47.59238 49.42902 48.51070
# Shear Modulus (GPa) = 12.08688 26.64130 19.36409
#
# Velocity S-wave (km/s) = 2.47500 3.67448 3.13269
# Velocity P-wave (km/s) = 5.68220 6.56149 6.13761
#
# Compressibility (1/GPa) = 0.02101177
#
# Stress axis : x y z
#
# Youngs Moduli (GPa) = 67.32137 63.47711 108.61203
#
# Poissons Ratio (x) = 0.29365 0.19382
# Poissons Ratio (y) = 0.31144 0.32485
# Poissons Ratio (z) = 0.12014 0.18985
#
# Static dielectric constant tensor:
#      x y z
#    x 1.839250 0.000000 0.000000 
#    y 0.000000 1.734690 0.000000 
#    z 0.000000 0.000000 1.688920 
# 
# From -- ./inp_files/5930.got.cif
#   From: 2010.05.17/outbox.cif.g08.bks.cpg/sg72_3_cif.got.tgz:5930.got - 2010.06.03 17:03:01.
