data_PCOD9525370
_publ_section_title
;
Structure prediction by ZEFSAII (Michael W. Deem and Ramdas Pophale) SiO2 
 PCOD9525370
Probable space group: I B A M
;
_chemical_formula_sum "Si O2"
_cell_formula_units_Z 116
_cell_length_a 27.739128
_cell_length_b 27.927189
_cell_length_c 8.575256
_cell_angle_alpha 90.000000
_cell_angle_beta 90.000000
_cell_angle_gamma 90.000000
_cell_volume 6643.043905
_symmetry_space_group_name_H-M "I B A M"
_symmetry_group_IT_number 72
_symmetry_cell_setting 'orthorhombic'
loop_
_space_group_symop_operation_xyz
x,y,z
-x,-y,z
x,-y,1/2-z
-x,y,1/2-z
-x,-y,-z
x,y,-z
-x,y,1/2+z
x,-y,1/2+z
1/2+x,1/2+y,1/2+z
1/2-x,1/2-y,1/2+z
1/2+x,1/2-y,-z
1/2-x,1/2+y,-z
1/2-x,1/2-y,1/2-z
1/2+x,1/2+y,1/2-z
1/2-x,1/2+y,z
1/2+x,1/2-y,z
loop_
_atom_site_type_symbol
_atom_site_label
_atom_site_fract_x
_atom_site_fract_y
_atom_site_fract_z
Si Si1 0.448917 0.789944 0.185648
Si Si2 0.683606 0.553375 0.186227
Si Si3 0.083841 0.815993 0.686807
Si Si4 0.847380 0.316871 0.188187
Si Si5 0.924478 0.916007 0.311579
Si Si6 0.314558 0.288910 0.814829
Si Si7 0.000000 0.000000 0.250000
Si Si8 0.245253 0.633057 0.814671
O O1 0.500000 0.807244 0.250000
O O2 0.442186 0.733696 0.230542
O O3 0.401441 0.816975 0.247249
O O4 0.449283 0.792374 0.000000
O O5 0.690886 0.500000 0.250000
O O6 0.630795 0.572558 0.236780
O O7 0.725154 0.589833 0.239414
O O8 0.683042 0.551811 0.000000
O O9 0.090836 0.816083 0.500000
O O10 0.060080 0.865110 0.741087
O O11 0.135048 0.814400 0.774574
O O12 0.823614 0.265813 0.235327
O O13 0.809979 0.358075 0.237033
O O14 0.849957 0.316520 0.000000
O O15 0.926997 0.914482 0.500000
O O16 0.958292 0.958284 0.253118
O O17 0.273727 0.318095 0.726248
O O18 0.305471 0.290510 0.000000
O O19 0.245576 0.626495 0.000000
#
# Coordination Sequence:
#
# PCOD9525370 Si02
#       8
#    16  16  16  16  16  16   4  16
#     4  10  21  36  54  78 107 144 181 218 262 313
#     4  11  23  40  59  79 103 136 177 225 281 337
#     4  10  21  35  53  75 100 133 175 220 269 326
#     4   9  20  35  52  77 110 143 178 220 262 316
#     4  11  24  40  57  74  96 128 173 230 287 334
#     4  10  18  31  51  76 106 140 175 215 264 319
#     4  12  26  44  56  74  94 128 184 238 296 332
#     4  11  21  34  54  80 108 140 176 218 271 327
#
# _framework density 17.461874000000002
#
# number of rings (size 3 to 8) (size 9 to 14) (size 15 to 20)
#    0.000    1.655    2.069    2.690    0.966    4.966 
#    0.000    0.000    0.000    0.000    0.000    0.000 
#    0.000    0.552    0.000    5.793    0.000    2.483 
#
# Total GULP energy -323366.255478 kJ/mol
# GULP energy per Si atom -5575.280267 kJ/mol
# Density = 1.742213 g / cm^3
# Si number density = 17.461874 Si / 1000 Ang^3
#
#
#
# Elastic Constant Matrix: (Units=GPa)
#
#
# Indices 1 2 3 4 5 6 
#
# 1 138.0551 57.6246 22.4745 0.0000 0.0000 0.0000
# 2 57.6246 59.7519 17.9743 0.0000 0.0000 0.0000
# 3 22.4745 17.9743 27.1144 0.0000 0.0000 0.0000
# 4 0.0000 0.0000 0.0000 5.4813 0.0000 0.0000
# 5 0.0000 0.0000 0.0000 0.0000 -1.1631 0.0000
# 6 0.0000 0.0000 0.0000 0.0000 0.0000 77.5372
#
#
#
# Elastic Compliance Matrix: (Units=1/GPa)
#
#
# Indices 1 2 3 4 5 6 
#
# 1 0.012305 -0.010991 -0.002914 0.000000 0.000000 0.000000
# 2 -0.010991 0.030721 -0.011255 0.000000 0.000000 0.000000
# 3 -0.002914 -0.011255 0.046757 0.000000 0.000000 0.000000
# 4 0.000000 0.000000 0.000000 0.182437 0.000000 0.000000
# 5 0.000000 0.000000 0.000000 0.000000 -0.859739 0.000000
# 6 0.000000 0.000000 0.000000 0.000000 0.000000 0.012897
#
#
# Mechanical properties :
#
#
# Convention : Reuss Voigt Hill
#
# Bulk Modulus (GPa) = 25.33952 46.78534 36.06243
# Shear Modulus (GPa) = -9.78192 24.82762 7.52285
#
# Velocity S-wave (km/s) = -2.36939 3.77479 2.07786
# Velocity P-wave (km/s) = 2.65659 6.77124 5.14331
#
# Compressibility (1/GPa) = 0.03946405
#
# Stress axis : x y z
#
# Youngs Moduli (GPa) = 81.26497 32.55097 21.38714
#
# Poissons Ratio (x) = 0.35776 0.06232
# Poissons Ratio (y) = 0.89317 0.24072
# Poissons Ratio (z) = 0.23679 0.36637
#
# Static dielectric constant tensor:
#      x y z
#    x 1.616890 0.000000 0.000000 
#    y 0.000000 1.585570 0.000000 
#    z 0.000000 0.000000 1.600160 
# 
# From -- ./inp_files/7519.got.cif
#   From: 2010.05.17/outbox.cif.g08.bks.cpg/sg72_4_cif.got.tgz:7519.got - 2010.06.03 17:03:01.
