data_PCOD9525732
_publ_section_title
;
Structure prediction by ZEFSAII (Michael W. Deem and Ramdas Pophale) SiO2 
 PCOD9525732
Probable space group: I B A M
;
_chemical_formula_sum "Si O2"
_cell_formula_units_Z 112
_cell_length_a 15.670628
_cell_length_b 14.495399
_cell_length_c 26.188274
_cell_angle_alpha 90.000000
_cell_angle_beta 90.000000
_cell_angle_gamma 90.000000
_cell_volume 5948.718958
_symmetry_space_group_name_H-M "I B A M"
_symmetry_group_IT_number 72
_symmetry_cell_setting 'orthorhombic'
loop_
_space_group_symop_operation_xyz
x,y,z
-x,-y,z
x,-y,1/2-z
-x,y,1/2-z
-x,-y,-z
x,y,-z
-x,y,1/2+z
x,-y,1/2+z
1/2+x,1/2+y,1/2+z
1/2-x,1/2-y,1/2+z
1/2+x,1/2-y,-z
1/2-x,1/2+y,-z
1/2-x,1/2-y,1/2-z
1/2+x,1/2+y,1/2-z
1/2-x,1/2+y,z
1/2+x,1/2-y,z
loop_
_atom_site_type_symbol
_atom_site_label
_atom_site_fract_x
_atom_site_fract_y
_atom_site_fract_z
Si Si1 0.411120 0.183685 0.313130
Si Si2 0.625771 0.388280 0.784319
Si Si3 0.916154 0.271671 0.137848
Si Si4 0.674406 0.882920 0.210482
Si Si5 0.191477 0.542761 0.365342
Si Si6 0.387948 0.425181 0.832279
Si Si7 0.583563 0.936746 0.060723
O O1 0.388633 0.289753 0.307500
O O2 0.510070 0.184242 0.326611
O O3 0.379474 0.136107 0.260972
O O4 0.360162 0.136416 0.358825
O O5 0.727187 0.399661 0.776184
O O6 0.589661 0.466489 0.822460
O O7 0.594248 0.391581 0.726031
O O8 0.832866 0.295893 0.171940
O O9 0.923960 0.160804 0.134411
O O10 0.917703 0.336024 0.087830
O O11 0.652108 0.971966 0.176805
O O12 0.289680 0.563109 0.351791
O O13 0.166139 0.491651 0.417488
O O14 0.500000 0.000000 0.074181
O O15 0.585787 0.927506 0.000000
#
# Coordination Sequence:
#
# PCOD9525732 Si02
#       7
#    16  16  16  16  16  16  16
#     4  12  19  30  48  80 112 148 189 219 269 337
#     4  10  20  32  51  71 111 169 188 217 254 325
#     4  11  22  33  52  82 111 147 182 236 283 334
#     4  10  19  31  48  76 115 148 183 224 269 327
#     4  10  20  34  56  79 107 148 186 227 285 347
#     4  10  20  36  50  74 115 156 195 213 267 332
#     4  10  21  41  61  83 108 134 180 249 320 359
#
# _framework density 18.827583000000001
#
# number of rings (size 3 to 8) (size 9 to 14) (size 15 to 20)
#    0.000    1.571    4.286    2.143    0.000    0.571 
#    0.000    3.571    0.000    0.000    0.000    3.000 
#    0.000    0.000    0.000    0.000    0.000    0.000 
#
# Total GULP energy -311910.872689 kJ/mol
# GULP energy per Si atom -5569.837012 kJ/mol
# Density = 1.878473 g / cm^3
# Si number density = 18.827583 Si / 1000 Ang^3
#
#
#
# Elastic Constant Matrix: (Units=GPa)
#
#
# Indices 1 2 3 4 5 6 
#
# 1 54.4245 1.3849 21.9496 0.0000 0.0000 0.0000
# 2 1.3849 99.5343 46.0880 0.0000 0.0000 0.0000
# 3 21.9496 46.0880 81.0638 0.0000 0.0000 0.0000
# 4 0.0000 0.0000 0.0000 19.5527 0.0000 0.0000
# 5 0.0000 0.0000 0.0000 0.0000 12.4094 0.0000
# 6 0.0000 0.0000 0.0000 0.0000 0.0000 19.7334
#
#
#
# Elastic Compliance Matrix: (Units=1/GPa)
#
#
# Indices 1 2 3 4 5 6 
#
# 1 0.021366 0.003232 -0.007623 0.000000 0.000000 0.000000
# 2 0.003232 0.014126 -0.008906 0.000000 0.000000 0.000000
# 3 -0.007623 -0.008906 0.019464 0.000000 0.000000 0.000000
# 4 0.000000 0.000000 0.000000 0.051144 0.000000 0.000000
# 5 0.000000 0.000000 0.000000 0.000000 0.080584 0.000000
# 6 0.000000 0.000000 0.000000 0.000000 0.000000 0.050676
#
#
# Mechanical properties :
#
#
# Convention : Reuss Voigt Hill
#
# Bulk Modulus (GPa) = 35.25874 41.54086 38.39980
# Shear Modulus (GPa) = 18.28775 21.37910 19.83343
#
# Velocity S-wave (km/s) = 3.11999 3.37340 3.24917
# Velocity P-wave (km/s) = 5.63445 6.10613 5.87503
#
# Compressibility (1/GPa) = 0.02836177
#
# Stress axis : x y z
#
# Youngs Moduli (GPa) = 46.80282 70.79271 51.37783
#
# Poissons Ratio (x) = -0.22884 0.39166
# Poissons Ratio (y) = -0.15129 0.45759
# Poissons Ratio (z) = 0.35678 0.63050
#
# Static dielectric constant tensor:
#      x y z
#    x 1.753030 0.000000 0.000000 
#    y 0.000000 1.718580 0.000000 
#    z 0.000000 0.000000 1.629820 
# 
# From -- ./inp_files/51849.got.cif
#   From: 2010.05.17/outbox.cif.g08.bks.cpg/sg72_26_cif.got.tgz:51849.got - 2010.06.03 17:03:01.
