data_PCOD9525980
_publ_section_title
;
Structure prediction by ZEFSAII (Michael W. Deem and Ramdas Pophale) SiO2 
 PCOD9525980
Probable space group: I B A M
;
_chemical_formula_sum "Si O2"
_cell_formula_units_Z 88
_cell_length_a 10.270298
_cell_length_b 19.528085
_cell_length_c 23.365220
_cell_angle_alpha 90.000000
_cell_angle_beta 90.000000
_cell_angle_gamma 90.000000
_cell_volume 4686.111053
_symmetry_space_group_name_H-M "I B A M"
_symmetry_group_IT_number 72
_symmetry_cell_setting 'orthorhombic'
loop_
_space_group_symop_operation_xyz
x,y,z
-x,-y,z
x,-y,1/2-z
-x,y,1/2-z
-x,-y,-z
x,y,-z
-x,y,1/2+z
x,-y,1/2+z
1/2+x,1/2+y,1/2+z
1/2-x,1/2-y,1/2+z
1/2+x,1/2-y,-z
1/2-x,1/2+y,-z
1/2-x,1/2-y,1/2-z
1/2+x,1/2+y,1/2-z
1/2-x,1/2+y,z
1/2+x,1/2-y,z
loop_
_atom_site_type_symbol
_atom_site_label
_atom_site_fract_x
_atom_site_fract_y
_atom_site_fract_z
Si Si1 0.882105 0.416816 0.346254
Si Si2 0.200020 0.923563 0.743052
Si Si3 0.819111 0.441113 0.875330
Si Si4 0.438327 0.234039 0.369842
Si Si5 0.500000 0.693628 0.250000
Si Si6 0.705416 0.193362 0.433795
O O1 0.829121 0.424139 0.281996
O O2 0.809459 0.476952 0.381877
O O3 0.866606 0.339522 0.366729
O O4 0.035127 0.429899 0.351694
O O5 0.227418 0.916330 0.676112
O O6 0.116052 0.859568 0.763814
O O7 0.143044 0.000000 0.750000
O O8 0.801741 0.389286 0.927126
O O9 0.464897 0.261474 0.305524
O O10 0.577747 0.223008 0.401043
O O11 0.338391 0.281994 0.403912
O O12 0.702427 0.213301 0.500000
#
# Coordination Sequence:
#
# PCOD9525980 Si02
#       6
#    16  16  16  16   8  16
#     4   9  19  33  56  85 116 148 189 245 301 357
#     4  10  19  33  53  83 119 158 188 235 291 363
#     4   9  18  36  56  82 113 152 198 239 295 350
#     4  11  24  38  61  90 123 155 200 251 309 359
#     4  12  23  34  56  89 126 158 192 242 306 365
#     4  11  23  42  62  85 118 163 207 250 294 355
#
# _framework density 18.778897000000001
#
# number of rings (size 3 to 8) (size 9 to 14) (size 15 to 20)
#    0.000    1.818    1.818    2.455    5.091    3.636 
#    0.000    8.182    0.000    0.000    0.000    5.091 
#    0.000    0.000    0.000    0.000    0.000    0.000 
#
# Total GULP energy -245217.633711 kJ/mol
# GULP energy per Si atom -5573.128039 kJ/mol
# Density = 1.873616 g / cm^3
# Si number density = 18.778897 Si / 1000 Ang^3
#
#
#
# Elastic Constant Matrix: (Units=GPa)
#
#
# Indices 1 2 3 4 5 6 
#
# 1 48.3770 23.7610 33.4425 0.0000 0.0000 0.0000
# 2 23.7610 122.9176 39.4822 0.0000 0.0000 0.0000
# 3 33.4425 39.4822 102.7466 0.0000 0.0000 0.0000
# 4 0.0000 0.0000 0.0000 17.3880 0.0000 0.0000
# 5 0.0000 0.0000 0.0000 0.0000 11.8362 0.0000
# 6 0.0000 0.0000 0.0000 0.0000 0.0000 16.4113
#
#
#
# Elastic Compliance Matrix: (Units=1/GPa)
#
#
# Indices 1 2 3 4 5 6 
#
# 1 0.027482 -0.002783 -0.007876 0.000000 0.000000 0.000000
# 2 -0.002783 0.009563 -0.002769 0.000000 0.000000 0.000000
# 3 -0.007876 -0.002769 0.013360 0.000000 0.000000 0.000000
# 4 0.000000 0.000000 0.000000 0.057511 0.000000 0.000000
# 5 0.000000 0.000000 0.000000 0.000000 0.084486 0.000000
# 6 0.000000 0.000000 0.000000 0.000000 0.000000 0.060934
#
#
# Mechanical properties :
#
#
# Convention : Reuss Voigt Hill
#
# Bulk Modulus (GPa) = 42.46231 51.93473 47.19852
# Shear Modulus (GPa) = 17.35863 20.95080 19.15471
#
# Velocity S-wave (km/s) = 3.04364 3.34377 3.19723
# Velocity P-wave (km/s) = 5.91713 6.52868 6.23041
#
# Compressibility (1/GPa) = 0.02355030
#
# Stress axis : x y z
#
# Youngs Moduli (GPa) = 36.38722 104.57106 74.84963
#
# Poissons Ratio (x) = 0.29100 0.58949
# Poissons Ratio (y) = 0.10126 0.20725
# Poissons Ratio (z) = 0.28657 0.28955
#
# Static dielectric constant tensor:
#      x y z
#    x 1.661470 0.000000 0.000000 
#    y 0.000000 1.714440 0.000000 
#    z 0.000000 0.000000 1.619370 
# 
# From -- ./inp_files/42274.got.cif
#   From: 2010.05.17/outbox.cif.g08.bks.cpg/sg72_22_cif.got.tgz:42274.got - 2010.06.03 17:03:01.
