data_PCOD9525884
_publ_section_title
;
Structure prediction by ZEFSAII (Michael W. Deem and Ramdas Pophale) SiO2 
 PCOD9525884
Probable space group: I B A M
;
_chemical_formula_sum "Si O2"
_cell_formula_units_Z 116
_cell_length_a 24.853304
_cell_length_b 27.622215
_cell_length_c 7.667694
_cell_angle_alpha 90.000000
_cell_angle_beta 90.000000
_cell_angle_gamma 90.000000
_cell_volume 5263.897285
_symmetry_space_group_name_H-M "I B A M"
_symmetry_group_IT_number 72
_symmetry_cell_setting 'orthorhombic'
loop_
_space_group_symop_operation_xyz
x,y,z
-x,-y,z
x,-y,1/2-z
-x,y,1/2-z
-x,-y,-z
x,y,-z
-x,y,1/2+z
x,-y,1/2+z
1/2+x,1/2+y,1/2+z
1/2-x,1/2-y,1/2+z
1/2+x,1/2-y,-z
1/2-x,1/2+y,-z
1/2-x,1/2-y,1/2-z
1/2+x,1/2+y,1/2-z
1/2-x,1/2+y,z
1/2+x,1/2-y,z
loop_
_atom_site_type_symbol
_atom_site_label
_atom_site_fract_x
_atom_site_fract_y
_atom_site_fract_z
Si Si1 0.683762 0.050776 0.792537
Si Si2 0.703776 0.421074 0.801421
Si Si3 0.720589 0.684579 0.805664
Si Si4 0.399799 0.316426 0.295961
Si Si5 0.440850 0.782345 0.790354
Si Si6 0.000000 0.000000 0.250000
Si Si7 0.335876 0.839293 0.786513
Si Si8 0.586439 0.572933 0.712728
O O1 0.742795 0.048252 0.707421
O O2 0.662803 0.103824 0.735278
O O3 0.654745 0.000000 0.750000
O O4 0.689159 0.053026 0.000000
O O5 0.714898 0.373829 0.687807
O O6 0.647372 0.444055 0.752126
O O7 0.696091 0.402927 0.000000
O O8 0.663573 0.697996 0.720678
O O9 0.780777 0.688070 0.726685
O O10 0.721602 0.705150 0.000000
O O11 0.411561 0.319798 0.500000
O O12 0.433708 0.272302 0.219670
O O13 0.412643 0.370528 0.230946
O O14 0.500000 0.801484 0.750000
O O15 0.390245 0.813554 0.727779
O O16 0.435926 0.780366 0.000000
O O17 0.956138 0.960178 0.310727
O O18 0.333314 0.837872 0.000000
O O19 0.576277 0.569151 0.500000
#
# Coordination Sequence:
#
# PCOD9525884 Si02
#       8
#    16  16  16  16  16   4  16  16
#     4  10  19  32  53  82 111 141 175 209 258 323
#     4   9  17  32  51  72 104 140 176 220 272 322
#     4   9  16  30  53  81 109 137 176 220 270 330
#     4   9  19  36  56  76 106 140 175 225 283 333
#     4  10  21  38  59  80 106 143 181 224 276 325
#     4  12  22  32  48  66  96 136 186 228 262 300
#     4   8  17  34  54  79 113 144 174 219 271 323
#     4   9  20  36  48  66  96 133 177 221 267 314
#
# _framework density 22.036905000000001
#
# number of rings (size 3 to 8) (size 9 to 14) (size 15 to 20)
#    0.000    2.759    0.000    3.103    1.931    1.103 
#    0.000   10.345    0.000    0.414    0.000    2.897 
#    0.000    0.000    0.000    0.000    0.000    0.000 
#
# Total GULP energy -323062.982960 kJ/mol
# GULP energy per Si atom -5570.051430 kJ/mol
# Density = 2.198675 g / cm^3
# Si number density = 22.036905 Si / 1000 Ang^3
#
#
#
# Elastic Constant Matrix: (Units=GPa)
#
#
# Indices 1 2 3 4 5 6 
#
# 1 140.1114 55.9192 6.4526 0.0000 0.0000 0.0000
# 2 55.9192 99.6784 13.7053 0.0000 0.0000 0.0000
# 3 6.4526 13.7053 52.9238 0.0000 0.0000 0.0000
# 4 0.0000 0.0000 0.0000 -4.5672 0.0000 0.0000
# 5 0.0000 0.0000 0.0000 0.0000 23.0023 0.0000
# 6 0.0000 0.0000 0.0000 0.0000 0.0000 33.1837
#
#
#
# Elastic Compliance Matrix: (Units=1/GPa)
#
#
# Indices 1 2 3 4 5 6 
#
# 1 0.009199 -0.005191 0.000223 0.000000 0.000000 0.000000
# 2 -0.005191 0.013332 -0.002820 0.000000 0.000000 0.000000
# 3 0.000223 -0.002820 0.019598 0.000000 0.000000 0.000000
# 4 0.000000 0.000000 0.000000 -0.218950 0.000000 0.000000
# 5 0.000000 0.000000 0.000000 0.000000 0.043474 0.000000
# 6 0.000000 0.000000 0.000000 0.000000 0.000000 0.030135
#
#
# Mechanical properties :
#
#
# Convention : Reuss Voigt Hill
#
# Bulk Modulus (GPa) = 37.66040 49.42976 43.54508
# Shear Modulus (GPa) = -63.46376 24.76617 -19.34880
#
# Velocity S-wave (km/s) = -5.37228 3.35602 -2.96635
# Velocity P-wave (km/s) = 4.62115 6.12343 2.84089
#
# Compressibility (1/GPa) = 0.02655309
#
# Stress axis : x y z
#
# Youngs Moduli (GPa) = 108.71109 75.00694 51.02535
#
# Poissons Ratio (x) = 0.38937 -0.01137
# Poissons Ratio (y) = 0.56433 0.14387
# Poissons Ratio (z) = -0.02422 0.21149
#
# Static dielectric constant tensor:
#      x y z
#    x 1.811270 0.000000 0.000000 
#    y 0.000000 1.833780 0.000000 
#    z 0.000000 0.000000 1.869260 
# 
# From -- ./inp_files/7526.got.cif
#   From: 2010.05.17/outbox.cif.g08.bks.cpg/sg72_4_cif.got.tgz:7526.got - 2010.06.03 17:03:01.
