data_PCOD9525380
_publ_section_title
;
Structure prediction by ZEFSAII (Michael W. Deem and Ramdas Pophale) SiO2 
 PCOD9525380
Probable space group: I B A M
;
_chemical_formula_sum "Si O2"
_cell_formula_units_Z 112
_cell_length_a 20.761667
_cell_length_b 17.939959
_cell_length_c 17.182506
_cell_angle_alpha 90.000000
_cell_angle_beta 90.000000
_cell_angle_gamma 90.000000
_cell_volume 6399.855546
_symmetry_space_group_name_H-M "I B A M"
_symmetry_group_IT_number 72
_symmetry_cell_setting 'orthorhombic'
loop_
_space_group_symop_operation_xyz
x,y,z
-x,-y,z
x,-y,1/2-z
-x,y,1/2-z
-x,-y,-z
x,y,-z
-x,y,1/2+z
x,-y,1/2+z
1/2+x,1/2+y,1/2+z
1/2-x,1/2-y,1/2+z
1/2+x,1/2-y,-z
1/2-x,1/2+y,-z
1/2-x,1/2-y,1/2-z
1/2+x,1/2+y,1/2-z
1/2-x,1/2+y,z
1/2+x,1/2-y,z
loop_
_atom_site_type_symbol
_atom_site_label
_atom_site_fract_x
_atom_site_fract_y
_atom_site_fract_z
Si Si1 0.879305 0.332206 0.808178
Si Si2 0.205136 0.768702 0.414851
Si Si3 0.250930 0.556089 0.409743
Si Si4 0.118662 0.646545 0.625336
Si Si5 0.516145 0.082396 0.411339
Si Si6 0.761546 0.098756 0.330112
Si Si7 0.309492 0.319160 0.824336
O O1 0.891743 0.347423 0.717571
O O2 0.934820 0.368603 0.860656
O O3 0.812863 0.375439 0.827228
O O4 0.865298 0.243178 0.819686
O O5 0.233055 0.751731 0.500000
O O6 0.138094 0.727320 0.406873
O O7 0.205342 0.855681 0.399982
O O8 0.247412 0.731972 0.345905
O O9 0.251819 0.533554 0.500000
O O10 0.180556 0.593531 0.392689
O O11 0.261935 0.487812 0.350832
O O12 0.304932 0.619001 0.392026
O O13 0.053560 0.619695 0.587502
O O14 0.541298 0.073899 0.500000
O O15 0.500000 0.000000 0.378735
O O16 0.795799 0.132282 0.253037
#
# Coordination Sequence:
#
# PCOD9525380 Si02
#       7
#    16  16  16  16  16  16  16
#     4  11  21  35  57  77 103 148 192 227 271 329
#     4  10  18  31  53  74 104 140 179 223 269 328
#     4  11  22  32  53  82 112 145 179 223 281 336
#     4  11  20  37  53  75 107 144 189 222 268 325
#     4  11  25  39  52  76 112 148 188 231 269 317
#     4  11  19  34  52  80 110 141 180 225 277 331
#     4  10  19  35  52  76 108 142 180 225 278 330
#
# _framework density 17.500395000000001
#
# number of rings (size 3 to 8) (size 9 to 14) (size 15 to 20)
#    0.000    1.286    4.286    5.571    0.000    6.857 
#    0.000    0.000    0.000    0.000    0.000    1.000 
#    0.000    3.429    0.000    0.000    0.000    0.000 
#
# Total GULP energy -311990.289625 kJ/mol
# GULP energy per Si atom -5571.255172 kJ/mol
# Density = 1.746056 g / cm^3
# Si number density = 17.500395 Si / 1000 Ang^3
#
#
#
# Elastic Constant Matrix: (Units=GPa)
#
#
# Indices 1 2 3 4 5 6 
#
# 1 54.8749 39.3428 26.4170 0.0000 0.0000 0.0000
# 2 39.3428 104.0374 34.3644 0.0000 0.0000 0.0000
# 3 26.4170 34.3644 104.7623 0.0000 0.0000 0.0000
# 4 0.0000 0.0000 0.0000 37.3427 0.0000 0.0000
# 5 0.0000 0.0000 0.0000 0.0000 15.9331 0.0000
# 6 0.0000 0.0000 0.0000 0.0000 0.0000 27.0194
#
#
#
# Elastic Compliance Matrix: (Units=1/GPa)
#
#
# Indices 1 2 3 4 5 6 
#
# 1 0.026268 -0.008687 -0.003774 0.000000 0.000000 0.000000
# 2 -0.008687 0.013653 -0.002288 0.000000 0.000000 0.000000
# 3 -0.003774 -0.002288 0.011248 0.000000 0.000000 0.000000
# 4 0.000000 0.000000 0.000000 0.026779 0.000000 0.000000
# 5 0.000000 0.000000 0.000000 0.000000 0.062762 0.000000
# 6 0.000000 0.000000 0.000000 0.000000 0.000000 0.037010
#
#
# Mechanical properties :
#
#
# Convention : Reuss Voigt Hill
#
# Bulk Modulus (GPa) = 46.14601 51.54701 48.84651
# Shear Modulus (GPa) = 23.31628 26.96239 25.13933
#
# Velocity S-wave (km/s) = 3.65407 3.92940 3.79423
# Velocity P-wave (km/s) = 6.65047 7.07853 6.86784
#
# Compressibility (1/GPa) = 0.02167035
#
# Stress axis : x y z
#
# Youngs Moduli (GPa) = 38.06850 73.24557 88.90753
#
# Poissons Ratio (x) = 0.63628 0.33557
# Poissons Ratio (y) = 0.33070 0.20341
# Poissons Ratio (z) = 0.14368 0.16758
#
# Static dielectric constant tensor:
#      x y z
#    x 1.569380 0.000000 0.000000 
#    y 0.000000 1.645900 0.000000 
#    z 0.000000 0.000000 1.673620 
# 
# From -- ./inp_files/32753.got.cif
#   From: 2010.05.17/outbox.cif.g08.bks.cpg/sg72_17_cif.got.tgz:32753.got - 2010.06.03 17:03:01.
