data_PCOD9525501
_publ_section_title
;
Structure prediction by ZEFSAII (Michael W. Deem and Ramdas Pophale) SiO2 
 PCOD9525501
Probable space group: I B A M
;
_chemical_formula_sum "Si O2"
_cell_formula_units_Z 84
_cell_length_a 19.576250
_cell_length_b 11.912761
_cell_length_c 18.346239
_cell_angle_alpha 90.000000
_cell_angle_beta 90.000000
_cell_angle_gamma 90.000000
_cell_volume 4278.474799
_symmetry_space_group_name_H-M "I B A M"
_symmetry_group_IT_number 72
_symmetry_cell_setting 'orthorhombic'
loop_
_space_group_symop_operation_xyz
x,y,z
-x,-y,z
x,-y,1/2-z
-x,y,1/2-z
-x,-y,-z
x,y,-z
-x,y,1/2+z
x,-y,1/2+z
1/2+x,1/2+y,1/2+z
1/2-x,1/2-y,1/2+z
1/2+x,1/2-y,-z
1/2-x,1/2+y,-z
1/2-x,1/2-y,1/2-z
1/2+x,1/2+y,1/2-z
1/2-x,1/2+y,z
1/2+x,1/2-y,z
loop_
_atom_site_type_symbol
_atom_site_label
_atom_site_fract_x
_atom_site_fract_y
_atom_site_fract_z
Si Si1 0.605518 0.325167 0.412643
Si Si2 0.062213 0.412198 0.086666
Si Si3 0.500000 0.500000 0.750000
Si Si4 0.828436 0.595146 0.588580
Si Si5 0.048929 0.168622 0.864477
Si Si6 0.678969 0.456293 0.085641
O O1 0.611705 0.323118 0.500000
O O2 0.630164 0.204219 0.615356
O O3 0.526483 0.351773 0.602477
O O4 0.653578 0.424456 0.616286
O O5 0.130392 0.481507 0.104056
O O6 0.054007 0.303220 0.136810
O O7 0.000000 0.500000 0.094427
O O8 0.062355 0.378128 0.000000
O O9 0.453326 0.412494 0.705289
O O10 0.828410 0.604209 0.500000
O O11 0.750627 0.589056 0.615535
O O12 0.115178 0.127217 0.907809
O O13 0.691769 0.474704 0.000000
#
# Coordination Sequence:
#
# PCOD9525501 Si02
#       6
#    16  16   4  16  16  16
#     4  10  18  33  57  87 119 148 185 232 288 357
#     4  10  19  34  60  94 123 149 179 224 295 365
#     4  12  28  44  56  80 108 152 218 264 280 304
#     4   9  19  32  52  91 132 150 169 221 295 370
#     4  12  22  39  59  78 109 156 200 247 284 331
#     4  10  20  32  55  89 121 153 184 226 297 362
#
# _framework density 19.633165999999999
#
# number of rings (size 3 to 8) (size 9 to 14) (size 15 to 20)
#    0.000    1.714    3.810    1.714    2.667    1.524 
#    0.000    0.476    0.000    4.571    0.000    0.000 
#    0.000    0.000    0.000    0.000    0.000    0.000 
#
# Total GULP energy -234014.947410 kJ/mol
# GULP energy per Si atom -5571.784462 kJ/mol
# Density = 1.958848 g / cm^3
# Si number density = 19.633166 Si / 1000 Ang^3
#
#
#
# Elastic Constant Matrix: (Units=GPa)
#
#
# Indices 1 2 3 4 5 6 
#
# 1 131.0541 42.5151 9.6738 0.0000 0.0000 0.0000
# 2 42.5151 136.1972 27.9046 0.0000 0.0000 0.0000
# 3 9.6738 27.9046 14.2254 0.0000 0.0000 0.0000
# 4 0.0000 0.0000 0.0000 26.2036 0.0000 0.0000
# 5 0.0000 0.0000 0.0000 0.0000 0.8013 0.0000
# 6 0.0000 0.0000 0.0000 0.0000 0.0000 19.5923
#
#
#
# Elastic Compliance Matrix: (Units=1/GPa)
#
#
# Indices 1 2 3 4 5 6 
#
# 1 0.008498 -0.002456 -0.000962 0.000000 0.000000 0.000000
# 2 -0.002456 0.012986 -0.023803 0.000000 0.000000 0.000000
# 3 -0.000962 -0.023803 0.117642 0.000000 0.000000 0.000000
# 4 0.000000 0.000000 0.000000 0.038163 0.000000 0.000000
# 5 0.000000 0.000000 0.000000 0.000000 1.247950 0.000000
# 6 0.000000 0.000000 0.000000 0.000000 0.000000 0.051041
#
#
# Mechanical properties :
#
#
# Convention : Reuss Voigt Hill
#
# Bulk Modulus (GPa) = 11.80842 49.07375 30.44109
# Shear Modulus (GPa) = 3.20729 22.74499 12.97614
#
# Velocity S-wave (km/s) = 1.27951 3.40736 2.57364
# Velocity P-wave (km/s) = 2.86539 6.36630 4.93661
#
# Compressibility (1/GPa) = 0.08468532
#
# Stress axis : x y z
#
# Youngs Moduli (GPa) = 117.67362 77.00818 8.50034
#
# Poissons Ratio (x) = 0.18911 0.00818
# Poissons Ratio (y) = 0.28897 0.20233
# Poissons Ratio (z) = 0.11320 1.83300
#
# Static dielectric constant tensor:
#      x y z
#    x 1.702790 0.000000 0.000000 
#    y 0.000000 1.721510 0.000000 
#    z 0.000000 0.000000 1.719170 
# 
# From -- ./inp_files/39653.got.cif
#   From: 2010.05.17/outbox.cif.g08.bks.cpg/sg72_20_cif.got.tgz:39653.got - 2010.06.03 17:03:01.
