data_PCOD9525844
_publ_section_title
;
Structure prediction by ZEFSAII (Michael W. Deem and Ramdas Pophale) SiO2 
 PCOD9525844
Probable space group: I B A M
;
_chemical_formula_sum "Si O2"
_cell_formula_units_Z 112
_cell_length_a 12.472444
_cell_length_b 22.952403
_cell_length_c 21.919137
_cell_angle_alpha 90.000000
_cell_angle_beta 90.000000
_cell_angle_gamma 90.000000
_cell_volume 6274.847486
_symmetry_space_group_name_H-M "I B A M"
_symmetry_group_IT_number 72
_symmetry_cell_setting 'orthorhombic'
loop_
_space_group_symop_operation_xyz
x,y,z
-x,-y,z
x,-y,1/2-z
-x,y,1/2-z
-x,-y,-z
x,y,-z
-x,y,1/2+z
x,-y,1/2+z
1/2+x,1/2+y,1/2+z
1/2-x,1/2-y,1/2+z
1/2+x,1/2-y,-z
1/2-x,1/2+y,-z
1/2-x,1/2-y,1/2-z
1/2+x,1/2+y,1/2-z
1/2-x,1/2+y,z
1/2+x,1/2-y,z
loop_
_atom_site_type_symbol
_atom_site_label
_atom_site_fract_x
_atom_site_fract_y
_atom_site_fract_z
Si Si1 0.192562 0.159562 0.797693
Si Si2 0.476632 0.565261 0.177550
Si Si3 0.552945 0.756516 0.638032
Si Si4 0.129834 0.833516 0.156443
Si Si5 0.506678 0.930633 0.931300
Si Si6 0.057853 0.366766 0.691958
Si Si7 0.177045 0.659749 0.433821
O O1 0.136572 0.100313 0.824251
O O2 0.144724 0.214142 0.835241
O O3 0.151250 0.170201 0.728755
O O4 0.320253 0.153172 0.796403
O O5 0.500000 0.500000 0.154876
O O6 0.500000 0.563487 0.250000
O O7 0.562295 0.607827 0.147031
O O8 0.445946 0.718405 0.634129
O O9 0.519195 0.811094 0.680086
O O10 0.594037 0.787362 0.576937
O O11 0.238905 0.835961 0.120010
O O12 0.561042 0.903664 0.870986
O O13 0.390356 0.899710 0.930465
O O14 0.500000 0.000000 0.926059
O O15 0.551505 0.917188 0.000000
O O16 0.000000 0.397367 0.750000
O O17 0.228853 0.664232 0.500000
#
# Coordination Sequence:
#
# PCOD9525844 Si02
#       7
#    16  16  16  16  16  16  16
#     4  10  19  32  51  78 108 137 168 208 259 313
#     4   8  16  31  50  75 105 135 166 200 247 308
#     4  10  20  34  51  73 105 141 172 204 255 323
#     4  10  19  32  53  76 101 134 168 206 256 310
#     4   9  20  39  56  71 100 141 178 211 258 324
#     4  11  21  32  52  81 109 135 173 225 269 306
#     4  10  21  35  52  74  98 130 173 216 257 302
#
# _framework density 17.849039999999999
#
# number of rings (size 3 to 8) (size 9 to 14) (size 15 to 20)
#    0.000    2.286    0.000    4.714    0.000    3.714 
#    0.000    6.429    0.000    1.286    0.000    0.000 
#    0.000    0.000    0.000    0.000    0.000    0.000 
#
# Total GULP energy -311839.911978 kJ/mol
# GULP energy per Si atom -5568.569857 kJ/mol
# Density = 1.780841 g / cm^3
# Si number density = 17.849040 Si / 1000 Ang^3
#
#
#
# Elastic Constant Matrix: (Units=GPa)
#
#
# Indices 1 2 3 4 5 6 
#
# 1 86.8650 29.2073 21.4686 0.0000 0.0000 0.0000
# 2 29.2073 103.6350 43.0881 0.0000 0.0000 0.0000
# 3 21.4686 43.0881 51.7711 0.0000 0.0000 0.0000
# 4 0.0000 0.0000 0.0000 6.8302 0.0000 0.0000
# 5 0.0000 0.0000 0.0000 0.0000 7.2794 0.0000
# 6 0.0000 0.0000 0.0000 0.0000 0.0000 5.6301
#
#
#
# Elastic Compliance Matrix: (Units=1/GPa)
#
#
# Indices 1 2 3 4 5 6 
#
# 1 0.013147 -0.002200 -0.003621 0.000000 0.000000 0.000000
# 2 -0.002200 0.015123 -0.011674 0.000000 0.000000 0.000000
# 3 -0.003621 -0.011674 0.030534 0.000000 0.000000 0.000000
# 4 0.000000 0.000000 0.000000 0.146408 0.000000 0.000000
# 5 0.000000 0.000000 0.000000 0.000000 0.137375 0.000000
# 6 0.000000 0.000000 0.000000 0.000000 0.000000 0.177616
#
#
# Mechanical properties :
#
#
# Convention : Reuss Voigt Hill
#
# Bulk Modulus (GPa) = 41.99332 47.75547 44.87440
# Shear Modulus (GPa) = 8.87894 13.84841 11.36368
#
# Velocity S-wave (km/s) = 2.23277 2.78845 2.52594
# Velocity P-wave (km/s) = 5.49773 6.09759 5.80541
#
# Compressibility (1/GPa) = 0.02381331
#
# Stress axis : x y z
#
# Youngs Moduli (GPa) = 76.06509 66.12435 32.75059
#
# Poissons Ratio (x) = 0.14545 0.11859
# Poissons Ratio (y) = 0.16731 0.38235
# Poissons Ratio (z) = 0.27543 0.77197
#
# Static dielectric constant tensor:
#      x y z
#    x 1.614550 0.000000 0.000000 
#    y 0.000000 1.633430 0.000000 
#    z 0.000000 0.000000 1.626820 
# 
# From -- ./inp_files/43630.got.cif
#   From: 2010.05.17/outbox.cif.g08.bks.cpg/sg72_22_cif.got.tgz:43630.got - 2010.06.03 17:03:01.
