data_PCOD9525636
_publ_section_title
;
Structure prediction by ZEFSAII (Michael W. Deem and Ramdas Pophale) SiO2 
 PCOD9525636
Probable space group: I B A M
;
_chemical_formula_sum "Si O2"
_cell_formula_units_Z 80
_cell_length_a 26.228860
_cell_length_b 11.671410
_cell_length_c 14.137939
_cell_angle_alpha 90.000000
_cell_angle_beta 90.000000
_cell_angle_gamma 90.000000
_cell_volume 4328.015864
_symmetry_space_group_name_H-M "I B A M"
_symmetry_group_IT_number 72
_symmetry_cell_setting 'orthorhombic'
loop_
_space_group_symop_operation_xyz
x,y,z
-x,-y,z
x,-y,1/2-z
-x,y,1/2-z
-x,-y,-z
x,y,-z
-x,y,1/2+z
x,-y,1/2+z
1/2+x,1/2+y,1/2+z
1/2-x,1/2-y,1/2+z
1/2+x,1/2-y,-z
1/2-x,1/2+y,-z
1/2-x,1/2-y,1/2-z
1/2+x,1/2+y,1/2-z
1/2-x,1/2+y,z
1/2+x,1/2-y,z
loop_
_atom_site_type_symbol
_atom_site_label
_atom_site_fract_x
_atom_site_fract_y
_atom_site_fract_z
Si Si1 0.214690 0.529853 0.108297
Si Si2 0.206633 0.155167 0.773151
Si Si3 0.358562 0.251701 0.890283
Si Si4 0.440689 0.138722 0.754017
Si Si5 0.643392 0.179161 0.889112
O O1 0.263284 0.554708 0.172365
O O2 0.180009 0.643317 0.106869
O O3 0.179236 0.426565 0.144711
O O4 0.229554 0.502601 0.000000
O O5 0.250000 0.250000 0.750000
O O6 0.169498 0.157443 0.680335
O O7 0.171764 0.208236 0.855493
O O8 0.409251 0.199079 0.839740
O O9 0.366286 0.288101 0.000000
O O10 0.500000 0.169666 0.750000
O O11 0.410607 0.176016 0.660846
O O12 0.437073 0.000000 0.750000
O O13 0.638813 0.168205 0.000000
#
# Coordination Sequence:
#
# PCOD9525636 Si02
#       5
#    16  16  16  16  16
#     4   9  16  28  45  64  87 117 153 193 231 269
#     4   9  18  28  45  63  87 117 157 195 230 272
#     4   9  17  29  42  58  83 116 151 189 227 268
#     4  10  19  29  43  63  88 121 161 197 231 268
#     4  10  19  31  47  67  92 125 162 194 231 276
#
# _framework density 18.484221000000002
#
# number of rings (size 3 to 8) (size 9 to 14) (size 15 to 20)
#    0.000    2.600    2.000    0.600    0.000    1.600 
#    0.000    2.000    0.000    1.200    0.000    0.000 
#    0.000    0.000    0.000  136.800    0.000  572.400 
#
# Total GULP energy -222838.320957 kJ/mol
# GULP energy per Si atom -5570.958024 kJ/mol
# Density = 1.844215 g / cm^3
# Si number density = 18.484221 Si / 1000 Ang^3
#
#
#
# Elastic Constant Matrix: (Units=GPa)
#
#
# Indices 1 2 3 4 5 6 
#
# 1 154.1287 34.5178 78.7772 0.0000 0.0000 0.0000
# 2 34.5178 15.8095 28.1434 0.0000 0.0000 0.0000
# 3 78.7772 28.1434 117.4609 0.0000 0.0000 0.0000
# 4 0.0000 0.0000 0.0000 16.1769 0.0000 0.0000
# 5 0.0000 0.0000 0.0000 0.0000 11.5418 0.0000
# 6 0.0000 0.0000 0.0000 0.0000 0.0000 15.7469
#
#
#
# Elastic Compliance Matrix: (Units=1/GPa)
#
#
# Indices 1 2 3 4 5 6 
#
# 1 0.013458 -0.023220 -0.003462 0.000000 0.000000 0.000000
# 2 -0.023220 0.150361 -0.020453 0.000000 0.000000 0.000000
# 3 -0.003462 -0.020453 0.015736 0.000000 0.000000 0.000000
# 4 0.000000 0.000000 0.000000 0.061816 0.000000 0.000000
# 5 0.000000 0.000000 0.000000 0.000000 0.086642 0.000000
# 6 0.000000 0.000000 0.000000 0.000000 0.000000 0.063505
#
#
# Mechanical properties :
#
#
# Convention : Reuss Voigt Hill
#
# Bulk Modulus (GPa) = 11.72555 63.36402 37.54478
# Shear Modulus (GPa) = 9.72351 18.42383 14.07367
#
# Velocity S-wave (km/s) = 2.29605 3.16053 2.76232
# Velocity P-wave (km/s) = 3.65875 6.90457 5.52538
#
# Compressibility (1/GPa) = 0.08528383
#
# Stress axis : x y z
#
# Youngs Moduli (GPa) = 74.30529 6.65065 63.54814
#
# Poissons Ratio (x) = 0.15443 0.22002
# Poissons Ratio (y) = 1.72538 1.29977
# Poissons Ratio (z) = 0.25727 0.13603
#
# Static dielectric constant tensor:
#      x y z
#    x 1.642940 0.000000 0.000000 
#    y 0.000000 1.708840 0.000000 
#    z 0.000000 0.000000 1.684460 
# 
# From -- ./inp_files/20158.got.cif
#   From: 2010.05.17/outbox.cif.g08.bks.cpg/sg72_11_cif.got.tgz:20158.got - 2010.06.03 17:03:01.
