data_PCOD9525709
_publ_section_title
;
Structure prediction by ZEFSAII (Michael W. Deem and Ramdas Pophale) SiO2 
 PCOD9525709
Probable space group: I B A M
;
_chemical_formula_sum "Si O2"
_cell_formula_units_Z 120
_cell_length_a 24.669292
_cell_length_b 20.420774
_cell_length_c 13.700549
_cell_angle_alpha 90.000000
_cell_angle_beta 90.000000
_cell_angle_gamma 90.000000
_cell_volume 6901.871270
_symmetry_space_group_name_H-M "I B A M"
_symmetry_group_IT_number 72
_symmetry_cell_setting 'orthorhombic'
loop_
_space_group_symop_operation_xyz
x,y,z
-x,-y,z
x,-y,1/2-z
-x,y,1/2-z
-x,-y,-z
x,y,-z
-x,y,1/2+z
x,-y,1/2+z
1/2+x,1/2+y,1/2+z
1/2-x,1/2-y,1/2+z
1/2+x,1/2-y,-z
1/2-x,1/2+y,-z
1/2-x,1/2-y,1/2-z
1/2+x,1/2+y,1/2-z
1/2-x,1/2+y,z
1/2+x,1/2-y,z
loop_
_atom_site_type_symbol
_atom_site_label
_atom_site_fract_x
_atom_site_fract_y
_atom_site_fract_z
Si Si1 0.284758 0.232420 0.384511
Si Si2 0.356096 0.403055 0.891563
Si Si3 0.222622 0.598771 0.731204
Si Si4 0.500000 0.684800 0.750000
Si Si5 0.877675 0.220722 0.763627
Si Si6 0.019624 0.068094 0.391293
Si Si7 0.761884 0.009622 0.612791
Si Si8 0.823080 0.322051 0.887969
O O1 0.295495 0.223397 0.500000
O O2 0.266990 0.163533 0.334003
O O3 0.337255 0.257975 0.324210
O O4 0.234832 0.283633 0.376236
O O5 0.358692 0.349337 0.806703
O O6 0.415679 0.433317 0.893326
O O7 0.313276 0.461261 0.880734
O O8 0.345678 0.372644 0.000000
O O9 0.265185 0.569608 0.811562
O O10 0.215378 0.538881 0.655768
O O11 0.176569 0.620574 0.807707
O O12 0.441910 0.720332 0.758072
O O13 0.503198 0.634435 0.839575
O O14 0.867224 0.270315 0.852863
O O15 0.996976 0.070897 0.500000
O O16 0.000000 0.000000 0.348594
O O17 0.754540 0.028954 0.500000
O O18 0.828617 0.341872 0.000000
#
# Coordination Sequence:
#
# PCOD9525709 Si02
#       8
#    16  16  16   8  16  16  16  16
#     4  10  20  34  51  70  98 132 168 210 259 310
#     4   9  17  31  49  68  93 128 170 211 256 301
#     4  10  19  31  46  69  98 129 158 200 245 297
#     4  10  21  34  50  74  98 129 174 222 260 300
#     4  10  19  33  52  74  99 133 176 215 259 301
#     4   9  18  34  47  61  90 130 172 215 258 293
#     4  10  19  31  47  71 100 130 162 200 245 299
#     4  10  19  33  52  72  97 128 167 210 258 314
#
# _framework density 17.386590000000002
#
# number of rings (size 3 to 8) (size 9 to 14) (size 15 to 20)
#    0.000    2.267    0.000    4.600    0.000    3.200 
#   14.400    0.000    0.000    0.800    0.000    0.000 
#    0.000   34.133    0.000   61.867    0.000    0.533 
#
# Total GULP energy -334017.907405 kJ/mol
# GULP energy per Si atom -5566.965123 kJ/mol
# Density = 1.734702 g / cm^3
# Si number density = 17.386590 Si / 1000 Ang^3
#
#
#
# Elastic Constant Matrix: (Units=GPa)
#
#
# Indices 1 2 3 4 5 6 
#
# 1 82.5396 37.2309 27.7137 0.0000 0.0000 0.0000
# 2 37.2309 62.7100 34.7174 0.0000 0.0000 0.0000
# 3 27.7137 34.7174 130.1977 0.0000 0.0000 0.0000
# 4 0.0000 0.0000 0.0000 24.4072 0.0000 0.0000
# 5 0.0000 0.0000 0.0000 0.0000 13.5256 0.0000
# 6 0.0000 0.0000 0.0000 0.0000 0.0000 17.3296
#
#
#
# Elastic Compliance Matrix: (Units=1/GPa)
#
#
# Indices 1 2 3 4 5 6 
#
# 1 0.016672 -0.009307 -0.001067 0.000000 0.000000 0.000000
# 2 -0.009307 0.023904 -0.004393 0.000000 0.000000 0.000000
# 3 -0.001067 -0.004393 0.009079 0.000000 0.000000 0.000000
# 4 0.000000 0.000000 0.000000 0.040972 0.000000 0.000000
# 5 0.000000 0.000000 0.000000 0.000000 0.073934 0.000000
# 6 0.000000 0.000000 0.000000 0.000000 0.000000 0.057705
#
#
# Mechanical properties :
#
#
# Convention : Reuss Voigt Hill
#
# Bulk Modulus (GPa) = 49.70010 52.75238 51.22624
# Shear Modulus (GPa) = 19.34182 22.77148 21.05665
#
# Velocity S-wave (km/s) = 3.33897 3.62292 3.48384
# Velocity P-wave (km/s) = 6.59639 6.92152 6.76091
#
# Compressibility (1/GPa) = 0.02012068
#
# Stress axis : x y z
#
# Youngs Moduli (GPa) = 59.98114 41.83354 110.14293
#
# Poissons Ratio (x) = 0.38936 0.11751
# Poissons Ratio (y) = 0.55827 0.48385
# Poissons Ratio (z) = 0.06399 0.18377
#
# Static dielectric constant tensor:
#      x y z
#    x 1.609250 0.000000 0.000000 
#    y 0.000000 1.626530 0.000000 
#    z 0.000000 0.000000 1.664000 
# 
# From -- ./inp_files/25447.got.cif
#   From: 2010.05.17/outbox.cif.g08.bks.cpg/sg72_13_cif.got.tgz:25447.got - 2010.06.03 17:03:01.
