data_PCOD9525126
_publ_section_title
;
Structure prediction by ZEFSAII (Michael W. Deem and Ramdas Pophale) SiO2 
 PCOD9525126
Probable space group: I B A M
;
_chemical_formula_sum "Si O2"
_cell_formula_units_Z 96
_cell_length_a 21.540305
_cell_length_b 13.127803
_cell_length_c 19.436941
_cell_angle_alpha 90.000000
_cell_angle_beta 90.000000
_cell_angle_gamma 90.000000
_cell_volume 5496.317544
_symmetry_space_group_name_H-M "I B A M"
_symmetry_group_IT_number 72
_symmetry_cell_setting 'orthorhombic'
loop_
_space_group_symop_operation_xyz
x,y,z
-x,-y,z
x,-y,1/2-z
-x,y,1/2-z
-x,-y,-z
x,y,-z
-x,y,1/2+z
x,-y,1/2+z
1/2+x,1/2+y,1/2+z
1/2-x,1/2-y,1/2+z
1/2+x,1/2-y,-z
1/2-x,1/2+y,-z
1/2-x,1/2-y,1/2-z
1/2+x,1/2+y,1/2-z
1/2-x,1/2+y,z
1/2+x,1/2-y,z
loop_
_atom_site_type_symbol
_atom_site_label
_atom_site_fract_x
_atom_site_fract_y
_atom_site_fract_z
Si Si1 0.651000 0.123520 0.578713
Si Si2 0.086410 0.386687 0.781870
Si Si3 0.681484 0.362455 0.419865
Si Si4 0.285998 0.956370 0.175893
Si Si5 0.030638 0.685681 0.146249
Si Si6 0.039499 0.901951 0.917816
O O1 0.661992 0.092600 0.500000
O O2 0.673495 0.240348 0.587248
O O3 0.577534 0.128689 0.594993
O O4 0.684618 0.048378 0.631260
O O5 0.080224 0.500000 0.750000
O O6 0.156220 0.380393 0.808890
O O7 0.068349 0.313433 0.718692
O O8 0.034021 0.369828 0.838875
O O9 0.697867 0.382946 0.500000
O O10 0.731966 0.405062 0.367680
O O11 0.613535 0.410750 0.406496
O O12 0.265573 0.000000 0.250000
O O13 0.019014 0.798940 0.119591
O O14 0.031187 0.888115 0.000000
O O15 0.000000 0.000000 0.896438
#
# Coordination Sequence:
#
# PCOD9525126 Si02
#       6
#    16  16  16  16  16  16
#     4  10  20  36  58  81 109 151 195 232 283 343
#     4  10  20  34  56  80 118 152 177 226 295 339
#     4   9  20  39  59  81 117 153 186 238 291 335
#     4  11  21  37  56  85 115 151 190 228 285 352
#     4  10  17  34  57  82 109 151 183 230 290 338
#     4   9  19  39  62  81 108 149 195 240 288 335
#
# _framework density 17.466239999999999
#
# number of rings (size 3 to 8) (size 9 to 14) (size 15 to 20)
#    0.000    2.167    3.333    3.000    0.000    0.667 
#    3.000    9.167    0.000    0.000    0.000    0.000 
#    0.000    0.000    0.000    0.000    0.000    0.000 
#
# Total GULP energy -267673.704349 kJ/mol
# GULP energy per Si atom -5576.535507 kJ/mol
# Density = 1.742649 g / cm^3
# Si number density = 17.466240 Si / 1000 Ang^3
#
#
#
# Elastic Constant Matrix: (Units=GPa)
#
#
# Indices 1 2 3 4 5 6 
#
# 1 88.9166 29.8292 44.6683 0.0000 0.0000 0.0000
# 2 29.8292 54.2498 32.1752 0.0000 0.0000 0.0000
# 3 44.6683 32.1752 84.5562 0.0000 0.0000 0.0000
# 4 0.0000 0.0000 0.0000 35.7878 0.0000 0.0000
# 5 0.0000 0.0000 0.0000 0.0000 36.0199 0.0000
# 6 0.0000 0.0000 0.0000 0.0000 0.0000 28.1782
#
#
#
# Elastic Compliance Matrix: (Units=1/GPa)
#
#
# Indices 1 2 3 4 5 6 
#
# 1 0.016287 -0.004975 -0.006711 0.000000 0.000000 0.000000
# 2 -0.004975 0.025326 -0.007009 0.000000 0.000000 0.000000
# 3 -0.006711 -0.007009 0.018038 0.000000 0.000000 0.000000
# 4 0.000000 0.000000 0.000000 0.027942 0.000000 0.000000
# 5 0.000000 0.000000 0.000000 0.000000 0.027762 0.000000
# 6 0.000000 0.000000 0.000000 0.000000 0.000000 0.035488
#
#
# Mechanical properties :
#
#
# Convention : Reuss Voigt Hill
#
# Bulk Modulus (GPa) = 44.91993 49.00756 46.96375
# Shear Modulus (GPa) = 25.55542 28.06721 26.81131
#
# Velocity S-wave (km/s) = 3.82924 4.01301 3.92220
# Velocity P-wave (km/s) = 6.73237 7.04214 6.88900
#
# Compressibility (1/GPa) = 0.02226183
#
# Stress axis : x y z
#
# Youngs Moduli (GPa) = 61.39994 39.48574 55.43751
#
# Poissons Ratio (x) = 0.19645 0.37202
# Poissons Ratio (y) = 0.30548 0.38854
# Poissons Ratio (z) = 0.41203 0.27674
#
# Static dielectric constant tensor:
#      x y z
#    x 1.600310 0.000000 0.000000 
#    y 0.000000 1.579770 0.000000 
#    z 0.000000 0.000000 1.617110 
# 
# From -- ./inp_files/33247.got.cif
#   From: 2010.05.17/outbox.cif.g08.bks.cpg/sg72_17_cif.got.tgz:33247.got - 2010.06.03 17:03:01.
