data_PCOD9525274
_publ_section_title
;
Structure prediction by ZEFSAII (Michael W. Deem and Ramdas Pophale) SiO2 
 PCOD9525274
Probable space group: I B A M
;
_chemical_formula_sum "Si O2"
_cell_formula_units_Z 128
_cell_length_a 22.220523
_cell_length_b 22.282853
_cell_length_c 17.283753
_cell_angle_alpha 90.000000
_cell_angle_beta 90.000000
_cell_angle_gamma 90.000000
_cell_volume 8557.819518
_symmetry_space_group_name_H-M "I B A M"
_symmetry_group_IT_number 72
_symmetry_cell_setting 'orthorhombic'
loop_
_space_group_symop_operation_xyz
x,y,z
-x,-y,z
x,-y,1/2-z
-x,y,1/2-z
-x,-y,-z
x,y,-z
-x,y,1/2+z
x,-y,1/2+z
1/2+x,1/2+y,1/2+z
1/2-x,1/2-y,1/2+z
1/2+x,1/2-y,-z
1/2-x,1/2+y,-z
1/2-x,1/2-y,1/2-z
1/2+x,1/2+y,1/2-z
1/2-x,1/2+y,z
1/2+x,1/2-y,z
loop_
_atom_site_type_symbol
_atom_site_label
_atom_site_fract_x
_atom_site_fract_y
_atom_site_fract_z
Si Si1 0.430801 0.886274 0.732843
Si Si2 0.253816 0.826462 0.661456
Si Si3 0.730633 0.859390 0.589503
Si Si4 0.649271 0.258303 0.088425
Si Si5 0.569392 0.744482 0.734965
Si Si6 0.852707 0.416139 0.907699
Si Si7 0.830953 0.463812 0.677412
Si Si8 0.681601 0.699415 0.186109
O O1 0.500000 0.901634 0.750000
O O2 0.422434 0.815919 0.751133
O O3 0.409900 0.895622 0.644061
O O4 0.387813 0.928023 0.785765
O O5 0.201034 0.808022 0.602151
O O6 0.296174 0.879267 0.629663
O O7 0.294968 0.767619 0.675315
O O8 0.218798 0.831458 0.743271
O O9 0.725428 0.874148 0.500000
O O10 0.684346 0.804312 0.605887
O O11 0.712194 0.915049 0.641060
O O12 0.796743 0.835764 0.611041
O O13 0.595782 0.266578 0.149231
O O14 0.629348 0.257444 0.000000
O O15 0.500000 0.730546 0.750000
O O16 0.612717 0.706443 0.791048
O O17 0.846520 0.486401 0.886689
O O18 0.856680 0.405988 0.000000
O O19 0.804067 0.500000 0.750000
#
# Coordination Sequence:
#
# PCOD9525274 Si02
#       8
#    16  16  16  16  16  16  16  16
#     4  10  20  36  49  59  85 130 169 197 229 274
#     4   9  16  28  49  69  93 115 149 186 239 292
#     4  10  18  30  46  70  95 119 153 194 240 285
#     4   9  17  29  49  70  90 118 151 194 236 284
#     4  10  18  31  49  68  92 124 160 194 228 274
#     4  11  21  32  47  71  95 116 152 209 244 264
#     4  10  20  32  49  65  90 127 163 194 235 276
#     4   9  16  29  49  69  89 122 154 183 228 290
#
# _framework density 14.957081000000001
#
# number of rings (size 3 to 8) (size 9 to 14) (size 15 to 20)
#    0.000    2.250    2.500    3.000    0.000    2.750 
#    0.000    5.000    0.000    0.000    0.000    0.000 
#    0.000   12.500    0.000   16.750    0.000    0.000 
#
# Total GULP energy -356364.196501 kJ/mol
# GULP energy per Si atom -5568.190570 kJ/mol
# Density = 1.492304 g / cm^3
# Si number density = 14.957081 Si / 1000 Ang^3
#
#
#
# Elastic Constant Matrix: (Units=GPa)
#
#
# Indices 1 2 3 4 5 6 
#
# 1 106.0670 40.9791 57.3381 0.0000 0.0000 0.0000
# 2 40.9791 48.9448 27.3510 0.0000 0.0000 0.0000
# 3 57.3381 27.3510 73.5125 0.0000 0.0000 0.0000
# 4 0.0000 0.0000 0.0000 16.6692 0.0000 0.0000
# 5 0.0000 0.0000 0.0000 0.0000 14.6767 0.0000
# 6 0.0000 0.0000 0.0000 0.0000 0.0000 16.5916
#
#
#
# Elastic Compliance Matrix: (Units=1/GPa)
#
#
# Indices 1 2 3 4 5 6 
#
# 1 0.019459 -0.009861 -0.011509 0.000000 0.000000 0.000000
# 2 -0.009861 0.030791 -0.003765 0.000000 0.000000 0.000000
# 3 -0.011509 -0.003765 0.023981 0.000000 0.000000 0.000000
# 4 0.000000 0.000000 0.000000 0.059991 0.000000 0.000000
# 5 0.000000 0.000000 0.000000 0.000000 0.068135 0.000000
# 6 0.000000 0.000000 0.000000 0.000000 0.000000 0.060272
#
#
# Mechanical properties :
#
#
# Convention : Reuss Voigt Hill
#
# Bulk Modulus (GPa) = 41.73347 53.31785 47.52566
# Shear Modulus (GPa) = 15.58187 16.44457 16.01322
#
# Velocity S-wave (km/s) = 3.23115 3.31939 3.27557
# Velocity P-wave (km/s) = 6.47172 7.10041 6.79334
#
# Compressibility (1/GPa) = 0.02396158
#
# Stress axis : x y z
#
# Youngs Moduli (GPa) = 51.38899 32.47695 41.70031
#
# Poissons Ratio (x) = 0.32026 0.47993
# Poissons Ratio (y) = 0.50675 0.15699
# Poissons Ratio (z) = 0.59144 0.12227
#
# Static dielectric constant tensor:
#      x y z
#    x 1.486030 0.000000 0.000000 
#    y 0.000000 1.501060 0.000000 
#    z 0.000000 0.000000 1.521950 
# 
# From -- ./inp_files/32968.got.cif
#   From: 2010.05.17/outbox.cif.g08.bks.cpg/sg72_17_cif.got.tgz:32968.got - 2010.06.03 17:03:01.
