data_PCOD9525699
_publ_section_title
;
Structure prediction by ZEFSAII (Michael W. Deem and Ramdas Pophale) SiO2 
 PCOD9525699
Probable space group: I B A M
;
_chemical_formula_sum "Si O2"
_cell_formula_units_Z 96
_cell_length_a 25.174389
_cell_length_b 25.460070
_cell_length_c 8.892232
_cell_angle_alpha 90.000000
_cell_angle_beta 90.000000
_cell_angle_gamma 90.000000
_cell_volume 5699.402350
_symmetry_space_group_name_H-M "I B A M"
_symmetry_group_IT_number 72
_symmetry_cell_setting 'orthorhombic'
loop_
_space_group_symop_operation_xyz
x,y,z
-x,-y,z
x,-y,1/2-z
-x,y,1/2-z
-x,-y,-z
x,y,-z
-x,y,1/2+z
x,-y,1/2+z
1/2+x,1/2+y,1/2+z
1/2-x,1/2-y,1/2+z
1/2+x,1/2-y,-z
1/2-x,1/2+y,-z
1/2-x,1/2-y,1/2-z
1/2+x,1/2+y,1/2-z
1/2-x,1/2+y,z
1/2+x,1/2-y,z
loop_
_atom_site_type_symbol
_atom_site_label
_atom_site_fract_x
_atom_site_fract_y
_atom_site_fract_z
Si Si1 0.447069 0.145780 0.681398
Si Si2 0.055317 0.761451 0.820295
Si Si3 0.335269 0.744264 0.824414
Si Si4 0.265538 0.833362 0.675458
Si Si5 0.883564 0.550760 0.832150
Si Si6 0.243443 0.446158 0.171080
O O1 0.500000 0.120284 0.750000
O O2 0.449674 0.153658 0.500000
O O3 0.443051 0.201222 0.763478
O O4 0.399914 0.107240 0.727611
O O5 0.112795 0.779197 0.758214
O O6 0.000000 0.783552 0.750000
O O7 0.052821 0.764943 0.000000
O O8 0.311635 0.798788 0.756454
O O9 0.287069 0.702894 0.814370
O O10 0.348299 0.753412 0.000000
O O11 0.279649 0.839781 0.500000
O O12 0.251516 0.890244 0.745023
O O13 0.904805 0.500000 0.750000
O O14 0.820311 0.547242 0.836797
O O15 0.905120 0.549522 0.000000
O O16 0.263650 0.500000 0.250000
O O17 0.263747 0.442563 0.000000
#
# Coordination Sequence:
#
# PCOD9525699 Si02
#       6
#    16  16  16  16  16  16
#     4  10  19  31  44  60  82 110 147 189 235 280
#     4  11  21  33  50  70  93 123 158 195 238 287
#     4  10  20  34  51  73 102 132 164 203 246 295
#     4  10  20  33  51  75 101 131 166 203 247 296
#     4   9  19  31  43  58  78 108 145 188 233 275
#     4  10  19  32  49  68  93 124 159 199 242 289
#
# _framework density 16.843871
#
# number of rings (size 3 to 8) (size 9 to 14) (size 15 to 20)
#    0.000    2.000    0.000    5.500    0.000    5.667 
#    0.000    1.667    0.000    0.000    0.000    0.000 
#    0.000    0.667    0.000    7.000    0.000    3.000 
#
# Total GULP energy -267320.803633 kJ/mol
# GULP energy per Si atom -5569.183409 kJ/mol
# Density = 1.680553 g / cm^3
# Si number density = 16.843871 Si / 1000 Ang^3
#
#
#
# Elastic Constant Matrix: (Units=GPa)
#
#
# Indices 1 2 3 4 5 6 
#
# 1 56.7232 -4.1574 29.6889 0.0000 0.0000 0.0000
# 2 -4.1574 71.0192 35.9175 0.0000 0.0000 0.0000
# 3 29.6889 35.9175 120.7249 0.0000 0.0000 0.0000
# 4 0.0000 0.0000 0.0000 24.1342 0.0000 0.0000
# 5 0.0000 0.0000 0.0000 0.0000 -11.4764 0.0000
# 6 0.0000 0.0000 0.0000 0.0000 0.0000 15.1044
#
#
#
# Elastic Compliance Matrix: (Units=1/GPa)
#
#
# Indices 1 2 3 4 5 6 
#
# 1 0.021448 0.004618 -0.006648 0.000000 0.000000 0.000000
# 2 0.004618 0.017569 -0.006363 0.000000 0.000000 0.000000
# 3 -0.006648 -0.006363 0.011811 0.000000 0.000000 0.000000
# 4 0.000000 0.000000 0.000000 0.041435 0.000000 0.000000
# 5 0.000000 0.000000 0.000000 0.000000 -0.087135 0.000000
# 6 0.000000 0.000000 0.000000 0.000000 0.000000 0.066206
#
#
# Mechanical properties :
#
#
# Convention : Reuss Voigt Hill
#
# Bulk Modulus (GPa) = 29.37581 41.26281 35.31931
# Shear Modulus (GPa) = 50.26813 18.02034 34.14423
#
# Velocity S-wave (km/s) = 5.46885 3.27440 4.50722
# Velocity P-wave (km/s) = 7.57336 6.23265 6.93548
#
# Compressibility (1/GPa) = 0.03404161
#
# Stress axis : x y z
#
# Youngs Moduli (GPa) = 46.62507 56.91880 84.66505
#
# Poissons Ratio (x) = -0.26284 0.56288
# Poissons Ratio (y) = -0.21531 0.53869
# Poissons Ratio (z) = 0.30998 0.36215
#
# Static dielectric constant tensor:
#      x y z
#    x 1.642100 0.000000 0.000000 
#    y 0.000000 1.590570 0.000000 
#    z 0.000000 0.000000 1.605860 
# 
# From -- ./inp_files/8275.got.cif
#   From: 2010.05.17/outbox.cif.g08.bks.cpg/sg72_5_cif.got.tgz:8275.got - 2010.06.03 17:03:01.
