data_PCOD9525851
_publ_section_title
;
Structure prediction by ZEFSAII (Michael W. Deem and Ramdas Pophale) SiO2 
 PCOD9525851
Probable space group: I B A M
;
_chemical_formula_sum "Si O2"
_cell_formula_units_Z 128
_cell_length_a 11.566852
_cell_length_b 26.577465
_cell_length_c 24.640715
_cell_angle_alpha 90.000000
_cell_angle_beta 90.000000
_cell_angle_gamma 90.000000
_cell_volume 7574.989571
_symmetry_space_group_name_H-M "I B A M"
_symmetry_group_IT_number 72
_symmetry_cell_setting 'orthorhombic'
loop_
_space_group_symop_operation_xyz
x,y,z
-x,-y,z
x,-y,1/2-z
-x,y,1/2-z
-x,-y,-z
x,y,-z
-x,y,1/2+z
x,-y,1/2+z
1/2+x,1/2+y,1/2+z
1/2-x,1/2-y,1/2+z
1/2+x,1/2-y,-z
1/2-x,1/2+y,-z
1/2-x,1/2-y,1/2-z
1/2+x,1/2+y,1/2-z
1/2-x,1/2+y,z
1/2+x,1/2-y,z
loop_
_atom_site_type_symbol
_atom_site_label
_atom_site_fract_x
_atom_site_fract_y
_atom_site_fract_z
Si Si1 0.847529 0.606909 0.937934
Si Si2 0.670552 0.449889 0.372595
Si Si3 0.425478 0.948719 0.560971
Si Si4 0.365768 0.439182 0.248049
Si Si5 0.458277 0.729225 0.563877
Si Si6 0.300258 0.221724 0.433774
Si Si7 0.020951 0.112160 0.063551
Si Si8 0.209223 0.934441 0.634716
O O1 0.788164 0.564421 0.902295
O O2 0.811444 0.662544 0.920585
O O3 0.983776 0.597132 0.937335
O O4 0.807265 0.600374 0.000000
O O5 0.676671 0.427020 0.312161
O O6 0.571382 0.423913 0.407729
O O7 0.652777 0.509676 0.369580
O O8 0.371779 0.950098 0.500000
O O9 0.334339 0.941533 0.608528
O O10 0.500000 0.000000 0.565773
O O11 0.361304 0.500000 0.250000
O O12 0.500000 0.423930 0.250000
O O13 0.299921 0.420490 0.301721
O O14 0.455577 0.743241 0.500000
O O15 0.579097 0.752893 0.585457
O O16 0.327428 0.740824 0.584977
O O17 0.475691 0.669136 0.567313
O O18 0.298906 0.225888 0.500000
O O19 0.137859 0.103631 0.097224
O O20 0.036087 0.100032 0.000000
#
# Coordination Sequence:
#
# PCOD9525851 Si02
#       8
#    16  16  16  16  16  16  16  16
#     4  10  19  32  52  74 102 140 172 203 257 322
#     4  11  19  32  52  72 101 138 174 212 253 303
#     4  10  20  33  48  71 108 145 173 204 252 314
#     4   9  18  33  49  69  97 135 173 218 258 293
#     4   9  18  31  47  71 102 133 168 213 260 318
#     4   9  17  31  50  71 100 136 170 209 261 318
#     4  11  21  30  47  78 107 130 168 215 260 315
#     4  11  21  33  50  73 105 141 178 214 252 298
#
# _framework density 16.897713
#
# number of rings (size 3 to 8) (size 9 to 14) (size 15 to 20)
#    0.000    2.000    3.750    1.125    0.000    3.000 
#    0.000    4.375    0.000    0.000    0.000    0.875 
#    3.750    0.000    0.000    0.000    0.000    0.000 
#
# Total GULP energy -356363.170019 kJ/mol
# GULP energy per Si atom -5568.174532 kJ/mol
# Density = 1.685925 g / cm^3
# Si number density = 16.897713 Si / 1000 Ang^3
#
#
#
# Elastic Constant Matrix: (Units=GPa)
#
#
# Indices 1 2 3 4 5 6 
#
# 1 92.8289 16.0818 33.4970 0.0000 0.0000 0.0000
# 2 16.0818 20.6983 6.7458 0.0000 0.0000 0.0000
# 3 33.4970 6.7458 88.3753 0.0000 0.0000 0.0000
# 4 0.0000 0.0000 0.0000 1.1557 0.0000 0.0000
# 5 0.0000 0.0000 0.0000 0.0000 5.0422 0.0000
# 6 0.0000 0.0000 0.0000 0.0000 0.0000 22.5553
#
#
#
# Elastic Compliance Matrix: (Units=1/GPa)
#
#
# Indices 1 2 3 4 5 6 
#
# 1 0.014071 -0.009429 -0.004614 0.000000 0.000000 0.000000
# 2 -0.009429 0.055864 -0.000690 0.000000 0.000000 0.000000
# 3 -0.004614 -0.000690 0.013117 0.000000 0.000000 0.000000
# 4 0.000000 0.000000 0.000000 0.865249 0.000000 0.000000
# 5 0.000000 0.000000 0.000000 0.000000 0.198326 0.000000
# 6 0.000000 0.000000 0.000000 0.000000 0.000000 0.044336
#
#
# Mechanical properties :
#
#
# Convention : Reuss Voigt Hill
#
# Bulk Modulus (GPa) = 18.66156 34.95018 26.80587
# Shear Modulus (GPa) = 4.03783 15.45584 9.74683
#
# Velocity S-wave (km/s) = 1.54750 3.02763 2.40430
# Velocity P-wave (km/s) = 3.77635 5.74024 4.85856
#
# Compressibility (1/GPa) = 0.05358608
#
# Stress axis : x y z
#
# Youngs Moduli (GPa) = 71.06948 17.90062 76.23836
#
# Poissons Ratio (x) = 0.16878 0.35173
# Poissons Ratio (y) = 0.67010 0.05263
# Poissons Ratio (z) = 0.32788 0.01236
#
# Static dielectric constant tensor:
#      x y z
#    x 1.628970 0.000000 0.000000 
#    y 0.000000 1.580550 0.000000 
#    z 0.000000 0.000000 1.570880 
# 
# From -- ./inp_files/43771.got.cif
#   From: 2010.05.17/outbox.cif.g08.bks.cpg/sg72_22_cif.got.tgz:43771.got - 2010.06.03 17:03:01.
