data_PCOD9525208
_publ_section_title
;
Structure prediction by ZEFSAII (Michael W. Deem and Ramdas Pophale) SiO2 
 PCOD9525208
Probable space group: I B A M
;
_chemical_formula_sum "Si O2"
_cell_formula_units_Z 80
_cell_length_a 12.517883
_cell_length_b 23.317272
_cell_length_c 14.945156
_cell_angle_alpha 90.000000
_cell_angle_beta 90.000000
_cell_angle_gamma 90.000000
_cell_volume 4362.235217
_symmetry_space_group_name_H-M "I B A M"
_symmetry_group_IT_number 72
_symmetry_cell_setting 'orthorhombic'
loop_
_space_group_symop_operation_xyz
x,y,z
-x,-y,z
x,-y,1/2-z
-x,y,1/2-z
-x,-y,-z
x,y,-z
-x,y,1/2+z
x,-y,1/2+z
1/2+x,1/2+y,1/2+z
1/2-x,1/2-y,1/2+z
1/2+x,1/2-y,-z
1/2-x,1/2+y,-z
1/2-x,1/2-y,1/2-z
1/2+x,1/2+y,1/2-z
1/2-x,1/2+y,z
1/2+x,1/2-y,z
loop_
_atom_site_type_symbol
_atom_site_label
_atom_site_fract_x
_atom_site_fract_y
_atom_site_fract_z
Si Si1 0.776770 0.263147 0.894137
Si Si2 0.079629 0.453053 0.098371
Si Si3 0.572214 0.864269 0.837721
Si Si4 0.244482 0.065543 0.259510
Si Si5 0.625687 0.319446 0.250283
O O1 0.870996 0.309681 0.879605
O O2 0.677833 0.290229 0.838120
O O3 0.815119 0.208507 0.836354
O O4 0.757684 0.253772 0.000000
O O5 0.186245 0.438231 0.150230
O O6 0.000000 0.500000 0.142636
O O7 0.008654 0.396231 0.097685
O O8 0.105179 0.474952 0.000000
O O9 0.500000 0.850131 0.750000
O O10 0.665723 0.909286 0.809323
O O11 0.153449 0.113191 0.254668
O O12 0.207728 0.000000 0.250000
O O13 0.500000 0.309101 0.250000
#
# Coordination Sequence:
#
# PCOD9525208 Si02
#       5
#    16  16  16  16  16
#     4  10  21  39  62  85 112 149 193 241 292 346
#     4  10  18  28  49  83 116 145 184 232 287 344
#     4   9  17  30  54  83 117 149 184 231 290 344
#     4  10  19  34  53  77 111 152 189 230 282 337
#     4  10  23  41  59  85 116 150 195 243 288 348
#
# _framework density 18.339220999999998
#
# number of rings (size 3 to 8) (size 9 to 14) (size 15 to 20)
#    0.000    2.200    2.000    1.200    0.000    3.600 
#    0.000    0.000    0.000    0.000    0.000    5.600 
#    0.000    0.000    0.000    0.000    0.000    0.000 
#
# Total GULP energy -222814.001068 kJ/mol
# GULP energy per Si atom -5570.350027 kJ/mol
# Density = 1.829748 g / cm^3
# Si number density = 18.339221 Si / 1000 Ang^3
#
#
#
# Elastic Constant Matrix: (Units=GPa)
#
#
# Indices 1 2 3 4 5 6 
#
# 1 89.3766 26.9826 30.4148 0.0000 0.0000 0.0000
# 2 26.9826 93.6808 25.3670 0.0001 0.0000 0.0000
# 3 30.4148 25.3670 121.2905 0.0001 0.0000 -0.0001
# 4 0.0000 0.0001 0.0001 20.6278 0.0000 -0.0001
# 5 0.0000 0.0000 0.0000 0.0000 -11.4806 0.0000
# 6 0.0000 0.0000 -0.0001 -0.0001 0.0000 15.8690
#
#
#
# Elastic Compliance Matrix: (Units=1/GPa)
#
#
# Indices 1 2 3 4 5 6 
#
# 1 0.012998 -0.003033 -0.002625 0.000000 0.000000 0.000000
# 2 -0.003033 0.012023 -0.001754 0.000000 0.000000 0.000000
# 3 -0.002625 -0.001754 0.009270 0.000000 0.000000 0.000000
# 4 0.000000 0.000000 0.000000 0.048478 0.000000 0.000000
# 5 0.000000 0.000000 0.000000 0.000000 -0.087103 0.000000
# 6 0.000000 0.000000 0.000000 0.000000 0.000000 0.063016
#
#
# Mechanical properties :
#
#
# Convention : Reuss Voigt Hill
#
# Bulk Modulus (GPa) = 51.36990 52.20852 51.78921
# Shear Modulus (GPa) = 62.50508 19.77548 41.14028
#
# Velocity S-wave (km/s) = 5.84438 3.28733 4.74148
# Velocity P-wave (km/s) = 8.57986 6.55277 7.63390
#
# Compressibility (1/GPa) = 0.01946665
#
# Stress axis : x y z
#
# Youngs Moduli (GPa) = 76.93786 83.17363 107.87789
#
# Poissons Ratio (x) = 0.25225 0.28317
# Poissons Ratio (y) = 0.23334 0.18922
# Poissons Ratio (z) = 0.20196 0.14589
#
# Static dielectric constant tensor:
#      x y z
#    x 1.608930 0.000000 0.000000 
#    y 0.000000 1.677440 0.000000 
#    z 0.000000 0.000000 1.665030 
# 
# From -- ./inp_files/20198.got.cif
#   From: 2010.05.17/outbox.cif.g08.bks.cpg/sg72_11_cif.got.tgz:20198.got - 2010.06.03 17:03:01.
