data_PCOD9525940
_publ_section_title
;
Structure prediction by ZEFSAII (Michael W. Deem and Ramdas Pophale) SiO2 
 PCOD9525940
Probable space group: I B A M
;
_chemical_formula_sum "Si O2"
_cell_formula_units_Z 88
_cell_length_a 31.930312
_cell_length_b 5.446530
_cell_length_c 19.647607
_cell_angle_alpha 90.000000
_cell_angle_beta 90.000000
_cell_angle_gamma 90.000000
_cell_volume 3416.903588
_symmetry_space_group_name_H-M "I B A M"
_symmetry_group_IT_number 72
_symmetry_cell_setting 'orthorhombic'
loop_
_space_group_symop_operation_xyz
x,y,z
-x,-y,z
x,-y,1/2-z
-x,y,1/2-z
-x,-y,-z
x,y,-z
-x,y,1/2+z
x,-y,1/2+z
1/2+x,1/2+y,1/2+z
1/2-x,1/2-y,1/2+z
1/2+x,1/2-y,-z
1/2-x,1/2+y,-z
1/2-x,1/2-y,1/2-z
1/2+x,1/2+y,1/2-z
1/2-x,1/2+y,z
1/2+x,1/2-y,z
loop_
_atom_site_type_symbol
_atom_site_label
_atom_site_fract_x
_atom_site_fract_y
_atom_site_fract_z
Si Si1 0.771622 0.892526 0.500000
Si Si2 0.568164 0.500000 0.750000
Si Si3 0.982175 0.253593 0.421485
Si Si4 0.070073 0.500000 0.250000
Si Si5 0.889030 0.599638 0.892704
Si Si6 0.637441 0.403263 0.635193
Si Si7 0.775836 0.184457 0.155313
O O1 0.765949 0.187091 0.500000
O O2 0.788076 0.826214 0.425360
O O3 0.544710 0.752350 0.747272
O O4 0.598119 0.461351 0.684602
O O5 0.997743 0.251344 0.500000
O O6 0.932433 0.296671 0.422721
O O7 0.000000 0.500000 0.388156
O O8 0.000000 0.000000 0.391645
O O9 0.100402 0.463944 0.185620
O O10 0.874539 0.326099 0.914073
O O11 0.856740 0.825290 0.898593
O O12 0.677112 0.331830 0.682575
O O13 0.748484 0.938924 0.169815
#
# Coordination Sequence:
#
# PCOD9525940 Si02
#       7
#     8   8  16   8  16  16  16
#     4   8  16  30  46  60  86 126 162 194 254 322
#     4   8  16  30  48  71 101 134 167 206 275 318
#     4  10  21  38  58  80 113 149 174 209 269 331
#     4   8  16  30  53  73 102 136 169 214 263 314
#     4  10  19  35  55  80 104 138 182 219 263 312
#     4  10  19  33  53  77 102 135 177 226 260 312
#     4  10  19  33  49  69  99 137 173 214 271 321
#
# _framework density 25.754314000000001
#
# number of rings (size 3 to 8) (size 9 to 14) (size 15 to 20)
#    0.000    2.545    0.000    2.182    0.000    0.000 
#    3.273    1.364    0.000    1.091    0.000    0.000 
#    0.000    0.000    0.000    0.000    0.000    0.000 
#
# Total GULP energy -245052.206604 kJ/mol
# GULP energy per Si atom -5569.368332 kJ/mol
# Density = 2.569570 g / cm^3
# Si number density = 25.754314 Si / 1000 Ang^3
#
#
#
# Elastic Constant Matrix: (Units=GPa)
#
#
# Indices 1 2 3 4 5 6 
#
# 1 122.4585 63.6487 -1.6126 0.0000 0.0000 0.0000
# 2 63.6487 313.1393 14.2180 0.0000 0.0000 0.0000
# 3 -1.6126 14.2180 60.4437 0.0000 0.0000 0.0000
# 4 0.0000 0.0000 0.0000 7.6301 0.0000 0.0000
# 5 0.0000 0.0000 0.0000 0.0000 -23.3439 0.0000
# 6 0.0000 0.0000 0.0000 0.0000 0.0000 34.1678
#
#
#
# Elastic Compliance Matrix: (Units=1/GPa)
#
#
# Indices 1 2 3 4 5 6 
#
# 1 0.009159 -0.001893 0.000690 0.000000 0.000000 0.000000
# 2 -0.001893 0.003619 -0.000902 0.000000 0.000000 0.000000
# 3 0.000690 -0.000902 0.016775 0.000000 0.000000 0.000000
# 4 0.000000 0.000000 0.000000 0.131060 0.000000 0.000000
# 5 0.000000 0.000000 0.000000 0.000000 -0.042838 0.000000
# 6 0.000000 0.000000 0.000000 0.000000 0.000000 0.029267
#
#
# Mechanical properties :
#
#
# Convention : Reuss Voigt Hill
#
# Bulk Modulus (GPa) = 39.45909 72.06108 55.76008
# Shear Modulus (GPa) = 31.30864 31.67661 31.49262
#
# Velocity S-wave (km/s) = 3.49042 3.51087 3.50066
# Velocity P-wave (km/s) = 5.62127 6.66903 6.16744
#
# Compressibility (1/GPa) = 0.02534271
#
# Stress axis : x y z
#
# Youngs Moduli (GPa) = 109.18220 276.30570 59.61300
#
# Poissons Ratio (x) = 0.52304 -0.04111
# Poissons Ratio (y) = 0.20668 0.05376
# Poissons Ratio (z) = -0.07530 0.24918
#
# Static dielectric constant tensor:
#      x y z
#    x 2.094360 0.000000 0.000000 
#    y 0.000000 2.283570 0.000000 
#    z 0.000000 0.000000 2.345000 
# 
# From -- ./inp_files/46163.got.cif
#   From: 2010.05.17/outbox.cif.g08.bks.cpg/sg72_24_cif.got.tgz:46163.got - 2010.06.03 17:03:01.
