data_PCOD9525371
_publ_section_title
;
Structure prediction by ZEFSAII (Michael W. Deem and Ramdas Pophale) SiO2 
 PCOD9525371
Probable space group: I B A M
;
_chemical_formula_sum "Si O2"
_cell_formula_units_Z 112
_cell_length_a 10.092898
_cell_length_b 33.181954
_cell_length_c 16.929283
_cell_angle_alpha 90.000000
_cell_angle_beta 90.000000
_cell_angle_gamma 90.000000
_cell_volume 5669.652042
_symmetry_space_group_name_H-M "I B A M"
_symmetry_group_IT_number 72
_symmetry_cell_setting 'orthorhombic'
loop_
_space_group_symop_operation_xyz
x,y,z
-x,-y,z
x,-y,1/2-z
-x,y,1/2-z
-x,-y,-z
x,y,-z
-x,y,1/2+z
x,-y,1/2+z
1/2+x,1/2+y,1/2+z
1/2-x,1/2-y,1/2+z
1/2+x,1/2-y,-z
1/2-x,1/2+y,-z
1/2-x,1/2-y,1/2-z
1/2+x,1/2+y,1/2-z
1/2-x,1/2+y,z
1/2+x,1/2-y,z
loop_
_atom_site_type_symbol
_atom_site_label
_atom_site_fract_x
_atom_site_fract_y
_atom_site_fract_z
Si Si1 0.044545 0.062794 0.339631
Si Si2 0.172088 0.996090 0.588340
Si Si3 0.412286 0.362965 0.594404
Si Si4 0.955271 0.540889 0.408937
Si Si5 0.606340 0.125723 0.596067
Si Si6 0.667402 0.273653 0.906441
Si Si7 0.956282 0.712998 0.659045
O O1 0.023641 0.108582 0.367141
O O2 0.000000 0.060076 0.250000
O O3 0.174985 0.035736 0.355809
O O4 0.940898 0.035586 0.388460
O O5 0.154819 0.012056 0.500000
O O6 0.300327 0.968354 0.587061
O O7 0.425765 0.366660 0.500000
O O8 0.262959 0.377088 0.616566
O O9 0.407989 0.315556 0.614810
O O10 0.009688 0.541169 0.500000
O O11 0.970093 0.585618 0.376758
O O12 0.000000 0.500000 0.367115
O O13 0.600579 0.127452 0.500000
O O14 0.549381 0.166557 0.631702
O O15 0.806899 0.271151 0.859766
O O16 0.566197 0.237781 0.889364
O O17 0.699940 0.276143 0.000000
O O18 0.000000 0.716277 0.750000
#
# Coordination Sequence:
#
# PCOD9525371 Si02
#       7
#    16  16  16  16  16  16  16
#     4  11  20  30  48  76 111 140 176 228 282 331
#     4  10  18  31  52  73 100 140 187 230 276 329
#     4   9  17  33  56  79 103 141 191 228 266 335
#     4   9  17  31  54  80 102 134 187 241 277 319
#     4   9  17  34  59  80 105 148 196 233 272 340
#     4  10  21  39  64  90 117 157 205 242 288 358
#     4  11  22  38  61  90 124 153 192 248 305 360
#
# _framework density 19.754300000000001
#
# number of rings (size 3 to 8) (size 9 to 14) (size 15 to 20)
#    0.000    2.143    1.429    5.143    0.000    0.571 
#    0.000    4.286    0.000    5.143    0.000    0.000 
#    0.000    0.000    0.000    0.000    0.000    0.000 
#
# Total GULP energy -311849.236936 kJ/mol
# GULP energy per Si atom -5568.736374 kJ/mol
# Density = 1.970934 g / cm^3
# Si number density = 19.754300 Si / 1000 Ang^3
#
#
#
# Elastic Constant Matrix: (Units=GPa)
#
#
# Indices 1 2 3 4 5 6 
#
# 1 35.2211 41.6048 2.0138 -0.0001 0.0000 0.0000
# 2 41.6048 133.7819 15.1755 -0.0001 0.0000 0.0000
# 3 2.0138 15.1755 49.6377 -0.0008 0.0000 0.0000
# 4 -0.0001 -0.0001 -0.0008 -9.1941 -0.0001 0.0000
# 5 0.0000 0.0000 0.0000 -0.0001 15.1509 0.0000
# 6 0.0000 0.0000 0.0000 0.0000 0.0000 33.8674
#
#
#
# Elastic Compliance Matrix: (Units=1/GPa)
#
#
# Indices 1 2 3 4 5 6 
#
# 1 0.045188 -0.014343 0.002552 -0.000001 0.000000 0.000000
# 2 -0.014343 0.012296 -0.003177 0.000000 0.000000 0.000000
# 3 0.002552 -0.003177 0.021014 -0.000002 0.000000 0.000000
# 4 -0.000001 0.000000 -0.000002 -0.108765 -0.000001 0.000000
# 5 0.000000 0.000000 0.000000 -0.000001 0.066003 0.000000
# 6 0.000000 0.000000 0.000000 0.000000 0.000000 0.029527
#
#
# Mechanical properties :
#
#
# Convention : Reuss Voigt Hill
#
# Bulk Modulus (GPa) = 20.59248 37.35876 28.97562
# Shear Modulus (GPa) = 44.88909 18.62126 31.75517
#
# Velocity S-wave (km/s) = 4.77211 3.07358 4.01372
# Velocity P-wave (km/s) = 6.38835 5.61682 6.01497
#
# Compressibility (1/GPa) = 0.04856141
#
# Stress axis : x y z
#
# Youngs Moduli (GPa) = 22.12965 81.32962 47.58770
#
# Poissons Ratio (x) = 1.16647 -0.12142
# Poissons Ratio (y) = 0.31740 0.15120
# Poissons Ratio (z) = -0.05647 0.25840
#
# Static dielectric constant tensor:
#      x y z
#    x 1.799390 0.000000 0.000000 
#    y 0.000000 1.735160 0.000000 
#    z 0.000000 0.000000 1.686240 
# 
# From -- ./inp_files/20696.got.cif
#   From: 2010.05.17/outbox.cif.g08.bks.cpg/sg72_11_cif.got.tgz:20696.got - 2010.06.03 17:03:01.
