data_PCOD9525673
_publ_section_title
;
Structure prediction by ZEFSAII (Michael W. Deem and Ramdas Pophale) SiO2 
 PCOD9525673
Probable space group: I B A M
;
_chemical_formula_sum "Si O2"
_cell_formula_units_Z 68
_cell_length_a 14.219478
_cell_length_b 10.857388
_cell_length_c 18.154732
_cell_angle_alpha 90.000000
_cell_angle_beta 90.000000
_cell_angle_gamma 90.000000
_cell_volume 2802.843531
_symmetry_space_group_name_H-M "I B A M"
_symmetry_group_IT_number 72
_symmetry_cell_setting 'orthorhombic'
loop_
_space_group_symop_operation_xyz
x,y,z
-x,-y,z
x,-y,1/2-z
-x,y,1/2-z
-x,-y,-z
x,y,-z
-x,y,1/2+z
x,-y,1/2+z
1/2+x,1/2+y,1/2+z
1/2-x,1/2-y,1/2+z
1/2+x,1/2-y,-z
1/2-x,1/2+y,-z
1/2-x,1/2-y,1/2-z
1/2+x,1/2+y,1/2-z
1/2-x,1/2+y,z
1/2+x,1/2-y,z
loop_
_atom_site_type_symbol
_atom_site_label
_atom_site_fract_x
_atom_site_fract_y
_atom_site_fract_z
Si Si1 0.153158 0.653878 0.820345
Si Si2 0.864668 0.390978 0.644425
Si Si3 0.500000 0.500000 0.250000
Si Si4 0.655514 0.624077 0.081390
Si Si5 0.874520 0.867613 0.865288
O O1 0.144670 0.643100 0.732020
O O2 0.102952 0.532764 0.854056
O O3 0.119405 0.780490 0.857091
O O4 0.264177 0.643946 0.841888
O O5 0.764058 0.395216 0.604017
O O6 0.908527 0.267257 0.609935
O O7 0.432596 0.412701 0.296040
O O8 0.615026 0.486249 0.082895
O O9 0.647700 0.678284 0.000000
#
# Coordination Sequence:
#
# PCOD9525673 Si02
#       5
#    16  16   4  16  16
#     4   9  17  32  53  76 100 126 166 226 281 315
#     4   9  17  30  50  75 100 127 168 223 270 313
#     4  12  20  32  54  74 104 152 180 210 248 296
#     4  10  19  31  50  77 107 133 163 216 279 323
#     4  10  19  30  48  75 103 135 176 207 250 313
#
# _framework density 24.261075000000002
#
# number of rings (size 3 to 8) (size 9 to 14) (size 15 to 20)
#    0.000    2.353    0.000    7.059    0.000    8.471 
#    0.000    0.588    0.000   11.294    0.000    1.647 
#    0.000    0.000    0.000    0.000    0.000    0.000 
#
# Total GULP energy -189667.931533 kJ/mol
# GULP energy per Si atom -5578.468575 kJ/mol
# Density = 2.420586 g / cm^3
# Si number density = 24.261075 Si / 1000 Ang^3
#
#
#
# Elastic Constant Matrix: (Units=GPa)
#
#
# Indices 1 2 3 4 5 6 
#
# 1 72.4526 1.4568 -4.8510 0.0000 0.0000 0.0000
# 2 1.4568 198.3736 24.9143 0.0000 0.0000 0.0000
# 3 -4.8510 24.9143 93.3715 0.0000 0.0000 0.0000
# 4 0.0000 0.0000 0.0000 3.5969 0.0000 0.0000
# 5 0.0000 0.0000 0.0000 0.0000 -10.7496 0.0000
# 6 0.0000 0.0000 0.0000 0.0000 0.0000 -0.4469
#
#
#
# Elastic Compliance Matrix: (Units=1/GPa)
#
#
# Indices 1 2 3 4 5 6 
#
# 1 0.013858 -0.000199 0.000773 0.000000 0.000000 0.000000
# 2 -0.000199 0.005219 -0.001403 0.000000 0.000000 0.000000
# 3 0.000773 -0.001403 0.011124 0.000000 0.000000 0.000000
# 4 0.000000 0.000000 0.000000 0.278017 0.000000 0.000000
# 5 0.000000 0.000000 0.000000 0.000000 -0.093026 0.000000
# 6 0.000000 0.000000 0.000000 0.000000 0.000000 -2.237785
#
#
# Mechanical properties :
#
#
# Convention : Reuss Voigt Hill
#
# Bulk Modulus (GPa) = 35.03410 45.24865 40.14137
# Shear Modulus (GPa) = -2.48580 21.32525 9.41972
#
# Velocity S-wave (km/s) = -1.01333 2.96799 1.97258
# Velocity P-wave (km/s) = 3.61976 5.51693 4.66579
#
# Compressibility (1/GPa) = 0.02854362
#
# Stress axis : x y z
#
# Youngs Moduli (GPa) = 72.16112 191.62085 89.89261
#
# Poissons Ratio (x) = 0.03811 -0.06949
# Poissons Ratio (y) = 0.01435 0.12610
# Poissons Ratio (z) = -0.05578 0.26881
#
# Static dielectric constant tensor:
#      x y z
#    x 1.961120 0.000000 0.000000 
#    y 0.000000 2.053780 0.000000 
#    z 0.000000 0.000000 1.937600 
# 
# From -- ./inp_files/31255.got.cif
#   From: 2010.05.17/outbox.cif.g08.bks.cpg/sg72_16_cif.got.tgz:31255.got - 2010.06.03 17:03:01.
