data_PCOD9525761
_publ_section_title
;
Structure prediction by ZEFSAII (Michael W. Deem and Ramdas Pophale) SiO2 
 PCOD9525761
Probable space group: I B A M
;
_chemical_formula_sum "Si O2"
_cell_formula_units_Z 96
_cell_length_a 10.277825
_cell_length_b 18.388508
_cell_length_c 26.125000
_cell_angle_alpha 90.000000
_cell_angle_beta 90.000000
_cell_angle_gamma 90.000000
_cell_volume 4937.464782
_symmetry_space_group_name_H-M "I B A M"
_symmetry_group_IT_number 72
_symmetry_cell_setting 'orthorhombic'
loop_
_space_group_symop_operation_xyz
x,y,z
-x,-y,z
x,-y,1/2-z
-x,y,1/2-z
-x,-y,-z
x,y,-z
-x,y,1/2+z
x,-y,1/2+z
1/2+x,1/2+y,1/2+z
1/2-x,1/2-y,1/2+z
1/2+x,1/2-y,-z
1/2-x,1/2+y,-z
1/2-x,1/2-y,1/2-z
1/2+x,1/2+y,1/2-z
1/2-x,1/2+y,z
1/2+x,1/2-y,z
loop_
_atom_site_type_symbol
_atom_site_label
_atom_site_fract_x
_atom_site_fract_y
_atom_site_fract_z
Si Si1 0.324979 0.309429 0.440887
Si Si2 0.959828 0.921199 0.559876
Si Si3 0.890206 0.407372 0.103157
Si Si4 0.679661 0.073650 0.101627
Si Si5 0.788634 0.286040 0.655042
Si Si6 0.557180 0.800261 0.195599
O O1 0.338954 0.286521 0.500000
O O2 0.455583 0.351934 0.422080
O O3 0.210744 0.368687 0.434296
O O4 0.280608 0.245856 0.402554
O O5 0.993309 0.923842 0.500000
O O6 0.805728 0.915419 0.566854
O O7 0.000000 0.000000 0.582718
O O8 0.840931 0.488787 0.113123
O O9 0.900744 0.364360 0.156896
O O10 0.036819 0.404678 0.080935
O O11 0.707390 0.126835 0.149631
O O12 0.677700 0.255019 0.691739
O O13 0.930384 0.261288 0.672785
O O14 0.500000 0.825598 0.250000
#
# Coordination Sequence:
#
# PCOD9525761 Si02
#       6
#    16  16  16  16  16  16
#     4  10  20  36  54  79 115 150 185 228 274 328
#     4  10  19  31  51  76 103 145 192 225 263 319
#     4   9  20  35  55  80 108 144 186 229 277 323
#     4  10  19  35  52  77 111 144 183 232 272 326
#     4  10  21  36  57  85 112 146 184 228 281 335
#     4  10  20  38  61  84 109 144 185 232 284 334
#
# _framework density 19.443176000000001
#
# number of rings (size 3 to 8) (size 9 to 14) (size 15 to 20)
#    0.000    2.167    1.667    1.500    0.000    1.333 
#    0.000   18.333    0.000    0.000    0.000    1.167 
#    0.000    0.000    0.000    0.000    0.000    0.000 
#
# Total GULP energy -267245.958870 kJ/mol
# GULP energy per Si atom -5567.624143 kJ/mol
# Density = 1.939892 g / cm^3
# Si number density = 19.443176 Si / 1000 Ang^3
#
#
#
# Elastic Constant Matrix: (Units=GPa)
#
#
# Indices 1 2 3 4 5 6 
#
# 1 92.3516 20.6366 4.1654 0.0000 0.0000 0.0000
# 2 20.6366 42.8316 2.8614 0.0000 0.0000 0.0000
# 3 4.1654 2.8614 56.4625 0.0000 0.0000 0.0000
# 4 0.0000 0.0000 0.0000 8.1510 0.0000 0.0000
# 5 0.0000 0.0000 0.0000 0.0000 31.4994 0.0000
# 6 0.0000 0.0000 0.0000 0.0000 0.0000 17.9013
#
#
#
# Elastic Compliance Matrix: (Units=1/GPa)
#
#
# Indices 1 2 3 4 5 6 
#
# 1 0.012155 -0.005816 -0.000602 0.000000 0.000000 0.000000
# 2 -0.005816 0.026210 -0.000899 0.000000 0.000000 0.000000
# 3 -0.000602 -0.000899 0.017801 0.000000 0.000000 0.000000
# 4 0.000000 0.000000 0.000000 0.122684 0.000000 0.000000
# 5 0.000000 0.000000 0.000000 0.000000 0.031747 0.000000
# 6 0.000000 0.000000 0.000000 0.000000 0.000000 0.055862
#
#
# Mechanical properties :
#
#
# Convention : Reuss Voigt Hill
#
# Bulk Modulus (GPa) = 24.07851 27.44141 25.75996
# Shear Modulus (GPa) = 16.95283 22.44250 19.69766
#
# Velocity S-wave (km/s) = 2.95603 3.40113 3.18636
# Velocity P-wave (km/s) = 4.90527 5.43763 5.17830
#
# Compressibility (1/GPa) = 0.04153080
#
# Stress axis : x y z
#
# Youngs Moduli (GPa) = 82.27076 38.15402 56.17714
#
# Poissons Ratio (x) = 0.22191 0.03382
# Poissons Ratio (y) = 0.47850 0.05051
# Poissons Ratio (z) = 0.04952 0.03431
#
# Static dielectric constant tensor:
#      x y z
#    x 1.707660 0.000000 0.000000 
#    y 0.000000 1.728410 0.000000 
#    z 0.000000 0.000000 1.701910 
# 
# From -- ./inp_files/43474.got.cif
#   From: 2010.05.17/outbox.cif.g08.bks.cpg/sg72_22_cif.got.tgz:43474.got - 2010.06.03 17:03:01.
