data_PCOD9525022
_publ_section_title
;
Structure prediction by ZEFSAII (Michael W. Deem and Ramdas Pophale) SiO2 
 PCOD9525022
Probable space group: I B A M
;
_chemical_formula_sum "Si O2"
_cell_formula_units_Z 96
_cell_length_a 24.161840
_cell_length_b 6.828075
_cell_length_c 24.015198
_cell_angle_alpha 90.000000
_cell_angle_beta 90.000000
_cell_angle_gamma 90.000000
_cell_volume 3961.999884
_symmetry_space_group_name_H-M "I B A M"
_symmetry_group_IT_number 72
_symmetry_cell_setting 'orthorhombic'
loop_
_space_group_symop_operation_xyz
x,y,z
-x,-y,z
x,-y,1/2-z
-x,y,1/2-z
-x,-y,-z
x,y,-z
-x,y,1/2+z
x,-y,1/2+z
1/2+x,1/2+y,1/2+z
1/2-x,1/2-y,1/2+z
1/2+x,1/2-y,-z
1/2-x,1/2+y,-z
1/2-x,1/2-y,1/2-z
1/2+x,1/2+y,1/2-z
1/2-x,1/2+y,z
1/2+x,1/2-y,z
loop_
_atom_site_type_symbol
_atom_site_label
_atom_site_fract_x
_atom_site_fract_y
_atom_site_fract_z
Si Si1 0.822426 0.362690 0.415962
Si Si2 0.405990 0.672659 0.380149
Si Si3 0.804342 0.187964 0.938740
Si Si4 0.457378 0.738103 0.500000
Si Si5 0.009116 0.732933 0.315597
Si Si6 0.122660 0.571346 0.313806
Si Si7 0.082853 0.309445 0.000000
O O1 0.823334 0.586880 0.437695
O O2 0.761296 0.294288 0.431250
O O3 0.825697 0.353549 0.348988
O O4 0.876903 0.278629 0.447002
O O5 0.343385 0.590035 0.391348
O O6 0.430259 0.669332 0.442563
O O7 0.462024 0.636021 0.344480
O O8 0.392546 0.879047 0.349522
O O9 0.814326 0.101188 0.000000
O O10 0.523667 0.700724 0.500000
O O11 0.440585 0.968743 0.500000
O O12 0.075481 0.736997 0.321875
O O13 0.000000 0.500000 0.331235
O O14 0.000000 0.749452 0.250000
O O15 0.127516 0.500000 0.250000
#
# Coordination Sequence:
#
# PCOD9525022 Si02
#       7
#    16  16  16   8  16  16   8
#     4  11  21  34  52  75 104 141 182 214 265 316
#     4  10  17  27  43  72 102 132 167 198 272 318
#     4  11  19  35  51  73 106 144 177 222 255 316
#     4  11  18  25  45  76 109 120 154 230 284 304
#     4   9  14  24  43  68 101 134 151 202 267 325
#     4  10  17  29  45  72 106 136 166 215 265 318
#     4  11  18  27  45  74 105 126 160 219 273 317
#
# _framework density 24.230187000000001
#
# number of rings (size 3 to 8) (size 9 to 14) (size 15 to 20)
#    0.000    1.667    9.167    1.000    4.667    0.000 
#    0.000    3.333    0.000    0.000    0.000    5.833 
#    0.000    1.333    0.000    0.000    0.000    0.000 
#
# Total GULP energy -267235.193823 kJ/mol
# GULP energy per Si atom -5567.399871 kJ/mol
# Density = 2.417504 g / cm^3
# Si number density = 24.230187 Si / 1000 Ang^3
#
#
#
# Elastic Constant Matrix: (Units=GPa)
#
#
# Indices 1 2 3 4 5 6 
#
# 1 189.4124 18.2352 82.8945 0.0000 0.0000 0.0000
# 2 18.2352 56.8992 7.3342 0.0000 0.0000 0.0000
# 3 82.8945 7.3342 157.4204 0.0000 0.0000 0.0000
# 4 0.0000 0.0000 0.0000 -10.1277 0.0000 0.0000
# 5 0.0000 0.0000 0.0000 0.0000 43.1100 0.0000
# 6 0.0000 0.0000 0.0000 0.0000 0.0000 30.1365
#
#
#
# Elastic Compliance Matrix: (Units=1/GPa)
#
#
# Indices 1 2 3 4 5 6 
#
# 1 0.007037 -0.001788 -0.003622 0.000000 0.000000 0.000000
# 2 -0.001788 0.018136 0.000097 0.000000 0.000000 0.000000
# 3 -0.003622 0.000097 0.008255 0.000000 0.000000 0.000000
# 4 0.000000 0.000000 0.000000 -0.098739 0.000000 0.000000
# 5 0.000000 0.000000 0.000000 0.000000 0.023196 0.000000
# 6 0.000000 0.000000 0.000000 0.000000 0.000000 0.033182
#
#
# Mechanical properties :
#
#
# Convention : Reuss Voigt Hill
#
# Bulk Modulus (GPa) = 43.85910 68.96220 56.41065
# Shear Modulus (GPa) = 537.93951 32.30832 285.12391
#
# Velocity S-wave (km/s) = 14.91624 3.65552 10.85949
# Velocity P-wave (km/s) = 17.74258 6.80736 13.43762
#
# Compressibility (1/GPa) = 0.02280029
#
# Stress axis : x y z
#
# Youngs Moduli (GPa) = 142.10910 55.14024 121.13486
#
# Poissons Ratio (x) = 0.09861 0.43877
# Poissons Ratio (y) = 0.25413 -0.01172
# Poissons Ratio (z) = 0.51474 -0.00533
#
# Static dielectric constant tensor:
#      x y z
#    x 2.014490 0.000000 0.000000 
#    y 0.000000 2.130590 0.000000 
#    z 0.000000 0.000000 1.957200 
# 
# From -- ./inp_files/45726.got.cif
#   From: 2010.05.17/outbox.cif.g08.bks.cpg/sg72_23_cif.got.tgz:45726.got - 2010.06.03 17:03:01.
