data_PCOD9525014
_publ_section_title
;
Structure prediction by ZEFSAII (Michael W. Deem and Ramdas Pophale) SiO2 
 PCOD9525014
Probable space group: I B A M
;
_chemical_formula_sum "Si O2"
_cell_formula_units_Z 80
_cell_length_a 26.766198
_cell_length_b 17.848480
_cell_length_c 8.709774
_cell_angle_alpha 90.000000
_cell_angle_beta 90.000000
_cell_angle_gamma 90.000000
_cell_volume 4160.972153
_symmetry_space_group_name_H-M "I B A M"
_symmetry_group_IT_number 72
_symmetry_cell_setting 'orthorhombic'
loop_
_space_group_symop_operation_xyz
x,y,z
-x,-y,z
x,-y,1/2-z
-x,y,1/2-z
-x,-y,-z
x,y,-z
-x,y,1/2+z
x,-y,1/2+z
1/2+x,1/2+y,1/2+z
1/2-x,1/2-y,1/2+z
1/2+x,1/2-y,-z
1/2-x,1/2+y,-z
1/2-x,1/2-y,1/2-z
1/2+x,1/2+y,1/2-z
1/2-x,1/2+y,z
1/2+x,1/2-y,z
loop_
_atom_site_type_symbol
_atom_site_label
_atom_site_fract_x
_atom_site_fract_y
_atom_site_fract_z
Si Si1 0.660856 0.375301 0.684396
Si Si2 0.948862 0.122582 0.184089
Si Si3 0.234894 0.577510 0.817075
Si Si4 0.449573 0.207968 0.683014
Si Si5 0.846051 0.301163 0.184736
O O1 0.664543 0.382333 0.500000
O O2 0.606091 0.406188 0.731227
O O3 0.708565 0.412186 0.760418
O O4 0.662517 0.286358 0.722632
O O5 0.948230 0.208675 0.242614
O O6 0.000000 0.088523 0.250000
O O7 0.951531 0.122068 0.000000
O O8 0.214720 0.500000 0.750000
O O9 0.200447 0.647427 0.768787
O O10 0.234608 0.574242 0.000000
O O11 0.500000 0.171703 0.750000
O O12 0.452602 0.213830 0.500000
O O13 0.397325 0.172858 0.735840
O O14 0.852235 0.305217 0.000000
#
# Coordination Sequence:
#
# PCOD9525014 Si02
#       5
#    16  16  16  16  16
#     4   9  18  33  53  77 105 133 168 211 252 297
#     4   9  16  27  45  72 105 136 165 204 250 298
#     4  11  23  37  54  74 101 136 172 211 257 305
#     4  10  17  26  45  73 104 135 165 203 249 298
#     4   9  19  35  53  76 104 134 169 211 254 300
#
# _framework density 19.226275999999999
#
# number of rings (size 3 to 8) (size 9 to 14) (size 15 to 20)
#    0.000    2.400    0.000    6.000    0.000    5.600 
#    0.000    0.000    0.000    1.200    0.000    8.400 
#    0.000    0.000    0.000    0.000    0.000    0.000 
#
# Total GULP energy -223107.006528 kJ/mol
# GULP energy per Si atom -5577.675163 kJ/mol
# Density = 1.918252 g / cm^3
# Si number density = 19.226276 Si / 1000 Ang^3
#
#
#
# Elastic Constant Matrix: (Units=GPa)
#
#
# Indices 1 2 3 4 5 6 
#
# 1 140.3467 36.1146 35.0482 0.0000 0.0000 0.0000
# 2 36.1146 56.1633 16.2824 0.0000 0.0000 0.0000
# 3 35.0482 16.2824 36.0330 0.0000 0.0000 0.0000
# 4 0.0000 0.0000 0.0000 15.7871 0.0000 0.0000
# 5 0.0000 0.0000 0.0000 0.0000 38.3755 0.0000
# 6 0.0000 0.0000 0.0000 0.0000 0.0000 -15.5896
#
#
#
# Elastic Compliance Matrix: (Units=1/GPa)
#
#
# Indices 1 2 3 4 5 6 
#
# 1 0.010222 -0.004247 -0.008023 0.000000 0.000000 0.000000
# 2 -0.004247 0.022254 -0.005925 0.000000 0.000000 0.000000
# 3 -0.008023 -0.005925 0.038234 0.000000 0.000000 0.000000
# 4 0.000000 0.000000 0.000000 0.063343 0.000000 0.000000
# 5 0.000000 0.000000 0.000000 0.000000 0.026058 0.000000
# 6 0.000000 0.000000 0.000000 0.000000 0.000000 -0.064145
#
#
# Mechanical properties :
#
#
# Convention : Reuss Voigt Hill
#
# Bulk Modulus (GPa) = 29.13863 45.27037 37.20450
# Shear Modulus (GPa) = 34.77171 17.38778 26.07975
#
# Velocity S-wave (km/s) = 4.25732 3.01055 3.68702
# Velocity P-wave (km/s) = 6.27335 5.97342 6.12522
#
# Compressibility (1/GPa) = 0.03431870
#
# Stress axis : x y z
#
# Youngs Moduli (GPa) = 97.83184 44.93609 26.15493
#
# Poissons Ratio (x) = 0.19083 0.20985
# Poissons Ratio (y) = 0.41547 0.15497
# Poissons Ratio (z) = 0.78493 0.26626
#
# Static dielectric constant tensor:
#      x y z
#    x 1.726370 0.000000 0.000000 
#    y 0.000000 1.659540 0.000000 
#    z 0.000000 0.000000 1.638740 
# 
# From -- ./inp_files/4789.got.cif
#   From: 2010.05.17/outbox.cif.g08.bks.cpg/sg72_3_cif.got.tgz:4789.got - 2010.06.03 17:03:01.
