data_PCOD9525044
_publ_section_title
;
Structure prediction by ZEFSAII (Michael W. Deem and Ramdas Pophale) SiO2 
 PCOD9525044
Probable space group: I B A M
;
_chemical_formula_sum "Si O2"
_cell_formula_units_Z 128
_cell_length_a 19.649163
_cell_length_b 23.608790
_cell_length_c 14.961851
_cell_angle_alpha 90.000000
_cell_angle_beta 90.000000
_cell_angle_gamma 90.000000
_cell_volume 6940.697391
_symmetry_space_group_name_H-M "I B A M"
_symmetry_group_IT_number 72
_symmetry_cell_setting 'orthorhombic'
loop_
_space_group_symop_operation_xyz
x,y,z
-x,-y,z
x,-y,1/2-z
-x,y,1/2-z
-x,-y,-z
x,y,-z
-x,y,1/2+z
x,-y,1/2+z
1/2+x,1/2+y,1/2+z
1/2-x,1/2-y,1/2+z
1/2+x,1/2-y,-z
1/2-x,1/2+y,-z
1/2-x,1/2-y,1/2-z
1/2+x,1/2+y,1/2-z
1/2-x,1/2+y,z
1/2+x,1/2-y,z
loop_
_atom_site_type_symbol
_atom_site_label
_atom_site_fract_x
_atom_site_fract_y
_atom_site_fract_z
Si Si1 0.679856 0.743035 0.645740
Si Si2 0.895059 0.702670 0.601403
Si Si3 0.188301 0.805667 0.844944
Si Si4 0.476913 0.387940 0.391034
Si Si5 0.838934 0.950501 0.109890
Si Si6 0.767843 0.363512 0.897856
Si Si7 0.874172 0.076033 0.108569
Si Si8 0.025662 0.241608 0.893498
O O1 0.733014 0.793871 0.632910
O O2 0.678156 0.720793 0.747057
O O3 0.714192 0.688637 0.598457
O O4 0.603941 0.757836 0.618494
O O5 0.906402 0.682168 0.500000
O O6 0.858547 0.764040 0.596841
O O7 0.837663 0.661346 0.643609
O O8 0.967937 0.716535 0.644533
O O9 0.164626 0.869519 0.853861
O O10 0.474299 0.387116 0.500000
O O11 0.407739 0.418145 0.361205
O O12 0.546206 0.419649 0.366015
O O13 0.481060 0.322937 0.359582
O O14 0.773275 0.915801 0.143060
O O15 0.843592 0.015855 0.135956
O O16 0.838272 0.948485 0.000000
O O17 0.783849 0.378931 0.000000
O O18 0.871277 0.079567 0.000000
O O19 0.012447 0.238952 0.000000
#
# Coordination Sequence:
#
# PCOD9525044 Si02
#       8
#    16  16  16  16  16  16  16  16
#     4  10  20  31  45  63  91 120 151 188 228 279
#     4   9  17  29  46  65  87 113 150 193 232 275
#     4  10  20  32  43  64  91 121 152 187 231 268
#     4   9  15  25  41  65  91 114 148 186 216 260
#     4   9  16  26  44  68  90 119 156 189 224 267
#     4   9  16  29  47  65  84 113 152 194 230 267
#     4  10  18  29  45  65  92 123 157 191 223 268
#     4  10  17  28  47  69  88 116 152 187 230 277
#
# _framework density 18.441951
#
# number of rings (size 3 to 8) (size 9 to 14) (size 15 to 20)
#    0.000    2.500    2.500    1.125    0.000    3.500 
#    0.000    0.625    0.000    0.000    3.250    0.875 
#    0.000    5.000    0.000    9.000    0.000   12.750 
#
# Total GULP energy -356857.074059 kJ/mol
# GULP energy per Si atom -5575.891782 kJ/mol
# Density = 1.839998 g / cm^3
# Si number density = 18.441951 Si / 1000 Ang^3
#
#
#
# Elastic Constant Matrix: (Units=GPa)
#
#
# Indices 1 2 3 4 5 6 
#
# 1 128.5207 54.6458 -10.3936 0.0000 0.0000 0.0000
# 2 54.6458 86.2580 -10.9844 0.0000 0.0000 0.0000
# 3 -10.3936 -10.9844 26.4037 0.0000 0.0000 0.0000
# 4 0.0000 0.0000 0.0000 4.7746 0.0000 0.0000
# 5 0.0000 0.0000 0.0000 0.0000 -403.1531 0.0000
# 6 0.0000 0.0000 0.0000 0.0000 0.0000 24.3824
#
#
#
# Elastic Compliance Matrix: (Units=1/GPa)
#
#
# Indices 1 2 3 4 5 6 
#
# 1 0.010703 -0.006593 0.001470 0.000000 0.000000 0.000000
# 2 -0.006593 0.016303 0.004187 0.000000 0.000000 0.000000
# 3 0.001470 0.004187 0.040194 0.000000 0.000000 0.000000
# 4 0.000000 0.000000 0.000000 0.209442 0.000000 0.000000
# 5 0.000000 0.000000 0.000000 0.000000 -0.002480 0.000000
# 6 0.000000 0.000000 0.000000 0.000000 0.000000 0.041013
#
#
# Mechanical properties :
#
#
# Convention : Reuss Voigt Hill
#
# Bulk Modulus (GPa) = 15.30729 34.19090 24.74909
# Shear Modulus (GPa) = 14.75694 -60.93825 -23.09066
#
# Velocity S-wave (km/s) = 2.83182 -5.75456 -3.54230
# Velocity P-wave (km/s) = 4.36011 5.05701 1.81147
#
# Compressibility (1/GPa) = 0.06532836
#
# Stress axis : x y z
#
# Youngs Moduli (GPa) = 93.42981 61.33700 24.87929
#
# Poissons Ratio (x) = 0.40442 -0.03658
# Poissons Ratio (y) = 0.61602 -0.10417
# Poissons Ratio (z) = -0.13736 -0.25682
#
# Static dielectric constant tensor:
#      x y z
#    x 1.675220 0.000000 0.000000 
#    y 0.000000 1.615170 0.000000 
#    z 0.000000 0.000000 1.742940 
# 
# From -- ./inp_files/39372.got.cif
#   From: 2010.05.17/outbox.cif.g08.bks.cpg/sg72_20_cif.got.tgz:39372.got - 2010.06.03 17:03:01.
