data_PCOD9525042
_publ_section_title
;
Structure prediction by ZEFSAII (Michael W. Deem and Ramdas Pophale) SiO2 
 PCOD9525042
Probable space group: I B A M
;
_chemical_formula_sum "Si O2"
_cell_formula_units_Z 112
_cell_length_a 10.112223
_cell_length_b 25.640109
_cell_length_c 24.968361
_cell_angle_alpha 90.000000
_cell_angle_beta 90.000000
_cell_angle_gamma 90.000000
_cell_volume 6473.759186
_symmetry_space_group_name_H-M "I B A M"
_symmetry_group_IT_number 72
_symmetry_cell_setting 'orthorhombic'
loop_
_space_group_symop_operation_xyz
x,y,z
-x,-y,z
x,-y,1/2-z
-x,y,1/2-z
-x,-y,-z
x,y,-z
-x,y,1/2+z
x,-y,1/2+z
1/2+x,1/2+y,1/2+z
1/2-x,1/2-y,1/2+z
1/2+x,1/2-y,-z
1/2-x,1/2+y,-z
1/2-x,1/2-y,1/2-z
1/2+x,1/2+y,1/2-z
1/2-x,1/2+y,z
1/2+x,1/2-y,z
loop_
_atom_site_type_symbol
_atom_site_label
_atom_site_fract_x
_atom_site_fract_y
_atom_site_fract_z
Si Si1 0.349317 0.601783 0.132592
Si Si2 0.851410 0.101168 0.246349
Si Si3 0.162356 0.211457 0.401396
Si Si4 0.136812 0.798335 0.561110
Si Si5 0.128743 0.775725 0.221336
Si Si6 0.660925 0.503446 0.561330
Si Si7 0.328409 0.594897 0.630885
O O1 0.296952 0.597265 0.193438
O O2 0.323267 0.656842 0.103673
O O3 0.303285 0.554164 0.095783
O O4 0.510479 0.598380 0.134967
O O5 0.866080 0.162552 0.233089
O O6 0.783193 0.081678 0.191743
O O7 0.000000 0.077784 0.250000
O O8 0.273841 0.247506 0.427790
O O9 0.131270 0.232326 0.341767
O O10 0.210366 0.151744 0.391690
O O11 0.020743 0.211322 0.431272
O O12 0.157938 0.816292 0.500000
O O13 0.250000 0.750000 0.250000
O O14 0.000000 0.754122 0.250000
O O15 0.500000 0.500000 0.560823
O O16 0.704908 0.507035 0.500000
O O17 0.707569 0.451086 0.590674
#
# Coordination Sequence:
#
# PCOD9525042 Si02
#       7
#    16  16  16  16  16  16  16
#     4   9  16  27  42  62  88 117 151 192 234 278
#     4   8  14  25  39  58  84 113 145 183 233 283
#     4  10  20  33  48  70  97 126 160 197 239 284
#     4  11  21  33  48  68  96 130 164 198 237 281
#     4  10  17  28  46  67  92 122 154 191 236 285
#     4   9  16  25  38  58  85 118 153 187 227 276
#     4   8  16  27  42  63  88 117 149 190 236 280
#
# _framework density 17.300612999999998
#
# number of rings (size 3 to 8) (size 9 to 14) (size 15 to 20)
#    0.000    2.714    0.000    5.143    0.000    4.571 
#    0.000    2.857    0.000    0.000    0.000    1.000 
#    0.000    3.429    0.000    7.000    0.000   11.429 
#
# Total GULP energy -311769.278842 kJ/mol
# GULP energy per Si atom -5567.308551 kJ/mol
# Density = 1.726124 g / cm^3
# Si number density = 17.300613 Si / 1000 Ang^3
#
#
#
# Elastic Constant Matrix: (Units=GPa)
#
#
# Indices 1 2 3 4 5 6 
#
# 1 28.8609 14.6359 16.1729 0.0000 0.0000 0.0000
# 2 14.6359 73.0602 46.2730 0.0000 0.0000 0.0000
# 3 16.1729 46.2730 153.1252 0.0000 0.0000 0.0000
# 4 0.0000 0.0000 0.0000 25.6838 0.0000 0.0000
# 5 0.0000 0.0000 0.0000 0.0000 15.6468 0.0000
# 6 0.0000 0.0000 0.0000 0.0000 0.0000 11.9410
#
#
#
# Elastic Compliance Matrix: (Units=1/GPa)
#
#
# Indices 1 2 3 4 5 6 
#
# 1 0.039148 -0.006460 -0.002183 0.000000 0.000000 0.000000
# 2 -0.006460 0.017993 -0.004755 0.000000 0.000000 0.000000
# 3 -0.002183 -0.004755 0.008198 0.000000 0.000000 0.000000
# 4 0.000000 0.000000 0.000000 0.038935 0.000000 0.000000
# 5 0.000000 0.000000 0.000000 0.000000 0.063911 0.000000
# 6 0.000000 0.000000 0.000000 0.000000 0.000000 0.083745
#
#
# Mechanical properties :
#
#
# Convention : Reuss Voigt Hill
#
# Bulk Modulus (GPa) = 25.94451 45.46777 35.70614
# Shear Modulus (GPa) = 17.14832 22.51861 19.83347
#
# Velocity S-wave (km/s) = 3.15174 3.61169 3.38953
# Velocity P-wave (km/s) = 5.31728 6.61290 6.00017
#
# Compressibility (1/GPa) = 0.03854381
#
# Stress axis : x y z
#
# Youngs Moduli (GPa) = 25.54409 55.57692 121.98010
#
# Poissons Ratio (x) = 0.35903 0.26624
# Poissons Ratio (y) = 0.16502 0.58002
# Poissons Ratio (z) = 0.05575 0.26427
#
# Static dielectric constant tensor:
#      x y z
#    x 1.501320 0.000000 0.000000 
#    y 0.000000 1.562540 0.000000 
#    z 0.000000 0.000000 1.626480 
# 
# From -- ./inp_files/43629.got.cif
#   From: 2010.05.17/outbox.cif.g08.bks.cpg/sg72_22_cif.got.tgz:43629.got - 2010.06.03 17:03:01.
