data_PCOD9525307
_publ_section_title
;
Structure prediction by ZEFSAII (Michael W. Deem and Ramdas Pophale) SiO2 
 PCOD9525307
Probable space group: I B A M
;
_chemical_formula_sum "Si O2"
_cell_formula_units_Z 116
_cell_length_a 26.753813
_cell_length_b 27.217540
_cell_length_c 9.058847
_cell_angle_alpha 90.000000
_cell_angle_beta 90.000000
_cell_angle_gamma 90.000000
_cell_volume 6596.407574
_symmetry_space_group_name_H-M "I B A M"
_symmetry_group_IT_number 72
_symmetry_cell_setting 'orthorhombic'
loop_
_space_group_symop_operation_xyz
x,y,z
-x,-y,z
x,-y,1/2-z
-x,y,1/2-z
-x,-y,-z
x,y,-z
-x,y,1/2+z
x,-y,1/2+z
1/2+x,1/2+y,1/2+z
1/2-x,1/2-y,1/2+z
1/2+x,1/2-y,-z
1/2-x,1/2+y,-z
1/2-x,1/2-y,1/2-z
1/2+x,1/2+y,1/2-z
1/2-x,1/2+y,z
1/2+x,1/2-y,z
loop_
_atom_site_type_symbol
_atom_site_label
_atom_site_fract_x
_atom_site_fract_y
_atom_site_fract_z
Si Si1 0.500000 0.000000 0.250000
Si Si2 0.921833 0.579703 0.835818
Si Si3 0.298732 0.550259 0.675576
Si Si4 0.188363 0.585382 0.326503
Si Si5 0.212631 0.316364 0.672585
Si Si6 0.446838 0.179143 0.824024
Si Si7 0.364200 0.751367 0.823351
Si Si8 0.826400 0.850772 0.825640
O O1 0.537570 0.963153 0.332166
O O2 0.865479 0.560082 0.811145
O O3 0.934170 0.622997 0.722247
O O4 0.922456 0.602639 0.000000
O O5 0.316108 0.500000 0.750000
O O6 0.303334 0.547320 0.500000
O O7 0.239347 0.557287 0.711949
O O8 0.326457 0.598675 0.736124
O O9 0.193632 0.599639 0.500000
O O10 0.186273 0.633496 0.225440
O O11 0.203589 0.306456 0.500000
O O12 0.188652 0.274257 0.771672
O O13 0.270891 0.327921 0.694392
O O14 0.500000 0.190577 0.750000
O O15 0.405740 0.216171 0.757750
O O16 0.448819 0.183099 0.000000
O O17 0.363677 0.693459 0.784728
O O18 0.368725 0.755872 0.000000
O O19 0.832021 0.861421 0.000000
#
# Coordination Sequence:
#
# PCOD9525307 Si02
#       8
#     4  16  16  16  16  16  16  16
#     4  12  26  36  60  78  98 132 186 244 296 332
#     4  11  23  40  56  74 102 133 176 232 289 336
#     4  10  20  34  53  76 106 144 182 223 267 318
#     4   9  19  34  51  70  98 137 177 221 273 326
#     4  10  18  30  50  78 107 138 176 216 263 322
#     4  12  25  41  61  81 104 137 178 225 279 336
#     4  11  21  35  55  79 109 142 175 218 273 327
#     4   9  20  35  52  77 110 144 179 220 263 319
#
# _framework density 17.585329000000002
#
# number of rings (size 3 to 8) (size 9 to 14) (size 15 to 20)
#    0.000    1.655    2.069    3.103    0.966    2.759 
#    0.000    0.000    0.000    0.000    0.000    0.000 
#    0.000    0.552    0.000    5.793    0.000    2.483 
#
# Total GULP energy -323628.663000 kJ/mol
# GULP energy per Si atom -5579.804534 kJ/mol
# Density = 1.754530 g / cm^3
# Si number density = 17.585329 Si / 1000 Ang^3
#
#
#
# Elastic Constant Matrix: (Units=GPa)
#
#
# Indices 1 2 3 4 5 6 
#
# 1 34.4828 28.0588 21.9417 0.0000 0.0000 0.0000
# 2 28.0588 128.4131 61.1898 0.0000 0.0000 0.0000
# 3 21.9417 61.1898 83.8274 0.0000 0.0000 0.0000
# 4 0.0000 0.0000 0.0000 24.0582 0.0000 0.0000
# 5 0.0000 0.0000 0.0000 0.0000 11.8343 0.0000
# 6 0.0000 0.0000 0.0000 0.0000 0.0000 26.4838
#
#
#
# Elastic Compliance Matrix: (Units=1/GPa)
#
#
# Indices 1 2 3 4 5 6 
#
# 1 0.037026 -0.005324 -0.005805 0.000000 0.000000 0.000000
# 2 -0.005324 0.012706 -0.007881 0.000000 0.000000 0.000000
# 3 -0.005805 -0.007881 0.019202 0.000000 0.000000 0.000000
# 4 0.000000 0.000000 0.000000 0.041566 0.000000 0.000000
# 5 0.000000 0.000000 0.000000 0.000000 0.084500 0.000000
# 6 0.000000 0.000000 0.000000 0.000000 0.000000 0.037759
#
#
# Mechanical properties :
#
#
# Convention : Reuss Voigt Hill
#
# Bulk Modulus (GPa) = 32.34901 52.12265 42.23583
# Shear Modulus (GPa) = 17.78824 21.51079 19.64951
#
# Velocity S-wave (km/s) = 3.18392 3.50126 3.34635
# Velocity P-wave (km/s) = 5.65260 6.78596 6.24504
#
# Compressibility (1/GPa) = 0.03091285
#
# Stress axis : x y z
#
# Youngs Moduli (GPa) = 27.00791 78.70154 52.07862
#
# Poissons Ratio (x) = 0.41902 0.30232
# Poissons Ratio (y) = 0.14380 0.41045
# Poissons Ratio (z) = 0.15679 0.62027
#
# Static dielectric constant tensor:
#      x y z
#    x 1.624140 0.000000 0.000000 
#    y 0.000000 1.605090 0.000000 
#    z 0.000000 0.000000 1.598700 
# 
# From -- ./inp_files/9398.got.cif
#   From: 2010.05.17/outbox.cif.g08.bks.cpg/sg72_5_cif.got.tgz:9398.got - 2010.06.03 17:03:01.
