data_PCOD9525267
_publ_section_title
;
Structure prediction by ZEFSAII (Michael W. Deem and Ramdas Pophale) SiO2 
 PCOD9525267
Probable space group: I B A M
;
_chemical_formula_sum "Si O2"
_cell_formula_units_Z 96
_cell_length_a 24.862719
_cell_length_b 30.783072
_cell_length_c 8.681835
_cell_angle_alpha 90.000000
_cell_angle_beta 90.000000
_cell_angle_gamma 90.000000
_cell_volume 6644.649963
_symmetry_space_group_name_H-M "I B A M"
_symmetry_group_IT_number 72
_symmetry_cell_setting 'orthorhombic'
loop_
_space_group_symop_operation_xyz
x,y,z
-x,-y,z
x,-y,1/2-z
-x,y,1/2-z
-x,-y,-z
x,y,-z
-x,y,1/2+z
x,-y,1/2+z
1/2+x,1/2+y,1/2+z
1/2-x,1/2-y,1/2+z
1/2+x,1/2-y,-z
1/2-x,1/2+y,-z
1/2-x,1/2-y,1/2-z
1/2+x,1/2+y,1/2-z
1/2-x,1/2+y,z
1/2+x,1/2-y,z
loop_
_atom_site_type_symbol
_atom_site_label
_atom_site_fract_x
_atom_site_fract_y
_atom_site_fract_z
Si Si1 0.058412 0.548221 0.183610
Si Si2 0.221689 0.684813 0.313642
Si Si3 0.328586 0.277143 0.315846
Si Si4 0.138525 0.618039 0.319712
Si Si5 0.444235 0.821967 0.676963
Si Si6 0.443381 0.717364 0.324347
O O1 0.067579 0.500000 0.250000
O O2 0.107246 0.579504 0.233994
O O3 0.000000 0.562518 0.250000
O O4 0.054463 0.546675 0.000000
O O5 0.222081 0.685066 0.500000
O O6 0.281188 0.692920 0.250638
O O7 0.187282 0.727729 0.263417
O O8 0.194885 0.639047 0.264897
O O9 0.326872 0.277227 0.500000
O O10 0.387472 0.291872 0.261441
O O11 0.141974 0.607286 0.500000
O O12 0.100099 0.659315 0.290239
O O13 0.500000 0.836658 0.750000
O O14 0.437007 0.837262 0.500000
O O15 0.444849 0.770020 0.674078
O O16 0.500000 0.702980 0.250000
O O17 0.440549 0.297918 0.000000
#
# Coordination Sequence:
#
# PCOD9525267 Si02
#       6
#    16  16  16  16  16  16
#     4  11  22  37  53  69  88 113 144 180 228 277
#     4   9  19  31  44  61  83 112 142 176 217 261
#     4  10  18  30  45  61  83 111 143 179 219 261
#     4  11  20  32  47  64  85 108 140 178 218 264
#     4  10  19  28  39  56  78 104 134 173 216 257
#     4  10  19  29  42  58  80 107 140 177 217 258
#
# _framework density 14.447714
#
# number of rings (size 3 to 8) (size 9 to 14) (size 15 to 20)
#    0.000    1.833    1.667    4.500    0.000    3.333 
#    0.000    0.000    0.000    0.000    0.000    0.000 
#    0.000    0.000    0.000    0.000    0.000    0.833 
#
# Total GULP energy -267484.687049 kJ/mol
# GULP energy per Si atom -5572.597647 kJ/mol
# Density = 1.441483 g / cm^3
# Si number density = 14.447714 Si / 1000 Ang^3
#
#
#
# Elastic Constant Matrix: (Units=GPa)
#
#
# Indices 1 2 3 4 5 6 
#
# 1 114.8099 37.2207 30.0393 0.0000 0.0000 0.0000
# 2 37.2207 53.1139 24.8272 0.0000 0.0000 0.0000
# 3 30.0393 24.8272 59.1054 0.0000 0.0000 0.0000
# 4 0.0000 0.0000 0.0000 14.4716 0.0000 0.0000
# 5 0.0000 0.0000 0.0000 0.0000 23.3620 0.0000
# 6 0.0000 0.0000 0.0000 0.0000 0.0000 29.0168
#
#
#
# Elastic Compliance Matrix: (Units=1/GPa)
#
#
# Indices 1 2 3 4 5 6 
#
# 1 0.011715 -0.006752 -0.003118 0.000000 0.000000 0.000000
# 2 -0.006752 0.027319 -0.008044 0.000000 0.000000 0.000000
# 3 -0.003118 -0.008044 0.021882 0.000000 0.000000 0.000000
# 4 0.000000 0.000000 0.000000 0.069101 0.000000 0.000000
# 5 0.000000 0.000000 0.000000 0.000000 0.042804 0.000000
# 6 0.000000 0.000000 0.000000 0.000000 0.000000 0.034463
#
#
# Mechanical properties :
#
#
# Convention : Reuss Voigt Hill
#
# Bulk Modulus (GPa) = 39.85794 45.68929 42.77361
# Shear Modulus (GPa) = 19.88275 22.36620 21.12448
#
# Velocity S-wave (km/s) = 3.71372 3.93883 3.82793
# Velocity P-wave (km/s) = 6.78503 7.23729 7.01481
#
# Compressibility (1/GPa) = 0.02508911
#
# Stress axis : x y z
#
# Youngs Moduli (GPa) = 85.36261 36.60449 45.69930
#
# Poissons Ratio (x) = 0.24716 0.14247
# Poissons Ratio (y) = 0.57638 0.36759
# Poissons Ratio (z) = 0.26613 0.29444
#
# Static dielectric constant tensor:
#      x y z
#    x 1.515450 0.000000 0.000000 
#    y 0.000000 1.476970 0.000000 
#    z 0.000000 0.000000 1.499720 
# 
# From -- ./inp_files/7099.got.cif
#   From: 2010.05.17/outbox.cif.g08.bks.cpg/sg72_4_cif.got.tgz:7099.got - 2010.06.03 17:03:01.
