data_PCOD9525050
_publ_section_title
;
Structure prediction by ZEFSAII (Michael W. Deem and Ramdas Pophale) SiO2 
 PCOD9525050
Probable space group: I B A M
;
_chemical_formula_sum "Si O2"
_cell_formula_units_Z 116
_cell_length_a 25.358310
_cell_length_b 18.154772
_cell_length_c 14.683165
_cell_angle_alpha 90.000000
_cell_angle_beta 90.000000
_cell_angle_gamma 90.000000
_cell_volume 6759.752342
_symmetry_space_group_name_H-M "I B A M"
_symmetry_group_IT_number 72
_symmetry_cell_setting 'orthorhombic'
loop_
_space_group_symop_operation_xyz
x,y,z
-x,-y,z
x,-y,1/2-z
-x,y,1/2-z
-x,-y,-z
x,y,-z
-x,y,1/2+z
x,-y,1/2+z
1/2+x,1/2+y,1/2+z
1/2-x,1/2-y,1/2+z
1/2+x,1/2-y,-z
1/2-x,1/2+y,-z
1/2-x,1/2-y,1/2-z
1/2+x,1/2+y,1/2-z
1/2-x,1/2+y,z
1/2+x,1/2-y,z
loop_
_atom_site_type_symbol
_atom_site_label
_atom_site_fract_x
_atom_site_fract_y
_atom_site_fract_z
Si Si1 0.000000 0.500000 0.750000
Si Si2 0.590840 0.741724 0.395880
Si Si3 0.574115 0.763040 0.108628
Si Si4 0.327395 0.416569 0.759117
Si Si5 0.014900 0.621276 0.392362
Si Si6 0.443505 0.630925 0.739783
Si Si7 0.204394 0.195850 0.106825
Si Si8 0.691125 0.716121 0.890971
O O1 0.026726 0.555754 0.677570
O O2 0.582245 0.717824 0.500000
O O3 0.559677 0.816959 0.382834
O O4 0.569310 0.680825 0.327709
O O5 0.653541 0.748726 0.381986
O O6 0.539957 0.835600 0.132314
O O7 0.551830 0.691189 0.159018
O O8 0.636484 0.759199 0.131738
O O9 0.568761 0.755138 0.000000
O O10 0.308484 0.500000 0.750000
O O11 0.390969 0.416496 0.772351
O O12 0.310015 0.373858 0.667982
O O13 0.308183 0.362070 0.839559
O O14 0.012164 0.599626 0.500000
O O15 0.500000 0.593157 0.750000
O O16 0.258160 0.235716 0.134557
O O17 0.208511 0.176813 0.000000
O O18 0.691793 0.705067 0.000000
#
# Coordination Sequence:
#
# PCOD9525050 Si02
#       8
#     4  16  16  16  16  16  16  16
#     4  12  22  32  44  66 100 136 164 188 248 324
#     4   9  17  30  51  76  96 118 160 213 248 277
#     4   9  17  30  51  76  96 118 160 213 248 277
#     4  10  21  33  48  75 111 139 159 198 253 301
#     4  10  19  31  49  70  97 127 159 204 253 294
#     4  10  17  28  48  73  99 131 167 196 233 285
#     4   9  18  34  58  79  96 128 173 212 245 289
#     4   9  18  34  58  79  96 128 173 212 245 289
#
# _framework density 17.160392000000002
#
# number of rings (size 3 to 8) (size 9 to 14) (size 15 to 20)
#    0.000    2.483    1.379    1.448    0.000    0.828 
#    0.000    0.000    6.069    0.000    0.000    7.724 
#    0.000    0.000    0.000    0.000    0.000    0.000 
#
# Total GULP energy -322945.842733 kJ/mol
# GULP energy per Si atom -5568.031771 kJ/mol
# Density = 1.712133 g / cm^3
# Si number density = 17.160392 Si / 1000 Ang^3
#
#
#
# Elastic Constant Matrix: (Units=GPa)
#
#
# Indices 1 2 3 4 5 6 
#
# 1 103.2241 28.9046 18.8932 0.0000 0.0000 0.0000
# 2 28.9046 76.0629 32.8813 0.0000 0.0000 0.0000
# 3 18.8932 32.8813 55.9342 0.0000 0.0000 0.0000
# 4 0.0000 0.0000 0.0000 7.9017 0.0000 0.0000
# 5 0.0000 0.0000 0.0000 0.0000 12.4195 0.0000
# 6 0.0000 0.0000 0.0000 0.0000 0.0000 -27.4259
#
#
#
# Elastic Compliance Matrix: (Units=1/GPa)
#
#
# Indices 1 2 3 4 5 6 
#
# 1 0.010958 -0.003438 -0.001680 0.000000 0.000000 0.000000
# 2 -0.003438 0.018705 -0.009835 0.000000 0.000000 0.000000
# 3 -0.001680 -0.009835 0.024227 0.000000 0.000000 0.000000
# 4 0.000000 0.000000 0.000000 0.126556 0.000000 0.000000
# 5 0.000000 0.000000 0.000000 0.000000 0.080518 0.000000
# 6 0.000000 0.000000 0.000000 0.000000 0.000000 -0.036462
#
#
# Mechanical properties :
#
#
# Convention : Reuss Voigt Hill
#
# Bulk Modulus (GPa) = 41.69385 44.06439 42.87912
# Shear Modulus (GPa) = 19.05474 8.88186 13.96830
#
# Velocity S-wave (km/s) = 3.33587 2.27750 2.85614
# Velocity P-wave (km/s) = 6.25992 5.71400 5.99318
#
# Compressibility (1/GPa) = 0.02398435
#
# Stress axis : x y z
#
# Youngs Moduli (GPa) = 91.25890 53.46233 41.27608
#
# Poissons Ratio (x) = 0.18378 0.06936
# Poissons Ratio (y) = 0.31371 0.40593
# Poissons Ratio (z) = 0.15336 0.52578
#
# Static dielectric constant tensor:
#      x y z
#    x 1.613950 0.000000 0.000000 
#    y 0.000000 1.542640 0.000000 
#    z 0.000000 0.000000 1.610790 
# 
# From -- ./inp_files/25399.got.cif
#   From: 2010.05.17/outbox.cif.g08.bks.cpg/sg72_13_cif.got.tgz:25399.got - 2010.06.03 17:03:01.
