data_PCOD9525993
_publ_section_title
;
Structure prediction by ZEFSAII (Michael W. Deem and Ramdas Pophale) SiO2 
 PCOD9525993
Probable space group: I B A M
;
_chemical_formula_sum "Si O2"
_cell_formula_units_Z 96
_cell_length_a 20.339220
_cell_length_b 30.429968
_cell_length_c 8.768528
_cell_angle_alpha 90.000000
_cell_angle_beta 90.000000
_cell_angle_gamma 90.000000
_cell_volume 5427.033254
_symmetry_space_group_name_H-M "I B A M"
_symmetry_group_IT_number 72
_symmetry_cell_setting 'orthorhombic'
loop_
_space_group_symop_operation_xyz
x,y,z
-x,-y,z
x,-y,1/2-z
-x,y,1/2-z
-x,-y,-z
x,y,-z
-x,y,1/2+z
x,-y,1/2+z
1/2+x,1/2+y,1/2+z
1/2-x,1/2-y,1/2+z
1/2+x,1/2-y,-z
1/2-x,1/2+y,-z
1/2-x,1/2-y,1/2-z
1/2+x,1/2+y,1/2-z
1/2-x,1/2+y,z
1/2+x,1/2-y,z
loop_
_atom_site_type_symbol
_atom_site_label
_atom_site_fract_x
_atom_site_fract_y
_atom_site_fract_z
Si Si1 0.788294 0.791884 0.184204
Si Si2 0.788538 0.950995 0.682763
Si Si3 0.565826 0.450522 0.317750
Si Si4 0.930516 0.765850 0.182853
Si Si5 0.798368 0.375918 0.182892
Si Si6 0.070159 0.662386 0.317333
O O1 0.750000 0.750000 0.250000
O O2 0.864482 0.790494 0.234003
O O3 0.749822 0.835770 0.228430
O O4 0.787589 0.788647 0.000000
O O5 0.783811 0.953074 0.500000
O O6 0.861894 0.932346 0.720903
O O7 0.733131 0.919992 0.751418
O O8 0.784036 0.000000 0.750000
O O9 0.567273 0.500000 0.250000
O O10 0.500000 0.428836 0.250000
O O11 0.559596 0.452805 0.500000
O O12 0.921425 0.714171 0.223605
O O13 0.000000 0.780965 0.250000
O O14 0.934720 0.768453 0.000000
O O15 0.869741 0.364689 0.248688
O O16 0.801122 0.377807 0.000000
O O17 0.069858 0.659191 0.500000
O O18 0.000000 0.648451 0.250000
#
# Coordination Sequence:
#
# PCOD9525993 Si02
#       6
#    16  16  16  16  16  16
#     4  10  20  34  52  77 108 141 178 220 266 317
#     4  10  21  37  56  79 108 142 183 229 279 328
#     4   9  16  27  47  73  99 130 169 214 263 314
#     4   9  18  32  50  74 105 143 182 222 266 315
#     4  11  22  35  55  82 111 144 183 225 274 327
#     4  10  19  33  54  79 109 141 180 225 269 321
#
# _framework density 17.689222999999998
#
# number of rings (size 3 to 8) (size 9 to 14) (size 15 to 20)
#    0.000    2.167    1.667    2.500    0.000    4.000 
#    0.000    0.833    0.000    4.500    0.000    3.500 
#    0.000    0.000    0.000    0.000    0.000    0.000 
#
# Total GULP energy -267790.463760 kJ/mol
# GULP energy per Si atom -5578.967995 kJ/mol
# Density = 1.764896 g / cm^3
# Si number density = 17.689223 Si / 1000 Ang^3
#
#
#
# Elastic Constant Matrix: (Units=GPa)
#
#
# Indices 1 2 3 4 5 6 
#
# 1 190.1105 58.8535 49.7421 0.0000 0.0000 0.0000
# 2 58.8535 60.4537 25.6224 0.0000 0.0000 0.0000
# 3 49.7421 25.6224 45.1874 0.0000 0.0000 0.0000
# 4 0.0000 0.0000 0.0000 16.9014 0.0000 0.0000
# 5 0.0000 0.0000 0.0000 0.0000 23.0726 0.0000
# 6 0.0000 0.0000 0.0000 0.0000 0.0000 25.9945
#
#
#
# Elastic Compliance Matrix: (Units=1/GPa)
#
#
# Indices 1 2 3 4 5 6 
#
# 1 0.008703 -0.005808 -0.006287 0.000000 0.000000 0.000000
# 2 -0.005808 0.025651 -0.008151 0.000000 0.000000 0.000000
# 3 -0.006287 -0.008151 0.033673 0.000000 0.000000 0.000000
# 4 0.000000 0.000000 0.000000 0.059167 0.000000 0.000000
# 5 0.000000 0.000000 0.000000 0.000000 0.043342 0.000000
# 6 0.000000 0.000000 0.000000 0.000000 0.000000 0.038470
#
#
# Mechanical properties :
#
#
# Convention : Reuss Voigt Hill
#
# Bulk Modulus (GPa) = 36.31860 62.68750 49.50305
# Shear Modulus (GPa) = 19.32931 23.96261 21.64596
#
# Velocity S-wave (km/s) = 3.30921 3.68454 3.50191
# Velocity P-wave (km/s) = 5.93104 7.32232 6.66309
#
# Compressibility (1/GPa) = 0.02753410
#
# Stress axis : x y z
#
# Youngs Moduli (GPa) = 114.90114 38.98539 29.69768
#
# Poissons Ratio (x) = 0.22643 0.18671
# Poissons Ratio (y) = 0.66736 0.24207
# Poissons Ratio (z) = 0.72239 0.31777
#
# Static dielectric constant tensor:
#      x y z
#    x 1.623540 0.000000 0.000000 
#    y 0.000000 1.581130 0.000000 
#    z 0.000000 0.000000 1.610130 
# 
# From -- ./inp_files/5938.got.cif
#   From: 2010.05.17/outbox.cif.g08.bks.cpg/sg72_3_cif.got.tgz:5938.got - 2010.06.03 17:03:01.
