data_PCOD9525319
_publ_section_title
;
Structure prediction by ZEFSAII (Michael W. Deem and Ramdas Pophale) SiO2 
 PCOD9525319
Probable space group: I B A M
;
_chemical_formula_sum "Si O2"
_cell_formula_units_Z 116
_cell_length_a 12.814036
_cell_length_b 24.862990
_cell_length_c 15.032755
_cell_angle_alpha 90.000000
_cell_angle_beta 90.000000
_cell_angle_gamma 90.000000
_cell_volume 4789.364321
_symmetry_space_group_name_H-M "I B A M"
_symmetry_group_IT_number 72
_symmetry_cell_setting 'orthorhombic'
loop_
_space_group_symop_operation_xyz
x,y,z
-x,-y,z
x,-y,1/2-z
-x,y,1/2-z
-x,-y,-z
x,y,-z
-x,y,1/2+z
x,-y,1/2+z
1/2+x,1/2+y,1/2+z
1/2-x,1/2-y,1/2+z
1/2+x,1/2-y,-z
1/2-x,1/2+y,-z
1/2-x,1/2-y,1/2-z
1/2+x,1/2+y,1/2-z
1/2-x,1/2+y,z
1/2+x,1/2-y,z
loop_
_atom_site_type_symbol
_atom_site_label
_atom_site_fract_x
_atom_site_fract_y
_atom_site_fract_z
Si Si1 0.543586 0.343902 0.892621
Si Si2 0.739746 0.722473 0.609046
Si Si3 0.192163 0.840907 0.108623
Si Si4 0.601964 0.467134 0.106796
Si Si5 0.914935 0.643308 0.400103
Si Si6 0.000000 0.500000 0.750000
Si Si7 0.875861 0.588716 0.894340
Si Si8 0.666724 0.031913 0.640417
O O1 0.630988 0.302829 0.859329
O O2 0.426100 0.340275 0.857323
O O3 0.581872 0.404535 0.878460
O O4 0.537699 0.336134 0.000000
O O5 0.739929 0.718370 0.500000
O O6 0.754133 0.784557 0.630916
O O7 0.838128 0.687018 0.642267
O O8 0.265344 0.889604 0.141175
O O9 0.184729 0.844907 0.000000
O O10 0.500000 0.500000 0.135480
O O11 0.712667 0.480993 0.149740
O O12 0.615209 0.477060 0.000000
O O13 0.936794 0.664199 0.500000
O O14 0.848091 0.587855 0.409446
O O15 0.026896 0.624993 0.363084
O O16 0.091126 0.542707 0.777283
O O17 0.887555 0.523478 0.893255
O O18 0.873130 0.599611 0.000000
#
# Coordination Sequence:
#
# PCOD9525319 Si02
#       8
#    16  16  16  16  16   4  16  16
#     4   9  16  27  41  65 101 138 172 201 245 312
#     4   9  17  27  42  68 106 147 175 199 251 331
#     4   9  18  28  42  71 113 147 171 208 258 328
#     4  10  19  32  56  85 111 139 172 219 280 346
#     4  10  18  30  51  76 103 139 176 217 272 338
#     4  12  28  40  52  76 108 152 196 248 296 322
#     4  10  19  30  50  77 105 138 175 221 277 332
#     4  12  21  38  53  75 111 140 188 234 281 335
#
# _framework density 24.220333
#
# number of rings (size 3 to 8) (size 9 to 14) (size 15 to 20)
#    0.000    2.069    2.759    2.069    1.931    3.310 
#    0.000    0.345    0.000    0.000    0.000    0.966 
#    0.000    0.000    0.000    0.000    0.000    0.000 
#
# Total GULP energy -323349.939595 kJ/mol
# GULP energy per Si atom -5574.998959 kJ/mol
# Density = 2.416521 g / cm^3
# Si number density = 24.220333 Si / 1000 Ang^3
#
#
#
# Elastic Constant Matrix: (Units=GPa)
#
#
# Indices 1 2 3 4 5 6 
#
# 1 194.1487 34.5654 -2.5405 0.0000 0.0000 0.0000
# 2 34.5654 40.9144 -1.9016 0.0000 0.0000 0.0000
# 3 -2.5405 -1.9016 21.0704 0.0000 0.0000 0.0000
# 4 0.0000 0.0000 0.0000 4.0898 0.0000 0.0000
# 5 0.0000 0.0000 0.0000 0.0000 7.0254 0.0000
# 6 0.0000 0.0000 0.0000 0.0000 0.0000 37.6723
#
#
#
# Elastic Compliance Matrix: (Units=1/GPa)
#
#
# Indices 1 2 3 4 5 6 
#
# 1 0.006064 -0.005111 0.000270 0.000000 0.000000 0.000000
# 2 -0.005111 0.028851 0.001988 0.000000 0.000000 0.000000
# 3 0.000270 0.001988 0.047672 0.000000 0.000000 0.000000
# 4 0.000000 0.000000 0.000000 0.244513 0.000000 0.000000
# 5 0.000000 0.000000 0.000000 0.000000 0.142341 0.000000
# 6 0.000000 0.000000 0.000000 0.000000 0.000000 0.026545
#
#
# Mechanical properties :
#
#
# Convention : Reuss Voigt Hill
#
# Bulk Modulus (GPa) = 13.00709 35.15335 24.08022
# Shear Modulus (GPa) = 9.48194 24.82484 17.15339
#
# Velocity S-wave (km/s) = 1.98075 3.20497 2.66413
# Velocity P-wave (km/s) = 3.25778 5.31425 4.40763
#
# Compressibility (1/GPa) = 0.07688112
#
# Stress axis : x y z
#
# Youngs Moduli (GPa) = 164.90549 34.66067 20.97675
#
# Poissons Ratio (x) = 0.17713 -0.00566
# Poissons Ratio (y) = 0.84275 -0.04169
# Poissons Ratio (z) = -0.04451 -0.06889
#
# Static dielectric constant tensor:
#      x y z
#    x 1.944420 0.000000 0.000000 
#    y 0.000000 1.869100 0.000000 
#    z 0.000000 0.000000 4.799120 
# 
# From -- ./inp_files/29714.got.cif
#   From: 2010.05.17/outbox.cif.g08.bks.cpg/sg72_15_cif.got.tgz:29714.got - 2010.06.03 17:03:01.
