data_PCOD9525490
_publ_section_title
;
Structure prediction by ZEFSAII (Michael W. Deem and Ramdas Pophale) SiO2 
 PCOD9525490
Probable space group: I B A M
;
_chemical_formula_sum "Si O2"
_cell_formula_units_Z 80
_cell_length_a 9.065503
_cell_length_b 27.668445
_cell_length_c 14.423296
_cell_angle_alpha 90.000000
_cell_angle_beta 90.000000
_cell_angle_gamma 90.000000
_cell_volume 3617.771842
_symmetry_space_group_name_H-M "I B A M"
_symmetry_group_IT_number 72
_symmetry_cell_setting 'orthorhombic'
loop_
_space_group_symop_operation_xyz
x,y,z
-x,-y,z
x,-y,1/2-z
-x,y,1/2-z
-x,-y,-z
x,y,-z
-x,y,1/2+z
x,-y,1/2+z
1/2+x,1/2+y,1/2+z
1/2-x,1/2-y,1/2+z
1/2+x,1/2-y,-z
1/2-x,1/2+y,-z
1/2-x,1/2-y,1/2-z
1/2+x,1/2+y,1/2-z
1/2-x,1/2+y,z
1/2+x,1/2-y,z
loop_
_atom_site_type_symbol
_atom_site_label
_atom_site_fract_x
_atom_site_fract_y
_atom_site_fract_z
Si Si1 0.786532 0.271150 0.108748
Si Si2 0.652902 0.913857 0.713756
Si Si3 0.605505 0.638306 0.664019
Si Si4 0.939416 0.950684 0.356299
Si Si5 0.905258 0.685527 0.887377
O O1 0.665143 0.313440 0.117550
O O2 0.724414 0.220982 0.147352
O O3 0.940586 0.291273 0.144841
O O4 0.811085 0.262088 0.000000
O O5 0.500000 0.935603 0.750000
O O6 0.752905 0.891401 0.796766
O O7 0.763740 0.947598 0.655313
O O8 0.612137 0.867666 0.651722
O O9 0.500000 0.652185 0.750000
O O10 0.507754 0.599485 0.606911
O O11 0.000000 0.950712 0.250000
O O12 0.000000 0.000000 0.398206
O O13 0.904365 0.684046 0.000000
#
# Coordination Sequence:
#
# PCOD9525490 Si02
#       5
#    16  16  16  16  16
#     4  10  21  36  51  72 107 149 187 217 264 321
#     4  10  18  33  55  80 108 134 181 222 271 313
#     4   9  19  33  52  78 106 137 174 225 271 315
#     4   8  17  34  54  78 110 133 168 222 268 324
#     4  10  22  35  51  76 109 147 185 220 263 323
#
# _framework density 22.113057000000001
#
# number of rings (size 3 to 8) (size 9 to 14) (size 15 to 20)
#    0.000    3.000    2.000    0.000    5.600    1.600 
#    0.000    8.000    0.000    2.400    0.000    2.800 
#    0.000    0.800    0.000    0.000    0.000    0.000 
#
# Total GULP energy -223251.499162 kJ/mol
# GULP energy per Si atom -5581.287479 kJ/mol
# Density = 2.206273 g / cm^3
# Si number density = 22.113057 Si / 1000 Ang^3
#
#
#
# Elastic Constant Matrix: (Units=GPa)
#
#
# Indices 1 2 3 4 5 6 
#
# 1 164.4112 45.2138 18.8963 0.0000 0.0000 0.0000
# 2 45.2138 89.0189 7.9926 0.0000 0.0000 0.0000
# 3 18.8963 7.9926 50.2015 0.0002 0.0000 0.0000
# 4 0.0000 0.0000 0.0002 -136.8988 -0.0001 -0.0001
# 5 0.0000 0.0000 0.0000 -0.0001 11.8782 0.0000
# 6 0.0000 0.0000 0.0000 -0.0001 0.0000 30.2353
#
#
#
# Elastic Compliance Matrix: (Units=1/GPa)
#
#
# Indices 1 2 3 4 5 6 
#
# 1 0.007299 -0.003511 -0.002189 0.000000 0.000000 0.000000
# 2 -0.003511 0.013085 -0.000762 0.000000 0.000000 0.000000
# 3 -0.002189 -0.000762 0.020865 0.000000 0.000000 0.000000
# 4 0.000000 0.000000 0.000000 -0.007305 0.000000 0.000000
# 5 0.000000 0.000000 0.000000 0.000000 0.084188 0.000000
# 6 0.000000 0.000000 0.000000 0.000000 0.000000 0.033074
#
#
# Mechanical properties :
#
#
# Convention : Reuss Voigt Hill
#
# Bulk Modulus (GPa) = 35.30219 49.75968 42.53093
# Shear Modulus (GPa) = 28.80660 -3.52180 12.64240
#
# Velocity S-wave (km/s) = 3.61320 -1.26336 2.39365
# Velocity P-wave (km/s) = 5.77980 4.51920 5.18793
#
# Compressibility (1/GPa) = 0.02832686
#
# Stress axis : x y z
#
# Youngs Moduli (GPa) = 136.99808 76.42216 47.92758
#
# Poissons Ratio (x) = 0.26831 0.10489
# Poissons Ratio (y) = 0.48099 0.03651
# Poissons Ratio (z) = 0.29983 0.05821
#
# Static dielectric constant tensor:
#      x y z
#    x 1.843080 0.000000 0.000000 
#    y 0.000000 1.852110 0.000000 
#    z 0.000000 0.000000 1.849340 
# 
# From -- ./inp_files/28312.got.cif
#   From: 2010.05.17/outbox.cif.g08.bks.cpg/sg72_15_cif.got.tgz:28312.got - 2010.06.03 17:03:01.
