data_PCOD9525087
_publ_section_title
;
Structure prediction by ZEFSAII (Michael W. Deem and Ramdas Pophale) SiO2 
 PCOD9525087
Probable space group: I B A M
;
_chemical_formula_sum "Si O2"
_cell_formula_units_Z 88
_cell_length_a 17.205027
_cell_length_b 23.476871
_cell_length_c 14.586461
_cell_angle_alpha 90.000000
_cell_angle_beta 90.000000
_cell_angle_gamma 90.000000
_cell_volume 5891.766236
_symmetry_space_group_name_H-M "I B A M"
_symmetry_group_IT_number 72
_symmetry_cell_setting 'orthorhombic'
loop_
_space_group_symop_operation_xyz
x,y,z
-x,-y,z
x,-y,1/2-z
-x,y,1/2-z
-x,-y,-z
x,y,-z
-x,y,1/2+z
x,-y,1/2+z
1/2+x,1/2+y,1/2+z
1/2-x,1/2-y,1/2+z
1/2+x,1/2-y,-z
1/2-x,1/2+y,-z
1/2-x,1/2-y,1/2-z
1/2+x,1/2+y,1/2-z
1/2-x,1/2+y,z
1/2+x,1/2-y,z
loop_
_atom_site_type_symbol
_atom_site_label
_atom_site_fract_x
_atom_site_fract_y
_atom_site_fract_z
Si Si1 0.470030 0.237087 0.351893
Si Si2 0.642206 0.063418 0.000000
Si Si3 0.268578 0.341882 0.000000
Si Si4 0.785563 0.250766 0.351767
Si Si5 0.385077 0.065976 0.000000
Si Si6 0.422476 0.715630 0.500000
Si Si7 0.487220 0.103169 0.640604
Si Si8 0.703330 0.817968 0.000000
O O1 0.500000 0.242983 0.250000
O O2 0.378479 0.248532 0.354046
O O3 0.520746 0.278492 0.414265
O O4 0.485540 0.171122 0.379071
O O5 0.721441 0.099556 0.000000
O O6 0.590089 0.079703 0.089882
O O7 0.652514 0.995845 0.000000
O O8 0.241691 0.305742 0.910602
O O9 0.362136 0.336625 0.000000
O O10 0.750000 0.250000 0.250000
O O11 0.752453 0.197973 0.410079
O O12 0.441567 0.074145 0.912631
O O13 0.326269 0.118357 0.000000
O O14 0.367858 0.772442 0.500000
O O15 0.500000 0.095368 0.750000
#
# Coordination Sequence:
#
# PCOD9525087 Si02
#       8
#    16   8   8  16   8   8  16   8
#     4  11  18  29  50  74  96 128 160 195 247 298
#     4  11  21  36  47  67 102 138 174 209 242 283
#     4  10  20  32  47  70  97 130 165 202 250 293
#     4  10  20  32  50  71 100 128 158 202 254 305
#     4  11  22  33  49  69 100 136 177 208 234 289
#     4  10  17  31  49  67 100 124 163 202 245 294
#     4  10  20  32  49  71 100 135 175 202 234 290
#     4  10  20  32  46  72  97 128 162 201 248 290
#
# _framework density 14.936097999999999
#
# number of rings (size 3 to 8) (size 9 to 14) (size 15 to 20)
#    0.000    1.818    3.636    4.909    2.545    1.455 
#    0.000    0.000    0.000    0.000    0.000    2.545 
#    0.000    1.455    0.000    0.000    0.000    0.000 
#
# Total GULP energy -245290.109179 kJ/mol
# GULP energy per Si atom -5574.775209 kJ/mol
# Density = 1.490210 g / cm^3
# Si number density = 14.936098 Si / 1000 Ang^3
#
#
#
# Elastic Constant Matrix: (Units=GPa)
#
#
# Indices 1 2 3 4 5 6 
#
# 1 103.6338 41.7683 39.6302 0.0000 0.0000 0.0000
# 2 41.7683 90.1198 32.7019 0.0000 0.0000 0.0000
# 3 39.6302 32.7019 102.5666 0.0000 0.0000 0.0000
# 4 0.0000 0.0000 0.0000 16.2646 0.0000 0.0000
# 5 0.0000 0.0000 0.0000 0.0000 22.0002 0.0000
# 6 0.0000 0.0000 0.0000 0.0000 0.0000 15.9868
#
#
#
# Elastic Compliance Matrix: (Units=1/GPa)
#
#
# Indices 1 2 3 4 5 6 
#
# 1 0.012875 -0.004707 -0.003474 0.000000 0.000000 0.000000
# 2 -0.004707 0.014269 -0.002731 0.000000 0.000000 0.000000
# 3 -0.003474 -0.002731 0.011963 0.000000 0.000000 0.000000
# 4 0.000000 0.000000 0.000000 0.061483 0.000000 0.000000
# 5 0.000000 0.000000 0.000000 0.000000 0.045454 0.000000
# 6 0.000000 0.000000 0.000000 0.000000 0.000000 0.062552
#
#
# Mechanical properties :
#
#
# Convention : Reuss Voigt Hill
#
# Bulk Modulus (GPa) = 57.85883 58.28011 58.06947
# Shear Modulus (GPa) = 21.17041 22.99832 22.08436
#
# Velocity S-wave (km/s) = 3.76892 3.92826 3.84942
# Velocity P-wave (km/s) = 7.60009 7.72524 7.66292
#
# Compressibility (1/GPa) = 0.01728345
#
# Stress axis : x y z
#
# Youngs Moduli (GPa) = 77.67153 70.08382 83.59279
#
# Poissons Ratio (x) = 0.32985 0.29040
# Poissons Ratio (y) = 0.36556 0.22828
# Poissons Ratio (z) = 0.26983 0.19139
#
# Static dielectric constant tensor:
#      x y z
#    x 1.507190 0.000000 0.000000 
#    y 0.000000 1.481570 0.000000 
#    z 0.000000 0.000000 1.508960 
# 
# From -- ./inp_files/22230.got.cif
#   From: 2010.05.17/outbox.cif.g08.bks.cpg/sg72_12_cif.got.tgz:22230.got - 2010.06.03 17:03:01.
