data_PCOD9525685
_publ_section_title
;
Structure prediction by ZEFSAII (Michael W. Deem and Ramdas Pophale) SiO2 
 PCOD9525685
Probable space group: I B A M
;
_chemical_formula_sum "Si O2"
_cell_formula_units_Z 88
_cell_length_a 21.778577
_cell_length_b 20.892598
_cell_length_c 7.958323
_cell_angle_alpha 90.000000
_cell_angle_beta 90.000000
_cell_angle_gamma 90.000000
_cell_volume 3621.124938
_symmetry_space_group_name_H-M "I B A M"
_symmetry_group_IT_number 72
_symmetry_cell_setting 'orthorhombic'
loop_
_space_group_symop_operation_xyz
x,y,z
-x,-y,z
x,-y,1/2-z
-x,y,1/2-z
-x,-y,-z
x,y,-z
-x,y,1/2+z
x,-y,1/2+z
1/2+x,1/2+y,1/2+z
1/2-x,1/2-y,1/2+z
1/2+x,1/2-y,-z
1/2-x,1/2+y,-z
1/2-x,1/2-y,1/2-z
1/2+x,1/2+y,1/2-z
1/2-x,1/2+y,z
1/2+x,1/2-y,z
loop_
_atom_site_type_symbol
_atom_site_label
_atom_site_fract_x
_atom_site_fract_y
_atom_site_fract_z
Si Si1 0.931361 0.099695 0.309457
Si Si2 0.801881 0.931303 0.795632
Si Si3 0.905722 0.427164 0.803338
Si Si4 0.392009 0.735001 0.308339
Si Si5 0.792893 0.333214 0.196565
Si Si6 0.000000 0.666249 0.250000
O O1 0.930617 0.078037 0.500000
O O2 0.871324 0.069276 0.225567
O O3 0.916049 0.175336 0.296766
O O4 0.000000 0.087728 0.250000
O O5 0.767681 0.866984 0.732040
O O6 0.773409 0.000000 0.750000
O O7 0.801448 0.926662 0.000000
O O8 0.903403 0.500000 0.750000
O O9 0.840583 0.392227 0.796437
O O10 0.951038 0.386447 0.685717
O O11 0.925764 0.421561 0.000000
O O12 0.379695 0.714331 0.500000
O O13 0.332076 0.772613 0.237076
O O14 0.448911 0.784997 0.320914
O O15 0.782166 0.317632 0.000000
#
# Coordination Sequence:
#
# PCOD9525685 Si02
#       6
#    16  16  16  16  16   8
#     4  11  24  40  61  89 120 154 195 246 300 356
#     4  10  22  41  64  89 118 154 197 245 297 354
#     4  10  20  32  49  75 109 152 194 236 284 332
#     4  10  20  36  60  86 116 155 194 237 291 350
#     4   8  17  36  59  84 116 153 191 236 290 344
#     4  10  19  30  50  76 107 148 194 230 278 336
#
# _framework density 24.301841
#
# number of rings (size 3 to 8) (size 9 to 14) (size 15 to 20)
#    0.000    2.182    0.909    3.000    0.000    5.455 
#    0.000    5.455    0.000    0.000    0.000    0.000 
#    0.000    0.000    0.000    0.000    0.000    0.000 
#
# Total GULP energy -245108.276436 kJ/mol
# GULP energy per Si atom -5570.642646 kJ/mol
# Density = 2.424653 g / cm^3
# Si number density = 24.301841 Si / 1000 Ang^3
#
#
#
# Elastic Constant Matrix: (Units=GPa)
#
#
# Indices 1 2 3 4 5 6 
#
# 1 121.8666 7.4643 19.0599 0.0000 0.0000 0.0000
# 2 7.4643 89.4154 -3.0680 0.0000 0.0000 0.0000
# 3 19.0599 -3.0680 41.5378 0.0000 0.0000 0.0000
# 4 0.0000 0.0000 0.0000 41.8039 0.0000 0.0000
# 5 0.0000 0.0000 0.0000 0.0000 7.1584 0.0000
# 6 0.0000 0.0000 0.0000 0.0000 0.0000 29.8672
#
#
#
# Elastic Compliance Matrix: (Units=1/GPa)
#
#
# Indices 1 2 3 4 5 6 
#
# 1 0.008910 -0.000886 -0.004154 0.000000 0.000000 0.000000
# 2 -0.000886 0.011300 0.001241 0.000000 0.000000 0.000000
# 3 -0.004154 0.001241 0.026072 0.000000 0.000000 0.000000
# 4 0.000000 0.000000 0.000000 0.023921 0.000000 0.000000
# 5 0.000000 0.000000 0.000000 0.000000 0.139695 0.000000
# 6 0.000000 0.000000 0.000000 0.000000 0.000000 0.033482
#
#
# Mechanical properties :
#
#
# Convention : Reuss Voigt Hill
#
# Bulk Modulus (GPa) = 25.84999 33.30356 29.57677
# Shear Modulus (GPa) = 18.94856 31.05683 25.00269
#
# Velocity S-wave (km/s) = 2.79537 3.57874 3.21103
# Velocity P-wave (km/s) = 4.59118 5.55071 5.09359
#
# Compressibility (1/GPa) = 0.03868473
#
# Stress axis : x y z
#
# Youngs Moduli (GPa) = 112.23833 88.49296 38.35524
#
# Poissons Ratio (x) = 0.07843 0.15932
# Poissons Ratio (y) = 0.09947 -0.04761
# Poissons Ratio (z) = 0.46620 -0.10985
#
# Static dielectric constant tensor:
#      x y z
#    x 2.016460 0.000000 0.000000 
#    y 0.000000 1.921970 0.000000 
#    z 0.000000 0.000000 1.933970 
# 
# From -- ./inp_files/5798.got.cif
#   From: 2010.05.17/outbox.cif.g08.bks.cpg/sg72_3_cif.got.tgz:5798.got - 2010.06.03 17:03:01.
