data_PCOD9525859
_publ_section_title
;
Structure prediction by ZEFSAII (Michael W. Deem and Ramdas Pophale) SiO2 
 PCOD9525859
Probable space group: I B A M
;
_chemical_formula_sum "Si O2"
_cell_formula_units_Z 112
_cell_length_a 20.149734
_cell_length_b 19.361714
_cell_length_c 18.473569
_cell_angle_alpha 90.000000
_cell_angle_beta 90.000000
_cell_angle_gamma 90.000000
_cell_volume 7207.156042
_symmetry_space_group_name_H-M "I B A M"
_symmetry_group_IT_number 72
_symmetry_cell_setting 'orthorhombic'
loop_
_space_group_symop_operation_xyz
x,y,z
-x,-y,z
x,-y,1/2-z
-x,y,1/2-z
-x,-y,-z
x,y,-z
-x,y,1/2+z
x,-y,1/2+z
1/2+x,1/2+y,1/2+z
1/2-x,1/2-y,1/2+z
1/2+x,1/2-y,-z
1/2-x,1/2+y,-z
1/2-x,1/2-y,1/2-z
1/2+x,1/2+y,1/2-z
1/2-x,1/2+y,z
1/2+x,1/2-y,z
loop_
_atom_site_type_symbol
_atom_site_label
_atom_site_fract_x
_atom_site_fract_y
_atom_site_fract_z
Si Si1 0.631982 0.229666 0.918155
Si Si2 0.692696 0.727626 0.806921
Si Si3 0.567040 0.305360 0.207766
Si Si4 0.738866 0.123430 0.085135
Si Si5 0.795222 0.024672 0.585882
Si Si6 0.568835 0.532959 0.670515
Si Si7 0.262248 0.170801 0.084176
O O1 0.580206 0.255016 0.859565
O O2 0.665455 0.155118 0.904608
O O3 0.695171 0.282311 0.913320
O O4 0.606593 0.232818 0.000000
O O5 0.750000 0.750000 0.750000
O O6 0.628746 0.705881 0.761863
O O7 0.715911 0.664933 0.858318
O O8 0.686705 0.792018 0.862185
O O9 0.500000 0.290261 0.250000
O O10 0.563906 0.384453 0.179916
O O11 0.750268 0.042765 0.097093
O O12 0.755853 0.138454 0.000000
O O13 0.806855 0.032301 0.500000
O O14 0.866069 0.016844 0.624128
O O15 0.758802 0.094815 0.609599
O O16 0.500000 0.500000 0.641365
O O17 0.577423 0.500000 0.750000
O O18 0.283581 0.168917 0.000000
#
# Coordination Sequence:
#
# PCOD9525859 Si02
#       7
#    16  16  16  16  16  16  16
#     4   9  17  34  53  70  99 136 171 211 260 303
#     4  11  18  32  53  73  98 135 177 214 264 300
#     4  12  22  34  51  75 103 142 180 211 246 308
#     4   9  18  31  51  77 101 128 171 222 260 304
#     4  10  19  32  52  77 102 132 171 214 258 306
#     4  11  21  34  45  65 106 146 173 200 244 295
#     4   9  17  31  52  75 100 130 170 217 260 305
#
# _framework density 15.540111
#
# number of rings (size 3 to 8) (size 9 to 14) (size 15 to 20)
#    0.000    1.857    5.714    2.143    0.000    0.286 
#    0.000    1.429    0.000    0.000    0.000    2.000 
#    0.000    4.571    0.000    0.000    0.000    0.000 
#
# Total GULP energy -312079.909446 kJ/mol
# GULP energy per Si atom -5572.855526 kJ/mol
# Density = 1.550474 g / cm^3
# Si number density = 15.540111 Si / 1000 Ang^3
#
#
#
# Elastic Constant Matrix: (Units=GPa)
#
#
# Indices 1 2 3 4 5 6 
#
# 1 65.0730 36.5424 30.4420 0.0000 0.0000 0.0000
# 2 36.5424 97.3680 27.7980 0.0000 0.0000 0.0000
# 3 30.4420 27.7980 57.0681 0.0000 0.0000 0.0000
# 4 0.0000 0.0000 0.0000 16.8483 0.0000 0.0000
# 5 0.0000 0.0000 0.0000 0.0000 24.3746 0.0000
# 6 0.0000 0.0000 0.0000 0.0000 0.0000 21.9958
#
#
#
# Elastic Compliance Matrix: (Units=1/GPa)
#
#
# Indices 1 2 3 4 5 6 
#
# 1 0.023143 -0.005995 -0.009425 0.000000 0.000000 0.000000
# 2 -0.005995 0.013482 -0.003369 0.000000 0.000000 0.000000
# 3 -0.009425 -0.003369 0.024192 0.000000 0.000000 0.000000
# 4 0.000000 0.000000 0.000000 0.059353 0.000000 0.000000
# 5 0.000000 0.000000 0.000000 0.000000 0.041026 0.000000
# 6 0.000000 0.000000 0.000000 0.000000 0.000000 0.045463
#
#
# Mechanical properties :
#
#
# Convention : Reuss Voigt Hill
#
# Bulk Modulus (GPa) = 43.03233 45.45265 44.24249
# Shear Modulus (GPa) = 19.84250 20.95885 20.40067
#
# Velocity S-wave (km/s) = 3.57719 3.67644 3.62715
# Velocity P-wave (km/s) = 6.69425 6.87995 6.78773
#
# Compressibility (1/GPa) = 0.02323834
#
# Stress axis : x y z
#
# Youngs Moduli (GPa) = 43.20952 74.17244 41.33629
#
# Poissons Ratio (x) = 0.44465 0.38960
# Poissons Ratio (y) = 0.25903 0.13928
# Poissons Ratio (z) = 0.40726 0.24991
#
# Static dielectric constant tensor:
#      x y z
#    x 1.495180 0.000000 0.000000 
#    y 0.000000 1.534250 0.000000 
#    z 0.000000 0.000000 1.540360 
# 
# From -- ./inp_files/32772.got.cif
#   From: 2010.05.17/outbox.cif.g08.bks.cpg/sg72_17_cif.got.tgz:32772.got - 2010.06.03 17:03:01.
