data_PCOD9525225
_publ_section_title
;
Structure prediction by ZEFSAII (Michael W. Deem and Ramdas Pophale) SiO2 
 PCOD9525225
Probable space group: I B A M
;
_chemical_formula_sum "Si O2"
_cell_formula_units_Z 96
_cell_length_a 8.582937
_cell_length_b 28.480587
_cell_length_c 15.986290
_cell_angle_alpha 90.000000
_cell_angle_beta 90.000000
_cell_angle_gamma 90.000000
_cell_volume 3907.801974
_symmetry_space_group_name_H-M "I B A M"
_symmetry_group_IT_number 72
_symmetry_cell_setting 'orthorhombic'
loop_
_space_group_symop_operation_xyz
x,y,z
-x,-y,z
x,-y,1/2-z
-x,y,1/2-z
-x,-y,-z
x,y,-z
-x,y,1/2+z
x,-y,1/2+z
1/2+x,1/2+y,1/2+z
1/2-x,1/2-y,1/2+z
1/2+x,1/2-y,-z
1/2-x,1/2+y,-z
1/2-x,1/2-y,1/2-z
1/2+x,1/2+y,1/2-z
1/2-x,1/2+y,z
1/2+x,1/2-y,z
loop_
_atom_site_type_symbol
_atom_site_label
_atom_site_fract_x
_atom_site_fract_y
_atom_site_fract_z
Si Si1 0.191601 0.447396 0.343698
Si Si2 0.534408 0.818880 0.000000
Si Si3 0.179500 0.446998 0.142819
Si Si4 0.331401 0.251133 0.341167
Si Si5 0.369343 0.719283 0.500000
Si Si6 0.000000 0.678095 0.250000
Si Si7 0.717991 0.621315 0.000000
Si Si8 0.734230 0.649158 0.644475
O O1 0.207907 0.447843 0.242711
O O2 0.218364 0.498989 0.380975
O O3 0.303684 0.404866 0.371744
O O4 0.008019 0.437699 0.365139
O O5 0.645111 0.835825 0.925738
O O6 0.507668 0.762274 0.000000
O O7 0.375836 0.847523 0.000000
O O8 0.270196 0.410899 0.083013
O O9 0.250000 0.250000 0.250000
O O10 0.223137 0.231888 0.414694
O O11 0.462844 0.212886 0.325963
O O12 0.378923 0.305843 0.351434
O O13 0.408044 0.663778 0.500000
O O14 0.844582 0.649786 0.271926
#
# Coordination Sequence:
#
# PCOD9525225 Si02
#       8
#    16   8  16  16   8   8   8  16
#     4   9  17  31  42  64  98 123 171 199 239 302
#     4  10  20  31  42  68  91 132 170 204 252 302
#     4   9  19  28  44  67  91 131 164 202 238 300
#     4   9  20  32  48  70  96 136 176 214 259 315
#     4  10  22  34  45  74 102 133 182 216 250 318
#     4  10  18  30  46  69  92 131 178 210 252 314
#     4  12  20  30  52  69  98 142 169 210 262 296
#     4  10  18  29  47  62  95 134 160 205 256 297
#
# _framework density 24.566240000000001
#
# number of rings (size 3 to 8) (size 9 to 14) (size 15 to 20)
#    0.000    2.333    1.667    3.000    4.667    2.000 
#    0.000    0.000    0.000    0.000    0.000    0.000 
#    0.000    2.667    0.667   24.000    0.000    0.000 
#
# Total GULP energy -267736.068932 kJ/mol
# GULP energy per Si atom -5577.834769 kJ/mol
# Density = 2.451033 g / cm^3
# Si number density = 24.566240 Si / 1000 Ang^3
#
#
#
# Elastic Constant Matrix: (Units=GPa)
#
#
# Indices 1 2 3 4 5 6 
#
# 1 17.6219 9.1366 20.2620 0.0000 0.0000 0.0000
# 2 9.1366 239.9243 37.0682 0.0000 0.0000 0.0000
# 3 20.2620 37.0682 102.1361 0.0000 0.0000 0.0000
# 4 0.0000 0.0000 0.0000 34.1582 0.0000 0.0000
# 5 0.0000 0.0000 0.0000 0.0000 17.2562 0.0000
# 6 0.0000 0.0000 0.0000 0.0000 0.0000 33.1334
#
#
#
# Elastic Compliance Matrix: (Units=1/GPa)
#
#
# Indices 1 2 3 4 5 6 
#
# 1 0.073593 -0.000579 -0.014389 0.000000 0.000000 0.000000
# 2 -0.000579 0.004420 -0.001489 0.000000 0.000000 0.000000
# 3 -0.014389 -0.001489 0.013186 0.000000 0.000000 0.000000
# 4 0.000000 0.000000 0.000000 0.029276 0.000000 0.000000
# 5 0.000000 0.000000 0.000000 0.000000 0.057950 0.000000
# 6 0.000000 0.000000 0.000000 0.000000 0.000000 0.030181
#
#
# Mechanical properties :
#
#
# Convention : Reuss Voigt Hill
#
# Bulk Modulus (GPa) = 17.15756 54.73509 35.94632
# Shear Modulus (GPa) = 19.16081 36.45727 27.80904
#
# Velocity S-wave (km/s) = 2.79582 3.85650 3.36817
# Velocity P-wave (km/s) = 4.17390 6.49301 5.45805
#
# Compressibility (1/GPa) = 0.05828335
#
# Stress axis : x y z
#
# Youngs Moduli (GPa) = 13.58824 226.23749 75.83841
#
# Poissons Ratio (x) = 0.13107 1.09126
# Poissons Ratio (y) = 0.00787 0.11294
# Poissons Ratio (z) = 0.19552 0.33693
#
# Static dielectric constant tensor:
#      x y z
#    x 2.010220 0.000000 0.000000 
#    y 0.000000 2.030520 0.000000 
#    z 0.000000 0.000000 2.631650 
# 
# From -- ./inp_files/29635.got.cif
#   From: 2010.05.17/outbox.cif.g08.bks.cpg/sg72_15_cif.got.tgz:29635.got - 2010.06.03 17:03:01.
