data_PCOD9525480
_publ_section_title
;
Structure prediction by ZEFSAII (Michael W. Deem and Ramdas Pophale) SiO2 
 PCOD9525480
Probable space group: I B A M
;
_chemical_formula_sum "Si O2"
_cell_formula_units_Z 112
_cell_length_a 14.419253
_cell_length_b 16.117313
_cell_length_c 25.005255
_cell_angle_alpha 90.000000
_cell_angle_beta 90.000000
_cell_angle_gamma 90.000000
_cell_volume 5811.211606
_symmetry_space_group_name_H-M "I B A M"
_symmetry_group_IT_number 72
_symmetry_cell_setting 'orthorhombic'
loop_
_space_group_symop_operation_xyz
x,y,z
-x,-y,z
x,-y,1/2-z
-x,y,1/2-z
-x,-y,-z
x,y,-z
-x,y,1/2+z
x,-y,1/2+z
1/2+x,1/2+y,1/2+z
1/2-x,1/2-y,1/2+z
1/2+x,1/2-y,-z
1/2-x,1/2+y,-z
1/2-x,1/2-y,1/2-z
1/2+x,1/2+y,1/2-z
1/2-x,1/2+y,z
1/2+x,1/2-y,z
loop_
_atom_site_type_symbol
_atom_site_label
_atom_site_fract_x
_atom_site_fract_y
_atom_site_fract_z
Si Si1 0.385506 0.795729 0.697885
Si Si2 0.306500 0.311730 0.366037
Si Si3 0.670489 0.125027 0.901558
Si Si4 0.473100 0.087897 0.884644
Si Si5 0.301724 0.916539 0.777915
Si Si6 0.223957 0.452764 0.561789
Si Si7 0.402604 0.632284 0.240806
O O1 0.288748 0.795119 0.666115
O O2 0.455844 0.843865 0.660229
O O3 0.361254 0.844427 0.751503
O O4 0.414577 0.706681 0.716798
O O5 0.317261 0.225075 0.398912
O O6 0.290365 0.394132 0.402126
O O7 0.380856 0.334296 0.319420
O O8 0.563345 0.112207 0.918228
O O9 0.686119 0.092534 0.840746
O O10 0.729451 0.053616 0.932175
O O11 0.379533 0.072775 0.917938
O O12 0.500000 0.000000 0.858659
O O13 0.194133 0.908467 0.760017
O O14 0.335959 0.000000 0.750000
O O15 0.235950 0.431541 0.500000
O O16 0.500000 0.586443 0.250000
#
# Coordination Sequence:
#
# PCOD9525480 Si02
#       7
#    16  16  16  16  16  16  16
#     4  10  18  33  50  79 118 148 175 213 268 339
#     4  10  19  37  56  82 114 150 187 225 282 339
#     4  11  19  34  56  82 109 146 183 224 282 343
#     4   9  19  32  52  83 114 143 175 221 281 340
#     4  11  20  32  49  75 113 148 184 216 256 332
#     4  10  23  40  57  79 109 141 188 248 287 325
#     4  11  20  33  53  81 116 149 178 219 270 330
#
# _framework density 19.273088999999999
#
# number of rings (size 3 to 8) (size 9 to 14) (size 15 to 20)
#    0.000    1.714    2.857    5.143    0.000    3.429 
#    0.000    2.857    0.000    0.000    0.000    1.000 
#    0.000    0.000    0.000    0.000    0.000    0.000 
#
# Total GULP energy -311936.201573 kJ/mol
# GULP energy per Si atom -5570.289314 kJ/mol
# Density = 1.922922 g / cm^3
# Si number density = 19.273089 Si / 1000 Ang^3
#
#
#
# Elastic Constant Matrix: (Units=GPa)
#
#
# Indices 1 2 3 4 5 6 
#
# 1 44.2797 19.6026 8.0484 0.0000 0.0000 0.0000
# 2 19.6026 97.7824 18.8633 0.0000 0.0000 0.0000
# 3 8.0484 18.8633 72.2970 0.0000 0.0000 0.0000
# 4 0.0000 0.0000 0.0000 5.8493 0.0000 0.0000
# 5 0.0000 0.0000 0.0000 0.0000 10.2301 0.0000
# 6 0.0000 0.0000 0.0000 0.0000 0.0000 11.1213
#
#
#
# Elastic Compliance Matrix: (Units=1/GPa)
#
#
# Indices 1 2 3 4 5 6 
#
# 1 0.024947 -0.004702 -0.001550 0.000000 0.000000 0.000000
# 2 -0.004702 0.011655 -0.002518 0.000000 0.000000 0.000000
# 3 -0.001550 -0.002518 0.014661 0.000000 0.000000 0.000000
# 4 0.000000 0.000000 0.000000 0.170960 0.000000 0.000000
# 5 0.000000 0.000000 0.000000 0.000000 0.097751 0.000000
# 6 0.000000 0.000000 0.000000 0.000000 0.000000 0.089917
#
#
# Mechanical properties :
#
#
# Convention : Reuss Voigt Hill
#
# Bulk Modulus (GPa) = 29.65292 34.15418 31.90355
# Shear Modulus (GPa) = 11.39802 16.62981 14.01392
#
# Velocity S-wave (km/s) = 2.43450 2.94062 2.69945
# Velocity P-wave (km/s) = 4.82923 5.41196 5.12888
#
# Compressibility (1/GPa) = 0.03372350
#
# Stress axis : x y z
#
# Youngs Moduli (GPa) = 40.08482 85.79954 68.20687
#
# Poissons Ratio (x) = 0.40344 0.10575
# Poissons Ratio (y) = 0.18848 0.17171
# Poissons Ratio (z) = 0.06215 0.21600
#
# Static dielectric constant tensor:
#      x y z
#    x 1.728350 0.000000 0.000000 
#    y 0.000000 1.729130 0.000000 
#    z 0.000000 0.000000 1.643220 
# 
# From -- ./inp_files/48745.got.cif
#   From: 2010.05.17/outbox.cif.g08.bks.cpg/sg72_25_cif.got.tgz:48745.got - 2010.06.03 17:03:01.
