data_PCOD9525464
_publ_section_title
;
Structure prediction by ZEFSAII (Michael W. Deem and Ramdas Pophale) SiO2 
 PCOD9525464
Probable space group: I B A M
;
_chemical_formula_sum "Si O2"
_cell_formula_units_Z 64
_cell_length_a 15.390421
_cell_length_b 17.030338
_cell_length_c 14.384034
_cell_angle_alpha 90.000000
_cell_angle_beta 90.000000
_cell_angle_gamma 90.000000
_cell_volume 3770.113877
_symmetry_space_group_name_H-M "I B A M"
_symmetry_group_IT_number 72
_symmetry_cell_setting 'orthorhombic'
loop_
_space_group_symop_operation_xyz
x,y,z
-x,-y,z
x,-y,1/2-z
-x,y,1/2-z
-x,-y,-z
x,y,-z
-x,y,1/2+z
x,-y,1/2+z
1/2+x,1/2+y,1/2+z
1/2-x,1/2-y,1/2+z
1/2+x,1/2-y,-z
1/2-x,1/2+y,-z
1/2-x,1/2-y,1/2-z
1/2+x,1/2+y,1/2-z
1/2-x,1/2+y,z
1/2+x,1/2-y,z
loop_
_atom_site_type_symbol
_atom_site_label
_atom_site_fract_x
_atom_site_fract_y
_atom_site_fract_z
Si Si1 0.117794 0.325493 0.500000
Si Si2 0.848274 0.853762 0.500000
Si Si3 0.729673 0.562216 0.500000
Si Si4 0.602405 0.511270 0.859903
Si Si5 0.840115 0.598923 0.000000
Si Si6 0.491198 0.906177 0.858320
O O1 0.112001 0.232057 0.500000
O O2 0.215319 0.358932 0.500000
O O3 0.067277 0.361980 0.412475
O O4 0.873677 0.905938 0.409481
O O5 0.744249 0.847248 0.500000
O O6 0.665842 0.549332 0.587289
O O7 0.799585 0.489696 0.500000
O O8 0.500000 0.500000 0.878479
O O9 0.615931 0.500000 0.750000
O O10 0.900818 0.612498 0.910318
O O11 0.500000 0.888030 0.750000
O O12 0.500000 0.000000 0.870121
#
# Coordination Sequence:
#
# PCOD9525464 Si02
#       6
#     8   8   8  16   8  16
#     4  11  21  37  53  88 119 142 180 230 286 321
#     4  10  22  37  57  84 116 138 183 240 277 318
#     4  10  18  32  57  80 111 146 184 220 275 328
#     4   9  19  39  61  80 102 147 196 228 268 335
#     4   9  17  37  52  78 110 153 186 221 264 329
#     4  10  19  35  60  83 111 152 189 219 269 340
#
# _framework density 16.975615000000001
#
# number of rings (size 3 to 8) (size 9 to 14) (size 15 to 20)
#    0.000    2.500    2.500    2.250    0.000    4.000 
#   13.500    2.500    0.000    0.000    0.000    0.000 
#    0.000    0.000    0.000    0.000    0.000    0.000 
#
# Total GULP energy -178258.713830 kJ/mol
# GULP energy per Si atom -5570.584807 kJ/mol
# Density = 1.693698 g / cm^3
# Si number density = 16.975615 Si / 1000 Ang^3
#
#
#
# Elastic Constant Matrix: (Units=GPa)
#
#
# Indices 1 2 3 4 5 6 
#
# 1 130.4365 29.7278 77.7166 0.0000 0.0000 0.0000
# 2 29.7278 87.6782 58.0750 0.0000 0.0000 0.0000
# 3 77.7166 58.0750 162.2432 0.0000 0.0000 0.0000
# 4 0.0000 0.0000 0.0000 51.2333 0.0000 0.0000
# 5 0.0000 0.0000 0.0000 0.0000 13.6831 0.0000
# 6 0.0000 0.0000 0.0000 0.0000 0.0000 19.9922
#
#
#
# Elastic Compliance Matrix: (Units=1/GPa)
#
#
# Indices 1 2 3 4 5 6 
#
# 1 0.010735 -0.000306 -0.005032 0.000000 0.000000 0.000000
# 2 -0.000306 0.014959 -0.005208 0.000000 0.000000 0.000000
# 3 -0.005032 -0.005208 0.010438 0.000000 0.000000 0.000000
# 4 0.000000 0.000000 0.000000 0.019519 0.000000 0.000000
# 5 0.000000 0.000000 0.000000 0.000000 0.073083 0.000000
# 6 0.000000 0.000000 0.000000 0.000000 0.000000 0.050020
#
#
# Mechanical properties :
#
#
# Convention : Reuss Voigt Hill
#
# Bulk Modulus (GPa) = 66.49515 79.04410 72.76962
# Shear Modulus (GPa) = 24.40706 31.30426 27.85566
#
# Velocity S-wave (km/s) = 3.79591 4.29893 4.05522
# Velocity P-wave (km/s) = 7.64643 8.44425 8.05523
#
# Compressibility (1/GPa) = 0.01503869
#
# Stress axis : x y z
#
# Youngs Moduli (GPa) = 93.15473 66.85113 95.80112
#
# Poissons Ratio (x) = 0.02048 0.48211
# Poissons Ratio (y) = 0.02854 0.49890
# Poissons Ratio (z) = 0.46880 0.34814
#
# Static dielectric constant tensor:
#      x y z
#    x 1.577320 0.000000 0.000000 
#    y 0.000000 1.560930 0.000000 
#    z 0.000000 0.000000 1.581600 
# 
# From -- ./inp_files/21415.got.cif
#   From: 2010.05.17/outbox.cif.g08.bks.cpg/sg72_11_cif.got.tgz:21415.got - 2010.06.03 17:03:01.
