data_PCOD9525458
_publ_section_title
;
Structure prediction by ZEFSAII (Michael W. Deem and Ramdas Pophale) SiO2 
 PCOD9525458
Probable space group: I B A M
;
_chemical_formula_sum "Si O2"
_cell_formula_units_Z 108
_cell_length_a 29.621060
_cell_length_b 16.093327
_cell_length_c 12.020494
_cell_angle_alpha 90.000000
_cell_angle_beta 90.000000
_cell_angle_gamma 90.000000
_cell_volume 5730.186375
_symmetry_space_group_name_H-M "I B A M"
_symmetry_group_IT_number 72
_symmetry_cell_setting 'orthorhombic'
loop_
_space_group_symop_operation_xyz
x,y,z
-x,-y,z
x,-y,1/2-z
-x,y,1/2-z
-x,-y,-z
x,y,-z
-x,y,1/2+z
x,-y,1/2+z
1/2+x,1/2+y,1/2+z
1/2-x,1/2-y,1/2+z
1/2+x,1/2-y,-z
1/2-x,1/2+y,-z
1/2-x,1/2-y,1/2-z
1/2+x,1/2+y,1/2-z
1/2-x,1/2+y,z
1/2+x,1/2-y,z
loop_
_atom_site_type_symbol
_atom_site_label
_atom_site_fract_x
_atom_site_fract_y
_atom_site_fract_z
Si Si1 0.518275 0.595134 0.872339
Si Si2 0.127837 0.756098 0.367301
Si Si3 0.500000 0.000000 0.250000
Si Si4 0.423826 0.900342 0.129914
Si Si5 0.620092 0.406992 0.706203
Si Si6 0.151343 0.500000 0.250000
Si Si7 0.211437 0.830764 0.878996
Si Si8 0.204074 0.336391 0.268898
O O1 0.500000 0.500000 0.873839
O O2 0.500000 0.629033 0.750000
O O3 0.572543 0.597082 0.858368
O O4 0.507073 0.628309 0.000000
O O5 0.128595 0.761884 0.500000
O O6 0.089498 0.690968 0.327972
O O7 0.119192 0.843752 0.310303
O O8 0.173948 0.713410 0.322991
O O9 0.467796 0.940803 0.180110
O O10 0.381820 0.960131 0.158949
O O11 0.429066 0.893847 0.000000
O O12 0.626400 0.500000 0.750000
O O13 0.663497 0.375243 0.637932
O O14 0.180728 0.423593 0.294838
O O15 0.205877 0.731060 0.866698
O O16 0.246927 0.853131 0.782948
O O17 0.230024 0.852118 0.000000
#
# Coordination Sequence:
#
# PCOD9525458 Si02
#       8
#    16  16   4  16  16   8  16  16
#     4  10  20  38  59  81 110 150 197 250 305 354
#     4   9  19  36  58  81 113 156 195 233 290 358
#     4  10  18  32  56  86 118 140 174 240 282 350
#     4   9  18  34  55  81 111 147 182 226 288 343
#     4  11  22  37  57  84 114 152 199 254 296 347
#     4   9  18  33  58  82 104 138 185 234 263 330
#     4  10  21  36  55  80 116 152 182 230 294 350
#     4   9  19  36  58  81 115 146 186 231 285 344
#
# _framework density 18.847553999999999
#
# number of rings (size 3 to 8) (size 9 to 14) (size 15 to 20)
#    0.000    2.370    1.481    1.111    1.037    2.963 
#    1.333    0.000    0.000    1.778    0.000    0.000 
#    0.000    0.000    0.000    0.000    0.000    0.000 
#
# Total GULP energy -300766.543003 kJ/mol
# GULP energy per Si atom -5569.750796 kJ/mol
# Density = 1.880466 g / cm^3
# Si number density = 18.847554 Si / 1000 Ang^3
#
#
#
# Elastic Constant Matrix: (Units=GPa)
#
#
# Indices 1 2 3 4 5 6 
#
# 1 103.3755 32.4768 18.8081 0.0000 0.0000 0.0000
# 2 32.4768 107.6762 20.9674 0.0000 0.0000 0.0000
# 3 18.8081 20.9674 80.4652 0.0000 0.0000 0.0000
# 4 0.0000 0.0000 0.0000 10.2241 0.0000 0.0000
# 5 0.0000 0.0000 0.0000 0.0000 -9.4261 0.0000
# 6 0.0000 0.0000 0.0000 0.0000 0.0000 28.5855
#
#
#
# Elastic Compliance Matrix: (Units=1/GPa)
#
#
# Indices 1 2 3 4 5 6 
#
# 1 0.010924 -0.002947 -0.001785 0.000000 0.000000 0.000000
# 2 -0.002947 0.010579 -0.002068 0.000000 0.000000 0.000000
# 3 -0.001785 -0.002068 0.013384 0.000000 0.000000 0.000000
# 4 0.000000 0.000000 0.000000 0.097809 0.000000 0.000000
# 5 0.000000 0.000000 0.000000 0.000000 -0.106088 0.000000
# 6 0.000000 0.000000 0.000000 0.000000 0.000000 0.034983
#
#
# Mechanical properties :
#
#
# Convention : Reuss Voigt Hill
#
# Bulk Modulus (GPa) = 46.97921 48.44683 47.71302
# Shear Modulus (GPa) = 60.76361 20.49433 40.62897
#
# Velocity S-wave (km/s) = 5.68415 3.30111 4.64795
# Velocity P-wave (km/s) = 8.24981 6.34745 7.36035
#
# Compressibility (1/GPa) = 0.02128601
#
# Stress axis : x y z
#
# Youngs Moduli (GPa) = 91.53959 94.52992 74.71688
#
# Poissons Ratio (x) = 0.27860 0.13340
# Poissons Ratio (y) = 0.26979 0.15449
# Poissons Ratio (z) = 0.16344 0.19546
#
# Static dielectric constant tensor:
#      x y z
#    x 1.677610 0.000000 0.000000 
#    y 0.000000 1.637000 0.000000 
#    z 0.000000 0.000000 1.661510 
# 
# From -- ./inp_files/16925.got.cif
#   From: 2010.05.17/outbox.cif.g08.bks.cpg/sg72_9_cif.got.tgz:16925.got - 2010.06.03 17:03:01.
