data_PCOD9525821
_publ_section_title
;
Structure prediction by ZEFSAII (Michael W. Deem and Ramdas Pophale) SiO2 
 PCOD9525821
Probable space group: I B A M
;
_chemical_formula_sum "Si O2"
_cell_formula_units_Z 104
_cell_length_a 19.862977
_cell_length_b 18.563304
_cell_length_c 13.476419
_cell_angle_alpha 90.000000
_cell_angle_beta 90.000000
_cell_angle_gamma 90.000000
_cell_volume 4969.058641
_symmetry_space_group_name_H-M "I B A M"
_symmetry_group_IT_number 72
_symmetry_cell_setting 'orthorhombic'
loop_
_space_group_symop_operation_xyz
x,y,z
-x,-y,z
x,-y,1/2-z
-x,y,1/2-z
-x,-y,-z
x,y,-z
-x,y,1/2+z
x,-y,1/2+z
1/2+x,1/2+y,1/2+z
1/2-x,1/2-y,1/2+z
1/2+x,1/2-y,-z
1/2-x,1/2+y,-z
1/2-x,1/2-y,1/2-z
1/2+x,1/2+y,1/2-z
1/2-x,1/2+y,z
1/2+x,1/2-y,z
loop_
_atom_site_type_symbol
_atom_site_label
_atom_site_fract_x
_atom_site_fract_y
_atom_site_fract_z
Si Si1 0.500000 0.661897 0.750000
Si Si2 0.431550 0.452896 0.113840
Si Si3 0.526835 0.082844 0.614586
Si Si4 0.816247 0.068494 0.380041
Si Si5 0.832664 0.469792 0.121213
Si Si6 0.615867 0.126479 0.121122
Si Si7 0.615389 0.282831 0.119661
O O1 0.551357 0.611495 0.812178
O O2 0.456247 0.706542 0.827696
O O3 0.500000 0.500000 0.114130
O O4 0.370035 0.505382 0.142396
O O5 0.420673 0.428166 0.000000
O O6 0.533018 0.105893 0.500000
O O7 0.462134 0.123919 0.655757
O O8 0.500000 0.000000 0.615989
O O9 0.602967 0.078214 0.653317
O O10 0.814564 0.069199 0.500000
O O11 0.841299 0.147595 0.350269
O O12 0.740789 0.053856 0.345217
O O13 0.846776 0.552886 0.149042
O O14 0.833484 0.467373 0.000000
O O15 0.644683 0.204611 0.147649
O O16 0.613914 0.123696 0.000000
O O17 0.607356 0.285157 0.000000
#
# Coordination Sequence:
#
# PCOD9525821 Si02
#       7
#     8  16  16  16  16  16  16
#     4  12  21  32  54  76  95 142 176 216 269 318
#     4  10  19  32  50  75 101 126 175 228 258 302
#     4   7  10  19  40  71  98 123 166 217 252 300
#     4   9  17  28  45  71 103 134 168 214 254 306
#     4   8  13  24  46  74 101 134 175 214 261 314
#     4   8  14  26  46  73 106 136 168 215 267 312
#     4  10  20  32  49  78 110 137 174 219 262 315
#
# _framework density 20.929518000000002
#
# number of rings (size 3 to 8) (size 9 to 14) (size 15 to 20)
#    0.000    3.077    1.538    2.538    0.000    0.000 
#    0.000    0.000    3.385    0.923    4.000    3.769 
#    0.000    0.000    0.000    0.154    0.000    1.538 
#
# Total GULP energy -290027.738850 kJ/mol
# GULP energy per Si atom -5577.456516 kJ/mol
# Density = 2.088188 g / cm^3
# Si number density = 20.929518 Si / 1000 Ang^3
#
#
#
# Elastic Constant Matrix: (Units=GPa)
#
#
# Indices 1 2 3 4 5 6 
#
# 1 151.9917 54.4106 16.9537 0.0000 0.0000 0.0000
# 2 54.4106 113.0583 11.9275 0.0000 0.0000 0.0000
# 3 16.9537 11.9275 67.0764 0.0000 0.0000 0.0000
# 4 0.0000 0.0000 0.0000 -7.9414 0.0000 0.0000
# 5 0.0000 0.0000 0.0000 0.0000 18.4535 0.0000
# 6 0.0000 0.0000 0.0000 0.0000 0.0000 10.5217
#
#
#
# Elastic Compliance Matrix: (Units=1/GPa)
#
#
# Indices 1 2 3 4 5 6 
#
# 1 0.008071 -0.003739 -0.001375 0.000000 0.000000 0.000000
# 2 -0.003739 0.010746 -0.000966 0.000000 0.000000 0.000000
# 3 -0.001375 -0.000966 0.015428 0.000000 0.000000 0.000000
# 4 0.000000 0.000000 0.000000 -0.125922 0.000000 0.000000
# 5 0.000000 0.000000 0.000000 0.000000 0.054190 0.000000
# 6 0.000000 0.000000 0.000000 0.000000 0.000000 0.095042
#
#
# Mechanical properties :
#
#
# Convention : Reuss Voigt Hill
#
# Bulk Modulus (GPa) = 45.27968 55.41222 50.34595
# Shear Modulus (GPa) = 64.86980 20.79573 42.83276
#
# Velocity S-wave (km/s) = 5.57330 3.15557 4.52876
# Velocity P-wave (km/s) = 7.94336 6.30951 7.17311
#
# Compressibility (1/GPa) = 0.02208496
#
# Stress axis : x y z
#
# Youngs Moduli (GPa) = 123.89557 93.05370 64.81854
#
# Poissons Ratio (x) = 0.34796 0.08913
# Poissons Ratio (y) = 0.46329 0.06260
# Poissons Ratio (z) = 0.17037 0.08987
#
# Static dielectric constant tensor:
#      x y z
#    x 1.739560 0.000000 0.000000 
#    y 0.000000 1.757690 0.000000 
#    z 0.000000 0.000000 1.820290 
# 
# From -- ./inp_files/24313.got.cif
#   From: 2010.05.17/outbox.cif.g08.bks.cpg/sg72_13_cif.got.tgz:24313.got - 2010.06.03 17:03:01.
