data_PCOD9525765
_publ_section_title
;
Structure prediction by ZEFSAII (Michael W. Deem and Ramdas Pophale) SiO2 
 PCOD9525765
Probable space group: I B A M
;
_chemical_formula_sum "Si O2"
_cell_formula_units_Z 112
_cell_length_a 14.437161
_cell_length_b 28.286787
_cell_length_c 15.256205
_cell_angle_alpha 90.000000
_cell_angle_beta 90.000000
_cell_angle_gamma 90.000000
_cell_volume 6230.342699
_symmetry_space_group_name_H-M "I B A M"
_symmetry_group_IT_number 72
_symmetry_cell_setting 'orthorhombic'
loop_
_space_group_symop_operation_xyz
x,y,z
-x,-y,z
x,-y,1/2-z
-x,y,1/2-z
-x,-y,-z
x,y,-z
-x,y,1/2+z
x,-y,1/2+z
1/2+x,1/2+y,1/2+z
1/2-x,1/2-y,1/2+z
1/2+x,1/2-y,-z
1/2-x,1/2+y,-z
1/2-x,1/2-y,1/2-z
1/2+x,1/2+y,1/2-z
1/2-x,1/2+y,z
1/2+x,1/2-y,z
loop_
_atom_site_type_symbol
_atom_site_label
_atom_site_fract_x
_atom_site_fract_y
_atom_site_fract_z
Si Si1 0.563803 0.287542 0.851654
Si Si2 0.730616 0.776899 0.900831
Si Si3 0.635525 0.872252 0.896072
Si Si4 0.955884 0.312410 0.600744
Si Si5 0.887619 0.555747 0.248183
Si Si6 0.628342 0.683746 0.162406
Si Si7 0.711838 0.881288 0.396888
O O1 0.658855 0.280266 0.903615
O O2 0.531741 0.233159 0.839956
O O3 0.471168 0.312685 0.886666
O O4 0.597966 0.313182 0.763571
O O5 0.695252 0.827112 0.865188
O O6 0.689146 0.731301 0.853185
O O7 0.694223 0.773430 0.000000
O O8 0.531164 0.853007 0.884555
O O9 0.648913 0.916961 0.834365
O O10 0.651649 0.881046 0.000000
O O11 0.968509 0.296601 0.500000
O O12 0.856547 0.336148 0.609669
O O13 0.868873 0.500000 0.250000
O O14 0.836456 0.579801 0.165058
O O15 0.000000 0.561494 0.250000
O O16 0.689618 0.638841 0.135797
O O17 0.715427 0.894750 0.500000
#
# Coordination Sequence:
#
# PCOD9525765 Si02
#       7
#    16  16  16  16  16  16  16
#     4  11  22  33  50  79 117 158 196 239 269 316
#     4  11  21  32  50  77 111 151 191 229 268 325
#     4  10  21  36  55  81 116 157 196 236 287 346
#     4  10  19  31  51  79 114 156 194 229 273 328
#     4  11  24  39  60  86 111 143 189 247 305 356
#     4  11  23  34  52  80 114 156 198 233 277 331
#     4  11  23  39  58  83 118 160 198 233 285 352
#
# _framework density 17.976538999999999
#
# number of rings (size 3 to 8) (size 9 to 14) (size 15 to 20)
#    0.000    1.286    4.286    2.143    2.000    2.286 
#    0.000    1.429    0.000    0.000    0.000    8.000 
#    0.000   12.571    0.000    0.000    0.000    0.000 
#
# Total GULP energy -312302.548943 kJ/mol
# GULP energy per Si atom -5576.831231 kJ/mol
# Density = 1.793562 g / cm^3
# Si number density = 17.976539 Si / 1000 Ang^3
#
#
#
# Elastic Constant Matrix: (Units=GPa)
#
#
# Indices 1 2 3 4 5 6 
#
# 1 121.5977 43.4213 33.7203 0.0000 0.0000 0.0000
# 2 43.4213 105.0713 58.5076 -0.0001 0.0000 0.0000
# 3 33.7203 58.5076 88.3419 0.0000 0.0000 0.0000
# 4 0.0000 -0.0001 0.0000 10.4859 0.0000 0.0000
# 5 0.0000 0.0000 0.0000 0.0000 19.4042 0.0000
# 6 0.0000 0.0000 0.0000 0.0000 0.0000 22.7548
#
#
#
# Elastic Compliance Matrix: (Units=1/GPa)
#
#
# Indices 1 2 3 4 5 6 
#
# 1 0.009802 -0.003117 -0.001677 0.000000 0.000000 0.000000
# 2 -0.003117 0.016069 -0.009453 0.000000 0.000000 0.000000
# 3 -0.001677 -0.009453 0.018220 0.000000 0.000000 0.000000
# 4 0.000000 0.000000 0.000000 0.095366 0.000000 0.000000
# 5 0.000000 0.000000 0.000000 0.000000 0.051535 0.000000
# 6 0.000000 0.000000 0.000000 0.000000 0.000000 0.043947
#
#
# Mechanical properties :
#
#
# Convention : Reuss Voigt Hill
#
# Bulk Modulus (GPa) = 64.11113 65.14547 64.62830
# Shear Modulus (GPa) = 18.61287 22.48642 20.54964
#
# Velocity S-wave (km/s) = 3.22125 3.54061 3.38470
# Velocity P-wave (km/s) = 7.04106 7.28233 7.16271
#
# Compressibility (1/GPa) = 0.01559792
#
# Stress axis : x y z
#
# Youngs Moduli (GPa) = 102.02093 62.23212 54.88431
#
# Poissons Ratio (x) = 0.19396 0.09205
# Poissons Ratio (y) = 0.31797 0.51880
# Poissons Ratio (z) = 0.17111 0.58825
#
# Static dielectric constant tensor:
#      x y z
#    x 1.676300 0.000000 0.000000 
#    y 0.000000 1.579690 0.000000 
#    z 0.000000 0.000000 1.670760 
# 
# From -- ./inp_files/22306.got.cif
#   From: 2010.05.17/outbox.cif.g08.bks.cpg/sg72_12_cif.got.tgz:22306.got - 2010.06.03 17:03:01.
