data_PCOD9525817
_publ_section_title
;
Structure prediction by ZEFSAII (Michael W. Deem and Ramdas Pophale) SiO2 
 PCOD9525817
Probable space group: I B A M
;
_chemical_formula_sum "Si O2"
_cell_formula_units_Z 128
_cell_length_a 19.164411
_cell_length_b 23.923128
_cell_length_c 16.983064
_cell_angle_alpha 90.000000
_cell_angle_beta 90.000000
_cell_angle_gamma 90.000000
_cell_volume 7786.270483
_symmetry_space_group_name_H-M "I B A M"
_symmetry_group_IT_number 72
_symmetry_cell_setting 'orthorhombic'
loop_
_space_group_symop_operation_xyz
x,y,z
-x,-y,z
x,-y,1/2-z
-x,y,1/2-z
-x,-y,-z
x,y,-z
-x,y,1/2+z
x,-y,1/2+z
1/2+x,1/2+y,1/2+z
1/2-x,1/2-y,1/2+z
1/2+x,1/2-y,-z
1/2-x,1/2+y,-z
1/2-x,1/2-y,1/2-z
1/2+x,1/2+y,1/2-z
1/2-x,1/2+y,z
1/2+x,1/2-y,z
loop_
_atom_site_type_symbol
_atom_site_label
_atom_site_fract_x
_atom_site_fract_y
_atom_site_fract_z
Si Si1 0.509148 0.251950 0.909415
Si Si2 0.145051 0.936614 0.345719
Si Si3 0.852292 0.934292 0.655939
Si Si4 0.353730 0.768430 0.179274
Si Si5 0.999492 0.876935 0.655372
Si Si6 0.854145 0.730495 0.367448
Si Si7 0.720659 0.667311 0.590747
Si Si8 0.738676 0.663706 0.091159
O O1 0.568468 0.226444 0.853814
O O2 0.502832 0.317437 0.887045
O O3 0.433001 0.225854 0.896187
O O4 0.530401 0.246392 0.000000
O O5 0.153675 0.932242 0.251050
O O6 0.067477 0.913605 0.363879
O O7 0.199124 0.894956 0.386569
O O8 0.152527 0.001168 0.368421
O O9 0.794559 0.894357 0.618302
O O10 0.928482 0.909405 0.635894
O O11 0.352729 0.767232 0.272990
O O12 0.322795 0.709987 0.145715
O O13 0.302533 0.815653 0.144967
O O14 0.000000 0.866764 0.750000
O O15 0.801396 0.682510 0.395823
O O16 0.820520 0.788415 0.398395
O O17 0.702757 0.678952 0.500000
O O18 0.759622 0.662481 0.000000
#
# Coordination Sequence:
#
# PCOD9525817 Si02
#       8
#    16  16  16  16  16  16  16  16
#     4  12  22  33  51  79 108 136 168 213 264 312
#     4  10  20  34  52  74 103 142 184 219 254 304
#     4  10  20  34  52  74 103 142 184 219 254 304
#     4  11  21  35  54  74 100 136 174 212 258 316
#     4  10  19  32  50  72 103 142 181 215 250 299
#     4  11  21  35  54  74 100 136 174 212 258 316
#     4  11  21  34  51  75 104 134 171 220 266 304
#     4  11  21  34  51  75 104 134 171 220 266 304
#
# _framework density 16.439193
#
# number of rings (size 3 to 8) (size 9 to 14) (size 15 to 20)
#    0.000    1.250    2.500    7.500    0.000    2.000 
#    0.000    0.000    0.000    2.250    0.000    0.875 
#    0.000    7.000    0.000    0.000    0.000    0.000 
#
# Total GULP energy -357686.144139 kJ/mol
# GULP energy per Si atom -5588.846002 kJ/mol
# Density = 1.640178 g / cm^3
# Si number density = 16.439193 Si / 1000 Ang^3
#
#
#
# Elastic Constant Matrix: (Units=GPa)
#
#
# Indices 1 2 3 4 5 6 
#
# 1 68.8084 32.9186 -2.9436 0.0000 0.0000 0.0000
# 2 32.9186 78.8336 20.5671 0.0000 0.0000 0.0000
# 3 -2.9436 20.5671 58.4923 0.0000 0.0000 0.0000
# 4 0.0000 0.0000 0.0000 59.1042 0.0000 0.0000
# 5 0.0000 0.0000 0.0000 0.0000 16.0633 0.0000
# 6 0.0000 0.0000 0.0000 0.0000 0.0000 19.0573
#
#
#
# Elastic Compliance Matrix: (Units=1/GPa)
#
#
# Indices 1 2 3 4 5 6 
#
# 1 0.019026 -0.009022 0.004130 0.000000 0.000000 0.000000
# 2 -0.009022 0.018244 -0.006869 0.000000 0.000000 0.000000
# 3 0.004130 -0.006869 0.019719 0.000000 0.000000 0.000000
# 4 0.000000 0.000000 0.000000 0.016919 0.000000 0.000000
# 5 0.000000 0.000000 0.000000 0.000000 0.062254 0.000000
# 6 0.000000 0.000000 0.000000 0.000000 0.000000 0.052473
#
#
# Mechanical properties :
#
#
# Convention : Reuss Voigt Hill
#
# Bulk Modulus (GPa) = 29.88016 34.13538 32.00777
# Shear Modulus (GPa) = 22.38992 29.21778 25.80385
#
# Velocity S-wave (km/s) = 3.69451 4.22041 3.96618
# Velocity P-wave (km/s) = 6.03447 6.67524 6.36293
#
# Compressibility (1/GPa) = 0.03346702
#
# Stress axis : x y z
#
# Youngs Moduli (GPa) = 52.55941 54.81117 50.71141
#
# Poissons Ratio (x) = 0.49452 -0.20943
# Poissons Ratio (y) = 0.47420 0.34834
# Poissons Ratio (z) = -0.21706 0.37651
#
# Static dielectric constant tensor:
#      x y z
#    x 1.554390 0.000000 0.000000 
#    y 0.000000 1.525680 0.000000 
#    z 0.000000 0.000000 1.566800 
# 
# From -- ./inp_files/32040.got.cif
#   From: 2010.05.17/outbox.cif.g08.bks.cpg/sg72_17_cif.got.tgz:32040.got - 2010.06.03 17:03:01.
