data_PCOD9525552
_publ_section_title
;
Structure prediction by ZEFSAII (Michael W. Deem and Ramdas Pophale) SiO2 
 PCOD9525552
Probable space group: I B A M
;
_chemical_formula_sum "Si O2"
_cell_formula_units_Z 48
_cell_length_a 7.070761
_cell_length_b 26.070298
_cell_length_c 10.372218
_cell_angle_alpha 90.000000
_cell_angle_beta 90.000000
_cell_angle_gamma 90.000000
_cell_volume 1911.981956
_symmetry_space_group_name_H-M "I B A M"
_symmetry_group_IT_number 72
_symmetry_cell_setting 'orthorhombic'
loop_
_space_group_symop_operation_xyz
x,y,z
-x,-y,z
x,-y,1/2-z
-x,y,1/2-z
-x,-y,-z
x,y,-z
-x,y,1/2+z
x,-y,1/2+z
1/2+x,1/2+y,1/2+z
1/2-x,1/2-y,1/2+z
1/2+x,1/2-y,-z
1/2-x,1/2+y,-z
1/2-x,1/2-y,1/2-z
1/2+x,1/2+y,1/2-z
1/2-x,1/2+y,z
1/2+x,1/2-y,z
loop_
_atom_site_type_symbol
_atom_site_label
_atom_site_fract_x
_atom_site_fract_y
_atom_site_fract_z
Si Si1 0.635790 0.322341 0.000000
Si Si2 0.637385 0.350536 0.667360
Si Si3 0.431663 0.797959 0.000000
Si Si4 0.297551 0.530569 0.639567
O O1 0.602023 0.335876 0.830276
O O2 0.862127 0.322780 0.000000
O O3 0.560464 0.263355 0.000000
O O4 0.568463 0.355869 0.500000
O O5 0.815070 0.315476 0.626863
O O6 0.680828 0.410859 0.682153
O O7 0.500000 0.500000 0.627126
O O8 0.195878 0.500000 0.750000
O O9 0.207188 0.529662 0.500000
#
# Coordination Sequence:
#
# PCOD9525552 Si02
#       4
#     8  16   8  16
#     4  11  23  44  63  92 135 173 221 281 331 401
#     4  11  22  40  69  98 129 177 223 272 342 400
#     4  11  23  44  63  92 135 173 221 281 331 401
#     4  10  18  34  66 102 126 174 228 272 329 408
#
# _framework density 25.104841
#
# number of rings (size 3 to 8) (size 9 to 14) (size 15 to 20)
#    0.000    1.333   10.000    0.000    0.000    2.667 
#    0.000    0.000    0.000    6.000    0.000    0.000 
#    0.000    0.000    0.000    0.000    0.000    0.000 
#
# Total GULP energy -133644.971475 kJ/mol
# GULP energy per Si atom -5568.540478 kJ/mol
# Density = 2.504770 g / cm^3
# Si number density = 25.104841 Si / 1000 Ang^3
#
#
#
# Elastic Constant Matrix: (Units=GPa)
#
#
# Indices 1 2 3 4 5 6 
#
# 1 139.1133 40.2675 64.3688 0.0000 0.0000 0.0000
# 2 40.2675 216.3833 77.8615 0.0000 0.0000 0.0000
# 3 64.3688 77.8615 238.8333 -0.0002 -0.0001 0.0000
# 4 0.0000 0.0000 -0.0002 58.3627 0.0000 0.0000
# 5 0.0000 0.0000 -0.0001 0.0000 43.4775 0.0000
# 6 0.0000 0.0000 0.0000 0.0000 0.0000 -24.7180
#
#
#
# Elastic Compliance Matrix: (Units=1/GPa)
#
#
# Indices 1 2 3 4 5 6 
#
# 1 0.008346 -0.000843 -0.001975 0.000000 0.000000 0.000000
# 2 -0.000843 0.005321 -0.001507 0.000000 0.000000 0.000000
# 3 -0.001975 -0.001507 0.005211 0.000000 0.000000 0.000000
# 4 0.000000 0.000000 0.000000 0.017134 0.000000 0.000000
# 5 0.000000 0.000000 0.000000 0.000000 0.023000 0.000000
# 6 0.000000 0.000000 0.000000 0.000000 0.000000 -0.040456
#
#
# Mechanical properties :
#
#
# Convention : Reuss Voigt Hill
#
# Bulk Modulus (GPa) = 97.77240 106.59173 102.18207
# Shear Modulus (GPa) = 163.32170 42.87990 103.10080
#
# Velocity S-wave (km/s) = 8.07447 4.13732 6.41539
# Velocity P-wave (km/s) = 11.22317 8.08542 9.78094
#
# Compressibility (1/GPa) = 0.01022783
#
# Stress axis : x y z
#
# Youngs Moduli (GPa) = 119.81832 187.94620 191.91375
#
# Poissons Ratio (x) = 0.15836 0.37897
# Poissons Ratio (y) = 0.10096 0.28931
# Poissons Ratio (z) = 0.23660 0.28333
#
# Static dielectric constant tensor:
#      x y z
#    x 1.934790 0.000000 0.000000 
#    y 0.000000 1.807110 0.000000 
#    z 0.000000 0.000000 2.686270 
# 
# From -- ./inp_files/2208.got.cif
#   From: 2010.05.17/outbox.cif.g08.bks.cpg/sg72_2_cif.got.tgz:2208.got - 2010.06.03 17:03:01.
