data_PCOD9525787
_publ_section_title
;
Structure prediction by ZEFSAII (Michael W. Deem and Ramdas Pophale) SiO2 
 PCOD9525787
Probable space group: I B A M
;
_chemical_formula_sum "Si O2"
_cell_formula_units_Z 112
_cell_length_a 23.570389
_cell_length_b 13.231608
_cell_length_c 17.480684
_cell_angle_alpha 90.000000
_cell_angle_beta 90.000000
_cell_angle_gamma 90.000000
_cell_volume 5451.773423
_symmetry_space_group_name_H-M "I B A M"
_symmetry_group_IT_number 72
_symmetry_cell_setting 'orthorhombic'
loop_
_space_group_symop_operation_xyz
x,y,z
-x,-y,z
x,-y,1/2-z
-x,y,1/2-z
-x,-y,-z
x,y,-z
-x,y,1/2+z
x,-y,1/2+z
1/2+x,1/2+y,1/2+z
1/2-x,1/2-y,1/2+z
1/2+x,1/2-y,-z
1/2-x,1/2+y,-z
1/2-x,1/2-y,1/2-z
1/2+x,1/2+y,1/2-z
1/2-x,1/2+y,z
1/2+x,1/2-y,z
loop_
_atom_site_type_symbol
_atom_site_label
_atom_site_fract_x
_atom_site_fract_y
_atom_site_fract_z
Si Si1 0.644373 0.542609 0.906900
Si Si2 0.655240 0.790873 0.592544
Si Si3 0.964921 0.589654 0.670665
Si Si4 0.761556 0.109369 0.408077
Si Si5 0.162401 0.511024 0.833063
Si Si6 0.939333 0.863215 0.907322
Si Si7 0.440369 0.299402 0.907752
O O1 0.703276 0.491377 0.882887
O O2 0.597550 0.459220 0.884389
O O3 0.618344 0.649166 0.880787
O O4 0.646665 0.546993 0.000000
O O5 0.656211 0.797917 0.500000
O O6 0.704558 0.710626 0.615520
O O7 0.595880 0.736991 0.616017
O O8 0.661704 0.901865 0.626539
O O9 0.901311 0.549242 0.679671
O O10 0.956547 0.691301 0.624440
O O11 0.000000 0.500000 0.630011
O O12 0.000000 0.607211 0.750000
O O13 0.762207 0.110756 0.500000
O O14 0.698328 0.093104 0.379615
O O15 0.189860 0.500000 0.750000
O O16 0.004620 0.865553 0.884769
O O17 0.938452 0.863239 0.000000
O O18 0.438336 0.295165 0.000000
#
# Coordination Sequence:
#
# PCOD9525787 Si02
#       7
#    16  16  16  16  16  16  16
#     4   8  15  31  55  89 126 151 178 231 301 358
#     4   9  19  37  61  91 124 159 197 245 303 352
#     4  11  24  44  58  74 113 160 197 244 308 357
#     4   9  20  39  63  92 127 158 191 245 303 353
#     4  12  24  39  63  85 111 160 210 242 289 361
#     4   8  14  27  53  87 120 153 187 227 286 355
#     4  10  19  31  59  94 116 146 196 249 294 350
#
# _framework density 20.543773999999999
#
# number of rings (size 3 to 8) (size 9 to 14) (size 15 to 20)
#    0.000    2.429    1.429    3.429    0.000    4.857 
#    0.000    2.857    0.000    0.857    0.000    0.000 
#    0.000    0.000    0.000    0.000    0.000    0.000 
#
# Total GULP energy -312094.985897 kJ/mol
# GULP energy per Si atom -5573.124748 kJ/mol
# Density = 2.049701 g / cm^3
# Si number density = 20.543774 Si / 1000 Ang^3
#
#
#
# Elastic Constant Matrix: (Units=GPa)
#
#
# Indices 1 2 3 4 5 6 
#
# 1 103.5984 23.7659 22.2103 0.0000 0.0000 0.0000
# 2 23.7659 59.0840 15.7130 0.0000 0.0000 0.0000
# 3 22.2103 15.7130 10.6559 0.0000 0.0000 0.0000
# 4 0.0000 0.0000 0.0000 48.9196 0.0000 0.0000
# 5 0.0000 0.0000 0.0000 0.0000 19.5596 0.0000
# 6 0.0000 0.0000 0.0000 0.0000 0.0000 23.0214
#
#
#
# Elastic Compliance Matrix: (Units=1/GPa)
#
#
# Indices 1 2 3 4 5 6 
#
# 1 0.018163 0.004544 -0.044558 0.000000 0.000000 0.000000
# 2 0.004544 0.028981 -0.052206 0.000000 0.000000 0.000000
# 3 -0.044558 -0.052206 0.263699 0.000000 0.000000 0.000000
# 4 0.000000 0.000000 0.000000 0.020442 0.000000 0.000000
# 5 0.000000 0.000000 0.000000 0.000000 0.051126 0.000000
# 6 0.000000 0.000000 0.000000 0.000000 0.000000 0.043438
#
#
# Mechanical properties :
#
#
# Convention : Reuss Voigt Hill
#
# Bulk Modulus (GPa) = 7.91118 32.96853 20.43985
# Shear Modulus (GPa) = 7.66374 25.74338 16.70356
#
# Velocity S-wave (km/s) = 1.93353 3.54375 2.85453
# Velocity P-wave (km/s) = 2.97388 5.72949 4.56459
#
# Compressibility (1/GPa) = 0.12640337
#
# Stress axis : x y z
#
# Youngs Moduli (GPa) = 55.05726 34.50512 3.79220
#
# Poissons Ratio (x) = -0.15679 0.16897
# Poissons Ratio (y) = -0.25018 0.19798
# Poissons Ratio (z) = 2.45323 1.80138
#
# Static dielectric constant tensor:
#      x y z
#    x 1.747380 0.000000 0.000000 
#    y 0.000000 1.779410 0.000000 
#    z 0.000000 0.000000 1.741040 
# 
# From -- ./inp_files/40347.got.cif
#   From: 2010.05.17/outbox.cif.g08.bks.cpg/sg72_21_cif.got.tgz:40347.got - 2010.06.03 17:03:01.
