data_PCOD9525542
_publ_section_title
;
Structure prediction by ZEFSAII (Michael W. Deem and Ramdas Pophale) SiO2 
 PCOD9525542
Probable space group: I B A M
;
_chemical_formula_sum "Si O2"
_cell_formula_units_Z 68
_cell_length_a 18.140553
_cell_length_b 7.097022
_cell_length_c 20.672946
_cell_angle_alpha 90.000000
_cell_angle_beta 90.000000
_cell_angle_gamma 90.000000
_cell_volume 2661.515770
_symmetry_space_group_name_H-M "I B A M"
_symmetry_group_IT_number 72
_symmetry_cell_setting 'orthorhombic'
loop_
_space_group_symop_operation_xyz
x,y,z
-x,-y,z
x,-y,1/2-z
-x,y,1/2-z
-x,-y,-z
x,y,-z
-x,y,1/2+z
x,-y,1/2+z
1/2+x,1/2+y,1/2+z
1/2-x,1/2-y,1/2+z
1/2+x,1/2-y,-z
1/2-x,1/2+y,-z
1/2-x,1/2-y,1/2-z
1/2+x,1/2+y,1/2-z
1/2-x,1/2+y,z
1/2+x,1/2-y,z
loop_
_atom_site_type_symbol
_atom_site_label
_atom_site_fract_x
_atom_site_fract_y
_atom_site_fract_z
Si Si1 0.000000 0.500000 0.250000
Si Si2 0.309016 0.357113 0.000000
Si Si3 0.585931 0.753283 0.643711
Si Si4 0.353177 0.631659 0.630892
Si Si5 0.365500 0.214022 0.500000
Si Si6 0.286570 0.985876 0.680162
O O1 0.966280 0.646403 0.196083
O O2 0.347315 0.264854 0.937599
O O3 0.219567 0.365686 0.000000
O O4 0.344973 0.564315 0.000000
O O5 0.585913 0.524582 0.644161
O O6 0.588806 0.815181 0.567236
O O7 0.663702 0.833474 0.669092
O O8 0.338713 0.803623 0.678814
O O9 0.278221 0.506532 0.629180
O O10 0.250341 0.000000 0.750000
#
# Coordination Sequence:
#
# PCOD9525542 Si02
#       6
#     4   8  16  16   8  16
#     4  12  28  54  62  88 142 194 256 280 312 402
#     4  10  18  34  60 105 144 158 203 268 369 441
#     4  11  25  43  67  96 138 181 231 284 336 410
#     4  11  22  37  65 102 142 168 211 285 359 425
#     4  10  20  37  68 105 135 175 210 283 360 420
#     4  12  22  36  62 102 136 174 216 277 356 428
#
# _framework density 25.54935
#
# number of rings (size 3 to 8) (size 9 to 14) (size 15 to 20)
#    0.000    0.941    5.882    2.118    0.000    0.471 
#    0.000    2.353    0.000    0.000    0.000    6.588 
#    0.000    0.000    0.000    0.000    0.000    0.000 
#
# Total GULP energy -189425.321516 kJ/mol
# GULP energy per Si atom -5571.332986 kJ/mol
# Density = 2.549120 g / cm^3
# Si number density = 25.549350 Si / 1000 Ang^3
#
#
#
# Elastic Constant Matrix: (Units=GPa)
#
#
# Indices 1 2 3 4 5 6 
#
# 1 34.6933 -0.0805 10.7573 0.0000 0.0000 0.0000
# 2 -0.0805 111.7684 14.3445 0.0000 0.0000 0.0000
# 3 10.7573 14.3445 183.7976 0.0000 0.0000 0.0000
# 4 0.0000 0.0000 0.0000 26.4088 0.0000 0.0000
# 5 0.0000 0.0000 0.0000 0.0000 25.9687 0.0000
# 6 0.0000 0.0000 0.0000 0.0000 0.0000 9.1498
#
#
#
# Elastic Compliance Matrix: (Units=1/GPa)
#
#
# Indices 1 2 3 4 5 6 
#
# 1 0.029363 0.000244 -0.001738 0.000000 0.000000 0.000000
# 2 0.000244 0.009040 -0.000720 0.000000 0.000000 0.000000
# 3 -0.001738 -0.000720 0.005599 0.000000 0.000000 0.000000
# 4 0.000000 0.000000 0.000000 0.037866 0.000000 0.000000
# 5 0.000000 0.000000 0.000000 0.000000 0.038508 0.000000
# 6 0.000000 0.000000 0.000000 0.000000 0.000000 0.109292
#
#
# Mechanical properties :
#
#
# Convention : Reuss Voigt Hill
#
# Bulk Modulus (GPa) = 25.26840 42.25576 33.76208
# Shear Modulus (GPa) = 20.21955 32.65468 26.43711
#
# Velocity S-wave (km/s) = 2.81622 3.57893 3.22024
# Velocity P-wave (km/s) = 4.52618 5.80113 5.20286
#
# Compressibility (1/GPa) = 0.03957512
#
# Stress axis : x y z
#
# Youngs Moduli (GPa) = 34.05606 110.62405 178.61467
#
# Poissons Ratio (x) = -0.02701 0.31037
# Poissons Ratio (y) = -0.00832 0.12857
# Poissons Ratio (z) = 0.05918 0.07963
#
# Static dielectric constant tensor:
#      x y z
#    x 2.007970 0.000000 0.000000 
#    y 0.000000 2.069630 0.000000 
#    z 0.000000 0.000000 2.175110 
# 
# From -- ./inp_files/38720.got.cif
#   From: 2010.05.17/outbox.cif.g08.bks.cpg/sg72_20_cif.got.tgz:38720.got - 2010.06.03 17:03:01.
