data_PCOD9525526
_publ_section_title
;
Structure prediction by ZEFSAII (Michael W. Deem and Ramdas Pophale) SiO2 
 PCOD9525526
Probable space group: I B A M
;
_chemical_formula_sum "Si O2"
_cell_formula_units_Z 56
_cell_length_a 4.917569
_cell_length_b 21.076159
_cell_length_c 24.200033
_cell_angle_alpha 90.000000
_cell_angle_beta 90.000000
_cell_angle_gamma 90.000000
_cell_volume 2508.175301
_symmetry_space_group_name_H-M "I B A M"
_symmetry_group_IT_number 72
_symmetry_cell_setting 'orthorhombic'
loop_
_space_group_symop_operation_xyz
x,y,z
-x,-y,z
x,-y,1/2-z
-x,y,1/2-z
-x,-y,-z
x,y,-z
-x,y,1/2+z
x,-y,1/2+z
1/2+x,1/2+y,1/2+z
1/2-x,1/2-y,1/2+z
1/2+x,1/2-y,-z
1/2-x,1/2+y,-z
1/2-x,1/2-y,1/2-z
1/2+x,1/2+y,1/2-z
1/2-x,1/2+y,z
1/2+x,1/2-y,z
loop_
_atom_site_type_symbol
_atom_site_label
_atom_site_fract_x
_atom_site_fract_y
_atom_site_fract_z
Si Si1 0.553656 0.327498 0.691718
Si Si2 0.504520 0.789553 0.000000
Si Si3 0.517885 0.155290 0.381237
Si Si4 0.239747 0.456315 0.830877
O O1 0.500000 0.294191 0.750000
O O2 0.284235 0.342387 0.656840
O O3 0.685544 0.396370 0.707080
O O4 0.786192 0.301949 0.649879
O O5 0.574108 0.823668 0.942948
O O6 0.185170 0.774064 0.000000
O O7 0.386327 0.084655 0.381493
O O8 0.500000 0.500000 0.841861
O O9 0.000000 0.500000 0.809838
#
# Coordination Sequence:
#
# PCOD9525526 Si02
#       4
#    16   8  16  16
#     4  10  20  36  59  88 131 166 193 236 286 349
#     4  12  26  46  74  87 104 149 210 268 308 358
#     4  10  22  39  59  91 122 151 208 246 299 346
#     4  10  18  34  55  89 129 165 200 229 278 348
#
# _framework density 22.326988
#
# number of rings (size 3 to 8) (size 9 to 14) (size 15 to 20)
#    1.714    0.000    2.857    2.571    0.000    0.571 
#    5.143    1.429    0.000   17.143    0.000    0.000 
#    0.000    0.000    0.000    0.000    0.000    0.000 
#
# Total GULP energy -156150.068849 kJ/mol
# GULP energy per Si atom -5576.788173 kJ/mol
# Density = 2.227617 g / cm^3
# Si number density = 22.326988 Si / 1000 Ang^3
#
#
#
# Elastic Constant Matrix: (Units=GPa)
#
#
# Indices 1 2 3 4 5 6 
#
# 1 157.9061 12.6700 43.7996 0.0000 0.0000 0.0000
# 2 12.6700 73.0179 10.7248 0.0000 0.0000 0.0000
# 3 43.7996 10.7248 165.9434 0.0000 0.0000 0.0000
# 4 0.0000 0.0000 0.0000 12.9871 0.0000 0.0000
# 5 0.0000 0.0000 0.0000 0.0000 28.4445 0.0000
# 6 0.0000 0.0000 0.0000 0.0000 0.0000 31.3027
#
#
#
# Elastic Compliance Matrix: (Units=1/GPa)
#
#
# Indices 1 2 3 4 5 6 
#
# 1 0.006896 -0.000938 -0.001760 0.000000 0.000000 0.000000
# 2 -0.000938 0.013954 -0.000654 0.000000 0.000000 0.000000
# 3 -0.001760 -0.000654 0.006533 0.000000 0.000000 0.000000
# 4 0.000000 0.000000 0.000000 0.076999 0.000000 0.000000
# 5 0.000000 0.000000 0.000000 0.000000 0.035156 0.000000
# 6 0.000000 0.000000 0.000000 0.000000 0.000000 0.031946
#
#
# Mechanical properties :
#
#
# Convention : Reuss Voigt Hill
#
# Bulk Modulus (GPa) = 48.35755 59.02845 53.69300
# Shear Modulus (GPa) = 27.01504 36.52506 31.77005
#
# Velocity S-wave (km/s) = 3.48224 4.04903 3.77629
# Velocity P-wave (km/s) = 6.15417 6.95378 6.56616
#
# Compressibility (1/GPa) = 0.02067929
#
# Stress axis : x y z
#
# Youngs Moduli (GPa) = 145.00695 71.66320 153.07234
#
# Poissons Ratio (x) = 0.06723 0.26934
# Poissons Ratio (y) = 0.13604 0.10014
# Poissons Ratio (z) = 0.25515 0.04688
#
# Static dielectric constant tensor:
#      x y z
#    x 1.866400 0.000000 0.000000 
#    y 0.000000 1.927070 0.000000 
#    z 0.000000 0.000000 1.893770 
# 
# From -- ./inp_files/41297.got.cif
#   From: 2010.05.17/outbox.cif.g08.bks.cpg/sg72_21_cif.got.tgz:41297.got - 2010.06.03 17:03:01.
