data_PCOD9525418
_publ_section_title
;
Structure prediction by ZEFSAII (Michael W. Deem and Ramdas Pophale) SiO2 
 PCOD9525418
Probable space group: I B A M
;
_chemical_formula_sum "Si O2"
_cell_formula_units_Z 72
_cell_length_a 18.245619
_cell_length_b 5.579268
_cell_length_c 28.552537
_cell_angle_alpha 90.000000
_cell_angle_beta 90.000000
_cell_angle_gamma 90.000000
_cell_volume 2906.568269
_symmetry_space_group_name_H-M "I B A M"
_symmetry_group_IT_number 72
_symmetry_cell_setting 'orthorhombic'
loop_
_space_group_symop_operation_xyz
x,y,z
-x,-y,z
x,-y,1/2-z
-x,y,1/2-z
-x,-y,-z
x,y,-z
-x,y,1/2+z
x,-y,1/2+z
1/2+x,1/2+y,1/2+z
1/2-x,1/2-y,1/2+z
1/2+x,1/2-y,-z
1/2-x,1/2+y,-z
1/2-x,1/2-y,1/2-z
1/2+x,1/2+y,1/2-z
1/2-x,1/2+y,z
1/2+x,1/2-y,z
loop_
_atom_site_type_symbol
_atom_site_label
_atom_site_fract_x
_atom_site_fract_y
_atom_site_fract_z
Si Si1 0.417139 0.747804 0.768621
Si Si2 0.096308 0.140851 0.123275
Si Si3 0.253955 0.904910 0.334923
Si Si4 0.387296 0.862127 0.593662
Si Si5 0.795652 0.709137 0.500000
O O1 0.382558 0.500000 0.750000
O O2 0.500000 0.749445 0.750000
O O3 0.423737 0.717906 0.824162
O O4 0.385370 0.000000 0.750000
O O5 0.185609 0.102418 0.128166
O O6 0.079224 0.370420 0.091052
O O7 0.068949 0.876723 0.108660
O O8 0.248285 0.655144 0.308585
O O9 0.328023 0.895989 0.364675
O O10 0.345753 0.802878 0.546001
O O11 0.747169 0.463974 0.500000
#
# Coordination Sequence:
#
# PCOD9525418 Si02
#       5
#    16  16  16  16   8
#     4  10  21  37  57  80 103 124 167 235 292 342
#     4  10  18  32  51  71 103 142 174 218 277 323
#     4   8  14  25  41  62  90 132 171 193 229 293
#     4  10  19  30  48  74 108 151 185 212 252 311
#     4  12  20  30  48  78 116 154 200 232 246 284
#
# _framework density 24.771481999999999
#
# number of rings (size 3 to 8) (size 9 to 14) (size 15 to 20)
#    0.000    2.222    0.000    6.667    0.000    0.000 
#    0.000    0.000    0.000   36.000    0.000    0.000 
#    0.000   71.111    0.000    0.000    0.000    0.000 
#
# Total GULP energy -201114.502465 kJ/mol
# GULP energy per Si atom -5586.513957 kJ/mol
# Density = 2.471510 g / cm^3
# Si number density = 24.771482 Si / 1000 Ang^3
#
#
#
# Elastic Constant Matrix: (Units=GPa)
#
#
# Indices 1 2 3 4 5 6 
#
# 1 55.9429 19.2174 10.0938 0.0000 0.0000 0.0000
# 2 19.2174 310.9898 47.1256 0.0000 0.0000 0.0000
# 3 10.0938 47.1256 117.9781 0.0000 0.0000 0.0000
# 4 0.0000 0.0000 0.0000 23.5522 0.0000 0.0000
# 5 0.0000 0.0000 0.0000 0.0000 -8.3953 0.0000
# 6 0.0000 0.0000 0.0000 0.0000 0.0000 32.9530
#
#
#
# Elastic Compliance Matrix: (Units=1/GPa)
#
#
# Indices 1 2 3 4 5 6 
#
# 1 0.018420 -0.000957 -0.001194 0.000000 0.000000 0.000000
# 2 -0.000957 0.003472 -0.001305 0.000000 0.000000 0.000000
# 3 -0.001194 -0.001305 0.009100 0.000000 0.000000 0.000000
# 4 0.000000 0.000000 0.000000 0.042459 0.000000 0.000000
# 5 0.000000 0.000000 0.000000 0.000000 -0.119114 0.000000
# 6 0.000000 0.000000 0.000000 0.000000 0.000000 0.030346
#
#
# Mechanical properties :
#
#
# Convention : Reuss Voigt Hill
#
# Bulk Modulus (GPa) = 41.52888 70.86493 56.19690
# Shear Modulus (GPa) = -13206.59318 36.85356 -6584.86981
#
# Velocity S-wave (km/s) = -73.09544 3.86131 -51.61412
# Velocity P-wave (km/s) = 84.30376 6.96772 59.40781
#
# Compressibility (1/GPa) = 0.02407963
#
# Stress axis : x y z
#
# Youngs Moduli (GPa) = 54.28999 287.97909 109.89500
#
# Poissons Ratio (x) = 0.27570 0.13116
# Poissons Ratio (y) = 0.05198 0.14343
# Poissons Ratio (z) = 0.06480 0.37586
#
# Static dielectric constant tensor:
#      x y z
#    x 2.031900 0.000000 0.000000 
#    y 0.000000 2.192170 0.000000 
#    z 0.000000 0.000000 1.863170 
# 
# From -- ./inp_files/41447.got.cif
#   From: 2010.05.17/outbox.cif.g08.bks.cpg/sg72_21_cif.got.tgz:41447.got - 2010.06.03 17:03:01.
