data_PCOD9525245
_publ_section_title
;
Structure prediction by ZEFSAII (Michael W. Deem and Ramdas Pophale) SiO2 
 PCOD9525245
Probable space group: I B A M
;
_chemical_formula_sum "Si O2"
_cell_formula_units_Z 68
_cell_length_a 13.850105
_cell_length_b 5.522972
_cell_length_c 36.994842
_cell_angle_alpha 90.000000
_cell_angle_beta 90.000000
_cell_angle_gamma 90.000000
_cell_volume 2829.873903
_symmetry_space_group_name_H-M "I B A M"
_symmetry_group_IT_number 72
_symmetry_cell_setting 'orthorhombic'
loop_
_space_group_symop_operation_xyz
x,y,z
-x,-y,z
x,-y,1/2-z
-x,y,1/2-z
-x,-y,-z
x,y,-z
-x,y,1/2+z
x,-y,1/2+z
1/2+x,1/2+y,1/2+z
1/2-x,1/2-y,1/2+z
1/2+x,1/2-y,-z
1/2-x,1/2+y,-z
1/2-x,1/2-y,1/2-z
1/2+x,1/2+y,1/2-z
1/2-x,1/2+y,z
1/2+x,1/2-y,z
loop_
_atom_site_type_symbol
_atom_site_label
_atom_site_fract_x
_atom_site_fract_y
_atom_site_fract_z
Si Si1 0.500000 0.500000 0.750000
Si Si2 0.362407 0.628691 0.543087
Si Si3 0.102948 0.946882 0.818875
Si Si4 0.858839 0.628556 0.072165
Si Si5 0.884814 0.448676 0.655600
O O1 0.430417 0.632985 0.721435
O O2 0.365338 0.640542 0.500000
O O3 0.250484 0.623767 0.556500
O O4 0.403362 0.373915 0.556603
O O5 0.403386 0.874470 0.559797
O O6 0.142427 0.221371 0.818741
O O7 0.155019 0.719679 0.836680
O O8 0.000000 0.000000 0.838993
O O9 0.858801 0.630872 0.115306
O O10 0.000000 0.500000 0.659041
#
# Coordination Sequence:
#
# PCOD9525245 Si02
#       5
#     4  16  16  16  16
#     4   8  16  30  48  66  96 134 154 190 212 258
#     4  10  19  33  51  69  86 116 162 211 237 261
#     4   8  17  27  44  64  93 128 151 182 215 269
#     4  10  18  29  49  68  93 119 152 193 246 272
#     4  10  18  30  43  69 100 127 144 181 238 285
#
# _framework density 24.029339
#
# number of rings (size 3 to 8) (size 9 to 14) (size 15 to 20)
#    0.706    1.882    0.000    4.941    0.000    1.882 
#    0.000    0.000    0.000    7.765    0.000    0.000 
#    0.000   75.294    0.000    0.000    0.000    0.000 
#
# Total GULP energy -189499.694504 kJ/mol
# GULP energy per Si atom -5573.520427 kJ/mol
# Density = 2.397465 g / cm^3
# Si number density = 24.029339 Si / 1000 Ang^3
#
#
#
# Elastic Constant Matrix: (Units=GPa)
#
#
# Indices 1 2 3 4 5 6 
#
# 1 75.1870 9.7275 -14.7152 0.0000 0.0000 0.0000
# 2 9.7275 230.3895 36.0192 0.0000 0.0000 0.0000
# 3 -14.7152 36.0192 131.4953 0.0000 0.0000 0.0000
# 4 0.0000 0.0000 0.0000 66.9137 0.0000 0.0000
# 5 0.0000 0.0000 0.0000 0.0000 41.0017 0.0000
# 6 0.0000 0.0000 0.0000 0.0000 0.0000 -12.3810
#
#
#
# Elastic Compliance Matrix: (Units=1/GPa)
#
#
# Indices 1 2 3 4 5 6 
#
# 1 0.013759 -0.000858 0.001775 0.000000 0.000000 0.000000
# 2 -0.000858 0.004588 -0.001353 0.000000 0.000000 0.000000
# 3 0.001775 -0.001353 0.008174 0.000000 0.000000 0.000000
# 4 0.000000 0.000000 0.000000 0.014945 0.000000 0.000000
# 5 0.000000 0.000000 0.000000 0.000000 0.024389 0.000000
# 6 0.000000 0.000000 0.000000 0.000000 0.000000 -0.080769
#
#
# Mechanical properties :
#
#
# Convention : Reuss Voigt Hill
#
# Bulk Modulus (GPa) = 38.98951 55.45944 47.22447
# Shear Modulus (GPa) = -910.42064 46.17624 -432.12220
#
# Velocity S-wave (km/s) = -19.48593 4.38843 -13.42466
# Velocity P-wave (km/s) = 22.13611 6.98625 14.85260
#
# Compressibility (1/GPa) = 0.02564792
#
# Stress axis : x y z
#
# Youngs Moduli (GPa) = 72.68192 217.94917 122.33879
#
# Poissons Ratio (x) = 0.18709 -0.21713
# Poissons Ratio (y) = 0.06239 0.16551
# Poissons Ratio (z) = -0.12900 0.29486
#
# Static dielectric constant tensor:
#      x y z
#    x 1.954440 0.000000 0.000000 
#    y 0.000000 1.910920 0.000000 
#    z 0.000000 0.000000 1.829230 
# 
# From -- ./inp_files/49584.got.cif
#   From: 2010.05.17/outbox.cif.g08.bks.cpg/sg72_25_cif.got.tgz:49584.got - 2010.06.03 17:03:01.
