data_PCOD9525777
_publ_section_title
;
Structure prediction by ZEFSAII (Michael W. Deem and Ramdas Pophale) SiO2 
 PCOD9525777
Probable space group: I B A M
;
_chemical_formula_sum "Si O2"
_cell_formula_units_Z 80
_cell_length_a 9.937478
_cell_length_b 25.400427
_cell_length_c 17.586670
_cell_angle_alpha 90.000000
_cell_angle_beta 90.000000
_cell_angle_gamma 90.000000
_cell_volume 4439.160140
_symmetry_space_group_name_H-M "I B A M"
_symmetry_group_IT_number 72
_symmetry_cell_setting 'orthorhombic'
loop_
_space_group_symop_operation_xyz
x,y,z
-x,-y,z
x,-y,1/2-z
-x,y,1/2-z
-x,-y,-z
x,y,-z
-x,y,1/2+z
x,-y,1/2+z
1/2+x,1/2+y,1/2+z
1/2-x,1/2-y,1/2+z
1/2+x,1/2-y,-z
1/2-x,1/2+y,-z
1/2-x,1/2-y,1/2-z
1/2+x,1/2+y,1/2-z
1/2-x,1/2+y,z
1/2+x,1/2-y,z
loop_
_atom_site_type_symbol
_atom_site_label
_atom_site_fract_x
_atom_site_fract_y
_atom_site_fract_z
Si Si1 0.761544 0.409416 0.412151
Si Si2 0.136496 0.172374 0.706438
Si Si3 0.581036 0.113639 0.587164
Si Si4 0.660146 0.988178 0.837132
Si Si5 0.618793 0.791359 0.188304
O O1 0.720765 0.401767 0.500000
O O2 0.685428 0.371745 0.352642
O O3 0.757373 0.470924 0.388466
O O4 0.920945 0.396370 0.405732
O O5 0.248588 0.187599 0.769105
O O6 0.117740 0.229812 0.667692
O O7 0.000000 0.157318 0.750000
O O8 0.618437 0.104855 0.500000
O O9 0.601480 0.172368 0.615617
O O10 0.664897 0.072559 0.638589
O O11 0.500000 0.000000 0.845670
O O12 0.695234 0.000000 0.750000
O O13 0.500000 0.799589 0.250000
#
# Coordination Sequence:
#
# PCOD9525777 Si02
#       5
#    16  16  16  16  16
#     4  10  19  33  53  80 115 145 178 231 291 336
#     4  10  21  35  55  81 108 151 191 225 272 340
#     4  10  19  31  53  84 113 139 181 239 288 329
#     4   9  17  28  51  82 110 142 178 227 280 333
#     4  10  19  35  57  78 107 143 191 235 273 323
#
# _framework density 18.021426999999999
#
# number of rings (size 3 to 8) (size 9 to 14) (size 15 to 20)
#    0.000    2.200    2.000    1.800    2.800    3.200 
#    0.000    1.000    0.000    5.400    0.000    7.000 
#    0.000    0.000    0.000    0.000    0.000    0.000 
#
# Total GULP energy -222912.655530 kJ/mol
# GULP energy per Si atom -5572.816388 kJ/mol
# Density = 1.798041 g / cm^3
# Si number density = 18.021427 Si / 1000 Ang^3
#
#
#
# Elastic Constant Matrix: (Units=GPa)
#
#
# Indices 1 2 3 4 5 6 
#
# 1 46.5481 13.6965 28.0492 0.0000 0.0000 0.0000
# 2 13.6965 99.9896 52.5726 0.0000 0.0000 0.0000
# 3 28.0492 52.5726 80.6326 0.0002 0.0000 0.0000
# 4 0.0000 0.0000 0.0002 65.5239 0.0000 0.0002
# 5 0.0000 0.0000 0.0000 0.0000 16.2809 0.0000
# 6 0.0000 0.0000 0.0000 0.0002 0.0000 35.2554
#
#
#
# Elastic Compliance Matrix: (Units=1/GPa)
#
#
# Indices 1 2 3 4 5 6 
#
# 1 0.027420 0.001916 -0.010788 0.000000 0.000000 0.000000
# 2 0.001916 0.015352 -0.010676 0.000000 0.000000 0.000000
# 3 -0.010788 -0.010676 0.023115 0.000000 0.000000 0.000000
# 4 0.000000 0.000000 0.000000 0.015262 0.000000 0.000000
# 5 0.000000 0.000000 0.000000 0.000000 0.061422 0.000000
# 6 0.000000 0.000000 0.000000 0.000000 0.000000 0.028364
#
#
# Mechanical properties :
#
#
# Convention : Reuss Voigt Hill
#
# Bulk Modulus (GPa) = 37.32484 46.20080 41.76282
# Shear Modulus (GPa) = 22.83518 32.26882 27.55200
#
# Velocity S-wave (km/s) = 3.56351 4.23612 3.91429
# Velocity P-wave (km/s) = 6.13904 7.04404 6.60705
#
# Compressibility (1/GPa) = 0.02679181
#
# Stress axis : x y z
#
# Youngs Moduli (GPa) = 36.46994 65.13910 43.26148
#
# Poissons Ratio (x) = -0.12480 0.46669
# Poissons Ratio (y) = -0.06988 0.46185
# Poissons Ratio (z) = 0.39342 0.69542
#
# Static dielectric constant tensor:
#      x y z
#    x 1.617850 0.000000 0.000000 
#    y 0.000000 1.637750 0.000000 
#    z 0.000000 0.000000 1.604010 
# 
# From -- ./inp_files/28181.got.cif
#   From: 2010.05.17/outbox.cif.g08.bks.cpg/sg72_15_cif.got.tgz:28181.got - 2010.06.03 17:03:01.
