data_PCOD9525642
_publ_section_title
;
Structure prediction by ZEFSAII (Michael W. Deem and Ramdas Pophale) SiO2 
 PCOD9525642
Probable space group: I B A M
;
_chemical_formula_sum "Si O2"
_cell_formula_units_Z 96
_cell_length_a 23.264646
_cell_length_b 27.460252
_cell_length_c 8.659628
_cell_angle_alpha 90.000000
_cell_angle_beta 90.000000
_cell_angle_gamma 90.000000
_cell_volume 5532.229689
_symmetry_space_group_name_H-M "I B A M"
_symmetry_group_IT_number 72
_symmetry_cell_setting 'orthorhombic'
loop_
_space_group_symop_operation_xyz
x,y,z
-x,-y,z
x,-y,1/2-z
-x,y,1/2-z
-x,-y,-z
x,y,-z
-x,y,1/2+z
x,-y,1/2+z
1/2+x,1/2+y,1/2+z
1/2-x,1/2-y,1/2+z
1/2+x,1/2-y,-z
1/2-x,1/2+y,-z
1/2-x,1/2-y,1/2-z
1/2+x,1/2+y,1/2-z
1/2-x,1/2+y,z
1/2+x,1/2-y,z
loop_
_atom_site_type_symbol
_atom_site_label
_atom_site_fract_x
_atom_site_fract_y
_atom_site_fract_z
Si Si1 0.064481 0.179588 0.686277
Si Si2 0.262252 0.300923 0.325651
Si Si3 0.646626 0.136906 0.674527
Si Si4 0.564248 0.784028 0.683662
Si Si5 0.230749 0.554089 0.814604
Si Si6 0.332904 0.383241 0.819818
O O1 0.064300 0.181813 0.500000
O O2 0.086697 0.232286 0.747767
O O3 0.103377 0.132956 0.733091
O O4 0.000000 0.174643 0.750000
O O5 0.286987 0.298017 0.500000
O O6 0.250000 0.250000 0.250000
O O7 0.201997 0.328517 0.338282
O O8 0.300183 0.332627 0.210583
O O9 0.624394 0.127818 0.500000
O O10 0.600973 0.168676 0.768480
O O11 0.676529 0.087627 0.738811
O O12 0.500000 0.789454 0.750000
O O13 0.562550 0.779456 0.500000
O O14 0.226533 0.500000 0.750000
O O15 0.291819 0.578024 0.764770
O O16 0.228921 0.554621 0.000000
O O17 0.334641 0.396004 0.000000
#
# Coordination Sequence:
#
# PCOD9525642 Si02
#       6
#    16  16  16  16  16  16
#     4  10  20  33  50  73 104 141 176 211 248 293
#     4  10  19  29  44  68  99 133 165 202 249 299
#     4   9  19  34  49  70 100 131 165 205 249 298
#     4  11  21  32  50  74 103 140 176 210 247 293
#     4  10  21  37  58  80 103 131 164 209 261 311
#     4  10  20  33  50  73 101 132 168 209 253 302
#
# _framework density 17.352858999999999
#
# number of rings (size 3 to 8) (size 9 to 14) (size 15 to 20)
#    0.000    2.000    0.000    6.500    0.000   10.667 
#    0.000    0.000    0.000    1.000    0.000    7.000 
#    0.000    0.000    0.000    0.000    0.000    0.000 
#
# Total GULP energy -267453.146753 kJ/mol
# GULP energy per Si atom -5571.940557 kJ/mol
# Density = 1.731336 g / cm^3
# Si number density = 17.352859 Si / 1000 Ang^3
#
#
#
# Elastic Constant Matrix: (Units=GPa)
#
#
# Indices 1 2 3 4 5 6 
#
# 1 59.6137 20.6199 21.4728 0.0000 0.0000 0.0000
# 2 20.6199 80.2539 19.1737 0.0000 0.0000 0.0000
# 3 21.4728 19.1737 62.6609 0.0000 0.0000 0.0000
# 4 0.0000 0.0000 0.0000 22.3980 0.0000 0.0000
# 5 0.0000 0.0000 0.0000 0.0000 24.8032 0.0000
# 6 0.0000 0.0000 0.0000 0.0000 0.0000 23.4263
#
#
#
# Elastic Compliance Matrix: (Units=1/GPa)
#
#
# Indices 1 2 3 4 5 6 
#
# 1 0.020161 -0.003808 -0.005744 0.000000 0.000000 0.000000
# 2 -0.003808 0.014162 -0.003029 0.000000 0.000000 0.000000
# 3 -0.005744 -0.003029 0.018854 0.000000 0.000000 0.000000
# 4 0.000000 0.000000 0.000000 0.044647 0.000000 0.000000
# 5 0.000000 0.000000 0.000000 0.000000 0.040317 0.000000
# 6 0.000000 0.000000 0.000000 0.000000 0.000000 0.042687
#
#
# Mechanical properties :
#
#
# Convention : Reuss Voigt Hill
#
# Bulk Modulus (GPa) = 35.69282 36.11794 35.90538
# Shear Modulus (GPa) = 23.22049 23.54297 23.38173
#
# Velocity S-wave (km/s) = 3.66202 3.68736 3.67472
# Velocity P-wave (km/s) = 6.20436 6.24403 6.22422
#
# Compressibility (1/GPa) = 0.02801684
#
# Stress axis : x y z
#
# Youngs Moduli (GPa) = 49.60183 70.60953 53.03944
#
# Poissons Ratio (x) = 0.26886 0.30463
# Poissons Ratio (y) = 0.18887 0.16064
# Poissons Ratio (z) = 0.28489 0.21386
#
# Static dielectric constant tensor:
#      x y z
#    x 1.617400 0.000000 0.000000 
#    y 0.000000 1.556030 0.000000 
#    z 0.000000 0.000000 1.609140 
# 
# From -- ./inp_files/5975.got.cif
#   From: 2010.05.17/outbox.cif.g08.bks.cpg/sg72_3_cif.got.tgz:5975.got - 2010.06.03 17:03:01.
