data_PCOD9525964
_publ_section_title
;
Structure prediction by ZEFSAII (Michael W. Deem and Ramdas Pophale) SiO2 
 PCOD9525964
Probable space group: I B A M
;
_chemical_formula_sum "Si O2"
_cell_formula_units_Z 80
_cell_length_a 27.436685
_cell_length_b 18.253552
_cell_length_c 8.367446
_cell_angle_alpha 90.000000
_cell_angle_beta 90.000000
_cell_angle_gamma 90.000000
_cell_volume 4190.558838
_symmetry_space_group_name_H-M "I B A M"
_symmetry_group_IT_number 72
_symmetry_cell_setting 'orthorhombic'
loop_
_space_group_symop_operation_xyz
x,y,z
-x,-y,z
x,-y,1/2-z
-x,y,1/2-z
-x,-y,-z
x,y,-z
-x,y,1/2+z
x,-y,1/2+z
1/2+x,1/2+y,1/2+z
1/2-x,1/2-y,1/2+z
1/2+x,1/2-y,-z
1/2-x,1/2+y,-z
1/2-x,1/2-y,1/2-z
1/2+x,1/2+y,1/2-z
1/2-x,1/2+y,z
1/2+x,1/2-y,z
loop_
_atom_site_type_symbol
_atom_site_label
_atom_site_fract_x
_atom_site_fract_y
_atom_site_fract_z
Si Si1 0.789594 0.921640 0.307799
Si Si2 0.052211 0.264539 0.812692
Si Si3 0.181167 0.381712 0.810532
Si Si4 0.922625 0.421395 0.186678
Si Si5 0.344128 0.724933 0.689860
O O1 0.789504 0.921181 0.500000
O O2 0.733402 0.911151 0.256150
O O3 0.820824 0.851448 0.255760
O O4 0.808078 0.000000 0.250000
O O5 0.056131 0.351914 0.780226
O O6 0.098203 0.229352 0.722983
O O7 0.000000 0.239063 0.750000
O O8 0.057171 0.251241 0.000000
O O9 0.135691 0.415239 0.715660
O O10 0.178959 0.294462 0.779950
O O11 0.174431 0.395820 0.000000
O O12 0.939148 0.500000 0.250000
O O13 0.933461 0.413239 0.000000
O O14 0.335540 0.733992 0.500000
#
# Coordination Sequence:
#
# PCOD9525964 Si02
#       5
#    16  16  16  16  16
#     4  10  22  35  52  78 110 143 179 217 261 310
#     4  11  22  38  58  80 102 133 173 217 266 318
#     4  10  19  33  52  78 108 145 184 217 254 305
#     4  11  21  34  51  76 109 145 180 219 259 305
#     4  10  20  36  55  79 107 139 176 219 262 310
#
# _framework density 19.090532
#
# number of rings (size 3 to 8) (size 9 to 14) (size 15 to 20)
#    0.000    1.600    0.000    8.400    0.000    5.200 
#    0.000    2.000    0.000    0.600    0.000    4.200 
#    0.000    0.000    0.000    0.000    0.000    0.000 
#
# Total GULP energy -223628.249430 kJ/mol
# GULP energy per Si atom -5590.706236 kJ/mol
# Density = 1.904708 g / cm^3
# Si number density = 19.090532 Si / 1000 Ang^3
#
#
#
# Elastic Constant Matrix: (Units=GPa)
#
#
# Indices 1 2 3 4 5 6 
#
# 1 60.6868 19.2461 -15.9473 0.0000 0.0000 0.0000
# 2 19.2461 74.4671 -12.3290 0.0000 0.0000 0.0000
# 3 -15.9473 -12.3290 40.4247 0.0000 0.0000 0.0000
# 4 0.0000 0.0000 0.0000 25.7204 0.0000 0.0000
# 5 0.0000 0.0000 0.0000 0.0000 16.1315 0.0000
# 6 0.0000 0.0000 0.0000 0.0000 0.0000 -5.5807
#
#
#
# Elastic Compliance Matrix: (Units=1/GPa)
#
#
# Indices 1 2 3 4 5 6 
#
# 1 0.019429 -0.003952 0.006459 0.000000 0.000000 0.000000
# 2 -0.003952 0.014947 0.003000 0.000000 0.000000 0.000000
# 3 0.006459 0.003000 0.028200 0.000000 0.000000 0.000000
# 4 0.000000 0.000000 0.000000 0.038880 0.000000 0.000000
# 5 0.000000 0.000000 0.000000 0.000000 0.061990 0.000000
# 6 0.000000 0.000000 0.000000 0.000000 0.000000 -0.179188
#
#
# Mechanical properties :
#
#
# Convention : Reuss Voigt Hill
#
# Bulk Modulus (GPa) = 13.58892 17.50202 15.54547
# Shear Modulus (GPa) = -2245.84923 19.56149 -1113.14387
#
# Velocity S-wave (km/s) = -34.33620 3.20452 -24.17339
# Velocity P-wave (km/s) = 39.55796 4.78328 27.76646
#
# Compressibility (1/GPa) = 0.07358938
#
# Stress axis : x y z
#
# Youngs Moduli (GPa) = 51.47014 66.90414 35.46059
#
# Poissons Ratio (x) = 0.26440 -0.22905
# Poissons Ratio (y) = 0.20341 -0.10636
# Poissons Ratio (z) = -0.33246 -0.20068
#
# Static dielectric constant tensor:
#      x y z
#    x 1.682020 0.000000 0.000000 
#    y 0.000000 1.656040 0.000000 
#    z 0.000000 0.000000 1.645480 
# 
# From -- ./inp_files/4777.got.cif
#   From: 2010.05.17/outbox.cif.g08.bks.cpg/sg72_3_cif.got.tgz:4777.got - 2010.06.03 17:03:01.
