data_PCOD9525421
_publ_section_title
;
Structure prediction by ZEFSAII (Michael W. Deem and Ramdas Pophale) SiO2 
 PCOD9525421
Probable space group: I B A M
;
_chemical_formula_sum "Si O2"
_cell_formula_units_Z 104
_cell_length_a 23.469535
_cell_length_b 8.929510
_cell_length_c 25.763390
_cell_angle_alpha 90.000000
_cell_angle_beta 90.000000
_cell_angle_gamma 90.000000
_cell_volume 5399.270934
_symmetry_space_group_name_H-M "I B A M"
_symmetry_group_IT_number 72
_symmetry_cell_setting 'orthorhombic'
loop_
_space_group_symop_operation_xyz
x,y,z
-x,-y,z
x,-y,1/2-z
-x,y,1/2-z
-x,-y,-z
x,y,-z
-x,y,1/2+z
x,-y,1/2+z
1/2+x,1/2+y,1/2+z
1/2-x,1/2-y,1/2+z
1/2+x,1/2-y,-z
1/2-x,1/2+y,-z
1/2-x,1/2-y,1/2-z
1/2+x,1/2+y,1/2-z
1/2-x,1/2+y,z
1/2+x,1/2-y,z
loop_
_atom_site_type_symbol
_atom_site_label
_atom_site_fract_x
_atom_site_fract_y
_atom_site_fract_z
Si Si1 0.905289 0.426925 0.675662
Si Si2 0.500000 0.500000 0.664524
Si Si3 0.571215 0.764851 0.213347
Si Si4 0.784621 0.461729 0.372574
Si Si5 0.322020 0.552730 0.305808
Si Si6 0.788194 0.821698 0.059975
Si Si7 0.106999 0.140421 0.118860
O O1 0.937303 0.585525 0.679083
O O2 0.920631 0.334466 0.728529
O O3 0.838818 0.473218 0.665606
O O4 0.913831 0.309531 0.629069
O O5 0.476207 0.638841 0.699313
O O6 0.551859 0.542226 0.627324
O O7 0.630085 0.679265 0.200367
O O8 0.731742 0.401163 0.339156
O O9 0.796819 0.344275 0.418156
O O10 0.759532 0.603746 0.403338
O O11 0.302101 0.500000 0.250000
O O12 0.352076 0.409823 0.333170
O O13 0.851199 0.890538 0.070959
O O14 0.772996 0.829378 0.000000
#
# Coordination Sequence:
#
# PCOD9525421 Si02
#       7
#    16   8  16  16  16  16  16
#     4  10  20  34  47  83 114 142 190 235 273 328
#     4  10  22  39  57  72 106 154 201 238 289 340
#     4  10  21  33  52  75 112 154 195 227 271 332
#     4  10  21  33  55  85 118 149 188 227 283 349
#     4  10  18  32  51  79 114 160 185 213 268 346
#     4  10  20  38  58  82 111 148 191 241 291 344
#     4   9  20  36  53  79 107 143 195 241 287 337
#
# _framework density 19.261859000000001
#
# number of rings (size 3 to 8) (size 9 to 14) (size 15 to 20)
#    0.000    2.154    1.538    1.385    2.154    2.462 
#    0.000    1.923    0.000    0.000    0.000    9.692 
#    0.000    0.000    0.000    0.000    0.000    0.000 
#
# Total GULP energy -289538.635311 kJ/mol
# GULP energy per Si atom -5568.050679 kJ/mol
# Density = 1.921802 g / cm^3
# Si number density = 19.261859 Si / 1000 Ang^3
#
#
#
# Elastic Constant Matrix: (Units=GPa)
#
#
# Indices 1 2 3 4 5 6 
#
# 1 78.6824 24.4891 15.8165 0.0000 0.0000 0.0000
# 2 24.4891 99.4171 18.4118 0.0000 0.0000 0.0000
# 3 15.8165 18.4118 57.1108 0.0000 0.0000 0.0000
# 4 0.0000 0.0000 0.0000 16.9786 0.0000 0.0000
# 5 0.0000 0.0000 0.0000 0.0000 17.2023 0.0000
# 6 0.0000 0.0000 0.0000 0.0000 0.0000 26.2081
#
#
#
# Elastic Compliance Matrix: (Units=1/GPa)
#
#
# Indices 1 2 3 4 5 6 
#
# 1 0.014229 -0.002951 -0.002989 0.000000 0.000000 0.000000
# 2 -0.002951 0.011309 -0.002829 0.000000 0.000000 0.000000
# 3 -0.002989 -0.002829 0.019250 0.000000 0.000000 0.000000
# 4 0.000000 0.000000 0.000000 0.058898 0.000000 0.000000
# 5 0.000000 0.000000 0.000000 0.000000 0.058132 0.000000
# 6 0.000000 0.000000 0.000000 0.000000 0.000000 0.038156
#
#
# Mechanical properties :
#
#
# Convention : Reuss Voigt Hill
#
# Bulk Modulus (GPa) = 36.69784 39.18280 37.94032
# Shear Modulus (GPa) = 22.06580 23.84398 22.95489
#
# Velocity S-wave (km/s) = 3.38830 3.52218 3.45589
# Velocity P-wave (km/s) = 5.86522 6.07678 5.97194
#
# Compressibility (1/GPa) = 0.02724956
#
# Stress axis : x y z
#
# Youngs Moduli (GPa) = 70.28018 88.42126 51.94927
#
# Poissons Ratio (x) = 0.26096 0.15528
# Poissons Ratio (y) = 0.20742 0.14695
# Poissons Ratio (z) = 0.21007 0.25011
#
# Static dielectric constant tensor:
#      x y z
#    x 1.727480 0.000000 0.000000 
#    y 0.000000 1.746010 0.000000 
#    z 0.000000 0.000000 1.664250 
# 
# From -- ./inp_files/49679.got.cif
#   From: 2010.05.17/outbox.cif.g08.bks.cpg/sg72_25_cif.got.tgz:49679.got - 2010.06.03 17:03:01.
