data_PCOD9525058
_publ_section_title
;
Structure prediction by ZEFSAII (Michael W. Deem and Ramdas Pophale) SiO2 
 PCOD9525058
Probable space group: I B A M
;
_chemical_formula_sum "Si O2"
_cell_formula_units_Z 96
_cell_length_a 27.009534
_cell_length_b 29.742623
_cell_length_c 8.597805
_cell_angle_alpha 90.000000
_cell_angle_beta 90.000000
_cell_angle_gamma 90.000000
_cell_volume 6906.912411
_symmetry_space_group_name_H-M "I B A M"
_symmetry_group_IT_number 72
_symmetry_cell_setting 'orthorhombic'
loop_
_space_group_symop_operation_xyz
x,y,z
-x,-y,z
x,-y,1/2-z
-x,y,1/2-z
-x,-y,-z
x,y,-z
-x,y,1/2+z
x,-y,1/2+z
1/2+x,1/2+y,1/2+z
1/2-x,1/2-y,1/2+z
1/2+x,1/2-y,-z
1/2-x,1/2+y,-z
1/2-x,1/2-y,1/2-z
1/2+x,1/2+y,1/2-z
1/2-x,1/2+y,z
1/2+x,1/2-y,z
loop_
_atom_site_type_symbol
_atom_site_label
_atom_site_fract_x
_atom_site_fract_y
_atom_site_fract_z
Si Si1 0.701658 0.776250 0.314387
Si Si2 0.288655 0.547613 0.187058
Si Si3 0.446129 0.643500 0.187266
Si Si4 0.147292 0.196592 0.685800
Si Si5 0.756300 0.855819 0.812925
Si Si6 0.096090 0.952275 0.687071
O O1 0.701146 0.774206 0.500000
O O2 0.750000 0.750000 0.250000
O O3 0.656658 0.747402 0.245405
O O4 0.711449 0.826822 0.257227
O O5 0.270277 0.500000 0.250000
O O6 0.258894 0.592033 0.234483
O O7 0.346296 0.552656 0.237485
O O8 0.288832 0.546198 0.000000
O O9 0.500000 0.655562 0.250000
O O10 0.403587 0.675470 0.254684
O O11 0.433207 0.592127 0.236422
O O12 0.444757 0.645318 0.000000
O O13 0.150438 0.195387 0.500000
O O14 0.192275 0.166745 0.755843
O O15 0.754999 0.852669 0.000000
O O16 0.095461 0.953937 0.500000
O O17 0.077368 0.000000 0.750000
#
# Coordination Sequence:
#
# PCOD9525058 Si02
#       6
#    16  16  16  16  16  16
#     4  10  18  28  43  64  85 106 131 164 204 248
#     4   9  17  28  42  60  82 110 138 171 210 249
#     4  11  22  36  48  62  81 104 136 175 218 261
#     4  11  20  31  46  63  81 106 134 168 211 254
#     4  10  17  29  45  63  86 109 135 170 207 247
#     4   9  18  32  46  59  77 102 134 174 218 258
#
# _framework density 13.899119000000001
#
# number of rings (size 3 to 8) (size 9 to 14) (size 15 to 20)
#    0.000    2.000    1.667    6.000    0.000    3.000 
#    0.000    1.667    0.000    0.000    0.000    0.000 
#    0.000    0.000    0.000    0.000    0.000    0.833 
#
# Total GULP energy -267672.859782 kJ/mol
# GULP energy per Si atom -5576.517912 kJ/mol
# Density = 1.386748 g / cm^3
# Si number density = 13.899119 Si / 1000 Ang^3
#
#
#
# Elastic Constant Matrix: (Units=GPa)
#
#
# Indices 1 2 3 4 5 6 
#
# 1 56.3533 53.0053 23.2363 0.0000 0.0000 0.0000
# 2 53.0053 105.1427 30.4695 0.0000 0.0000 0.0000
# 3 23.2363 30.4695 65.9350 0.0000 0.0000 0.0000
# 4 0.0000 0.0000 0.0000 23.6117 0.0000 0.0000
# 5 0.0000 0.0000 0.0000 0.0000 15.9922 0.0000
# 6 0.0000 0.0000 0.0000 0.0000 0.0000 18.3684
#
#
#
# Elastic Compliance Matrix: (Units=1/GPa)
#
#
# Indices 1 2 3 4 5 6 
#
# 1 0.035032 -0.016260 -0.004831 0.000000 0.000000 0.000000
# 2 -0.016260 0.018529 -0.002832 0.000000 0.000000 0.000000
# 3 -0.004831 -0.002832 0.018178 0.000000 0.000000 0.000000
# 4 0.000000 0.000000 0.000000 0.042352 0.000000 0.000000
# 5 0.000000 0.000000 0.000000 0.000000 0.062531 0.000000
# 6 0.000000 0.000000 0.000000 0.000000 0.000000 0.054441
#
#
# Mechanical properties :
#
#
# Convention : Reuss Voigt Hill
#
# Bulk Modulus (GPa) = 41.85741 48.98367 45.42054
# Shear Modulus (GPa) = 17.42929 19.64243 18.53586
#
# Velocity S-wave (km/s) = 3.54501 3.76335 3.65581
# Velocity P-wave (km/s) = 6.85103 7.36224 7.11123
#
# Compressibility (1/GPa) = 0.02389063
#
# Stress axis : x y z
#
# Youngs Moduli (GPa) = 28.54569 53.96989 55.01188
#
# Poissons Ratio (x) = 0.87756 0.26579
# Poissons Ratio (y) = 0.46416 0.15580
# Poissons Ratio (z) = 0.13792 0.15285
#
# Static dielectric constant tensor:
#      x y z
#    x 1.438860 0.000000 0.000000 
#    y 0.000000 1.489200 0.000000 
#    z 0.000000 0.000000 1.466240 
# 
# From -- ./inp_files/8473.got.cif
#   From: 2010.05.17/outbox.cif.g08.bks.cpg/sg72_5_cif.got.tgz:8473.got - 2010.06.03 17:03:01.
