data_PCOD9525937
_publ_section_title
;
Structure prediction by ZEFSAII (Michael W. Deem and Ramdas Pophale) SiO2 
 PCOD9525937
Probable space group: I B A M
;
_chemical_formula_sum "Si O2"
_cell_formula_units_Z 120
_cell_length_a 18.801618
_cell_length_b 20.578545
_cell_length_c 14.725138
_cell_angle_alpha 90.000000
_cell_angle_beta 90.000000
_cell_angle_gamma 90.000000
_cell_volume 5697.302291
_symmetry_space_group_name_H-M "I B A M"
_symmetry_group_IT_number 72
_symmetry_cell_setting 'orthorhombic'
loop_
_space_group_symop_operation_xyz
x,y,z
-x,-y,z
x,-y,1/2-z
-x,y,1/2-z
-x,-y,-z
x,y,-z
-x,y,1/2+z
x,-y,1/2+z
1/2+x,1/2+y,1/2+z
1/2-x,1/2-y,1/2+z
1/2+x,1/2-y,-z
1/2-x,1/2+y,-z
1/2-x,1/2-y,1/2-z
1/2+x,1/2+y,1/2-z
1/2-x,1/2+y,z
1/2+x,1/2-y,z
loop_
_atom_site_type_symbol
_atom_site_label
_atom_site_fract_x
_atom_site_fract_y
_atom_site_fract_z
Si Si1 0.297065 0.091105 0.102943
Si Si2 0.704160 0.285940 0.870623
Si Si3 0.789269 0.446937 0.389263
Si Si4 0.694902 0.327293 0.663783
Si Si5 0.574707 0.703738 0.500000
Si Si6 0.565161 0.832103 0.111341
Si Si7 0.962208 0.186500 0.156748
Si Si8 0.453314 0.061043 0.609821
O O1 0.235872 0.144578 0.099341
O O2 0.366107 0.127053 0.143075
O O3 0.272307 0.021419 0.138153
O O4 0.321497 0.075500 0.000000
O O5 0.690514 0.297340 0.764587
O O6 0.762871 0.230149 0.888424
O O7 0.631818 0.271717 0.921949
O O8 0.781753 0.439249 0.500000
O O9 0.742678 0.391580 0.342593
O O10 0.871839 0.438936 0.362344
O O11 0.614709 0.344444 0.635860
O O12 0.519361 0.679383 0.578369
O O13 0.558630 0.762995 0.157469
O O14 0.495560 0.873937 0.131715
O O15 0.568409 0.822234 0.000000
O O16 0.000000 0.166493 0.250000
O O17 0.452162 0.056418 0.500000
O O18 0.500000 0.000000 0.642373
#
# Coordination Sequence:
#
# PCOD9525937 Si02
#       8
#    16  16  16  16   8  16  16  16
#     4  10  19  37  62  93 127 172 221 265 339 419
#     4  11  24  43  68  97 132 176 229 285 345 421
#     4  10  22  35  61  97 135 178 223 282 341 410
#     4  11  26  42  64 101 139 175 231 298 343 409
#     4  12  26  42  70 101 129 179 233 293 359 422
#     4  10  19  32  60  90 128 181 218 266 338 416
#     4  12  25  43  66  99 137 181 235 297 361 423
#     4   9  16  30  53  87 131 172 220 262 321 405
#
# _framework density 21.062598999999999
#
# number of rings (size 3 to 8) (size 9 to 14) (size 15 to 20)
#    0.000    1.467    5.333    0.000    3.733    0.533 
#    0.000    0.000    0.000    2.000    0.000    0.000 
#    0.000    0.000    0.000    0.000    0.000    0.000 
#
# Total GULP energy -334167.771346 kJ/mol
# GULP energy per Si atom -5569.462856 kJ/mol
# Density = 2.101466 g / cm^3
# Si number density = 21.062599 Si / 1000 Ang^3
#
#
#
# Elastic Constant Matrix: (Units=GPa)
#
#
# Indices 1 2 3 4 5 6 
#
# 1 102.8252 2.3527 18.3215 0.0000 0.0000 0.0000
# 2 2.3527 72.4925 -11.6399 0.0000 0.0000 0.0000
# 3 18.3215 -11.6399 81.9268 0.0000 0.0000 0.0000
# 4 0.0000 0.0000 0.0000 17.4378 0.0000 0.0000
# 5 0.0000 0.0000 0.0000 0.0000 0.7651 0.0000
# 6 0.0000 0.0000 0.0000 0.0000 0.0000 18.7394
#
#
#
# Elastic Compliance Matrix: (Units=1/GPa)
#
#
# Indices 1 2 3 4 5 6 
#
# 1 0.010165 -0.000711 -0.002374 0.000000 0.000000 0.000000
# 2 -0.000711 0.014166 0.002172 0.000000 0.000000 0.000000
# 3 -0.002374 0.002172 0.013046 0.000000 0.000000 0.000000
# 4 0.000000 0.000000 0.000000 0.057347 0.000000 0.000000
# 5 0.000000 0.000000 0.000000 0.000000 1.307041 0.000000
# 6 0.000000 0.000000 0.000000 0.000000 0.000000 0.053364
#
#
# Mechanical properties :
#
#
# Convention : Reuss Voigt Hill
#
# Bulk Modulus (GPa) = 28.12992 30.59034 29.36013
# Shear Modulus (GPa) = 3.40413 23.93580 13.66997
#
# Velocity S-wave (km/s) = 1.27268 3.37473 2.55034
# Velocity P-wave (km/s) = 3.94259 5.45345 4.75837
#
# Compressibility (1/GPa) = 0.03554934
#
# Stress axis : x y z
#
# Youngs Moduli (GPa) = 98.38122 70.58998 76.65476
#
# Poissons Ratio (x) = 0.05020 0.18199
# Poissons Ratio (y) = 0.06996 -0.16647
# Poissons Ratio (z) = 0.23357 -0.15330
#
# Static dielectric constant tensor:
#      x y z
#    x 1.771480 0.000000 0.000000 
#    y 0.000000 1.754660 0.000000 
#    z 0.000000 0.000000 1.920150 
# 
# From -- ./inp_files/31954.got.cif
#   From: 2010.05.17/outbox.cif.g08.bks.cpg/sg72_16_cif.got.tgz:31954.got - 2010.06.03 17:03:01.
