data_PCOD9525881
_publ_section_title
;
Structure prediction by ZEFSAII (Michael W. Deem and Ramdas Pophale) SiO2 
 PCOD9525881
Probable space group: I B A M
;
_chemical_formula_sum "Si O2"
_cell_formula_units_Z 104
_cell_length_a 26.160952
_cell_length_b 9.546698
_cell_length_c 23.280727
_cell_angle_alpha 90.000000
_cell_angle_beta 90.000000
_cell_angle_gamma 90.000000
_cell_volume 5814.378054
_symmetry_space_group_name_H-M "I B A M"
_symmetry_group_IT_number 72
_symmetry_cell_setting 'orthorhombic'
loop_
_space_group_symop_operation_xyz
x,y,z
-x,-y,z
x,-y,1/2-z
-x,y,1/2-z
-x,-y,-z
x,y,-z
-x,y,1/2+z
x,-y,1/2+z
1/2+x,1/2+y,1/2+z
1/2-x,1/2-y,1/2+z
1/2+x,1/2-y,-z
1/2-x,1/2+y,-z
1/2-x,1/2-y,1/2-z
1/2+x,1/2+y,1/2-z
1/2-x,1/2+y,z
1/2+x,1/2-y,z
loop_
_atom_site_type_symbol
_atom_site_label
_atom_site_fract_x
_atom_site_fract_y
_atom_site_fract_z
Si Si1 0.136030 0.837163 0.000000
Si Si2 0.632557 0.216103 0.621145
Si Si3 0.439332 0.007172 0.681932
Si Si4 0.218277 0.482337 0.118334
Si Si5 0.144988 0.173270 0.000000
Si Si6 0.870052 0.265086 0.372342
Si Si7 0.174134 0.009561 0.318189
Si Si8 0.746022 0.161510 0.000000
O O1 0.114897 0.773860 0.940901
O O2 0.195642 0.794445 0.000000
O O3 0.135303 0.006801 0.000000
O O4 0.589812 0.120080 0.650588
O O5 0.683022 0.119167 0.614467
O O6 0.649547 0.346260 0.659934
O O7 0.500000 0.000000 0.674041
O O8 0.428089 0.000000 0.750000
O O9 0.416428 0.149158 0.654904
O O10 0.180308 0.359796 0.139650
O O11 0.268432 0.501882 0.156558
O O12 0.236159 0.430939 0.056124
O O13 0.124706 0.242390 0.941060
O O14 0.205419 0.211717 0.000000
O O15 0.859256 0.116005 0.344310
O O16 0.175463 0.000000 0.250000
#
# Coordination Sequence:
#
# PCOD9525881 Si02
#       8
#     8  16  16  16   8  16  16   8
#     4  12  21  32  59  87 125 156 198 245 290 344
#     4  11  23  37  60  90 119 155 203 252 294 346
#     4  10  23  46  70  87 111 152 202 253 303 360
#     4  10  21  34  53  82 121 163 200 238 284 348
#     4  10  20  36  58  85 124 162 194 241 299 343
#     4  10  21  39  60  86 119 156 198 246 298 353
#     4  12  23  34  52  83 124 164 198 239 294 354
#     4  10  19  32  53  80 117 168 209 234 271 345
#
# _framework density 17.886693999999999
#
# number of rings (size 3 to 8) (size 9 to 14) (size 15 to 20)
#    0.000    1.385    3.077    2.308    4.308    6.769 
#    0.000    2.308    0.000    3.692    0.000    0.000 
#    0.000    0.000    0.000    0.000    0.000    0.000 
#
# Total GULP energy -290564.190550 kJ/mol
# GULP energy per Si atom -5587.772895 kJ/mol
# Density = 1.784598 g / cm^3
# Si number density = 17.886694 Si / 1000 Ang^3
#
#
#
# Elastic Constant Matrix: (Units=GPa)
#
#
# Indices 1 2 3 4 5 6 
#
# 1 81.2763 42.6870 59.1200 0.0000 0.0000 0.0000
# 2 42.6870 132.3948 56.1419 0.0000 0.0000 0.0000
# 3 59.1200 56.1419 137.4715 0.0000 0.0000 0.0000
# 4 0.0000 0.0000 0.0000 24.9714 0.0000 0.0000
# 5 0.0000 0.0000 0.0000 0.0000 35.6155 0.0000
# 6 0.0000 0.0000 0.0000 0.0000 0.0000 6.8543
#
#
#
# Elastic Compliance Matrix: (Units=1/GPa)
#
#
# Indices 1 2 3 4 5 6 
#
# 1 0.018972 -0.003214 -0.006846 0.000000 0.000000 0.000000
# 2 -0.003214 0.009680 -0.002571 0.000000 0.000000 0.000000
# 3 -0.006846 -0.002571 0.011268 0.000000 0.000000 0.000000
# 4 0.000000 0.000000 0.000000 0.040046 0.000000 0.000000
# 5 0.000000 0.000000 0.000000 0.000000 0.028078 0.000000
# 6 0.000000 0.000000 0.000000 0.000000 0.000000 0.145893
#
#
# Mechanical properties :
#
#
# Convention : Reuss Voigt Hill
#
# Bulk Modulus (GPa) = 68.22393 74.11562 71.16977
# Shear Modulus (GPa) = 17.60044 26.36783 21.98413
#
# Velocity S-wave (km/s) = 3.14027 3.84364 3.50962
# Velocity P-wave (km/s) = 7.16753 7.82459 7.50326
#
# Compressibility (1/GPa) = 0.01465761
#
# Stress axis : x y z
#
# Youngs Moduli (GPa) = 52.71044 103.31068 88.74302
#
# Poissons Ratio (x) = 0.33201 0.60757
# Poissons Ratio (y) = 0.16939 0.22816
# Poissons Ratio (z) = 0.36087 0.26561
#
# Static dielectric constant tensor:
#      x y z
#    x 1.577490 0.000000 0.000000 
#    y 0.000000 1.621170 0.000000 
#    z 0.000000 0.000000 1.621010 
# 
# From -- ./inp_files/36192.got.cif
#   From: 2010.05.17/outbox.cif.g08.bks.cpg/sg72_19_cif.got.tgz:36192.got - 2010.06.03 17:03:01.
