data_PCOD9525249
_publ_section_title
;
Structure prediction by ZEFSAII (Michael W. Deem and Ramdas Pophale) SiO2 
 PCOD9525249
Probable space group: I B A M
;
_chemical_formula_sum "Si O2"
_cell_formula_units_Z 128
_cell_length_a 18.949198
_cell_length_b 23.269442
_cell_length_c 19.069499
_cell_angle_alpha 90.000000
_cell_angle_beta 90.000000
_cell_angle_gamma 90.000000
_cell_volume 8408.452711
_symmetry_space_group_name_H-M "I B A M"
_symmetry_group_IT_number 72
_symmetry_cell_setting 'orthorhombic'
loop_
_space_group_symop_operation_xyz
x,y,z
-x,-y,z
x,-y,1/2-z
-x,y,1/2-z
-x,-y,-z
x,y,-z
-x,y,1/2+z
x,-y,1/2+z
1/2+x,1/2+y,1/2+z
1/2-x,1/2-y,1/2+z
1/2+x,1/2-y,-z
1/2-x,1/2+y,-z
1/2-x,1/2-y,1/2-z
1/2+x,1/2+y,1/2-z
1/2-x,1/2+y,z
1/2+x,1/2-y,z
loop_
_atom_site_type_symbol
_atom_site_label
_atom_site_fract_x
_atom_site_fract_y
_atom_site_fract_z
Si Si1 0.235887 0.170058 0.318377
Si Si2 0.622523 0.278115 0.416784
Si Si3 0.635769 0.059668 0.657609
Si Si4 0.827062 0.215445 0.324209
Si Si5 0.992506 0.378730 0.334854
Si Si6 0.790753 0.336799 0.917374
Si Si7 0.512303 0.745054 0.333577
Si Si8 0.844467 0.430422 0.674623
O O1 0.183102 0.183132 0.381978
O O2 0.191139 0.179574 0.246612
O O3 0.295596 0.220174 0.313383
O O4 0.276507 0.110456 0.330444
O O5 0.616222 0.286061 0.500000
O O6 0.651301 0.213151 0.403244
O O7 0.549055 0.286512 0.376460
O O8 0.556074 0.080447 0.639006
O O9 0.686129 0.105694 0.621457
O O10 0.642928 0.064642 0.741624
O O11 0.656894 0.994143 0.642298
O O12 0.781624 0.186880 0.385527
O O13 0.908821 0.221512 0.342906
O O14 0.995212 0.311997 0.355435
O O15 0.000000 0.379560 0.250000
O O16 0.915444 0.401288 0.354450
O O17 0.786457 0.345289 0.000000
O O18 0.500000 0.742223 0.250000
#
# Coordination Sequence:
#
# PCOD9525249 Si02
#       8
#    16  16  16  16  16  16  16  16
#     4  10  18  31  49  74 103 133 172 218 257 300
#     4  10  21  34  50  72 105 140 166 203 263 320
#     4  10  18  30  48  72 105 136 173 212 254 294
#     4  10  19  29  51  74 100 134 173 215 257 302
#     4   9  17  26  44  73 105 134 172 209 246 291
#     4  10  20  34  49  70 102 140 172 206 255 312
#     4  11  18  29  51  79 102 135 170 207 255 309
#     4  10  18  29  49  76 100 134 175 220 251 292
#
# _framework density 15.222777000000001
#
# number of rings (size 3 to 8) (size 9 to 14) (size 15 to 20)
#    0.000    2.000    5.000    0.375    0.000    2.000 
#    0.000    0.625    0.000    3.000    0.000    0.875 
#    0.000    2.000    0.000    0.000    0.000    0.000 
#
# Total GULP energy -356532.707180 kJ/mol
# GULP energy per Si atom -5570.823550 kJ/mol
# Density = 1.518813 g / cm^3
# Si number density = 15.222777 Si / 1000 Ang^3
#
#
#
# Elastic Constant Matrix: (Units=GPa)
#
#
# Indices 1 2 3 4 5 6 
#
# 1 129.2403 55.5982 38.7038 0.0000 0.0000 0.0000
# 2 55.5982 77.3655 17.8091 0.0000 0.0000 0.0000
# 3 38.7038 17.8091 34.2184 0.0000 0.0000 0.0000
# 4 0.0000 0.0000 0.0000 13.3943 0.0000 0.0000
# 5 0.0000 0.0000 0.0000 0.0000 15.2795 0.0000
# 6 0.0000 0.0000 0.0000 0.0000 0.0000 17.9064
#
#
#
# Elastic Compliance Matrix: (Units=1/GPa)
#
#
# Indices 1 2 3 4 5 6 
#
# 1 0.014925 -0.007770 -0.012837 0.000000 0.000000 0.000000
# 2 -0.007770 0.018731 -0.000959 0.000000 0.000000 0.000000
# 3 -0.012837 -0.000959 0.044243 0.000000 0.000000 0.000000
# 4 0.000000 0.000000 0.000000 0.074659 0.000000 0.000000
# 5 0.000000 0.000000 0.000000 0.000000 0.065447 0.000000
# 6 0.000000 0.000000 0.000000 0.000000 0.000000 0.055846
#
#
# Mechanical properties :
#
#
# Convention : Reuss Voigt Hill
#
# Bulk Modulus (GPa) = 28.76478 51.67183 40.21830
# Shear Modulus (GPa) = 15.21739 17.89690 16.55714
#
# Velocity S-wave (km/s) = 3.16515 3.43252 3.30154
# Velocity P-wave (km/s) = 5.68282 7.05174 6.40396
#
# Compressibility (1/GPa) = 0.03476474
#
# Stress axis : x y z
#
# Youngs Moduli (GPa) = 67.00373 53.38827 22.60261
#
# Poissons Ratio (x) = 0.41485 0.29014
# Poissons Ratio (y) = 0.52065 0.02169
# Poissons Ratio (z) = 0.86011 0.05122
#
# Static dielectric constant tensor:
#      x y z
#    x 1.504950 0.000000 0.000000 
#    y 0.000000 1.509340 0.000000 
#    z 0.000000 0.000000 1.505090 
# 
# From -- ./inp_files/39360.got.cif
#   From: 2010.05.17/outbox.cif.g08.bks.cpg/sg72_20_cif.got.tgz:39360.got - 2010.06.03 17:03:01.
