data_PCOD9525917
_publ_section_title
;
Structure prediction by ZEFSAII (Michael W. Deem and Ramdas Pophale) SiO2 
 PCOD9525917
Probable space group: I B A M
;
_chemical_formula_sum "Si O2"
_cell_formula_units_Z 116
_cell_length_a 25.218002
_cell_length_b 27.169939
_cell_length_c 7.744488
_cell_angle_alpha 90.000000
_cell_angle_beta 90.000000
_cell_angle_gamma 90.000000
_cell_volume 5306.303049
_symmetry_space_group_name_H-M "I B A M"
_symmetry_group_IT_number 72
_symmetry_cell_setting 'orthorhombic'
loop_
_space_group_symop_operation_xyz
x,y,z
-x,-y,z
x,-y,1/2-z
-x,y,1/2-z
-x,-y,-z
x,y,-z
-x,y,1/2+z
x,-y,1/2+z
1/2+x,1/2+y,1/2+z
1/2-x,1/2-y,1/2+z
1/2+x,1/2-y,-z
1/2-x,1/2+y,-z
1/2-x,1/2-y,1/2-z
1/2+x,1/2+y,1/2-z
1/2-x,1/2+y,z
1/2+x,1/2-y,z
loop_
_atom_site_type_symbol
_atom_site_label
_atom_site_fract_x
_atom_site_fract_y
_atom_site_fract_z
Si Si1 0.778788 0.677225 0.209431
Si Si2 0.681548 0.551975 0.706745
Si Si3 0.837716 0.164673 0.796860
Si Si4 0.795678 0.435367 0.200975
Si Si5 0.555851 0.718662 0.300257
Si Si6 0.500000 0.000000 0.750000
Si Si7 0.895706 0.315196 0.709767
Si Si8 0.088362 0.571118 0.207171
O O1 0.718466 0.688147 0.269934
O O2 0.789015 0.623069 0.283959
O O3 0.835065 0.701611 0.257071
O O4 0.776772 0.675957 0.000000
O O5 0.653705 0.500000 0.750000
O O6 0.684679 0.555590 0.500000
O O7 0.662080 0.605453 0.767640
O O8 0.741131 0.547451 0.785034
O O9 0.891493 0.186941 0.724482
O O10 0.838404 0.173603 0.000000
O O11 0.853603 0.445889 0.272515
O O12 0.796965 0.449746 0.000000
O O13 0.500000 0.695275 0.250000
O O14 0.550659 0.728534 0.500000
O O15 0.566308 0.772511 0.219928
O O16 0.456424 0.959025 0.807236
O O17 0.896319 0.318231 0.500000
O O18 0.911203 0.369699 0.772157
O O19 0.082120 0.561054 0.000000
#
# Coordination Sequence:
#
# PCOD9525917 Si02
#       8
#    16  16  16  16  16   4  16  16
#     4   8  15  31  55  84 115 146 182 228 291 349
#     4  10  19  32  55  86 119 153 189 230 282 343
#     4  10  20  36  59  88 122 155 191 237 287 347
#     4   8  16  31  50  74 106 144 187 234 284 340
#     4  11  24  41  61  86 115 153 197 241 291 345
#     4  12  26  36  52  78 110 152 204 258 306 344
#     4   9  20  39  62  86 113 148 191 244 298 353
#     4  10  22  39  55  75 106 147 197 248 299 350
#
# _framework density 21.860793999999999
#
# number of rings (size 3 to 8) (size 9 to 14) (size 15 to 20)
#    0.000    2.483    0.000    1.448    1.931    3.862 
#    0.000    0.000    0.000    0.414    0.000    2.897 
#    0.000    0.000    0.000    0.000    0.000    0.000 
#
# Total GULP energy -322871.788950 kJ/mol
# GULP energy per Si atom -5566.754982 kJ/mol
# Density = 2.181104 g / cm^3
# Si number density = 21.860794 Si / 1000 Ang^3
#
#
#
# Elastic Constant Matrix: (Units=GPa)
#
#
# Indices 1 2 3 4 5 6 
#
# 1 148.7719 50.8103 14.8907 0.0000 0.0000 0.0000
# 2 50.8103 70.4585 -12.0484 0.0000 0.0000 0.0000
# 3 14.8907 -12.0484 51.6762 0.0000 0.0000 0.0000
# 4 0.0000 0.0000 0.0000 68.7382 0.0000 0.0000
# 5 0.0000 0.0000 0.0000 0.0000 21.4149 0.0000
# 6 0.0000 0.0000 0.0000 0.0000 0.0000 21.2893
#
#
#
# Elastic Compliance Matrix: (Units=1/GPa)
#
#
# Indices 1 2 3 4 5 6 
#
# 1 0.009908 -0.007950 -0.004709 0.000000 0.000000 0.000000
# 2 -0.007950 0.021162 0.007225 0.000000 0.000000 0.000000
# 3 -0.004709 0.007225 0.022393 0.000000 0.000000 0.000000
# 4 0.000000 0.000000 0.000000 0.014548 0.000000 0.000000
# 5 0.000000 0.000000 0.000000 0.000000 0.046697 0.000000
# 6 0.000000 0.000000 0.000000 0.000000 0.000000 0.046972
#
#
# Mechanical properties :
#
#
# Convention : Reuss Voigt Hill
#
# Bulk Modulus (GPa) = 23.47773 42.02355 32.75064
# Shear Modulus (GPa) = 26.77437 36.77207 31.77322
#
# Velocity S-wave (km/s) = 3.50346 4.10579 3.81653
# Velocity P-wave (km/s) = 5.20852 6.46078 5.86815
#
# Compressibility (1/GPa) = 0.04259356
#
# Stress axis : x y z
#
# Youngs Moduli (GPa) = 100.92499 47.25545 44.65764
#
# Poissons Ratio (x) = 0.37570 0.21028
# Poissons Ratio (y) = 0.80240 -0.32264
# Poissons Ratio (z) = 0.47524 -0.34141
#
# Static dielectric constant tensor:
#      x y z
#    x 1.928050 0.000000 0.000000 
#    y 0.000000 2.554410 0.000000 
#    z 0.000000 0.000000 1.846210 
# 
# From -- ./inp_files/7294.got.cif
#   From: 2010.05.17/outbox.cif.g08.bks.cpg/sg72_4_cif.got.tgz:7294.got - 2010.06.03 17:03:01.
