data_PCOD9525696
_publ_section_title
;
Structure prediction by ZEFSAII (Michael W. Deem and Ramdas Pophale) SiO2 
 PCOD9525696
Probable space group: I B A M
;
_chemical_formula_sum "Si O2"
_cell_formula_units_Z 96
_cell_length_a 29.496137
_cell_length_b 20.513788
_cell_length_c 9.235760
_cell_angle_alpha 90.000000
_cell_angle_beta 90.000000
_cell_angle_gamma 90.000000
_cell_volume 5588.350583
_symmetry_space_group_name_H-M "I B A M"
_symmetry_group_IT_number 72
_symmetry_cell_setting 'orthorhombic'
loop_
_space_group_symop_operation_xyz
x,y,z
-x,-y,z
x,-y,1/2-z
-x,y,1/2-z
-x,-y,-z
x,y,-z
-x,y,1/2+z
x,-y,1/2+z
1/2+x,1/2+y,1/2+z
1/2-x,1/2-y,1/2+z
1/2+x,1/2-y,-z
1/2-x,1/2+y,-z
1/2-x,1/2-y,1/2-z
1/2+x,1/2+y,1/2-z
1/2-x,1/2+y,z
1/2+x,1/2-y,z
loop_
_atom_site_type_symbol
_atom_site_label
_atom_site_fract_x
_atom_site_fract_y
_atom_site_fract_z
Si Si1 0.048998 0.325174 0.174584
Si Si2 0.692547 0.699272 0.171969
Si Si3 0.398268 0.692672 0.167939
Si Si4 0.789873 0.337042 0.673472
Si Si5 0.372996 0.069897 0.325733
Si Si6 0.547646 0.559604 0.668370
O O1 0.074292 0.257348 0.214620
O O2 0.084075 0.383587 0.210517
O O3 0.000000 0.330881 0.250000
O O4 0.042824 0.324643 0.000000
O O5 0.645407 0.676989 0.237340
O O6 0.736278 0.653771 0.203556
O O7 0.699364 0.769911 0.245182
O O8 0.690006 0.706772 0.000000
O O9 0.429076 0.629233 0.175394
O O10 0.384641 0.704107 0.000000
O O11 0.794814 0.327327 0.500000
O O12 0.826389 0.391974 0.714587
O O13 0.372787 0.061836 0.500000
O O14 0.375875 0.000000 0.250000
O O15 0.572336 0.500000 0.750000
O O16 0.500000 0.566192 0.750000
O O17 0.542262 0.542907 0.500000
#
# Coordination Sequence:
#
# PCOD9525696 Si02
#       6
#    16  16  16  16  16  16
#     4  10  21  37  56  78 107 143 182 230 279 323
#     4  10  19  30  55  86 107 134 175 222 262 312
#     4  10  20  36  55  78 111 148 177 216 277 326
#     4   9  18  36  55  76 109 142 172 214 270 322
#     4  10  21  38  58  77 108 148 183 227 278 329
#     4  10  20  34  54  76 104 143 181 220 267 322
#
# _framework density 17.178591999999998
#
# number of rings (size 3 to 8) (size 9 to 14) (size 15 to 20)
#    0.000    2.167    1.667    2.000    0.000    4.333 
#    0.000    2.500    0.000    4.000    0.000    0.000 
#    0.000    0.000    0.000    0.000    0.000    0.000 
#
# Total GULP energy -267497.346031 kJ/mol
# GULP energy per Si atom -5572.861376 kJ/mol
# Density = 1.713949 g / cm^3
# Si number density = 17.178592 Si / 1000 Ang^3
#
#
#
# Elastic Constant Matrix: (Units=GPa)
#
#
# Indices 1 2 3 4 5 6 
#
# 1 134.0703 67.2518 50.9965 0.0000 0.0000 0.0000
# 2 67.2518 116.7222 39.8054 0.0000 0.0000 0.0000
# 3 50.9965 39.8054 52.2498 0.0000 0.0000 0.0000
# 4 0.0000 0.0000 0.0000 27.2559 0.0000 0.0000
# 5 0.0000 0.0000 0.0000 0.0000 31.7174 0.0000
# 6 0.0000 0.0000 0.0000 0.0000 0.0000 21.0261
#
#
#
# Elastic Compliance Matrix: (Units=1/GPa)
#
#
# Indices 1 2 3 4 5 6 
#
# 1 0.013340 -0.004385 -0.009679 0.000000 0.000000 0.000000
# 2 -0.004385 0.013016 -0.005636 0.000000 0.000000 0.000000
# 3 -0.009679 -0.005636 0.032880 0.000000 0.000000 0.000000
# 4 0.000000 0.000000 0.000000 0.036689 0.000000 0.000000
# 5 0.000000 0.000000 0.000000 0.000000 0.031528 0.000000
# 6 0.000000 0.000000 0.000000 0.000000 0.000000 0.047560
#
#
# Mechanical properties :
#
#
# Convention : Reuss Voigt Hill
#
# Bulk Modulus (GPa) = 50.41664 68.79442 59.60553
# Shear Modulus (GPa) = 22.62174 25.66579 24.14377
#
# Velocity S-wave (km/s) = 3.63279 3.86950 3.75301
# Velocity P-wave (km/s) = 6.85627 7.75226 7.31799
#
# Compressibility (1/GPa) = 0.01983472
#
# Stress axis : x y z
#
# Youngs Moduli (GPa) = 74.96086 76.82843 30.41401
#
# Poissons Ratio (x) = 0.33692 0.29439
# Poissons Ratio (y) = 0.32873 0.17141
# Poissons Ratio (z) = 0.72558 0.43299
#
# Static dielectric constant tensor:
#      x y z
#    x 1.610220 0.000000 0.000000 
#    y 0.000000 1.574510 0.000000 
#    z 0.000000 0.000000 1.579440 
# 
# From -- ./inp_files/5970.got.cif
#   From: 2010.05.17/outbox.cif.g08.bks.cpg/sg72_3_cif.got.tgz:5970.got - 2010.06.03 17:03:01.
