data_PCOD9525944
_publ_section_title
;
Structure prediction by ZEFSAII (Michael W. Deem and Ramdas Pophale) SiO2 
 PCOD9525944
Probable space group: I B A M
;
_chemical_formula_sum "Si O2"
_cell_formula_units_Z 80
_cell_length_a 26.867741
_cell_length_b 7.674842
_cell_length_c 16.045913
_cell_angle_alpha 90.000000
_cell_angle_beta 90.000000
_cell_angle_gamma 90.000000
_cell_volume 3308.758194
_symmetry_space_group_name_H-M "I B A M"
_symmetry_group_IT_number 72
_symmetry_cell_setting 'orthorhombic'
loop_
_space_group_symop_operation_xyz
x,y,z
-x,-y,z
x,-y,1/2-z
-x,y,1/2-z
-x,-y,-z
x,y,-z
-x,y,1/2+z
x,-y,1/2+z
1/2+x,1/2+y,1/2+z
1/2-x,1/2-y,1/2+z
1/2+x,1/2-y,-z
1/2-x,1/2+y,-z
1/2-x,1/2-y,1/2-z
1/2+x,1/2+y,1/2-z
1/2-x,1/2+y,z
1/2+x,1/2-y,z
loop_
_atom_site_type_symbol
_atom_site_label
_atom_site_fract_x
_atom_site_fract_y
_atom_site_fract_z
Si Si1 0.520610 0.302804 0.100229
Si Si2 0.920263 0.674376 0.597964
Si Si3 0.817767 0.594374 0.597012
Si Si4 0.276142 0.448699 0.158380
Si Si5 0.378008 0.572392 0.097822
O O1 0.500000 0.500000 0.108791
O O2 0.475912 0.183004 0.134406
O O3 0.576911 0.310572 0.133889
O O4 0.524734 0.272298 0.000000
O O5 0.927681 0.633565 0.500000
O O6 0.873974 0.555895 0.626388
O O7 0.898423 0.872343 0.603376
O O8 0.822082 0.648299 0.500000
O O9 0.773278 0.458359 0.602932
O O10 0.797649 0.756728 0.649174
O O11 0.260652 0.500000 0.250000
O O12 0.323085 0.572087 0.135513
O O13 0.372746 0.613561 0.000000
#
# Coordination Sequence:
#
# PCOD9525944 Si02
#       5
#    16  16  16  16  16
#     4   7   9  16  34  60  85 109 143 189 236 275
#     4   7  11  20  38  63  86 111 149 196 236 271
#     4  10  19  33  51  69  93 128 170 208 243 292
#     4  11  21  32  46  70 101 131 161 200 249 295
#     4   8  13  23  40  61  87 119 153 189 231 283
#
# _framework density 24.178256000000001
#
# number of rings (size 3 to 8) (size 9 to 14) (size 15 to 20)
#    0.000    3.400    0.000    6.000    0.000    0.000 
#    0.000    0.000    0.000   15.000    0.000    1.400 
#    0.000    9.600    0.000    0.200    0.000    0.800 
#
# Total GULP energy -222899.251235 kJ/mol
# GULP energy per Si atom -5572.481281 kJ/mol
# Density = 2.412323 g / cm^3
# Si number density = 24.178256 Si / 1000 Ang^3
#
#
#
# Elastic Constant Matrix: (Units=GPa)
#
#
# Indices 1 2 3 4 5 6 
#
# 1 215.1593 61.0715 5.0957 0.0000 0.0000 0.0000
# 2 61.0715 49.4002 6.8822 0.0000 0.0000 0.0000
# 3 5.0957 6.8822 28.9763 0.0000 0.0000 0.0000
# 4 0.0000 0.0000 0.0000 -7.7385 0.0000 0.0000
# 5 0.0000 0.0000 0.0000 0.0000 -7.2091 0.0000
# 6 0.0000 0.0000 0.0000 0.0000 0.0000 20.7337
#
#
#
# Elastic Compliance Matrix: (Units=1/GPa)
#
#
# Indices 1 2 3 4 5 6 
#
# 1 0.007182 -0.009000 0.000875 0.000000 0.000000 0.000000
# 2 -0.009000 0.032215 -0.006069 0.000000 0.000000 0.000000
# 3 0.000875 -0.006069 0.035799 0.000000 0.000000 0.000000
# 4 0.000000 0.000000 0.000000 -0.129224 0.000000 0.000000
# 5 0.000000 0.000000 0.000000 0.000000 -0.138714 0.000000
# 6 0.000000 0.000000 0.000000 0.000000 0.000000 0.048231
#
#
# Mechanical properties :
#
#
# Convention : Reuss Voigt Hill
#
# Bulk Modulus (GPa) = 21.36445 48.84829 35.10637
# Shear Modulus (GPa) = -49.74067 15.85631 -16.94218
#
# Velocity S-wave (km/s) = -4.54061 2.56365 -2.64998
# Velocity P-wave (km/s) = 4.31673 5.38613 2.27774
#
# Compressibility (1/GPa) = 0.04680673
#
# Stress axis : x y z
#
# Youngs Moduli (GPa) = 139.24335 31.04145 27.93411
#
# Poissons Ratio (x) = 0.27938 -0.02443
# Poissons Ratio (y) = 1.25323 0.16952
# Poissons Ratio (z) = -0.12180 0.18838
#
# Static dielectric constant tensor:
#      x y z
#    x 2.029700 0.000000 0.000000 
#    y 0.000000 2.039770 0.000000 
#    z 0.000000 0.000000 1.845550 
# 
# From -- ./inp_files/20431.got.cif
#   From: 2010.05.17/outbox.cif.g08.bks.cpg/sg72_11_cif.got.tgz:20431.got - 2010.06.03 17:03:01.
