data_PCOD9525046
_publ_section_title
;
Structure prediction by ZEFSAII (Michael W. Deem and Ramdas Pophale) SiO2 
 PCOD9525046
Probable space group: I B A M
;
_chemical_formula_sum "Si O2"
_cell_formula_units_Z 68
_cell_length_a 8.294258
_cell_length_b 23.171448
_cell_length_c 21.705162
_cell_angle_alpha 90.000000
_cell_angle_beta 90.000000
_cell_angle_gamma 90.000000
_cell_volume 4171.514389
_symmetry_space_group_name_H-M "I B A M"
_symmetry_group_IT_number 72
_symmetry_cell_setting 'orthorhombic'
loop_
_space_group_symop_operation_xyz
x,y,z
-x,-y,z
x,-y,1/2-z
-x,y,1/2-z
-x,-y,-z
x,y,-z
-x,y,1/2+z
x,-y,1/2+z
1/2+x,1/2+y,1/2+z
1/2-x,1/2-y,1/2+z
1/2+x,1/2-y,-z
1/2-x,1/2+y,-z
1/2-x,1/2-y,1/2-z
1/2+x,1/2+y,1/2-z
1/2-x,1/2+y,z
1/2+x,1/2-y,z
loop_
_atom_site_type_symbol
_atom_site_label
_atom_site_fract_x
_atom_site_fract_y
_atom_site_fract_z
Si Si1 0.003255 0.335121 0.932642
Si Si2 0.688606 0.277210 0.109520
Si Si3 0.000000 0.500000 0.750000
Si Si4 0.886049 0.611801 0.805241
Si Si5 0.902607 0.803965 0.311005
O O1 0.818467 0.314276 0.926885
O O2 0.113165 0.277412 0.926145
O O3 0.044594 0.372740 0.872457
O O4 0.031979 0.361363 0.000000
O O5 0.789864 0.248125 0.165497
O O6 0.537868 0.312245 0.136394
O O7 0.894045 0.543658 0.791123
O O8 0.712578 0.641496 0.800950
O O9 0.000000 0.636454 0.750000
O O10 0.000000 0.789330 0.250000
#
# Coordination Sequence:
#
# PCOD9525046 Si02
#       5
#    16  16   4  16  16
#     4  10  18  31  50  76 105 140 169 196 240 304
#     4   9  19  28  43  74 115 139 160 193 238 298
#     4   8  20  40  56  68  96 120 172 236 276 282
#     4   9  19  35  55  70  96 129 170 220 257 296
#     4  10  17  28  47  75 105 138 168 196 241 302
#
# _framework density 16.301034000000001
#
# number of rings (size 3 to 8) (size 9 to 14) (size 15 to 20)
#    0.706    1.882    0.000    2.824    0.000    6.588 
#    0.000    2.353    0.000    0.000    0.000    1.647 
#    0.000    0.000    0.000    0.000    0.000    0.000 
#
# Total GULP energy -189272.822651 kJ/mol
# GULP energy per Si atom -5566.847725 kJ/mol
# Density = 1.626393 g / cm^3
# Si number density = 16.301034 Si / 1000 Ang^3
#
#
#
# Elastic Constant Matrix: (Units=GPa)
#
#
# Indices 1 2 3 4 5 6 
#
# 1 100.0243 28.1787 37.3521 0.0000 0.0000 0.0000
# 2 28.1787 61.1349 34.7546 0.0000 0.0000 0.0000
# 3 37.3521 34.7546 125.8099 0.0000 0.0000 0.0000
# 4 0.0000 0.0000 0.0000 4.6942 0.0000 0.0000
# 5 0.0000 0.0000 0.0000 0.0000 3.8583 0.0000
# 6 0.0000 0.0000 0.0000 0.0000 0.0000 5.7576
#
#
#
# Elastic Compliance Matrix: (Units=1/GPa)
#
#
# Indices 1 2 3 4 5 6 
#
# 1 0.012085 -0.004188 -0.002431 0.000000 0.000000 0.000000
# 2 -0.004188 0.020856 -0.004518 0.000000 0.000000 0.000000
# 3 -0.002431 -0.004518 0.009918 0.000000 0.000000 0.000000
# 4 0.000000 0.000000 0.000000 0.213031 0.000000 0.000000
# 5 0.000000 0.000000 0.000000 0.000000 0.259179 0.000000
# 6 0.000000 0.000000 0.000000 0.000000 0.000000 0.173684
#
#
# Mechanical properties :
#
#
# Convention : Reuss Voigt Hill
#
# Bulk Modulus (GPa) = 48.57884 54.17110 51.37497
# Shear Modulus (GPa) = 6.96486 15.30759 11.13622
#
# Velocity S-wave (km/s) = 2.06928 3.06773 2.61657
# Velocity P-wave (km/s) = 5.96448 6.77139 6.38070
#
# Compressibility (1/GPa) = 0.02058509
#
# Stress axis : x y z
#
# Youngs Moduli (GPa) = 82.74474 47.94720 100.82348
#
# Poissons Ratio (x) = 0.20083 0.24510
# Poissons Ratio (y) = 0.34657 0.45552
# Poissons Ratio (z) = 0.20115 0.21662
#
# Static dielectric constant tensor:
#      x y z
#    x 1.563450 0.000000 0.000000 
#    y 0.000000 1.529210 0.000000 
#    z 0.000000 0.000000 1.600200 
# 
# From -- ./inp_files/28269.got.cif
#   From: 2010.05.17/outbox.cif.g08.bks.cpg/sg72_15_cif.got.tgz:28269.got - 2010.06.03 17:03:01.
