data_PCOD9525305
_publ_section_title
;
Structure prediction by ZEFSAII (Michael W. Deem and Ramdas Pophale) SiO2 
 PCOD9525305
Probable space group: I B A M
;
_chemical_formula_sum "Si O2"
_cell_formula_units_Z 116
_cell_length_a 27.403782
_cell_length_b 28.324451
_cell_length_c 7.847577
_cell_angle_alpha 90.000000
_cell_angle_beta 90.000000
_cell_angle_gamma 90.000000
_cell_volume 6091.266356
_symmetry_space_group_name_H-M "I B A M"
_symmetry_group_IT_number 72
_symmetry_cell_setting 'orthorhombic'
loop_
_space_group_symop_operation_xyz
x,y,z
-x,-y,z
x,-y,1/2-z
-x,y,1/2-z
-x,-y,-z
x,y,-z
-x,y,1/2+z
x,-y,1/2+z
1/2+x,1/2+y,1/2+z
1/2-x,1/2-y,1/2+z
1/2+x,1/2-y,-z
1/2-x,1/2+y,-z
1/2-x,1/2-y,1/2-z
1/2+x,1/2+y,1/2-z
1/2-x,1/2+y,z
1/2+x,1/2-y,z
loop_
_atom_site_type_symbol
_atom_site_label
_atom_site_fract_x
_atom_site_fract_y
_atom_site_fract_z
Si Si1 0.310050 0.791951 0.302225
Si Si2 0.500000 0.000000 0.250000
Si Si3 0.447718 0.722548 0.703338
Si Si4 0.259614 0.628179 0.695614
Si Si5 0.681716 0.054126 0.204547
Si Si6 0.084544 0.675873 0.698429
Si Si7 0.929025 0.574601 0.695272
Si Si8 0.843169 0.810750 0.291235
O O1 0.295136 0.791118 0.500000
O O2 0.273027 0.824366 0.200253
O O3 0.363565 0.815278 0.288579
O O4 0.317571 0.738570 0.238726
O O5 0.539857 0.960944 0.310813
O O6 0.500000 0.701527 0.750000
O O7 0.444421 0.727851 0.500000
O O8 0.443898 0.775108 0.780819
O O9 0.399673 0.693807 0.760092
O O10 0.268739 0.614108 0.500000
O O11 0.224871 0.587989 0.772303
O O12 0.311269 0.645105 0.770647
O O13 0.628601 0.067984 0.274664
O O14 0.691281 0.000000 0.250000
O O15 0.679114 0.059744 0.000000
O O16 0.093989 0.666848 0.500000
O O17 0.059845 0.629415 0.773569
O O18 0.940439 0.561619 0.500000
O O19 0.841948 0.811066 0.500000
#
# Coordination Sequence:
#
# PCOD9525305 Si02
#       8
#    16   4  16  16  16  16  16  16
#     4  10  18  30  50  76 105 136 169 209 259 310
#     4  12  30  44  60  74  94 128 178 228 288 324
#     4  10  20  36  55  77 106 140 176 212 255 302
#     4  10  19  33  53  76 103 136 172 211 259 317
#     4  11  23  38  58  79 103 135 174 216 271 327
#     4  11  22  36  54  75 101 134 175 215 262 317
#     4  12  25  42  60  75  98 126 171 229 282 326
#     4   8  17  32  50  75 106 137 172 211 252 307
#
# _framework density 19.043659999999999
#
# number of rings (size 3 to 8) (size 9 to 14) (size 15 to 20)
#    0.000    1.655    2.069    4.345    0.966    2.207 
#    0.000    3.448    0.000    0.000    0.000    0.000 
#    0.000    0.552    0.000    6.897    0.000    0.000 
#
# Total GULP energy -323698.374008 kJ/mol
# GULP energy per Si atom -5581.006448 kJ/mol
# Density = 1.900032 g / cm^3
# Si number density = 19.043660 Si / 1000 Ang^3
#
#
#
# Elastic Constant Matrix: (Units=GPa)
#
#
# Indices 1 2 3 4 5 6 
#
# 1 127.0006 69.4472 -0.2425 0.0000 0.0000 0.0000
# 2 69.4472 77.1767 7.0645 0.0000 0.0000 0.0000
# 3 -0.2425 7.0645 64.2446 0.0000 0.0000 0.0000
# 4 0.0000 0.0000 0.0000 -0.1453 0.0000 0.0000
# 5 0.0000 0.0000 0.0000 0.0000 12.6281 0.0000
# 6 0.0000 0.0000 0.0000 0.0000 0.0000 15.9009
#
#
#
# Elastic Compliance Matrix: (Units=1/GPa)
#
#
# Indices 1 2 3 4 5 6 
#
# 1 0.015668 -0.014248 0.001626 0.000000 0.000000 0.000000
# 2 -0.014248 0.026045 -0.002918 0.000000 0.000000 0.000000
# 3 0.001626 -0.002918 0.015892 0.000000 0.000000 0.000000
# 4 0.000000 0.000000 0.000000 -6.884172 0.000000 0.000000
# 5 0.000000 0.000000 0.000000 0.000000 0.079188 0.000000
# 6 0.000000 0.000000 0.000000 0.000000 0.000000 0.062890
#
#
# Mechanical properties :
#
#
# Convention : Reuss Voigt Hill
#
# Bulk Modulus (GPa) = 37.69819 46.77335 42.23577
# Shear Modulus (GPa) = -0.75249 18.48692 8.86721
#
# Velocity S-wave (km/s) = -0.62928 3.11909 2.16018
# Velocity P-wave (km/s) = 4.39439 6.13075 5.33370
#
# Compressibility (1/GPa) = 0.02652647
#
# Stress axis : x y z
#
# Youngs Moduli (GPa) = 63.82390 38.39487 62.92282
#
# Poissons Ratio (x) = 0.54704 -0.10230
# Poissons Ratio (y) = 0.90935 0.18359
# Poissons Ratio (z) = -0.10377 0.11203
#
# Static dielectric constant tensor:
#      x y z
#    x 1.702600 0.000000 0.000000 
#    y 0.000000 1.656140 0.000000 
#    z 0.000000 0.000000 1.758890 
# 
# From -- ./inp_files/8592.got.cif
#   From: 2010.05.17/outbox.cif.g08.bks.cpg/sg72_5_cif.got.tgz:8592.got - 2010.06.03 17:03:01.
