data_PCOD9525646
_publ_section_title
;
Structure prediction by ZEFSAII (Michael W. Deem and Ramdas Pophale) SiO2 
 PCOD9525646
Probable space group: I B A M
;
_chemical_formula_sum "Si O2"
_cell_formula_units_Z 120
_cell_length_a 12.449048
_cell_length_b 23.773389
_cell_length_c 19.426933
_cell_angle_alpha 90.000000
_cell_angle_beta 90.000000
_cell_angle_gamma 90.000000
_cell_volume 5749.518564
_symmetry_space_group_name_H-M "I B A M"
_symmetry_group_IT_number 72
_symmetry_cell_setting 'orthorhombic'
loop_
_space_group_symop_operation_xyz
x,y,z
-x,-y,z
x,-y,1/2-z
-x,y,1/2-z
-x,-y,-z
x,y,-z
-x,y,1/2+z
x,-y,1/2+z
1/2+x,1/2+y,1/2+z
1/2-x,1/2-y,1/2+z
1/2+x,1/2-y,-z
1/2-x,1/2+y,-z
1/2-x,1/2-y,1/2-z
1/2+x,1/2+y,1/2-z
1/2-x,1/2+y,z
1/2+x,1/2-y,z
loop_
_atom_site_type_symbol
_atom_site_label
_atom_site_fract_x
_atom_site_fract_y
_atom_site_fract_z
Si Si1 0.166318 0.673592 0.146838
Si Si2 0.483027 0.393898 0.916697
Si Si3 0.749834 0.876546 0.417281
Si Si4 0.383833 0.979430 0.916118
Si Si5 0.323576 0.231778 0.654982
Si Si6 0.288227 0.429896 0.582656
Si Si7 0.000000 0.675083 0.250000
Si Si8 0.514454 0.733155 0.921518
O O1 0.255578 0.714925 0.179923
O O2 0.228418 0.628145 0.101945
O O3 0.082268 0.644303 0.198957
O O4 0.092342 0.718715 0.106915
O O5 0.360020 0.411265 0.904323
O O6 0.588320 0.426877 0.891585
O O7 0.484901 0.329430 0.890198
O O8 0.494336 0.393132 0.000000
O O9 0.747565 0.863989 0.500000
O O10 0.745243 0.821485 0.369920
O O11 0.648481 0.915624 0.399462
O O12 0.288933 0.020525 0.891741
O O13 0.500000 0.000000 0.892157
O O14 0.384892 0.981938 0.000000
O O15 0.417181 0.213667 0.707129
O O16 0.391612 0.248158 0.587160
O O17 0.292035 0.435124 0.500000
O O18 0.545732 0.725990 0.000000
#
# Coordination Sequence:
#
# PCOD9525646 Si02
#       8
#    16  16  16  16  16  16   8  16
#     4  11  21  36  55  76 110 145 185 226 276 329
#     4   9  17  30  49  81 116 141 177 213 264 330
#     4  10  20  34  56  84 114 148 181 223 273 327
#     4   9  20  35  51  79 117 151 182 215 266 331
#     4  11  21  36  55  76 110 145 185 226 276 329
#     4  10  20  34  56  84 114 148 181 223 273 327
#     4  10  26  38  50  75 108 151 190 228 280 330
#     4  10  19  29  48  83 115 137 168 217 273 328
#
# _framework density 20.871313000000001
#
# number of rings (size 3 to 8) (size 9 to 14) (size 15 to 20)
#    0.000    2.000    2.667    1.200    3.733    1.600 
#    0.000    2.667    0.000    1.600    0.000    0.000 
#    0.000    3.200    0.000    0.000    0.000    0.000 
#
# Total GULP energy -334217.652321 kJ/mol
# GULP energy per Si atom -5570.294205 kJ/mol
# Density = 2.082381 g / cm^3
# Si number density = 20.871313 Si / 1000 Ang^3
#
#
#
# Elastic Constant Matrix: (Units=GPa)
#
#
# Indices 1 2 3 4 5 6 
#
# 1 119.9174 19.4227 6.2919 0.0000 0.0000 0.0000
# 2 19.4227 46.6179 -4.6176 0.0000 0.0000 0.0000
# 3 6.2919 -4.6176 13.5550 0.0000 0.0000 0.0000
# 4 0.0000 0.0000 0.0000 4.9970 0.0000 0.0000
# 5 0.0000 0.0000 0.0000 0.0000 19.7648 0.0000
# 6 0.0000 0.0000 0.0000 0.0000 0.0000 31.0463
#
#
#
# Elastic Compliance Matrix: (Units=1/GPa)
#
#
# Indices 1 2 3 4 5 6 
#
# 1 0.009375 -0.004488 -0.005880 0.000000 0.000000 0.000000
# 2 -0.004488 0.024349 0.010378 0.000000 0.000000 0.000000
# 3 -0.005880 0.010378 0.080038 0.000000 0.000000 0.000000
# 4 0.000000 0.000000 0.000000 0.200119 0.000000 0.000000
# 5 0.000000 0.000000 0.000000 0.000000 0.050595 0.000000
# 6 0.000000 0.000000 0.000000 0.000000 0.000000 0.032210
#
#
# Mechanical properties :
#
#
# Convention : Reuss Voigt Hill
#
# Bulk Modulus (GPa) = 8.78889 24.69828 16.74358
# Shear Modulus (GPa) = 11.50500 21.76119 16.63309
#
# Velocity S-wave (km/s) = 2.35039 3.23249 2.82607
# Velocity P-wave (km/s) = 3.40380 5.07851 4.32303
#
# Compressibility (1/GPa) = 0.11378002
#
# Stress axis : x y z
#
# Youngs Moduli (GPa) = 106.67168 41.06964 12.49405
#
# Poissons Ratio (x) = 0.18433 0.07347
# Poissons Ratio (y) = 0.47877 -0.12966
# Poissons Ratio (z) = 0.62727 -0.42622
#
# Static dielectric constant tensor:
#      x y z
#    x 1.806790 0.000000 0.000000 
#    y 0.000000 1.772670 0.000000 
#    z 0.000000 0.000000 1.786540 
# 
# From -- ./inp_files/37363.got.cif
#   From: 2010.05.17/outbox.cif.g08.bks.cpg/sg72_19_cif.got.tgz:37363.got - 2010.06.03 17:03:01.
