data_PCOD9525603
_publ_section_title
;
Structure prediction by ZEFSAII (Michael W. Deem and Ramdas Pophale) SiO2 
 PCOD9525603
Probable space group: I B A M
;
_chemical_formula_sum "Si O2"
_cell_formula_units_Z 108
_cell_length_a 22.905584
_cell_length_b 14.556498
_cell_length_c 14.211278
_cell_angle_alpha 90.000000
_cell_angle_beta 90.000000
_cell_angle_gamma 90.000000
_cell_volume 4738.396613
_symmetry_space_group_name_H-M "I B A M"
_symmetry_group_IT_number 72
_symmetry_cell_setting 'orthorhombic'
loop_
_space_group_symop_operation_xyz
x,y,z
-x,-y,z
x,-y,1/2-z
-x,y,1/2-z
-x,-y,-z
x,y,-z
-x,y,1/2+z
x,-y,1/2+z
1/2+x,1/2+y,1/2+z
1/2-x,1/2-y,1/2+z
1/2+x,1/2-y,-z
1/2-x,1/2+y,-z
1/2-x,1/2-y,1/2-z
1/2+x,1/2+y,1/2-z
1/2-x,1/2+y,z
1/2+x,1/2-y,z
loop_
_atom_site_type_symbol
_atom_site_label
_atom_site_fract_x
_atom_site_fract_y
_atom_site_fract_z
Si Si1 0.699644 0.679732 0.672419
Si Si2 0.500000 0.500000 0.500000
Si Si3 0.500000 0.292323 0.250000
Si Si4 0.410422 0.985035 0.138277
Si Si5 0.780046 0.518301 0.639261
Si Si6 0.226342 0.168535 0.393099
Si Si7 0.007505 0.653708 0.099713
Si Si8 0.087655 0.934911 0.660915
O O1 0.755863 0.621261 0.635815
O O2 0.711978 0.779403 0.628462
O O3 0.695984 0.684725 0.788435
O O4 0.645763 0.620734 0.634707
O O5 0.551464 0.511411 0.417979
O O6 0.529453 0.223838 0.323302
O O7 0.544496 0.355573 0.196127
O O8 0.344941 0.998966 0.103663
O O9 0.450519 0.066373 0.099238
O O10 0.411484 0.000000 0.250000
O O11 0.443387 0.889320 0.118421
O O12 0.782392 0.500000 0.750000
O O13 0.736555 0.440608 0.602327
O O14 0.205285 0.195683 0.500000
O O15 0.006763 0.702326 0.000000
O O16 0.101211 0.000000 0.750000
#
# Coordination Sequence:
#
# PCOD9525603 Si02
#       8
#    16   4   8  16  16  16  16  16
#     4  10  24  46  70 100 146 186 230 303 370 421
#     4  12  26  52  80 102 124 186 246 298 384 468
#     4  12  25  43  64  98 132 170 220 295 353 414
#     4  10  18  38  61  89 137 184 221 271 340 407
#     4   9  20  39  65  92 132 179 218 277 347 412
#     4  10  22  41  65 106 141 183 238 281 349 447
#     4  11  23  37  61  94 131 183 229 274 335 414
#     4  12  26  51  74 100 139 180 237 311 376 443
#
# _framework density 22.792521000000001
#
# number of rings (size 3 to 8) (size 9 to 14) (size 15 to 20)
#    0.000    1.481    2.963    2.667    4.148    4.148 
#    4.000    1.481    0.000    0.000    0.000    0.000 
#    0.000    0.000    0.000    0.000    0.000    0.000 
#
# Total GULP energy -300664.157768 kJ/mol
# GULP energy per Si atom -5567.854773 kJ/mol
# Density = 2.274064 g / cm^3
# Si number density = 22.792521 Si / 1000 Ang^3
#
#
#
# Elastic Constant Matrix: (Units=GPa)
#
#
# Indices 1 2 3 4 5 6 
#
# 1 63.5949 -10.9794 -5.6191 0.0000 0.0000 0.0000
# 2 -10.9794 61.1865 5.9302 0.0000 0.0000 0.0000
# 3 -5.6191 5.9302 133.3653 0.0000 0.0000 0.0000
# 4 0.0000 0.0000 0.0000 14.2775 0.0000 0.0000
# 5 0.0000 0.0000 0.0000 0.0000 117.1280 0.0000
# 6 0.0000 0.0000 0.0000 0.0000 0.0000 21.7015
#
#
#
# Elastic Compliance Matrix: (Units=1/GPa)
#
#
# Indices 1 2 3 4 5 6 
#
# 1 0.016269 0.002865 0.000558 0.000000 0.000000 0.000000
# 2 0.002865 0.016919 -0.000632 0.000000 0.000000 0.000000
# 3 0.000558 -0.000632 0.007550 0.000000 0.000000 0.000000
# 4 0.000000 0.000000 0.000000 0.070040 0.000000 0.000000
# 5 0.000000 0.000000 0.000000 0.000000 0.008538 0.000000
# 6 0.000000 0.000000 0.000000 0.000000 0.000000 0.046080
#
#
# Mechanical properties :
#
#
# Convention : Reuss Voigt Hill
#
# Bulk Modulus (GPa) = 21.58879 26.31224 23.95052
# Shear Modulus (GPa) = 28.53040 48.54240 38.53640
#
# Velocity S-wave (km/s) = 3.54184 4.61993 4.11633
# Velocity P-wave (km/s) = 5.12041 6.32674 5.75527
#
# Compressibility (1/GPa) = 0.04632033
#
# Stress axis : x y z
#
# Youngs Moduli (GPa) = 61.46845 59.10582 132.45385
#
# Poissons Ratio (x) = -0.16935 -0.07391
# Poissons Ratio (y) = -0.17612 0.08366
# Poissons Ratio (z) = -0.03430 0.03733
#
# Static dielectric constant tensor:
#      x y z
#    x 1.870690 0.000000 0.000000 
#    y 0.000000 1.854400 0.000000 
#    z 0.000000 0.000000 1.913370 
# 
# From -- ./inp_files/25245.got.cif
#   From: 2010.05.17/outbox.cif.g08.bks.cpg/sg72_13_cif.got.tgz:25245.got - 2010.06.03 17:03:01.
