data_PCOD9525776
_publ_section_title
;
Structure prediction by ZEFSAII (Michael W. Deem and Ramdas Pophale) SiO2 
 PCOD9525776
Probable space group: I B A M
;
_chemical_formula_sum "Si O2"
_cell_formula_units_Z 112
_cell_length_a 24.692562
_cell_length_b 13.725846
_cell_length_c 14.971184
_cell_angle_alpha 90.000000
_cell_angle_beta 90.000000
_cell_angle_gamma 90.000000
_cell_volume 5074.128050
_symmetry_space_group_name_H-M "I B A M"
_symmetry_group_IT_number 72
_symmetry_cell_setting 'orthorhombic'
loop_
_space_group_symop_operation_xyz
x,y,z
-x,-y,z
x,-y,1/2-z
-x,y,1/2-z
-x,-y,-z
x,y,-z
-x,y,1/2+z
x,-y,1/2+z
1/2+x,1/2+y,1/2+z
1/2-x,1/2-y,1/2+z
1/2+x,1/2-y,-z
1/2-x,1/2+y,-z
1/2-x,1/2-y,1/2-z
1/2+x,1/2+y,1/2-z
1/2-x,1/2+y,z
1/2+x,1/2-y,z
loop_
_atom_site_type_symbol
_atom_site_label
_atom_site_fract_x
_atom_site_fract_y
_atom_site_fract_z
Si Si1 0.554823 0.444951 0.609501
Si Si2 0.880067 0.461826 0.148700
Si Si3 0.327151 0.766661 0.109153
Si Si4 0.940914 0.355860 0.397348
Si Si5 0.161534 0.051177 0.897042
Si Si6 0.731481 0.043906 0.151481
Si Si7 0.055495 0.720158 0.891249
O O1 0.500000 0.500000 0.636411
O O2 0.555137 0.443440 0.500000
O O3 0.607547 0.503528 0.641383
O O4 0.557579 0.332297 0.637490
O O5 0.878545 0.500000 0.250000
O O6 0.926338 0.530007 0.105679
O O7 0.821106 0.488687 0.109999
O O8 0.896881 0.350493 0.141481
O O9 0.387367 0.801570 0.137498
O O10 0.320617 0.655866 0.140101
O O11 0.284961 0.843363 0.149030
O O12 0.322779 0.774747 0.000000
O O13 0.944102 0.324481 0.500000
O O14 0.998518 0.326109 0.358773
O O15 0.211942 0.978615 0.894315
O O16 0.147821 0.072891 0.000000
O O17 0.737410 0.000000 0.250000
O O18 0.057755 0.717228 0.000000
#
# Coordination Sequence:
#
# PCOD9525776 Si02
#       7
#    16  16  16  16  16  16  16
#     4   9  18  34  57  86 115 139 171 217 268 324
#     4  10  21  35  50  74 106 144 184 222 267 316
#     4   9  18  34  56  80 109 145 181 220 267 321
#     4   9  17  31  51  76 107 141 176 213 263 324
#     4  10  20  35  58  84 108 140 182 224 268 320
#     4  10  22  38  54  76 107 144 184 226 273 322
#     4  10  19  31  53  83 112 142 176 221 271 316
#
# _framework density 22.072759000000001
#
# number of rings (size 3 to 8) (size 9 to 14) (size 15 to 20)
#    0.000    2.429    0.000    2.143    0.000    9.143 
#    0.000    5.714    0.000    2.143    0.000    0.000 
#    0.000    0.000    0.000    0.000    0.000    0.143 
#
# Total GULP energy -312677.468984 kJ/mol
# GULP energy per Si atom -5583.526232 kJ/mol
# Density = 2.202252 g / cm^3
# Si number density = 22.072759 Si / 1000 Ang^3
#
#
#
# Elastic Constant Matrix: (Units=GPa)
#
#
# Indices 1 2 3 4 5 6 
#
# 1 130.7511 85.0643 2.4623 0.0000 0.0000 0.0000
# 2 85.0643 162.5291 2.3622 0.0000 0.0000 0.0000
# 3 2.4623 2.3622 50.3498 0.0000 0.0000 0.0000
# 4 0.0000 0.0000 0.0000 5.5554 0.0000 0.0000
# 5 0.0000 0.0000 0.0000 0.0000 23.3090 0.0000
# 6 0.0000 0.0000 0.0000 0.0000 0.0000 25.3565
#
#
#
# Elastic Compliance Matrix: (Units=1/GPa)
#
#
# Indices 1 2 3 4 5 6 
#
# 1 0.011601 -0.006068 -0.000283 0.000000 0.000000 0.000000
# 2 -0.006068 0.009330 -0.000141 0.000000 0.000000 0.000000
# 3 -0.000283 -0.000141 0.019881 0.000000 0.000000 0.000000
# 4 0.000000 0.000000 0.000000 0.180004 0.000000 0.000000
# 5 0.000000 0.000000 0.000000 0.000000 0.042902 0.000000
# 6 0.000000 0.000000 0.000000 0.000000 0.000000 0.039438
#
#
# Mechanical properties :
#
#
# Convention : Reuss Voigt Hill
#
# Bulk Modulus (GPa) = 35.93201 58.15639 47.04420
# Shear Modulus (GPa) = 15.36495 27.76027 21.56261
#
# Velocity S-wave (km/s) = 2.64124 3.55021 3.12891
# Velocity P-wave (km/s) = 5.06120 6.57344 5.86626
#
# Compressibility (1/GPa) = 0.02783034
#
# Stress axis : x y z
#
# Youngs Moduli (GPa) = 86.20041 107.17634 50.29805
#
# Poissons Ratio (x) = 0.65030 0.01422
# Poissons Ratio (y) = 0.52302 0.00709
# Poissons Ratio (z) = 0.02437 0.01511
#
# Static dielectric constant tensor:
#      x y z
#    x 1.804320 0.000000 0.000000 
#    y 0.000000 1.802540 0.000000 
#    z 0.000000 0.000000 1.879830 
# 
# From -- ./inp_files/40369.got.cif
#   From: 2010.05.17/outbox.cif.g08.bks.cpg/sg72_21_cif.got.tgz:40369.got - 2010.06.03 17:03:01.
