data_PCOD9525901
_publ_section_title
;
Structure prediction by ZEFSAII (Michael W. Deem and Ramdas Pophale) SiO2 
 PCOD9525901
Probable space group: I B A M
;
_chemical_formula_sum "Si O2"
_cell_formula_units_Z 96
_cell_length_a 10.273888
_cell_length_b 27.176328
_cell_length_c 13.697568
_cell_angle_alpha 90.000000
_cell_angle_beta 90.000000
_cell_angle_gamma 90.000000
_cell_volume 3824.450706
_symmetry_space_group_name_H-M "I B A M"
_symmetry_group_IT_number 72
_symmetry_cell_setting 'orthorhombic'
loop_
_space_group_symop_operation_xyz
x,y,z
-x,-y,z
x,-y,1/2-z
-x,y,1/2-z
-x,-y,-z
x,y,-z
-x,y,1/2+z
x,-y,1/2+z
1/2+x,1/2+y,1/2+z
1/2-x,1/2-y,1/2+z
1/2+x,1/2-y,-z
1/2-x,1/2+y,-z
1/2-x,1/2-y,1/2-z
1/2+x,1/2+y,1/2-z
1/2-x,1/2+y,z
1/2+x,1/2-y,z
loop_
_atom_site_type_symbol
_atom_site_label
_atom_site_fract_x
_atom_site_fract_y
_atom_site_fract_z
Si Si1 0.325595 0.698196 0.880906
Si Si2 0.905620 0.962343 0.654228
Si Si3 0.590291 0.131988 0.380869
Si Si4 0.843451 0.691206 0.119646
Si Si5 0.920579 0.148584 0.112207
Si Si6 0.643701 0.021409 0.617782
O O1 0.186611 0.676181 0.852630
O O2 0.367793 0.752694 0.849994
O O3 0.436688 0.660029 0.849564
O O4 0.317924 0.699779 0.000000
O O5 0.888501 0.908585 0.612843
O O6 0.000000 0.953519 0.750000
O O7 0.764470 0.988622 0.655467
O O8 0.000000 0.000000 0.598940
O O9 0.589677 0.128568 0.500000
O O10 0.446605 0.149497 0.351203
O O11 0.641115 0.078440 0.347723
O O12 0.699564 0.678019 0.154942
O O13 0.846005 0.690568 0.000000
O O14 0.926597 0.165545 0.000000
O O15 0.657482 0.021121 0.500000
O O16 0.500000 0.000000 0.639471
#
# Coordination Sequence:
#
# PCOD9525901 Si02
#       6
#    16  16  16  16  16  16
#     4   9  16  26  44  75 114 150 182 225 287 354
#     4  11  24  40  56  80 116 159 203 245 299 359
#     4   9  16  26  43  72 110 146 180 224 283 350
#     4   9  16  27  46  78 117 148 178 225 291 358
#     4  10  19  32  54  81 109 146 191 241 293 345
#     4  10  20  36  61  91 119 149 194 255 313 361
#
# _framework density 25.101641999999998
#
# number of rings (size 3 to 8) (size 9 to 14) (size 15 to 20)
#    0.000    2.333    0.000    3.500    0.000    9.333 
#    0.000    1.667    0.000    1.000    0.000    0.000 
#    0.000    4.000    0.000    0.000    0.000    0.000 
#
# Total GULP energy -268256.534985 kJ/mol
# GULP energy per Si atom -5588.677812 kJ/mol
# Density = 2.504451 g / cm^3
# Si number density = 25.101642 Si / 1000 Ang^3
#
#
#
# Elastic Constant Matrix: (Units=GPa)
#
#
# Indices 1 2 3 4 5 6 
#
# 1 178.6241 51.4574 3.0889 0.0000 0.0000 0.0000
# 2 51.4574 126.8038 -12.4520 0.0000 0.0000 0.0000
# 3 3.0889 -12.4520 87.1292 0.0002 -0.0003 -0.0001
# 4 0.0000 0.0000 0.0002 74.5517 -0.0001 0.0000
# 5 0.0000 0.0000 -0.0003 -0.0001 17.3199 0.0001
# 6 0.0000 0.0000 -0.0001 0.0000 0.0001 48.4888
#
#
#
# Elastic Compliance Matrix: (Units=1/GPa)
#
#
# Indices 1 2 3 4 5 6 
#
# 1 0.006371 -0.002645 -0.000604 0.000000 0.000000 0.000000
# 2 -0.002645 0.009096 0.001394 0.000000 0.000000 0.000000
# 3 -0.000604 0.001394 0.011698 0.000000 0.000000 0.000000
# 4 0.000000 0.000000 0.000000 0.013414 0.000000 0.000000
# 5 0.000000 0.000000 0.000000 0.000000 0.057737 0.000000
# 6 0.000000 0.000000 0.000000 0.000000 0.000000 0.020623
#
#
# Mechanical properties :
#
#
# Convention : Reuss Voigt Hill
#
# Bulk Modulus (GPa) = 42.63394 52.97175 47.80284
# Shear Modulus (GPa) = 38.32411 51.43624 44.88018
#
# Velocity S-wave (km/s) = 3.91161 4.53163 4.23299
# Velocity P-wave (km/s) = 6.11738 6.96632 6.55561
#
# Compressibility (1/GPa) = 0.02345549
#
# Stress axis : x y z
#
# Youngs Moduli (GPa) = 156.97079 109.93584 85.48613
#
# Poissons Ratio (x) = 0.29073 0.05162
# Poissons Ratio (y) = 0.41511 -0.11914
# Poissons Ratio (z) = 0.09478 -0.15322
#
# Static dielectric constant tensor:
#      x y z
#    x 1.900480 0.000000 0.000000 
#    y 0.000000 1.913330 0.000000 
#    z 0.000000 0.000000 2.145170 
# 
# From -- ./inp_files/36007.got.cif
#   From: 2010.05.17/outbox.cif.g08.bks.cpg/sg72_19_cif.got.tgz:36007.got - 2010.06.03 17:03:01.
