data_PCOD9525799
_publ_section_title
;
Structure prediction by ZEFSAII (Michael W. Deem and Ramdas Pophale) SiO2 
 PCOD9525799
Probable space group: I B A M
;
_chemical_formula_sum "Si O2"
_cell_formula_units_Z 72
_cell_length_a 14.492449
_cell_length_b 11.117303
_cell_length_c 17.760220
_cell_angle_alpha 90.000000
_cell_angle_beta 90.000000
_cell_angle_gamma 90.000000
_cell_volume 2861.472420
_symmetry_space_group_name_H-M "I B A M"
_symmetry_group_IT_number 72
_symmetry_cell_setting 'orthorhombic'
loop_
_space_group_symop_operation_xyz
x,y,z
-x,-y,z
x,-y,1/2-z
-x,y,1/2-z
-x,-y,-z
x,y,-z
-x,y,1/2+z
x,-y,1/2+z
1/2+x,1/2+y,1/2+z
1/2-x,1/2-y,1/2+z
1/2+x,1/2-y,-z
1/2-x,1/2+y,-z
1/2-x,1/2-y,1/2-z
1/2+x,1/2+y,1/2-z
1/2-x,1/2+y,z
1/2+x,1/2-y,z
loop_
_atom_site_type_symbol
_atom_site_label
_atom_site_fract_x
_atom_site_fract_y
_atom_site_fract_z
Si Si1 0.278017 0.730816 0.082105
Si Si2 0.500000 0.291094 0.750000
Si Si3 0.504279 0.317640 0.916464
Si Si4 0.841778 0.608160 0.201511
Si Si5 0.607521 0.931094 0.917535
O O1 0.385155 0.695609 0.081203
O O2 0.268035 0.820453 0.151803
O O3 0.211530 0.618214 0.091072
O O4 0.255125 0.785131 0.000000
O O5 0.487352 0.360571 0.829870
O O6 0.410109 0.202992 0.741251
O O7 0.453792 0.188155 0.915358
O O8 0.476981 0.369618 0.000000
O O9 0.800316 0.500000 0.250000
O O10 0.904886 0.532509 0.143751
O O11 0.598847 0.987204 0.000000
#
# Coordination Sequence:
#
# PCOD9525799 Si02
#       5
#    16   8  16  16  16
#     4   9  20  35  51  76 107 140 183 224 264 321
#     4  10  19  32  48  80 114 133 175 218 272 344
#     4   9  18  33  53  75 107 144 176 221 274 317
#     4  11  20  31  51  76 110 138 169 217 274 321
#     4  10  20  34  53  77 104 141 183 221 268 323
#
# _framework density 25.161871999999999
#
# number of rings (size 3 to 8) (size 9 to 14) (size 15 to 20)
#    0.000    2.222    2.222    1.000    3.111    1.778 
#    0.000    5.556    0.000    1.333    0.000    9.333 
#    0.000    0.000    0.000    0.000    0.000    0.000 
#
# Total GULP energy -200944.916582 kJ/mol
# GULP energy per Si atom -5581.803238 kJ/mol
# Density = 2.510460 g / cm^3
# Si number density = 25.161872 Si / 1000 Ang^3
#
#
#
# Elastic Constant Matrix: (Units=GPa)
#
#
# Indices 1 2 3 4 5 6 
#
# 1 88.2467 8.8609 8.1213 0.0000 0.0000 0.0000
# 2 8.8609 63.4030 42.9348 0.0000 0.0000 0.0000
# 3 8.1213 42.9348 230.7045 0.0000 0.0000 0.0000
# 4 0.0000 0.0000 0.0000 -1.1874 0.0000 0.0000
# 5 0.0000 0.0000 0.0000 0.0000 26.2156 0.0000
# 6 0.0000 0.0000 0.0000 0.0000 0.0000 32.4322
#
#
#
# Elastic Compliance Matrix: (Units=1/GPa)
#
#
# Indices 1 2 3 4 5 6 
#
# 1 0.011496 -0.001525 -0.000121 0.000000 0.000000 0.000000
# 2 -0.001525 0.018249 -0.003342 0.000000 0.000000 0.000000
# 3 -0.000121 -0.003342 0.004961 0.000000 0.000000 0.000000
# 4 0.000000 0.000000 0.000000 -0.842179 0.000000 0.000000
# 5 0.000000 0.000000 0.000000 0.000000 0.038145 0.000000
# 6 0.000000 0.000000 0.000000 0.000000 0.000000 0.030834
#
#
# Mechanical properties :
#
#
# Convention : Reuss Voigt Hill
#
# Bulk Modulus (GPa) = 40.43781 55.79866 48.11824
# Shear Modulus (GPa) = -6.94179 32.98789 13.02305
#
# Velocity S-wave (km/s) = -1.66278 3.62474 2.27749
# Velocity P-wave (km/s) = 3.52413 6.30415 5.10695
#
# Compressibility (1/GPa) = 0.02472933
#
# Stress axis : x y z
#
# Youngs Moduli (GPa) = 86.98603 54.79861 201.57849
#
# Poissons Ratio (x) = 0.08355 0.02438
# Poissons Ratio (y) = 0.13263 0.67377
# Poissons Ratio (z) = 0.01052 0.18316
#
# Static dielectric constant tensor:
#      x y z
#    x 1.982620 0.000000 0.000000 
#    y 0.000000 1.924700 0.000000 
#    z 0.000000 0.000000 2.154390 
# 
# From -- ./inp_files/30290.got.cif
#   From: 2010.05.17/outbox.cif.g08.bks.cpg/sg72_16_cif.got.tgz:30290.got - 2010.06.03 17:03:01.
