data_PCOD9525712
_publ_section_title
;
Structure prediction by ZEFSAII (Michael W. Deem and Ramdas Pophale) SiO2 
 PCOD9525712
Probable space group: I B A M
;
_chemical_formula_sum "Si O2"
_cell_formula_units_Z 96
_cell_length_a 26.109910
_cell_length_b 25.791719
_cell_length_c 8.737869
_cell_angle_alpha 90.000000
_cell_angle_beta 90.000000
_cell_angle_gamma 90.000000
_cell_volume 5884.251040
_symmetry_space_group_name_H-M "I B A M"
_symmetry_group_IT_number 72
_symmetry_cell_setting 'orthorhombic'
loop_
_space_group_symop_operation_xyz
x,y,z
-x,-y,z
x,-y,1/2-z
-x,y,1/2-z
-x,-y,-z
x,y,-z
-x,y,1/2+z
x,-y,1/2+z
1/2+x,1/2+y,1/2+z
1/2-x,1/2-y,1/2+z
1/2+x,1/2-y,-z
1/2-x,1/2+y,-z
1/2-x,1/2-y,1/2-z
1/2+x,1/2+y,1/2-z
1/2-x,1/2+y,z
1/2+x,1/2-y,z
loop_
_atom_site_type_symbol
_atom_site_label
_atom_site_fract_x
_atom_site_fract_y
_atom_site_fract_z
Si Si1 0.866220 0.049761 0.678886
Si Si2 0.048897 0.865987 0.321140
Si Si3 0.831159 0.754351 0.316339
Si Si4 0.245315 0.054803 0.319264
Si Si5 0.553729 0.253253 0.680970
Si Si6 0.753194 0.833706 0.817789
O O1 0.853400 0.041632 0.500000
O O2 0.901119 0.099661 0.690952
O O3 0.814801 0.055167 0.775853
O O4 0.894119 0.000000 0.750000
O O5 0.040638 0.853255 0.500000
O O6 0.053617 0.814071 0.222975
O O7 0.000000 0.894812 0.250000
O O8 0.833160 0.762065 0.500000
O O9 0.888658 0.738754 0.264328
O O10 0.805110 0.806113 0.245474
O O11 0.791919 0.707487 0.284296
O O12 0.253069 0.054181 0.500000
O O13 0.261668 0.110375 0.250682
O O14 0.265545 0.000000 0.250000
O O15 0.500000 0.232059 0.750000
O O16 0.551427 0.244860 0.500000
O O17 0.759138 0.839372 0.000000
#
# Coordination Sequence:
#
# PCOD9525712 Si02
#       6
#    16  16  16  16  16  16
#     4  10  20  32  45  61  80 107 144 185 229 272
#     4  10  20  31  43  59  79 107 144 185 228 270
#     4   9  19  33  49  71  98 128 159 193 235 281
#     4  11  21  33  49  68  91 120 153 188 229 275
#     4  10  19  31  47  66  89 118 151 186 225 269
#     4  10  19  32  50  72  98 126 158 195 235 280
#
# _framework density 16.314736
#
# number of rings (size 3 to 8) (size 9 to 14) (size 15 to 20)
#    0.000    2.000    0.000    6.500    0.000    7.667 
#    0.000    1.667    0.000    0.000    0.000    0.000 
#    0.000    0.667    0.000    7.667    0.000    2.333 
#
# Total GULP energy -267374.210178 kJ/mol
# GULP energy per Si atom -5570.296045 kJ/mol
# Density = 1.627760 g / cm^3
# Si number density = 16.314736 Si / 1000 Ang^3
#
#
#
# Elastic Constant Matrix: (Units=GPa)
#
#
# Indices 1 2 3 4 5 6 
#
# 1 84.4347 18.8559 23.9628 0.0000 0.0000 0.0000
# 2 18.8559 81.4590 34.2170 0.0000 0.0000 0.0000
# 3 23.9628 34.2170 49.2914 0.0000 0.0000 0.0000
# 4 0.0000 0.0000 0.0000 22.1490 0.0000 0.0000
# 5 0.0000 0.0000 0.0000 0.0000 19.5840 0.0000
# 6 0.0000 0.0000 0.0000 0.0000 0.0000 10.6681
#
#
#
# Elastic Compliance Matrix: (Units=1/GPa)
#
#
# Indices 1 2 3 4 5 6 
#
# 1 0.013755 -0.000530 -0.006319 0.000000 0.000000 0.000000
# 2 -0.000530 0.017349 -0.011786 0.000000 0.000000 0.000000
# 3 -0.006319 -0.011786 0.031541 0.000000 0.000000 0.000000
# 4 0.000000 0.000000 0.000000 0.045149 0.000000 0.000000
# 5 0.000000 0.000000 0.000000 0.000000 0.051062 0.000000
# 6 0.000000 0.000000 0.000000 0.000000 0.000000 0.093737
#
#
# Mechanical properties :
#
#
# Convention : Reuss Voigt Hill
#
# Bulk Modulus (GPa) = 39.40771 41.02850 40.21811
# Shear Modulus (GPa) = 16.76036 19.69018 18.22527
#
# Velocity S-wave (km/s) = 3.20865 3.47781 3.34594
# Velocity P-wave (km/s) = 6.15909 6.42881 6.29539
#
# Compressibility (1/GPa) = 0.02537574
#
# Stress axis : x y z
#
# Youngs Moduli (GPa) = 72.69973 57.63858 31.70439
#
# Poissons Ratio (x) = 0.03052 0.20035
# Poissons Ratio (y) = 0.03850 0.37367
# Poissons Ratio (z) = 0.45942 0.67934
#
# Static dielectric constant tensor:
#      x y z
#    x 1.604920 0.000000 0.000000 
#    y 0.000000 1.582820 0.000000 
#    z 0.000000 0.000000 1.558960 
# 
# From -- ./inp_files/8281.got.cif
#   From: 2010.05.17/outbox.cif.g08.bks.cpg/sg72_5_cif.got.tgz:8281.got - 2010.06.03 17:03:01.
