data_PCOD9525136
_publ_section_title
;
Structure prediction by ZEFSAII (Michael W. Deem and Ramdas Pophale) SiO2 
 PCOD9525136
Probable space group: I B A M
;
_chemical_formula_sum "Si O2"
_cell_formula_units_Z 92
_cell_length_a 22.866094
_cell_length_b 6.909794
_cell_length_c 21.887978
_cell_angle_alpha 90.000000
_cell_angle_beta 90.000000
_cell_angle_gamma 90.000000
_cell_volume 3458.300505
_symmetry_space_group_name_H-M "I B A M"
_symmetry_group_IT_number 72
_symmetry_cell_setting 'orthorhombic'
loop_
_space_group_symop_operation_xyz
x,y,z
-x,-y,z
x,-y,1/2-z
-x,y,1/2-z
-x,-y,-z
x,y,-z
-x,y,1/2+z
x,-y,1/2+z
1/2+x,1/2+y,1/2+z
1/2-x,1/2-y,1/2+z
1/2+x,1/2-y,-z
1/2-x,1/2+y,-z
1/2-x,1/2-y,1/2-z
1/2+x,1/2+y,1/2-z
1/2-x,1/2+y,z
1/2+x,1/2-y,z
loop_
_atom_site_type_symbol
_atom_site_label
_atom_site_fract_x
_atom_site_fract_y
_atom_site_fract_z
Si Si1 0.171736 0.977146 0.321222
Si Si2 0.500000 0.000000 0.250000
Si Si3 0.081593 0.460267 0.859897
Si Si4 0.434889 0.576097 0.619972
Si Si5 0.632335 0.642951 0.000000
Si Si6 0.270250 0.939591 0.000000
Si Si7 0.205501 0.609189 0.132528
Si Si8 0.396421 0.101315 0.500000
O O1 0.105390 0.933961 0.339075
O O2 0.180175 0.178466 0.357919
O O3 0.171169 0.000000 0.250000
O O4 0.232475 0.873538 0.334661
O O5 0.455392 0.098525 0.299494
O O6 0.065185 0.693198 0.864737
O O7 0.152247 0.468432 0.847610
O O8 0.074554 0.379694 0.931208
O O9 0.500000 0.500000 0.619446
O O10 0.402497 0.556330 0.556003
O O11 0.701931 0.616250 0.000000
O O12 0.618190 0.871635 0.000000
O O13 0.278000 0.048535 0.935731
O O14 0.330097 0.806577 0.000000
#
# Coordination Sequence:
#
# PCOD9525136 Si02
#       8
#    16   4  16  16   8   8  16   8
#     4  11  23  39  60  90 127 171 209 257 318 381
#     4  12  24  42  62  88 120 178 226 250 320 402
#     4   9  22  40  62  90 126 169 207 268 323 380
#     4  10  21  39  63  91 124 164 210 261 319 384
#     4  10  17  36  63  93 127 154 204 264 328 378
#     4  10  18  33  66  91 121 154 205 259 325 381
#     4  10  22  40  63  93 124 160 209 267 322 375
#     4   8  18  38  63  90 126 166 199 266 333 374
#
# _framework density 26.602664000000001
#
# number of rings (size 3 to 8) (size 9 to 14) (size 15 to 20)
#    0.000    2.087    1.739    1.826    1.217    3.478 
#    3.130    0.000    0.000    0.000    0.000    0.000 
#    0.000    0.000    0.000    0.000    0.000    0.000 
#
# Total GULP energy -256662.147369 kJ/mol
# GULP energy per Si atom -5579.611899 kJ/mol
# Density = 2.654212 g / cm^3
# Si number density = 26.602664 Si / 1000 Ang^3
#
#
#
# Elastic Constant Matrix: (Units=GPa)
#
#
# Indices 1 2 3 4 5 6 
#
# 1 249.1574 17.7473 117.6943 0.0000 0.0000 0.0000
# 2 17.7473 42.6653 15.8916 0.0000 0.0000 0.0000
# 3 117.6943 15.8916 202.2550 0.0000 0.0000 0.0000
# 4 0.0000 0.0000 0.0000 7.8848 0.0000 0.0000
# 5 0.0000 0.0000 0.0000 0.0000 58.2440 0.0000
# 6 0.0000 0.0000 0.0000 0.0000 0.0000 50.2234
#
#
#
# Elastic Compliance Matrix: (Units=1/GPa)
#
#
# Indices 1 2 3 4 5 6 
#
# 1 0.005589 -0.001147 -0.003162 0.000000 0.000000 0.000000
# 2 -0.001147 0.024380 -0.001248 0.000000 0.000000 0.000000
# 3 -0.003162 -0.001248 0.006882 0.000000 0.000000 0.000000
# 4 0.000000 0.000000 0.000000 0.126826 0.000000 0.000000
# 5 0.000000 0.000000 0.000000 0.000000 0.017169 0.000000
# 6 0.000000 0.000000 0.000000 0.000000 0.000000 0.019911
#
#
# Mechanical properties :
#
#
# Convention : Reuss Voigt Hill
#
# Bulk Modulus (GPa) = 38.85456 88.52712 63.69084
# Shear Modulus (GPa) = 22.68077 46.12010 34.40043
#
# Velocity S-wave (km/s) = 2.92306 4.16825 3.59990
# Velocity P-wave (km/s) = 5.10192 7.51768 6.42437
#
# Compressibility (1/GPa) = 0.02573700
#
# Stress axis : x y z
#
# Youngs Moduli (GPa) = 178.92553 41.01681 145.29818
#
# Poissons Ratio (x) = 0.04705 0.45945
# Poissons Ratio (y) = 0.20523 0.18135
# Poissons Ratio (z) = 0.56579 0.05120
#
# Static dielectric constant tensor:
#      x y z
#    x 2.243660 0.000000 0.000000 
#    y 0.000000 2.300880 0.000000 
#    z 0.000000 0.000000 1.833810 
# 
# From -- ./inp_files/36962.got.cif
#   From: 2010.05.17/outbox.cif.g08.bks.cpg/sg72_19_cif.got.tgz:36962.got - 2010.06.03 17:03:01.
