data_PCOD9525846
_publ_section_title
;
Structure prediction by ZEFSAII (Michael W. Deem and Ramdas Pophale) SiO2 
 PCOD9525846
Probable space group: I B A M
;
_chemical_formula_sum "Si O2"
_cell_formula_units_Z 96
_cell_length_a 21.459179
_cell_length_b 12.642735
_cell_length_c 19.357063
_cell_angle_alpha 90.000000
_cell_angle_beta 90.000000
_cell_angle_gamma 90.000000
_cell_volume 5251.623716
_symmetry_space_group_name_H-M "I B A M"
_symmetry_group_IT_number 72
_symmetry_cell_setting 'orthorhombic'
loop_
_space_group_symop_operation_xyz
x,y,z
-x,-y,z
x,-y,1/2-z
-x,y,1/2-z
-x,-y,-z
x,y,-z
-x,y,1/2+z
x,-y,1/2+z
1/2+x,1/2+y,1/2+z
1/2-x,1/2-y,1/2+z
1/2+x,1/2-y,-z
1/2-x,1/2+y,-z
1/2-x,1/2-y,1/2-z
1/2+x,1/2+y,1/2-z
1/2-x,1/2+y,z
1/2+x,1/2-y,z
loop_
_atom_site_type_symbol
_atom_site_label
_atom_site_fract_x
_atom_site_fract_y
_atom_site_fract_z
Si Si1 0.196325 0.562573 0.919466
Si Si2 0.665994 0.780663 0.808915
Si Si3 0.787768 0.351094 0.331153
Si Si4 0.927117 0.974966 0.424537
Si Si5 0.070305 0.885061 0.778859
Si Si6 0.166096 0.834375 0.578426
O O1 0.155000 0.646691 0.876024
O O2 0.200848 0.455066 0.875769
O O3 0.266910 0.608055 0.919564
O O4 0.177938 0.548947 0.000000
O O5 0.716624 0.691790 0.831480
O O6 0.696141 0.855513 0.749911
O O7 0.611245 0.718827 0.769367
O O8 0.828358 0.259863 0.367929
O O9 0.904763 0.937373 0.500000
O O10 0.924243 0.896010 0.361452
O O11 0.887571 0.079997 0.407437
O O12 0.000000 0.000000 0.429413
O O13 0.000000 0.874325 0.750000
O O14 0.092823 0.000000 0.750000
O O15 0.156638 0.794786 0.500000
#
# Coordination Sequence:
#
# PCOD9525846 Si02
#       6
#    16  16  16  16  16  16
#     4  10  20  35  54  80 112 146 184 223 274 331
#     4  10  22  34  53  82 112 142 184 224 278 327
#     4  10  19  33  54  79 111 148 177 226 270 332
#     4  10  19  32  51  79 110 141 177 220 271 328
#     4  11  21  36  55  80 108 144 180 228 279 336
#     4   9  18  31  51  80 112 144 179 219 271 331
#
# _framework density 18.280059999999999
#
# number of rings (size 3 to 8) (size 9 to 14) (size 15 to 20)
#    0.000    2.000    1.667    3.000    0.000    4.000 
#    0.000    0.000    0.000    2.000    0.000    1.167 
#    0.000    0.000    0.000    0.000    0.000    0.000 
#
# Total GULP energy -267370.979491 kJ/mol
# GULP energy per Si atom -5570.228739 kJ/mol
# Density = 1.823845 g / cm^3
# Si number density = 18.280060 Si / 1000 Ang^3
#
#
#
# Elastic Constant Matrix: (Units=GPa)
#
#
# Indices 1 2 3 4 5 6 
#
# 1 47.5145 26.2345 18.2218 0.0000 0.0000 0.0000
# 2 26.2345 75.1057 51.9559 0.0000 0.0000 0.0000
# 3 18.2218 51.9559 109.8287 0.0000 0.0000 0.0000
# 4 0.0000 0.0000 0.0000-1731.6313 0.0000 0.0000
# 5 0.0000 0.0000 0.0000 0.0000 21.5007 0.0000
# 6 0.0000 0.0000 0.0000 0.0000 0.0000 23.4354
#
#
#
# Elastic Compliance Matrix: (Units=1/GPa)
#
#
# Indices 1 2 3 4 5 6 
#
# 1 0.026075 -0.009090 -0.000026 0.000000 0.000000 0.000000
# 2 -0.009090 0.022960 -0.009353 0.000000 0.000000 0.000000
# 3 -0.000026 -0.009353 0.013534 0.000000 0.000000 0.000000
# 4 0.000000 0.000000 0.000000 -0.000577 0.000000 0.000000
# 5 0.000000 0.000000 0.000000 0.000000 0.046510 0.000000
# 6 0.000000 0.000000 0.000000 0.000000 0.000000 0.042671
#
#
# Mechanical properties :
#
#
# Convention : Reuss Voigt Hill
#
# Bulk Modulus (GPa) = 39.01614 47.25261 43.13437
# Shear Modulus (GPa) = 25.42521 -328.26992 -151.42235
#
# Velocity S-wave (km/s) = 3.73348 -13.41521 -9.11123
# Velocity P-wave (km/s) = 6.32259 14.63051 9.32944
#
# Compressibility (1/GPa) = 0.02563042
#
# Stress axis : x y z
#
# Youngs Moduli (GPa) = 38.35070 43.55364 73.88712
#
# Poissons Ratio (x) = 0.39591 0.00192
# Poissons Ratio (y) = 0.34861 0.69110
# Poissons Ratio (z) = 0.00100 0.40738
#
# Static dielectric constant tensor:
#      x y z
#    x 1.669770 0.000000 0.000000 
#    y 0.000000 1.636680 0.000000 
#    z 0.000000 0.000000 1.719140 
# 
# From -- ./inp_files/33275.got.cif
#   From: 2010.05.17/outbox.cif.g08.bks.cpg/sg72_17_cif.got.tgz:33275.got - 2010.06.03 17:03:01.
