data_PCOD9525155
_publ_section_title
;
Structure prediction by ZEFSAII (Michael W. Deem and Ramdas Pophale) SiO2 
 PCOD9525155
Probable space group: I B A M
;
_chemical_formula_sum "Si O2"
_cell_formula_units_Z 112
_cell_length_a 19.152594
_cell_length_b 21.562853
_cell_length_c 14.930307
_cell_angle_alpha 90.000000
_cell_angle_beta 90.000000
_cell_angle_gamma 90.000000
_cell_volume 6165.986401
_symmetry_space_group_name_H-M "I B A M"
_symmetry_group_IT_number 72
_symmetry_cell_setting 'orthorhombic'
loop_
_space_group_symop_operation_xyz
x,y,z
-x,-y,z
x,-y,1/2-z
-x,y,1/2-z
-x,-y,-z
x,y,-z
-x,y,1/2+z
x,-y,1/2+z
1/2+x,1/2+y,1/2+z
1/2-x,1/2-y,1/2+z
1/2+x,1/2-y,-z
1/2-x,1/2+y,-z
1/2-x,1/2-y,1/2-z
1/2+x,1/2+y,1/2-z
1/2-x,1/2+y,z
1/2+x,1/2-y,z
loop_
_atom_site_type_symbol
_atom_site_label
_atom_site_fract_x
_atom_site_fract_y
_atom_site_fract_z
Si Si1 0.906678 0.753908 0.891852
Si Si2 0.856970 0.136013 0.891669
Si Si3 0.563615 0.238130 0.609540
Si Si4 0.664158 0.616583 0.609638
Si Si5 0.693242 0.166988 0.599471
Si Si6 0.263758 0.214210 0.342086
Si Si7 0.419605 0.505185 0.609465
O O1 0.983653 0.735584 0.860741
O O2 0.881252 0.822988 0.863470
O O3 0.845187 0.708880 0.860133
O O4 0.908000 0.754402 0.000000
O O5 0.781359 0.153013 0.853250
O O6 0.887373 0.070597 0.861886
O O7 0.906047 0.194186 0.866243
O O8 0.852953 0.135151 0.000000
O O9 0.564740 0.235026 0.500000
O O10 0.618750 0.185800 0.641667
O O11 0.666338 0.617366 0.500000
O O12 0.744669 0.625459 0.640338
O O13 0.626300 0.553751 0.637737
O O14 0.679084 0.142105 0.500000
O O15 0.731125 0.234257 0.591467
O O16 0.250000 0.250000 0.250000
O O17 0.500000 0.500000 0.637809
O O18 0.419755 0.504826 0.500000
#
# Coordination Sequence:
#
# PCOD9525155 Si02
#       7
#    16  16  16  16  16  16  16
#     4   9  15  25  42  61  80 103 135 173 211 250
#     4   9  16  27  41  59  87 115 139 172 214 256
#     4   8  13  22  39  60  77  99 132 170 210 249
#     4   8  13  21  35  56  79 103 131 163 198 241
#     4   8  14  26  41  55  74 100 132 169 210 254
#     4  10  18  27  39  57  80 109 141 171 206 249
#     4   9  15  22  37  63  88 109 138 173 205 247
#
# _framework density 18.164166000000002
#
# number of rings (size 3 to 8) (size 9 to 14) (size 15 to 20)
#    0.000    3.286    0.000    3.857    0.000    3.429 
#    0.000    2.857    0.000    3.429    0.000    5.000 
#    0.000    6.857    0.000   10.286    0.000   14.714 
#
# Total GULP energy -311917.639425 kJ/mol
# GULP energy per Si atom -5569.957847 kJ/mol
# Density = 1.812282 g / cm^3
# Si number density = 18.164166 Si / 1000 Ang^3
#
#
#
# Elastic Constant Matrix: (Units=GPa)
#
#
# Indices 1 2 3 4 5 6 
#
# 1 214.6734 83.4792 7.9997 0.0000 0.0000 0.0000
# 2 83.4792 93.9973 1.8269 0.0000 0.0000 0.0000
# 3 7.9997 1.8269 46.5824 0.0000 0.0000 0.0000
# 4 0.0000 0.0000 0.0000 3.2232 0.0000 0.0000
# 5 0.0000 0.0000 0.0000 0.0000 -5.2734 0.0000
# 6 0.0000 0.0000 0.0000 0.0000 0.0000 31.8809
#
#
#
# Elastic Compliance Matrix: (Units=1/GPa)
#
#
# Indices 1 2 3 4 5 6 
#
# 1 0.007160 -0.006340 -0.000981 0.000000 0.000000 0.000000
# 2 -0.006340 0.016260 0.000451 0.000000 0.000000 0.000000
# 3 -0.000981 0.000451 0.021618 0.000000 0.000000 0.000000
# 4 0.000000 0.000000 0.000000 0.310253 0.000000 0.000000
# 5 0.000000 0.000000 0.000000 0.000000 -0.189629 0.000000
# 6 0.000000 0.000000 0.000000 0.000000 0.000000 0.031367
#
#
# Mechanical properties :
#
#
# Convention : Reuss Voigt Hill
#
# Bulk Modulus (GPa) = 31.94997 60.20720 46.07858
# Shear Modulus (GPa) = 22.60378 23.42927 23.01653
#
# Velocity S-wave (km/s) = 3.53145 3.59536 3.56355
# Velocity P-wave (km/s) = 5.85286 7.10307 6.50806
#
# Compressibility (1/GPa) = 0.03129894
#
# Stress axis : x y z
#
# Youngs Moduli (GPa) = 139.66162 61.49944 46.25748
#
# Poissons Ratio (x) = 0.38990 0.04538
# Poissons Ratio (y) = 0.88544 -0.02086
# Poissons Ratio (z) = 0.13701 -0.02774
#
# Static dielectric constant tensor:
#      x y z
#    x 1.654990 0.000000 0.000000 
#    y 0.000000 1.593620 0.000000 
#    z 0.000000 0.000000 1.710700 
# 
# From -- ./inp_files/31866.got.cif
#   From: 2010.05.17/outbox.cif.g08.bks.cpg/sg72_16_cif.got.tgz:31866.got - 2010.06.03 17:03:01.
