data_PCOD9525055
_publ_section_title
;
Structure prediction by ZEFSAII (Michael W. Deem and Ramdas Pophale) SiO2 
 PCOD9525055
Probable space group: I B A M
;
_chemical_formula_sum "Si O2"
_cell_formula_units_Z 80
_cell_length_a 14.712848
_cell_length_b 18.084411
_cell_length_c 16.294894
_cell_angle_alpha 90.000000
_cell_angle_beta 90.000000
_cell_angle_gamma 90.000000
_cell_volume 4335.634431
_symmetry_space_group_name_H-M "I B A M"
_symmetry_group_IT_number 72
_symmetry_cell_setting 'orthorhombic'
loop_
_space_group_symop_operation_xyz
x,y,z
-x,-y,z
x,-y,1/2-z
-x,y,1/2-z
-x,-y,-z
x,y,-z
-x,y,1/2+z
x,-y,1/2+z
1/2+x,1/2+y,1/2+z
1/2-x,1/2-y,1/2+z
1/2+x,1/2-y,-z
1/2-x,1/2+y,-z
1/2-x,1/2-y,1/2-z
1/2+x,1/2+y,1/2-z
1/2-x,1/2+y,z
1/2+x,1/2-y,z
loop_
_atom_site_type_symbol
_atom_site_label
_atom_site_fract_x
_atom_site_fract_y
_atom_site_fract_z
Si Si1 0.454139 0.925878 0.660216
Si Si2 0.853021 0.821681 0.909285
Si Si3 0.769681 0.793355 0.334738
Si Si4 0.527020 0.757970 0.153201
Si Si5 0.251892 0.578100 0.222067
O O1 0.500000 0.922144 0.750000
O O2 0.470421 0.843763 0.623373
O O3 0.346100 0.932207 0.677999
O O4 0.500000 0.000000 0.621523
O O5 0.791590 0.747856 0.900515
O O6 0.953397 0.792367 0.891258
O O7 0.816956 0.878175 0.840427
O O8 0.844288 0.853389 0.000000
O O9 0.750000 0.750000 0.250000
O O10 0.742196 0.874810 0.306312
O O11 0.874317 0.778917 0.354431
O O12 0.500000 0.759378 0.250000
O O13 0.289428 0.500000 0.250000
#
# Coordination Sequence:
#
# PCOD9525055 Si02
#       5
#    16  16  16  16  16
#     4  10  17  28  55  94 122 141 188 257 304 348
#     4  11  24  39  58  90 128 159 202 259 309 359
#     4  10  18  36  61  87 113 160 210 247 287 367
#     4  11  18  35  62  87 116 158 213 251 291 365
#     4  11  20  37  62  89 120 161 204 248 302 368
#
# _framework density 18.451740000000001
#
# number of rings (size 3 to 8) (size 9 to 14) (size 15 to 20)
#    0.000    1.400   10.000    1.200    0.000    0.800 
#    0.000    3.000    0.000    2.400    0.000    0.000 
#    0.000    0.000    0.000    0.000    0.000    0.000 
#
# Total GULP energy -222841.875024 kJ/mol
# GULP energy per Si atom -5571.046876 kJ/mol
# Density = 1.840974 g / cm^3
# Si number density = 18.451740 Si / 1000 Ang^3
#
#
#
# Elastic Constant Matrix: (Units=GPa)
#
#
# Indices 1 2 3 4 5 6 
#
# 1 142.0981 28.7824 13.7282 0.0000 0.0000 0.0000
# 2 28.7824 118.7888 20.7674 0.0000 0.0000 0.0000
# 3 13.7282 20.7674 46.3029 0.0000 0.0000 0.0000
# 4 0.0000 0.0000 0.0000 6.1344 0.0000 0.0000
# 5 0.0000 0.0000 0.0000 0.0000 4.5107 0.0000
# 6 0.0000 0.0000 0.0000 0.0000 0.0000 26.2113
#
#
#
# Elastic Compliance Matrix: (Units=1/GPa)
#
#
# Indices 1 2 3 4 5 6 
#
# 1 0.007499 -0.001550 -0.001528 0.000000 0.000000 0.000000
# 2 -0.001550 0.009455 -0.003781 0.000000 0.000000 0.000000
# 3 -0.001528 -0.003781 0.023746 0.000000 0.000000 0.000000
# 4 0.000000 0.000000 0.000000 0.163016 0.000000 0.000000
# 5 0.000000 0.000000 0.000000 0.000000 0.221696 0.000000
# 6 0.000000 0.000000 0.000000 0.000000 0.000000 0.038152
#
#
# Mechanical properties :
#
#
# Convention : Reuss Voigt Hill
#
# Bulk Modulus (GPa) = 37.06259 48.19398 42.62829
# Shear Modulus (GPa) = 10.28223 23.63204 16.95714
#
# Velocity S-wave (km/s) = 2.36318 3.58264 3.03479
# Velocity P-wave (km/s) = 5.25128 6.57946 5.95253
#
# Compressibility (1/GPa) = 0.02698138
#
# Stress axis : x y z
#
# Youngs Moduli (GPa) = 133.35186 105.76565 42.11254
#
# Poissons Ratio (x) = 0.16392 0.06436
# Poissons Ratio (y) = 0.20667 0.15923
# Poissons Ratio (z) = 0.20379 0.39991
#
# Static dielectric constant tensor:
#      x y z
#    x 1.572120 0.000000 0.000000 
#    y 0.000000 1.655340 0.000000 
#    z 0.000000 0.000000 1.553700 
# 
# From -- ./inp_files/30439.got.cif
#   From: 2010.05.17/outbox.cif.g08.bks.cpg/sg72_16_cif.got.tgz:30439.got - 2010.06.03 17:03:01.
