data_PCOD9525142
_publ_section_title
;
Structure prediction by ZEFSAII (Michael W. Deem and Ramdas Pophale) SiO2 
 PCOD9525142
Probable space group: I B A M
;
_chemical_formula_sum "Si O2"
_cell_formula_units_Z 96
_cell_length_a 6.928886
_cell_length_b 33.793615
_cell_length_c 15.762494
_cell_angle_alpha 90.000000
_cell_angle_beta 90.000000
_cell_angle_gamma 90.000000
_cell_volume 3690.821164
_symmetry_space_group_name_H-M "I B A M"
_symmetry_group_IT_number 72
_symmetry_cell_setting 'orthorhombic'
loop_
_space_group_symop_operation_xyz
x,y,z
-x,-y,z
x,-y,1/2-z
-x,y,1/2-z
-x,-y,-z
x,y,-z
-x,y,1/2+z
x,-y,1/2+z
1/2+x,1/2+y,1/2+z
1/2-x,1/2-y,1/2+z
1/2+x,1/2-y,-z
1/2-x,1/2+y,-z
1/2-x,1/2-y,1/2-z
1/2+x,1/2+y,1/2-z
1/2-x,1/2+y,z
1/2+x,1/2-y,z
loop_
_atom_site_type_symbol
_atom_site_label
_atom_site_fract_x
_atom_site_fract_y
_atom_site_fract_z
Si Si1 0.697549 0.073108 0.282449
Si Si2 0.626281 0.148191 0.402548
Si Si3 0.272170 0.203220 0.238170
Si Si4 0.839146 0.834714 0.592328
Si Si5 0.171811 0.918537 0.094813
Si Si6 0.732055 0.991729 0.092786
O O1 0.500000 0.054053 0.250000
O O2 0.649912 0.109069 0.345023
O O3 0.783127 0.087449 0.194926
O O4 0.795371 0.038864 0.335745
O O5 0.682739 0.143893 0.500000
O O6 0.745487 0.183153 0.354802
O O7 0.393938 0.156083 0.406096
O O8 0.500000 0.194133 0.250000
O O9 0.250000 0.250000 0.250000
O O10 0.147397 0.186132 0.316476
O O11 0.874906 0.814537 0.500000
O O12 0.946073 0.877339 0.589175
O O13 0.163145 0.966241 0.095687
O O14 0.276007 0.915330 0.000000
O O15 0.500000 0.000000 0.098012
O O16 0.764365 0.973008 0.000000
#
# Coordination Sequence:
#
# PCOD9525142 Si02
#       6
#    16  16  16  16  16  16
#     4  12  17  23  35  52  78 115 157 192 237 270
#     4  10  18  29  44  63  87 117 154 192 233 283
#     4  10  20  35  52  74  96 122 155 194 240 291
#     4   9  16  29  45  62  85 117 154 193 232 280
#     4  10  18  25  34  51  77 112 156 196 232 274
#     4  10  18  23  29  47  75 111 154 198 234 271
#
# _framework density 26.010470000000002
#
# number of rings (size 3 to 8) (size 9 to 14) (size 15 to 20)
#    0.000    1.833    5.000    1.500    0.000    0.667 
#    0.000    0.000    0.000    0.000    0.000    0.000 
#    0.000    0.000    0.000    3.000    0.000   16.167 
#
# Total GULP energy -267332.523352 kJ/mol
# GULP energy per Si atom -5569.427570 kJ/mol
# Density = 2.595127 g / cm^3
# Si number density = 26.010470 Si / 1000 Ang^3
#
#
#
# Elastic Constant Matrix: (Units=GPa)
#
#
# Indices 1 2 3 4 5 6 
#
# 1 104.5804 -13.8071 24.3123 0.0000 0.0000 0.0000
# 2 -13.8071 127.8681 73.7156 -0.0001 0.0000 0.0000
# 3 24.3123 73.7156 285.9623 -0.0002 0.0000 0.0000
# 4 0.0000 -0.0001 -0.0002 18.1313 0.0000 0.0000
# 5 0.0000 0.0000 0.0000 0.0000 28.6433 0.0000
# 6 0.0000 0.0000 0.0000 0.0000 0.0000 1.4424
#
#
#
# Elastic Compliance Matrix: (Units=1/GPa)
#
#
# Indices 1 2 3 4 5 6 
#
# 1 0.010120 0.001866 -0.001341 0.000000 0.000000 0.000000
# 2 0.001866 0.009530 -0.002615 0.000000 0.000000 0.000000
# 3 -0.001341 -0.002615 0.004285 0.000000 0.000000 0.000000
# 4 0.000000 0.000000 0.000000 0.055153 0.000000 0.000000
# 5 0.000000 0.000000 0.000000 0.000000 0.034912 0.000000
# 6 0.000000 0.000000 0.000000 0.000000 0.000000 0.693271
#
#
# Mechanical properties :
#
#
# Convention : Reuss Voigt Hill
#
# Bulk Modulus (GPa) = 50.62265 76.31692 63.46978
# Shear Modulus (GPa) = 6.11219 38.58941 22.35080
#
# Velocity S-wave (km/s) = 1.53460 3.85595 2.93456
# Velocity P-wave (km/s) = 4.75864 7.01634 5.99473
#
# Compressibility (1/GPa) = 0.01975401
#
# Stress axis : x y z
#
# Youngs Moduli (GPa) = 98.81180 104.93464 233.36280
#
# Poissons Ratio (x) = -0.19582 0.31305
# Poissons Ratio (y) = -0.18440 0.61030
# Poissons Ratio (z) = 0.13255 0.27443
#
# Static dielectric constant tensor:
#      x y z
#    x 2.284940 0.000000 0.000000 
#    y 0.000000 2.043370 0.000000 
#    z 0.000000 0.000000 2.084230 
# 
# From -- ./inp_files/22369.got.cif
#   From: 2010.05.17/outbox.cif.g08.bks.cpg/sg72_12_cif.got.tgz:22369.got - 2010.06.03 17:03:01.
