data_PCOD9525100
_publ_section_title
;
Structure prediction by ZEFSAII (Michael W. Deem and Ramdas Pophale) SiO2 
 PCOD9525100
Probable space group: I B A M
;
_chemical_formula_sum "Si O2"
_cell_formula_units_Z 120
_cell_length_a 13.021868
_cell_length_b 18.771089
_cell_length_c 30.758155
_cell_angle_alpha 90.000000
_cell_angle_beta 90.000000
_cell_angle_gamma 90.000000
_cell_volume 7518.358642
_symmetry_space_group_name_H-M "I B A M"
_symmetry_group_IT_number 72
_symmetry_cell_setting 'orthorhombic'
loop_
_space_group_symop_operation_xyz
x,y,z
-x,-y,z
x,-y,1/2-z
-x,y,1/2-z
-x,-y,-z
x,y,-z
-x,y,1/2+z
x,-y,1/2+z
1/2+x,1/2+y,1/2+z
1/2-x,1/2-y,1/2+z
1/2+x,1/2-y,-z
1/2-x,1/2+y,-z
1/2-x,1/2-y,1/2-z
1/2+x,1/2+y,1/2-z
1/2-x,1/2+y,z
1/2+x,1/2-y,z
loop_
_atom_site_type_symbol
_atom_site_label
_atom_site_fract_x
_atom_site_fract_y
_atom_site_fract_z
Si Si1 0.000000 0.500000 0.602474
Si Si2 0.539082 0.143509 0.051110
Si Si3 0.903366 0.730193 0.382482
Si Si4 0.203484 0.522918 0.341944
Si Si5 0.733008 0.158722 0.104811
Si Si6 0.756094 0.368314 0.824688
Si Si7 0.887051 0.613219 0.237459
Si Si8 0.096032 0.255034 0.174926
O O1 0.005869 0.568519 0.571981
O O2 0.098301 0.501050 0.633725
O O3 0.471198 0.199343 0.078347
O O4 0.659736 0.151758 0.063080
O O5 0.522075 0.147411 0.000000
O O6 0.834122 0.794679 0.399414
O O7 0.828456 0.670797 0.360663
O O8 0.982617 0.753989 0.344703
O O9 0.253529 0.582725 0.372748
O O10 0.266424 0.450168 0.336974
O O11 0.169983 0.561029 0.296774
O O12 0.661062 0.201365 0.138930
O O13 0.820947 0.375001 0.780461
O O14 0.657414 0.317986 0.817627
O O15 0.903950 0.690309 0.214954
O O16 0.000000 0.585444 0.250000
#
# Coordination Sequence:
#
# PCOD9525100 Si02
#       8
#     8  16  16  16  16  16  16  16
#     4  10  17  32  49  72 110 134 156 205 265 318
#     4  10  19  31  52  80 104 128 162 207 266 320
#     4  10  18  36  51  72  98 138 170 205 255 310
#     4  10  19  31  47  74 100 134 171 213 251 299
#     4   8  19  33  51  69 103 127 167 209 253 306
#     4  11  19  31  50  70 104 133 177 213 249 300
#     4  11  19  30  48  75 102 136 171 215 263 294
#     4   9  19  33  48  71  96 136 173 212 250 302
#
# _framework density 15.960931
#
# number of rings (size 3 to 8) (size 9 to 14) (size 15 to 20)
#    0.000    2.133    2.667    2.600    0.000    1.067 
#    0.000    0.667    0.000    0.000    0.000    0.000 
#    0.000    6.133    0.000    0.000    0.000    0.000 
#
# Total GULP energy -334451.829883 kJ/mol
# GULP energy per Si atom -5574.197165 kJ/mol
# Density = 1.592460 g / cm^3
# Si number density = 15.960931 Si / 1000 Ang^3
#
#
#
# Elastic Constant Matrix: (Units=GPa)
#
#
# Indices 1 2 3 4 5 6 
#
# 1 37.3438 36.6982 2.7428 0.0000 0.0000 0.0000
# 2 36.6982 112.7510 21.3239 0.0000 0.0000 0.0000
# 3 2.7428 21.3239 67.6170 0.0000 0.0000 0.0000
# 4 0.0000 0.0000 0.0000 3.8121 0.0000 0.0000
# 5 0.0000 0.0000 0.0000 0.0000 9.9894 0.0000
# 6 0.0000 0.0000 0.0000 0.0000 0.0000 24.7939
#
#
#
# Elastic Compliance Matrix: (Units=1/GPa)
#
#
# Indices 1 2 3 4 5 6 
#
# 1 0.039806 -0.013453 0.002628 0.000000 0.000000 0.000000
# 2 -0.013453 0.013978 -0.003863 0.000000 0.000000 0.000000
# 3 0.002628 -0.003863 0.015901 0.000000 0.000000 0.000000
# 4 0.000000 0.000000 0.000000 0.262325 0.000000 0.000000
# 5 0.000000 0.000000 0.000000 0.000000 0.100106 0.000000
# 6 0.000000 0.000000 0.000000 0.000000 0.000000 0.040333
#
#
# Mechanical properties :
#
#
# Convention : Reuss Voigt Hill
#
# Bulk Modulus (GPa) = 24.80811 37.69352 31.25081
# Shear Modulus (GPa) = 9.70384 18.18218 13.94301
#
# Velocity S-wave (km/s) = 2.46839 3.37882 2.95883
# Velocity P-wave (km/s) = 4.86834 6.23613 5.59419
#
# Compressibility (1/GPa) = 0.04030941
#
# Stress axis : x y z
#
# Youngs Moduli (GPa) = 25.12208 71.53965 62.89038
#
# Poissons Ratio (x) = 0.96242 -0.16527
# Poissons Ratio (y) = 0.33797 0.24292
# Poissons Ratio (z) = -0.06602 0.27632
#
# Static dielectric constant tensor:
#      x y z
#    x 1.523680 0.000000 0.000000 
#    y 0.000000 1.556700 0.000000 
#    z 0.000000 0.000000 1.524150 
# 
# From -- ./inp_files/51895.got.cif
#   From: 2010.05.17/outbox.cif.g08.bks.cpg/sg72_26_cif.got.tgz:51895.got - 2010.06.03 17:03:01.
