data_PCOD9525106
_publ_section_title
;
Structure prediction by ZEFSAII (Michael W. Deem and Ramdas Pophale) SiO2 
 PCOD9525106
Probable space group: I B A M
;
_chemical_formula_sum "Si O2"
_cell_formula_units_Z 120
_cell_length_a 11.881131
_cell_length_b 22.619605
_cell_length_c 23.939687
_cell_angle_alpha 90.000000
_cell_angle_beta 90.000000
_cell_angle_gamma 90.000000
_cell_volume 6433.706857
_symmetry_space_group_name_H-M "I B A M"
_symmetry_group_IT_number 72
_symmetry_cell_setting 'orthorhombic'
loop_
_space_group_symop_operation_xyz
x,y,z
-x,-y,z
x,-y,1/2-z
-x,y,1/2-z
-x,-y,-z
x,y,-z
-x,y,1/2+z
x,-y,1/2+z
1/2+x,1/2+y,1/2+z
1/2-x,1/2-y,1/2+z
1/2+x,1/2-y,-z
1/2-x,1/2+y,-z
1/2-x,1/2-y,1/2-z
1/2+x,1/2+y,1/2-z
1/2-x,1/2+y,z
1/2+x,1/2-y,z
loop_
_atom_site_type_symbol
_atom_site_label
_atom_site_fract_x
_atom_site_fract_y
_atom_site_fract_z
Si Si1 0.677401 0.348850 0.139996
Si Si2 0.160035 0.726356 0.934603
Si Si3 0.156779 0.541050 0.131754
Si Si4 0.242666 0.428385 0.065436
Si Si5 0.914963 0.848149 0.381721
Si Si6 0.282902 0.000000 0.250000
Si Si7 0.369132 0.383517 0.760678
Si Si8 0.489867 0.119417 0.564836
O O1 0.743440 0.298529 0.106244
O O2 0.745744 0.409232 0.129173
O O3 0.549262 0.352268 0.119925
O O4 0.672240 0.345496 0.207506
O O5 0.122957 0.791010 0.915931
O O6 0.054476 0.681200 0.928253
O O7 0.193957 0.725168 0.000000
O O8 0.197130 0.486804 0.094550
O O9 0.147527 0.519001 0.195421
O O10 0.047416 0.572253 0.105972
O O11 0.357599 0.405226 0.091130
O O12 0.143549 0.379758 0.074257
O O13 0.255148 0.438062 0.000000
O O14 0.869514 0.847504 0.318161
O O15 0.204766 0.056803 0.264658
O O16 0.500000 0.400335 0.750000
O O17 0.507578 0.100546 0.500000
#
# Coordination Sequence:
#
# PCOD9525106 Si02
#       8
#    16  16  16  16  16   8  16  16
#     4   9  22  39  61  84 114 153 195 238 299 349
#     4  10  22  39  60  82 115 157 197 240 289 345
#     4  10  19  36  60  85 117 153 193 244 291 348
#     4  11  22  36  57  86 119 154 194 241 292 349
#     4  11  22  37  58  89 117 148 199 243 289 347
#     4  10  17  32  57  84 116 152 188 238 290 350
#     4   9  18  35  58  84 114 152 190 233 289 351
#     4   9  20  39  59  80 112 162 203 229 285 353
#
# _framework density 18.651765999999999
#
# number of rings (size 3 to 8) (size 9 to 14) (size 15 to 20)
#    0.000    2.133    1.333    1.400    1.867    3.733 
#    0.000    2.000    0.000    0.000    0.000    0.000 
#    0.000    0.000    0.000    0.000    0.000    0.000 
#
# Total GULP energy -334853.385763 kJ/mol
# GULP energy per Si atom -5580.889763 kJ/mol
# Density = 1.860931 g / cm^3
# Si number density = 18.651766 Si / 1000 Ang^3
#
#
#
# Elastic Constant Matrix: (Units=GPa)
#
#
# Indices 1 2 3 4 5 6 
#
# 1 47.2092 -0.2522 23.0827 0.0000 0.0000 0.0000
# 2 -0.2522 33.9408 12.1617 0.0000 0.0000 0.0000
# 3 23.0827 12.1617 78.9208 0.0000 0.0000 0.0000
# 4 0.0000 0.0000 0.0000 34.7542 0.0000 0.0000
# 5 0.0000 0.0000 0.0000 0.0000 25.5841 0.0000
# 6 0.0000 0.0000 0.0000 0.0000 0.0000 4.7536
#
#
#
# Elastic Compliance Matrix: (Units=1/GPa)
#
#
# Indices 1 2 3 4 5 6 
#
# 1 0.024997 0.002969 -0.007769 0.000000 0.000000 0.000000
# 2 0.002969 0.031538 -0.005728 0.000000 0.000000 0.000000
# 3 -0.007769 -0.005728 0.015826 0.000000 0.000000 0.000000
# 4 0.000000 0.000000 0.000000 0.028774 0.000000 0.000000
# 5 0.000000 0.000000 0.000000 0.000000 0.039087 0.000000
# 6 0.000000 0.000000 0.000000 0.000000 0.000000 0.210368
#
#
# Mechanical properties :
#
#
# Convention : Reuss Voigt Hill
#
# Bulk Modulus (GPa) = 19.49132 25.56169 22.52651
# Shear Modulus (GPa) = 12.86187 21.35693 17.10940
#
# Velocity S-wave (km/s) = 2.62883 3.38751 3.03199
# Velocity P-wave (km/s) = 4.43702 5.38839 4.93568
#
# Compressibility (1/GPa) = 0.05130488
#
# Stress axis : x y z
#
# Youngs Moduli (GPa) = 40.00542 31.70802 63.18780
#
# Poissons Ratio (x) = -0.09415 0.49088
# Poissons Ratio (y) = -0.11879 0.36197
# Poissons Ratio (z) = 0.31079 0.18164
#
# Static dielectric constant tensor:
#      x y z
#    x 1.634870 0.000000 0.000000 
#    y 0.000000 1.622880 0.000000 
#    z 0.000000 0.000000 1.648320 
# 
# From -- ./inp_files/43587.got.cif
#   From: 2010.05.17/outbox.cif.g08.bks.cpg/sg72_22_cif.got.tgz:43587.got - 2010.06.03 17:03:01.
