data_PCOD9525767
_publ_section_title
;
Structure prediction by ZEFSAII (Michael W. Deem and Ramdas Pophale) SiO2 
 PCOD9525767
Probable space group: I B A M
;
_chemical_formula_sum "Si O2"
_cell_formula_units_Z 116
_cell_length_a 27.972710
_cell_length_b 11.573014
_cell_length_c 18.216124
_cell_angle_alpha 90.000000
_cell_angle_beta 90.000000
_cell_angle_gamma 90.000000
_cell_volume 5897.079672
_symmetry_space_group_name_H-M "I B A M"
_symmetry_group_IT_number 72
_symmetry_cell_setting 'orthorhombic'
loop_
_space_group_symop_operation_xyz
x,y,z
-x,-y,z
x,-y,1/2-z
-x,y,1/2-z
-x,-y,-z
x,y,-z
-x,y,1/2+z
x,-y,1/2+z
1/2+x,1/2+y,1/2+z
1/2-x,1/2-y,1/2+z
1/2+x,1/2-y,-z
1/2-x,1/2+y,-z
1/2-x,1/2-y,1/2-z
1/2+x,1/2+y,1/2-z
1/2-x,1/2+y,z
1/2+x,1/2-y,z
loop_
_atom_site_type_symbol
_atom_site_label
_atom_site_fract_x
_atom_site_fract_y
_atom_site_fract_z
Si Si1 0.514152 0.743837 0.419782
Si Si2 0.545855 0.335386 0.296856
Si Si3 0.821062 0.085868 0.416012
Si Si4 0.289251 0.399759 0.192381
Si Si5 0.082113 0.339011 0.182429
Si Si6 0.000000 0.500000 0.250000
Si Si7 0.570692 0.512973 0.581102
Si Si8 0.686274 0.208171 0.200756
O O1 0.497928 0.777561 0.500000
O O2 0.474528 0.755834 0.356897
O O3 0.563385 0.805271 0.397775
O O4 0.529004 0.608581 0.417425
O O5 0.500000 0.374549 0.250000
O O6 0.577593 0.272177 0.236544
O O7 0.568447 0.433072 0.347310
O O8 0.804840 0.103154 0.500000
O O9 0.878442 0.075756 0.416283
O O10 0.808699 0.193182 0.362693
O O11 0.802688 0.962651 0.383592
O O12 0.302386 0.500000 0.250000
O O13 0.313531 0.281646 0.222561
O O14 0.233103 0.370881 0.197422
O O15 0.039288 0.423380 0.206998
O O16 0.137926 0.365096 0.187870
O O17 0.568312 0.454207 0.500000
#
# Coordination Sequence:
#
# PCOD9525767 Si02
#       8
#    16  16  16  16  16   4  16  16
#     4  10  19  34  51  77 111 144 180 220 277 335
#     4  10  20  33  48  80 108 146 185 230 278 325
#     4  10  20  35  56  84 117 148 181 227 281 343
#     4   9  20  37  57  88 115 140 186 232 286 345
#     4  11  22  37  59  78 107 149 191 243 277 331
#     4  12  24  44  54  82 108 140 206 248 280 316
#     4  10  19  31  51  79 115 147 175 219 279 345
#     4  10  20  37  59  84 112 150 187 233 286 342
#
# _framework density 19.670753000000001
#
# number of rings (size 3 to 8) (size 9 to 14) (size 15 to 20)
#    0.000    1.931    3.448    1.655    0.966    5.517 
#    0.000    0.345    0.000    0.000    0.000    0.000 
#    0.000    0.000    0.000    0.000    0.000    0.000 
#
# Total GULP energy -323070.240383 kJ/mol
# GULP energy per Si atom -5570.176558 kJ/mol
# Density = 1.962598 g / cm^3
# Si number density = 19.670753 Si / 1000 Ang^3
#
#
#
# Elastic Constant Matrix: (Units=GPa)
#
#
# Indices 1 2 3 4 5 6 
#
# 1 53.1630 -1.2409 -22.9080 0.0000 0.0000 0.0000
# 2 -1.2409 32.6276 0.6115 0.0000 0.0000 0.0000
# 3 -22.9080 0.6115 88.7212 0.0000 0.0000 0.0000
# 4 0.0000 0.0000 0.0000 101.3667 0.0000 0.0000
# 5 0.0000 0.0000 0.0000 0.0000 18.7897 0.0000
# 6 0.0000 0.0000 0.0000 0.0000 0.0000 24.7097
#
#
#
# Elastic Compliance Matrix: (Units=1/GPa)
#
#
# Indices 1 2 3 4 5 6 
#
# 1 0.021181 0.000703 0.005464 0.000000 0.000000 0.000000
# 2 0.000703 0.030676 -0.000030 0.000000 0.000000 0.000000
# 3 0.005464 -0.000030 0.012682 0.000000 0.000000 0.000000
# 4 0.000000 0.000000 0.000000 0.009865 0.000000 0.000000
# 5 0.000000 0.000000 0.000000 0.000000 0.053221 0.000000
# 6 0.000000 0.000000 0.000000 0.000000 0.000000 0.040470
#
#
# Mechanical properties :
#
#
# Convention : Reuss Voigt Hill
#
# Bulk Modulus (GPa) = 13.01842 14.15969 13.58906
# Shear Modulus (GPa) = 27.55956 42.17650 34.86803
#
# Velocity S-wave (km/s) = 3.74711 4.63549 4.21477
# Velocity P-wave (km/s) = 5.03524 5.98868 5.53254
#
# Compressibility (1/GPa) = 0.07681421
#
# Stress axis : x y z
#
# Youngs Moduli (GPa) = 47.21216 32.59857 78.85001
#
# Poissons Ratio (x) = -0.02292 -0.43085
# Poissons Ratio (y) = -0.03320 0.00236
# Poissons Ratio (z) = -0.25797 0.00097
#
# Static dielectric constant tensor:
#      x y z
#    x 1.711950 0.000000 0.000000 
#    y 0.000000 1.762570 0.000000 
#    z 0.000000 0.000000 1.746230 
# 
# From -- ./inp_files/34309.got.cif
#   From: 2010.05.17/outbox.cif.g08.bks.cpg/sg72_18_cif.got.tgz:34309.got - 2010.06.03 17:03:01.
