data_PCOD9525845
_publ_section_title
;
Structure prediction by ZEFSAII (Michael W. Deem and Ramdas Pophale) SiO2 
 PCOD9525845
Probable space group: I B A M
;
_chemical_formula_sum "Si O2"
_cell_formula_units_Z 96
_cell_length_a 23.411270
_cell_length_b 26.894497
_cell_length_c 8.170440
_cell_angle_alpha 90.000000
_cell_angle_beta 90.000000
_cell_angle_gamma 90.000000
_cell_volume 5144.389522
_symmetry_space_group_name_H-M "I B A M"
_symmetry_group_IT_number 72
_symmetry_cell_setting 'orthorhombic'
loop_
_space_group_symop_operation_xyz
x,y,z
-x,-y,z
x,-y,1/2-z
-x,y,1/2-z
-x,-y,-z
x,y,-z
-x,y,1/2+z
x,-y,1/2+z
1/2+x,1/2+y,1/2+z
1/2-x,1/2-y,1/2+z
1/2+x,1/2-y,-z
1/2-x,1/2+y,-z
1/2-x,1/2-y,1/2-z
1/2+x,1/2+y,1/2-z
1/2-x,1/2+y,z
1/2+x,1/2-y,z
loop_
_atom_site_type_symbol
_atom_site_label
_atom_site_fract_x
_atom_site_fract_y
_atom_site_fract_z
Si Si1 0.179315 0.444778 0.193808
Si Si2 0.126898 0.347653 0.685988
Si Si3 0.189109 0.944016 0.198821
Si Si4 0.761155 0.695298 0.813011
Si Si5 0.134463 0.848091 0.188559
Si Si6 0.934554 0.751959 0.698887
O O1 0.163175 0.500000 0.250000
O O2 0.133733 0.402361 0.238936
O O3 0.244784 0.434927 0.255863
O O4 0.184280 0.444612 0.000000
O O5 0.107772 0.353808 0.500000
O O6 0.191900 0.328514 0.697839
O O7 0.091257 0.301066 0.758376
O O8 0.143217 0.903261 0.261242
O O9 0.174980 0.000000 0.250000
O O10 0.189316 0.940498 0.000000
O O11 0.750000 0.750000 0.750000
O O12 0.700220 0.669240 0.814602
O O13 0.783235 0.694117 0.000000
O O14 0.098845 0.801586 0.259380
O O15 0.114150 0.853622 0.000000
O O16 0.928403 0.751448 0.500000
O O17 0.000000 0.755360 0.750000
#
# Coordination Sequence:
#
# PCOD9525845 Si02
#       6
#    16  16  16  16  16  16
#     4  10  19  32  51  78 112 147 178 211 256 315
#     4  11  21  34  53  78 109 142 176 218 267 322
#     4   9  17  30  48  73 107 142 172 206 252 307
#     4  11  19  31  49  76 109 140 173 211 266 325
#     4   9  17  33  52  72 105 142 170 210 265 313
#     4  10  22  39  56  75 102 137 179 226 272 317
#
# _framework density 18.661107000000001
#
# number of rings (size 3 to 8) (size 9 to 14) (size 15 to 20)
#    0.000    2.000    3.333    1.500    0.000    2.000 
#    0.000    0.833    0.000    1.000    0.000    7.000 
#    0.000    0.000    0.000    0.000    0.000    0.000 
#
# Total GULP energy -267258.431216 kJ/mol
# GULP energy per Si atom -5567.883984 kJ/mol
# Density = 1.861863 g / cm^3
# Si number density = 18.661107 Si / 1000 Ang^3
#
#
#
# Elastic Constant Matrix: (Units=GPa)
#
#
# Indices 1 2 3 4 5 6 
#
# 1 62.1275 47.7262 1.3957 0.0000 0.0000 0.0000
# 2 47.7262 180.9012 14.6978 0.0000 0.0000 0.0000
# 3 1.3957 14.6978 16.6394 0.0000 0.0000 0.0000
# 4 0.0000 0.0000 0.0000 20.6567 0.0000 0.0000
# 5 0.0000 0.0000 0.0000 0.0000 17.7786 0.0000
# 6 0.0000 0.0000 0.0000 0.0000 0.0000 6.0577
#
#
#
# Elastic Compliance Matrix: (Units=1/GPa)
#
#
# Indices 1 2 3 4 5 6 
#
# 1 0.020351 -0.005635 0.003270 0.000000 0.000000 0.000000
# 2 -0.005635 0.007515 -0.006166 0.000000 0.000000 0.000000
# 3 0.003270 -0.006166 0.065270 0.000000 0.000000 0.000000
# 4 0.000000 0.000000 0.000000 0.048410 0.000000 0.000000
# 5 0.000000 0.000000 0.000000 0.000000 0.056247 0.000000
# 6 0.000000 0.000000 0.000000 0.000000 0.000000 0.165080
#
#
# Mechanical properties :
#
#
# Convention : Reuss Voigt Hill
#
# Bulk Modulus (GPa) = 13.14475 43.03417 28.08946
# Shear Modulus (GPa) = 12.33672 21.95517 17.14595
#
# Velocity S-wave (km/s) = 2.57396 3.43377 3.03447
# Velocity P-wave (km/s) = 3.98659 6.23153 5.23091
#
# Compressibility (1/GPa) = 0.07607597
#
# Stress axis : x y z
#
# Youngs Moduli (GPa) = 49.13739 133.05938 15.32092
#
# Poissons Ratio (x) = 0.74977 -0.05010
# Poissons Ratio (y) = 0.27688 0.09447
# Poissons Ratio (z) = -0.16069 0.82042
#
# Static dielectric constant tensor:
#      x y z
#    x 1.613260 0.000000 0.000000 
#    y 0.000000 1.670760 0.000000 
#    z 0.000000 0.000000 1.641080 
# 
# From -- ./inp_files/5971.got.cif
#   From: 2010.05.17/outbox.cif.g08.bks.cpg/sg72_3_cif.got.tgz:5971.got - 2010.06.03 17:03:01.
