data_PCOD9525088
_publ_section_title
;
Structure prediction by ZEFSAII (Michael W. Deem and Ramdas Pophale) SiO2 
 PCOD9525088
Probable space group: I B A M
;
_chemical_formula_sum "Si O2"
_cell_formula_units_Z 64
_cell_length_a 5.510216
_cell_length_b 35.314248
_cell_length_c 13.792661
_cell_angle_alpha 90.000000
_cell_angle_beta 90.000000
_cell_angle_gamma 90.000000
_cell_volume 2683.901964
_symmetry_space_group_name_H-M "I B A M"
_symmetry_group_IT_number 72
_symmetry_cell_setting 'orthorhombic'
loop_
_space_group_symop_operation_xyz
x,y,z
-x,-y,z
x,-y,1/2-z
-x,y,1/2-z
-x,-y,-z
x,y,-z
-x,y,1/2+z
x,-y,1/2+z
1/2+x,1/2+y,1/2+z
1/2-x,1/2-y,1/2+z
1/2+x,1/2-y,-z
1/2-x,1/2+y,-z
1/2-x,1/2-y,1/2-z
1/2+x,1/2+y,1/2-z
1/2-x,1/2+y,z
1/2+x,1/2-y,z
loop_
_atom_site_type_symbol
_atom_site_label
_atom_site_fract_x
_atom_site_fract_y
_atom_site_fract_z
Si Si1 0.884226 0.105016 0.385796
Si Si2 0.328510 0.029688 0.173633
Si Si3 0.640983 0.770172 0.618285
Si Si4 0.879755 0.357728 0.381118
O O1 0.892145 0.113141 0.500000
O O2 0.840626 0.059976 0.374639
O O3 0.643464 0.126908 0.350745
O O4 0.144756 0.118392 0.347923
O O5 0.500000 0.052323 0.250000
O O6 0.500000 0.000000 0.113559
O O7 0.223397 0.000000 0.250000
O O8 0.640320 0.769162 0.500000
O O9 0.384542 0.751883 0.648775
O O10 0.653812 0.814061 0.646587
O O11 0.881900 0.359579 0.500000
#
# Coordination Sequence:
#
# PCOD9525088 Si02
#       4
#    16  16  16  16
#     4  10  17  31  49  69  98 127 158 195 240 281
#     4   6  16  34  51  71  95 124 152 208 227 289
#     4   9  15  24  38  59  93 131 158 185 229 277
#     4   9  18  27  43  70  97 127 162 197 231 280
#
# _framework density 23.845877999999999
#
# number of rings (size 3 to 8) (size 9 to 14) (size 15 to 20)
#    1.500    2.000    0.000    1.500    0.000    6.500 
#    0.000    3.750    0.000    4.500    0.000    0.000 
#    0.000   20.000    0.000    0.000    0.000    0.000 
#
# Total GULP energy -178258.801685 kJ/mol
# GULP energy per Si atom -5570.587553 kJ/mol
# Density = 2.379160 g / cm^3
# Si number density = 23.845878 Si / 1000 Ang^3
#
#
#
# Elastic Constant Matrix: (Units=GPa)
#
#
# Indices 1 2 3 4 5 6 
#
# 1 223.8811 117.4069 46.7340 0.0000 0.0000 0.0000
# 2 117.4069 166.4428 8.4789 0.0000 0.0000 0.0000
# 3 46.7340 8.4789 54.8097 0.0000 0.0000 0.0000
# 4 0.0000 0.0000 0.0000 -0.7541 0.0000 0.0000
# 5 0.0000 0.0000 0.0000 0.0000 32.0251 0.0000
# 6 0.0000 0.0000 0.0000 0.0000 0.0000 63.0127
#
#
#
# Elastic Compliance Matrix: (Units=1/GPa)
#
#
# Indices 1 2 3 4 5 6 
#
# 1 0.009048 -0.006037 -0.006781 0.000000 0.000000 0.000000
# 2 -0.006037 0.010084 0.003588 0.000000 0.000000 0.000000
# 3 -0.006781 0.003588 0.023472 0.000001 0.000000 0.000000
# 4 0.000000 0.000000 0.000001 -1.326032 0.000000 0.000000
# 5 0.000000 0.000000 0.000000 0.000000 0.031226 0.000000
# 6 0.000000 0.000000 0.000000 0.000000 0.000000 0.015870
#
#
# Mechanical properties :
#
#
# Convention : Reuss Voigt Hill
#
# Bulk Modulus (GPa) = 41.42022 87.81925 64.61973
# Shear Modulus (GPa) = -4.13283 37.02431 16.44574
#
# Velocity S-wave (km/s) = -1.31792 3.94464 2.62900
# Velocity P-wave (km/s) = 3.88482 7.59307 6.03103
#
# Compressibility (1/GPa) = 0.02414280
#
# Stress axis : x y z
#
# Youngs Moduli (GPa) = 110.52137 99.16991 42.60421
#
# Poissons Ratio (x) = 0.59868 0.28890
# Poissons Ratio (y) = 0.66721 -0.15284
# Poissons Ratio (z) = 0.74944 -0.35578
#
# Static dielectric constant tensor:
#      x y z
#    x 1.954430 0.000000 0.000000 
#    y 0.000000 1.836360 0.000000 
#    z 0.000000 0.000000 -0.006760 
# 
# From -- ./inp_files/27001.got.cif
#   From: 2010.05.17/outbox.cif.g08.bks.cpg/sg72_14_cif.got.tgz:27001.got - 2010.06.03 17:03:01.
