data_PCOD9525543
_publ_section_title
;
Structure prediction by ZEFSAII (Michael W. Deem and Ramdas Pophale) SiO2 
 PCOD9525543
Probable space group: I B A M
;
_chemical_formula_sum "Si O2"
_cell_formula_units_Z 116
_cell_length_a 9.584461
_cell_length_b 25.320395
_cell_length_c 24.283405
_cell_angle_alpha 90.000000
_cell_angle_beta 90.000000
_cell_angle_gamma 90.000000
_cell_volume 5893.153509
_symmetry_space_group_name_H-M "I B A M"
_symmetry_group_IT_number 72
_symmetry_cell_setting 'orthorhombic'
loop_
_space_group_symop_operation_xyz
x,y,z
-x,-y,z
x,-y,1/2-z
-x,y,1/2-z
-x,-y,-z
x,y,-z
-x,y,1/2+z
x,-y,1/2+z
1/2+x,1/2+y,1/2+z
1/2-x,1/2-y,1/2+z
1/2+x,1/2-y,-z
1/2-x,1/2+y,-z
1/2-x,1/2-y,1/2-z
1/2+x,1/2+y,1/2-z
1/2-x,1/2+y,z
1/2+x,1/2-y,z
loop_
_atom_site_type_symbol
_atom_site_label
_atom_site_fract_x
_atom_site_fract_y
_atom_site_fract_z
Si Si1 0.320850 0.279828 0.437402
Si Si2 0.470454 0.614552 0.314805
Si Si3 0.983533 0.677291 0.690073
Si Si4 0.093220 0.221623 0.381174
Si Si5 0.170373 0.579597 0.669061
Si Si6 0.242661 0.383944 0.630352
Si Si7 0.999184 0.437655 0.937752
Si Si8 0.500000 0.000000 0.250000
O O1 0.275583 0.277407 0.500000
O O2 0.247771 0.232943 0.402978
O O3 0.486872 0.280488 0.432031
O O4 0.273765 0.333961 0.408544
O O5 0.500000 0.621253 0.250000
O O6 0.430800 0.670572 0.343478
O O7 0.335826 0.577748 0.323118
O O8 0.612086 0.595375 0.345244
O O9 0.958016 0.726136 0.650533
O O10 0.851028 0.638601 0.680567
O O11 0.000000 0.700683 0.750000
O O12 0.113786 0.638225 0.683079
O O13 0.122859 0.574212 0.605417
O O14 0.092155 0.537493 0.709222
O O15 0.141941 0.420831 0.594362
O O16 0.000000 0.500000 0.943448
O O17 0.008833 0.414450 0.000000
#
# Coordination Sequence:
#
# PCOD9525543 Si02
#       8
#    16  16  16  16  16  16  16   4
#     4  10  19  34  53  76 115 159 200 248 296 350
#     4  11  23  38  59  90 133 163 198 253 319 382
#     4  10  18  34  60  82 116 156 202 241 289 351
#     4  10  21  35  53  87 116 159 204 244 293 365
#     4  11  23  40  66  94 121 161 210 254 309 370
#     4   9  21  36  55  84 118 154 197 244 314 368
#     4  10  21  41  67  88 113 155 209 261 306 369
#     4  12  24  44  68  92 124 156 210 266 312 370
#
# _framework density 19.683859000000002
#
# number of rings (size 3 to 8) (size 9 to 14) (size 15 to 20)
#    0.000    1.793    1.379    2.897    1.931    0.000 
#    0.000   16.897    0.000    1.655    0.000    0.000 
#    0.000    0.000    0.000    0.000    0.000    0.000 
#
# Total GULP energy -323423.046565 kJ/mol
# GULP energy per Si atom -5576.259424 kJ/mol
# Density = 1.963906 g / cm^3
# Si number density = 19.683859 Si / 1000 Ang^3
#
#
#
# Elastic Constant Matrix: (Units=GPa)
#
#
# Indices 1 2 3 4 5 6 
#
# 1 143.8359 22.3583 55.8623 0.0000 0.0000 0.0000
# 2 22.3583 40.7637 21.9329 0.0000 0.0000 0.0000
# 3 55.8623 21.9329 143.5628 0.0000 0.0000 0.0000
# 4 0.0000 0.0000 0.0000 31.0629 0.0000 0.0000
# 5 0.0000 0.0000 0.0000 0.0000 25.7300 0.0000
# 6 0.0000 0.0000 0.0000 0.0000 0.0000 3.8142
#
#
#
# Elastic Compliance Matrix: (Units=1/GPa)
#
#
# Indices 1 2 3 4 5 6 
#
# 1 0.008548 -0.003158 -0.002843 0.000000 0.000000 0.000000
# 2 -0.003158 0.027896 -0.003033 0.000000 0.000000 0.000000
# 3 -0.002843 -0.003033 0.008535 0.000000 0.000000 0.000000
# 4 0.000000 0.000000 0.000000 0.032193 0.000000 0.000000
# 5 0.000000 0.000000 0.000000 0.000000 0.038865 0.000000
# 6 0.000000 0.000000 0.000000 0.000000 0.000000 0.262175
#
#
# Mechanical properties :
#
#
# Convention : Reuss Voigt Hill
#
# Bulk Modulus (GPa) = 37.16163 58.71881 47.94022
# Shear Modulus (GPa) = 12.33803 27.32202 19.83002
#
# Velocity S-wave (km/s) = 2.50633 3.72968 3.17744
# Velocity P-wave (km/s) = 5.22454 6.96011 6.15382
#
# Compressibility (1/GPa) = 0.02690947
#
# Stress axis : x y z
#
# Youngs Moduli (GPa) = 116.99127 35.84772 117.15935
#
# Poissons Ratio (x) = 0.11322 0.33314
# Poissons Ratio (y) = 0.36950 0.35533
# Poissons Ratio (z) = 0.33266 0.10872
#
# Static dielectric constant tensor:
#      x y z
#    x 1.858140 0.000000 0.000000 
#    y 0.000000 1.679790 0.000000 
#    z 0.000000 0.000000 1.713490 
# 
# From -- ./inp_files/42718.got.cif
#   From: 2010.05.17/outbox.cif.g08.bks.cpg/sg72_22_cif.got.tgz:42718.got - 2010.06.03 17:03:01.
