data_PCOD9525824
_publ_section_title
;
Structure prediction by ZEFSAII (Michael W. Deem and Ramdas Pophale) SiO2 
 PCOD9525824
Probable space group: I B A M
;
_chemical_formula_sum "Si O2"
_cell_formula_units_Z 64
_cell_length_a 12.404246
_cell_length_b 23.608852
_cell_length_c 9.985837
_cell_angle_alpha 90.000000
_cell_angle_beta 90.000000
_cell_angle_gamma 90.000000
_cell_volume 2924.352445
_symmetry_space_group_name_H-M "I B A M"
_symmetry_group_IT_number 72
_symmetry_cell_setting 'orthorhombic'
loop_
_space_group_symop_operation_xyz
x,y,z
-x,-y,z
x,-y,1/2-z
-x,y,1/2-z
-x,-y,-z
x,y,-z
-x,y,1/2+z
x,-y,1/2+z
1/2+x,1/2+y,1/2+z
1/2-x,1/2-y,1/2+z
1/2+x,1/2-y,-z
1/2-x,1/2+y,-z
1/2-x,1/2-y,1/2-z
1/2+x,1/2+y,1/2-z
1/2-x,1/2+y,z
1/2+x,1/2-y,z
loop_
_atom_site_type_symbol
_atom_site_label
_atom_site_fract_x
_atom_site_fract_y
_atom_site_fract_z
Si Si1 0.092480 0.779426 0.657364
Si Si2 0.662697 0.822360 0.155313
Si Si3 0.868775 0.924331 0.500000
Si Si4 0.765448 0.566446 0.739970
Si Si5 0.101908 0.940565 0.500000
O O1 0.063867 0.772979 0.500000
O O2 0.208520 0.809838 0.660887
O O3 0.113213 0.720125 0.736051
O O4 0.000000 0.807616 0.750000
O O5 0.646417 0.887769 0.196163
O O6 0.630025 0.812656 0.000000
O O7 0.793609 0.913551 0.374274
O O8 0.992390 0.903811 0.500000
O O9 0.898333 0.991012 0.500000
O O10 0.798249 0.500000 0.750000
O O11 0.672101 0.570557 0.629723
#
# Coordination Sequence:
#
# PCOD9525824 Si02
#       5
#    16  16   8  16   8
#     4  10  22  40  63  87 112 147 191 241 293 339
#     4  10  21  39  59  84 118 152 193 236 281 342
#     4   9  18  26  44  67 103 147 191 229 261 330
#     4  10  19  32  50  77 112 152 188 228 281 335
#     4   9  16  30  42  65 103 149 191 223 271 324
#
# _framework density 21.885186999999998
#
# number of rings (size 3 to 8) (size 9 to 14) (size 15 to 20)
#    0.000    2.250    1.250    1.500    1.750    6.000 
#    0.000    0.000    0.000    0.750    0.000    3.500 
#    0.000    0.000    0.000    0.000    0.000    0.000 
#
# Total GULP energy -178412.850897 kJ/mol
# GULP energy per Si atom -5575.401591 kJ/mol
# Density = 2.183537 g / cm^3
# Si number density = 21.885187 Si / 1000 Ang^3
#
#
#
# Elastic Constant Matrix: (Units=GPa)
#
#
# Indices 1 2 3 4 5 6 
#
# 1 42.2998 7.6913 14.5262 0.0000 0.0000 0.0000
# 2 7.6913 114.7826 29.2823 0.0000 0.0000 0.0000
# 3 14.5262 29.2823 193.3295 -0.0002 -0.0001 0.0000
# 4 0.0000 0.0000 -0.0002 43.2269 0.0000 0.0000
# 5 0.0000 0.0000 -0.0001 0.0000 32.5848 0.0000
# 6 0.0000 0.0000 0.0000 0.0000 0.0000 4.3319
#
#
#
# Elastic Compliance Matrix: (Units=1/GPa)
#
#
# Indices 1 2 3 4 5 6 
#
# 1 0.024429 -0.001216 -0.001651 0.000000 0.000000 0.000000
# 2 -0.001216 0.009123 -0.001290 0.000000 0.000000 0.000000
# 3 -0.001651 -0.001290 0.005492 0.000000 0.000000 0.000000
# 4 0.000000 0.000000 0.000000 0.023134 0.000000 0.000000
# 5 0.000000 0.000000 0.000000 0.000000 0.030689 0.000000
# 6 0.000000 0.000000 0.000000 0.000000 0.000000 0.230846
#
#
# Mechanical properties :
#
#
# Convention : Reuss Voigt Hill
#
# Bulk Modulus (GPa) = 32.54269 50.37906 41.46088
# Shear Modulus (GPa) = 14.60832 35.95619 25.28226
#
# Velocity S-wave (km/s) = 2.58640 4.05773 3.40254
# Velocity P-wave (km/s) = 4.88071 6.70993 5.86705
#
# Compressibility (1/GPa) = 0.03072886
#
# Stress axis : x y z
#
# Youngs Moduli (GPa) = 40.93506 109.61571 182.08142
#
# Poissons Ratio (x) = 0.13325 0.30069
# Poissons Ratio (y) = 0.04976 0.23496
# Poissons Ratio (z) = 0.06760 0.14145
#
# Static dielectric constant tensor:
#      x y z
#    x 1.870770 0.000000 0.000000 
#    y 0.000000 1.922260 0.000000 
#    z 0.000000 0.000000 1.836730 
# 
# From -- ./inp_files/3482.got.cif
#   From: 2010.05.17/outbox.cif.g08.bks.cpg/sg72_2_cif.got.tgz:3482.got - 2010.06.03 17:03:01.
