data_PCOD9525417
_publ_section_title
;
Structure prediction by ZEFSAII (Michael W. Deem and Ramdas Pophale) SiO2 
 PCOD9525417
Probable space group: I B A M
;
_chemical_formula_sum "Si O2"
_cell_formula_units_Z 116
_cell_length_a 8.452976
_cell_length_b 29.826667
_cell_length_c 24.929068
_cell_angle_alpha 90.000000
_cell_angle_beta 90.000000
_cell_angle_gamma 90.000000
_cell_volume 6285.218841
_symmetry_space_group_name_H-M "I B A M"
_symmetry_group_IT_number 72
_symmetry_cell_setting 'orthorhombic'
loop_
_space_group_symop_operation_xyz
x,y,z
-x,-y,z
x,-y,1/2-z
-x,y,1/2-z
-x,-y,-z
x,y,-z
-x,y,1/2+z
x,-y,1/2+z
1/2+x,1/2+y,1/2+z
1/2-x,1/2-y,1/2+z
1/2+x,1/2-y,-z
1/2-x,1/2+y,-z
1/2-x,1/2-y,1/2-z
1/2+x,1/2+y,1/2-z
1/2-x,1/2+y,z
1/2+x,1/2-y,z
loop_
_atom_site_type_symbol
_atom_site_label
_atom_site_fract_x
_atom_site_fract_y
_atom_site_fract_z
Si Si1 0.000000 0.000000 0.750000
Si Si2 0.506226 0.811452 0.937756
Si Si3 0.610028 0.360357 0.629387
Si Si4 0.377603 0.903648 0.063735
Si Si5 0.842428 0.919783 0.814666
Si Si6 0.643364 0.278385 0.563184
Si Si7 0.154663 0.371412 0.222075
Si Si8 0.988731 0.549917 0.345139
O O1 0.904459 0.034452 0.712448
O O2 0.491822 0.862142 0.917254
O O3 0.615434 0.771974 0.915833
O O4 0.327673 0.791912 0.935438
O O5 0.551396 0.816455 0.000000
O O6 0.706112 0.388289 0.584406
O O7 0.476382 0.392011 0.654420
O O8 0.555696 0.315121 0.599670
O O9 0.738583 0.348416 0.676165
O O10 0.429929 0.946513 0.096919
O O11 0.382482 0.907342 0.000000
O O12 0.773596 0.888020 0.767848
O O13 0.691204 0.934077 0.849142
O O14 0.593907 0.280638 0.500000
O O15 0.082377 0.415614 0.193074
O O16 0.000000 0.348896 0.250000
O O17 0.000000 0.500000 0.323269
#
# Coordination Sequence:
#
# PCOD9525417 Si02
#       8
#     4  16  16  16  16  16  16  16
#     4  12  20  32  54  72 110 128 158 224 280 292
#     4   8  15  29  49  74  99 130 167 209 257 297
#     4  10  18  32  50  80 105 134 167 214 269 312
#     4   9  19  36  53  71 107 146 174 209 255 309
#     4  11  21  32  53  80 103 131 171 222 269 304
#     4   9  17  30  52  78 106 131 164 210 257 311
#     4   9  18  34  50  73 103 135 168 215 264 312
#     4  10  21  34  53  78 105 138 178 214 257 315
#
# _framework density 18.456001000000001
#
# number of rings (size 3 to 8) (size 9 to 14) (size 15 to 20)
#    0.000    2.483    1.379    2.069    1.931    3.310 
#    0.000    2.759    0.000    0.828    0.000   68.552 
#    0.000    0.000    0.000    0.000    0.000    0.000 
#
# Total GULP energy -322983.771267 kJ/mol
# GULP energy per Si atom -5568.685712 kJ/mol
# Density = 1.841399 g / cm^3
# Si number density = 18.456001 Si / 1000 Ang^3
#
#
#
# Elastic Constant Matrix: (Units=GPa)
#
#
# Indices 1 2 3 4 5 6 
#
# 1 43.9576 8.9106 18.0430 0.0000 0.0000 0.0000
# 2 8.9106 39.4080 1.9828 0.0000 0.0000 0.0000
# 3 18.0430 1.9828 66.4726 0.0000 0.0000 0.0000
# 4 0.0000 0.0000 0.0000 22.3465 0.0000 0.0000
# 5 0.0000 0.0000 0.0000 0.0000 19.4710 0.0000
# 6 0.0000 0.0000 0.0000 0.0000 0.0000 11.2991
#
#
#
# Elastic Compliance Matrix: (Units=1/GPa)
#
#
# Indices 1 2 3 4 5 6 
#
# 1 0.026825 -0.005708 -0.007111 0.000000 0.000000 0.000000
# 2 -0.005708 0.026628 0.000755 0.000000 0.000000 0.000000
# 3 -0.007111 0.000755 0.016951 0.000000 0.000000 0.000000
# 4 0.000000 0.000000 0.000000 0.044750 0.000000 0.000000
# 5 0.000000 0.000000 0.000000 0.000000 0.051359 0.000000
# 6 0.000000 0.000000 0.000000 0.000000 0.000000 0.088503
#
#
# Mechanical properties :
#
#
# Convention : Reuss Voigt Hill
#
# Bulk Modulus (GPa) = 21.60887 23.07897 22.34392
# Shear Modulus (GPa) = 16.97397 18.68343 17.82870
#
# Velocity S-wave (km/s) = 3.03594 3.18515 3.11144
# Velocity P-wave (km/s) = 4.90133 5.10480 5.00410
#
# Compressibility (1/GPa) = 0.04627729
#
# Stress axis : x y z
#
# Youngs Moduli (GPa) = 37.27871 37.55424 58.99203
#
# Poissons Ratio (x) = 0.21435 0.41949
# Poissons Ratio (y) = 0.21277 -0.04454
# Poissons Ratio (z) = 0.26509 -0.02835
#
# Static dielectric constant tensor:
#      x y z
#    x 1.670160 0.000000 0.000000 
#    y 0.000000 1.647900 0.000000 
#    z 0.000000 0.000000 1.657630 
# 
# From -- ./inp_files/47727.got.cif
#   From: 2010.05.17/outbox.cif.g08.bks.cpg/sg72_24_cif.got.tgz:47727.got - 2010.06.03 17:03:01.
