data_PCOD9525197
_publ_section_title
;
Structure prediction by ZEFSAII (Michael W. Deem and Ramdas Pophale) SiO2 
 PCOD9525197
Probable space group: I B A M
;
_chemical_formula_sum "Si O2"
_cell_formula_units_Z 96
_cell_length_a 19.665291
_cell_length_b 26.768645
_cell_length_c 8.638771
_cell_angle_alpha 90.000000
_cell_angle_beta 90.000000
_cell_angle_gamma 90.000000
_cell_volume 4547.563031
_symmetry_space_group_name_H-M "I B A M"
_symmetry_group_IT_number 72
_symmetry_cell_setting 'orthorhombic'
loop_
_space_group_symop_operation_xyz
x,y,z
-x,-y,z
x,-y,1/2-z
-x,y,1/2-z
-x,-y,-z
x,y,-z
-x,y,1/2+z
x,-y,1/2+z
1/2+x,1/2+y,1/2+z
1/2-x,1/2-y,1/2+z
1/2+x,1/2-y,-z
1/2-x,1/2+y,-z
1/2-x,1/2-y,1/2-z
1/2+x,1/2+y,1/2-z
1/2-x,1/2+y,z
1/2+x,1/2-y,z
loop_
_atom_site_type_symbol
_atom_site_label
_atom_site_fract_x
_atom_site_fract_y
_atom_site_fract_z
Si Si1 0.174689 0.239563 0.814777
Si Si2 0.646308 0.152444 0.815813
Si Si3 0.929486 0.161580 0.185548
Si Si4 0.753305 0.418565 0.818989
Si Si5 0.608802 0.048922 0.815310
Si Si6 0.389652 0.553172 0.682867
O O1 0.250000 0.250000 0.750000
O O2 0.132159 0.290488 0.777527
O O3 0.283986 0.135194 0.769260
O O4 0.178147 0.233650 0.000000
O O5 0.634801 0.306897 0.743218
O O6 0.591566 0.107877 0.784442
O O7 0.659949 0.150051 0.000000
O O8 0.923633 0.104125 0.242848
O O9 0.000000 0.182900 0.250000
O O10 0.930027 0.161492 0.000000
O O11 0.818997 0.450734 0.773760
O O12 0.689503 0.437544 0.723284
O O13 0.737773 0.420485 0.000000
O O14 0.572079 0.000000 0.750000
O O15 0.614612 0.043683 0.000000
O O16 0.411771 0.500000 0.750000
O O17 0.398698 0.550875 0.500000
#
# Coordination Sequence:
#
# PCOD9525197 Si02
#       6
#    16  16  16  16  16  16
#     4  11  22  39  62  89 119 155 199 249 305 364
#     4   8  18  32  46  68 105 146 184 231 285 342
#     4  11  26  46  66  89 119 157 201 255 312 370
#     4  10  18  28  46  74 107 145 189 236 290 345
#     4   9  16  27  41  64 102 144 183 224 277 337
#     4  11  23  38  56  79 109 147 196 248 300 355
#
# _framework density 21.110208
#
# number of rings (size 3 to 8) (size 9 to 14) (size 15 to 20)
#    1.000    1.000    0.000    4.500    0.000    8.333 
#    0.000    1.667    0.000    0.000    0.000    0.000 
#    0.000    0.667    0.000    7.667    0.000    6.833 
#
# Total GULP energy -267292.919278 kJ/mol
# GULP energy per Si atom -5568.602485 kJ/mol
# Density = 2.106216 g / cm^3
# Si number density = 21.110208 Si / 1000 Ang^3
#
#
#
# Elastic Constant Matrix: (Units=GPa)
#
#
# Indices 1 2 3 4 5 6 
#
# 1 80.0194 32.3635 3.4072 0.0000 0.0000 0.0000
# 2 32.3635 160.4562 44.2904 0.0000 0.0000 0.0000
# 3 3.4072 44.2904 37.9795 0.0000 0.0000 0.0000
# 4 0.0000 0.0000 0.0000 31.1795 0.0000 0.0000
# 5 0.0000 0.0000 0.0000 0.0000 -4.0419 0.0000
# 6 0.0000 0.0000 0.0000 0.0000 0.0000 -27.3038
#
#
#
# Elastic Compliance Matrix: (Units=1/GPa)
#
#
# Indices 1 2 3 4 5 6 
#
# 1 0.013830 -0.003609 0.002968 0.000000 0.000000 0.000000
# 2 -0.003609 0.010132 -0.011492 0.000000 0.000000 0.000000
# 3 0.002968 -0.011492 0.039465 0.000000 0.000000 0.000000
# 4 0.000000 0.000000 0.000000 0.032072 0.000000 0.000000
# 5 0.000000 0.000000 0.000000 0.000000 -0.247407 0.000000
# 6 0.000000 0.000000 0.000000 0.000000 0.000000 -0.036625
#
#
# Mechanical properties :
#
#
# Convention : Reuss Voigt Hill
#
# Bulk Modulus (GPa) = 25.53537 48.73081 37.13309
# Shear Modulus (GPa) = -33.06630 13.19302 -9.93664
#
# Velocity S-wave (km/s) = -3.96203 2.50263 -2.17192
# Velocity P-wave (km/s) = 2.96778 5.61115 3.36729
#
# Compressibility (1/GPa) = 0.03916136
#
# Stress axis : x y z
#
# Youngs Moduli (GPa) = 72.30603 98.69517 25.33865
#
# Poissons Ratio (x) = 0.35615 -0.07519
# Poissons Ratio (y) = 0.26092 0.29119
# Poissons Ratio (z) = -0.21457 1.13421
#
# Static dielectric constant tensor:
#      x y z
#    x 1.742720 0.000000 0.000000 
#    y 0.000000 1.877200 0.000000 
#    z 0.000000 0.000000 1.704450 
# 
# From -- ./inp_files/8053.got.cif
#   From: 2010.05.17/outbox.cif.g08.bks.cpg/sg72_5_cif.got.tgz:8053.got - 2010.06.03 17:03:01.
