data_PCOD9525546
_publ_section_title
;
Structure prediction by ZEFSAII (Michael W. Deem and Ramdas Pophale) SiO2 
 PCOD9525546
Probable space group: I B A M
;
_chemical_formula_sum "Si O2"
_cell_formula_units_Z 88
_cell_length_a 24.679731
_cell_length_b 7.371753
_cell_length_c 23.683699
_cell_angle_alpha 90.000000
_cell_angle_beta 90.000000
_cell_angle_gamma 90.000000
_cell_volume 4308.843593
_symmetry_space_group_name_H-M "I B A M"
_symmetry_group_IT_number 72
_symmetry_cell_setting 'orthorhombic'
loop_
_space_group_symop_operation_xyz
x,y,z
-x,-y,z
x,-y,1/2-z
-x,y,1/2-z
-x,-y,-z
x,y,-z
-x,y,1/2+z
x,-y,1/2+z
1/2+x,1/2+y,1/2+z
1/2-x,1/2-y,1/2+z
1/2+x,1/2-y,-z
1/2-x,1/2+y,-z
1/2-x,1/2-y,1/2-z
1/2+x,1/2+y,1/2-z
1/2-x,1/2+y,z
1/2+x,1/2-y,z
loop_
_atom_site_type_symbol
_atom_site_label
_atom_site_fract_x
_atom_site_fract_y
_atom_site_fract_z
Si Si1 0.500000 0.500000 0.636148
Si Si2 0.383611 0.551849 0.314039
Si Si3 0.772128 0.322918 0.500000
Si Si4 0.339310 0.800753 0.500000
Si Si5 0.886373 0.594406 0.616626
Si Si6 0.339906 0.279749 0.399951
Si Si7 0.956583 0.693839 0.065082
O O1 0.554549 0.508794 0.672320
O O2 0.498119 0.326001 0.595614
O O3 0.371737 0.500000 0.250000
O O4 0.383554 0.762063 0.333152
O O5 0.343500 0.436256 0.353947
O O6 0.708079 0.345018 0.500000
O O7 0.807427 0.506067 0.500000
O O8 0.790682 0.220518 0.556803
O O9 0.372185 0.802942 0.442002
O O10 0.845223 0.424542 0.625671
O O11 0.941374 0.484512 0.601406
O O12 0.397228 0.293028 0.433782
O O13 0.969494 0.660283 0.000000
#
# Coordination Sequence:
#
# PCOD9525546 Si02
#       7
#     8  16   8   8  16  16  16
#     4  10  22  36  56  84 108 157 209 252 292 338
#     4  11  23  38  57  79 113 157 213 247 282 340
#     4  10  18  34  60  93 126 140 180 248 291 372
#     4  10  20  34  60 101 119 146 192 232 305 375
#     4   9  19  38  57  82 123 154 188 237 307 368
#     4   8  18  36  55  82 119 148 186 234 308 352
#     4   9  15  36  55  81 122 148 184 245 305 367
#
# _framework density 20.423113000000001
#
# number of rings (size 3 to 8) (size 9 to 14) (size 15 to 20)
#    1.091    1.455    1.818    0.545    2.545    1.455 
#    3.273    0.909    4.000    1.091    0.000    0.000 
#    0.000    0.000    0.000    0.000    0.000    0.000 
#
# Total GULP energy -245201.714643 kJ/mol
# GULP energy per Si atom -5572.766242 kJ/mol
# Density = 2.037663 g / cm^3
# Si number density = 20.423113 Si / 1000 Ang^3
#
#
#
# Elastic Constant Matrix: (Units=GPa)
#
#
# Indices 1 2 3 4 5 6 
#
# 1 31.4860 6.8881 4.8918 0.0000 0.0000 0.0000
# 2 6.8881 120.2918 71.4692 0.0000 0.0000 0.0000
# 3 4.8918 71.4692 100.4650 0.0000 0.0000 0.0000
# 4 0.0000 0.0000 0.0000 36.0257 0.0000 0.0000
# 5 0.0000 0.0000 0.0000 0.0000 9.6557 0.0000
# 6 0.0000 0.0000 0.0000 0.0000 0.0000 21.5928
#
#
#
# Elastic Compliance Matrix: (Units=1/GPa)
#
#
# Indices 1 2 3 4 5 6 
#
# 1 0.032174 -0.001579 -0.000443 0.000000 0.000000 0.000000
# 2 -0.001579 0.014476 -0.010221 0.000000 0.000000 0.000000
# 3 -0.000443 -0.010221 0.017247 0.000000 0.000000 0.000000
# 4 0.000000 0.000000 0.000000 0.027758 0.000000 0.000000
# 5 0.000000 0.000000 0.000000 0.000000 0.103566 0.000000
# 6 0.000000 0.000000 0.000000 0.000000 0.000000 0.046312
#
#
# Mechanical properties :
#
#
# Convention : Reuss Voigt Hill
#
# Bulk Modulus (GPa) = 25.37427 46.52678 35.95052
# Shear Modulus (GPa) = 17.91105 24.72108 21.31607
#
# Velocity S-wave (km/s) = 2.96463 3.48292 3.23417
# Velocity P-wave (km/s) = 4.91630 6.24541 5.62028
#
# Compressibility (1/GPa) = 0.03941000
#
# Stress axis : x y z
#
# Youngs Moduli (GPa) = 31.08060 69.07814 57.98238
#
# Poissons Ratio (x) = 0.10907 0.02571
# Poissons Ratio (y) = 0.04907 0.59266
# Poissons Ratio (z) = 0.01378 0.70607
#
# Static dielectric constant tensor:
#      x y z
#    x 1.788340 0.000000 0.000000 
#    y 0.000000 1.828660 0.000000 
#    z 0.000000 0.000000 1.683400 
# 
# From -- ./inp_files/40209.got.cif
#   From: 2010.05.17/outbox.cif.g08.bks.cpg/sg72_21_cif.got.tgz:40209.got - 2010.06.03 17:03:01.
