data_PCOD9525079
_publ_section_title
;
Structure prediction by ZEFSAII (Michael W. Deem and Ramdas Pophale) SiO2 
 PCOD9525079
Probable space group: I B A M
;
_chemical_formula_sum "Si O2"
_cell_formula_units_Z 84
_cell_length_a 13.336968
_cell_length_b 13.278548
_cell_length_c 22.945907
_cell_angle_alpha 90.000000
_cell_angle_beta 90.000000
_cell_angle_gamma 90.000000
_cell_volume 4063.618474
_symmetry_space_group_name_H-M "I B A M"
_symmetry_group_IT_number 72
_symmetry_cell_setting 'orthorhombic'
loop_
_space_group_symop_operation_xyz
x,y,z
-x,-y,z
x,-y,1/2-z
-x,y,1/2-z
-x,-y,-z
x,y,-z
-x,y,1/2+z
x,-y,1/2+z
1/2+x,1/2+y,1/2+z
1/2-x,1/2-y,1/2+z
1/2+x,1/2-y,-z
1/2-x,1/2+y,-z
1/2-x,1/2-y,1/2-z
1/2+x,1/2+y,1/2-z
1/2-x,1/2+y,z
1/2+x,1/2-y,z
loop_
_atom_site_type_symbol
_atom_site_label
_atom_site_fract_x
_atom_site_fract_y
_atom_site_fract_z
Si Si1 0.316408 0.241078 0.931738
Si Si2 0.334917 0.647389 0.770151
Si Si3 0.000000 0.000000 0.250000
Si Si4 0.299025 0.049697 0.135321
Si Si5 0.393833 0.457983 0.068897
Si Si6 0.306138 0.837277 0.833969
O O1 0.350219 0.135264 0.903968
O O2 0.389692 0.336757 0.925170
O O3 0.221139 0.278631 0.893402
O O4 0.293707 0.229059 0.000000
O O5 0.425698 0.573925 0.782888
O O6 0.241156 0.605904 0.807214
O O7 0.361423 0.758368 0.792324
O O8 0.297494 0.645082 0.703365
O O9 0.200689 0.008822 0.100667
O O10 0.352759 0.945741 0.152949
O O11 0.500000 0.500000 0.089016
O O12 0.383393 0.480182 0.000000
#
# Coordination Sequence:
#
# PCOD9525079 Si02
#       6
#    16  16   4  16  16  16
#     4   9  18  30  48  75 103 141 187 228 270 329
#     4  10  20  30  50  79 110 141 181 223 275 321
#     4  12  20  32  52  88 116 138 188 236 258 330
#     4  10  17  30  51  73 106 143 185 224 268 330
#     4   9  18  30  46  73 109 142 180 238 291 324
#     4   9  18  34  47  73 110 149 177 220 275 334
#
# _framework density 20.671232
#
# number of rings (size 3 to 8) (size 9 to 14) (size 15 to 20)
#    0.000    2.476    1.905    0.571    1.333    0.762 
#    0.000    0.000    0.000    0.000    0.000   70.667 
#    0.000   59.429    0.000    0.000    0.000    0.000 
#
# Total GULP energy -234055.648244 kJ/mol
# GULP energy per Si atom -5572.753530 kJ/mol
# Density = 2.062418 g / cm^3
# Si number density = 20.671232 Si / 1000 Ang^3
#
#
#
# Elastic Constant Matrix: (Units=GPa)
#
#
# Indices 1 2 3 4 5 6 
#
# 1 21.1767 15.5996 3.5190 0.0000 0.0000 0.0000
# 2 15.5996 157.7878 38.5463 0.0000 0.0000 0.0000
# 3 3.5190 38.5463 114.8837 0.0000 0.0000 0.0000
# 4 0.0000 0.0000 0.0000 40.2705 0.0000 0.0000
# 5 0.0000 0.0000 0.0000 0.0000 10.4394 0.0000
# 6 0.0000 0.0000 0.0000 0.0000 0.0000 20.0951
#
#
#
# Elastic Compliance Matrix: (Units=1/GPa)
#
#
# Indices 1 2 3 4 5 6 
#
# 1 0.050933 -0.005070 0.000141 0.000000 0.000000 0.000000
# 2 -0.005070 0.007408 -0.002330 0.000000 0.000000 0.000000
# 3 0.000141 -0.002330 0.009482 0.000000 0.000000 0.000000
# 4 0.000000 0.000000 0.000000 0.024832 0.000000 0.000000
# 5 0.000000 0.000000 0.000000 0.000000 0.095791 0.000000
# 6 0.000000 0.000000 0.000000 0.000000 0.000000 0.049763
#
#
# Mechanical properties :
#
#
# Convention : Reuss Voigt Hill
#
# Bulk Modulus (GPa) = 18.76014 45.46423 32.11218
# Shear Modulus (GPa) = 18.48455 29.90654 24.19555
#
# Velocity S-wave (km/s) = 2.99359 3.80777 3.42496
# Velocity P-wave (km/s) = 4.58737 6.43225 5.58649
#
# Compressibility (1/GPa) = 0.05330452
#
# Stress axis : x y z
#
# Youngs Moduli (GPa) = 19.63368 134.98678 105.46281
#
# Poissons Ratio (x) = 0.68436 -0.01486
# Poissons Ratio (y) = 0.09954 0.24576
# Poissons Ratio (z) = -0.00277 0.31456
#
# Static dielectric constant tensor:
#      x y z
#    x 1.724790 0.000000 0.000000 
#    y 0.000000 1.801690 0.000000 
#    z 0.000000 0.000000 1.771470 
# 
# From -- ./inp_files/49025.got.cif
#   From: 2010.05.17/outbox.cif.g08.bks.cpg/sg72_25_cif.got.tgz:49025.got - 2010.06.03 17:03:01.
