data_PCOD9525680
_publ_section_title
;
Structure prediction by ZEFSAII (Michael W. Deem and Ramdas Pophale) SiO2 
 PCOD9525680
Probable space group: I B A M
;
_chemical_formula_sum "Si O2"
_cell_formula_units_Z 96
_cell_length_a 14.098256
_cell_length_b 22.524716
_cell_length_c 15.803904
_cell_angle_alpha 90.000000
_cell_angle_beta 90.000000
_cell_angle_gamma 90.000000
_cell_volume 5018.675309
_symmetry_space_group_name_H-M "I B A M"
_symmetry_group_IT_number 72
_symmetry_cell_setting 'orthorhombic'
loop_
_space_group_symop_operation_xyz
x,y,z
-x,-y,z
x,-y,1/2-z
-x,y,1/2-z
-x,-y,-z
x,y,-z
-x,y,1/2+z
x,-y,1/2+z
1/2+x,1/2+y,1/2+z
1/2-x,1/2-y,1/2+z
1/2+x,1/2-y,-z
1/2-x,1/2+y,-z
1/2-x,1/2-y,1/2-z
1/2+x,1/2+y,1/2-z
1/2-x,1/2+y,z
1/2+x,1/2-y,z
loop_
_atom_site_type_symbol
_atom_site_label
_atom_site_fract_x
_atom_site_fract_y
_atom_site_fract_z
Si Si1 0.309214 0.726975 0.129435
Si Si2 0.979320 0.747904 0.589271
Si Si3 0.599388 0.340997 0.284790
Si Si4 0.236853 0.635251 0.603597
Si Si5 0.386440 0.069781 0.258204
Si Si6 0.641602 0.859785 0.091539
O O1 0.411429 0.735003 0.087052
O O2 0.336059 0.687457 0.211410
O O3 0.277487 0.795645 0.130817
O O4 0.224841 0.689180 0.089731
O O5 0.935068 0.767093 0.500000
O O6 0.935490 0.782995 0.665500
O O7 0.955284 0.678752 0.598965
O O8 0.500000 0.368627 0.250000
O O9 0.661803 0.379072 0.350869
O O10 0.234037 0.629837 0.500000
O O11 0.158588 0.597483 0.656247
O O12 0.500000 0.077969 0.250000
O O13 0.345606 0.101334 0.174361
O O14 0.366438 0.000000 0.250000
O O15 0.640585 0.891130 0.000000
#
# Coordination Sequence:
#
# PCOD9525680 Si02
#       6
#    16  16  16  16  16  16
#     4  11  20  34  54  87 126 157 191 239 309 374
#     4  10  19  30  49  85 123 156 189 232 294 371
#     4  10  20  33  54  83 123 161 190 235 297 371
#     4  12  22  38  63  93 124 162 206 256 310 374
#     4  11  26  45  62  85 119 163 217 267 306 351
#     4  11  21  37  61  87 122 161 199 245 302 372
#
# _framework density 19.128554000000001
#
# number of rings (size 3 to 8) (size 9 to 14) (size 15 to 20)
#    0.000    1.167    3.333    4.500    0.000    4.000 
#    0.000    1.667    0.000    0.500    0.000    1.167 
#    0.000    0.000    0.000    0.000    0.000    0.000 
#
# Total GULP energy -267264.378384 kJ/mol
# GULP energy per Si atom -5568.007883 kJ/mol
# Density = 1.908502 g / cm^3
# Si number density = 19.128554 Si / 1000 Ang^3
#
#
#
# Elastic Constant Matrix: (Units=GPa)
#
#
# Indices 1 2 3 4 5 6 
#
# 1 96.3638 41.8669 67.7692 0.0000 0.0000 0.0000
# 2 41.8669 68.5469 43.4201 0.0000 -0.0001 0.0000
# 3 67.7692 43.4201 139.9251 0.0001 -0.0002 0.0000
# 4 0.0000 0.0000 0.0001 -1.5726 -0.0002 0.0000
# 5 0.0000 -0.0001 -0.0002 -0.0002 6.9885 0.0000
# 6 0.0000 0.0000 0.0000 0.0000 0.0000 20.7378
#
#
#
# Elastic Compliance Matrix: (Units=1/GPa)
#
#
# Indices 1 2 3 4 5 6 
#
# 1 0.017967 -0.006798 -0.006592 0.000000 0.000000 0.000000
# 2 -0.006798 0.020730 -0.003140 -0.000001 0.000000 0.000000
# 3 -0.006592 -0.003140 0.011314 0.000001 0.000000 0.000000
# 4 0.000000 -0.000001 0.000001 -0.635896 -0.000015 0.000001
# 5 0.000000 0.000000 0.000000 -0.000015 0.143093 0.000000
# 6 0.000000 0.000000 0.000000 0.000001 0.000000 0.048221
#
#
# Mechanical properties :
#
#
# Convention : Reuss Voigt Hill
#
# Bulk Modulus (GPa) = 58.99858 67.88316 63.44087
# Shear Modulus (GPa) = -14.05047 15.34937 0.64945
#
# Velocity S-wave (km/s) = -2.71316 2.83580 0.58332
# Velocity P-wave (km/s) = 4.59295 6.80347 5.80441
#
# Compressibility (1/GPa) = 0.01694956
#
# Stress axis : x y z
#
# Youngs Moduli (GPa) = 55.65743 48.23983 88.38625
#
# Poissons Ratio (x) = 0.32794 0.58268
# Poissons Ratio (y) = 0.37836 0.27755
# Poissons Ratio (z) = 0.36692 0.15148
#
# Static dielectric constant tensor:
#      x y z
#    x 1.763490 0.000000 0.000000 
#    y 0.000000 1.616570 0.000000 
#    z 0.000000 0.000000 1.738670 
# 
# From -- ./inp_files/21873.got.cif
#   From: 2010.05.17/outbox.cif.g08.bks.cpg/sg72_11_cif.got.tgz:21873.got - 2010.06.03 17:03:01.
