data_PCOD9525352
_publ_section_title
;
Structure prediction by ZEFSAII (Michael W. Deem and Ramdas Pophale) SiO2 
 PCOD9525352
Probable space group: I B A M
;
_chemical_formula_sum "Si O2"
_cell_formula_units_Z 96
_cell_length_a 17.054321
_cell_length_b 18.826955
_cell_length_c 14.635952
_cell_angle_alpha 90.000000
_cell_angle_beta 90.000000
_cell_angle_gamma 90.000000
_cell_volume 4699.325138
_symmetry_space_group_name_H-M "I B A M"
_symmetry_group_IT_number 72
_symmetry_cell_setting 'orthorhombic'
loop_
_space_group_symop_operation_xyz
x,y,z
-x,-y,z
x,-y,1/2-z
-x,y,1/2-z
-x,-y,-z
x,y,-z
-x,y,1/2+z
x,-y,1/2+z
1/2+x,1/2+y,1/2+z
1/2-x,1/2-y,1/2+z
1/2+x,1/2-y,-z
1/2-x,1/2+y,-z
1/2-x,1/2-y,1/2-z
1/2+x,1/2+y,1/2-z
1/2-x,1/2+y,z
1/2+x,1/2-y,z
loop_
_atom_site_type_symbol
_atom_site_label
_atom_site_fract_x
_atom_site_fract_y
_atom_site_fract_z
Si Si1 0.994655 0.419315 0.141896
Si Si2 0.755465 0.951867 0.388036
Si Si3 0.162914 0.171117 0.888303
Si Si4 0.852253 0.328437 0.606551
Si Si5 0.914272 0.975708 0.888462
Si Si6 0.819074 0.598297 0.608471
O O1 0.909588 0.386313 0.123771
O O2 0.000000 0.500000 0.104391
O O3 0.000000 0.424535 0.250000
O O4 0.066653 0.371526 0.109951
O O5 0.753902 0.949755 0.500000
O O6 0.714907 0.880091 0.353753
O O7 0.844177 0.970747 0.360906
O O8 0.703019 0.019272 0.357817
O O9 0.140714 0.249347 0.854154
O O10 0.110217 0.103851 0.859229
O O11 0.252299 0.152739 0.860946
O O12 0.157839 0.171133 0.000000
O O13 0.831564 0.318797 0.500000
O O14 0.914205 0.975580 0.000000
O O15 0.000000 0.000000 0.858564
O O16 0.808416 0.594406 0.500000
#
# Coordination Sequence:
#
# PCOD9525352 Si02
#       6
#    16  16  16  16  16  16
#     4  11  22  33  48  73 101 129 169 207 240 291
#     4   8  14  24  43  65  90 125 157 185 229 290
#     4   8  16  29  46  71  98 124 158 201 241 289
#     4  10  18  31  49  72 101 127 160 202 246 290
#     4   8  13  24  41  64  96 126 152 190 242 289
#     4   9  16  31  51  70  95 130 163 191 240 294
#
# _framework density 20.428464999999999
#
# number of rings (size 3 to 8) (size 9 to 14) (size 15 to 20)
#    0.000    3.000    1.667    2.500    0.000    0.667 
#    3.000    0.833    0.000    0.000    0.000    0.000 
#    0.000    0.000    0.000    0.000    0.000    0.000 
#
# Total GULP energy -267648.663871 kJ/mol
# GULP energy per Si atom -5576.013831 kJ/mol
# Density = 2.038197 g / cm^3
# Si number density = 20.428465 Si / 1000 Ang^3
#
#
#
# Elastic Constant Matrix: (Units=GPa)
#
#
# Indices 1 2 3 4 5 6 
#
# 1 172.2715 106.4308 -11.2933 0.0000 0.0000 0.0000
# 2 106.4308 169.8393 3.0466 0.0000 0.0000 0.0000
# 3 -11.2933 3.0466 38.3057 0.0000 0.0000 0.0000
# 4 0.0000 0.0000 0.0000 6.6777 0.0000 0.0000
# 5 0.0000 0.0000 0.0000 0.0000 -96.4583 0.0000
# 6 0.0000 0.0000 0.0000 0.0000 0.0000 22.4494
#
#
#
# Elastic Compliance Matrix: (Units=1/GPa)
#
#
# Indices 1 2 3 4 5 6 
#
# 1 0.009899 -0.006265 0.003417 0.000000 0.000000 0.000000
# 2 -0.006265 0.009861 -0.002631 0.000000 0.000000 0.000000
# 3 0.003417 -0.002631 0.027322 0.000000 0.000000 0.000000
# 4 0.000000 0.000000 0.000000 0.149752 0.000000 0.000000
# 5 0.000000 0.000000 0.000000 0.000000 -0.010367 0.000000
# 6 0.000000 0.000000 0.000000 0.000000 0.000000 0.044545
#
#
# Mechanical properties :
#
#
# Convention : Reuss Voigt Hill
#
# Bulk Modulus (GPa) = 27.68235 64.08718 45.88477
# Shear Modulus (GPa) = 19.68412 5.34925 12.51669
#
# Velocity S-wave (km/s) = 3.10750 1.61994 2.47798
# Velocity P-wave (km/s) = 5.14351 5.91089 5.54050
#
# Compressibility (1/GPa) = 0.03612410
#
# Stress axis : x y z
#
# Youngs Moduli (GPa) = 101.01910 101.41077 36.60007
#
# Poissons Ratio (x) = 0.63530 -0.12505
# Poissons Ratio (y) = 0.63285 0.09630
# Poissons Ratio (z) = -0.34515 0.26683
#
# Static dielectric constant tensor:
#      x y z
#    x 1.798590 0.000000 0.000000 
#    y 0.000000 1.806940 0.000000 
#    z 0.000000 0.000000 1.762340 
# 
# From -- ./inp_files/31630.got.cif
#   From: 2010.05.17/outbox.cif.g08.bks.cpg/sg72_16_cif.got.tgz:31630.got - 2010.06.03 17:03:01.
