data_PCOD9525477
_publ_section_title
;
Structure prediction by ZEFSAII (Michael W. Deem and Ramdas Pophale) SiO2 
 PCOD9525477
Probable space group: I B A M
;
_chemical_formula_sum "Si O2"
_cell_formula_units_Z 88
_cell_length_a 28.935770
_cell_length_b 10.558245
_cell_length_c 16.030276
_cell_angle_alpha 90.000000
_cell_angle_beta 90.000000
_cell_angle_gamma 90.000000
_cell_volume 4897.424832
_symmetry_space_group_name_H-M "I B A M"
_symmetry_group_IT_number 72
_symmetry_cell_setting 'orthorhombic'
loop_
_space_group_symop_operation_xyz
x,y,z
-x,-y,z
x,-y,1/2-z
-x,y,1/2-z
-x,-y,-z
x,y,-z
-x,y,1/2+z
x,-y,1/2+z
1/2+x,1/2+y,1/2+z
1/2-x,1/2-y,1/2+z
1/2+x,1/2-y,-z
1/2-x,1/2+y,-z
1/2-x,1/2-y,1/2-z
1/2+x,1/2+y,1/2-z
1/2-x,1/2+y,z
1/2+x,1/2-y,z
loop_
_atom_site_type_symbol
_atom_site_label
_atom_site_fract_x
_atom_site_fract_y
_atom_site_fract_z
Si Si1 0.874898 0.784564 0.349331
Si Si2 0.945118 0.996697 0.901184
Si Si3 0.760070 0.128687 0.500000
Si Si4 0.843487 0.668192 0.000000
Si Si5 0.842580 0.370819 0.000000
Si Si6 0.700896 0.500096 0.659010
Si Si7 0.380352 0.289954 0.336564
O O1 0.917248 0.880219 0.369213
O O2 0.869449 0.678727 0.419108
O O3 0.828369 0.871781 0.353746
O O4 0.880513 0.732864 0.255702
O O5 0.925037 0.875639 0.853342
O O6 0.934063 0.984038 0.000000
O O7 0.000000 0.000000 0.891266
O O8 0.798425 0.240307 0.500000
O O9 0.709163 0.185367 0.500000
O O10 0.768067 0.041456 0.418375
O O11 0.871273 0.702158 0.915764
O O12 0.834415 0.520111 0.000000
O O13 0.724716 0.500000 0.750000
O O14 0.661509 0.608232 0.664373
#
# Coordination Sequence:
#
# PCOD9525477 Si02
#       7
#    16  16   8   8   8  16  16
#     4  10  20  35  56  83 117 144 179 230 288 325
#     4  10  18  32  63  98 118 139 177 229 282 336
#     4  10  21  36  55  76 104 143 189 244 282 321
#     4  10  22  40  54  77 108 155 198 218 288 341
#     4  12  25  36  53  79 106 152 193 239 269 332
#     4   8  16  33  56  79 103 138 177 229 289 333
#     4   9  18  36  58  80 114 150 176 224 279 344
#
# _framework density 17.968627000000001
#
# number of rings (size 3 to 8) (size 9 to 14) (size 15 to 20)
#    0.000    2.364    1.818    2.182    5.091    2.182 
#    3.273    2.727    0.000    2.182    0.000    2.545 
#    0.000    0.000    0.000    0.000    0.000    0.000 
#
# Total GULP energy -245365.211874 kJ/mol
# GULP energy per Si atom -5576.482088 kJ/mol
# Density = 1.792773 g / cm^3
# Si number density = 17.968627 Si / 1000 Ang^3
#
#
#
# Elastic Constant Matrix: (Units=GPa)
#
#
# Indices 1 2 3 4 5 6 
#
# 1 55.9982 11.9078 40.5472 0.0000 0.0000 0.0000
# 2 11.9078 62.5392 46.7902 0.0000 0.0000 0.0000
# 3 40.5472 46.7902 177.0200 0.0000 0.0000 0.0000
# 4 0.0000 0.0000 0.0000 -2.7965 0.0000 0.0000
# 5 0.0000 0.0000 0.0000 0.0000 1.3586 0.0000
# 6 0.0000 0.0000 0.0000 0.0000 0.0000 14.1777
#
#
#
# Elastic Compliance Matrix: (Units=1/GPa)
#
#
# Indices 1 2 3 4 5 6 
#
# 1 0.021421 -0.000508 -0.004772 0.000000 0.000000 0.000000
# 2 -0.000508 0.019944 -0.005155 0.000000 0.000000 0.000000
# 3 -0.004772 -0.005155 0.008105 0.000000 0.000000 0.000000
# 4 0.000000 0.000000 0.000000 -0.357589 0.000000 0.000000
# 5 0.000000 0.000000 0.000000 0.000000 0.736057 0.000000
# 6 0.000000 0.000000 0.000000 0.000000 0.000000 0.070533
#
#
# Mechanical properties :
#
#
# Convention : Reuss Voigt Hill
#
# Bulk Modulus (GPa) = 34.96687 54.89420 44.93054
# Shear Modulus (GPa) = 9.45403 15.63545 12.54474
#
# Velocity S-wave (km/s) = 2.29626 2.95304 2.64511
# Velocity P-wave (km/s) = 5.15098 6.49951 5.86414
#
# Compressibility (1/GPa) = 0.02859850
#
# Stress axis : x y z
#
# Youngs Moduli (GPa) = 46.68243 50.14127 123.38353
#
# Poissons Ratio (x) = 0.02548 0.58883
# Poissons Ratio (y) = 0.02372 0.63606
# Poissons Ratio (z) = 0.22278 0.25848
#
# Static dielectric constant tensor:
#      x y z
#    x 1.597020 0.000000 0.000000 
#    y 0.000000 1.595430 0.000000 
#    z 0.000000 0.000000 1.658450 
# 
# From -- ./inp_files/26283.got.cif
#   From: 2010.05.17/outbox.cif.g08.bks.cpg/sg72_14_cif.got.tgz:26283.got - 2010.06.03 17:03:01.
