data_PCOD9525277
_publ_section_title
;
Structure prediction by ZEFSAII (Michael W. Deem and Ramdas Pophale) SiO2 
 PCOD9525277
Probable space group: I B A M
;
_chemical_formula_sum "Si O2"
_cell_formula_units_Z 72
_cell_length_a 14.074335
_cell_length_b 7.616444
_cell_length_c 29.606343
_cell_angle_alpha 90.000000
_cell_angle_beta 90.000000
_cell_angle_gamma 90.000000
_cell_volume 3173.692924
_symmetry_space_group_name_H-M "I B A M"
_symmetry_group_IT_number 72
_symmetry_cell_setting 'orthorhombic'
loop_
_space_group_symop_operation_xyz
x,y,z
-x,-y,z
x,-y,1/2-z
-x,y,1/2-z
-x,-y,-z
x,y,-z
-x,y,1/2+z
x,-y,1/2+z
1/2+x,1/2+y,1/2+z
1/2-x,1/2-y,1/2+z
1/2+x,1/2-y,-z
1/2-x,1/2+y,-z
1/2-x,1/2-y,1/2-z
1/2+x,1/2+y,1/2-z
1/2-x,1/2+y,z
1/2+x,1/2-y,z
loop_
_atom_site_type_symbol
_atom_site_label
_atom_site_fract_x
_atom_site_fract_y
_atom_site_fract_z
Si Si1 0.294996 0.703982 0.000000
Si Si2 0.600599 0.329878 0.500000
Si Si3 0.821805 0.581616 0.653221
Si Si4 0.500000 0.500000 0.420728
Si Si5 0.155492 0.257191 0.099538
Si Si6 0.179500 0.138381 0.282351
O O1 0.181429 0.687020 0.000000
O O2 0.329288 0.790207 0.953522
O O3 0.339657 0.511153 0.000000
O O4 0.539649 0.349250 0.454741
O O5 0.875750 0.431118 0.625917
O O6 0.757104 0.691631 0.618363
O O7 0.873695 0.721137 0.685831
O O8 0.747943 0.475053 0.685070
O O9 0.416929 0.404389 0.394054
O O10 0.250000 0.250000 0.250000
O O11 0.126594 0.000000 0.250000
#
# Coordination Sequence:
#
# PCOD9525277 Si02
#       6
#     8   8  16   8  16  16
#     4  10  18  30  50  68  94 138 180 226 268 314
#     4   9  18  32  50  67  86 128 188 227 270 318
#     4   9  17  27  47  75 100 131 173 219 265 326
#     4   9  18  30  46  66  97 136 174 224 273 324
#     4  10  18  30  47  69 100 137 182 223 270 318
#     4   8  14  27  47  74 102 124 158 218 273 315
#
# _framework density 22.686506000000001
#
# number of rings (size 3 to 8) (size 9 to 14) (size 15 to 20)
#    0.000    2.889    0.000    3.333    0.000    0.000 
#    0.000    0.000    0.000   45.333    0.000   19.444 
#    0.000   39.111    0.000    0.000    0.000    0.000 
#
# Total GULP energy -200767.538749 kJ/mol
# GULP energy per Si atom -5576.876076 kJ/mol
# Density = 2.263487 g / cm^3
# Si number density = 22.686506 Si / 1000 Ang^3
#
#
#
# Elastic Constant Matrix: (Units=GPa)
#
#
# Indices 1 2 3 4 5 6 
#
# 1 44.3233 4.0557 4.9182 0.0000 0.0000 0.0000
# 2 4.0557 93.2773 59.8860 0.0000 0.0000 0.0000
# 3 4.9182 59.8860 117.6649 0.0000 0.0000 0.0000
# 4 0.0000 0.0000 0.0000 29.0442 0.0000 0.0000
# 5 0.0000 0.0000 0.0000 0.0000 0.0901 0.0000
# 6 0.0000 0.0000 0.0000 0.0000 0.0000 25.2341
#
#
#
# Elastic Compliance Matrix: (Units=1/GPa)
#
#
# Indices 1 2 3 4 5 6 
#
# 1 0.022686 -0.000561 -0.000663 0.000000 0.000000 0.000000
# 2 -0.000561 0.015938 -0.008088 0.000000 0.000000 0.000000
# 3 -0.000663 -0.008088 0.012643 0.000000 0.000000 0.000000
# 4 0.000000 0.000000 0.000000 0.034430 0.000000 0.000000
# 5 0.000000 0.000000 0.000000 0.000000 11.103014 0.000000
# 6 0.000000 0.000000 0.000000 0.000000 0.000000 0.039629
#
#
# Mechanical properties :
#
#
# Convention : Reuss Voigt Hill
#
# Bulk Modulus (GPa) = 30.63399 43.66502 37.14951
# Shear Modulus (GPa) = 0.44413 23.30071 11.87242
#
# Velocity S-wave (km/s) = 0.44294 3.20828 2.29011
# Velocity P-wave (km/s) = 3.71404 5.74569 4.83772
#
# Compressibility (1/GPa) = 0.03264347
#
# Stress axis : x y z
#
# Youngs Moduli (GPa) = 44.07931 62.74340 79.09545
#
# Poissons Ratio (x) = 0.03519 0.05242
# Poissons Ratio (y) = 0.02472 0.63974
# Poissons Ratio (z) = 0.02921 0.50748
#
# Static dielectric constant tensor:
#      x y z
#    x 1.870570 0.000000 0.000000 
#    y 0.000000 1.908340 0.000000 
#    z 0.000000 0.000000 1.903510 
# 
# From -- ./inp_files/51674.got.cif
#   From: 2010.05.17/outbox.cif.g08.bks.cpg/sg72_26_cif.got.tgz:51674.got - 2010.06.03 17:03:01.
