data_PCOD9525825
_publ_section_title
;
Structure prediction by ZEFSAII (Michael W. Deem and Ramdas Pophale) SiO2 
 PCOD9525825
Probable space group: I B A M
;
_chemical_formula_sum "Si O2"
_cell_formula_units_Z 96
_cell_length_a 9.308507
_cell_length_b 24.980367
_cell_length_c 23.695549
_cell_angle_alpha 90.000000
_cell_angle_beta 90.000000
_cell_angle_gamma 90.000000
_cell_volume 5509.924139
_symmetry_space_group_name_H-M "I B A M"
_symmetry_group_IT_number 72
_symmetry_cell_setting 'orthorhombic'
loop_
_space_group_symop_operation_xyz
x,y,z
-x,-y,z
x,-y,1/2-z
-x,y,1/2-z
-x,-y,-z
x,y,-z
-x,y,1/2+z
x,-y,1/2+z
1/2+x,1/2+y,1/2+z
1/2-x,1/2-y,1/2+z
1/2+x,1/2-y,-z
1/2-x,1/2+y,-z
1/2-x,1/2-y,1/2-z
1/2+x,1/2+y,1/2-z
1/2-x,1/2+y,z
1/2+x,1/2-y,z
loop_
_atom_site_type_symbol
_atom_site_label
_atom_site_fract_x
_atom_site_fract_y
_atom_site_fract_z
Si Si1 0.708919 0.134131 0.349457
Si Si2 0.039950 0.561930 0.934403
Si Si3 0.223645 0.357178 0.063288
Si Si4 0.533872 0.661846 0.148874
Si Si5 0.776555 0.312158 0.732106
Si Si6 0.976045 0.714446 0.126634
O O1 0.642164 0.084604 0.384490
O O2 0.680398 0.148990 0.283465
O O3 0.628502 0.184627 0.379133
O O4 0.880673 0.133697 0.351363
O O5 0.000000 0.500000 0.927308
O O6 0.893697 0.596235 0.929820
O O7 0.093193 0.569540 0.000000
O O8 0.356202 0.363191 0.104676
O O9 0.133447 0.303745 0.078315
O O10 0.276147 0.355583 0.000000
O O11 0.627717 0.666484 0.205761
O O12 0.500676 0.723158 0.132051
O O13 0.750000 0.250000 0.750000
O O14 0.895421 0.307541 0.683003
#
# Coordination Sequence:
#
# PCOD9525825 Si02
#       6
#    16  16  16  16  16  16
#     4  11  20  30  55  86 109 141 192 235 270 331
#     4   9  20  42  65  80 100 138 192 250 300 345
#     4   9  20  36  53  76 110 145 183 230 285 334
#     4  11  20  31  49  82 119 150 182 223 271 331
#     4  11  19  31  51  77 119 154 187 219 261 333
#     4  10  19  32  50  77 114 156 189 213 259 331
#
# _framework density 17.423107000000002
#
# number of rings (size 3 to 8) (size 9 to 14) (size 15 to 20)
#    0.000    1.833    3.333    2.000    0.000    1.333 
#    0.000    4.167    0.000   21.000    0.000    9.333 
#    0.000    0.000    0.000    0.000    0.000    0.000 
#
# Total GULP energy -267353.104005 kJ/mol
# GULP energy per Si atom -5569.856333 kJ/mol
# Density = 1.738345 g / cm^3
# Si number density = 17.423107 Si / 1000 Ang^3
#
#
#
# Elastic Constant Matrix: (Units=GPa)
#
#
# Indices 1 2 3 4 5 6 
#
# 1 99.1744 16.2683 44.1325 0.0000 0.0000 0.0000
# 2 16.2683 68.7510 42.6524 0.0000 0.0000 0.0000
# 3 44.1325 42.6524 97.2432 0.0000 0.0000 0.0000
# 4 0.0000 0.0000 0.0000 22.4576 0.0000 0.0000
# 5 0.0000 0.0000 0.0000 0.0000 25.0886 0.0000
# 6 0.0000 0.0000 0.0000 0.0000 0.0000 8.2866
#
#
#
# Elastic Compliance Matrix: (Units=1/GPa)
#
#
# Indices 1 2 3 4 5 6 
#
# 1 0.012665 0.000782 -0.006091 0.000000 0.000000 0.000000
# 2 0.000782 0.020031 -0.009141 0.000000 0.000000 0.000000
# 3 -0.006091 -0.009141 0.017057 0.000000 0.000000 0.000000
# 4 0.000000 0.000000 0.000000 0.044528 0.000000 0.000000
# 5 0.000000 0.000000 0.000000 0.000000 0.039859 0.000000
# 6 0.000000 0.000000 0.000000 0.000000 0.000000 0.120677
#
#
# Mechanical properties :
#
#
# Convention : Reuss Voigt Hill
#
# Bulk Modulus (GPa) = 47.95295 52.36389 50.15842
# Shear Modulus (GPa) = 17.20169 21.97424 19.58797
#
# Velocity S-wave (km/s) = 3.14553 3.55521 3.35662
# Velocity P-wave (km/s) = 6.38552 6.85363 6.62371
#
# Compressibility (1/GPa) = 0.02085378
#
# Stress axis : x y z
#
# Youngs Moduli (GPa) = 78.95479 49.92242 58.62668
#
# Poissons Ratio (x) = -0.03903 0.35709
# Poissons Ratio (y) = -0.06173 0.53589
# Poissons Ratio (z) = 0.48091 0.45633
#
# Static dielectric constant tensor:
#      x y z
#    x 1.624980 0.000000 0.000000 
#    y 0.000000 1.569980 0.000000 
#    z 0.000000 0.000000 1.578700 
# 
# From -- ./inp_files/42451.got.cif
#   From: 2010.05.17/outbox.cif.g08.bks.cpg/sg72_22_cif.got.tgz:42451.got - 2010.06.03 17:03:01.
