data_PCOD9525573
_publ_section_title
;
Structure prediction by ZEFSAII (Michael W. Deem and Ramdas Pophale) SiO2 
 PCOD9525573
Probable space group: I B A M
;
_chemical_formula_sum "Si O2"
_cell_formula_units_Z 88
_cell_length_a 12.669396
_cell_length_b 11.448218
_cell_length_c 22.688302
_cell_angle_alpha 90.000000
_cell_angle_beta 90.000000
_cell_angle_gamma 90.000000
_cell_volume 3290.756865
_symmetry_space_group_name_H-M "I B A M"
_symmetry_group_IT_number 72
_symmetry_cell_setting 'orthorhombic'
loop_
_space_group_symop_operation_xyz
x,y,z
-x,-y,z
x,-y,1/2-z
-x,y,1/2-z
-x,-y,-z
x,y,-z
-x,y,1/2+z
x,-y,1/2+z
1/2+x,1/2+y,1/2+z
1/2-x,1/2-y,1/2+z
1/2+x,1/2-y,-z
1/2-x,1/2+y,-z
1/2-x,1/2-y,1/2-z
1/2+x,1/2+y,1/2-z
1/2-x,1/2+y,z
1/2+x,1/2-y,z
loop_
_atom_site_type_symbol
_atom_site_label
_atom_site_fract_x
_atom_site_fract_y
_atom_site_fract_z
Si Si1 0.852779 0.713127 0.500000
Si Si2 0.617229 0.605326 0.624326
Si Si3 0.359675 0.942210 0.000000
Si Si4 0.143692 0.696009 0.867941
Si Si5 0.650445 0.574668 0.500000
Si Si6 0.423663 0.134690 0.630437
Si Si7 0.205255 0.915636 0.194109
O O1 0.876206 0.755649 0.566873
O O2 0.727196 0.688613 0.500000
O O3 0.897709 0.578502 0.500000
O O4 0.744917 0.630676 0.623174
O O5 0.584872 0.583986 0.558060
O O6 0.570349 0.725843 0.645974
O O7 0.615369 0.485446 0.658478
O O8 0.394396 0.884934 0.061495
O O9 0.231899 0.965145 0.000000
O O10 0.164018 0.782505 0.812866
O O11 0.047048 0.606937 0.859156
O O12 0.321861 0.093141 0.666219
O O13 0.215474 0.000000 0.250000
#
# Coordination Sequence:
#
# PCOD9525573 Si02
#       7
#     8  16   8  16   8  16  16
#     4   8  17  34  61  98 137 167 206 271 339 405
#     4  10  21  40  60  94 129 171 216 271 341 410
#     4  10  18  35  64 103 134 168 211 274 345 419
#     4  10  22  39  64  99 131 170 223 278 340 403
#     4   8  15  33  58  90 126 169 197 256 341 410
#     4  11  22  38  67  97 131 171 224 276 334 412
#     4  11  25  45  65  88 130 178 226 281 336 397
#
# _framework density 26.741568000000001
#
# number of rings (size 3 to 8) (size 9 to 14) (size 15 to 20)
#    0.545    1.455    1.818    1.091    0.000   10.182 
#    0.000    5.455    0.000    3.273    0.000    0.000 
#    0.000    0.000    0.000    0.000    0.000    0.000 
#
# Total GULP energy -245656.702672 kJ/mol
# GULP energy per Si atom -5583.106879 kJ/mol
# Density = 2.668070 g / cm^3
# Si number density = 26.741568 Si / 1000 Ang^3
#
#
#
# Elastic Constant Matrix: (Units=GPa)
#
#
# Indices 1 2 3 4 5 6 
#
# 1 131.5729 10.7263 17.9611 0.0000 0.0000 0.0000
# 2 10.7263 70.6939 30.6211 0.0000 0.0000 0.0000
# 3 17.9611 30.6211 88.4747 0.0000 0.0000 0.0000
# 4 0.0000 0.0000 0.0000 36.5013 0.0000 0.0000
# 5 0.0000 0.0000 0.0000 0.0000 -17.2696 0.0000
# 6 0.0000 0.0000 0.0000 0.0000 0.0000 49.4576
#
#
#
# Elastic Compliance Matrix: (Units=1/GPa)
#
#
# Indices 1 2 3 4 5 6 
#
# 1 0.007838 -0.000588 -0.001388 0.000000 0.000000 0.000000
# 2 -0.000588 0.016684 -0.005655 0.000000 0.000000 0.000000
# 3 -0.001388 -0.005655 0.013542 0.000000 0.000000 0.000000
# 4 0.000000 0.000000 0.000000 0.027396 0.000000 0.000000
# 5 0.000000 0.000000 0.000000 0.000000 -0.057905 0.000000
# 6 0.000000 0.000000 0.000000 0.000000 0.000000 0.020219
#
#
# Mechanical properties :
#
#
# Convention : Reuss Voigt Hill
#
# Bulk Modulus (GPa) = 43.85583 45.48429 44.67006
# Shear Modulus (GPa) = 98.74417 29.16672 63.95544
#
# Velocity S-wave (km/s) = 6.08322 3.30614 4.89572
# Velocity P-wave (km/s) = 8.11025 5.62315 6.97840
#
# Compressibility (1/GPa) = 0.02280198
#
# Stress axis : x y z
#
# Youngs Moduli (GPa) = 127.58815 59.93696 73.84679
#
# Poissons Ratio (x) = 0.03525 0.10247
# Poissons Ratio (y) = 0.07505 0.41760
# Poissons Ratio (z) = 0.17704 0.33894
#
# Static dielectric constant tensor:
#      x y z
#    x 2.173910 0.000000 0.000000 
#    y 0.000000 2.200590 0.000000 
#    z 0.000000 0.000000 2.149050 
# 
# From -- ./inp_files/37994.got.cif
#   From: 2010.05.17/outbox.cif.g08.bks.cpg/sg72_19_cif.got.tgz:37994.got - 2010.06.03 17:03:01.
