data_PCOD9525317
_publ_section_title
;
Structure prediction by ZEFSAII (Michael W. Deem and Ramdas Pophale) SiO2 
 PCOD9525317
Probable space group: I B A M
;
_chemical_formula_sum "Si O2"
_cell_formula_units_Z 64
_cell_length_a 17.328649
_cell_length_b 20.759955
_cell_length_c 8.971463
_cell_angle_alpha 90.000000
_cell_angle_beta 90.000000
_cell_angle_gamma 90.000000
_cell_volume 3227.411804
_symmetry_space_group_name_H-M "I B A M"
_symmetry_group_IT_number 72
_symmetry_cell_setting 'orthorhombic'
loop_
_space_group_symop_operation_xyz
x,y,z
-x,-y,z
x,-y,1/2-z
-x,y,1/2-z
-x,-y,-z
x,y,-z
-x,y,1/2+z
x,-y,1/2+z
1/2+x,1/2+y,1/2+z
1/2-x,1/2-y,1/2+z
1/2+x,1/2-y,-z
1/2-x,1/2+y,-z
1/2-x,1/2-y,1/2-z
1/2+x,1/2+y,1/2-z
1/2-x,1/2+y,z
1/2+x,1/2-y,z
loop_
_atom_site_type_symbol
_atom_site_label
_atom_site_fract_x
_atom_site_fract_y
_atom_site_fract_z
Si Si1 0.421471 0.168426 0.322297
Si Si2 0.256914 0.884836 0.172604
Si Si3 0.615241 0.303683 0.328033
Si Si4 0.384524 0.434425 0.324944
O O1 0.500000 0.143080 0.250000
O O2 0.428670 0.171170 0.500000
O O3 0.344881 0.127436 0.287084
O O4 0.407507 0.240196 0.259211
O O5 0.207756 0.817793 0.174462
O O6 0.207095 0.928046 0.284460
O O7 0.250551 0.908040 0.000000
O O8 0.590896 0.298825 0.500000
O O9 0.584914 0.369469 0.253179
O O10 0.412308 0.500000 0.250000
O O11 0.397800 0.434275 0.500000
#
# Coordination Sequence:
#
# PCOD9525317 Si02
#       4
#    16  16  16  16
#     4  11  21  33  49  73 104 136 166 201 246 295
#     4   8  18  33  50  72 100 130 165 204 245 292
#     4   9  18  33  51  73 100 129 165 206 246 291
#     4  10  18  30  51  76 100 126 162 206 249 290
#
# _framework density 19.830131000000002
#
# number of rings (size 3 to 8) (size 9 to 14) (size 15 to 20)
#    1.500    1.000    0.000    3.750    0.000    2.000 
#    0.000    0.000    0.000    1.500    0.000   10.500 
#    0.000    0.000    0.000    0.000    0.000    0.000 
#
# Total GULP energy -178271.304299 kJ/mol
# GULP energy per Si atom -5570.978259 kJ/mol
# Density = 1.978500 g / cm^3
# Si number density = 19.830131 Si / 1000 Ang^3
#
#
#
# Elastic Constant Matrix: (Units=GPa)
#
#
# Indices 1 2 3 4 5 6 
#
# 1 122.9029 -1.1863 29.8651 0.0000 0.0000 0.0000
# 2 -1.1863 32.0131 19.1597 0.0000 0.0000 0.0000
# 3 29.8651 19.1597 91.2342 0.0000 0.0000 0.0000
# 4 0.0000 0.0000 0.0000 25.9487 0.0000 0.0000
# 5 0.0000 0.0000 0.0000 0.0000 21.1865 0.0000
# 6 0.0000 0.0000 0.0000 0.0000 0.0000 -87.5790
#
#
#
# Elastic Compliance Matrix: (Units=1/GPa)
#
#
# Indices 1 2 3 4 5 6 
#
# 1 0.008998 0.002398 -0.003449 0.000000 0.000000 0.000000
# 2 0.002398 0.036367 -0.008422 0.000000 0.000000 0.000000
# 3 -0.003449 -0.008422 0.013858 0.000000 0.000000 0.000000
# 4 0.000000 0.000000 0.000000 0.038538 0.000000 0.000000
# 5 0.000000 0.000000 0.000000 0.000000 0.047200 0.000000
# 6 0.000000 0.000000 0.000000 0.000000 0.000000 -0.011418
#
#
# Mechanical properties :
#
#
# Convention : Reuss Voigt Hill
#
# Bulk Modulus (GPa) = 24.82859 37.98080 31.40470
# Shear Modulus (GPa) = 30.13607 5.13201 17.63404
#
# Velocity S-wave (km/s) = 3.90258 1.61047 2.98527
# Velocity P-wave (km/s) = 5.73190 4.75949 5.26818
#
# Compressibility (1/GPa) = 0.04027614
#
# Stress axis : x y z
#
# Youngs Moduli (GPa) = 111.13938 27.49773 72.15816
#
# Poissons Ratio (x) = -0.06593 0.24886
# Poissons Ratio (y) = -0.26646 0.60772
# Poissons Ratio (z) = 0.38330 0.23159
#
# Static dielectric constant tensor:
#      x y z
#    x 1.773240 0.000000 0.000000 
#    y 0.000000 1.675170 0.000000 
#    z 0.000000 0.000000 1.660890 
# 
# From -- ./inp_files/3447.got.cif
#   From: 2010.05.17/outbox.cif.g08.bks.cpg/sg72_2_cif.got.tgz:3447.got - 2010.06.03 17:03:01.
