data_PCOD9525885
_publ_section_title
;
Structure prediction by ZEFSAII (Michael W. Deem and Ramdas Pophale) SiO2 
 PCOD9525885
Probable space group: I B A M
;
_chemical_formula_sum "Si O2"
_cell_formula_units_Z 104
_cell_length_a 25.717547
_cell_length_b 9.637066
_cell_length_c 20.709935
_cell_angle_alpha 90.000000
_cell_angle_beta 90.000000
_cell_angle_gamma 90.000000
_cell_volume 5132.785452
_symmetry_space_group_name_H-M "I B A M"
_symmetry_group_IT_number 72
_symmetry_cell_setting 'orthorhombic'
loop_
_space_group_symop_operation_xyz
x,y,z
-x,-y,z
x,-y,1/2-z
-x,y,1/2-z
-x,-y,-z
x,y,-z
-x,y,1/2+z
x,-y,1/2+z
1/2+x,1/2+y,1/2+z
1/2-x,1/2-y,1/2+z
1/2+x,1/2-y,-z
1/2-x,1/2+y,-z
1/2-x,1/2-y,1/2-z
1/2+x,1/2+y,1/2-z
1/2-x,1/2+y,z
1/2+x,1/2-y,z
loop_
_atom_site_type_symbol
_atom_site_label
_atom_site_fract_x
_atom_site_fract_y
_atom_site_fract_z
Si Si1 0.137639 0.467404 0.422475
Si Si2 0.793028 0.613600 0.306998
Si Si3 0.949280 0.315150 0.427248
Si Si4 0.058495 0.262405 0.363961
Si Si5 0.321340 0.350750 0.718073
Si Si6 0.000000 0.212430 0.250000
Si Si7 0.924893 0.067722 0.354020
O O1 0.148763 0.475309 0.500000
O O2 0.185816 0.453725 0.372991
O O3 0.098699 0.592726 0.401773
O O4 0.104429 0.332171 0.403327
O O5 0.793265 0.500000 0.250000
O O6 0.734609 0.674292 0.315474
O O7 0.826975 0.738032 0.275282
O O8 0.954595 0.360243 0.500000
O O9 0.935556 0.153372 0.418716
O O10 0.005860 0.321685 0.396209
O O11 0.044202 0.295124 0.289269
O O12 0.068839 0.096233 0.363214
O O13 0.316086 0.500000 0.750000
O O14 0.370151 0.374842 0.672069
O O15 0.966982 0.122897 0.301480
#
# Coordination Sequence:
#
# PCOD9525885 Si02
#       7
#    16  16  16  16  16   8  16
#     4  11  23  39  58  82 117 157 196 246 303 358
#     4  10  21  38  62  87 113 153 202 245 297 364
#     4  10  22  38  53  74 110 152 188 227 283 352
#     4  11  21  34  56  82 112 148 189 237 293 356
#     4  10  20  36  60  87 116 146 186 243 298 345
#     4  10  19  32  53  84 115 144 181 238 295 346
#     4  11  20  34  57  83 113 145 186 236 291 348
#
# _framework density 20.261901999999999
#
# number of rings (size 3 to 8) (size 9 to 14) (size 15 to 20)
#    0.000    1.538    0.000    7.385    0.000    4.308 
#    0.000    3.846    0.000   13.846    0.000    0.000 
#    0.000    0.000    0.000    0.000    0.000    0.000 
#
# Total GULP energy -289593.936988 kJ/mol
# GULP energy per Si atom -5569.114173 kJ/mol
# Density = 2.021579 g / cm^3
# Si number density = 20.261902 Si / 1000 Ang^3
#
#
#
# Elastic Constant Matrix: (Units=GPa)
#
#
# Indices 1 2 3 4 5 6 
#
# 1 98.7302 5.9831 37.2962 0.0000 0.0000 0.0000
# 2 5.9831 65.8897 19.0965 0.0000 0.0000 0.0000
# 3 37.2962 19.0965 78.9615 0.0000 0.0000 0.0000
# 4 0.0000 0.0000 0.0000 22.8180 0.0000 0.0000
# 5 0.0000 0.0000 0.0000 0.0000 35.5828 0.0000
# 6 0.0000 0.0000 0.0000 0.0000 0.0000 32.1410
#
#
#
# Elastic Compliance Matrix: (Units=1/GPa)
#
#
# Indices 1 2 3 4 5 6 
#
# 1 0.012351 0.000612 -0.005982 0.000000 0.000000 0.000000
# 2 0.000612 0.016351 -0.004244 0.000000 0.000000 0.000000
# 3 -0.005982 -0.004244 0.016516 0.000000 0.000000 0.000000
# 4 0.000000 0.000000 0.000000 0.043825 0.000000 0.000000
# 5 0.000000 0.000000 0.000000 0.000000 0.028103 0.000000
# 6 0.000000 0.000000 0.000000 0.000000 0.000000 0.031113
#
#
# Mechanical properties :
#
#
# Convention : Reuss Voigt Hill
#
# Bulk Modulus (GPa) = 38.47363 40.92588 39.69976
# Shear Modulus (GPa) = 28.38474 30.18871 29.28673
#
# Velocity S-wave (km/s) = 3.74691 3.86414 3.80598
# Velocity P-wave (km/s) = 6.14398 6.33649 6.24098
#
# Compressibility (1/GPa) = 0.02599183
#
# Stress axis : x y z
#
# Youngs Moduli (GPa) = 80.96333 61.15755 60.54658
#
# Poissons Ratio (x) = -0.03744 0.36219
# Poissons Ratio (y) = -0.04956 0.25694
# Poissons Ratio (z) = 0.48432 0.25953
#
# Static dielectric constant tensor:
#      x y z
#    x 1.831180 0.000000 0.000000 
#    y 0.000000 1.771460 0.000000 
#    z 0.000000 0.000000 1.691730 
# 
# From -- ./inp_files/40798.got.cif
#   From: 2010.05.17/outbox.cif.g08.bks.cpg/sg72_21_cif.got.tgz:40798.got - 2010.06.03 17:03:01.
