data_PCOD9525338
_publ_section_title
;
Structure prediction by ZEFSAII (Michael W. Deem and Ramdas Pophale) SiO2 
 PCOD9525338
Probable space group: I B A M
;
_chemical_formula_sum "Si O2"
_cell_formula_units_Z 96
_cell_length_a 20.842080
_cell_length_b 14.474734
_cell_length_c 14.250179
_cell_angle_alpha 90.000000
_cell_angle_beta 90.000000
_cell_angle_gamma 90.000000
_cell_volume 4299.044788
_symmetry_space_group_name_H-M "I B A M"
_symmetry_group_IT_number 72
_symmetry_cell_setting 'orthorhombic'
loop_
_space_group_symop_operation_xyz
x,y,z
-x,-y,z
x,-y,1/2-z
-x,y,1/2-z
-x,-y,-z
x,y,-z
-x,y,1/2+z
x,-y,1/2+z
1/2+x,1/2+y,1/2+z
1/2-x,1/2-y,1/2+z
1/2+x,1/2-y,-z
1/2-x,1/2+y,-z
1/2-x,1/2-y,1/2-z
1/2+x,1/2+y,1/2-z
1/2-x,1/2+y,z
1/2+x,1/2-y,z
loop_
_atom_site_type_symbol
_atom_site_label
_atom_site_fract_x
_atom_site_fract_y
_atom_site_fract_z
Si Si1 0.193954 0.448658 0.105973
Si Si2 0.435513 0.957054 0.646894
Si Si3 0.484261 0.759250 0.613819
Si Si4 0.316844 0.558620 0.885347
Si Si5 0.135089 0.259123 0.884852
Si Si6 0.939058 0.061134 0.114102
O O1 0.129880 0.509941 0.101253
O O2 0.250565 0.511880 0.145668
O O3 0.172539 0.350587 0.149696
O O4 0.215325 0.425273 0.000000
O O5 0.446821 0.848589 0.648520
O O6 0.500000 0.000000 0.602660
O O7 0.432147 0.000000 0.750000
O O8 0.482438 0.761167 0.500000
O O9 0.559553 0.762160 0.640171
O O10 0.451019 0.665048 0.646580
O O11 0.332841 0.662854 0.853862
O O12 0.374397 0.490103 0.858073
O O13 0.316202 0.564159 0.000000
O O14 0.135822 0.261289 0.000000
O O15 0.938658 0.063875 0.000000
O O16 0.000000 0.000000 0.141339
#
# Coordination Sequence:
#
# PCOD9525338 Si02
#       6
#    16  16  16  16  16  16
#     4  10  20  33  53  79 109 143 182 228 275 335
#     4  11  23  37  53  77 102 143 188 236 281 328
#     4  10  18  30  55  84 111 143 185 230 278 334
#     4   9  17  29  48  79 117 147 176 220 277 333
#     4   9  16  28  48  77 110 144 176 220 280 322
#     4   9  15  26  48  82 117 145 175 221 274 329
#
# _framework density 22.330542000000001
#
# number of rings (size 3 to 8) (size 9 to 14) (size 15 to 20)
#    0.000    2.333    3.333    0.500    0.000    2.000 
#    0.000    5.000    0.000    4.000    0.000    7.000 
#    0.000    0.000    0.000    0.000    0.000    0.167 
#
# Total GULP energy -268274.045567 kJ/mol
# GULP energy per Si atom -5589.042616 kJ/mol
# Density = 2.227972 g / cm^3
# Si number density = 22.330542 Si / 1000 Ang^3
#
#
#
# Elastic Constant Matrix: (Units=GPa)
#
#
# Indices 1 2 3 4 5 6 
#
# 1 172.2422 112.9953 0.9615 0.0000 0.0000 0.0000
# 2 112.9953 270.8505 10.8915 0.0000 0.0000 0.0000
# 3 0.9615 10.8915 69.5099 0.0000 0.0000 0.0000
# 4 0.0000 0.0000 0.0000 13.3170 0.0000 0.0000
# 5 0.0000 0.0000 0.0000 0.0000 3.0199 0.0000
# 6 0.0000 0.0000 0.0000 0.0000 0.0000 35.6702
#
#
#
# Elastic Compliance Matrix: (Units=1/GPa)
#
#
# Indices 1 2 3 4 5 6 
#
# 1 0.008005 -0.003356 0.000415 0.000000 0.000000 0.000000
# 2 -0.003356 0.005123 -0.000756 0.000000 0.000000 0.000000
# 3 0.000415 -0.000756 0.014499 0.000000 0.000000 0.000000
# 4 0.000000 0.000000 0.000000 0.075092 0.000000 0.000000
# 5 0.000000 0.000000 0.000000 0.000000 0.331136 0.000000
# 6 0.000000 0.000000 0.000000 0.000000 0.000000 0.028035
#
#
# Mechanical properties :
#
#
# Convention : Reuss Voigt Hill
#
# Bulk Modulus (GPa) = 49.42592 84.69993 67.06293
# Shear Modulus (GPa) = 10.50357 36.25171 23.37764
#
# Velocity S-wave (km/s) = 2.17115 4.03353 3.23908
# Velocity P-wave (km/s) = 5.33545 7.72690 6.63973
#
# Compressibility (1/GPa) = 0.02023230
#
# Stress axis : x y z
#
# Youngs Moduli (GPa) = 124.91629 195.20796 68.96933
#
# Poissons Ratio (x) = 0.65520 -0.02863
# Poissons Ratio (y) = 0.41927 0.05216
# Poissons Ratio (z) = -0.05186 0.14763
#
# Static dielectric constant tensor:
#      x y z
#    x 1.787880 0.000000 0.000000 
#    y 0.000000 1.814890 0.000000 
#    z 0.000000 0.000000 1.940040 
# 
# From -- ./inp_files/39693.got.cif
#   From: 2010.05.17/outbox.cif.g08.bks.cpg/sg72_20_cif.got.tgz:39693.got - 2010.06.03 17:03:01.
