data_PCOD9525231
_publ_section_title
;
Structure prediction by ZEFSAII (Michael W. Deem and Ramdas Pophale) SiO2 
 PCOD9525231
Probable space group: I B A M
;
_chemical_formula_sum "Si O2"
_cell_formula_units_Z 88
_cell_length_a 16.846183
_cell_length_b 29.630375
_cell_length_c 9.078899
_cell_angle_alpha 90.000000
_cell_angle_beta 90.000000
_cell_angle_gamma 90.000000
_cell_volume 4531.811600
_symmetry_space_group_name_H-M "I B A M"
_symmetry_group_IT_number 72
_symmetry_cell_setting 'orthorhombic'
loop_
_space_group_symop_operation_xyz
x,y,z
-x,-y,z
x,-y,1/2-z
-x,y,1/2-z
-x,-y,-z
x,y,-z
-x,y,1/2+z
x,-y,1/2+z
1/2+x,1/2+y,1/2+z
1/2-x,1/2-y,1/2+z
1/2+x,1/2-y,-z
1/2-x,1/2+y,-z
1/2-x,1/2-y,1/2-z
1/2+x,1/2+y,1/2-z
1/2-x,1/2+y,z
1/2+x,1/2-y,z
loop_
_atom_site_type_symbol
_atom_site_label
_atom_site_fract_x
_atom_site_fract_y
_atom_site_fract_z
Si Si1 0.416167 0.132496 0.176780
Si Si2 0.850364 0.820698 0.830760
Si Si3 0.749469 0.096806 0.676800
Si Si4 0.382284 0.456651 0.165290
Si Si5 0.500000 0.620746 0.250000
Si Si6 0.586336 0.228186 0.820111
O O1 0.500000 0.119776 0.250000
O O2 0.344185 0.098042 0.203431
O O3 0.391629 0.180011 0.251763
O O4 0.425155 0.138584 0.000000
O O5 0.787345 0.855750 0.766713
O O6 0.859965 0.770430 0.770127
O O7 0.935776 0.846409 0.826264
O O8 0.827228 0.814501 0.000000
O O9 0.762401 0.094455 0.500000
O O10 0.802374 0.059290 0.753609
O O11 0.414173 0.500000 0.250000
O O12 0.443465 0.414620 0.164846
O O13 0.364789 0.470011 0.000000
O O14 0.500000 0.237479 0.750000
O O15 0.582516 0.226515 0.000000
#
# Coordination Sequence:
#
# PCOD9525231 Si02
#       6
#    16  16  16  16   8  16
#     4  10  20  35  55  77 103 138 178 224 277 330
#     4   9  17  30  48  71 105 144 181 222 263 303
#     4   9  20  38  56  76 105 139 177 224 277 329
#     4  11  23  37  58  84 112 146 182 224 271 323
#     4  10  19  34  52  78 114 150 192 220 255 306
#     4  10  18  29  47  72 104 142 182 226 266 310
#
# _framework density 19.418281
#
# number of rings (size 3 to 8) (size 9 to 14) (size 15 to 20)
#    0.000    2.182    0.909    3.545    0.000    5.091 
#    0.000    0.909    0.000    0.545    0.000    3.818 
#    0.000    0.000    0.000    0.000    0.000    0.000 
#
# Total GULP energy -245123.123642 kJ/mol
# GULP energy per Si atom -5570.980083 kJ/mol
# Density = 1.937408 g / cm^3
# Si number density = 19.418281 Si / 1000 Ang^3
#
#
#
# Elastic Constant Matrix: (Units=GPa)
#
#
# Indices 1 2 3 4 5 6 
#
# 1 106.1133 34.6805 39.0830 -0.0002 0.0001 -0.0001
# 2 34.6805 37.0069 24.3701 0.0000 0.0004 -0.0002
# 3 39.0830 24.3701 84.4174 -0.0027 0.0006 0.0002
# 4 -0.0002 0.0000 -0.0027 19.4265 0.0010 -0.0001
# 5 0.0001 0.0004 0.0006 0.0010 7.8342 -0.0003
# 6 -0.0001 -0.0002 0.0002 -0.0001 -0.0003 15.0962
#
#
#
# Elastic Compliance Matrix: (Units=1/GPa)
#
#
# Indices 1 2 3 4 5 6 
#
# 1 0.014336 -0.011192 -0.003406 0.000000 0.000001 0.000000
# 2 -0.011192 0.042102 -0.006973 -0.000001 -0.000002 0.000000
# 3 -0.003406 -0.006973 0.015436 0.000002 -0.000001 0.000000
# 4 0.000000 -0.000001 0.000002 0.051476 -0.000007 0.000000
# 5 0.000001 -0.000002 -0.000001 -0.000007 0.127646 0.000002
# 6 0.000000 0.000000 0.000000 0.000000 0.000002 0.066242
#
#
# Mechanical properties :
#
#
# Convention : Reuss Voigt Hill
#
# Bulk Modulus (GPa) = 34.80406 47.08941 40.94673
# Shear Modulus (GPa) = 13.51508 17.09832 15.30670
#
# Velocity S-wave (km/s) = 2.64104 2.97059 2.81065
# Velocity P-wave (km/s) = 5.22134 6.00571 5.62721
#
# Compressibility (1/GPa) = 0.02873228
#
# Stress axis : x y z
#
# Youngs Moduli (GPa) = 69.75303 23.75184 64.78409
#
# Poissons Ratio (x) = 0.26583 0.22068
# Poissons Ratio (y) = 0.78067 0.45172
# Poissons Ratio (z) = 0.23761 0.16561
#
# Static dielectric constant tensor:
#      x y z
#    x 1.692600 0.000000 0.000000 
#    y 0.000000 1.706320 0.000000 
#    z 0.000000 0.000000 1.703700 
# 
# From -- ./inp_files/5116.got.cif
#   From: 2010.05.17/outbox.cif.g08.bks.cpg/sg72_3_cif.got.tgz:5116.got - 2010.06.03 17:03:01.
