data_PCOD9525583
_publ_section_title
;
Structure prediction by ZEFSAII (Michael W. Deem and Ramdas Pophale) SiO2 
 PCOD9525583
Probable space group: I B A M
;
_chemical_formula_sum "Si O2"
_cell_formula_units_Z 68
_cell_length_a 29.327493
_cell_length_b 5.143472
_cell_length_c 20.563128
_cell_angle_alpha 90.000000
_cell_angle_beta 90.000000
_cell_angle_gamma 90.000000
_cell_volume 3101.847903
_symmetry_space_group_name_H-M "I B A M"
_symmetry_group_IT_number 72
_symmetry_cell_setting 'orthorhombic'
loop_
_space_group_symop_operation_xyz
x,y,z
-x,-y,z
x,-y,1/2-z
-x,y,1/2-z
-x,-y,-z
x,y,-z
-x,y,1/2+z
x,-y,1/2+z
1/2+x,1/2+y,1/2+z
1/2-x,1/2-y,1/2+z
1/2+x,1/2-y,-z
1/2-x,1/2+y,-z
1/2-x,1/2-y,1/2-z
1/2+x,1/2+y,1/2-z
1/2-x,1/2+y,z
1/2+x,1/2-y,z
loop_
_atom_site_type_symbol
_atom_site_label
_atom_site_fract_x
_atom_site_fract_y
_atom_site_fract_z
Si Si1 0.719837 0.280913 0.142125
Si Si2 0.000000 0.500000 0.750000
Si Si3 0.084489 0.796796 0.808127
Si Si4 0.467832 0.750486 0.572434
Si Si5 0.336101 0.000000 0.250000
Si Si6 0.718832 0.820451 0.500000
O O1 0.762119 0.075594 0.143498
O O2 0.696564 0.229611 0.071198
O O3 0.692414 0.203015 0.206940
O O4 0.964573 0.327414 0.789722
O O5 0.074420 0.840973 0.882994
O O6 0.128967 0.623422 0.801502
O O7 0.090883 0.000000 0.750000
O O8 0.500000 0.500000 0.572275
O O9 0.451143 0.808885 0.500000
O O10 0.500000 0.000000 0.589948
O O11 0.739395 0.110966 0.500000
#
# Coordination Sequence:
#
# PCOD9525583 Si02
#       6
#    16   4  16  16   8   8
#     4  10  21  40  66  87 119 158 203 247 302 367
#     4  10  18  36  58  86 108 168 202 246 302 350
#     4  11  23  37  60  87 130 159 209 252 307 371
#     4  10  21  40  66  90 117 161 215 259 308 368
#     4  11  26  37  56  94 122 160 200 253 310 363
#     4   8  16  34  62  90 108 149 200 245 292 360
#
# _framework density 21.922416999999999
#
# number of rings (size 3 to 8) (size 9 to 14) (size 15 to 20)
#    0.000    1.882    1.176    2.471    6.588    0.000 
#    2.118    0.000    2.588    0.000    0.000    0.000 
#    0.000    0.000    0.000    0.000    0.000    0.000 
#
# Total GULP energy -189292.121150 kJ/mol
# GULP energy per Si atom -5567.415328 kJ/mol
# Density = 2.187252 g / cm^3
# Si number density = 21.922417 Si / 1000 Ang^3
#
#
#
# Elastic Constant Matrix: (Units=GPa)
#
#
# Indices 1 2 3 4 5 6 
#
# 1 41.6491 -2.3763 24.4117 0.0000 0.0000 0.0000
# 2 -2.3763 73.0584 -5.6091 0.0000 0.0000 0.0000
# 3 24.4117 -5.6091 120.0371 0.0000 0.0000 0.0000
# 4 0.0000 0.0000 0.0000 32.5583 0.0000 0.0000
# 5 0.0000 0.0000 0.0000 0.0000 -18.4692 0.0000
# 6 0.0000 0.0000 0.0000 0.0000 0.0000 24.4240
#
#
#
# Elastic Compliance Matrix: (Units=1/GPa)
#
#
# Indices 1 2 3 4 5 6 
#
# 1 0.027275 0.000463 -0.005525 0.000000 0.000000 0.000000
# 2 0.000463 0.013745 0.000548 0.000000 0.000000 0.000000
# 3 -0.005525 0.000548 0.009480 0.000000 0.000000 0.000000
# 4 0.000000 0.000000 0.000000 0.030714 0.000000 0.000000
# 5 0.000000 0.000000 0.000000 0.000000 -0.054144 0.000000
# 6 0.000000 0.000000 0.000000 0.000000 0.000000 0.040943
#
#
# Mechanical properties :
#
#
# Convention : Reuss Voigt Hill
#
# Bulk Modulus (GPa) = 24.11293 29.73303 26.92298
# Shear Modulus (GPa) = 55.02644 22.25717 38.64180
#
# Velocity S-wave (km/s) = 5.01548 3.18979 4.20296
# Velocity P-wave (km/s) = 6.67556 5.21139 5.98839
#
# Compressibility (1/GPa) = 0.04147152
#
# Stress axis : x y z
#
# Youngs Moduli (GPa) = 36.66360 72.75471 105.48498
#
# Poissons Ratio (x) = -0.03368 0.58283
# Poissons Ratio (y) = -0.01697 -0.05782
# Poissons Ratio (z) = 0.20257 -0.03988
#
# Static dielectric constant tensor:
#      x y z
#    x 1.762940 0.000000 0.000000 
#    y 0.000000 1.848650 0.000000 
#    z 0.000000 0.000000 2.120350 
# 
# From -- ./inp_files/34863.got.cif
#   From: 2010.05.17/outbox.cif.g08.bks.cpg/sg72_18_cif.got.tgz:34863.got - 2010.06.03 17:03:01.
