data_PCOD9525093
_publ_section_title
;
Structure prediction by ZEFSAII (Michael W. Deem and Ramdas Pophale) SiO2 
 PCOD9525093
Probable space group: I B A M
;
_chemical_formula_sum "Si O2"
_cell_formula_units_Z 112
_cell_length_a 24.040165
_cell_length_b 14.277982
_cell_length_c 14.791086
_cell_angle_alpha 90.000000
_cell_angle_beta 90.000000
_cell_angle_gamma 90.000000
_cell_volume 5076.966952
_symmetry_space_group_name_H-M "I B A M"
_symmetry_group_IT_number 72
_symmetry_cell_setting 'orthorhombic'
loop_
_space_group_symop_operation_xyz
x,y,z
-x,-y,z
x,-y,1/2-z
-x,y,1/2-z
-x,-y,-z
x,y,-z
-x,y,1/2+z
x,-y,1/2+z
1/2+x,1/2+y,1/2+z
1/2-x,1/2-y,1/2+z
1/2+x,1/2-y,-z
1/2-x,1/2+y,-z
1/2-x,1/2-y,1/2-z
1/2+x,1/2+y,1/2-z
1/2-x,1/2+y,z
1/2+x,1/2-y,z
loop_
_atom_site_type_symbol
_atom_site_label
_atom_site_fract_x
_atom_site_fract_y
_atom_site_fract_z
Si Si1 0.982135 0.243036 0.390019
Si Si2 0.887361 0.258600 0.889784
Si Si3 0.214362 0.108085 0.099077
Si Si4 0.860439 0.283235 0.394424
Si Si5 0.158996 0.059814 0.338376
Si Si6 0.057249 0.051590 0.100612
Si Si7 0.816679 0.608948 0.272507
O O1 0.984990 0.234507 0.500000
O O2 0.926075 0.303768 0.373852
O O3 0.959548 0.145827 0.349950
O O4 0.046440 0.257651 0.364114
O O5 0.850587 0.170325 0.850985
O O6 0.861643 0.349896 0.842881
O O7 0.883765 0.256227 0.000000
O O8 0.160055 0.174272 0.115138
O O9 0.258386 0.126930 0.177446
O O10 0.199324 0.997708 0.095344
O O11 0.236707 0.135662 0.000000
O O12 0.851458 0.307083 0.500000
O O13 0.823713 0.337993 0.322351
O O14 0.175591 0.000000 0.250000
O O15 0.097778 0.020669 0.355335
O O16 0.079894 0.072919 0.000000
O O17 0.000000 0.000000 0.089083
O O18 0.822961 0.500000 0.250000
#
# Coordination Sequence:
#
# PCOD9525093 Si02
#       7
#    16  16  16  16  16  16  16
#     4   9  18  36  65 100 138 176 215 263 330 413
#     4  11  24  44  70 102 142 184 227 280 340 410
#     4  11  23  43  71  99 133 175 221 275 341 416
#     4  10  22  43  72 102 133 173 218 276 349 418
#     4  12  23  36  60 103 148 181 214 262 329 421
#     4  10  17  31  56  91 139 184 211 242 308 405
#     4  12  28  48  66  91 128 176 244 303 343 392
#
# _framework density 22.060416
#
# number of rings (size 3 to 8) (size 9 to 14) (size 15 to 20)
#    0.000    1.286    2.857    3.429    0.000    3.143 
#    0.000    2.857    0.000    2.571    0.000    0.000 
#    0.000    0.000    0.000    0.000    0.000    0.000 
#
# Total GULP energy -311964.951340 kJ/mol
# GULP energy per Si atom -5570.802703 kJ/mol
# Density = 2.201021 g / cm^3
# Si number density = 22.060416 Si / 1000 Ang^3
#
#
#
# Elastic Constant Matrix: (Units=GPa)
#
#
# Indices 1 2 3 4 5 6 
#
# 1 116.3348 34.3120 46.1038 0.0000 0.0000 0.0000
# 2 34.3120 77.9437 38.9861 0.0000 0.0000 0.0000
# 3 46.1038 38.9861 116.7437 0.0000 0.0000 0.0000
# 4 0.0000 0.0000 0.0000 29.7928 0.0000 0.0000
# 5 0.0000 0.0000 0.0000 0.0000 125.4587 0.0000
# 6 0.0000 0.0000 0.0000 0.0000 0.0000 26.1689
#
#
#
# Elastic Compliance Matrix: (Units=1/GPa)
#
#
# Indices 1 2 3 4 5 6 
#
# 1 0.010797 -0.003146 -0.003213 0.000000 0.000000 0.000000
# 2 -0.003146 0.016319 -0.004207 0.000000 0.000000 0.000000
# 3 -0.003213 -0.004207 0.011240 0.000000 0.000000 0.000000
# 4 0.000000 0.000000 0.000000 0.033565 0.000000 0.000000
# 5 0.000000 0.000000 0.000000 0.000000 0.007971 0.000000
# 6 0.000000 0.000000 0.000000 0.000000 0.000000 0.038213
#
#
# Mechanical properties :
#
#
# Convention : Reuss Voigt Hill
#
# Bulk Modulus (GPa) = 58.06222 61.09176 59.57699
# Shear Modulus (GPa) = 34.48764 49.05876 41.77320
#
# Velocity S-wave (km/s) = 3.95818 4.72087 4.35625
# Velocity P-wave (km/s) = 6.87506 7.58080 7.23654
#
# Compressibility (1/GPa) = 0.01722290
#
# Stress axis : x y z
#
# Youngs Moduli (GPa) = 92.61663 61.27812 88.96919
#
# Poissons Ratio (x) = 0.19277 0.28590
# Poissons Ratio (y) = 0.29135 0.37433
# Poissons Ratio (z) = 0.29762 0.25782
#
# Static dielectric constant tensor:
#      x y z
#    x 1.858850 0.000000 0.000000 
#    y 0.000000 1.834820 0.000000 
#    z 0.000000 0.000000 0.955750 
# 
# From -- ./inp_files/25190.got.cif
#   From: 2010.05.17/outbox.cif.g08.bks.cpg/sg72_13_cif.got.tgz:25190.got - 2010.06.03 17:03:01.
