data_PCOD9525341
_publ_section_title
;
Structure prediction by ZEFSAII (Michael W. Deem and Ramdas Pophale) SiO2 
 PCOD9525341
Probable space group: I B A M
;
_chemical_formula_sum "Si O2"
_cell_formula_units_Z 56
_cell_length_a 5.807806
_cell_length_b 28.464189
_cell_length_c 14.998590
_cell_angle_alpha 90.000000
_cell_angle_beta 90.000000
_cell_angle_gamma 90.000000
_cell_volume 2479.484221
_symmetry_space_group_name_H-M "I B A M"
_symmetry_group_IT_number 72
_symmetry_cell_setting 'orthorhombic'
loop_
_space_group_symop_operation_xyz
x,y,z
-x,-y,z
x,-y,1/2-z
-x,y,1/2-z
-x,-y,-z
x,y,-z
-x,y,1/2+z
x,-y,1/2+z
1/2+x,1/2+y,1/2+z
1/2-x,1/2-y,1/2+z
1/2+x,1/2-y,-z
1/2-x,1/2+y,-z
1/2-x,1/2-y,1/2-z
1/2+x,1/2+y,1/2-z
1/2-x,1/2+y,z
1/2+x,1/2-y,z
loop_
_atom_site_type_symbol
_atom_site_label
_atom_site_fract_x
_atom_site_fract_y
_atom_site_fract_z
Si Si1 0.366519 0.626710 0.841775
Si Si2 0.674608 0.456559 0.595351
Si Si3 0.000000 0.436871 0.750000
Si Si4 0.757331 0.767210 0.144755
O O1 0.500000 0.637056 0.750000
O O2 0.535112 0.592505 0.896335
O O3 0.148368 0.595681 0.815476
O O4 0.286361 0.677342 0.873170
O O5 0.500000 0.500000 0.595587
O O6 0.800638 0.456721 0.500000
O O7 0.828007 0.462106 0.682691
O O8 0.750000 0.750000 0.250000
O O9 0.501881 0.753536 0.110589
#
# Coordination Sequence:
#
# PCOD9525341 Si02
#       4
#    16  16   8  16
#     4  10  20  34  60  95 130 171 226 283 345 425
#     4  10  24  44  65  96 137 179 229 296 364 427
#     4  10  22  39  68  96 128 178 236 282 347 438
#     4  10  18  30  55  92 134 173 225 286 352 423
#
# _framework density 22.585343999999999
#
# number of rings (size 3 to 8) (size 9 to 14) (size 15 to 20)
#    0.000    2.000    2.857    1.714    4.000    8.571 
#    0.000    2.857    0.000    2.571    0.000    0.000 
#    0.000    0.000    0.000    0.000    0.000    0.000 
#
# Total GULP energy -156249.775309 kJ/mol
# GULP energy per Si atom -5580.349118 kJ/mol
# Density = 2.253394 g / cm^3
# Si number density = 22.585344 Si / 1000 Ang^3
#
#
#
# Elastic Constant Matrix: (Units=GPa)
#
#
# Indices 1 2 3 4 5 6 
#
# 1 141.7632 50.5832 43.6362 0.0000 0.0000 0.0000
# 2 50.5832 136.2448 60.0292 0.0000 0.0000 0.0000
# 3 43.6362 60.0292 108.8491 0.0000 0.0000 0.0000
# 4 0.0000 0.0000 0.0000 -7.5514 0.0000 0.0000
# 5 0.0000 0.0000 0.0000 0.0000 -145.9459 0.0000
# 6 0.0000 0.0000 0.0000 0.0000 0.0000 39.0304
#
#
#
# Elastic Compliance Matrix: (Units=1/GPa)
#
#
# Indices 1 2 3 4 5 6 
#
# 1 0.008514 -0.002189 -0.002206 0.000000 0.000000 0.000000
# 2 -0.002189 0.010258 -0.004780 0.000000 0.000000 0.000000
# 3 -0.002206 -0.004780 0.012707 0.000000 0.000000 0.000000
# 4 0.000000 0.000000 0.000000 -0.132425 0.000000 0.000000
# 5 0.000000 0.000000 0.000000 0.000000 -0.006852 0.000000
# 6 0.000000 0.000000 0.000000 0.000000 0.000000 0.025621
#
#
# Mechanical properties :
#
#
# Convention : Reuss Voigt Hill
#
# Bulk Modulus (GPa) = 76.16017 77.26156 76.71087
# Shear Modulus (GPa) = -84.10510 -7.38616 -45.74563
#
# Velocity S-wave (km/s) = -6.10898 -1.81037 -4.50539
# Velocity P-wave (km/s) = 3.99565 5.46928 2.64082
#
# Compressibility (1/GPa) = 0.01313022
#
# Stress axis : x y z
#
# Youngs Moduli (GPa) = 117.45183 97.48047 78.69422
#
# Poissons Ratio (x) = 0.21339 0.17360
# Poissons Ratio (y) = 0.25711 0.37615
# Poissons Ratio (z) = 0.25909 0.46594
#
# Static dielectric constant tensor:
#      x y z
#    x 1.879720 0.000000 0.000000 
#    y 0.000000 1.829170 0.000000 
#    z 0.000000 0.000000 1.864180 
# 
# From -- ./inp_files/17537.got.cif
#   From: 2010.05.17/outbox.cif.g08.bks.cpg/sg72_9_cif.got.tgz:17537.got - 2010.06.03 17:03:01.
