data_PCOD9525324
_publ_section_title
;
Structure prediction by ZEFSAII (Michael W. Deem and Ramdas Pophale) SiO2 
 PCOD9525324
Probable space group: I B A M
;
_chemical_formula_sum "Si O2"
_cell_formula_units_Z 96
_cell_length_a 18.865895
_cell_length_b 19.632337
_cell_length_c 11.630387
_cell_angle_alpha 90.000000
_cell_angle_beta 90.000000
_cell_angle_gamma 90.000000
_cell_volume 4307.681444
_symmetry_space_group_name_H-M "I B A M"
_symmetry_group_IT_number 72
_symmetry_cell_setting 'orthorhombic'
loop_
_space_group_symop_operation_xyz
x,y,z
-x,-y,z
x,-y,1/2-z
-x,y,1/2-z
-x,-y,-z
x,y,-z
-x,y,1/2+z
x,-y,1/2+z
1/2+x,1/2+y,1/2+z
1/2-x,1/2-y,1/2+z
1/2+x,1/2-y,-z
1/2-x,1/2+y,-z
1/2-x,1/2-y,1/2-z
1/2+x,1/2+y,1/2-z
1/2-x,1/2+y,z
1/2+x,1/2-y,z
loop_
_atom_site_type_symbol
_atom_site_label
_atom_site_fract_x
_atom_site_fract_y
_atom_site_fract_z
Si Si1 0.786630 0.660383 0.305687
Si Si2 0.911955 0.533712 0.127090
Si Si3 0.182221 0.195849 0.379680
Si Si4 0.986007 0.814593 0.371661
Si Si5 0.087715 0.683587 0.373409
Si Si6 0.257002 0.988160 0.374433
O O1 0.784593 0.728655 0.379858
O O2 0.716346 0.658978 0.228001
O O3 0.853229 0.677581 0.223794
O O4 0.789738 0.588477 0.368451
O O5 0.927775 0.500000 0.250000
O O6 0.946408 0.608450 0.127318
O O7 0.825776 0.537589 0.127753
O O8 0.926473 0.501920 0.000000
O O9 0.199972 0.160599 0.500000
O O10 0.097641 0.200615 0.372517
O O11 0.002771 0.843824 0.500000
O O12 0.000000 0.852434 0.250000
O O13 0.032588 0.745162 0.362669
O O14 0.121416 0.691534 0.500000
O O15 0.221284 0.994936 0.500000
O O16 0.220059 0.000000 0.250000
#
# Coordination Sequence:
#
# PCOD9525324 Si02
#       6
#    16  16  16  16  16  16
#     4  11  19  33  53  78 109 148 196 239 293 342
#     4   9  16  28  46  75 106 139 179 225 275 323
#     4  10  22  35  51  76 110 149 197 251 296 341
#     4  10  20  36  53  75 104 144 191 236 287 336
#     4  10  18  30  52  76 105 147 191 227 276 343
#     4  10  19  31  51  81 116 151 185 237 290 343
#
# _framework density 22.285769999999999
#
# number of rings (size 3 to 8) (size 9 to 14) (size 15 to 20)
#    0.000    2.000    5.000    1.000    0.000    0.667 
#    0.000    1.667    0.000    4.500    0.000   16.333 
#    0.000    0.667    0.000    5.167    0.000    1.167 
#
# Total GULP energy -267329.535781 kJ/mol
# GULP energy per Si atom -5569.365329 kJ/mol
# Density = 2.223505 g / cm^3
# Si number density = 22.285770 Si / 1000 Ang^3
#
#
#
# Elastic Constant Matrix: (Units=GPa)
#
#
# Indices 1 2 3 4 5 6 
#
# 1 55.6030 4.9089 21.3276 0.0000 0.0000 0.0000
# 2 4.9089 37.2341 3.5448 0.0000 0.0000 0.0000
# 3 21.3276 3.5448 227.8007 0.0000 0.0000 0.0000
# 4 0.0000 0.0000 0.0000 -24.5954 0.0000 0.0000
# 5 0.0000 0.0000 0.0000 0.0000 -15.3322 0.0000
# 6 0.0000 0.0000 0.0000 0.0000 0.0000 9.0000
#
#
#
# Elastic Compliance Matrix: (Units=1/GPa)
#
#
# Indices 1 2 3 4 5 6 
#
# 1 0.018853 -0.002321 -0.001729 0.000000 0.000000 0.000000
# 2 -0.002321 0.027183 -0.000206 0.000000 0.000000 0.000000
# 3 -0.001729 -0.000206 0.004555 0.000000 0.000000 0.000000
# 4 0.000000 0.000000 0.000000 -0.040658 0.000000 0.000000
# 5 0.000000 0.000000 0.000000 0.000000 -0.065222 0.000000
# 6 0.000000 0.000000 0.000000 0.000000 0.000000 0.111111
#
#
# Mechanical properties :
#
#
# Convention : Reuss Voigt Hill
#
# Bulk Modulus (GPa) = 23.76475 42.24450 33.00463
# Shear Modulus (GPa) = 63.80923 13.20491 38.50707
#
# Velocity S-wave (km/s) = 5.35672 2.43683 4.16128
# Velocity P-wave (km/s) = 6.99614 5.18792 6.15875
#
# Compressibility (1/GPa) = 0.04207912
#
# Stress axis : x y z
#
# Youngs Moduli (GPa) = 53.04277 36.78819 219.54505
#
# Poissons Ratio (x) = 0.08538 0.37958
# Poissons Ratio (y) = 0.12311 0.04516
# Poissons Ratio (z) = 0.09171 0.00757
#
# Static dielectric constant tensor:
#      x y z
#    x 1.801510 0.000000 0.000000 
#    y 0.000000 1.837290 0.000000 
#    z 0.000000 0.000000 1.961270 
# 
# From -- ./inp_files/14796.got.cif
#   From: 2010.05.17/outbox.cif.g08.bks.cpg/sg72_8_cif.got.tgz:14796.got - 2010.06.03 17:03:01.
