data_PCOD9525920
_publ_section_title
;
Structure prediction by ZEFSAII (Michael W. Deem and Ramdas Pophale) SiO2 
 PCOD9525920
Probable space group: I B A M
;
_chemical_formula_sum "Si O2"
_cell_formula_units_Z 96
_cell_length_a 21.498407
_cell_length_b 8.470990
_cell_length_c 26.452117
_cell_angle_alpha 90.000000
_cell_angle_beta 90.000000
_cell_angle_gamma 90.000000
_cell_volume 4817.268847
_symmetry_space_group_name_H-M "I B A M"
_symmetry_group_IT_number 72
_symmetry_cell_setting 'orthorhombic'
loop_
_space_group_symop_operation_xyz
x,y,z
-x,-y,z
x,-y,1/2-z
-x,y,1/2-z
-x,-y,-z
x,y,-z
-x,y,1/2+z
x,-y,1/2+z
1/2+x,1/2+y,1/2+z
1/2-x,1/2-y,1/2+z
1/2+x,1/2-y,-z
1/2-x,1/2+y,-z
1/2-x,1/2-y,1/2-z
1/2+x,1/2+y,1/2-z
1/2-x,1/2+y,z
1/2+x,1/2-y,z
loop_
_atom_site_type_symbol
_atom_site_label
_atom_site_fract_x
_atom_site_fract_y
_atom_site_fract_z
Si Si1 0.261668 0.287664 0.059024
Si Si2 0.879184 0.024061 0.054672
Si Si3 0.428559 0.058292 0.194656
Si Si4 0.447606 0.191994 0.555508
Si Si5 0.964799 0.160642 0.861118
Si Si6 0.656385 0.006061 0.098958
O O1 0.306678 0.441859 0.057820
O O2 0.203193 0.345706 0.091784
O O3 0.304368 0.147290 0.081663
O O4 0.244921 0.255598 0.000000
O O5 0.910890 0.109996 0.100950
O O6 0.902882 0.845795 0.055417
O O7 0.899990 0.089672 0.000000
O O8 0.437541 0.244857 0.185828
O O9 0.500000 0.000000 0.186964
O O10 0.410175 0.000000 0.250000
O O11 0.377071 0.006746 0.153442
O O12 0.477511 0.185379 0.500000
O O13 0.492257 0.227769 0.602881
O O14 0.403174 0.042348 0.563529
O O15 0.000000 0.000000 0.847155
#
# Coordination Sequence:
#
# PCOD9525920 Si02
#       6
#    16  16  16  16  16  16
#     4  11  22  36  58  89 130 172 211 249 309 394
#     4   9  18  33  56  88 131 168 199 247 309 386
#     4  11  24  46  69  92 124 166 218 288 341 376
#     4  10  19  32  55  91 130 164 205 252 315 395
#     4  10  19  37  65  96 124 160 208 265 333 396
#     4  12  23  40  62  89 129 177 216 268 323 384
#
# _framework density 19.928304000000001
#
# number of rings (size 3 to 8) (size 9 to 14) (size 15 to 20)
#    0.000    1.500    3.333    3.000    0.000    3.333 
#    0.000    3.333    0.000    0.000    0.000    0.000 
#    0.000    0.000    0.000    0.000    0.000    0.000 
#
# Total GULP energy -267670.886600 kJ/mol
# GULP energy per Si atom -5576.476804 kJ/mol
# Density = 1.988295 g / cm^3
# Si number density = 19.928304 Si / 1000 Ang^3
#
#
#
# Elastic Constant Matrix: (Units=GPa)
#
#
# Indices 1 2 3 4 5 6 
#
# 1 82.8002 38.3199 47.4917 0.0000 0.0000 0.0000
# 2 38.3199 73.8822 55.4554 0.0000 0.0000 0.0000
# 3 47.4917 55.4554 140.1715 0.0000 0.0000 0.0000
# 4 0.0000 0.0000 0.0000 30.1328 0.0000 0.0000
# 5 0.0000 0.0000 0.0000 0.0000 27.8432 0.0000
# 6 0.0000 0.0000 0.0000 0.0000 0.0000 50.3702
#
#
#
# Elastic Compliance Matrix: (Units=1/GPa)
#
#
# Indices 1 2 3 4 5 6 
#
# 1 0.016845 -0.006334 -0.003201 0.000000 0.000000 0.000000
# 2 -0.006334 0.021634 -0.006413 0.000000 0.000000 0.000000
# 3 -0.003201 -0.006413 0.010756 0.000000 0.000000 0.000000
# 4 0.000000 0.000000 0.000000 0.033186 0.000000 0.000000
# 5 0.000000 0.000000 0.000000 0.000000 0.035915 0.000000
# 6 0.000000 0.000000 0.000000 0.000000 0.000000 0.019853
#
#
# Mechanical properties :
#
#
# Convention : Reuss Voigt Hill
#
# Bulk Modulus (GPa) = 57.67623 64.37644 61.02634
# Shear Modulus (GPa) = 28.43097 32.04168 30.23633
#
# Velocity S-wave (km/s) = 3.78122 4.01415 3.89942
# Velocity P-wave (km/s) = 6.93312 7.33885 7.13887
#
# Compressibility (1/GPa) = 0.01733816
#
# Stress axis : x y z
#
# Youngs Moduli (GPa) = 59.36554 46.22444 92.97258
#
# Poissons Ratio (x) = 0.29278 0.29764
# Poissons Ratio (y) = 0.37601 0.59622
# Poissons Ratio (z) = 0.19005 0.29643
#
# Static dielectric constant tensor:
#      x y z
#    x 1.732400 0.000000 0.000000 
#    y 0.000000 1.792580 0.000000 
#    z 0.000000 0.000000 1.674540 
# 
# From -- ./inp_files/49632.got.cif
#   From: 2010.05.17/outbox.cif.g08.bks.cpg/sg72_25_cif.got.tgz:49632.got - 2010.06.03 17:03:01.
