data_PCOD9525470
_publ_section_title
;
Structure prediction by ZEFSAII (Michael W. Deem and Ramdas Pophale) SiO2 
 PCOD9525470
Probable space group: I B A M
;
_chemical_formula_sum "Si O2"
_cell_formula_units_Z 80
_cell_length_a 14.660026
_cell_length_b 7.847169
_cell_length_c 28.172662
_cell_angle_alpha 90.000000
_cell_angle_beta 90.000000
_cell_angle_gamma 90.000000
_cell_volume 3240.974629
_symmetry_space_group_name_H-M "I B A M"
_symmetry_group_IT_number 72
_symmetry_cell_setting 'orthorhombic'
loop_
_space_group_symop_operation_xyz
x,y,z
-x,-y,z
x,-y,1/2-z
-x,y,1/2-z
-x,-y,-z
x,y,-z
-x,y,1/2+z
x,-y,1/2+z
1/2+x,1/2+y,1/2+z
1/2-x,1/2-y,1/2+z
1/2+x,1/2-y,-z
1/2-x,1/2+y,-z
1/2-x,1/2-y,1/2-z
1/2+x,1/2+y,1/2-z
1/2-x,1/2+y,z
1/2+x,1/2-y,z
loop_
_atom_site_type_symbol
_atom_site_label
_atom_site_fract_x
_atom_site_fract_y
_atom_site_fract_z
Si Si1 0.558571 0.176171 0.848785
Si Si2 0.133380 0.342032 0.948041
Si Si3 0.346397 0.250455 0.947477
Si Si4 0.777663 0.475924 0.805906
Si Si5 0.386399 0.647012 0.656433
O O1 0.580181 0.224144 0.902929
O O2 0.651955 0.120790 0.824024
O O3 0.489588 0.315217 0.827399
O O4 0.500000 0.000000 0.849548
O O5 0.237282 0.278229 0.945522
O O6 0.134733 0.548163 0.944318
O O7 0.095988 0.297433 0.000000
O O8 0.385027 0.337971 0.900634
O O9 0.375585 0.311237 0.000000
O O10 0.768777 0.500000 0.750000
O O11 0.677583 0.491439 0.828840
O O12 0.827401 0.303351 0.821608
#
# Coordination Sequence:
#
# PCOD9525470 Si02
#       5
#    16  16  16  16  16
#     4  10  20  35  59  90 118 155 206 254 299 360
#     4  10  19  33  57  88 124 163 206 250 307 367
#     4  10  18  32  57  88 124 163 202 248 305 372
#     4  11  23  41  63  88 120 160 204 256 314 362
#     4  11  21  39  63  89 120 162 204 254 309 368
#
# _framework density 24.683931999999999
#
# number of rings (size 3 to 8) (size 9 to 14) (size 15 to 20)
#    0.000    1.600    6.000    0.600    0.000    4.800 
#    0.000    1.000    0.000    1.200    0.000    8.400 
#    0.000    0.000    0.000    0.000    0.000    0.000 
#
# Total GULP energy -223910.922549 kJ/mol
# GULP energy per Si atom -5597.773064 kJ/mol
# Density = 2.462775 g / cm^3
# Si number density = 24.683932 Si / 1000 Ang^3
#
#
#
# Elastic Constant Matrix: (Units=GPa)
#
#
# Indices 1 2 3 4 5 6 
#
# 1 128.4553 -1.9498 28.0854 0.0000 0.0000 0.0000
# 2 -1.9498 75.7193 1.1028 0.0000 0.0000 0.0000
# 3 28.0854 1.1028 140.3663 0.0000 0.0000 0.0000
# 4 0.0000 0.0000 0.0000 -2.2690 0.0000 0.0000
# 5 0.0000 0.0000 0.0000 0.0000 36.6257 0.0000
# 6 0.0000 0.0000 0.0000 0.0000 0.0000 21.2126
#
#
#
# Elastic Compliance Matrix: (Units=1/GPa)
#
#
# Indices 1 2 3 4 5 6 
#
# 1 0.008145 0.000233 -0.001632 0.000000 0.000000 0.000000
# 2 0.000233 0.013215 -0.000151 0.000000 0.000000 0.000000
# 3 -0.001632 -0.000151 0.007452 0.000000 0.000000 0.000000
# 4 0.000000 0.000000 0.000000 -0.440721 0.000000 0.000000
# 5 0.000000 0.000000 0.000000 0.000000 0.027303 0.000000
# 6 0.000000 0.000000 0.000000 0.000000 0.000000 0.047142
#
#
# Mechanical properties :
#
#
# Convention : Reuss Voigt Hill
#
# Bulk Modulus (GPa) = 38.88840 44.33531 41.61185
# Shear Modulus (GPa) = -15.34707 32.26736 8.46014
#
# Velocity S-wave (km/s) = -2.49618 3.61947 1.85333
# Velocity P-wave (km/s) = 2.73511 5.95547 4.63403
#
# Compressibility (1/GPa) = 0.02571461
#
# Stress axis : x y z
#
# Youngs Moduli (GPa) = 122.77361 75.67227 134.19483
#
# Poissons Ratio (x) = -0.01767 0.21895
# Poissons Ratio (y) = -0.02867 0.02020
# Poissons Ratio (z) = 0.20031 0.01139
#
# Static dielectric constant tensor:
#      x y z
#    x 1.956830 0.000000 0.000000 
#    y 0.000000 2.023060 0.000000 
#    z 0.000000 0.000000 1.900910 
# 
# From -- ./inp_files/48546.got.cif
#   From: 2010.05.17/outbox.cif.g08.bks.cpg/sg72_25_cif.got.tgz:48546.got - 2010.06.03 17:03:01.
