data_PCOD9525145
_publ_section_title
;
Structure prediction by ZEFSAII (Michael W. Deem and Ramdas Pophale) SiO2 
 PCOD9525145
Probable space group: I B A M
;
_chemical_formula_sum "Si O2"
_cell_formula_units_Z 96
_cell_length_a 13.915878
_cell_length_b 23.045107
_cell_length_c 10.830965
_cell_angle_alpha 90.000000
_cell_angle_beta 90.000000
_cell_angle_gamma 90.000000
_cell_volume 3473.413549
_symmetry_space_group_name_H-M "I B A M"
_symmetry_group_IT_number 72
_symmetry_cell_setting 'orthorhombic'
loop_
_space_group_symop_operation_xyz
x,y,z
-x,-y,z
x,-y,1/2-z
-x,y,1/2-z
-x,-y,-z
x,y,-z
-x,y,1/2+z
x,-y,1/2+z
1/2+x,1/2+y,1/2+z
1/2-x,1/2-y,1/2+z
1/2+x,1/2-y,-z
1/2-x,1/2+y,-z
1/2-x,1/2-y,1/2-z
1/2+x,1/2+y,1/2-z
1/2-x,1/2+y,z
1/2+x,1/2-y,z
loop_
_atom_site_type_symbol
_atom_site_label
_atom_site_fract_x
_atom_site_fract_y
_atom_site_fract_z
Si Si1 0.330971 0.857591 0.500000
Si Si2 0.856933 0.639494 0.224613
Si Si3 0.130634 0.889452 0.272246
Si Si4 0.365412 0.736919 0.771568
Si Si5 0.628727 0.402704 0.500000
Si Si6 0.392423 0.022328 0.628591
Si Si7 0.670995 0.460592 0.000000
Si Si8 0.353721 0.271580 0.000000
O O1 0.385289 0.864413 0.630225
O O2 0.249912 0.906796 0.500000
O O3 0.294095 0.789828 0.500000
O O4 0.743592 0.622128 0.233460
O O5 0.889367 0.701274 0.172592
O O6 0.899013 0.589955 0.141642
O O7 0.110291 0.825082 0.327717
O O8 0.122306 0.941063 0.369855
O O9 0.082034 0.899304 0.137734
O O10 0.250000 0.750000 0.750000
O O11 0.405687 0.733036 0.631344
O O12 0.671532 0.468392 0.500000
O O13 0.684661 0.338506 0.500000
O O14 0.349610 0.003128 0.500000
O O15 0.500000 0.000000 0.629987
O O16 0.339137 0.000000 0.750000
#
# Coordination Sequence:
#
# PCOD9525145 Si02
#       8
#     8  16  16  16   8  16   8   8
#     4   8  16  28  45  64  88 107 142 194 250 285
#     4   9  17  30  48  67  82 111 148 191 247 298
#     4   9  18  29  41  62  89 114 144 190 243 286
#     4   8  14  26  42  62  83 110 139 184 236 295
#     4  10  18  26  40  56  81 116 155 185 226 293
#     4  10  23  40  53  67  90 120 157 207 258 302
#     4  10  18  28  38  57  86 117 147 192 238 283
#     4   8  14  26  38  53  82 114 143 179 235 283
#
# _framework density 27.638515000000002
#
# number of rings (size 3 to 8) (size 9 to 14) (size 15 to 20)
#    0.000    3.000    0.000    1.500    2.333    2.667 
#    3.000    0.000    0.000    0.000    0.000    0.000 
#    0.000    0.000    0.000    0.000    0.000    0.000 
#
# Total GULP energy -267337.711038 kJ/mol
# GULP energy per Si atom -5569.535647 kJ/mol
# Density = 2.757561 g / cm^3
# Si number density = 27.638515 Si / 1000 Ang^3
#
#
#
# Elastic Constant Matrix: (Units=GPa)
#
#
# Indices 1 2 3 4 5 6 
#
# 1 73.4262 39.7094 -26.9630 0.0000 0.0000 0.0000
# 2 39.7094 259.4020 37.6662 0.0000 0.0000 0.0000
# 3 -26.9630 37.6662 147.3972 -0.0003 0.0001 0.0000
# 4 0.0000 0.0000 -0.0003 24.1853 0.0000 0.0000
# 5 0.0000 0.0000 0.0001 0.0000 -19.3511 0.0000
# 6 0.0000 0.0000 0.0000 0.0000 0.0000 25.7034
#
#
#
# Elastic Compliance Matrix: (Units=1/GPa)
#
#
# Indices 1 2 3 4 5 6 
#
# 1 0.016722 -0.003120 0.003856 0.000000 0.000000 0.000000
# 2 -0.003120 0.004586 -0.001743 0.000000 0.000000 0.000000
# 3 0.003856 -0.001743 0.007935 0.000000 0.000000 0.000000
# 4 0.000000 0.000000 0.000000 0.041347 0.000000 0.000000
# 5 0.000000 0.000000 0.000000 0.000000 -0.051677 0.000000
# 6 0.000000 0.000000 0.000000 0.000000 0.000000 0.038905
#
#
# Mechanical properties :
#
#
# Convention : Reuss Voigt Hill
#
# Bulk Modulus (GPa) = 36.72300 64.56119 50.64210
# Shear Modulus (GPa) = 72.55994 34.76168 53.66081
#
# Velocity S-wave (km/s) = 5.12935 3.55029 4.41105
# Velocity P-wave (km/s) = 6.95672 6.34160 6.65627
#
# Compressibility (1/GPa) = 0.02723089
#
# Stress axis : x y z
#
# Youngs Moduli (GPa) = 59.80006 218.07281 126.02253
#
# Poissons Ratio (x) = 0.68035 -0.48597
# Poissons Ratio (y) = 0.18657 0.21960
# Poissons Ratio (z) = -0.23060 0.38000
#
# Static dielectric constant tensor:
#      x y z
#    x 2.155510 0.000000 0.000000 
#    y 0.000000 2.168310 0.000000 
#    z 0.000000 0.000000 2.099450 
# 
# From -- ./inp_files/14821.got.cif
#   From: 2010.05.17/outbox.cif.g08.bks.cpg/sg72_8_cif.got.tgz:14821.got - 2010.06.03 17:03:01.
