data_PCOD9525604
_publ_section_title
;
Structure prediction by ZEFSAII (Michael W. Deem and Ramdas Pophale) SiO2 
 PCOD9525604
Probable space group: I B A M
;
_chemical_formula_sum "Si O2"
_cell_formula_units_Z 88
_cell_length_a 32.424713
_cell_length_b 5.434182
_cell_length_c 25.479018
_cell_angle_alpha 90.000000
_cell_angle_beta 90.000000
_cell_angle_gamma 90.000000
_cell_volume 4489.448623
_symmetry_space_group_name_H-M "I B A M"
_symmetry_group_IT_number 72
_symmetry_cell_setting 'orthorhombic'
loop_
_space_group_symop_operation_xyz
x,y,z
-x,-y,z
x,-y,1/2-z
-x,y,1/2-z
-x,-y,-z
x,y,-z
-x,y,1/2+z
x,-y,1/2+z
1/2+x,1/2+y,1/2+z
1/2-x,1/2-y,1/2+z
1/2+x,1/2-y,-z
1/2-x,1/2+y,-z
1/2-x,1/2-y,1/2-z
1/2+x,1/2+y,1/2-z
1/2-x,1/2+y,z
1/2+x,1/2-y,z
loop_
_atom_site_type_symbol
_atom_site_label
_atom_site_fract_x
_atom_site_fract_y
_atom_site_fract_z
Si Si1 0.637908 0.351251 0.085070
Si Si2 0.963106 0.810947 0.345736
Si Si3 0.612977 0.379974 0.803333
Si Si4 0.947138 0.500000 0.750000
Si Si5 0.586691 0.145834 0.439836
Si Si6 0.267491 0.330712 0.439292
O O1 0.642872 0.331705 0.148415
O O2 0.615125 0.607771 0.068951
O O3 0.683312 0.343448 0.061344
O O4 0.611790 0.108897 0.068765
O O5 0.971219 0.667903 0.291666
O O6 0.950315 0.657924 0.397153
O O7 0.920938 0.943711 0.329418
O O8 0.000000 0.000000 0.356336
O O9 0.630146 0.500000 0.750000
O O10 0.584470 0.154246 0.785984
O O11 0.572159 0.152632 0.500000
O O12 0.252660 0.325627 0.500000
O O13 0.248561 0.577171 0.414757
#
# Coordination Sequence:
#
# PCOD9525604 Si02
#       6
#    16  16  16   8  16  16
#     4  11  21  39  61  89 118 158 201 244 294 359
#     4  10  22  36  55  85 118 154 198 253 309 353
#     4   9  20  35  58  84 111 150 200 249 301 349
#     4  10  18  39  56  80 112 146 202 254 302 354
#     4  11  22  38  60  87 119 162 205 242 294 362
#     4  10  20  34  55  86 119 151 189 239 298 352
#
# _framework density 19.601514999999999
#
# number of rings (size 3 to 8) (size 9 to 14) (size 15 to 20)
#    0.000    1.818    1.818    2.727    0.000    6.545 
#    0.000    0.000    0.000    4.364    0.000    0.000 
#    0.000    0.727    0.000    0.000    0.000    0.000 
#
# Total GULP energy -245266.360504 kJ/mol
# GULP energy per Si atom -5574.235466 kJ/mol
# Density = 1.955690 g / cm^3
# Si number density = 19.601515 Si / 1000 Ang^3
#
#
#
# Elastic Constant Matrix: (Units=GPa)
#
#
# Indices 1 2 3 4 5 6 
#
# 1 40.9773 19.0736 3.9891 0.0000 0.0000 0.0000
# 2 19.0736 100.8805 12.7615 0.0000 0.0000 0.0000
# 3 3.9891 12.7615 112.3941 0.0000 0.0000 0.0000
# 4 0.0000 0.0000 0.0000 33.2613 0.0000 0.0000
# 5 0.0000 0.0000 0.0000 0.0000 24.8382 0.0000
# 6 0.0000 0.0000 0.0000 0.0000 0.0000 29.0207
#
#
#
# Elastic Compliance Matrix: (Units=1/GPa)
#
#
# Indices 1 2 3 4 5 6 
#
# 1 0.026775 -0.005014 -0.000381 0.000000 0.000000 0.000000
# 2 -0.005014 0.010996 -0.001071 0.000000 0.000000 0.000000
# 3 -0.000381 -0.001071 0.009032 0.000000 0.000000 0.000000
# 4 0.000000 0.000000 0.000000 0.030065 0.000000 0.000000
# 5 0.000000 0.000000 0.000000 0.000000 0.040261 0.000000
# 6 0.000000 0.000000 0.000000 0.000000 0.000000 0.034458
#
#
# Mechanical properties :
#
#
# Convention : Reuss Voigt Hill
#
# Bulk Modulus (GPa) = 29.52298 36.21112 32.86705
# Shear Modulus (GPa) = 28.43997 31.98589 30.21293
#
# Velocity S-wave (km/s) = 3.81321 4.04395 3.93027
# Velocity P-wave (km/s) = 5.87211 6.34968 6.11556
#
# Compressibility (1/GPa) = 0.03387192
#
# Stress axis : x y z
#
# Youngs Moduli (GPa) = 37.34861 90.94076 110.71327
#
# Poissons Ratio (x) = 0.45599 0.04218
# Poissons Ratio (y) = 0.18727 0.11853
# Poissons Ratio (z) = 0.01423 0.09736
#
# Static dielectric constant tensor:
#      x y z
#    x 1.368490 0.000000 0.000000 
#    y 0.000000 1.763980 0.000000 
#    z 0.000000 0.000000 1.787520 
# 
# From -- ./inp_files/49947.got.cif
#   From: 2010.05.17/outbox.cif.g08.bks.cpg/sg72_25_cif.got.tgz:49947.got - 2010.06.03 17:03:01.
