data_PCOD9525664
_publ_section_title
;
Structure prediction by ZEFSAII (Michael W. Deem and Ramdas Pophale) SiO2 
 PCOD9525664
Probable space group: I B A M
;
_chemical_formula_sum "Si O2"
_cell_formula_units_Z 104
_cell_length_a 28.900541
_cell_length_b 8.990296
_cell_length_c 19.935936
_cell_angle_alpha 90.000000
_cell_angle_beta 90.000000
_cell_angle_gamma 90.000000
_cell_volume 5179.842971
_symmetry_space_group_name_H-M "I B A M"
_symmetry_group_IT_number 72
_symmetry_cell_setting 'orthorhombic'
loop_
_space_group_symop_operation_xyz
x,y,z
-x,-y,z
x,-y,1/2-z
-x,y,1/2-z
-x,-y,-z
x,y,-z
-x,y,1/2+z
x,-y,1/2+z
1/2+x,1/2+y,1/2+z
1/2-x,1/2-y,1/2+z
1/2+x,1/2-y,-z
1/2-x,1/2+y,-z
1/2-x,1/2-y,1/2-z
1/2+x,1/2+y,1/2-z
1/2-x,1/2+y,z
1/2+x,1/2-y,z
loop_
_atom_site_type_symbol
_atom_site_label
_atom_site_fract_x
_atom_site_fract_y
_atom_site_fract_z
Si Si1 0.874030 0.503701 0.388852
Si Si2 0.966664 0.645437 0.429365
Si Si3 0.080049 0.500000 0.250000
Si Si4 0.781380 0.330558 0.919560
Si Si5 0.307836 0.496650 0.918513
Si Si6 0.599124 0.663058 0.420165
Si Si7 0.977367 0.222828 0.314489
O O1 0.913863 0.594970 0.427233
O O2 0.886860 0.538627 0.311945
O O3 0.822700 0.555034 0.405368
O O4 0.882495 0.331907 0.408457
O O5 0.975987 0.724792 0.500000
O O6 0.000000 0.500000 0.428271
O O7 0.981047 0.731267 0.363601
O O8 0.048537 0.631227 0.282360
O O9 0.732203 0.391161 0.894594
O O10 0.795916 0.168375 0.893942
O O11 0.777365 0.317895 0.000000
O O12 0.359075 0.552466 0.902880
O O13 0.305794 0.495213 0.000000
O O14 0.587156 0.648392 0.500000
O O15 0.558230 0.645201 0.365823
O O16 0.000000 0.149269 0.250000
#
# Coordination Sequence:
#
# PCOD9525664 Si02
#       7
#    16  16   8  16  16  16  16
#     4  11  20  30  52  80 118 146 194 233 285 333
#     4  11  18  26  45  79 112 143 186 243 281 324
#     4  10  19  30  46  78 110 152 190 232 275 324
#     4  10  19  34  57  85 115 148 184 234 292 348
#     4   9  19  35  57  85 117 146 182 233 295 348
#     4  10  19  31  52  84 115 147 189 240 287 337
#     4  11  18  30  48  75 112 151 190 231 283 334
#
# _framework density 20.077826999999999
#
# number of rings (size 3 to 8) (size 9 to 14) (size 15 to 20)
#    0.000    1.692    4.615    3.000    0.000    2.462 
#    0.000    0.000    0.000   12.923    4.000    4.308 
#    0.000    0.000    0.000    0.000    0.000    0.000 
#
# Total GULP energy -290040.784225 kJ/mol
# GULP energy per Si atom -5577.707389 kJ/mol
# Density = 2.003213 g / cm^3
# Si number density = 20.077827 Si / 1000 Ang^3
#
#
#
# Elastic Constant Matrix: (Units=GPa)
#
#
# Indices 1 2 3 4 5 6 
#
# 1 69.0105 8.9252 22.2371 0.0000 0.0000 0.0000
# 2 8.9252 47.3147 16.7599 0.0000 0.0000 0.0000
# 3 22.2371 16.7599 126.2369 0.0000 0.0000 0.0000
# 4 0.0000 0.0000 0.0000 -9.5648 0.0000 0.0000
# 5 0.0000 0.0000 0.0000 0.0000 17.2083 0.0000
# 6 0.0000 0.0000 0.0000 0.0000 0.0000 -79.3766
#
#
#
# Elastic Compliance Matrix: (Units=1/GPa)
#
#
# Indices 1 2 3 4 5 6 
#
# 1 0.015552 -0.002060 -0.002466 0.000000 0.000000 0.000000
# 2 -0.002060 0.022451 -0.002618 0.000000 0.000000 0.000000
# 3 -0.002466 -0.002618 0.008704 0.000000 0.000000 0.000000
# 4 0.000000 0.000000 0.000000 -0.104550 0.000000 0.000000
# 5 0.000000 0.000000 0.000000 0.000000 0.058112 0.000000
# 6 0.000000 0.000000 0.000000 0.000000 0.000000 -0.012598
#
#
# Mechanical properties :
#
#
# Convention : Reuss Voigt Hill
#
# Bulk Modulus (GPa) = 30.84670 37.60072 34.22371
# Shear Modulus (GPa) = 391.74781 -1.37064 195.18859
#
# Velocity S-wave (km/s) = 13.98350 -0.82713 9.87051
# Velocity P-wave (km/s) = 16.61669 4.22563 12.12375
#
# Compressibility (1/GPa) = 0.03241838
#
# Stress axis : x y z
#
# Youngs Moduli (GPa) = 64.30213 44.54151 114.89551
#
# Poissons Ratio (x) = 0.09176 0.28333
# Poissons Ratio (y) = 0.13247 0.30078
# Poissons Ratio (z) = 0.15857 0.11660
#
# Static dielectric constant tensor:
#      x y z
#    x 1.748200 0.000000 0.000000 
#    y 0.000000 1.744560 0.000000 
#    z 0.000000 0.000000 1.721680 
# 
# From -- ./inp_files/41058.got.cif
#   From: 2010.05.17/outbox.cif.g08.bks.cpg/sg72_21_cif.got.tgz:41058.got - 2010.06.03 17:03:01.
