data_PCOD9525138
_publ_section_title
;
Structure prediction by ZEFSAII (Michael W. Deem and Ramdas Pophale) SiO2 
 PCOD9525138
Probable space group: I B A M
;
_chemical_formula_sum "Si O2"
_cell_formula_units_Z 120
_cell_length_a 20.775924
_cell_length_b 18.566851
_cell_length_c 16.908922
_cell_angle_alpha 90.000000
_cell_angle_beta 90.000000
_cell_angle_gamma 90.000000
_cell_volume 6522.506505
_symmetry_space_group_name_H-M "I B A M"
_symmetry_group_IT_number 72
_symmetry_cell_setting 'orthorhombic'
loop_
_space_group_symop_operation_xyz
x,y,z
-x,-y,z
x,-y,1/2-z
-x,y,1/2-z
-x,-y,-z
x,y,-z
-x,y,1/2+z
x,-y,1/2+z
1/2+x,1/2+y,1/2+z
1/2-x,1/2-y,1/2+z
1/2+x,1/2-y,-z
1/2-x,1/2+y,-z
1/2-x,1/2-y,1/2-z
1/2+x,1/2+y,1/2-z
1/2-x,1/2+y,z
1/2+x,1/2-y,z
loop_
_atom_site_type_symbol
_atom_site_label
_atom_site_fract_x
_atom_site_fract_y
_atom_site_fract_z
Si Si1 0.684151 0.045825 0.343767
Si Si2 0.000000 0.216748 0.750000
Si Si3 0.640407 0.313744 0.715340
Si Si4 0.545490 0.792795 0.410605
Si Si5 0.186822 0.259812 0.874058
Si Si6 0.431348 0.037792 0.408904
Si Si7 0.255133 0.909523 0.175636
Si Si8 0.677642 0.200269 0.585564
O O1 0.709168 0.076092 0.259570
O O2 0.672622 0.116390 0.395060
O O3 0.618679 0.999539 0.349802
O O4 0.736884 0.985610 0.368557
O O5 0.066406 0.173560 0.737556
O O6 0.010716 0.262113 0.831771
O O7 0.677274 0.277189 0.788911
O O8 0.682769 0.382150 0.689754
O O9 0.644545 0.252224 0.648659
O O10 0.517213 0.784161 0.500000
O O11 0.616733 0.757724 0.412052
O O12 0.557430 0.877638 0.396446
O O13 0.208592 0.342985 0.865325
O O14 0.246679 0.219964 0.912965
O O15 0.407719 0.028433 0.500000
O O16 0.500000 0.000000 0.402310
O O17 0.650010 0.215492 0.500000
#
# Coordination Sequence:
#
# PCOD9525138 Si02
#       8
#    16   8  16  16  16  16  16  16
#     4  11  20  34  54  83 106 152 187 231 289 344
#     4  10  24  36  63  79 112 154 200 242 296 352
#     4  10  20  39  55  82 110 148 192 244 286 347
#     4  10  21  37  56  80 112 153 197 238 285 348
#     4  10  17  37  55  78 110 147 189 238 290 339
#     4  10  22  36  49  72 118 158 188 229 272 337
#     4  10  19  33  58  78 111 142 190 245 292 334
#     4  11  21  32  55  86 116 146 186 238 291 341
#
# _framework density 18.397834
#
# number of rings (size 3 to 8) (size 9 to 14) (size 15 to 20)
#    0.000    1.733    4.000    1.600    1.867    0.533 
#    0.000    0.667    0.000    1.600    0.000    0.000 
#    0.000    3.467    0.000    0.000    0.000    0.000 
#
# Total GULP energy -334405.672829 kJ/mol
# GULP energy per Si atom -5573.427880 kJ/mol
# Density = 1.835596 g / cm^3
# Si number density = 18.397834 Si / 1000 Ang^3
#
#
#
# Elastic Constant Matrix: (Units=GPa)
#
#
# Indices 1 2 3 4 5 6 
#
# 1 97.0009 15.1082 25.3066 0.0000 0.0000 0.0000
# 2 15.1082 47.1367 10.3317 0.0000 0.0000 0.0000
# 3 25.3066 10.3317 75.0057 0.0000 0.0000 0.0000
# 4 0.0000 0.0000 0.0000 13.1075 0.0000 0.0000
# 5 0.0000 0.0000 0.0000 0.0000 -42.2102 0.0000
# 6 0.0000 0.0000 0.0000 0.0000 0.0000 15.3154
#
#
#
# Elastic Compliance Matrix: (Units=1/GPa)
#
#
# Indices 1 2 3 4 5 6 
#
# 1 0.011695 -0.002973 -0.003536 0.000000 0.000000 0.000000
# 2 -0.002973 0.022631 -0.002114 0.000000 0.000000 0.000000
# 3 -0.003536 -0.002114 0.014817 0.000000 0.000000 0.000000
# 4 0.000000 0.000000 0.000000 0.076292 0.000000 0.000000
# 5 0.000000 0.000000 0.000000 0.000000 -0.023691 0.000000
# 6 0.000000 0.000000 0.000000 0.000000 0.000000 0.065294
#
#
# Mechanical properties :
#
#
# Convention : Reuss Voigt Hill
#
# Bulk Modulus (GPa) = 31.35255 35.62627 33.48941
# Shear Modulus (GPa) = 25.65196 8.46900 17.06048
#
# Velocity S-wave (km/s) = 3.73807 2.14785 3.04848
# Velocity P-wave (km/s) = 5.97573 5.05544 5.53474
#
# Compressibility (1/GPa) = 0.03189533
#
# Stress axis : x y z
#
# Youngs Moduli (GPa) = 85.50771 44.18654 67.49161
#
# Poissons Ratio (x) = 0.13138 0.23867
# Poissons Ratio (y) = 0.25424 0.14269
# Poissons Ratio (z) = 0.30237 0.09342
#
# Static dielectric constant tensor:
#      x y z
#    x 1.658080 0.000000 0.000000 
#    y 0.000000 1.625140 0.000000 
#    z 0.000000 0.000000 1.705050 
# 
# From -- ./inp_files/32825.got.cif
#   From: 2010.05.17/outbox.cif.g08.bks.cpg/sg72_17_cif.got.tgz:32825.got - 2010.06.03 17:03:01.
