data_PCOD9525038
_publ_section_title
;
Structure prediction by ZEFSAII (Michael W. Deem and Ramdas Pophale) SiO2 
 PCOD9525038
Probable space group: I B A M
;
_chemical_formula_sum "Si O2"
_cell_formula_units_Z 96
_cell_length_a 18.193185
_cell_length_b 23.246162
_cell_length_c 14.019744
_cell_angle_alpha 90.000000
_cell_angle_beta 90.000000
_cell_angle_gamma 90.000000
_cell_volume 5929.254328
_symmetry_space_group_name_H-M "I B A M"
_symmetry_group_IT_number 72
_symmetry_cell_setting 'orthorhombic'
loop_
_space_group_symop_operation_xyz
x,y,z
-x,-y,z
x,-y,1/2-z
-x,y,1/2-z
-x,-y,-z
x,y,-z
-x,y,1/2+z
x,-y,1/2+z
1/2+x,1/2+y,1/2+z
1/2-x,1/2-y,1/2+z
1/2+x,1/2-y,-z
1/2-x,1/2+y,-z
1/2-x,1/2-y,1/2-z
1/2+x,1/2+y,1/2-z
1/2-x,1/2+y,z
1/2+x,1/2-y,z
loop_
_atom_site_type_symbol
_atom_site_label
_atom_site_fract_x
_atom_site_fract_y
_atom_site_fract_z
Si Si1 0.680514 0.289828 0.724938
Si Si2 0.946145 0.417162 0.883449
Si Si3 0.899229 0.745086 0.889284
Si Si4 0.787235 0.362919 0.612930
Si Si5 0.392479 0.038141 0.616433
Si Si6 0.433844 0.788520 0.385417
O O1 0.750000 0.250000 0.750000
O O2 0.635084 0.294177 0.822730
O O3 0.716431 0.344150 0.673186
O O4 0.625969 0.254208 0.657003
O O5 0.897316 0.471658 0.853092
O O6 0.922849 0.354124 0.850496
O O7 0.030212 0.431890 0.856482
O O8 0.945373 0.415912 0.000000
O O9 0.849434 0.687414 0.878626
O O10 0.982769 0.730087 0.862597
O O11 0.897171 0.761032 0.000000
O O12 0.769488 0.366092 0.500000
O O13 0.824969 0.422078 0.645300
O O14 0.392108 0.038162 0.500000
O O15 0.427857 0.788637 0.500000
#
# Coordination Sequence:
#
# PCOD9525038 Si02
#       6
#    16  16  16  16  16  16
#     4  10  20  29  40  60  86 123 154 189 231 283
#     4   8  13  21  39  66  90 118 155 193 220 253
#     4   9  17  29  44  59  80 115 157 200 237 268
#     4   9  15  26  42  63  91 123 154 187 230 277
#     4   8  12  21  39  64  92 121 156 188 221 261
#     4  10  17  28  45  66  89 117 155 196 233 273
#
# _framework density 16.190905999999998
#
# number of rings (size 3 to 8) (size 9 to 14) (size 15 to 20)
#    0.000    3.000    1.667    2.000    0.000    0.667 
#    0.000    0.000    0.000    4.000    0.000    0.000 
#    0.000    1.333    0.000   27.333    0.000  235.833 
#
# Total GULP energy -267615.914413 kJ/mol
# GULP energy per Si atom -5575.331550 kJ/mol
# Density = 1.615405 g / cm^3
# Si number density = 16.190906 Si / 1000 Ang^3
#
#
#
# Elastic Constant Matrix: (Units=GPa)
#
#
# Indices 1 2 3 4 5 6 
#
# 1 89.3048 62.4044 41.7860 0.0000 0.0000 0.0000
# 2 62.4044 85.5896 35.3732 0.0000 0.0000 0.0000
# 3 41.7860 35.3732 69.5970 0.0000 0.0000 0.0000
# 4 0.0000 0.0000 0.0000 12.4416 0.0000 0.0000
# 5 0.0000 0.0000 0.0000 0.0000 27.4410 0.0000
# 6 0.0000 0.0000 0.0000 0.0000 0.0000 35.6020
#
#
#
# Elastic Compliance Matrix: (Units=1/GPa)
#
#
# Indices 1 2 3 4 5 6 
#
# 1 0.025542 -0.015552 -0.007431 0.000000 0.000000 0.000000
# 2 -0.015552 0.024259 -0.002993 0.000000 0.000000 0.000000
# 3 -0.007431 -0.002993 0.020351 0.000000 0.000000 0.000000
# 4 0.000000 0.000000 0.000000 0.080375 0.000000 0.000000
# 5 0.000000 0.000000 0.000000 0.000000 0.036442 0.000000
# 6 0.000000 0.000000 0.000000 0.000000 0.000000 0.028088
#
#
# Mechanical properties :
#
#
# Convention : Reuss Voigt Hill
#
# Bulk Modulus (GPa) = 54.94097 58.17982 56.56040
# Shear Modulus (GPa) = 18.30991 22.09213 20.20102
#
# Velocity S-wave (km/s) = 3.36650 3.69789 3.53608
# Velocity P-wave (km/s) = 7.00842 7.36506 7.18896
#
# Compressibility (1/GPa) = 0.01820135
#
# Stress axis : x y z
#
# Youngs Moduli (GPa) = 39.15153 41.22098 49.13723
#
# Poissons Ratio (x) = 0.64105 0.36514
# Poissons Ratio (y) = 0.60887 0.14706
# Poissons Ratio (z) = 0.29094 0.12337
#
# Static dielectric constant tensor:
#      x y z
#    x 1.515280 0.000000 0.000000 
#    y 0.000000 1.532750 0.000000 
#    z 0.000000 0.000000 1.630230 
# 
# From -- ./inp_files/24422.got.cif
#   From: 2010.05.17/outbox.cif.g08.bks.cpg/sg72_13_cif.got.tgz:24422.got - 2010.06.03 17:03:01.
