data_PCOD9525856
_publ_section_title
;
Structure prediction by ZEFSAII (Michael W. Deem and Ramdas Pophale) SiO2 
 PCOD9525856
Probable space group: I B A M
;
_chemical_formula_sum "Si O2"
_cell_formula_units_Z 116
_cell_length_a 26.816927
_cell_length_b 27.495669
_cell_length_c 9.144739
_cell_angle_alpha 90.000000
_cell_angle_beta 90.000000
_cell_angle_gamma 90.000000
_cell_volume 6742.867343
_symmetry_space_group_name_H-M "I B A M"
_symmetry_group_IT_number 72
_symmetry_cell_setting 'orthorhombic'
loop_
_space_group_symop_operation_xyz
x,y,z
-x,-y,z
x,-y,1/2-z
-x,y,1/2-z
-x,-y,-z
x,y,-z
-x,y,1/2+z
x,-y,1/2+z
1/2+x,1/2+y,1/2+z
1/2-x,1/2-y,1/2+z
1/2+x,1/2-y,-z
1/2-x,1/2+y,-z
1/2-x,1/2-y,1/2-z
1/2+x,1/2+y,1/2-z
1/2-x,1/2+y,z
1/2+x,1/2-y,z
loop_
_atom_site_type_symbol
_atom_site_label
_atom_site_fract_x
_atom_site_fract_y
_atom_site_fract_z
Si Si1 0.326308 0.154955 0.823325
Si Si2 0.864583 0.743589 0.824423
Si Si3 0.181449 0.925734 0.326251
Si Si4 0.447956 0.324805 0.325245
Si Si5 0.704397 0.951193 0.175453
Si Si6 0.500000 0.500000 0.250000
Si Si7 0.715679 0.317845 0.175611
Si Si8 0.916859 0.075740 0.166642
O O1 0.365760 0.191289 0.751864
O O2 0.325241 0.097902 0.783682
O O3 0.271637 0.173732 0.772065
O O4 0.328639 0.157898 0.000000
O O5 0.909105 0.781367 0.795512
O O6 0.815396 0.772427 0.768231
O O7 0.861373 0.737388 0.000000
O O8 0.173855 0.933885 0.500000
O O9 0.236695 0.944524 0.286401
O O10 0.185315 0.867596 0.300267
O O11 0.134632 0.944171 0.234904
O O12 0.500000 0.312574 0.250000
O O13 0.452709 0.329785 0.500000
O O14 0.431467 0.376902 0.260719
O O15 0.685689 0.000000 0.250000
O O16 0.702698 0.955058 0.000000
O O17 0.538413 0.463442 0.329799
O O18 0.718848 0.312782 0.000000
O O19 0.908218 0.090548 0.000000
#
# Coordination Sequence:
#
# PCOD9525856 Si02
#       8
#    16  16  16  16  16   4  16  16
#     4   9  18  31  49  74 105 137 172 210 249 303
#     4  10  19  32  52  76 103 136 166 205 261 310
#     4   9  18  35  54  71  99 133 167 214 265 312
#     4  11  23  40  60  78 102 133 170 216 268 321
#     4   9  19  34  52  74 104 142 175 211 258 302
#     4  12  30  44  52  70 102 128 174 236 284 320
#     4   8  14  29  49  70 100 135 163 198 255 307
#     4  12  25  40  57  74  94 127 174 224 278 325
#
# _framework density 17.203364000000001
#
# number of rings (size 3 to 8) (size 9 to 14) (size 15 to 20)
#    0.000    2.207    2.069    3.103    0.966    3.862 
#    0.000    2.069    0.000    0.000    0.000    0.000 
#    0.000    0.552    0.000    6.069    0.000    4.414 
#
# Total GULP energy -323368.362959 kJ/mol
# GULP energy per Si atom -5575.316603 kJ/mol
# Density = 1.716421 g / cm^3
# Si number density = 17.203364 Si / 1000 Ang^3
#
#
#
# Elastic Constant Matrix: (Units=GPa)
#
#
# Indices 1 2 3 4 5 6 
#
# 1 40.1696 39.3725 27.6860 0.0000 0.0000 0.0000
# 2 39.3725 141.4654 46.3110 0.0000 0.0000 0.0000
# 3 27.6860 46.3110 47.4120 0.0000 0.0000 0.0000
# 4 0.0000 0.0000 0.0000 70.5931 0.0000 0.0000
# 5 0.0000 0.0000 0.0000 0.0000 16.3288 0.0000
# 6 0.0000 0.0000 0.0000 0.0000 0.0000 19.6983
#
#
#
# Elastic Compliance Matrix: (Units=1/GPa)
#
#
# Indices 1 2 3 4 5 6 
#
# 1 0.044597 -0.005714 -0.020461 0.000000 0.000000 0.000000
# 2 -0.005714 0.011124 -0.007529 0.000000 0.000000 0.000000
# 3 -0.020461 -0.007529 0.040394 0.000000 0.000000 0.000000
# 4 0.000000 0.000000 0.000000 0.014166 0.000000 0.000000
# 5 0.000000 0.000000 0.000000 0.000000 0.061242 0.000000
# 6 0.000000 0.000000 0.000000 0.000000 0.000000 0.050766
#
#
# Mechanical properties :
#
#
# Convention : Reuss Voigt Hill
#
# Bulk Modulus (GPa) = 34.83450 50.64288 42.73869
# Shear Modulus (GPa) = 16.70758 29.03588 22.87173
#
# Velocity S-wave (km/s) = 3.11976 4.11274 3.65018
# Velocity P-wave (km/s) = 5.76800 7.21489 6.53163
#
# Compressibility (1/GPa) = 0.02870718
#
# Stress axis : x y z
#
# Youngs Moduli (GPa) = 22.42279 89.89666 24.75621
#
# Poissons Ratio (x) = 0.51367 0.50654
# Poissons Ratio (y) = 0.12812 0.18639
# Poissons Ratio (z) = 0.45880 0.67682
#
# Static dielectric constant tensor:
#      x y z
#    x 1.598470 0.000000 0.000000 
#    y 0.000000 1.614870 0.000000 
#    z 0.000000 0.000000 1.573910 
# 
# From -- ./inp_files/9470.got.cif
#   From: 2010.05.17/outbox.cif.g08.bks.cpg/sg72_5_cif.got.tgz:9470.got - 2010.06.03 17:03:01.
