data_PCOD9525213
_publ_section_title
;
Structure prediction by ZEFSAII (Michael W. Deem and Ramdas Pophale) SiO2 
 PCOD9525213
Probable space group: I B A M
;
_chemical_formula_sum "Si O2"
_cell_formula_units_Z 88
_cell_length_a 31.106721
_cell_length_b 7.086151
_cell_length_c 15.207775
_cell_angle_alpha 90.000000
_cell_angle_beta 90.000000
_cell_angle_gamma 90.000000
_cell_volume 3352.203036
_symmetry_space_group_name_H-M "I B A M"
_symmetry_group_IT_number 72
_symmetry_cell_setting 'orthorhombic'
loop_
_space_group_symop_operation_xyz
x,y,z
-x,-y,z
x,-y,1/2-z
-x,y,1/2-z
-x,-y,-z
x,y,-z
-x,y,1/2+z
x,-y,1/2+z
1/2+x,1/2+y,1/2+z
1/2-x,1/2-y,1/2+z
1/2+x,1/2-y,-z
1/2-x,1/2+y,-z
1/2-x,1/2-y,1/2-z
1/2+x,1/2+y,1/2-z
1/2-x,1/2+y,z
1/2+x,1/2-y,z
loop_
_atom_site_type_symbol
_atom_site_label
_atom_site_fract_x
_atom_site_fract_y
_atom_site_fract_z
Si Si1 0.123576 0.806939 0.356323
Si Si2 0.061470 0.339570 0.000000
Si Si3 0.492738 0.272074 0.147179
Si Si4 0.603816 0.736348 0.156144
Si Si5 0.785226 0.090066 0.601714
Si Si6 0.192441 0.649911 0.100211
O O1 0.099460 0.680768 0.425137
O O2 0.103191 0.780415 0.261017
O O3 0.175697 0.795935 0.353898
O O4 0.113050 0.025934 0.381249
O O5 0.024944 0.315756 0.922134
O O6 0.500000 0.500000 0.140989
O O7 0.500000 0.223172 0.250000
O O8 0.443635 0.217145 0.122780
O O9 0.645124 0.866462 0.139289
O O10 0.781487 0.156911 0.500000
O O11 0.737438 0.083889 0.641649
O O12 0.799965 0.874932 0.599154
O O13 0.190851 0.579456 0.000000
#
# Coordination Sequence:
#
# PCOD9525213 Si02
#       6
#    16   8  16  16  16  16
#     4  10  18  29  44  62  92 127 165 200 244 300
#     4  12  19  26  44  62  90 137 160 203 255 300
#     4  11  19  27  39  63  96 127 166 201 246 308
#     4  10  19  30  40  66  95 128 161 204 247 298
#     4   9  17  31  49  71  96 132 169 205 247 303
#     4   9  19  31  50  71 100 134 166 207 254 300
#
# _framework density 26.251394000000001
#
# number of rings (size 3 to 8) (size 9 to 14) (size 15 to 20)
#    0.000    2.000    4.545    1.364    2.545    0.727 
#    0.000    0.000    0.000    0.000    0.000    0.000 
#    0.000    2.909    1.091    0.545    0.000    0.182 
#
# Total GULP energy -245310.015505 kJ/mol
# GULP energy per Si atom -5575.227625 kJ/mol
# Density = 2.619164 g / cm^3
# Si number density = 26.251394 Si / 1000 Ang^3
#
#
#
# Elastic Constant Matrix: (Units=GPa)
#
#
# Indices 1 2 3 4 5 6 
#
# 1 264.0934 48.7973 49.9796 0.0000 0.0000 0.0000
# 2 48.7973 81.2833 27.4137 0.0000 0.0000 0.0000
# 3 49.9796 27.4137 68.3256 0.0000 0.0000 0.0000
# 4 0.0000 0.0000 0.0000 -10.2038 0.0000 0.0000
# 5 0.0000 0.0000 0.0000 0.0000 25.4989 0.0000
# 6 0.0000 0.0000 0.0000 0.0000 0.0000 38.7966
#
#
#
# Elastic Compliance Matrix: (Units=1/GPa)
#
#
# Indices 1 2 3 4 5 6 
#
# 1 0.004634 -0.001895 -0.002630 0.000000 0.000000 0.000000
# 2 -0.001895 0.015003 -0.004633 0.000000 0.000000 0.000000
# 3 -0.002630 -0.004633 0.018418 0.000000 0.000000 0.000000
# 4 0.000000 0.000000 0.000000 -0.098003 0.000000 0.000000
# 5 0.000000 0.000000 0.000000 0.000000 0.039217 0.000000
# 6 0.000000 0.000000 0.000000 0.000000 0.000000 0.025775
#
#
# Mechanical properties :
#
#
# Convention : Reuss Voigt Hill
#
# Bulk Modulus (GPa) = 50.65953 74.00926 62.33439
# Shear Modulus (GPa) = 166.99045 29.98577 98.48811
#
# Velocity S-wave (km/s) = 7.98437 3.38339 6.13178
# Velocity P-wave (km/s) = 10.21469 6.59673 8.59816
#
# Compressibility (1/GPa) = 0.01973962
#
# Stress axis : x y z
#
# Youngs Moduli (GPa) = 215.77797 66.65302 54.29406
#
# Poissons Ratio (x) = 0.12633 0.14277
# Poissons Ratio (y) = 0.40897 0.25155
# Poissons Ratio (z) = 0.56740 0.30881
#
# Static dielectric constant tensor:
#      x y z
#    x 2.071030 0.000000 0.000000 
#    y 0.000000 2.165470 0.000000 
#    z 0.000000 0.000000 1.931260 
# 
# From -- ./inp_files/20503.got.cif
#   From: 2010.05.17/outbox.cif.g08.bks.cpg/sg72_11_cif.got.tgz:20503.got - 2010.06.03 17:03:01.
