data_PCOD9525559
_publ_section_title
;
Structure prediction by ZEFSAII (Michael W. Deem and Ramdas Pophale) SiO2 
 PCOD9525559
Probable space group: I B A M
;
_chemical_formula_sum "Si O2"
_cell_formula_units_Z 88
_cell_length_a 15.469300
_cell_length_b 11.302715
_cell_length_c 21.307911
_cell_angle_alpha 90.000000
_cell_angle_beta 90.000000
_cell_angle_gamma 90.000000
_cell_volume 3725.583598
_symmetry_space_group_name_H-M "I B A M"
_symmetry_group_IT_number 72
_symmetry_cell_setting 'orthorhombic'
loop_
_space_group_symop_operation_xyz
x,y,z
-x,-y,z
x,-y,1/2-z
-x,y,1/2-z
-x,-y,-z
x,y,-z
-x,y,1/2+z
x,-y,1/2+z
1/2+x,1/2+y,1/2+z
1/2-x,1/2-y,1/2+z
1/2+x,1/2-y,-z
1/2-x,1/2+y,-z
1/2-x,1/2-y,1/2-z
1/2+x,1/2+y,1/2-z
1/2-x,1/2+y,z
1/2+x,1/2-y,z
loop_
_atom_site_type_symbol
_atom_site_label
_atom_site_fract_x
_atom_site_fract_y
_atom_site_fract_z
Si Si1 0.028122 0.374974 0.678465
Si Si2 0.985503 0.878341 0.373017
Si Si3 0.782676 0.090690 0.124382
Si Si4 0.832864 0.405976 0.500000
Si Si5 0.965547 0.807527 0.000000
Si Si6 0.144790 0.338457 0.500000
Si Si7 0.222185 0.339100 0.639007
O O1 0.991589 0.251567 0.652140
O O2 0.130477 0.365978 0.670789
O O3 0.000000 0.500000 0.647822
O O4 0.000000 0.379110 0.750000
O O5 0.882958 0.879317 0.384763
O O6 0.039113 0.884459 0.437509
O O7 0.000000 0.000000 0.335530
O O8 0.746505 0.208408 0.159865
O O9 0.776652 0.957625 0.151239
O O10 0.728063 0.087436 0.060609
O O11 0.892968 0.292225 0.500000
O O12 0.887606 0.526440 0.500000
O O13 0.060445 0.744518 0.000000
O O14 0.201700 0.326840 0.563542
#
# Coordination Sequence:
#
# PCOD9525559 Si02
#       7
#    16  16  16   8   8   8  16
#     4  10  23  43  69  94 118 163 227 277 323 378
#     4  11  25  41  64  96 136 172 212 268 324 403
#     4  10  21  38  56  91 133 166 214 252 322 385
#     4  10  23  30  58  91 129 183 206 259 312 376
#     4  12  21  35  58  97 134 174 218 249 321 396
#     4  10  18  35  55  94 133 169 216 258 312 390
#     4  10  21  36  65  92 134 172 205 268 322 391
#
# _framework density 23.620460999999999
#
# number of rings (size 3 to 8) (size 9 to 14) (size 15 to 20)
#    0.000    1.636    3.636    1.636    7.636    0.364 
#    0.000    0.000    0.000   27.273    0.000    0.000 
#    0.000    0.000    0.000    0.000    0.000    0.000 
#
# Total GULP energy -245641.349673 kJ/mol
# GULP energy per Si atom -5582.757947 kJ/mol
# Density = 2.356670 g / cm^3
# Si number density = 23.620461 Si / 1000 Ang^3
#
#
#
# Elastic Constant Matrix: (Units=GPa)
#
#
# Indices 1 2 3 4 5 6 
#
# 1 29.3376 18.8745 0.2744 0.0000 0.0000 0.0000
# 2 18.8745 241.2650 13.8683 0.0000 0.0000 0.0000
# 3 0.2744 13.8683 38.3560 0.0000 0.0000 0.0000
# 4 0.0000 0.0000 0.0000 -26.8796 0.0000 0.0000
# 5 0.0000 0.0000 0.0000 0.0000 -9.9649 0.0000
# 6 0.0000 0.0000 0.0000 0.0000 0.0000 48.1108
#
#
#
# Elastic Compliance Matrix: (Units=1/GPa)
#
#
# Indices 1 2 3 4 5 6 
#
# 1 0.035915 -0.002854 0.000775 0.000000 0.000000 0.000000
# 2 -0.002854 0.004460 -0.001592 0.000000 0.000000 0.000000
# 3 0.000775 -0.001592 0.026642 0.000000 0.000000 0.000000
# 4 0.000000 0.000000 0.000000 -0.037203 0.000000 0.000000
# 5 0.000000 0.000000 0.000000 0.000000 -0.100353 0.000000
# 6 0.000000 0.000000 0.000000 0.000000 0.000000 0.020785
#
#
# Mechanical properties :
#
#
# Convention : Reuss Voigt Hill
#
# Bulk Modulus (GPa) = 16.75774 41.66587 29.21180
# Shear Modulus (GPa) = -222.02195 20.64937 -100.68629
#
# Velocity S-wave (km/s) = -9.70565 2.95992 -6.53600
# Velocity P-wave (km/s) = 10.88529 5.41844 6.67570
#
# Compressibility (1/GPa) = 0.05967392
#
# Stress axis : x y z
#
# Youngs Moduli (GPa) = 27.84349 224.23414 37.53528
#
# Poissons Ratio (x) = 0.64002 -0.02909
# Poissons Ratio (y) = 0.07947 0.05976
# Poissons Ratio (z) = -0.02158 0.35699
#
# Static dielectric constant tensor:
#      x y z
#    x 1.858950 0.000000 0.000000 
#    y 0.000000 2.061520 0.000000 
#    z 0.000000 0.000000 1.890830 
# 
# From -- ./inp_files/44189.got.cif
#   From: 2010.05.17/outbox.cif.g08.bks.cpg/sg72_23_cif.got.tgz:44189.got - 2010.06.03 17:03:01.
