data_PCOD9525099
_publ_section_title
;
Structure prediction by ZEFSAII (Michael W. Deem and Ramdas Pophale) SiO2 
 PCOD9525099
Probable space group: I B A M
;
_chemical_formula_sum "Si O2"
_cell_formula_units_Z 96
_cell_length_a 30.406835
_cell_length_b 5.347088
_cell_length_c 25.727719
_cell_angle_alpha 90.000000
_cell_angle_beta 90.000000
_cell_angle_gamma 90.000000
_cell_volume 4183.018957
_symmetry_space_group_name_H-M "I B A M"
_symmetry_group_IT_number 72
_symmetry_cell_setting 'orthorhombic'
loop_
_space_group_symop_operation_xyz
x,y,z
-x,-y,z
x,-y,1/2-z
-x,y,1/2-z
-x,-y,-z
x,y,-z
-x,y,1/2+z
x,-y,1/2+z
1/2+x,1/2+y,1/2+z
1/2-x,1/2-y,1/2+z
1/2+x,1/2-y,-z
1/2-x,1/2+y,-z
1/2-x,1/2-y,1/2-z
1/2+x,1/2+y,1/2-z
1/2-x,1/2+y,z
1/2+x,1/2-y,z
loop_
_atom_site_type_symbol
_atom_site_label
_atom_site_fract_x
_atom_site_fract_y
_atom_site_fract_z
Si Si1 0.352170 0.915316 0.908799
Si Si2 0.140151 0.083699 0.659809
Si Si3 0.936686 0.149266 0.444455
Si Si4 0.547452 0.371246 0.661172
Si Si5 0.000000 0.500000 0.396222
Si Si6 0.232609 0.783654 0.191763
Si Si7 0.719947 0.091468 0.000000
O O1 0.350537 0.686337 0.866880
O O2 0.396957 0.845171 0.939685
O O3 0.357303 0.186166 0.881982
O O4 0.311971 0.909073 0.949360
O O5 0.093334 0.095963 0.690297
O O6 0.181873 0.148845 0.694617
O O7 0.934454 0.022053 0.500000
O O8 0.982092 0.291545 0.434212
O O9 0.936430 0.980519 0.393984
O O10 0.500000 0.500000 0.676009
O O11 0.536759 0.089112 0.644743
O O12 0.250000 0.750000 0.250000
O O13 0.242332 0.516683 0.165549
O O14 0.749895 0.341847 0.000000
#
# Coordination Sequence:
#
# PCOD9525099 Si02
#       7
#    16  16  16  16   8  16   8
#     4  11  23  39  56  82 115 160 209 259 301 363
#     4  11  22  39  63  88 119 162 201 248 320 365
#     4  10  19  32  48  71 106 152 204 258 308 335
#     4   9  20  33  50  79 118 153 206 253 296 370
#     4  10  17  32  48  74 104 147 204 256 300 349
#     4  10  22  41  66  98 128 147 186 248 313 379
#     4  12  26  42  56  77 110 160 215 270 312 350
#
# _framework density 22.949933000000001
#
# number of rings (size 3 to 8) (size 9 to 14) (size 15 to 20)
#    0.000    1.667    2.500    2.250    0.000    7.667 
#    1.500    0.000    0.000    0.000    0.000    2.333 
#    0.000    0.000    0.000    0.000    0.000    0.000 
#
# Total GULP energy -267532.943158 kJ/mol
# GULP energy per Si atom -5573.602982 kJ/mol
# Density = 2.289770 g / cm^3
# Si number density = 22.949933 Si / 1000 Ang^3
#
#
#
# Elastic Constant Matrix: (Units=GPa)
#
#
# Indices 1 2 3 4 5 6 
#
# 1 181.1635 31.5675 29.9276 0.0000 0.0000 0.0000
# 2 31.5675 131.4016 7.8771 0.0000 0.0000 0.0000
# 3 29.9276 7.8771 37.4383 0.0000 0.0000 0.0000
# 4 0.0000 0.0000 0.0000 7.1241 0.0000 0.0000
# 5 0.0000 0.0000 0.0000 0.0000 3.0588 0.0000
# 6 0.0000 0.0000 0.0000 0.0000 0.0000 45.1132
#
#
#
# Elastic Compliance Matrix: (Units=1/GPa)
#
#
# Indices 1 2 3 4 5 6 
#
# 1 0.006565 -0.001279 -0.004979 0.000000 0.000000 0.000000
# 2 -0.001279 0.007957 -0.000652 0.000000 0.000000 0.000000
# 3 -0.004979 -0.000652 0.030828 0.000000 0.000000 0.000000
# 4 0.000000 0.000000 0.000000 0.140368 0.000000 0.000000
# 5 0.000000 0.000000 0.000000 0.000000 0.326931 0.000000
# 6 0.000000 0.000000 0.000000 0.000000 0.000000 0.022166
#
#
# Mechanical properties :
#
#
# Convention : Reuss Voigt Hill
#
# Bulk Modulus (GPa) = 31.71548 54.30533 43.01041
# Shear Modulus (GPa) = 8.94223 29.76796 19.35509
#
# Velocity S-wave (km/s) = 1.97607 3.60541 2.90722
# Velocity P-wave (km/s) = 4.36531 6.40671 5.48187
#
# Compressibility (1/GPa) = 0.03153034
#
# Stress axis : x y z
#
# Youngs Moduli (GPa) = 152.31772 125.68284 32.43803
#
# Poissons Ratio (x) = 0.16071 0.16151
# Poissons Ratio (y) = 0.19477 0.02115
# Poissons Ratio (z) = 0.75840 0.08193
#
# Static dielectric constant tensor:
#      x y z
#    x 1.999230 0.000000 0.000000 
#    y 0.000000 1.924080 0.000000 
#    z 0.000000 0.000000 1.883500 
# 
# From -- ./inp_files/52570.got.cif
#   From: 2010.05.17/outbox.cif.g08.bks.cpg/sg72_27_cif.got.tgz:52570.got - 2010.06.03 17:03:01.
