data_PCOD9525174
_publ_section_title
;
Structure prediction by ZEFSAII (Michael W. Deem and Ramdas Pophale) SiO2 
 PCOD9525174
Probable space group: I B A M
;
_chemical_formula_sum "Si O2"
_cell_formula_units_Z 96
_cell_length_a 30.443565
_cell_length_b 24.969695
_cell_length_c 8.757790
_cell_angle_alpha 90.000000
_cell_angle_beta 90.000000
_cell_angle_gamma 90.000000
_cell_volume 6657.378859
_symmetry_space_group_name_H-M "I B A M"
_symmetry_group_IT_number 72
_symmetry_cell_setting 'orthorhombic'
loop_
_space_group_symop_operation_xyz
x,y,z
-x,-y,z
x,-y,1/2-z
-x,y,1/2-z
-x,-y,-z
x,y,-z
-x,y,1/2+z
x,-y,1/2+z
1/2+x,1/2+y,1/2+z
1/2-x,1/2-y,1/2+z
1/2+x,1/2-y,-z
1/2-x,1/2+y,-z
1/2-x,1/2-y,1/2-z
1/2+x,1/2+y,1/2-z
1/2-x,1/2+y,z
1/2+x,1/2-y,z
loop_
_atom_site_type_symbol
_atom_site_label
_atom_site_fract_x
_atom_site_fract_y
_atom_site_fract_z
Si Si1 0.451169 0.058161 0.683247
Si Si2 0.715453 0.555900 0.180651
Si Si3 0.719563 0.325894 0.315212
Si Si4 0.616929 0.859712 0.175003
Si Si5 0.689946 0.949923 0.174017
Si Si6 0.184148 0.717274 0.317231
O O1 0.500000 0.066732 0.750000
O O2 0.451956 0.054805 0.500000
O O3 0.420591 0.107364 0.736901
O O4 0.436947 0.000000 0.750000
O O5 0.697918 0.500000 0.250000
O O6 0.701759 0.615593 0.233484
O O7 0.767058 0.557274 0.223825
O O8 0.709601 0.553343 0.000000
O O9 0.717720 0.323273 0.500000
O O10 0.771045 0.315514 0.272271
O O11 0.692816 0.276900 0.244148
O O12 0.657859 0.900556 0.172624
O O13 0.639546 0.808196 0.251520
O O14 0.603345 0.849210 0.000000
O O15 0.665726 0.000000 0.250000
O O16 0.703609 0.961329 0.000000
O O17 0.182305 0.716542 0.500000
#
# Coordination Sequence:
#
# PCOD9525174 Si02
#       6
#    16  16  16  16  16  16
#     4  11  22  37  54  70  90 115 146 183 230 280
#     4  10  18  28  41  57  79 105 137 175 215 257
#     4   9  18  31  43  58  83 112 142 179 221 265
#     4  11  21  32  46  65  86 110 142 179 221 268
#     4  10  19  27  38  55  77 103 132 170 213 254
#     4  10  19  30  45  62  82 110 144 181 220 264
#
# _framework density 14.42009
#
# number of rings (size 3 to 8) (size 9 to 14) (size 15 to 20)
#    0.000    1.833    1.667    5.500    0.000    5.333 
#    0.000    0.000    0.000    0.000    0.000    0.000 
#    0.000    0.000    0.000    0.000    0.000    0.833 
#
# Total GULP energy -267393.165458 kJ/mol
# GULP energy per Si atom -5570.690947 kJ/mol
# Density = 1.438727 g / cm^3
# Si number density = 14.420090 Si / 1000 Ang^3
#
#
#
# Elastic Constant Matrix: (Units=GPa)
#
#
# Indices 1 2 3 4 5 6 
#
# 1 50.4779 33.4244 25.3730 0.0000 0.0000 0.0000
# 2 33.4244 124.4038 44.0113 0.0000 0.0000 0.0000
# 3 25.3730 44.0113 67.8589 0.0000 0.0000 0.0000
# 4 0.0000 0.0000 0.0000 21.1537 0.0000 0.0000
# 5 0.0000 0.0000 0.0000 0.0000 16.1507 0.0000
# 6 0.0000 0.0000 0.0000 0.0000 0.0000 24.0735
#
#
#
# Elastic Compliance Matrix: (Units=1/GPa)
#
#
# Indices 1 2 3 4 5 6 
#
# 1 0.026325 -0.004660 -0.006821 0.000000 0.000000 0.000000
# 2 -0.004660 0.011257 -0.005558 0.000000 0.000000 0.000000
# 3 -0.006821 -0.005558 0.020892 0.000000 0.000000 0.000000
# 4 0.000000 0.000000 0.000000 0.047273 0.000000 0.000000
# 5 0.000000 0.000000 0.000000 0.000000 0.061917 0.000000
# 6 0.000000 0.000000 0.000000 0.000000 0.000000 0.041540
#
#
# Mechanical properties :
#
#
# Convention : Reuss Voigt Hill
#
# Bulk Modulus (GPa) = 40.99167 49.81755 45.40461
# Shear Modulus (GPa) = 19.88761 21.60436 20.74599
#
# Velocity S-wave (km/s) = 3.71773 3.87487 3.79712
# Velocity P-wave (km/s) = 6.84961 7.39201 7.12598
#
# Compressibility (1/GPa) = 0.02439520
#
# Stress axis : x y z
#
# Youngs Moduli (GPa) = 37.98712 88.83533 47.86545
#
# Poissons Ratio (x) = 0.41395 0.32648
# Poissons Ratio (y) = 0.17701 0.26606
# Poissons Ratio (z) = 0.25910 0.49379
#
# Static dielectric constant tensor:
#      x y z
#    x 1.453240 0.000000 0.000000 
#    y 0.000000 1.537360 0.000000 
#    z 0.000000 0.000000 1.502480 
# 
# From -- ./inp_files/8290.got.cif
#   From: 2010.05.17/outbox.cif.g08.bks.cpg/sg72_5_cif.got.tgz:8290.got - 2010.06.03 17:03:01.
