data_PCOD9525026
_publ_section_title
;
Structure prediction by ZEFSAII (Michael W. Deem and Ramdas Pophale) SiO2 
 PCOD9525026
Probable space group: I B A M
;
_chemical_formula_sum "Si O2"
_cell_formula_units_Z 80
_cell_length_a 23.461437
_cell_length_b 13.549616
_cell_length_c 10.184596
_cell_angle_alpha 90.000000
_cell_angle_beta 90.000000
_cell_angle_gamma 90.000000
_cell_volume 3237.616483
_symmetry_space_group_name_H-M "I B A M"
_symmetry_group_IT_number 72
_symmetry_cell_setting 'orthorhombic'
loop_
_space_group_symop_operation_xyz
x,y,z
-x,-y,z
x,-y,1/2-z
-x,y,1/2-z
-x,-y,-z
x,y,-z
-x,y,1/2+z
x,-y,1/2+z
1/2+x,1/2+y,1/2+z
1/2-x,1/2-y,1/2+z
1/2+x,1/2-y,-z
1/2-x,1/2+y,-z
1/2-x,1/2-y,1/2-z
1/2+x,1/2+y,1/2-z
1/2-x,1/2+y,z
1/2+x,1/2-y,z
loop_
_atom_site_type_symbol
_atom_site_label
_atom_site_fract_x
_atom_site_fract_y
_atom_site_fract_z
Si Si1 0.163739 0.140844 0.719574
Si Si2 0.362316 0.957914 0.000000
Si Si3 0.581104 0.822174 0.714699
Si Si4 0.082850 0.885695 0.000000
Si Si5 0.328522 0.627404 0.000000
Si Si6 0.416819 0.848307 0.500000
Si Si7 0.459868 0.319821 0.500000
Si Si8 0.256578 0.829070 0.000000
O O1 0.133577 0.245617 0.758255
O O2 0.115251 0.084781 0.632802
O O3 0.184672 0.089435 0.853976
O O4 0.215921 0.165159 0.625431
O O5 0.395078 0.909285 0.123737
O O6 0.298441 0.921346 0.000000
O O7 0.365257 0.075213 0.000000
O O8 0.558075 0.863294 0.853383
O O9 0.540966 0.751347 0.626727
O O10 0.093893 0.767488 0.000000
O O11 0.014642 0.889834 0.000000
O O12 0.398010 0.630091 0.000000
O O13 0.296578 0.733141 0.000000
#
# Coordination Sequence:
#
# PCOD9525026 Si02
#       8
#    16   8  16   8   8   8   8   8
#     4   9  18  30  46  69  87 118 147 197 240 285
#     4  11  19  31  45  61  86 121 148 200 239 291
#     4   9  18  33  46  64  89 114 156 198 238 285
#     4   9  19  33  49  68  94 122 164 200 236 294
#     4  10  17  27  46  68  94 112 147 199 239 289
#     4  10  20  30  45  64  85 117 156 202 238 275
#     4   9  17  33  52  67  88 127 160 204 252 270
#     4  11  18  30  47  64  91 111 154 195 240 298
#
# _framework density 24.709534999999999
#
# number of rings (size 3 to 8) (size 9 to 14) (size 15 to 20)
#    0.000    2.400    4.000    1.800    0.000    7.200 
#    0.000    2.000    0.000    9.600    0.000    0.000 
#    0.000    0.000    0.000    0.000    0.000   64.000 
#
# Total GULP energy -223206.698888 kJ/mol
# GULP energy per Si atom -5580.167472 kJ/mol
# Density = 2.465330 g / cm^3
# Si number density = 24.709535 Si / 1000 Ang^3
#
#
#
# Elastic Constant Matrix: (Units=GPa)
#
#
# Indices 1 2 3 4 5 6 
#
# 1 114.5453 39.8767 46.6063 0.0000 0.0000 0.0000
# 2 39.8767 87.2290 7.5181 0.0000 0.0000 0.0000
# 3 46.6063 7.5181 246.3978 0.0000 0.0000 0.0000
# 4 0.0000 0.0000 0.0000 2.5869 0.0000 0.0000
# 5 0.0000 0.0000 0.0000 0.0000 5.3705 0.0000
# 6 0.0000 0.0000 0.0000 0.0000 0.0000 16.6686
#
#
#
# Elastic Compliance Matrix: (Units=1/GPa)
#
#
# Indices 1 2 3 4 5 6 
#
# 1 0.011270 -0.004981 -0.001980 0.000000 0.000000 0.000000
# 2 -0.004981 0.013696 0.000524 0.000000 0.000000 0.000000
# 3 -0.001980 0.000524 0.004417 0.000000 0.000000 0.000000
# 4 0.000000 0.000000 0.000000 0.386565 0.000000 0.000000
# 5 0.000000 0.000000 0.000000 0.000000 0.186202 0.000000
# 6 0.000000 0.000000 0.000000 0.000000 0.000000 0.059993
#
#
# Mechanical properties :
#
#
# Convention : Reuss Voigt Hill
#
# Bulk Modulus (GPa) = 60.57150 70.68602 65.62876
# Shear Modulus (GPa) = 7.34733 28.53659 17.94196
#
# Velocity S-wave (km/s) = 1.72625 3.40204 2.69758
# Velocity P-wave (km/s) = 5.34227 6.64084 6.02663
#
# Compressibility (1/GPa) = 0.01650941
#
# Stress axis : x y z
#
# Youngs Moduli (GPa) = 88.73235 73.01337 226.40099
#
# Poissons Ratio (x) = 0.36371 0.44821
# Poissons Ratio (y) = 0.44201 -0.11871
# Poissons Ratio (z) = 0.17566 -0.03828
#
# Static dielectric constant tensor:
#      x y z
#    x 1.962190 0.000000 0.000000 
#    y 0.000000 1.979010 0.000000 
#    z 0.000000 0.000000 2.052770 
# 
# From -- ./inp_files/15510.got.cif
#   From: 2010.05.17/outbox.cif.g08.bks.cpg/sg72_8_cif.got.tgz:15510.got - 2010.06.03 17:03:01.
