data_PCOD9525003
_publ_section_title
;
Structure prediction by ZEFSAII (Michael W. Deem and Ramdas Pophale) SiO2 
 PCOD9525003
Probable space group: I B A M
;
_chemical_formula_sum "Si O2"
_cell_formula_units_Z 64
_cell_length_a 35.701902
_cell_length_b 13.946467
_cell_length_c 8.673619
_cell_angle_alpha 90.000000
_cell_angle_beta 90.000000
_cell_angle_gamma 90.000000
_cell_volume 4318.728457
_symmetry_space_group_name_H-M "I B A M"
_symmetry_group_IT_number 72
_symmetry_cell_setting 'orthorhombic'
loop_
_space_group_symop_operation_xyz
x,y,z
-x,-y,z
x,-y,1/2-z
-x,y,1/2-z
-x,-y,-z
x,y,-z
-x,y,1/2+z
x,-y,1/2+z
1/2+x,1/2+y,1/2+z
1/2-x,1/2-y,1/2+z
1/2+x,1/2-y,-z
1/2-x,1/2+y,-z
1/2-x,1/2-y,1/2-z
1/2+x,1/2+y,1/2-z
1/2-x,1/2+y,z
1/2+x,1/2-y,z
loop_
_atom_site_type_symbol
_atom_site_label
_atom_site_fract_x
_atom_site_fract_y
_atom_site_fract_z
Si Si1 0.767405 0.397338 0.184092
Si Si2 0.616215 0.392011 0.314529
Si Si3 0.538426 0.608928 0.315670
Si Si4 0.194700 0.200647 0.685714
O O1 0.778486 0.500000 0.250000
O O2 0.794145 0.308849 0.231880
O O3 0.726017 0.368610 0.242546
O O4 0.767025 0.401931 0.000000
O O5 0.621021 0.500000 0.250000
O O6 0.612884 0.396738 0.500000
O O7 0.577745 0.350140 0.244701
O O8 0.653011 0.331701 0.272400
O O9 0.538999 0.500000 0.250000
O O10 0.500000 0.653213 0.250000
O O11 0.537369 0.606362 0.500000
O O12 0.197914 0.194296 0.500000
#
# Coordination Sequence:
#
# PCOD9525003 Si02
#       4
#    16  16  16  16
#     4  10  19  31  46  63  84 111 142 176 214 252
#     4  10  18  28  41  59  83 110 140 173 207 243
#     4  10  17  26  39  56  79 108 139 168 201 241
#     4   9  19  32  45  62  84 111 143 177 211 249
#
# _framework density 14.819177
#
# number of rings (size 3 to 8) (size 9 to 14) (size 15 to 20)
#    0.000    2.250    0.000    6.750    0.000    5.000 
#    0.000    0.000    0.000    0.000    0.000    0.000 
#    0.000    1.000    0.000   11.500    0.000    3.500 
#
# Total GULP energy -178376.486796 kJ/mol
# GULP energy per Si atom -5574.265212 kJ/mol
# Density = 1.478545 g / cm^3
# Si number density = 14.819177 Si / 1000 Ang^3
#
#
#
# Elastic Constant Matrix: (Units=GPa)
#
#
# Indices 1 2 3 4 5 6 
#
# 1 150.1473 41.3181 49.9288 0.0000 0.0000 0.0000
# 2 41.3181 60.1169 21.3202 -0.0001 0.0000 0.0000
# 3 49.9288 21.3202 65.8114 -0.0003 0.0000 0.0000
# 4 0.0000 -0.0001 -0.0003 18.0406 0.0000 0.0000
# 5 0.0000 0.0000 0.0000 0.0000 56.2787 0.0000
# 6 0.0000 0.0000 0.0000 0.0000 0.0000 16.3140
#
#
#
# Elastic Compliance Matrix: (Units=1/GPa)
#
#
# Indices 1 2 3 4 5 6 
#
# 1 0.009961 -0.004707 -0.006032 0.000000 0.000000 0.000000
# 2 -0.004707 0.021018 -0.003238 0.000000 0.000000 0.000000
# 3 -0.006032 -0.003238 0.020820 0.000000 0.000000 0.000000
# 4 0.000000 0.000000 0.000000 0.055431 0.000000 0.000000
# 5 0.000000 0.000000 0.000000 0.000000 0.017769 0.000000
# 6 0.000000 0.000000 0.000000 0.000000 0.000000 0.061297
#
#
# Mechanical properties :
#
#
# Convention : Reuss Voigt Hill
#
# Bulk Modulus (GPa) = 41.93766 55.68997 48.81381
# Shear Modulus (GPa) = 22.50235 29.02721 25.76478
#
# Velocity S-wave (km/s) = 3.90097 4.43059 4.17419
# Velocity P-wave (km/s) = 6.97504 7.98966 7.49953
#
# Compressibility (1/GPa) = 0.02384492
#
# Stress axis : x y z
#
# Youngs Moduli (GPa) = 100.38719 47.57904 48.02964
#
# Poissons Ratio (x) = 0.22396 0.28974
# Poissons Ratio (y) = 0.47253 0.15551
# Poissons Ratio (z) = 0.60559 0.15405
#
# Static dielectric constant tensor:
#      x y z
#    x 1.527800 0.000000 0.000000 
#    y 0.000000 1.474680 0.000000 
#    z 0.000000 0.000000 1.496430 
# 
# From -- ./inp_files/8942.got.cif
#   From: 2010.05.17/outbox.cif.g08.bks.cpg/sg72_5_cif.got.tgz:8942.got - 2010.06.03 17:03:01.
