data_PCOD9525347
_publ_section_title
;
Structure prediction by ZEFSAII (Michael W. Deem and Ramdas Pophale) SiO2 
 PCOD9525347
Probable space group: I B A M
;
_chemical_formula_sum "Si O2"
_cell_formula_units_Z 80
_cell_length_a 9.613968
_cell_length_b 15.581262
_cell_length_c 24.489697
_cell_angle_alpha 90.000000
_cell_angle_beta 90.000000
_cell_angle_gamma 90.000000
_cell_volume 3668.501613
_symmetry_space_group_name_H-M "I B A M"
_symmetry_group_IT_number 72
_symmetry_cell_setting 'orthorhombic'
loop_
_space_group_symop_operation_xyz
x,y,z
-x,-y,z
x,-y,1/2-z
-x,y,1/2-z
-x,-y,-z
x,y,-z
-x,y,1/2+z
x,-y,1/2+z
1/2+x,1/2+y,1/2+z
1/2-x,1/2-y,1/2+z
1/2+x,1/2-y,-z
1/2-x,1/2+y,-z
1/2-x,1/2-y,1/2-z
1/2+x,1/2+y,1/2-z
1/2-x,1/2+y,z
1/2+x,1/2-y,z
loop_
_atom_site_type_symbol
_atom_site_label
_atom_site_fract_x
_atom_site_fract_y
_atom_site_fract_z
Si Si1 0.576738 0.242102 0.879594
Si Si2 0.121248 0.138670 0.500000
Si Si3 0.340172 0.806892 0.313362
Si Si4 0.599071 0.581449 0.116428
Si Si5 0.347247 0.379245 0.768432
Si Si6 0.871417 0.747964 0.000000
O O1 0.487018 0.177814 0.842612
O O2 0.725974 0.271208 0.856773
O O3 0.490221 0.331010 0.878564
O O4 0.584180 0.210667 0.941606
O O5 0.159884 0.089006 0.555438
O O6 0.205533 0.229419 0.500000
O O7 0.955187 0.160931 0.500000
O O8 0.365308 0.723417 0.275980
O O9 0.269363 0.882226 0.278343
O O10 0.500000 0.500000 0.118195
O O11 0.688124 0.582344 0.172198
O O12 0.500000 0.409931 0.750000
#
# Coordination Sequence:
#
# PCOD9525347 Si02
#       6
#    16   8  16  16  16   8
#     4  10  19  32  52  80 112 138 180 230 286 330
#     4  10  21  36  56  84 113 138 182 236 296 332
#     4  10  18  31  47  76 113 133 174 229 287 334
#     4  10  20  34  51  77 110 148 183 225 275 331
#     4  10  18  31  49  76 107 135 175 223 276 331
#     4  10  18  32  54  84 114 140 184 236 290 348
#
# _framework density 21.807268000000001
#
# number of rings (size 3 to 8) (size 9 to 14) (size 15 to 20)
#    0.000    2.000    4.000    3.900    0.000    0.400 
#    0.000    0.000    0.000    0.000    0.000   47.600 
#   36.000    0.000    0.000    0.000    0.000    0.000 
#
# Total GULP energy -222674.543784 kJ/mol
# GULP energy per Si atom -5566.863595 kJ/mol
# Density = 2.175763 g / cm^3
# Si number density = 21.807268 Si / 1000 Ang^3
#
#
#
# Elastic Constant Matrix: (Units=GPa)
#
#
# Indices 1 2 3 4 5 6 
#
# 1 74.5831 21.1684 47.9546 0.0000 0.0000 0.0000
# 2 21.1684 48.3152 29.4247 0.0000 0.0000 0.0000
# 3 47.9546 29.4247 162.6636 0.0000 0.0000 0.0000
# 4 0.0000 0.0000 0.0000 10.6060 0.0000 0.0000
# 5 0.0000 0.0000 0.0000 0.0000 17.8375 0.0000
# 6 0.0000 0.0000 0.0000 0.0000 0.0000 5.6357
#
#
#
# Elastic Compliance Matrix: (Units=1/GPa)
#
#
# Indices 1 2 3 4 5 6 
#
# 1 0.017601 -0.005115 -0.004264 0.000000 0.000000 0.000000
# 2 -0.005115 0.024746 -0.002969 0.000000 0.000000 0.000000
# 3 -0.004264 -0.002969 0.007942 0.000000 0.000000 0.000000
# 4 0.000000 0.000000 0.000000 0.094286 0.000000 0.000000
# 5 0.000000 0.000000 0.000000 0.000000 0.056062 0.000000
# 6 0.000000 0.000000 0.000000 0.000000 0.000000 0.177441
#
#
# Mechanical properties :
#
#
# Convention : Reuss Voigt Hill
#
# Bulk Modulus (GPa) = 39.07056 53.62858 46.34957
# Shear Modulus (GPa) = 12.15649 19.28346 15.71997
#
# Velocity S-wave (km/s) = 2.36360 2.97689 2.68780
# Velocity P-wave (km/s) = 5.04024 6.03832 5.56171
#
# Compressibility (1/GPa) = 0.02559472
#
# Stress axis : x y z
#
# Youngs Moduli (GPa) = 56.81494 40.41012 125.91903
#
# Poissons Ratio (x) = 0.20669 0.53688
# Poissons Ratio (y) = 0.29060 0.37379
# Poissons Ratio (z) = 0.24224 0.11996
#
# Static dielectric constant tensor:
#      x y z
#    x 1.892390 0.000000 0.000000 
#    y 0.000000 1.749280 0.000000 
#    z 0.000000 0.000000 1.945240 
# 
# From -- ./inp_files/47220.got.cif
#   From: 2010.05.17/outbox.cif.g08.bks.cpg/sg72_24_cif.got.tgz:47220.got - 2010.06.03 17:03:01.
