data_PCOD9525007
_publ_section_title
;
Structure prediction by ZEFSAII (Michael W. Deem and Ramdas Pophale) SiO2 
 PCOD9525007
Probable space group: I B A M
;
_chemical_formula_sum "Si O2"
_cell_formula_units_Z 112
_cell_length_a 29.455432
_cell_length_b 28.440807
_cell_length_c 7.603537
_cell_angle_alpha 90.000000
_cell_angle_beta 90.000000
_cell_angle_gamma 90.000000
_cell_volume 6369.758623
_symmetry_space_group_name_H-M "I B A M"
_symmetry_group_IT_number 72
_symmetry_cell_setting 'orthorhombic'
loop_
_space_group_symop_operation_xyz
x,y,z
-x,-y,z
x,-y,1/2-z
-x,y,1/2-z
-x,-y,-z
x,y,-z
-x,y,1/2+z
x,-y,1/2+z
1/2+x,1/2+y,1/2+z
1/2-x,1/2-y,1/2+z
1/2+x,1/2-y,-z
1/2-x,1/2+y,-z
1/2-x,1/2-y,1/2-z
1/2+x,1/2+y,1/2-z
1/2-x,1/2+y,z
1/2+x,1/2-y,z
loop_
_atom_site_type_symbol
_atom_site_label
_atom_site_fract_x
_atom_site_fract_y
_atom_site_fract_z
Si Si1 0.858164 0.784982 0.710773
Si Si2 0.264476 0.946849 0.289093
Si Si3 0.713657 0.644960 0.289081
Si Si4 0.854359 0.398836 0.787418
Si Si5 0.550744 0.869424 0.788820
Si Si6 0.801465 0.697229 0.712768
Si Si7 0.050669 0.738700 0.789143
O O1 0.859335 0.780485 0.500000
O O2 0.835767 0.835151 0.747821
O O3 0.823774 0.744805 0.780631
O O4 0.908289 0.771303 0.775773
O O5 0.266175 0.942290 0.500000
O O6 0.229889 0.906322 0.225576
O O7 0.315357 0.934228 0.222161
O O8 0.251637 0.000000 0.250000
O O9 0.717333 0.644269 0.500000
O O10 0.751928 0.681836 0.221861
O O11 0.906187 0.399316 0.723190
O O12 0.834595 0.346740 0.751215
O O13 0.855696 0.404032 0.000000
O O14 0.500000 0.886702 0.750000
O O15 0.554421 0.815293 0.722592
O O16 0.554688 0.867258 0.000000
O O17 0.798750 0.700928 0.500000
O O18 0.000000 0.755831 0.750000
O O19 0.054709 0.735835 0.000000
#
# Coordination Sequence:
#
# PCOD9525007 Si02
#       7
#    16  16  16  16  16  16  16
#     4  10  17  26  42  62  86 116 146 174 203 241
#     4   9  18  32  49  65  82 107 140 177 218 262
#     4   9  18  29  42  62  86 112 140 170 211 257
#     4   8  13  25  44  61  79 110 145 173 211 261
#     4   9  15  25  41  59  81 109 143 180 214 249
#     4   8  13  24  40  58  83 114 144 170 200 246
#     4   9  17  27  40  59  84 117 151 179 207 240
#
# _framework density 17.583083999999999
#
# number of rings (size 3 to 8) (size 9 to 14) (size 15 to 20)
#    0.000    3.143    1.429    2.143    0.000    1.143 
#    0.000    0.714    0.000    2.143    0.000    3.000 
#    0.000    0.571    0.000    6.286    0.000    4.571 
#
# Total GULP energy -311921.663531 kJ/mol
# GULP energy per Si atom -5570.029706 kJ/mol
# Density = 1.754306 g / cm^3
# Si number density = 17.583084 Si / 1000 Ang^3
#
#
#
# Elastic Constant Matrix: (Units=GPa)
#
#
# Indices 1 2 3 4 5 6 
#
# 1 63.9270 45.1917 2.6711 0.0000 0.0000 0.0000
# 2 45.1917 78.0096 2.3897 0.0000 0.0000 0.0000
# 3 2.6711 2.3897 36.2989 0.0000 0.0000 0.0000
# 4 0.0000 0.0000 0.0000 2.6461 0.0000 0.0000
# 5 0.0000 0.0000 0.0000 0.0000 13.3566 0.0000
# 6 0.0000 0.0000 0.0000 0.0000 0.0000 12.0341
#
#
#
# Elastic Compliance Matrix: (Units=1/GPa)
#
#
# Indices 1 2 3 4 5 6 
#
# 1 0.026524 -0.015337 -0.000942 0.000000 0.000000 0.000000
# 2 -0.015337 0.021713 -0.000301 0.000000 0.000000 0.000000
# 3 -0.000942 -0.000301 0.027638 0.000000 0.000000 0.000000
# 4 0.000000 0.000000 0.000000 0.377921 0.000000 0.000000
# 5 0.000000 0.000000 0.000000 0.000000 0.074869 0.000000
# 6 0.000000 0.000000 0.000000 0.000000 0.000000 0.083097
#
#
# Mechanical properties :
#
#
# Convention : Reuss Voigt Hill
#
# Bulk Modulus (GPa) = 23.41062 30.97115 27.19088
# Shear Modulus (GPa) = 7.58539 14.13955 10.86247
#
# Velocity S-wave (km/s) = 2.07928 2.83884 2.48821
# Velocity P-wave (km/s) = 4.37124 5.32896 4.87368
#
# Compressibility (1/GPa) = 0.04271566
#
# Stress axis : x y z
#
# Youngs Moduli (GPa) = 37.70134 46.05546 36.18182
#
# Poissons Ratio (x) = 0.70635 0.03409
# Poissons Ratio (y) = 0.57822 0.01089
# Poissons Ratio (z) = 0.03552 0.01386
#
# Static dielectric constant tensor:
#      x y z
#    x 1.639180 0.000000 0.000000 
#    y 0.000000 1.590410 0.000000 
#    z 0.000000 0.000000 1.668740 
# 
# From -- ./inp_files/15621.got.cif
#   From: 2010.05.17/outbox.cif.g08.bks.cpg/sg72_8_cif.got.tgz:15621.got - 2010.06.03 17:03:01.
