data_PCOD9525343
_publ_section_title
;
Structure prediction by ZEFSAII (Michael W. Deem and Ramdas Pophale) SiO2 
 PCOD9525343
Probable space group: I B A M
;
_chemical_formula_sum "Si O2"
_cell_formula_units_Z 88
_cell_length_a 16.262895
_cell_length_b 10.360472
_cell_length_c 20.277544
_cell_angle_alpha 90.000000
_cell_angle_beta 90.000000
_cell_angle_gamma 90.000000
_cell_volume 3416.589106
_symmetry_space_group_name_H-M "I B A M"
_symmetry_group_IT_number 72
_symmetry_cell_setting 'orthorhombic'
loop_
_space_group_symop_operation_xyz
x,y,z
-x,-y,z
x,-y,1/2-z
-x,y,1/2-z
-x,-y,-z
x,y,-z
-x,y,1/2+z
x,-y,1/2+z
1/2+x,1/2+y,1/2+z
1/2-x,1/2-y,1/2+z
1/2+x,1/2-y,-z
1/2-x,1/2+y,-z
1/2-x,1/2-y,1/2-z
1/2+x,1/2+y,1/2-z
1/2-x,1/2+y,z
1/2+x,1/2-y,z
loop_
_atom_site_type_symbol
_atom_site_label
_atom_site_fract_x
_atom_site_fract_y
_atom_site_fract_z
Si Si1 0.618041 0.217947 0.500000
Si Si2 0.021641 0.864271 0.639618
Si Si3 0.165597 0.791546 0.860055
Si Si4 0.432142 0.318159 0.500000
Si Si5 0.444076 0.103879 0.315115
Si Si6 0.672022 0.946567 0.500000
Si Si7 0.274915 0.016404 0.851694
O O1 0.669128 0.270364 0.438609
O O2 0.525856 0.268594 0.500000
O O3 0.607163 0.064393 0.500000
O O4 0.933429 0.789844 0.645516
O O5 0.066040 0.895698 0.568815
O O6 0.077018 0.749536 0.665323
O O7 0.000000 0.000000 0.671037
O O8 0.198657 0.926525 0.832486
O O9 0.218242 0.668243 0.836345
O O10 0.369919 0.195788 0.500000
O O11 0.500000 0.118448 0.250000
O O12 0.356218 0.038144 0.317290
O O13 0.500000 0.000000 0.356592
O O14 0.716418 0.982115 0.569461
#
# Coordination Sequence:
#
# PCOD9525343 Si02
#       7
#     8  16  16   8  16   8  16
#     4   8  18  32  50  89 135 167 211 258 308 386
#     4  11  23  40  64  97 133 171 218 275 326 393
#     4  10  22  37  59  93 135 171 214 261 326 395
#     4  10  18  32  58  95 129 169 212 263 318 387
#     4  11  24  45  70  89 120 170 225 280 330 385
#     4  10  18  30  60  94 127 174 218 252 317 399
#     4  11  22  39  63  98 132 176 211 268 330 396
#
# _framework density 25.756684
#
# number of rings (size 3 to 8) (size 9 to 14) (size 15 to 20)
#    0.000    1.636    3.636    1.091    2.545    0.364 
#    0.000    0.909    0.000    0.000    0.000    0.000 
#    0.000    0.000    0.000    0.000    0.000    0.000 
#
# Total GULP energy -245045.508781 kJ/mol
# GULP energy per Si atom -5569.216109 kJ/mol
# Density = 2.569806 g / cm^3
# Si number density = 25.756684 Si / 1000 Ang^3
#
#
#
# Elastic Constant Matrix: (Units=GPa)
#
#
# Indices 1 2 3 4 5 6 
#
# 1 57.8634 -3.3429 -6.2888 0.0000 0.0000 0.0000
# 2 -3.3429 144.0772 1.1911 0.0000 0.0000 0.0000
# 3 -6.2888 1.1911 51.3073 0.0000 0.0000 0.0000
# 4 0.0000 0.0000 0.0000 30.2627 0.0000 0.0000
# 5 0.0000 0.0000 0.0000 0.0000 -2.1147 0.0000
# 6 0.0000 0.0000 0.0000 0.0000 0.0000 37.9296
#
#
#
# Elastic Compliance Matrix: (Units=1/GPa)
#
#
# Indices 1 2 3 4 5 6 
#
# 1 0.017537 0.000389 0.002141 0.000000 0.000000 0.000000
# 2 0.000389 0.006951 -0.000114 0.000000 0.000000 0.000000
# 3 0.002141 -0.000114 0.019755 0.000000 0.000000 0.000000
# 4 0.000000 0.000000 0.000000 0.033044 0.000000 0.000000
# 5 0.000000 0.000000 0.000000 0.000000 -0.472870 0.000000
# 6 0.000000 0.000000 0.000000 0.000000 0.000000 0.026365
#
#
# Mechanical properties :
#
#
# Convention : Reuss Voigt Hill
#
# Bulk Modulus (GPa) = 20.37679 26.26296 23.31988
# Shear Modulus (GPa) = -13.97850 30.66141 8.34146
#
# Velocity S-wave (km/s) = -2.33215 3.45400 1.80155
# Velocity P-wave (km/s) = 0.82253 5.11131 3.66074
#
# Compressibility (1/GPa) = 0.04907544
#
# Stress axis : x y z
#
# Youngs Moduli (GPa) = 57.02166 143.87051 50.61908
#
# Poissons Ratio (x) = -0.05600 -0.10835
# Poissons Ratio (y) = -0.02219 0.00575
# Poissons Ratio (z) = -0.12206 0.01635
#
# Static dielectric constant tensor:
#      x y z
#    x 2.048710 0.000000 0.000000 
#    y 0.000000 2.174480 0.000000 
#    z 0.000000 0.000000 2.332460 
# 
# From -- ./inp_files/45318.got.cif
#   From: 2010.05.17/outbox.cif.g08.bks.cpg/sg72_23_cif.got.tgz:45318.got - 2010.06.03 17:03:01.
