data_PCOD9525906
_publ_section_title
;
Structure prediction by ZEFSAII (Michael W. Deem and Ramdas Pophale) SiO2 
 PCOD9525906
Probable space group: I B A M
;
_chemical_formula_sum "Si O2"
_cell_formula_units_Z 116
_cell_length_a 25.839936
_cell_length_b 28.762739
_cell_length_c 8.817891
_cell_angle_alpha 90.000000
_cell_angle_beta 90.000000
_cell_angle_gamma 90.000000
_cell_volume 6553.697628
_symmetry_space_group_name_H-M "I B A M"
_symmetry_group_IT_number 72
_symmetry_cell_setting 'orthorhombic'
loop_
_space_group_symop_operation_xyz
x,y,z
-x,-y,z
x,-y,1/2-z
-x,y,1/2-z
-x,-y,-z
x,y,-z
-x,y,1/2+z
x,-y,1/2+z
1/2+x,1/2+y,1/2+z
1/2-x,1/2-y,1/2+z
1/2+x,1/2-y,-z
1/2-x,1/2+y,-z
1/2-x,1/2-y,1/2-z
1/2+x,1/2+y,1/2-z
1/2-x,1/2+y,z
1/2+x,1/2-y,z
loop_
_atom_site_type_symbol
_atom_site_label
_atom_site_fract_x
_atom_site_fract_y
_atom_site_fract_z
Si Si1 0.645281 0.613295 0.819508
Si Si2 0.793756 0.694509 0.178191
Si Si3 0.000000 0.500000 0.000000
Si Si4 0.764687 0.949625 0.818518
Si Si5 0.557107 0.450019 0.817627
Si Si6 0.182154 0.796236 0.678162
Si Si7 0.548431 0.085087 0.836222
Si Si8 0.337252 0.092230 0.318847
O O1 0.696515 0.587912 0.754427
O O2 0.596953 0.588433 0.740152
O O3 0.649517 0.667239 0.774348
O O4 0.643228 0.607489 0.000000
O O5 0.825694 0.741496 0.210015
O O6 0.742319 0.695068 0.279305
O O7 0.823908 0.646625 0.198609
O O8 0.777786 0.697076 0.000000
O O9 0.970492 0.533473 0.876508
O O10 0.706580 0.936350 0.768252
O O11 0.777588 0.000000 0.750000
O O12 0.769782 0.949707 0.000000
O O13 0.573996 0.500000 0.750000
O O14 0.500000 0.441421 0.750000
O O15 0.555424 0.452268 0.000000
O O16 0.174035 0.804938 0.500000
O O17 0.500000 0.107143 0.750000
O O18 0.604503 0.083664 0.760937
O O19 0.555877 0.109327 0.000000
O O20 0.334592 0.080594 0.500000
#
# Coordination Sequence:
#
# PCOD9525906 Si02
#       8
#    16  16   4  16  16  16  16  16
#     4  12  23  38  58  82 117 155 193 239 288 341
#     4   9  18  33  55  79 112 147 187 233 291 348
#     4   8  18  32  50  72  98 132 178 236 262 326
#     4  12  25  39  53  78 113 153 190 229 284 351
#     4  11  22  39  61  88 118 155 199 240 280 333
#     4  10  19  32  54  84 111 147 191 236 284 349
#     4   9  19  33  52  73 101 136 184 229 281 327
#     4  10  20  37  55  80 110 146 182 236 289 350
#
# _framework density 17.699930999999999
#
# number of rings (size 3 to 8) (size 9 to 14) (size 15 to 20)
#    0.414    1.241    1.379    5.172    0.000    2.207 
#    2.483    0.000    0.000    0.828    0.000    1.931 
#    0.000    0.000    0.000    0.000    0.000    0.000 
#
# Total GULP energy -322872.504861 kJ/mol
# GULP energy per Si atom -5566.767325 kJ/mol
# Density = 1.765965 g / cm^3
# Si number density = 17.699931 Si / 1000 Ang^3
#
#
#
# Elastic Constant Matrix: (Units=GPa)
#
#
# Indices 1 2 3 4 5 6 
#
# 1 51.8988 9.0658 19.5583 0.0000 0.0000 0.0000
# 2 9.0658 67.1771 23.7794 0.0000 0.0000 0.0000
# 3 19.5583 23.7794 114.2566 0.0000 0.0000 0.0000
# 4 0.0000 0.0000 0.0000 20.2901 0.0000 0.0000
# 5 0.0000 0.0000 0.0000 0.0000 26.9406 0.0000
# 6 0.0000 0.0000 0.0000 0.0000 0.0000 18.4085
#
#
#
# Elastic Compliance Matrix: (Units=1/GPa)
#
#
# Indices 1 2 3 4 5 6 
#
# 1 0.020769 -0.001667 -0.003208 0.000000 0.000000 0.000000
# 2 -0.001667 0.016204 -0.003087 0.000000 0.000000 0.000000
# 3 -0.003208 -0.003087 0.009944 0.000000 0.000000 0.000000
# 4 0.000000 0.000000 0.000000 0.049285 0.000000 0.000000
# 5 0.000000 0.000000 0.000000 0.000000 0.037119 0.000000
# 6 0.000000 0.000000 0.000000 0.000000 0.000000 0.054323
#
#
# Mechanical properties :
#
#
# Convention : Reuss Voigt Hill
#
# Bulk Modulus (GPa) = 32.26688 37.57106 34.91897
# Shear Modulus (GPa) = 23.37563 25.18975 24.28269
#
# Velocity S-wave (km/s) = 3.63803 3.77657 3.70795
# Velocity P-wave (km/s) = 5.99304 6.34739 6.17276
#
# Compressibility (1/GPa) = 0.03099153
#
# Stress axis : x y z
#
# Youngs Moduli (GPa) = 48.14981 61.71411 100.56438
#
# Poissons Ratio (x) = 0.10289 0.32263
# Poissons Ratio (y) = 0.08027 0.31044
# Poissons Ratio (z) = 0.15447 0.19051
#
# Static dielectric constant tensor:
#      x y z
#    x 1.616300 0.000000 0.000000 
#    y 0.000000 1.613980 0.000000 
#    z 0.000000 0.000000 1.646260 
# 
# From -- ./inp_files/7525.got.cif
#   From: 2010.05.17/outbox.cif.g08.bks.cpg/sg72_4_cif.got.tgz:7525.got - 2010.06.03 17:03:01.
