data_PCOD9525258
_publ_section_title
;
Structure prediction by ZEFSAII (Michael W. Deem and Ramdas Pophale) SiO2 
 PCOD9525258
Probable space group: I B A M
;
_chemical_formula_sum "Si O2"
_cell_formula_units_Z 96
_cell_length_a 11.347532
_cell_length_b 24.526479
_cell_length_c 16.832649
_cell_angle_alpha 90.000000
_cell_angle_beta 90.000000
_cell_angle_gamma 90.000000
_cell_volume 4684.778796
_symmetry_space_group_name_H-M "I B A M"
_symmetry_group_IT_number 72
_symmetry_cell_setting 'orthorhombic'
loop_
_space_group_symop_operation_xyz
x,y,z
-x,-y,z
x,-y,1/2-z
-x,y,1/2-z
-x,-y,-z
x,y,-z
-x,y,1/2+z
x,-y,1/2+z
1/2+x,1/2+y,1/2+z
1/2-x,1/2-y,1/2+z
1/2+x,1/2-y,-z
1/2-x,1/2+y,-z
1/2-x,1/2-y,1/2-z
1/2+x,1/2+y,1/2-z
1/2-x,1/2+y,z
1/2+x,1/2-y,z
loop_
_atom_site_type_symbol
_atom_site_label
_atom_site_fract_x
_atom_site_fract_y
_atom_site_fract_z
Si Si1 0.720381 0.600897 0.591117
Si Si2 0.235306 0.220710 0.649882
Si Si3 0.617801 0.686236 0.301535
Si Si4 0.362083 0.004171 0.596768
Si Si5 0.567648 0.188470 0.408755
Si Si6 0.348752 0.875967 0.091047
O O1 0.677790 0.593490 0.500000
O O2 0.627771 0.631400 0.647667
O O3 0.777415 0.544896 0.623055
O O4 0.827642 0.644168 0.588061
O O5 0.348350 0.261164 0.644600
O O6 0.222073 0.192939 0.736129
O O7 0.123385 0.258600 0.631861
O O8 0.247370 0.168976 0.593289
O O9 0.500000 0.688565 0.250000
O O10 0.359883 0.999399 0.500000
O O11 0.320827 0.064333 0.622938
O O12 0.500000 0.000000 0.620062
O O13 0.537105 0.203527 0.500000
O O14 0.459261 0.155551 0.370262
O O15 0.385796 0.886332 0.000000
#
# Coordination Sequence:
#
# PCOD9525258 Si02
#       6
#    16  16  16  16  16  16
#     4   9  17  32  55  80 104 138 186 232 274 331
#     4  10  20  33  50  75 107 147 187 227 272 334
#     4  10  21  37  54  74 106 148 186 225 279 333
#     4   9  15  28  53  83 111 138 174 225 283 330
#     4   9  16  28  49  77 108 140 180 227 276 327
#     4  10  18  29  51  82 114 142 172 224 279 326
#
# _framework density 20.491896000000001
#
# number of rings (size 3 to 8) (size 9 to 14) (size 15 to 20)
#    0.000    2.500    1.667    1.500    0.000    0.667 
#    0.000    2.500    0.000    4.000    0.000    3.500 
#    0.000    0.000    0.000    0.000    0.000    0.000 
#
# Total GULP energy -267247.916150 kJ/mol
# GULP energy per Si atom -5567.664920 kJ/mol
# Density = 2.044526 g / cm^3
# Si number density = 20.491896 Si / 1000 Ang^3
#
#
#
# Elastic Constant Matrix: (Units=GPa)
#
#
# Indices 1 2 3 4 5 6 
#
# 1 47.4461 44.9848 14.3682 0.0000 0.0000 0.0000
# 2 44.9848 179.2031 38.8445 0.0000 0.0000 0.0000
# 3 14.3682 38.8445 36.5352 0.0000 0.0000 0.0000
# 4 0.0000 0.0000 0.0000 8.0857 0.0000 0.0000
# 5 0.0000 0.0000 0.0000 0.0000 16.9865 0.0000
# 6 0.0000 0.0000 0.0000 0.0000 0.0000 22.9235
#
#
#
# Elastic Compliance Matrix: (Units=1/GPa)
#
#
# Indices 1 2 3 4 5 6 
#
# 1 0.028252 -0.006086 -0.004640 0.000000 0.000000 0.000000
# 2 -0.006086 0.008563 -0.006710 0.000000 0.000000 0.000000
# 3 -0.004640 -0.006710 0.036330 0.000000 0.000000 0.000000
# 4 0.000000 0.000000 0.000000 0.123675 0.000000 0.000000
# 5 0.000000 0.000000 0.000000 0.000000 0.058870 0.000000
# 6 0.000000 0.000000 0.000000 0.000000 0.000000 0.043623
#
#
# Mechanical properties :
#
#
# Convention : Reuss Voigt Hill
#
# Bulk Modulus (GPa) = 26.12870 51.06437 38.59653
# Shear Modulus (GPa) = 14.41155 20.59826 17.50491
#
# Velocity S-wave (km/s) = 2.65482 3.17391 2.92590
# Velocity P-wave (km/s) = 4.70913 6.19718 5.50368
#
# Compressibility (1/GPa) = 0.03827209
#
# Stress axis : x y z
#
# Youngs Moduli (GPa) = 35.39545 116.78658 27.52557
#
# Poissons Ratio (x) = 0.71080 0.12771
# Poissons Ratio (y) = 0.21543 0.18470
# Poissons Ratio (z) = 0.16422 0.78367
#
# Static dielectric constant tensor:
#      x y z
#    x 1.773980 0.000000 0.000000 
#    y 0.000000 1.776700 0.000000 
#    z 0.000000 0.000000 1.828610 
# 
# From -- ./inp_files/29411.got.cif
#   From: 2010.05.17/outbox.cif.g08.bks.cpg/sg72_15_cif.got.tgz:29411.got - 2010.06.03 17:03:01.
