data_PCOD9525652
_publ_section_title
;
Structure prediction by ZEFSAII (Michael W. Deem and Ramdas Pophale) SiO2 
 PCOD9525652
Probable space group: I B A M
;
_chemical_formula_sum "Si O2"
_cell_formula_units_Z 128
_cell_length_a 31.557235
_cell_length_b 28.687291
_cell_length_c 7.679525
_cell_angle_alpha 90.000000
_cell_angle_beta 90.000000
_cell_angle_gamma 90.000000
_cell_volume 6952.209349
_symmetry_space_group_name_H-M "I B A M"
_symmetry_group_IT_number 72
_symmetry_cell_setting 'orthorhombic'
loop_
_space_group_symop_operation_xyz
x,y,z
-x,-y,z
x,-y,1/2-z
-x,y,1/2-z
-x,-y,-z
x,y,-z
-x,y,1/2+z
x,-y,1/2+z
1/2+x,1/2+y,1/2+z
1/2-x,1/2-y,1/2+z
1/2+x,1/2-y,-z
1/2-x,1/2+y,-z
1/2-x,1/2-y,1/2-z
1/2+x,1/2+y,1/2-z
1/2-x,1/2+y,z
1/2+x,1/2-y,z
loop_
_atom_site_type_symbol
_atom_site_label
_atom_site_fract_x
_atom_site_fract_y
_atom_site_fract_z
Si Si1 0.799821 0.180451 0.291846
Si Si2 0.295041 0.843923 0.210055
Si Si3 0.452745 0.634335 0.208802
Si Si4 0.359245 0.765900 0.786421
Si Si5 0.101109 0.049189 0.208820
Si Si6 0.452135 0.259636 0.290660
Si Si7 0.714797 0.052006 0.197283
Si Si8 0.691568 0.426104 0.788328
O O1 0.803583 0.181844 0.500000
O O2 0.749617 0.181774 0.251195
O O3 0.831095 0.221117 0.227408
O O4 0.812505 0.128272 0.236992
O O5 0.333707 0.811781 0.269104
O O6 0.296395 0.897277 0.280890
O O7 0.296160 0.846380 0.000000
O O8 0.500000 0.618576 0.250000
O O9 0.421459 0.595236 0.277659
O O10 0.448631 0.686975 0.276024
O O11 0.447057 0.637184 0.000000
O O12 0.408491 0.764606 0.730959
O O13 0.359148 0.764985 0.000000
O O14 0.149199 0.049301 0.273429
O O15 0.079919 0.000000 0.250000
O O16 0.102681 0.053404 0.000000
O O17 0.500000 0.242436 0.250000
O O18 0.450268 0.260517 0.500000
O O19 0.700665 0.000000 0.250000
O O20 0.765788 0.053115 0.210978
O O21 0.700638 0.056143 0.000000
O O22 0.695202 0.428329 0.000000
#
# Coordination Sequence:
#
# PCOD9525652 Si02
#       8
#    16  16  16  16  16  16  16  16
#     4   9  16  27  45  66  88 118 151 178 209 254
#     4   9  18  30  43  64  92 119 148 180 213 252
#     4   9  18  32  47  61  77  99 130 168 209 254
#     4   9  16  28  47  67  90 120 147 172 211 262
#     4  10  20  31  42  57  77 101 133 174 216 256
#     4   9  17  31  50  68  86 110 140 173 210 255
#     4  10  19  30  44  61  84 114 146 178 209 241
#     4   9  17  29  44  62  83 108 141 177 211 248
#
# _framework density 18.411413
#
# number of rings (size 3 to 8) (size 9 to 14) (size 15 to 20)
#    0.000    2.750    0.000    1.875    0.000    5.750 
#    0.000    2.500    0.000    6.000    0.000    0.000 
#    0.000    0.500    0.000    6.250    0.000    0.000 
#
# Total GULP energy -356552.382829 kJ/mol
# GULP energy per Si atom -5571.130982 kJ/mol
# Density = 1.836951 g / cm^3
# Si number density = 18.411413 Si / 1000 Ang^3
#
#
#
# Elastic Constant Matrix: (Units=GPa)
#
#
# Indices 1 2 3 4 5 6 
#
# 1 117.2734 66.7168 -4.8572 0.0000 0.0000 0.0000
# 2 66.7168 100.8880 3.1012 0.0000 0.0000 0.0000
# 3 -4.8572 3.1012 24.7982 0.0000 0.0000 0.0000
# 4 0.0000 0.0000 0.0000 3.0931 0.0000 0.0000
# 5 0.0000 0.0000 0.0000 0.0000 14.5950 0.0000
# 6 0.0000 0.0000 0.0000 0.0000 0.0000 8.8233
#
#
#
# Elastic Compliance Matrix: (Units=1/GPa)
#
#
# Indices 1 2 3 4 5 6 
#
# 1 0.014041 -0.009406 0.003926 0.000000 0.000000 0.000000
# 2 -0.009406 0.016251 -0.003875 0.000000 0.000000 0.000000
# 3 0.003926 -0.003875 0.041579 0.000000 0.000000 0.000000
# 4 0.000000 0.000000 0.000000 0.323298 0.000000 0.000000
# 5 0.000000 0.000000 0.000000 0.000000 0.068517 0.000000
# 6 0.000000 0.000000 0.000000 0.000000 0.000000 0.113336
#
#
# Mechanical properties :
#
#
# Convention : Reuss Voigt Hill
#
# Bulk Modulus (GPa) = 18.81009 41.43122 30.12065
# Shear Modulus (GPa) = 8.15062 17.16886 12.65974
#
# Velocity S-wave (km/s) = 2.10631 3.05702 2.62506
# Velocity P-wave (km/s) = 4.01922 5.91712 5.05799
#
# Compressibility (1/GPa) = 0.05316297
#
# Stress axis : x y z
#
# Youngs Moduli (GPa) = 71.22209 61.53463 24.05052
#
# Poissons Ratio (x) = 0.57877 -0.09443
# Poissons Ratio (y) = 0.66989 0.09319
# Poissons Ratio (z) = -0.27964 0.23842
#
# Static dielectric constant tensor:
#      x y z
#    x 1.630560 0.000000 0.000000 
#    y 0.000000 1.677500 0.000000 
#    z 0.000000 0.000000 1.703060 
# 
# From -- ./inp_files/16465.got.cif
#   From: 2010.05.17/outbox.cif.g08.bks.cpg/sg72_9_cif.got.tgz:16465.got - 2010.06.03 17:03:01.
