data_PCOD9525230
_publ_section_title
;
Structure prediction by ZEFSAII (Michael W. Deem and Ramdas Pophale) SiO2 
 PCOD9525230
Probable space group: I B A M
;
_chemical_formula_sum "Si O2"
_cell_formula_units_Z 104
_cell_length_a 19.121008
_cell_length_b 13.172075
_cell_length_c 25.033867
_cell_angle_alpha 90.000000
_cell_angle_beta 90.000000
_cell_angle_gamma 90.000000
_cell_volume 6305.113642
_symmetry_space_group_name_H-M "I B A M"
_symmetry_group_IT_number 72
_symmetry_cell_setting 'orthorhombic'
loop_
_space_group_symop_operation_xyz
x,y,z
-x,-y,z
x,-y,1/2-z
-x,y,1/2-z
-x,-y,-z
x,y,-z
-x,y,1/2+z
x,-y,1/2+z
1/2+x,1/2+y,1/2+z
1/2-x,1/2-y,1/2+z
1/2+x,1/2-y,-z
1/2-x,1/2+y,-z
1/2-x,1/2-y,1/2-z
1/2+x,1/2+y,1/2-z
1/2-x,1/2+y,z
1/2+x,1/2-y,z
loop_
_atom_site_type_symbol
_atom_site_label
_atom_site_fract_x
_atom_site_fract_y
_atom_site_fract_z
Si Si1 0.724666 0.872179 0.367106
Si Si2 0.530437 0.219419 0.438240
Si Si3 0.000000 0.500000 0.105311
Si Si4 0.761541 0.937579 0.937522
Si Si5 0.662418 0.206574 0.368781
Si Si6 0.621866 0.010313 0.690025
Si Si7 0.126095 0.228145 0.937325
O O1 0.785623 0.794967 0.350703
O O2 0.667126 0.807335 0.400025
O O3 0.755945 0.957260 0.406529
O O4 0.686653 0.934507 0.320250
O O5 0.549397 0.238372 0.500000
O O6 0.592729 0.246474 0.397918
O O7 0.456375 0.272684 0.426193
O O8 0.515724 0.099278 0.429351
O O9 0.065197 0.482797 0.144850
O O10 0.703833 0.861575 0.912659
O O11 0.835153 0.879505 0.930692
O O12 0.748283 0.952243 0.000000
O O13 0.643124 0.126193 0.322902
O O14 0.595393 0.000000 0.750000
O O15 0.134425 0.257870 0.000000
#
# Coordination Sequence:
#
# PCOD9525230 Si02
#       7
#    16  16   8  16  16  16  16
#     4  10  18  33  49  68  96 131 162 200 246 286
#     4  10  18  29  47  72 102 130 158 192 232 290
#     4  10  18  32  48  74 102 128 154 192 250 300
#     4   9  17  29  46  69  97 130 164 195 233 288
#     4   9  20  32  47  70  99 125 163 202 244 289
#     4  10  20  33  51  73  95 123 162 209 252 293
#     4   9  17  29  46  69  98 131 163 191 233 292
#
# _framework density 16.494548000000002
#
# number of rings (size 3 to 8) (size 9 to 14) (size 15 to 20)
#    0.000    2.462    1.538    1.385    0.000    2.462 
#    0.000    0.769    0.000    2.769    0.000    0.000 
#    0.000    0.000    0.000    0.000    0.000    0.000 
#
# Total GULP energy -289863.039415 kJ/mol
# GULP energy per Si atom -5574.289220 kJ/mol
# Density = 1.645701 g / cm^3
# Si number density = 16.494548 Si / 1000 Ang^3
#
#
#
# Elastic Constant Matrix: (Units=GPa)
#
#
# Indices 1 2 3 4 5 6 
#
# 1 78.4531 14.0901 7.8086 0.0000 0.0000 0.0000
# 2 14.0901 41.2493 4.4492 0.0000 0.0000 0.0000
# 3 7.8086 4.4492 35.8010 0.0000 0.0000 0.0000
# 4 0.0000 0.0000 0.0000 7.9907 0.0000 0.0000
# 5 0.0000 0.0000 0.0000 0.0000 6.7125 0.0000
# 6 0.0000 0.0000 0.0000 0.0000 0.0000 21.4491
#
#
#
# Elastic Compliance Matrix: (Units=1/GPa)
#
#
# Indices 1 2 3 4 5 6 
#
# 1 0.013789 -0.004445 -0.002455 0.000000 0.000000 0.000000
# 2 -0.004445 0.026005 -0.002262 0.000000 0.000000 0.000000
# 3 -0.002455 -0.002262 0.028749 0.000000 0.000000 0.000000
# 4 0.000000 0.000000 0.000000 0.125146 0.000000 0.000000
# 5 0.000000 0.000000 0.000000 0.000000 0.148977 0.000000
# 6 0.000000 0.000000 0.000000 0.000000 0.000000 0.046622
#
#
# Mechanical properties :
#
#
# Convention : Reuss Voigt Hill
#
# Bulk Modulus (GPa) = 19.91324 23.13325 21.52324
# Shear Modulus (GPa) = 11.78266 15.84082 13.81174
#
# Velocity S-wave (km/s) = 2.67561 3.10234 2.89684
# Velocity P-wave (km/s) = 4.65231 5.18536 4.92605
#
# Compressibility (1/GPa) = 0.05021784
#
# Stress axis : x y z
#
# Youngs Moduli (GPa) = 72.52043 38.45371 34.78408
#
# Poissons Ratio (x) = 0.17094 0.08540
# Poissons Ratio (y) = 0.32238 0.07869
# Poissons Ratio (z) = 0.17805 0.08699
#
# Static dielectric constant tensor:
#      x y z
#    x 1.581030 0.000000 0.000000 
#    y 0.000000 1.540640 0.000000 
#    z 0.000000 0.000000 1.519420 
# 
# From -- ./inp_files/44946.got.cif
#   From: 2010.05.17/outbox.cif.g08.bks.cpg/sg72_23_cif.got.tgz:44946.got - 2010.06.03 17:03:01.
