data_PCOD9525778
_publ_section_title
;
Structure prediction by ZEFSAII (Michael W. Deem and Ramdas Pophale) SiO2 
 PCOD9525778
Probable space group: I B A M
;
_chemical_formula_sum "Si O2"
_cell_formula_units_Z 68
_cell_length_a 12.809545
_cell_length_b 14.150914
_cell_length_c 15.672959
_cell_angle_alpha 90.000000
_cell_angle_beta 90.000000
_cell_angle_gamma 90.000000
_cell_volume 2840.986649
_symmetry_space_group_name_H-M "I B A M"
_symmetry_group_IT_number 72
_symmetry_cell_setting 'orthorhombic'
loop_
_space_group_symop_operation_xyz
x,y,z
-x,-y,z
x,-y,1/2-z
-x,y,1/2-z
-x,-y,-z
x,y,-z
-x,y,1/2+z
x,-y,1/2+z
1/2+x,1/2+y,1/2+z
1/2-x,1/2-y,1/2+z
1/2+x,1/2-y,-z
1/2-x,1/2+y,-z
1/2-x,1/2-y,1/2-z
1/2+x,1/2+y,1/2-z
1/2-x,1/2+y,z
1/2+x,1/2-y,z
loop_
_atom_site_type_symbol
_atom_site_label
_atom_site_fract_x
_atom_site_fract_y
_atom_site_fract_z
Si Si1 0.055891 0.159763 0.831097
Si Si2 0.000000 0.500000 0.250000
Si Si3 0.665901 0.666212 0.908620
Si Si4 0.765101 0.381963 0.093886
Si Si5 0.342172 0.862173 0.218076
O O1 0.143376 0.103153 0.882453
O O2 0.114457 0.254905 0.793965
O O3 0.000000 0.112483 0.750000
O O4 0.955982 0.181018 0.889509
O O5 0.065513 0.570144 0.310036
O O6 0.717224 0.769384 0.915228
O O7 0.736153 0.621169 0.834172
O O8 0.677920 0.617600 0.000000
O O9 0.823863 0.394523 0.184211
O O10 0.793293 0.421849 0.000000
#
# Coordination Sequence:
#
# PCOD9525778 Si02
#       5
#    16   4  16  16  16
#     4  11  16  32  58  85 115 139 174 239 291 330
#     4  12  24  40  62  74 108 170 192 214 270 322
#     4  10  19  32  55  83 112 142 178 232 294 337
#     4  10  19  31  53  84 115 146 180 229 290 336
#     4  11  21  37  53  81 117 152 191 227 264 335
#
# _framework density 23.935345000000002
#
# number of rings (size 3 to 8) (size 9 to 14) (size 15 to 20)
#    0.000    1.412    5.882    2.118    0.000    0.941 
#    0.000    3.529    0.000    2.824    0.000    3.294 
#    0.000    0.000    0.000    0.000    0.000    0.000 
#
# Total GULP energy -189503.280566 kJ/mol
# GULP energy per Si atom -5573.625899 kJ/mol
# Density = 2.388087 g / cm^3
# Si number density = 23.935345 Si / 1000 Ang^3
#
#
#
# Elastic Constant Matrix: (Units=GPa)
#
#
# Indices 1 2 3 4 5 6 
#
# 1 140.0073 6.3486 48.8239 0.0000 0.0000 0.0000
# 2 6.3486 42.7837 8.6893 0.0000 0.0000 0.0000
# 3 48.8239 8.6893 174.1711 0.0000 0.0000 0.0000
# 4 0.0000 0.0000 0.0000 -0.7212 0.0000 0.0000
# 5 0.0000 0.0000 0.0000 0.0000 7.0349 0.0000
# 6 0.0000 0.0000 0.0000 0.0000 0.0000 27.5906
#
#
#
# Elastic Compliance Matrix: (Units=1/GPa)
#
#
# Indices 1 2 3 4 5 6 
#
# 1 0.007939 -0.000734 -0.002189 0.000000 0.000000 0.000000
# 2 -0.000734 0.023680 -0.000976 0.000000 0.000000 0.000000
# 3 -0.002189 -0.000976 0.006404 0.000000 0.000000 0.000000
# 4 0.000000 0.000000 0.000000 -1.386550 0.000000 0.000000
# 5 0.000000 0.000000 0.000000 0.000000 0.142149 0.000000
# 6 0.000000 0.000000 0.000000 0.000000 0.000000 0.036244
#
#
# Mechanical properties :
#
#
# Convention : Reuss Voigt Hill
#
# Bulk Modulus (GPa) = 33.08314 53.85397 43.46856
# Shear Modulus (GPa) = -4.33929 26.32087 10.99079
#
# Velocity S-wave (km/s) = -1.34791 3.31972 2.14519
# Velocity P-wave (km/s) = 3.38074 6.10268 4.93316
#
# Compressibility (1/GPa) = 0.03022688
#
# Stress axis : x y z
#
# Youngs Moduli (GPa) = 125.95939 42.22895 156.15833
#
# Poissons Ratio (x) = 0.03098 0.34181
# Poissons Ratio (y) = 0.09239 0.15238
# Poissons Ratio (z) = 0.27571 0.04121
#
# Static dielectric constant tensor:
#      x y z
#    x 1.979360 0.000000 0.000000 
#    y 0.000000 1.925030 0.000000 
#    z 0.000000 0.000000 2.031850 
# 
# From -- ./inp_files/19983.got.cif
#   From: 2010.05.17/outbox.cif.g08.bks.cpg/sg72_10_cif.got.tgz:19983.got - 2010.06.03 17:03:01.
