data_PCOD9525536
_publ_section_title
;
Structure prediction by ZEFSAII (Michael W. Deem and Ramdas Pophale) SiO2 
 PCOD9525536
Probable space group: I B A M
;
_chemical_formula_sum "Si O2"
_cell_formula_units_Z 72
_cell_length_a 10.712102
_cell_length_b 19.207418
_cell_length_c 19.795874
_cell_angle_alpha 90.000000
_cell_angle_beta 90.000000
_cell_angle_gamma 90.000000
_cell_volume 4073.037119
_symmetry_space_group_name_H-M "I B A M"
_symmetry_group_IT_number 72
_symmetry_cell_setting 'orthorhombic'
loop_
_space_group_symop_operation_xyz
x,y,z
-x,-y,z
x,-y,1/2-z
-x,y,1/2-z
-x,-y,-z
x,y,-z
-x,y,1/2+z
x,-y,1/2+z
1/2+x,1/2+y,1/2+z
1/2-x,1/2-y,1/2+z
1/2+x,1/2-y,-z
1/2-x,1/2+y,-z
1/2-x,1/2-y,1/2-z
1/2+x,1/2+y,1/2-z
1/2-x,1/2+y,z
1/2+x,1/2-y,z
loop_
_atom_site_type_symbol
_atom_site_label
_atom_site_fract_x
_atom_site_fract_y
_atom_site_fract_z
Si Si1 0.293476 0.000000 0.250000
Si Si2 0.227680 0.251041 0.637591
Si Si3 0.357444 0.846605 0.245755
Si Si4 0.971565 0.194124 0.577842
Si Si5 0.932960 0.065671 0.676686
O O1 0.363306 0.929220 0.229478
O O2 0.202183 0.965851 0.305852
O O3 0.273240 0.190692 0.689096
O O4 0.203205 0.319420 0.684163
O O5 0.345007 0.261612 0.588371
O O6 0.098481 0.232220 0.601218
O O7 0.500000 0.819826 0.250000
O O8 0.982897 0.173277 0.500000
O O9 0.950508 0.130395 0.628897
O O10 0.000000 0.079614 0.750000
O O11 0.000000 0.000000 0.643762
#
# Coordination Sequence:
#
# PCOD9525536 Si02
#       5
#     8  16  16  16  16
#     4  10  18  34  58  92 120 149 193 252 310 361
#     4  11  23  39  60  90 122 162 204 256 307 371
#     4  11  21  35  63  91 121 153 205 254 311 364
#     4  12  24  40  61  88 125 165 206 256 311 370
#     4   9  19  35  59  87 119 151 198 256 301 359
#
# _framework density 17.677226000000001
#
# number of rings (size 3 to 8) (size 9 to 14) (size 15 to 20)
#    0.000    1.556    4.444    3.667    3.111    0.444 
#    0.000    0.000    0.000    0.000    0.000    3.111 
#    0.000    0.000    0.000    0.000    0.000    0.000 
#
# Total GULP energy -200408.907183 kJ/mol
# GULP energy per Si atom -5566.914088 kJ/mol
# Density = 1.763699 g / cm^3
# Si number density = 17.677226 Si / 1000 Ang^3
#
#
#
# Elastic Constant Matrix: (Units=GPa)
#
#
# Indices 1 2 3 4 5 6 
#
# 1 123.3207 28.9618 36.9421 0.0000 0.0000 0.0000
# 2 28.9618 101.4945 36.8929 0.0000 0.0000 0.0000
# 3 36.9421 36.8929 88.3859 0.0000 0.0000 0.0000
# 4 0.0000 0.0000 0.0000 23.8183 0.0000 0.0000
# 5 0.0000 0.0000 0.0000 0.0000 11.7073 0.0000
# 6 0.0000 0.0000 0.0000 0.0000 0.0000 42.1510
#
#
#
# Elastic Compliance Matrix: (Units=1/GPa)
#
#
# Indices 1 2 3 4 5 6 
#
# 1 0.009456 -0.001487 -0.003332 0.000000 0.000000 0.000000
# 2 -0.001487 0.011849 -0.004324 0.000000 0.000000 0.000000
# 3 -0.003332 -0.004324 0.014511 0.000000 0.000000 0.000000
# 4 0.000000 0.000000 0.000000 0.041984 0.000000 0.000000
# 5 0.000000 0.000000 0.000000 0.000000 0.085417 0.000000
# 6 0.000000 0.000000 0.000000 0.000000 0.000000 0.023724
#
#
# Mechanical properties :
#
#
# Convention : Reuss Voigt Hill
#
# Bulk Modulus (GPa) = 57.04346 57.64386 57.34366
# Shear Modulus (GPa) = 23.68864 29.56230 26.62547
#
# Velocity S-wave (km/s) = 3.66466 4.09386 3.88519
# Velocity P-wave (km/s) = 7.08843 7.41796 7.25507
#
# Compressibility (1/GPa) = 0.01753049
#
# Stress axis : x y z
#
# Youngs Moduli (GPa) = 105.75028 84.39529 68.91126
#
# Poissons Ratio (x) = 0.12553 0.22958
# Poissons Ratio (y) = 0.15729 0.29799
# Poissons Ratio (z) = 0.35231 0.36494
#
# Static dielectric constant tensor:
#      x y z
#    x 1.676750 0.000000 0.000000 
#    y 0.000000 1.653290 0.000000 
#    z 0.000000 0.000000 1.569620 
# 
# From -- ./inp_files/29044.got.cif
#   From: 2010.05.17/outbox.cif.g08.bks.cpg/sg72_15_cif.got.tgz:29044.got - 2010.06.03 17:03:01.
