data_PCOD9525703
_publ_section_title
;
Structure prediction by ZEFSAII (Michael W. Deem and Ramdas Pophale) SiO2 
 PCOD9525703
Probable space group: I B A M
;
_chemical_formula_sum "Si O2"
_cell_formula_units_Z 68
_cell_length_a 5.559399
_cell_length_b 36.188718
_cell_length_c 14.186032
_cell_angle_alpha 90.000000
_cell_angle_beta 90.000000
_cell_angle_gamma 90.000000
_cell_volume 2854.052634
_symmetry_space_group_name_H-M "I B A M"
_symmetry_group_IT_number 72
_symmetry_cell_setting 'orthorhombic'
loop_
_space_group_symop_operation_xyz
x,y,z
-x,-y,z
x,-y,1/2-z
-x,y,1/2-z
-x,-y,-z
x,y,-z
-x,y,1/2+z
x,-y,1/2+z
1/2+x,1/2+y,1/2+z
1/2-x,1/2-y,1/2+z
1/2+x,1/2-y,-z
1/2-x,1/2+y,-z
1/2-x,1/2-y,1/2-z
1/2+x,1/2+y,1/2-z
1/2-x,1/2+y,z
1/2+x,1/2-y,z
loop_
_atom_site_type_symbol
_atom_site_label
_atom_site_fract_x
_atom_site_fract_y
_atom_site_fract_z
Si Si1 0.615672 0.962355 0.145964
Si Si2 0.000000 0.000000 0.250000
Si Si3 0.283939 0.119138 0.865796
Si Si4 0.135342 0.229428 0.385532
Si Si5 0.278834 0.646258 0.348429
O O1 0.500000 0.959404 0.250000
O O2 0.881946 0.972645 0.175296
O O3 0.625967 0.921721 0.105947
O O4 0.500000 0.000000 0.103855
O O5 0.512325 0.144139 0.893269
O O6 0.253554 0.125652 0.752424
O O7 0.012775 0.128175 0.897611
O O8 0.136357 0.224941 0.500000
O O9 0.377900 0.252237 0.360984
O O10 0.158781 0.189167 0.340078
#
# Coordination Sequence:
#
# PCOD9525703 Si02
#       5
#    16   4  16  16  16
#     4   9  16  24  39  62  94 139 165 191 223 274
#     4   8  14  20  36  54  84 128 168 192 214 256
#     4  10  19  31  45  71 108 134 154 195 240 293
#     4  10  21  38  57  74  93 121 164 211 244 284
#     4  10  19  32  50  70  99 132 156 193 251 292
#
# _framework density 23.825769999999999
#
# number of rings (size 3 to 8) (size 9 to 14) (size 15 to 20)
#    0.000    2.588    2.353    2.824    3.294    0.000 
#    0.000   14.118    0.000    0.000    0.000    0.000 
#    0.000    8.471    0.000    0.000    0.000    0.000 
#
# Total GULP energy -189281.529171 kJ/mol
# GULP energy per Si atom -5567.103799 kJ/mol
# Density = 2.377154 g / cm^3
# Si number density = 23.825770 Si / 1000 Ang^3
#
#
#
# Elastic Constant Matrix: (Units=GPa)
#
#
# Indices 1 2 3 4 5 6 
#
# 1 172.2997 49.8681 18.5153 0.0000 0.0000 0.0000
# 2 49.8681 182.8218 20.8701 0.0000 0.0000 0.0000
# 3 18.5153 20.8701 102.8270 0.0000 0.0000 0.0000
# 4 0.0000 0.0000 0.0000 -36.2943 0.0000 0.0000
# 5 0.0000 0.0000 0.0000 0.0000 -17.9757 0.0000
# 6 0.0000 0.0000 0.0000 0.0000 0.0000 67.2252
#
#
#
# Elastic Compliance Matrix: (Units=1/GPa)
#
#
# Indices 1 2 3 4 5 6 
#
# 1 0.006367 -0.001644 -0.000813 0.000000 0.000000 0.000000
# 2 -0.001644 0.006024 -0.000927 0.000000 0.000000 0.000000
# 3 -0.000813 -0.000927 0.010059 0.000000 0.000000 0.000000
# 4 0.000000 0.000000 0.000000 -0.027553 0.000000 0.000000
# 5 0.000000 0.000000 0.000000 0.000000 -0.055631 0.000000
# 6 0.000000 0.000000 0.000000 0.000000 0.000000 0.014875
#
#
# Mechanical properties :
#
#
# Convention : Reuss Voigt Hill
#
# Bulk Modulus (GPa) = 63.76028 70.71727 67.23878
# Shear Modulus (GPa) = -147.65522 27.17071 -60.24225
#
# Velocity S-wave (km/s) = -7.88083 3.38063 -5.03382
# Velocity P-wave (km/s) = 7.48270 6.70699 2.34596
#
# Compressibility (1/GPa) = 0.01568375
#
# Stress axis : x y z
#
# Youngs Moduli (GPa) = 157.06031 166.00261 99.40854
#
# Poissons Ratio (x) = 0.27290 0.08080
# Poissons Ratio (y) = 0.25820 0.09212
# Poissons Ratio (z) = 0.12766 0.15382
#
# Static dielectric constant tensor:
#      x y z
#    x 1.922360 0.000000 0.000000 
#    y 0.000000 1.958730 0.000000 
#    z 0.000000 0.000000 1.992840 
# 
# From -- ./inp_files/34936.got.cif
#   From: 2010.05.17/outbox.cif.g08.bks.cpg/sg72_18_cif.got.tgz:34936.got - 2010.06.03 17:03:01.
