data_PCOD9525153
_publ_section_title
;
Structure prediction by ZEFSAII (Michael W. Deem and Ramdas Pophale) SiO2 
 PCOD9525153
Probable space group: I B A M
;
_chemical_formula_sum "Si O2"
_cell_formula_units_Z 80
_cell_length_a 29.852497
_cell_length_b 23.116183
_cell_length_c 9.112409
_cell_angle_alpha 90.000000
_cell_angle_beta 90.000000
_cell_angle_gamma 90.000000
_cell_volume 6288.252782
_symmetry_space_group_name_H-M "I B A M"
_symmetry_group_IT_number 72
_symmetry_cell_setting 'orthorhombic'
loop_
_space_group_symop_operation_xyz
x,y,z
-x,-y,z
x,-y,1/2-z
-x,y,1/2-z
-x,-y,-z
x,y,-z
-x,y,1/2+z
x,-y,1/2+z
1/2+x,1/2+y,1/2+z
1/2-x,1/2-y,1/2+z
1/2+x,1/2-y,-z
1/2-x,1/2+y,-z
1/2-x,1/2-y,1/2-z
1/2+x,1/2+y,1/2-z
1/2-x,1/2+y,z
1/2+x,1/2-y,z
loop_
_atom_site_type_symbol
_atom_site_label
_atom_site_fract_x
_atom_site_fract_y
_atom_site_fract_z
Si Si1 0.179925 0.761427 0.168589
Si Si2 0.771950 0.663099 0.169056
Si Si3 0.365879 0.363316 0.325657
Si Si4 0.953122 0.937920 0.823250
Si Si5 0.277285 0.437739 0.675327
O O1 0.190364 0.703395 0.258426
O O2 0.226375 0.798303 0.170971
O O3 0.143909 0.804166 0.240568
O O4 0.169430 0.748481 0.000000
O O5 0.759708 0.606095 0.260371
O O6 0.782006 0.649583 0.000000
O O7 0.363281 0.351930 0.500000
O O8 0.412965 0.393599 0.293027
O O9 0.325539 0.408150 0.291274
O O10 0.000000 0.919476 0.750000
O O11 0.942332 0.000000 0.750000
O O12 0.957674 0.944247 0.000000
O O13 0.274614 0.500000 0.750000
O O14 0.273282 0.442376 0.500000
#
# Coordination Sequence:
#
# PCOD9525153 Si02
#       5
#    16  16  16  16  16
#     4   9  16  25  39  56  71  90 117 149 183 218
#     4   9  16  26  38  52  72  95 118 146 181 218
#     4   9  18  29  40  54  72  94 121 155 191 227
#     4  10  19  30  42  55  72  95 123 155 193 232
#     4  10  18  27  38  53  73  96 124 155 187 221
#
# _framework density 12.722135
#
# number of rings (size 3 to 8) (size 9 to 14) (size 15 to 20)
#    0.000    2.600    0.000    3.600    0.000    7.200 
#    0.000    0.000    0.000    0.000    0.000    0.000 
#    0.000    0.000    0.000    0.000    0.000    1.000 
#
# Total GULP energy -222877.802404 kJ/mol
# GULP energy per Si atom -5571.945060 kJ/mol
# Density = 1.269318 g / cm^3
# Si number density = 12.722135 Si / 1000 Ang^3
#
#
#
# Elastic Constant Matrix: (Units=GPa)
#
#
# Indices 1 2 3 4 5 6 
#
# 1 62.8041 47.9402 44.4348 0.0000 0.0000 0.0000
# 2 47.9402 78.4322 56.3383 0.0000 0.0000 0.0000
# 3 44.4348 56.3383 83.6027 0.0000 0.0000 0.0000
# 4 0.0000 0.0000 0.0000 25.5237 0.0000 0.0000
# 5 0.0000 0.0000 0.0000 0.0000 15.6376 0.0000
# 6 0.0000 0.0000 0.0000 0.0000 0.0000 22.6590
#
#
#
# Elastic Compliance Matrix: (Units=1/GPa)
#
#
# Indices 1 2 3 4 5 6 
#
# 1 0.032068 -0.014261 -0.007434 0.000000 0.000000 0.000000
# 2 -0.014261 0.031054 -0.013347 0.000000 0.000000 0.000000
# 3 -0.007434 -0.013347 0.024906 0.000000 0.000000 0.000000
# 4 0.000000 0.000000 0.000000 0.039179 0.000000 0.000000
# 5 0.000000 0.000000 0.000000 0.000000 0.063948 0.000000
# 6 0.000000 0.000000 0.000000 0.000000 0.000000 0.044133
#
#
# Mechanical properties :
#
#
# Convention : Reuss Voigt Hill
#
# Bulk Modulus (GPa) = 55.72630 58.02950 56.87790
# Shear Modulus (GPa) = 16.05891 17.83912 16.94902
#
# Velocity S-wave (km/s) = 3.55671 3.74867 3.65395
# Velocity P-wave (km/s) = 7.79517 8.02800 7.91244
#
# Compressibility (1/GPa) = 0.01794485
#
# Stress axis : x y z
#
# Youngs Moduli (GPa) = 31.18373 32.20213 40.15025
#
# Poissons Ratio (x) = 0.45924 0.29846
# Poissons Ratio (y) = 0.44472 0.53587
# Poissons Ratio (z) = 0.23181 0.42979
#
# Static dielectric constant tensor:
#      x y z
#    x 1.394850 0.000000 0.000000 
#    y 0.000000 1.396790 0.000000 
#    z 0.000000 0.000000 1.427010 
# 
# From -- ./inp_files/4984.got.cif
#   From: 2010.05.17/outbox.cif.g08.bks.cpg/sg72_3_cif.got.tgz:4984.got - 2010.06.03 17:03:01.
