data_PCOD9525656
_publ_section_title
;
Structure prediction by ZEFSAII (Michael W. Deem and Ramdas Pophale) SiO2 
 PCOD9525656
Probable space group: I B A M
;
_chemical_formula_sum "Si O2"
_cell_formula_units_Z 112
_cell_length_a 13.755084
_cell_length_b 28.103931
_cell_length_c 18.442619
_cell_angle_alpha 90.000000
_cell_angle_beta 90.000000
_cell_angle_gamma 90.000000
_cell_volume 7129.398851
_symmetry_space_group_name_H-M "I B A M"
_symmetry_group_IT_number 72
_symmetry_cell_setting 'orthorhombic'
loop_
_space_group_symop_operation_xyz
x,y,z
-x,-y,z
x,-y,1/2-z
-x,y,1/2-z
-x,-y,-z
x,y,-z
-x,y,1/2+z
x,-y,1/2+z
1/2+x,1/2+y,1/2+z
1/2-x,1/2-y,1/2+z
1/2+x,1/2-y,-z
1/2-x,1/2+y,-z
1/2-x,1/2-y,1/2-z
1/2+x,1/2+y,1/2-z
1/2-x,1/2+y,z
1/2+x,1/2-y,z
loop_
_atom_site_type_symbol
_atom_site_label
_atom_site_fract_x
_atom_site_fract_y
_atom_site_fract_z
Si Si1 0.347951 0.741237 0.170402
Si Si2 0.356014 0.800398 0.313667
Si Si3 0.732557 0.676495 0.913503
Si Si4 0.958703 0.228873 0.913864
Si Si5 0.386100 0.015553 0.083159
Si Si6 0.856161 0.588249 0.912794
Si Si7 0.548451 0.097753 0.323278
O O1 0.378810 0.765425 0.246174
O O2 0.261028 0.703320 0.180630
O O3 0.298082 0.784094 0.125549
O O4 0.440554 0.722494 0.127607
O O5 0.407458 0.776693 0.383312
O O6 0.397626 0.853108 0.304697
O O7 0.620579 0.688004 0.897398
O O8 0.771891 0.624885 0.892547
O O9 0.744929 0.681861 0.000000
O O10 0.973473 0.231854 0.000000
O O11 0.382115 0.059850 0.137102
O O12 0.500000 0.000000 0.081961
O O13 0.335220 0.966581 0.107100
O O14 0.359342 0.027799 0.000000
O O15 0.956721 0.605448 0.876851
O O16 0.868632 0.588533 0.000000
O O17 0.500000 0.077765 0.250000
#
# Coordination Sequence:
#
# PCOD9525656 Si02
#       7
#    16  16  16  16  16  16  16
#     4  10  19  33  46  61  91 122 150 186 224 266
#     4  10  21  32  45  64  88 122 154 179 221 278
#     4   9  17  28  45  67  87 115 155 190 224 268
#     4  10  19  30  45  66  89 114 150 193 230 263
#     4   8  16  29  42  59  86 119 147 172 214 267
#     4   9  17  30  45  61  88 122 149 177 217 267
#     4  11  19  27  42  66  90 113 146 185 223 262
#
# _framework density 15.709599000000001
#
# number of rings (size 3 to 8) (size 9 to 14) (size 15 to 20)
#    0.000    2.429    0.000    4.714    0.000    5.429 
#    0.000    0.000    0.000    0.000    0.000    1.000 
#    0.000    4.571    0.000   18.857    0.000   21.000 
#
# Total GULP energy -312085.265901 kJ/mol
# GULP energy per Si atom -5572.951177 kJ/mol
# Density = 1.567384 g / cm^3
# Si number density = 15.709599 Si / 1000 Ang^3
#
#
#
# Elastic Constant Matrix: (Units=GPa)
#
#
# Indices 1 2 3 4 5 6 
#
# 1 83.9020 35.2654 40.2741 0.0000 0.0000 0.0000
# 2 35.2654 76.9615 38.0190 -0.0001 0.0000 0.0000
# 3 40.2741 38.0190 52.9311 0.0000 0.0000 0.0000
# 4 0.0000 -0.0001 0.0000 17.1309 0.0000 0.0000
# 5 0.0000 0.0000 0.0000 0.0000 23.0758 0.0000
# 6 0.0000 0.0000 0.0000 0.0000 0.0000 20.8384
#
#
#
# Elastic Compliance Matrix: (Units=1/GPa)
#
#
# Indices 1 2 3 4 5 6 
#
# 1 0.019066 -0.002434 -0.012759 0.000000 0.000000 0.000000
# 2 -0.002434 0.020450 -0.012837 0.000000 0.000000 0.000000
# 3 -0.012759 -0.012837 0.037821 0.000000 0.000000 0.000000
# 4 0.000000 0.000000 0.000000 0.058374 0.000000 0.000000
# 5 0.000000 0.000000 0.000000 0.000000 0.043335 0.000000
# 6 0.000000 0.000000 0.000000 0.000000 0.000000 0.047988
#
#
# Mechanical properties :
#
#
# Convention : Reuss Voigt Hill
#
# Bulk Modulus (GPa) = 46.99708 48.99019 47.99364
# Shear Modulus (GPa) = 17.23023 18.89141 18.06082
#
# Velocity S-wave (km/s) = 3.31538 3.47153 3.39435
# Velocity P-wave (km/s) = 6.68108 6.87904 6.78078
#
# Compressibility (1/GPa) = 0.02127792
#
# Stress axis : x y z
#
# Youngs Moduli (GPa) = 52.44933 48.89926 26.44017
#
# Poissons Ratio (x) = 0.11900 0.33735
# Poissons Ratio (y) = 0.12764 0.33942
# Poissons Ratio (z) = 0.66920 0.62773
#
# Static dielectric constant tensor:
#      x y z
#    x 1.522800 0.000000 0.000000 
#    y 0.000000 1.537870 0.000000 
#    z 0.000000 0.000000 1.565490 
# 
# From -- ./inp_files/37419.got.cif
#   From: 2010.05.17/outbox.cif.g08.bks.cpg/sg72_19_cif.got.tgz:37419.got - 2010.06.03 17:03:01.
