data_PCOD9525310
_publ_section_title
;
Structure prediction by ZEFSAII (Michael W. Deem and Ramdas Pophale) SiO2 
 PCOD9525310
Probable space group: I B A M
;
_chemical_formula_sum "Si O2"
_cell_formula_units_Z 96
_cell_length_a 10.863746
_cell_length_b 20.226304
_cell_length_c 18.607312
_cell_angle_alpha 90.000000
_cell_angle_beta 90.000000
_cell_angle_gamma 90.000000
_cell_volume 4088.648473
_symmetry_space_group_name_H-M "I B A M"
_symmetry_group_IT_number 72
_symmetry_cell_setting 'orthorhombic'
loop_
_space_group_symop_operation_xyz
x,y,z
-x,-y,z
x,-y,1/2-z
-x,y,1/2-z
-x,-y,-z
x,y,-z
-x,y,1/2+z
x,-y,1/2+z
1/2+x,1/2+y,1/2+z
1/2-x,1/2-y,1/2+z
1/2+x,1/2-y,-z
1/2-x,1/2+y,-z
1/2-x,1/2-y,1/2-z
1/2+x,1/2+y,1/2-z
1/2-x,1/2+y,z
1/2+x,1/2-y,z
loop_
_atom_site_type_symbol
_atom_site_label
_atom_site_fract_x
_atom_site_fract_y
_atom_site_fract_z
Si Si1 0.677166 0.705668 0.691469
Si Si2 0.836655 0.371080 0.084298
Si Si3 0.659810 0.427574 0.723813
Si Si4 0.807432 0.889194 0.423914
Si Si5 0.856412 0.488424 0.639255
Si Si6 0.416427 0.794114 0.917980
O O1 0.750000 0.750000 0.750000
O O2 0.764627 0.686077 0.624945
O O3 0.641255 0.636521 0.728531
O O4 0.570209 0.745543 0.649960
O O5 0.805975 0.437836 0.127636
O O6 0.980457 0.351099 0.088429
O O7 0.805907 0.377375 0.000000
O O8 0.620693 0.500000 0.750000
O O9 0.610977 0.408345 0.644329
O O10 0.804681 0.443137 0.704492
O O11 0.872508 0.883770 0.500000
O O12 0.720032 0.825948 0.412001
O O13 0.705185 0.947518 0.424953
O O14 0.000000 0.500000 0.640483
O O15 0.429575 0.767132 0.000000
#
# Coordination Sequence:
#
# PCOD9525310 Si02
#       6
#    16  16  16  16  16  16
#     4  12  22  39  54  81 123 162 199 248 295 360
#     4  11  22  36  58  86 118 160 201 241 299 363
#     4  10  20  34  48  79 114 153 193 237 291 368
#     4   9  17  30  47  73 111 153 189 232 283 348
#     4  10  18  30  50  82 117 155 183 232 292 369
#     4  10  21  37  56  81 114 159 207 243 291 357
#
# _framework density 23.479641999999998
#
# number of rings (size 3 to 8) (size 9 to 14) (size 15 to 20)
#    1.000    0.667    5.000    1.000    0.000    1.667 
#    3.000    0.000    0.000    0.000    0.000    2.333 
#    0.000    2.667    0.000    0.000    0.000    0.000 
#
# Total GULP energy -267399.367471 kJ/mol
# GULP energy per Si atom -5570.820156 kJ/mol
# Density = 2.342620 g / cm^3
# Si number density = 23.479642 Si / 1000 Ang^3
#
#
#
# Elastic Constant Matrix: (Units=GPa)
#
#
# Indices 1 2 3 4 5 6 
#
# 1 30.8227 14.7601 15.3507 0.0000 0.0000 0.0000
# 2 14.7601 154.2205 66.1450 0.0000 0.0000 0.0000
# 3 15.3507 66.1450 149.7983 0.0000 0.0000 0.0000
# 4 0.0000 0.0000 0.0000 22.6968 0.0000 0.0000
# 5 0.0000 0.0000 0.0000 0.0000 7.9169 0.0000
# 6 0.0000 0.0000 0.0000 0.0000 0.0000 13.9496
#
#
#
# Elastic Compliance Matrix: (Units=1/GPa)
#
#
# Indices 1 2 3 4 5 6 
#
# 1 0.034795 -0.002222 -0.002585 0.000000 0.000000 0.000000
# 2 -0.002222 0.008141 -0.003367 0.000000 0.000000 0.000000
# 3 -0.002585 -0.003367 0.008427 0.000000 0.000000 0.000000
# 4 0.000000 0.000000 0.000000 0.044059 0.000000 0.000000
# 5 0.000000 0.000000 0.000000 0.000000 0.126312 0.000000
# 6 0.000000 0.000000 0.000000 0.000000 0.000000 0.071686
#
#
# Mechanical properties :
#
#
# Convention : Reuss Voigt Hill
#
# Bulk Modulus (GPa) = 28.55809 58.59478 43.57644
# Shear Modulus (GPa) = 15.55506 24.81839 20.18672
#
# Velocity S-wave (km/s) = 2.57668 3.25471 2.93534
# Velocity P-wave (km/s) = 4.58713 6.25571 5.48524
#
# Compressibility (1/GPa) = 0.03501634
#
# Stress axis : x y z
#
# Youngs Moduli (GPa) = 28.74004 122.83529 118.66232
#
# Poissons Ratio (x) = 0.27289 0.30670
# Poissons Ratio (y) = 0.06385 0.39955
# Poissons Ratio (z) = 0.07428 0.41360
#
# Static dielectric constant tensor:
#      x y z
#    x 1.962950 0.000000 0.000000 
#    y 0.000000 1.945240 0.000000 
#    z 0.000000 0.000000 2.179350 
# 
# From -- ./inp_files/37126.got.cif
#   From: 2010.05.17/outbox.cif.g08.bks.cpg/sg72_19_cif.got.tgz:37126.got - 2010.06.03 17:03:01.
