data_PCOD9525152
_publ_section_title
;
Structure prediction by ZEFSAII (Michael W. Deem and Ramdas Pophale) SiO2 
 PCOD9525152
Probable space group: I B A M
;
_chemical_formula_sum "Si O2"
_cell_formula_units_Z 96
_cell_length_a 24.220153
_cell_length_b 8.470081
_cell_length_c 23.172006
_cell_angle_alpha 90.000000
_cell_angle_beta 90.000000
_cell_angle_gamma 90.000000
_cell_volume 4753.659584
_symmetry_space_group_name_H-M "I B A M"
_symmetry_group_IT_number 72
_symmetry_cell_setting 'orthorhombic'
loop_
_space_group_symop_operation_xyz
x,y,z
-x,-y,z
x,-y,1/2-z
-x,y,1/2-z
-x,-y,-z
x,y,-z
-x,y,1/2+z
x,-y,1/2+z
1/2+x,1/2+y,1/2+z
1/2-x,1/2-y,1/2+z
1/2+x,1/2-y,-z
1/2-x,1/2+y,-z
1/2-x,1/2-y,1/2-z
1/2+x,1/2+y,1/2-z
1/2-x,1/2+y,z
1/2+x,1/2-y,z
loop_
_atom_site_type_symbol
_atom_site_label
_atom_site_fract_x
_atom_site_fract_y
_atom_site_fract_z
Si Si1 0.774172 0.698053 0.930313
Si Si2 0.578779 0.689479 0.134075
Si Si3 0.433362 0.180192 0.255885
Si Si4 0.624835 0.010855 0.433407
Si Si5 0.167515 0.023552 0.569673
Si Si6 0.534276 0.166616 0.123065
O O1 0.817628 0.563084 0.913456
O O2 0.711765 0.659625 0.913633
O O3 0.800705 0.863738 0.914321
O O4 0.773526 0.695434 0.000000
O O5 0.585333 0.709385 0.203257
O O6 0.605849 0.845062 0.105511
O O7 0.611362 0.548103 0.104409
O O8 0.514246 0.706129 0.117303
O O9 0.500000 0.178238 0.250000
O O10 0.427557 0.217869 0.323092
O O11 0.412755 0.000000 0.250000
O O12 0.629672 0.060564 0.500000
O O13 0.576045 0.879961 0.427516
O O14 0.158497 0.026029 0.500000
O O15 0.500000 0.000000 0.135941
#
# Coordination Sequence:
#
# PCOD9525152 Si02
#       6
#    16  16  16  16  16  16
#     4   9  19  34  51  68  97 135 167 199 244 300
#     4  10  18  26  49  77  99 125 163 206 242 281
#     4   9  12  26  45  70  96 127 167 194 230 281
#     4  10  18  28  45  73 101 129 160 197 243 289
#     4  10  19  33  50  72  98 127 165 207 249 295
#     4   9  16  27  46  73 101 131 162 198 236 286
#
# _framework density 20.194966999999998
#
# number of rings (size 3 to 8) (size 9 to 14) (size 15 to 20)
#    0.000    2.500    5.000    1.500    0.000    6.333 
#    0.000    0.833    0.000    5.000    0.000   14.000 
#    0.000    0.000    0.000    0.000    0.000    0.000 
#
# Total GULP energy -267452.444478 kJ/mol
# GULP energy per Si atom -5571.925927 kJ/mol
# Density = 2.014900 g / cm^3
# Si number density = 20.194967 Si / 1000 Ang^3
#
#
#
# Elastic Constant Matrix: (Units=GPa)
#
#
# Indices 1 2 3 4 5 6 
#
# 1 70.0359 10.0926 19.5155 0.0000 0.0000 0.0000
# 2 10.0926 36.7371 12.0430 0.0000 0.0000 0.0000
# 3 19.5155 12.0430 62.0492 0.0000 0.0000 0.0000
# 4 0.0000 0.0000 0.0000 9.6251 0.0000 0.0000
# 5 0.0000 0.0000 0.0000 0.0000 1.9832 0.0000
# 6 0.0000 0.0000 0.0000 0.0000 0.0000 21.6197
#
#
#
# Elastic Compliance Matrix: (Units=1/GPa)
#
#
# Indices 1 2 3 4 5 6 
#
# 1 0.015938 -0.002921 -0.004446 0.000000 0.000000 0.000000
# 2 -0.002921 0.029605 -0.004827 0.000000 0.000000 0.000000
# 3 -0.004446 -0.004827 0.018451 0.000000 0.000000 0.000000
# 4 0.000000 0.000000 0.000000 0.103895 0.000000 0.000000
# 5 0.000000 0.000000 0.000000 0.000000 0.504244 0.000000
# 6 0.000000 0.000000 0.000000 0.000000 0.000000 0.046254
#
#
# Mechanical properties :
#
#
# Convention : Reuss Voigt Hill
#
# Bulk Modulus (GPa) = 25.24845 28.01382 26.63113
# Shear Modulus (GPa) = 6.61394 15.12367 10.86881
#
# Velocity S-wave (km/s) = 1.81167 2.73954 2.32242
# Velocity P-wave (km/s) = 4.11165 4.88964 4.51743
#
# Compressibility (1/GPa) = 0.03960640
#
# Stress axis : x y z
#
# Youngs Moduli (GPa) = 62.74243 33.77755 54.19622
#
# Poissons Ratio (x) = 0.09867 0.24095
# Poissons Ratio (y) = 0.18328 0.26162
# Poissons Ratio (z) = 0.27894 0.16306
#
# Static dielectric constant tensor:
#      x y z
#    x 1.736400 0.000000 0.000000 
#    y 0.000000 1.815480 0.000000 
#    z 0.000000 0.000000 1.736990 
# 
# From -- ./inp_files/45632.got.cif
#   From: 2010.05.17/outbox.cif.g08.bks.cpg/sg72_23_cif.got.tgz:45632.got - 2010.06.03 17:03:01.
