data_PCOD9525963
_publ_section_title
;
Structure prediction by ZEFSAII (Michael W. Deem and Ramdas Pophale) SiO2 
 PCOD9525963
Probable space group: I B A M
;
_chemical_formula_sum "Si O2"
_cell_formula_units_Z 104
_cell_length_a 15.190585
_cell_length_b 13.189818
_cell_length_c 26.108272
_cell_angle_alpha 90.000000
_cell_angle_beta 90.000000
_cell_angle_gamma 90.000000
_cell_volume 5231.080830
_symmetry_space_group_name_H-M "I B A M"
_symmetry_group_IT_number 72
_symmetry_cell_setting 'orthorhombic'
loop_
_space_group_symop_operation_xyz
x,y,z
-x,-y,z
x,-y,1/2-z
-x,y,1/2-z
-x,-y,-z
x,y,-z
-x,y,1/2+z
x,-y,1/2+z
1/2+x,1/2+y,1/2+z
1/2-x,1/2-y,1/2+z
1/2+x,1/2-y,-z
1/2-x,1/2+y,-z
1/2-x,1/2-y,1/2-z
1/2+x,1/2+y,1/2-z
1/2-x,1/2+y,z
1/2+x,1/2-y,z
loop_
_atom_site_type_symbol
_atom_site_label
_atom_site_fract_x
_atom_site_fract_y
_atom_site_fract_z
Si Si1 0.500000 0.000000 0.390196
Si Si2 0.854119 0.252177 0.662255
Si Si3 0.850838 0.050087 0.000000
Si Si4 0.329267 0.519884 0.807851
Si Si5 0.487257 0.220187 0.091012
Si Si6 0.547195 0.648642 0.500000
Si Si7 0.685128 0.648289 0.893284
Si Si8 0.632040 0.045704 0.799647
O O1 0.519275 0.101508 0.421293
O O2 0.580327 0.977064 0.351611
O O3 0.847298 0.134481 0.675036
O O4 0.952145 0.267869 0.640609
O O5 0.774689 0.295761 0.625822
O O6 0.849934 0.334604 0.707770
O O7 0.805402 0.089557 0.947789
O O8 0.950823 0.094836 0.000000
O O9 0.872640 0.930341 0.000000
O O10 0.364801 0.500000 0.750000
O O11 0.349598 0.433550 0.850703
O O12 0.224445 0.510119 0.804582
O O13 0.392122 0.269845 0.098415
O O14 0.543095 0.281040 0.049238
O O15 0.588312 0.000000 0.750000
#
# Coordination Sequence:
#
# PCOD9525963 Si02
#       8
#     8  16   8  16  16   8  16  16
#     4  10  19  33  52  78 108 144 190 235 277 336
#     4  10  21  36  55  82 111 144 191 236 283 343
#     4   9  18  35  60  84 109 148 189 224 280 339
#     4  10  21  36  56  82 114 151 189 236 292 348
#     4  10  21  36  57  81 112 149 187 235 287 338
#     4   9  18  34  56  82 111 144 181 226 278 339
#     4  10  21  38  59  83 115 151 189 235 288 344
#     4   9  19  33  52  75 105 147 188 230 284 340
#
# _framework density 19.881167999999999
#
# number of rings (size 3 to 8) (size 9 to 14) (size 15 to 20)
#    0.000    2.308    0.000    2.077    0.000    9.538 
#    0.000    3.846    0.000    4.615    0.000    0.000 
#    0.000    0.000    0.000    0.000    0.000    0.000 
#
# Total GULP energy -289564.107430 kJ/mol
# GULP energy per Si atom -5568.540528 kJ/mol
# Density = 1.983592 g / cm^3
# Si number density = 19.881168 Si / 1000 Ang^3
#
#
#
# Elastic Constant Matrix: (Units=GPa)
#
#
# Indices 1 2 3 4 5 6 
#
# 1 40.2244 17.2489 -3.9958 0.0000 0.0000 0.0000
# 2 17.2489 140.0799 31.5344 0.0000 0.0000 0.0000
# 3 -3.9958 31.5344 77.9486 0.0000 0.0000 0.0000
# 4 0.0000 0.0000 0.0000 19.4895 0.0000 0.0000
# 5 0.0000 0.0000 0.0000 0.0000 -21.0333 0.0000
# 6 0.0000 0.0000 0.0000 0.0000 0.0000 15.1212
#
#
#
# Elastic Compliance Matrix: (Units=1/GPa)
#
#
# Indices 1 2 3 4 5 6 
#
# 1 0.026864 -0.003980 0.002987 0.000000 0.000000 0.000000
# 2 -0.003980 0.008444 -0.003620 0.000000 0.000000 0.000000
# 3 0.002987 -0.003620 0.014447 0.000000 0.000000 0.000000
# 4 0.000000 0.000000 0.000000 0.051310 0.000000 0.000000
# 5 0.000000 0.000000 0.000000 0.000000 -0.047544 0.000000
# 6 0.000000 0.000000 0.000000 0.000000 0.000000 0.066132
#
#
# Mechanical properties :
#
#
# Convention : Reuss Voigt Hill
#
# Bulk Modulus (GPa) = 24.67400 38.64754 31.66077
# Shear Modulus (GPa) = 35.11514 16.94651 26.03082
#
# Velocity S-wave (km/s) = 4.20724 2.92274 3.62238
# Velocity P-wave (km/s) = 6.00323 5.55620 5.78404
#
# Compressibility (1/GPa) = 0.04052849
#
# Stress axis : x y z
#
# Youngs Moduli (GPa) = 37.22425 118.42932 69.22045
#
# Poissons Ratio (x) = 0.47141 -0.20679
# Poissons Ratio (y) = 0.14817 0.25058
# Poissons Ratio (z) = -0.11120 0.42872
#
# Static dielectric constant tensor:
#      x y z
#    x 1.676500 0.000000 0.000000 
#    y 0.000000 1.692730 0.000000 
#    z 0.000000 0.000000 2.211900 
# 
# From -- ./inp_files/49102.got.cif
#   From: 2010.05.17/outbox.cif.g08.bks.cpg/sg72_25_cif.got.tgz:49102.got - 2010.06.03 17:03:01.
