data_PCOD9525953
_publ_section_title
;
Structure prediction by ZEFSAII (Michael W. Deem and Ramdas Pophale) SiO2 
 PCOD9525953
Probable space group: I B A M
;
_chemical_formula_sum "Si O2"
_cell_formula_units_Z 84
_cell_length_a 17.153029
_cell_length_b 9.217947
_cell_length_c 22.282712
_cell_angle_alpha 90.000000
_cell_angle_beta 90.000000
_cell_angle_gamma 90.000000
_cell_volume 3523.246878
_symmetry_space_group_name_H-M "I B A M"
_symmetry_group_IT_number 72
_symmetry_cell_setting 'orthorhombic'
loop_
_space_group_symop_operation_xyz
x,y,z
-x,-y,z
x,-y,1/2-z
-x,y,1/2-z
-x,-y,-z
x,y,-z
-x,y,1/2+z
x,-y,1/2+z
1/2+x,1/2+y,1/2+z
1/2-x,1/2-y,1/2+z
1/2+x,1/2-y,-z
1/2-x,1/2+y,-z
1/2-x,1/2-y,1/2-z
1/2+x,1/2+y,1/2-z
1/2-x,1/2+y,z
1/2+x,1/2-y,z
loop_
_atom_site_type_symbol
_atom_site_label
_atom_site_fract_x
_atom_site_fract_y
_atom_site_fract_z
Si Si1 0.000000 0.000000 0.000000
Si Si2 0.915431 0.896506 0.892406
Si Si3 0.358201 0.598242 0.301435
Si Si4 0.303107 0.987486 0.353369
Si Si5 0.740764 0.256122 0.068493
Si Si6 0.582714 0.826136 0.282316
O O1 0.025947 0.111851 0.053221
O O2 0.832350 0.863706 0.923910
O O3 0.926398 0.782526 0.839048
O O4 0.906281 0.054627 0.860703
O O5 0.397428 0.500000 0.250000
O O6 0.273557 0.527568 0.314271
O O7 0.359932 0.750794 0.266880
O O8 0.291315 0.102391 0.408211
O O9 0.377124 0.036116 0.314283
O O10 0.300235 0.828067 0.383332
O O11 0.768537 0.248987 0.000000
O O12 0.500000 0.842993 0.250000
#
# Coordination Sequence:
#
# PCOD9525953 Si02
#       6
#     4  16  16  16  16  16
#     4  12  16  28  46  76 120 146 192 232 304 366
#     4   9  19  28  49  79 112 150 189 241 304 355
#     4   9  18  35  56  82 115 148 197 249 298 358
#     4  10  21  34  60  87 116 154 206 245 310 358
#     4  10  19  37  55  86 119 153 199 254 301 359
#     4  10  19  33  51  80 117 153 193 242 305 359
#
# _framework density 23.841646000000001
#
# number of rings (size 3 to 8) (size 9 to 14) (size 15 to 20)
#    0.000    2.286    0.952    3.429    0.000    2.667 
#    0.000    0.000    0.000    5.143    0.000    1.333 
#    0.000    0.000    0.000    0.000    0.000    0.000 
#
# Total GULP energy -233826.736820 kJ/mol
# GULP energy per Si atom -5567.303258 kJ/mol
# Density = 2.378738 g / cm^3
# Si number density = 23.841646 Si / 1000 Ang^3
#
#
#
# Elastic Constant Matrix: (Units=GPa)
#
#
# Indices 1 2 3 4 5 6 
#
# 1 68.9058 -4.5281 51.9087 0.0000 0.0000 0.0000
# 2 -4.5281 72.6870 11.5728 0.0000 0.0000 0.0000
# 3 51.9087 11.5728 184.8984 0.0000 0.0000 0.0000
# 4 0.0000 0.0000 0.0000 17.2583 0.0000 0.0000
# 5 0.0000 0.0000 0.0000 0.0000 26.6099 0.0000
# 6 0.0000 0.0000 0.0000 0.0000 0.0000 -3.5287
#
#
#
# Elastic Compliance Matrix: (Units=1/GPa)
#
#
# Indices 1 2 3 4 5 6 
#
# 1 0.018694 0.002020 -0.005375 0.000000 0.000000 0.000000
# 2 0.002020 0.014114 -0.001451 0.000000 0.000000 0.000000
# 3 -0.005375 -0.001451 0.007008 0.000000 0.000000 0.000000
# 4 0.000000 0.000000 0.000000 0.057943 0.000000 0.000000
# 5 0.000000 0.000000 0.000000 0.000000 0.037580 0.000000
# 6 0.000000 0.000000 0.000000 0.000000 0.000000 -0.283388
#
#
# Mechanical properties :
#
#
# Convention : Reuss Voigt Hill
#
# Bulk Modulus (GPa) = 33.10520 49.37755 41.24137
# Shear Modulus (GPa) = -38.95022 25.90375 -6.52323
#
# Velocity S-wave (km/s) = -4.04630 3.29977 -1.65590
# Velocity P-wave (km/s) = 2.81326 5.93916 3.69859
#
# Compressibility (1/GPa) = 0.03020674
#
# Stress axis : x y z
#
# Youngs Moduli (GPa) = 53.49238 70.84947 142.69260
#
# Poissons Ratio (x) = -0.14314 0.76693
# Poissons Ratio (y) = -0.10807 0.20699
# Poissons Ratio (z) = 0.28751 0.10277
#
# Static dielectric constant tensor:
#      x y z
#    x 2.007220 0.000000 0.000000 
#    y 0.000000 2.035930 0.000000 
#    z 0.000000 0.000000 1.870830 
# 
# From -- ./inp_files/39670.got.cif
#   From: 2010.05.17/outbox.cif.g08.bks.cpg/sg72_20_cif.got.tgz:39670.got - 2010.06.03 17:03:01.
