data_PCOD9525527
_publ_section_title
;
Structure prediction by ZEFSAII (Michael W. Deem and Ramdas Pophale) SiO2 
 PCOD9525527
Probable space group: I B A M
;
_chemical_formula_sum "Si O2"
_cell_formula_units_Z 64
_cell_length_a 23.940022
_cell_length_b 9.146633
_cell_length_c 11.077544
_cell_angle_alpha 90.000000
_cell_angle_beta 90.000000
_cell_angle_gamma 90.000000
_cell_volume 2425.656404
_symmetry_space_group_name_H-M "I B A M"
_symmetry_group_IT_number 72
_symmetry_cell_setting 'orthorhombic'
loop_
_space_group_symop_operation_xyz
x,y,z
-x,-y,z
x,-y,1/2-z
-x,y,1/2-z
-x,-y,-z
x,y,-z
-x,y,1/2+z
x,-y,1/2+z
1/2+x,1/2+y,1/2+z
1/2-x,1/2-y,1/2+z
1/2+x,1/2-y,-z
1/2-x,1/2+y,-z
1/2-x,1/2-y,1/2-z
1/2+x,1/2+y,1/2-z
1/2-x,1/2+y,z
1/2+x,1/2-y,z
loop_
_atom_site_type_symbol
_atom_site_label
_atom_site_fract_x
_atom_site_fract_y
_atom_site_fract_z
Si Si1 0.335874 0.336383 0.500000
Si Si2 0.892317 0.481135 0.500000
Si Si3 0.525692 0.335745 0.367901
Si Si4 0.649477 0.316146 0.727278
Si Si5 0.206518 0.271705 0.500000
Si Si6 0.607582 0.000000 0.250000
O O1 0.370458 0.184627 0.500000
O O2 0.347830 0.391331 0.639946
O O3 0.269541 0.322717 0.500000
O O4 0.839180 0.595119 0.500000
O O5 0.923885 0.509173 0.624134
O O6 0.500000 0.500000 0.371994
O O7 0.500000 0.261394 0.250000
O O8 0.514748 0.272903 0.500000
O O9 0.590915 0.346070 0.339521
O O10 0.696083 0.320331 0.622703
O O11 0.646105 0.142843 0.757992
#
# Coordination Sequence:
#
# PCOD9525527 Si02
#       6
#     8   8  16  16   8   8
#     4  10  20  32  54  88 120 152 203 258 311 381
#     4   8  16  30  46  72 107 150 189 234 290 358
#     4  10  22  41  63  85 115 159 207 252 304 372
#     4  10  19  36  58  86 118 161 204 257 318 375
#     4  10  18  34  56  82 118 160 201 254 319 373
#     4   8  16  30  55  76 108 146 188 234 299 360
#
# _framework density 26.384609000000001
#
# number of rings (size 3 to 8) (size 9 to 14) (size 15 to 20)
#    0.000    2.500    1.250    0.750    1.750    0.000 
#    0.000    5.625    0.000    1.500    0.000    0.000 
#    0.000    0.000    0.000    0.000    0.000    0.000 
#
# Total GULP energy -178590.485925 kJ/mol
# GULP energy per Si atom -5580.952685 kJ/mol
# Density = 2.632456 g / cm^3
# Si number density = 26.384609 Si / 1000 Ang^3
#
#
#
# Elastic Constant Matrix: (Units=GPa)
#
#
# Indices 1 2 3 4 5 6 
#
# 1 85.6613 2.7709 28.8027 0.0000 0.0000 0.0000
# 2 2.7709 65.1447 -21.7822 0.0000 0.0000 0.0000
# 3 28.8027 -21.7822 346.2965 0.0000 0.0000 0.0000
# 4 0.0000 0.0000 0.0000 -37.9808 0.0000 0.0000
# 5 0.0000 0.0000 0.0000 0.0000 41.9456 0.0000
# 6 0.0000 0.0000 0.0000 0.0000 0.0000 26.8877
#
#
#
# Elastic Compliance Matrix: (Units=1/GPa)
#
#
# Indices 1 2 3 4 5 6 
#
# 1 0.012057 -0.000866 -0.001057 0.000000 0.000000 0.000000
# 2 -0.000866 0.015742 0.001062 0.000000 0.000000 0.000000
# 3 -0.001057 0.001062 0.003042 0.000000 0.000000 0.000000
# 4 0.000000 0.000000 0.000000 -0.026329 0.000000 0.000000
# 5 0.000000 0.000000 0.000000 0.000000 0.023840 0.000000
# 6 0.000000 0.000000 0.000000 0.000000 0.000000 0.037192
#
#
# Mechanical properties :
#
#
# Convention : Reuss Voigt Hill
#
# Bulk Modulus (GPa) = 34.34138 57.40947 45.87543
# Shear Modulus (GPa) = 64.95633 38.65793 51.80713
#
# Velocity S-wave (km/s) = 4.96714 3.83191 4.43599
# Velocity P-wave (km/s) = 6.77795 6.43303 6.60774
#
# Compressibility (1/GPa) = 0.02911939
#
# Stress axis : x y z
#
# Youngs Moduli (GPa) = 82.93640 63.52242 328.68137
#
# Poissons Ratio (x) = 0.05504 0.34753
# Poissons Ratio (y) = 0.07186 -0.34915
# Poissons Ratio (z) = 0.08769 -0.06748
#
# Static dielectric constant tensor:
#      x y z
#    x 1.944200 0.000000 0.000000 
#    y 0.000000 2.243660 0.000000 
#    z 0.000000 0.000000 2.213310 
# 
# From -- ./inp_files/11391.got.cif
#   From: 2010.05.17/outbox.cif.g08.bks.cpg/sg72_6_cif.got.tgz:11391.got - 2010.06.03 17:03:01.
