data_PCOD9525278
_publ_section_title
;
Structure prediction by ZEFSAII (Michael W. Deem and Ramdas Pophale) SiO2 
 PCOD9525278
Probable space group: I B A M
;
_chemical_formula_sum "Si O2"
_cell_formula_units_Z 80
_cell_length_a 31.203665
_cell_length_b 5.563197
_cell_length_c 19.209536
_cell_angle_alpha 90.000000
_cell_angle_beta 90.000000
_cell_angle_gamma 90.000000
_cell_volume 3334.624377
_symmetry_space_group_name_H-M "I B A M"
_symmetry_group_IT_number 72
_symmetry_cell_setting 'orthorhombic'
loop_
_space_group_symop_operation_xyz
x,y,z
-x,-y,z
x,-y,1/2-z
-x,y,1/2-z
-x,-y,-z
x,y,-z
-x,y,1/2+z
x,-y,1/2+z
1/2+x,1/2+y,1/2+z
1/2-x,1/2-y,1/2+z
1/2+x,1/2-y,-z
1/2-x,1/2+y,-z
1/2-x,1/2-y,1/2-z
1/2+x,1/2+y,1/2-z
1/2-x,1/2+y,z
1/2+x,1/2-y,z
loop_
_atom_site_type_symbol
_atom_site_label
_atom_site_fract_x
_atom_site_fract_y
_atom_site_fract_z
Si Si1 0.382956 0.733656 0.394610
Si Si2 0.644211 0.770683 0.621992
Si Si3 0.734813 0.939720 0.669771
Si Si4 0.016712 0.247785 0.580138
Si Si5 0.422367 0.750029 0.245287
O O1 0.357794 0.490526 0.413203
O O2 0.432137 0.731565 0.418638
O O3 0.387879 0.745869 0.309473
O O4 0.363026 0.983613 0.419679
O O5 0.687606 0.825238 0.663651
O O6 0.603792 0.754862 0.673957
O O7 0.762662 0.714196 0.639660
O O8 0.746304 0.000000 0.750000
O O9 0.000781 0.248472 0.500000
O O10 0.000000 0.500000 0.610202
O O11 0.000000 0.000000 0.612233
O O12 0.446354 0.500000 0.250000
O O13 0.446467 0.000000 0.250000
#
# Coordination Sequence:
#
# PCOD9525278 Si02
#       5
#    16  16  16  16  16
#     4  10  18  30  51  70  91 126 164 195 237 290
#     4  10  18  30  47  69  98 132 167 200 233 277
#     4  10  19  28  41  65 100 138 170 201 238 277
#     4  10  21  37  55  75  99 122 148 195 257 307
#     4   8  15  25  42  62  87 120 157 187 218 262
#
# _framework density 23.990708000000001
#
# number of rings (size 3 to 8) (size 9 to 14) (size 15 to 20)
#    0.000    2.400    0.000    4.200    0.000    5.600 
#    0.000    0.000    0.000   32.400    0.000    0.000 
#    0.000   16.000    0.000    0.000    0.000    0.000 
#
# Total GULP energy -222876.221843 kJ/mol
# GULP energy per Si atom -5571.905546 kJ/mol
# Density = 2.393610 g / cm^3
# Si number density = 23.990708 Si / 1000 Ang^3
#
#
#
# Elastic Constant Matrix: (Units=GPa)
#
#
# Indices 1 2 3 4 5 6 
#
# 1 70.3929 55.9980 -2.5020 0.0000 0.0000 0.0000
# 2 55.9980 349.2308 7.6247 0.0000 0.0000 0.0000
# 3 -2.5020 7.6247 59.8116 0.0000 0.0000 0.0000
# 4 0.0000 0.0000 0.0000 -21.1236 0.0000 0.0000
# 5 0.0000 0.0000 0.0000 0.0000 -47.8646 0.0000
# 6 0.0000 0.0000 0.0000 0.0000 0.0000 -21.4138
#
#
#
# Elastic Compliance Matrix: (Units=1/GPa)
#
#
# Indices 1 2 3 4 5 6 
#
# 1 0.016345 -0.002643 0.001021 0.000000 0.000000 0.000000
# 2 -0.002643 0.003299 -0.000531 0.000000 0.000000 0.000000
# 3 0.001021 -0.000531 0.016830 0.000000 0.000000 0.000000
# 4 0.000000 0.000000 0.000000 -0.047340 0.000000 0.000000
# 5 0.000000 0.000000 0.000000 0.000000 -0.020892 0.000000
# 6 0.000000 0.000000 0.000000 0.000000 0.000000 -0.046699
#
#
# Mechanical properties :
#
#
# Convention : Reuss Voigt Hill
#
# Bulk Modulus (GPa) = 31.08859 66.85298 48.97078
# Shear Modulus (GPa) = -78.82819 9.80724 -34.51047
#
# Velocity S-wave (km/s) = -5.73839 2.02406 -3.79686
# Velocity P-wave (km/s) = 5.56047 5.77833 1.11138
#
# Compressibility (1/GPa) = 0.03216614
#
# Stress axis : x y z
#
# Youngs Moduli (GPa) = 61.18128 303.13610 59.41929
#
# Poissons Ratio (x) = 0.80123 -0.06065
# Poissons Ratio (y) = 0.16171 0.03156
# Poissons Ratio (z) = -0.06245 0.16099
#
# Static dielectric constant tensor:
#      x y z
#    x 1.858170 0.000000 0.000000 
#    y 0.000000 2.092330 0.000000 
#    z 0.000000 0.000000 1.926780 
# 
# From -- ./inp_files/49822.got.cif
#   From: 2010.05.17/outbox.cif.g08.bks.cpg/sg72_25_cif.got.tgz:49822.got - 2010.06.03 17:03:01.
