data_PCOD9525596
_publ_section_title
;
Structure prediction by ZEFSAII (Michael W. Deem and Ramdas Pophale) SiO2 
 PCOD9525596
Probable space group: I B A M
;
_chemical_formula_sum "Si O2"
_cell_formula_units_Z 88
_cell_length_a 12.393601
_cell_length_b 12.048912
_cell_length_c 26.663392
_cell_angle_alpha 90.000000
_cell_angle_beta 90.000000
_cell_angle_gamma 90.000000
_cell_volume 3981.628538
_symmetry_space_group_name_H-M "I B A M"
_symmetry_group_IT_number 72
_symmetry_cell_setting 'orthorhombic'
loop_
_space_group_symop_operation_xyz
x,y,z
-x,-y,z
x,-y,1/2-z
-x,y,1/2-z
-x,-y,-z
x,y,-z
-x,y,1/2+z
x,-y,1/2+z
1/2+x,1/2+y,1/2+z
1/2-x,1/2-y,1/2+z
1/2+x,1/2-y,-z
1/2-x,1/2+y,-z
1/2-x,1/2-y,1/2-z
1/2+x,1/2+y,1/2-z
1/2-x,1/2+y,z
1/2+x,1/2-y,z
loop_
_atom_site_type_symbol
_atom_site_label
_atom_site_fract_x
_atom_site_fract_y
_atom_site_fract_z
Si Si1 0.646060 0.065632 0.611877
Si Si2 0.188751 0.000000 0.750000
Si Si3 0.594646 0.306737 0.609806
Si Si4 0.186250 0.802414 0.000000
Si Si5 0.689430 0.042371 0.500000
Si Si6 0.379517 0.622204 0.845612
Si Si7 0.806152 0.363944 0.674003
O O1 0.584466 0.177890 0.625153
O O2 0.629288 0.039743 0.553413
O O3 0.774184 0.093984 0.620810
O O4 0.626832 0.962019 0.647809
O O5 0.122608 0.955243 0.703047
O O6 0.264952 0.903800 0.772085
O O7 0.618067 0.306880 0.550862
O O8 0.489498 0.374998 0.623901
O O9 0.700145 0.349749 0.638728
O O10 0.236835 0.673662 0.000000
O O11 0.249693 0.921464 0.000000
O O12 0.362827 0.746722 0.825519
#
# Coordination Sequence:
#
# PCOD9525596 Si02
#       7
#    16   8  16   8   8  16  16
#     4   9  20  36  59  87 121 166 206 251 311 372
#     4  10  22  39  62  87 112 162 210 261 326 383
#     4  10  21  37  58  91 125 161 203 253 316 376
#     4  10  20  37  64  95 133 169 219 258 313 382
#     4  10  18  37  62  91 127 175 209 260 304 374
#     4  10  22  38  60  87 122 158 202 267 319 375
#     4  10  20  39  60  84 119 156 207 257 312 379
#
# _framework density 22.101509
#
# number of rings (size 3 to 8) (size 9 to 14) (size 15 to 20)
#    0.000    2.182    1.818    0.545    0.000    5.818 
#    0.000    2.727    0.000   13.091    0.000    0.000 
#    0.000    0.000    0.000    0.000    0.000    0.000 
#
# Total GULP energy -245542.872578 kJ/mol
# GULP energy per Si atom -5580.519831 kJ/mol
# Density = 2.205120 g / cm^3
# Si number density = 22.101509 Si / 1000 Ang^3
#
#
#
# Elastic Constant Matrix: (Units=GPa)
#
#
# Indices 1 2 3 4 5 6 
#
# 1 69.8277 23.7637 15.0170 0.0000 0.0000 0.0000
# 2 23.7637 161.1415 9.8574 0.0000 0.0000 0.0000
# 3 15.0170 9.8574 87.3933 0.0000 0.0000 0.0000
# 4 0.0000 0.0000 0.0000 42.2789 0.0000 0.0000
# 5 0.0000 0.0000 0.0000 0.0000 -61.4989 0.0000
# 6 0.0000 0.0000 0.0000 0.0000 0.0000 22.5281
#
#
#
# Elastic Compliance Matrix: (Units=1/GPa)
#
#
# Indices 1 2 3 4 5 6 
#
# 1 0.015575 -0.002148 -0.002434 0.000000 0.000000 0.000000
# 2 -0.002148 0.006545 -0.000369 0.000000 0.000000 0.000000
# 3 -0.002434 -0.000369 0.011902 0.000000 0.000000 0.000000
# 4 0.000000 0.000000 0.000000 0.023652 0.000000 0.000000
# 5 0.000000 0.000000 0.000000 0.000000 -0.016260 0.000000
# 6 0.000000 0.000000 0.000000 0.000000 0.000000 0.044389
#
#
# Mechanical properties :
#
#
# Convention : Reuss Voigt Hill
#
# Bulk Modulus (GPa) = 41.45862 46.18208 43.82035
# Shear Modulus (GPa) = 48.19436 18.64324 33.41880
#
# Velocity S-wave (km/s) = 4.67475 2.90751 3.89274
# Velocity P-wave (km/s) = 6.92363 5.67558 6.33044
#
# Compressibility (1/GPa) = 0.02412044
#
# Stress axis : x y z
#
# Youngs Moduli (GPa) = 64.20366 152.78648 84.01653
#
# Poissons Ratio (x) = 0.32819 0.20450
# Poissons Ratio (y) = 0.13791 0.03101
# Poissons Ratio (z) = 0.15628 0.05640
#
# Static dielectric constant tensor:
#      x y z
#    x 1.841510 0.000000 0.000000 
#    y 0.000000 1.884030 0.000000 
#    z 0.000000 0.000000 1.737720 
# 
# From -- ./inp_files/48628.got.cif
#   From: 2010.05.17/outbox.cif.g08.bks.cpg/sg72_25_cif.got.tgz:48628.got - 2010.06.03 17:03:01.
