data_PCOD9525999
_publ_section_title
;
Structure prediction by ZEFSAII (Michael W. Deem and Ramdas Pophale) SiO2 
 PCOD9525999
Probable space group: I B A M
;
_chemical_formula_sum "Si O2"
_cell_formula_units_Z 128
_cell_length_a 22.796342
_cell_length_b 12.419897
_cell_length_c 26.336996
_cell_angle_alpha 90.000000
_cell_angle_beta 90.000000
_cell_angle_gamma 90.000000
_cell_volume 7456.746788
_symmetry_space_group_name_H-M "I B A M"
_symmetry_group_IT_number 72
_symmetry_cell_setting 'orthorhombic'
loop_
_space_group_symop_operation_xyz
x,y,z
-x,-y,z
x,-y,1/2-z
-x,y,1/2-z
-x,-y,-z
x,y,-z
-x,y,1/2+z
x,-y,1/2+z
1/2+x,1/2+y,1/2+z
1/2-x,1/2-y,1/2+z
1/2+x,1/2-y,-z
1/2-x,1/2+y,-z
1/2-x,1/2-y,1/2-z
1/2+x,1/2+y,1/2-z
1/2-x,1/2+y,z
1/2+x,1/2-y,z
loop_
_atom_site_type_symbol
_atom_site_label
_atom_site_fract_x
_atom_site_fract_y
_atom_site_fract_z
Si Si1 0.336944 0.827484 0.557452
Si Si2 0.464400 0.243601 0.302393
Si Si3 0.566933 0.967247 0.348827
Si Si4 0.083810 0.706847 0.853468
Si Si5 0.675465 0.372191 0.693824
Si Si6 0.651624 0.620481 0.689389
Si Si7 0.768399 0.272685 0.378511
Si Si8 0.145363 0.419175 0.942114
O O1 0.336289 0.786542 0.500000
O O2 0.395318 0.794196 0.588229
O O3 0.282476 0.785545 0.589852
O O4 0.334712 0.956632 0.556126
O O5 0.500000 0.253222 0.250000
O O6 0.432366 0.127195 0.307225
O O7 0.516535 0.239678 0.344009
O O8 0.414882 0.333898 0.308791
O O9 0.593499 0.920215 0.400638
O O10 0.500000 0.000000 0.357527
O O11 0.594994 0.082966 0.335231
O O12 0.125885 0.787990 0.823775
O O13 0.655324 0.492953 0.679705
O O14 0.679363 0.364051 0.754548
O O15 0.735172 0.342482 0.664600
O O16 0.688627 0.688452 0.648895
O O17 0.804806 0.345980 0.417241
O O18 0.130477 0.386969 0.000000
#
# Coordination Sequence:
#
# PCOD9525999 Si02
#       8
#    16  16  16  16  16  16  16  16
#     4   9  19  35  56  80 108 145 189 229 278 339
#     4  11  20  36  57  82 113 148 188 227 281 331
#     4   9  19  34  54  80 114 142 182 231 278 334
#     4   9  19  35  55  80 110 146 186 227 276 325
#     4  10  22  38  54  82 112 150 192 227 276 338
#     4  11  22  37  57  81 115 147 189 232 276 336
#     4  11  20  36  57  79 113 145 184 235 283 325
#     4  10  19  33  54  82 109 140 182 228 285 333
#
# _framework density 17.165662000000001
#
# number of rings (size 3 to 8) (size 9 to 14) (size 15 to 20)
#    0.000    2.000    2.500    1.500    0.000    3.000 
#    0.000    1.875    0.000    0.750    0.000    3.500 
#    0.000    0.000    0.000    0.000    0.000    0.000 
#
# Total GULP energy -356716.029082 kJ/mol
# GULP energy per Si atom -5573.687954 kJ/mol
# Density = 1.712659 g / cm^3
# Si number density = 17.165662 Si / 1000 Ang^3
#
#
#
# Elastic Constant Matrix: (Units=GPa)
#
#
# Indices 1 2 3 4 5 6 
#
# 1 49.3767 41.4259 39.0222 0.0000 0.0000 0.0000
# 2 41.4259 76.3590 40.3913 0.0000 0.0000 0.0000
# 3 39.0222 40.3913 89.6722 0.0000 0.0000 0.0000
# 4 0.0000 0.0000 0.0000 22.9216 0.0000 0.0000
# 5 0.0000 0.0000 0.0000 0.0000 16.7408 0.0000
# 6 0.0000 0.0000 0.0000 0.0000 0.0000 27.6460
#
#
#
# Elastic Compliance Matrix: (Units=1/GPa)
#
#
# Indices 1 2 3 4 5 6 
#
# 1 0.044215 -0.018129 -0.011075 0.000000 0.000000 0.000000
# 2 -0.018129 0.024626 -0.003203 0.000000 0.000000 0.000000
# 3 -0.011075 -0.003203 0.017414 0.000000 0.000000 0.000000
# 4 0.000000 0.000000 0.000000 0.043627 0.000000 0.000000
# 5 0.000000 0.000000 0.000000 0.000000 0.059734 0.000000
# 6 0.000000 0.000000 0.000000 0.000000 0.000000 0.036172
#
#
# Mechanical properties :
#
#
# Convention : Reuss Voigt Hill
#
# Bulk Modulus (GPa) = 46.64081 50.78741 48.71411
# Shear Modulus (GPa) = 16.79278 19.76626 18.27952
#
# Velocity S-wave (km/s) = 3.13114 3.39706 3.26680
# Velocity P-wave (km/s) = 6.34839 6.71100 6.53221
#
# Compressibility (1/GPa) = 0.02144045
#
# Stress axis : x y z
#
# Youngs Moduli (GPa) = 22.61701 40.60817 57.42557
#
# Poissons Ratio (x) = 0.73618 0.63597
# Poissons Ratio (y) = 0.41002 0.18394
# Poissons Ratio (z) = 0.25048 0.13007
#
# Static dielectric constant tensor:
#      x y z
#    x 1.579880 0.000000 0.000000 
#    y 0.000000 1.591430 0.000000 
#    z 0.000000 0.000000 1.590970 
# 
# From -- ./inp_files/43667.got.cif
#   From: 2010.05.17/outbox.cif.g08.bks.cpg/sg72_22_cif.got.tgz:43667.got - 2010.06.03 17:03:01.
