data_PCOD9525983
_publ_section_title
;
Structure prediction by ZEFSAII (Michael W. Deem and Ramdas Pophale) SiO2 
 PCOD9525983
Probable space group: I B A M
;
_chemical_formula_sum "Si O2"
_cell_formula_units_Z 112
_cell_length_a 29.820000
_cell_length_b 15.281581
_cell_length_c 14.390237
_cell_angle_alpha 90.000000
_cell_angle_beta 90.000000
_cell_angle_gamma 90.000000
_cell_volume 6557.584167
_symmetry_space_group_name_H-M "I B A M"
_symmetry_group_IT_number 72
_symmetry_cell_setting 'orthorhombic'
loop_
_space_group_symop_operation_xyz
x,y,z
-x,-y,z
x,-y,1/2-z
-x,y,1/2-z
-x,-y,-z
x,y,-z
-x,y,1/2+z
x,-y,1/2+z
1/2+x,1/2+y,1/2+z
1/2-x,1/2-y,1/2+z
1/2+x,1/2-y,-z
1/2-x,1/2+y,-z
1/2-x,1/2-y,1/2-z
1/2+x,1/2+y,1/2-z
1/2-x,1/2+y,z
1/2+x,1/2-y,z
loop_
_atom_site_type_symbol
_atom_site_label
_atom_site_fract_x
_atom_site_fract_y
_atom_site_fract_z
Si Si1 0.450026 0.850033 0.744192
Si Si2 0.356283 0.229720 0.775946
Si Si3 0.330836 0.956160 0.649420
Si Si4 0.571137 0.994686 0.604355
Si Si5 0.700446 0.360356 0.387609
Si Si6 0.270584 0.547652 0.105673
Si Si7 0.290054 0.745563 0.111673
O O1 0.500000 0.813232 0.750000
O O2 0.409404 0.782118 0.735605
O O3 0.446381 0.919535 0.658995
O O4 0.441218 0.911129 0.833931
O O5 0.339940 0.146317 0.835868
O O6 0.339244 0.313605 0.832131
O O7 0.330925 0.224819 0.676768
O O8 0.374800 0.996500 0.603255
O O9 0.282763 0.968220 0.604305
O O10 0.328318 0.000000 0.750000
O O11 0.554309 0.989774 0.500000
O O12 0.693464 0.358511 0.500000
O O13 0.707894 0.459824 0.354014
O O14 0.746240 0.305138 0.370703
O O15 0.279362 0.645236 0.141950
O O16 0.287105 0.551327 0.000000
O O17 0.298744 0.749388 0.000000
#
# Coordination Sequence:
#
# PCOD9525983 Si02
#       7
#    16  16  16  16  16  16  16
#     4  10  22  38  51  74 104 131 178 230 270 316
#     4  11  21  35  52  74 103 141 174 217 266 307
#     4  11  19  31  48  77 107 144 179 211 248 304
#     4  10  19  33  54  76 104 140 176 215 262 314
#     4  10  21  34  52  78 107 139 177 216 255 310
#     4  10  21  33  49  75 110 148 181 213 253 307
#     4  10  21  35  50  75 110 143 177 216 254 308
#
# _framework density 17.079460000000001
#
# number of rings (size 3 to 8) (size 9 to 14) (size 15 to 20)
#    0.000    1.714    4.286    2.571    2.000    4.000 
#    0.000    0.000    0.000    0.000    0.000    2.000 
#    0.000    3.429    0.000    0.000    0.000    0.000 
#
# Total GULP energy -312533.310286 kJ/mol
# GULP energy per Si atom -5580.951969 kJ/mol
# Density = 1.704059 g / cm^3
# Si number density = 17.079460 Si / 1000 Ang^3
#
#
#
# Elastic Constant Matrix: (Units=GPa)
#
#
# Indices 1 2 3 4 5 6 
#
# 1 119.0911 32.6592 25.7876 0.0000 0.0000 0.0000
# 2 32.6592 73.3832 22.0202 0.0000 0.0000 0.0000
# 3 25.7876 22.0202 88.9766 0.0000 0.0000 0.0000
# 4 0.0000 0.0000 0.0000 3.4088 0.0000 0.0000
# 5 0.0000 0.0000 0.0000 0.0000 -89.7997 0.0000
# 6 0.0000 0.0000 0.0000 0.0000 0.0000 16.2876
#
#
#
# Elastic Compliance Matrix: (Units=1/GPa)
#
#
# Indices 1 2 3 4 5 6 
#
# 1 0.009857 -0.003813 -0.001913 0.000000 0.000000 0.000000
# 2 -0.003813 0.016195 -0.002903 0.000000 0.000000 0.000000
# 3 -0.001913 -0.002903 0.012512 0.000000 0.000000 0.000000
# 4 0.000000 0.000000 0.000000 0.293362 0.000000 0.000000
# 5 0.000000 0.000000 0.000000 0.000000 -0.011136 0.000000
# 6 0.000000 0.000000 0.000000 0.000000 0.000000 0.061396
#
#
# Mechanical properties :
#
#
# Convention : Reuss Voigt Hill
#
# Bulk Modulus (GPa) = 46.93516 49.15389 48.04453
# Shear Modulus (GPa) = 12.29874 -0.62173 5.83851
#
# Velocity S-wave (km/s) = 2.68636 -0.60400 1.85091
# Velocity P-wave (km/s) = 6.09608 5.32500 5.72354
#
# Compressibility (1/GPa) = 0.02130599
#
# Stress axis : x y z
#
# Youngs Moduli (GPa) = 101.45300 61.74734 79.92438
#
# Poissons Ratio (x) = 0.23542 0.15291
# Poissons Ratio (y) = 0.38681 0.23202
# Poissons Ratio (z) = 0.19410 0.17925
#
# Static dielectric constant tensor:
#      x y z
#    x 1.572490 0.000000 0.000000 
#    y 0.000000 1.598710 0.000000 
#    z 0.000000 0.000000 1.624590 
# 
# From -- ./inp_files/25948.got.cif
#   From: 2010.05.17/outbox.cif.g08.bks.cpg/sg72_13_cif.got.tgz:25948.got - 2010.06.03 17:03:01.
