data_PCOD9525689
_publ_section_title
;
Structure prediction by ZEFSAII (Michael W. Deem and Ramdas Pophale) SiO2 
 PCOD9525689
Probable space group: I B A M
;
_chemical_formula_sum "Si O2"
_cell_formula_units_Z 112
_cell_length_a 23.999322
_cell_length_b 12.187584
_cell_length_c 23.223161
_cell_angle_alpha 90.000000
_cell_angle_beta 90.000000
_cell_angle_gamma 90.000000
_cell_volume 6792.629513
_symmetry_space_group_name_H-M "I B A M"
_symmetry_group_IT_number 72
_symmetry_cell_setting 'orthorhombic'
loop_
_space_group_symop_operation_xyz
x,y,z
-x,-y,z
x,-y,1/2-z
-x,y,1/2-z
-x,-y,-z
x,y,-z
-x,y,1/2+z
x,-y,1/2+z
1/2+x,1/2+y,1/2+z
1/2-x,1/2-y,1/2+z
1/2+x,1/2-y,-z
1/2-x,1/2+y,-z
1/2-x,1/2-y,1/2-z
1/2+x,1/2+y,1/2-z
1/2-x,1/2+y,z
1/2+x,1/2-y,z
loop_
_atom_site_type_symbol
_atom_site_label
_atom_site_fract_x
_atom_site_fract_y
_atom_site_fract_z
Si Si1 0.157634 0.621693 0.569604
Si Si2 0.783637 0.829480 0.569683
Si Si3 0.362741 0.132647 0.069174
Si Si4 0.419681 0.705810 0.132474
Si Si5 0.567336 0.626092 0.244693
Si Si6 0.882818 0.013531 0.932377
Si Si7 0.552381 0.291530 0.619318
O O1 0.152448 0.636419 0.500000
O O2 0.220095 0.656384 0.587572
O O3 0.149060 0.493297 0.582524
O O4 0.113309 0.696076 0.602589
O O5 0.783299 0.830119 0.500000
O O6 0.813195 0.715892 0.587256
O O7 0.824490 0.929784 0.586035
O O8 0.418427 0.181611 0.097081
O O9 0.367760 0.141869 0.000000
O O10 0.410896 0.694824 0.201119
O O11 0.398991 0.592486 0.103785
O O12 0.485995 0.715925 0.122316
O O13 0.586948 0.500000 0.250000
O O14 0.500000 0.622360 0.250000
O O15 0.576892 0.676403 0.182001
O O16 0.928420 0.108905 0.921962
O O17 0.879682 0.986091 0.000000
#
# Coordination Sequence:
#
# PCOD9525689 Si02
#       7
#    16  16  16  16  16  16  16
#     4  10  21  34  51  78 109 141 174 216 262 311
#     4   8  17  33  52  73 101 138 179 213 252 311
#     4   9  19  35  53  74 105 145 174 203 264 325
#     4  11  21  31  51  83 106 132 178 220 262 311
#     4   9  17  33  53  74 102 137 175 215 260 309
#     4  10  19  30  50  80 107 135 168 214 268 312
#     4  10  19  34  53  75 106 140 175 215 262 315
#
# _framework density 16.48846
#
# number of rings (size 3 to 8) (size 9 to 14) (size 15 to 20)
#    0.000    2.429    1.429    2.143    2.000    3.429 
#    0.000    2.143    0.000    6.000    7.429    0.000 
#    0.000    0.000    0.000    0.000    0.000    0.000 
#
# Total GULP energy -312148.752808 kJ/mol
# GULP energy per Si atom -5574.084872 kJ/mol
# Density = 1.645093 g / cm^3
# Si number density = 16.488460 Si / 1000 Ang^3
#
#
#
# Elastic Constant Matrix: (Units=GPa)
#
#
# Indices 1 2 3 4 5 6 
#
# 1 84.7897 64.3745 35.0388 0.0000 0.0000 0.0000
# 2 64.3745 105.9300 38.9957 0.0000 0.0000 0.0000
# 3 35.0388 38.9957 56.1243 0.0000 0.0000 0.0000
# 4 0.0000 0.0000 0.0000 19.0742 0.0000 0.0000
# 5 0.0000 0.0000 0.0000 0.0000 3.8080 0.0000
# 6 0.0000 0.0000 0.0000 0.0000 0.0000 11.5218
#
#
#
# Elastic Compliance Matrix: (Units=1/GPa)
#
#
# Indices 1 2 3 4 5 6 
#
# 1 0.023480 -0.011922 -0.006375 0.000000 0.000000 0.000000
# 2 -0.011922 0.018738 -0.005576 0.000000 0.000000 0.000000
# 3 -0.006375 -0.005576 0.025672 0.000000 0.000000 0.000000
# 4 0.000000 0.000000 0.000000 0.052427 0.000000 0.000000
# 5 0.000000 0.000000 0.000000 0.000000 0.262604 0.000000
# 6 0.000000 0.000000 0.000000 0.000000 0.000000 0.086792
#
#
# Mechanical properties :
#
#
# Convention : Reuss Voigt Hill
#
# Bulk Modulus (GPa) = 49.64491 58.18465 53.91478
# Shear Modulus (GPa) = 9.53882 14.10982 11.82432
#
# Velocity S-wave (km/s) = 2.40784 2.92848 2.68083
# Velocity P-wave (km/s) = 6.15666 6.84100 6.50784
#
# Compressibility (1/GPa) = 0.02014305
#
# Stress axis : x y z
#
# Youngs Moduli (GPa) = 42.58968 53.36701 38.95272
#
# Poissons Ratio (x) = 0.63625 0.24833
# Poissons Ratio (y) = 0.50776 0.21722
# Poissons Ratio (z) = 0.27151 0.29760
#
# Static dielectric constant tensor:
#      x y z
#    x 1.555560 0.000000 0.000000 
#    y 0.000000 1.542980 0.000000 
#    z 0.000000 0.000000 1.553470 
# 
# From -- ./inp_files/43516.got.cif
#   From: 2010.05.17/outbox.cif.g08.bks.cpg/sg72_22_cif.got.tgz:43516.got - 2010.06.03 17:03:01.
