data_PCOD9525239
_publ_section_title
;
Structure prediction by ZEFSAII (Michael W. Deem and Ramdas Pophale) SiO2 
 PCOD9525239
Probable space group: I B A M
;
_chemical_formula_sum "Si O2"
_cell_formula_units_Z 112
_cell_length_a 16.534625
_cell_length_b 27.343543
_cell_length_c 14.251291
_cell_angle_alpha 90.000000
_cell_angle_beta 90.000000
_cell_angle_gamma 90.000000
_cell_volume 6443.225704
_symmetry_space_group_name_H-M "I B A M"
_symmetry_group_IT_number 72
_symmetry_cell_setting 'orthorhombic'
loop_
_space_group_symop_operation_xyz
x,y,z
-x,-y,z
x,-y,1/2-z
-x,y,1/2-z
-x,-y,-z
x,y,-z
-x,y,1/2+z
x,-y,1/2+z
1/2+x,1/2+y,1/2+z
1/2-x,1/2-y,1/2+z
1/2+x,1/2-y,-z
1/2-x,1/2+y,-z
1/2-x,1/2-y,1/2-z
1/2+x,1/2+y,1/2-z
1/2-x,1/2+y,z
1/2+x,1/2-y,z
loop_
_atom_site_type_symbol
_atom_site_label
_atom_site_fract_x
_atom_site_fract_y
_atom_site_fract_z
Si Si1 0.842032 0.539961 0.893666
Si Si2 0.216146 0.154896 0.888875
Si Si3 0.591657 0.287260 0.224220
Si Si4 0.963893 0.696749 0.107127
Si Si5 0.648196 0.236157 0.606740
Si Si6 0.678469 0.069206 0.321189
Si Si7 0.500360 0.914295 0.143948
O O1 0.817597 0.485251 0.863730
O O2 0.824488 0.568361 0.793873
O O3 0.938699 0.548641 0.903539
O O4 0.809694 0.551795 0.000000
O O5 0.134786 0.174287 0.841977
O O6 0.285296 0.195713 0.869265
O O7 0.248712 0.103921 0.850151
O O8 0.206832 0.151881 0.000000
O O9 0.500000 0.301135 0.250000
O O10 0.584111 0.234256 0.172715
O O11 0.644494 0.278850 0.317260
O O12 0.963081 0.640010 0.135041
O O13 0.058030 0.712917 0.110502
O O14 0.935573 0.701443 0.000000
O O15 0.662407 0.252680 0.500000
O O16 0.596186 0.089116 0.372587
O O17 0.500000 0.931982 0.250000
#
# Coordination Sequence:
#
# PCOD9525239 Si02
#       7
#    16  16  16  16  16  16  16
#     4  10  21  34  50  76 108 142 181 223 267 312
#     4  11  21  35  55  77 102 139 182 216 260 321
#     4  10  21  35  52  74 105 138 174 227 268 311
#     4  10  18  29  48  74 104 145 186 222 262 307
#     4   9  18  32  50  72 101 139 180 218 260 311
#     4  10  21  35  53  76 108 145 182 223 262 313
#     4  10  18  30  48  71 106 147 187 222 258 304
#
# _framework density 17.382597000000001
#
# number of rings (size 3 to 8) (size 9 to 14) (size 15 to 20)
#    0.000    2.000    1.429    3.429    2.000    4.571 
#    0.000    0.714    0.000    0.000    0.000    2.000 
#    0.000    5.714    0.000    0.000    0.000    0.000 
#
# Total GULP energy -311853.496756 kJ/mol
# GULP energy per Si atom -5568.812442 kJ/mol
# Density = 1.734303 g / cm^3
# Si number density = 17.382597 Si / 1000 Ang^3
#
#
#
# Elastic Constant Matrix: (Units=GPa)
#
#
# Indices 1 2 3 4 5 6 
#
# 1 47.2745 41.9926 35.3229 0.0000 -0.0001 0.0000
# 2 41.9926 71.5150 34.2031 0.0000 -0.0002 0.0000
# 3 35.3229 34.2031 113.3030 0.0001 -0.0013 0.0000
# 4 0.0000 0.0000 0.0001 7.6762 -0.0007 0.0000
# 5 -0.0001 -0.0002 -0.0013 -0.0007 642.8529 0.0000
# 6 0.0000 0.0000 0.0000 0.0000 0.0000 14.4852
#
#
#
# Elastic Compliance Matrix: (Units=1/GPa)
#
#
# Indices 1 2 3 4 5 6 
#
# 1 0.049452 -0.025320 -0.007774 0.000000 0.000000 0.000000
# 2 -0.025320 0.029306 -0.000953 0.000000 0.000000 0.000000
# 3 -0.007774 -0.000953 0.011537 0.000000 0.000000 0.000000
# 4 0.000000 0.000000 0.000000 0.130273 0.000000 0.000000
# 5 0.000000 0.000000 0.000000 0.000000 0.001556 0.000000
# 6 0.000000 0.000000 0.000000 0.000000 0.000000 0.069036
#
#
# Mechanical properties :
#
#
# Convention : Reuss Voigt Hill
#
# Bulk Modulus (GPa) = 45.04011 50.56997 47.80504
# Shear Modulus (GPa) = 13.63682 141.04111 77.33897
#
# Velocity S-wave (km/s) = 2.80395 9.01751 6.67748
# Velocity P-wave (km/s) = 6.03739 11.72928 9.32808
#
# Compressibility (1/GPa) = 0.02220243
#
# Stress axis : x y z
#
# Youngs Moduli (GPa) = 20.22148 34.12226 86.67661
#
# Poissons Ratio (x) = 0.86397 0.67380
# Poissons Ratio (y) = 0.51200 0.08262
# Poissons Ratio (z) = 0.15720 0.03253
#
# Static dielectric constant tensor:
#      x y z
#    x 1.593180 0.000000 0.000000 
#    y 0.000000 1.590090 0.000000 
#    z 0.000000 0.000000 1.753230 
# 
# From -- ./inp_files/22260.got.cif
#   From: 2010.05.17/outbox.cif.g08.bks.cpg/sg72_12_cif.got.tgz:22260.got - 2010.06.03 17:03:01.
