data_PCOD9525168
_publ_section_title
;
Structure prediction by ZEFSAII (Michael W. Deem and Ramdas Pophale) SiO2 
 PCOD9525168
Probable space group: I B A M
;
_chemical_formula_sum "Si O2"
_cell_formula_units_Z 96
_cell_length_a 21.597422
_cell_length_b 9.239334
_cell_length_c 27.705148
_cell_angle_alpha 90.000000
_cell_angle_beta 90.000000
_cell_angle_gamma 90.000000
_cell_volume 5528.445794
_symmetry_space_group_name_H-M "I B A M"
_symmetry_group_IT_number 72
_symmetry_cell_setting 'orthorhombic'
loop_
_space_group_symop_operation_xyz
x,y,z
-x,-y,z
x,-y,1/2-z
-x,y,1/2-z
-x,-y,-z
x,y,-z
-x,y,1/2+z
x,-y,1/2+z
1/2+x,1/2+y,1/2+z
1/2-x,1/2-y,1/2+z
1/2+x,1/2-y,-z
1/2-x,1/2+y,-z
1/2-x,1/2-y,1/2-z
1/2+x,1/2+y,1/2-z
1/2-x,1/2+y,z
1/2+x,1/2-y,z
loop_
_atom_site_type_symbol
_atom_site_label
_atom_site_fract_x
_atom_site_fract_y
_atom_site_fract_z
Si Si1 0.224562 0.884180 0.682860
Si Si2 0.323373 0.690735 0.714720
Si Si3 0.977679 0.231516 0.000000
Si Si4 0.127974 0.858172 0.603347
Si Si5 0.603823 0.541054 0.500000
Si Si6 0.989380 0.336667 0.603276
Si Si7 0.055057 0.095066 0.332197
O O1 0.294699 0.831009 0.689131
O O2 0.189429 0.809120 0.728282
O O3 0.190354 0.838922 0.633946
O O4 0.214633 0.054150 0.692565
O O5 0.394339 0.657337 0.704037
O O6 0.039047 0.130229 0.000000
O O7 0.983009 0.320407 0.950749
O O8 0.918459 0.125394 0.000000
O O9 0.137755 0.912809 0.548915
O O10 0.081789 0.720212 0.602755
O O11 0.090345 0.985742 0.631180
O O12 0.000000 0.500000 0.619657
O O13 0.025469 0.223982 0.637087
O O14 0.000000 0.000000 0.309866
#
# Coordination Sequence:
#
# PCOD9525168 Si02
#       7
#    16  16   8  16   8  16  16
#     4   9  18  33  52  73  94 124 171 210 254 302
#     4   9  18  33  53  74  96 128 170 217 256 305
#     4   9  15  26  44  67  95 130 168 203 244 301
#     4   9  17  30  48  69  94 131 166 201 249 305
#     4   9  14  26  50  67  91 130 169 201 239 306
#     4  10  18  27  43  71 102 129 164 211 256 295
#     4   9  17  31  49  70  99 133 169 205 257 314
#
# _framework density 17.364736000000001
#
# number of rings (size 3 to 8) (size 9 to 14) (size 15 to 20)
#    0.000    2.833    1.667    0.250    0.000    1.333 
#    0.000   14.167    0.000    6.000    0.000    0.000 
#    0.000    0.000    0.000    0.000    0.000    0.000 
#
# Total GULP energy -267410.819324 kJ/mol
# GULP energy per Si atom -5571.058736 kJ/mol
# Density = 1.732521 g / cm^3
# Si number density = 17.364736 Si / 1000 Ang^3
#
#
#
# Elastic Constant Matrix: (Units=GPa)
#
#
# Indices 1 2 3 4 5 6 
#
# 1 62.5715 9.4584 31.8377 0.0000 0.0000 0.0000
# 2 9.4584 48.0930 -0.6873 0.0000 0.0000 0.0000
# 3 31.8377 -0.6873 80.4846 0.0000 0.0000 0.0000
# 4 0.0000 0.0000 0.0000 12.5372 0.0000 0.0000
# 5 0.0000 0.0000 0.0000 0.0000 22.6465 0.0000
# 6 0.0000 0.0000 0.0000 0.0000 0.0000 20.7974
#
#
#
# Elastic Compliance Matrix: (Units=1/GPa)
#
#
# Indices 1 2 3 4 5 6 
#
# 1 0.020830 -0.004215 -0.008276 0.000000 0.000000 0.000000
# 2 -0.004215 0.021648 0.001852 0.000000 0.000000 0.000000
# 3 -0.008276 0.001852 0.015714 0.000000 0.000000 0.000000
# 4 0.000000 0.000000 0.000000 0.079762 0.000000 0.000000
# 5 0.000000 0.000000 0.000000 0.000000 0.044157 0.000000
# 6 0.000000 0.000000 0.000000 0.000000 0.000000 0.048083
#
#
# Mechanical properties :
#
#
# Convention : Reuss Voigt Hill
#
# Bulk Modulus (GPa) = 27.08882 30.26296 28.67589
# Shear Modulus (GPa) = 18.95544 21.23225 20.09385
#
# Velocity S-wave (km/s) = 3.30753 3.50054 3.40540
# Velocity P-wave (km/s) = 5.49728 5.81412 5.65792
#
# Compressibility (1/GPa) = 0.03691559
#
# Stress axis : x y z
#
# Youngs Moduli (GPa) = 48.00843 46.19273 63.63670
#
# Poissons Ratio (x) = 0.19469 0.52664
# Poissons Ratio (y) = 0.20235 -0.11786
# Poissons Ratio (z) = 0.39730 -0.08555
#
# Static dielectric constant tensor:
#      x y z
#    x 1.600370 0.000000 0.000000 
#    y 0.000000 1.600530 0.000000 
#    z 0.000000 0.000000 1.593260 
# 
# From -- ./inp_files/47529.got.cif
#   From: 2010.05.17/outbox.cif.g08.bks.cpg/sg72_24_cif.got.tgz:47529.got - 2010.06.03 17:03:01.
