data_PCOD9525727
_publ_section_title
;
Structure prediction by ZEFSAII (Michael W. Deem and Ramdas Pophale) SiO2 
 PCOD9525727
Probable space group: I B A M
;
_chemical_formula_sum "Si O2"
_cell_formula_units_Z 80
_cell_length_a 19.000346
_cell_length_b 27.340612
_cell_length_c 8.855171
_cell_angle_alpha 90.000000
_cell_angle_beta 90.000000
_cell_angle_gamma 90.000000
_cell_volume 4600.093864
_symmetry_space_group_name_H-M "I B A M"
_symmetry_group_IT_number 72
_symmetry_cell_setting 'orthorhombic'
loop_
_space_group_symop_operation_xyz
x,y,z
-x,-y,z
x,-y,1/2-z
-x,y,1/2-z
-x,-y,-z
x,y,-z
-x,y,1/2+z
x,-y,1/2+z
1/2+x,1/2+y,1/2+z
1/2-x,1/2-y,1/2+z
1/2+x,1/2-y,-z
1/2-x,1/2+y,-z
1/2-x,1/2-y,1/2-z
1/2+x,1/2+y,1/2-z
1/2-x,1/2+y,z
1/2+x,1/2-y,z
loop_
_atom_site_type_symbol
_atom_site_label
_atom_site_fract_x
_atom_site_fract_y
_atom_site_fract_z
Si Si1 0.362674 0.052671 0.319628
Si Si2 0.071957 0.945859 0.181162
Si Si3 0.074324 0.650776 0.181439
Si Si4 0.717853 0.605018 0.819964
Si Si5 0.718967 0.200930 0.679856
O O1 0.373353 0.052117 0.500000
O O2 0.406234 0.097178 0.246695
O O3 0.280737 0.066523 0.288876
O O4 0.379550 0.000000 0.250000
O O5 0.141860 0.916005 0.219876
O O6 0.000000 0.924669 0.250000
O O7 0.079265 0.000000 0.250000
O O8 0.066169 0.949090 0.000000
O O9 0.138646 0.686898 0.224178
O O10 0.000000 0.666351 0.250000
O O11 0.070755 0.648141 0.000000
O O12 0.735878 0.654514 0.733749
O O13 0.719521 0.614493 0.000000
O O14 0.720745 0.204829 0.500000
O O15 0.750000 0.250000 0.750000
#
# Coordination Sequence:
#
# PCOD9525727 Si02
#       5
#    16  16  16  16  16
#     4  10  19  32  51  76 106 140 175 213 253 300
#     4  10  19  31  48  72 103 139 175 213 256 306
#     4  10  21  37  56  80 107 137 171 209 253 303
#     4   9  19  34  52  74 102 135 173 215 259 306
#     4  10  21  37  59  82 104 131 168 212 258 307
#
# _framework density 17.39095
#
# number of rings (size 3 to 8) (size 9 to 14) (size 15 to 20)
#    0.000    2.200    0.000    3.600    0.000    5.200 
#    0.000    3.000    0.000    0.000    0.000    0.000 
#    0.000    0.000    0.000    0.000    0.000    0.000 
#
# Total GULP energy -223264.026417 kJ/mol
# GULP energy per Si atom -5581.600660 kJ/mol
# Density = 1.735137 g / cm^3
# Si number density = 17.390950 Si / 1000 Ang^3
#
#
#
# Elastic Constant Matrix: (Units=GPa)
#
#
# Indices 1 2 3 4 5 6 
#
# 1 145.2942 56.7781 53.9688 0.0000 0.0000 0.0000
# 2 56.7781 102.4510 44.3391 0.0000 0.0000 0.0000
# 3 53.9688 44.3391 56.8246 0.0000 0.0000 0.0000
# 4 0.0000 0.0000 0.0000 33.2482 0.0000 0.0000
# 5 0.0000 0.0000 0.0000 0.0000 29.5395 0.0000
# 6 0.0000 0.0000 0.0000 0.0000 0.0000 9.8066
#
#
#
# Elastic Compliance Matrix: (Units=1/GPa)
#
#
# Indices 1 2 3 4 5 6 
#
# 1 0.011005 -0.002379 -0.008596 0.000000 0.000000 0.000000
# 2 -0.002379 0.015252 -0.009641 0.000000 0.000000 0.000000
# 3 -0.008596 -0.009641 0.033285 0.000000 0.000000 0.000000
# 4 0.000000 0.000000 0.000000 0.030077 0.000000 0.000000
# 5 0.000000 0.000000 0.000000 0.000000 0.033853 0.000000
# 6 0.000000 0.000000 0.000000 0.000000 0.000000 0.101972
#
#
# Mechanical properties :
#
#
# Convention : Reuss Voigt Hill
#
# Bulk Modulus (GPa) = 54.61622 68.30463 61.46043
# Shear Modulus (GPa) = 18.32990 24.48445 21.40717
#
# Velocity S-wave (km/s) = 3.25004 3.75625 3.51228
# Velocity P-wave (km/s) = 6.74958 7.62717 7.20176
#
# Compressibility (1/GPa) = 0.01830958
#
# Stress axis : x y z
#
# Youngs Moduli (GPa) = 90.86715 65.56634 30.04373
#
# Poissons Ratio (x) = 0.15597 0.25825
# Poissons Ratio (y) = 0.21616 0.28966
# Poissons Ratio (z) = 0.78108 0.63215
#
# Static dielectric constant tensor:
#      x y z
#    x 1.606080 0.000000 0.000000 
#    y 0.000000 1.551030 0.000000 
#    z 0.000000 0.000000 1.582240 
# 
# From -- ./inp_files/4741.got.cif
#   From: 2010.05.17/outbox.cif.g08.bks.cpg/sg72_3_cif.got.tgz:4741.got - 2010.06.03 17:03:01.
