data_PCOD9525639
_publ_section_title
;
Structure prediction by ZEFSAII (Michael W. Deem and Ramdas Pophale) SiO2 
 PCOD9525639
Probable space group: I B A M
;
_chemical_formula_sum "Si O2"
_cell_formula_units_Z 112
_cell_length_a 21.013385
_cell_length_b 17.972815
_cell_length_c 16.609636
_cell_angle_alpha 90.000000
_cell_angle_beta 90.000000
_cell_angle_gamma 90.000000
_cell_volume 6272.955932
_symmetry_space_group_name_H-M "I B A M"
_symmetry_group_IT_number 72
_symmetry_cell_setting 'orthorhombic'
loop_
_space_group_symop_operation_xyz
x,y,z
-x,-y,z
x,-y,1/2-z
-x,y,1/2-z
-x,-y,-z
x,y,-z
-x,y,1/2+z
x,-y,1/2+z
1/2+x,1/2+y,1/2+z
1/2-x,1/2-y,1/2+z
1/2+x,1/2-y,-z
1/2-x,1/2+y,-z
1/2-x,1/2-y,1/2-z
1/2+x,1/2+y,1/2-z
1/2-x,1/2+y,z
1/2+x,1/2-y,z
loop_
_atom_site_type_symbol
_atom_site_label
_atom_site_fract_x
_atom_site_fract_y
_atom_site_fract_z
Si Si1 0.325747 0.674816 0.595679
Si Si2 0.313913 0.789242 0.837870
Si Si3 0.282132 0.361201 0.406670
Si Si4 0.306175 0.480773 0.158692
Si Si5 0.176509 0.564555 0.589742
Si Si6 0.060021 0.452251 0.405591
Si Si7 0.142420 0.324263 0.657809
O O1 0.313392 0.675411 0.500000
O O2 0.261295 0.695979 0.645013
O O3 0.342318 0.591406 0.623769
O O4 0.370633 0.743970 0.617331
O O5 0.319381 0.702361 0.857275
O O6 0.344515 0.850488 0.896663
O O7 0.338614 0.809986 0.750086
O O8 0.285687 0.341276 0.500000
O O9 0.309518 0.442809 0.390676
O O10 0.207174 0.358135 0.382292
O O11 0.322797 0.500000 0.250000
O O12 0.231607 0.457004 0.152141
O O13 0.204684 0.556850 0.500000
O O14 0.118519 0.509442 0.596449
O O15 0.048747 0.431764 0.500000
O O16 0.084598 0.380771 0.356909
O O17 0.000000 0.500000 0.375928
#
# Coordination Sequence:
#
# PCOD9525639 Si02
#       7
#    16  16  16  16  16  16  16
#     4  10  19  30  44  66  94 128 164 198 243 306
#     4  10  19  29  44  65  91 121 162 200 247 300
#     4  11  18  28  46  68  93 127 166 201 244 306
#     4  11  19  28  44  68  99 126 162 197 246 298
#     4  10  19  32  46  61  89 126 160 203 252 296
#     4  10  21  35  51  69  90 125 173 215 253 301
#     4  11  19  31  47  65  93 126 161 210 260 299
#
# _framework density 17.854420999999999
#
# number of rings (size 3 to 8) (size 9 to 14) (size 15 to 20)
#    0.000    1.571    1.429    9.857    0.000    0.000 
#    0.000    1.429    0.000    0.000    0.000    0.000 
#    0.000    1.143    0.000   12.286    0.000    5.429 
#
# Total GULP energy -312159.393396 kJ/mol
# GULP energy per Si atom -5574.274882 kJ/mol
# Density = 1.781378 g / cm^3
# Si number density = 17.854421 Si / 1000 Ang^3
#
#
#
# Elastic Constant Matrix: (Units=GPa)
#
#
# Indices 1 2 3 4 5 6 
#
# 1 25.7546 32.9243 31.1724 0.0000 0.0000 0.0000
# 2 32.9243 165.5078 39.3093 0.0000 0.0000 0.0000
# 3 31.1724 39.3093 82.8166 0.0000 0.0000 0.0000
# 4 0.0000 0.0000 0.0000 25.1388 0.0000 0.0000
# 5 0.0000 0.0000 0.0000 0.0000 18.0432 0.0000
# 6 0.0000 0.0000 0.0000 0.0000 0.0000 23.6416
#
#
#
# Elastic Compliance Matrix: (Units=1/GPa)
#
#
# Indices 1 2 3 4 5 6 
#
# 1 0.084866 -0.010476 -0.026971 0.000000 0.000000 0.000000
# 2 -0.010476 0.008103 0.000097 0.000000 0.000000 0.000000
# 3 -0.026971 0.000097 0.022181 0.000000 0.000000 0.000000
# 4 0.000000 0.000000 0.000000 0.039779 0.000000 0.000000
# 5 0.000000 0.000000 0.000000 0.000000 0.055423 0.000000
# 6 0.000000 0.000000 0.000000 0.000000 0.000000 0.042298
#
#
# Mechanical properties :
#
#
# Convention : Reuss Voigt Hill
#
# Bulk Modulus (GPa) = 24.72249 53.43231 39.07740
# Shear Modulus (GPa) = 14.66995 24.74292 19.70644
#
# Velocity S-wave (km/s) = 2.86954 3.72669 3.32585
# Velocity P-wave (km/s) = 4.98556 6.96486 6.05661
#
# Compressibility (1/GPa) = 0.04044899
#
# Stress axis : x y z
#
# Youngs Moduli (GPa) = 11.78332 123.41128 45.08431
#
# Poissons Ratio (x) = 1.29291 1.21597
# Poissons Ratio (y) = 0.12345 -0.00438
# Poissons Ratio (z) = 0.31781 -0.01200
#
# Static dielectric constant tensor:
#      x y z
#    x 1.589580 0.000000 0.000000 
#    y 0.000000 1.695980 0.000000 
#    z 0.000000 0.000000 1.647120 
# 
# From -- ./inp_files/33506.got.cif
#   From: 2010.05.17/outbox.cif.g08.bks.cpg/sg72_17_cif.got.tgz:33506.got - 2010.06.03 17:03:01.
