data_PCOD9525165
_publ_section_title
;
Structure prediction by ZEFSAII (Michael W. Deem and Ramdas Pophale) SiO2 
 PCOD9525165
Probable space group: I B A M
;
_chemical_formula_sum "Si O2"
_cell_formula_units_Z 128
_cell_length_a 21.307109
_cell_length_b 17.976670
_cell_length_c 19.033119
_cell_angle_alpha 90.000000
_cell_angle_beta 90.000000
_cell_angle_gamma 90.000000
_cell_volume 7290.272075
_symmetry_space_group_name_H-M "I B A M"
_symmetry_group_IT_number 72
_symmetry_cell_setting 'orthorhombic'
loop_
_space_group_symop_operation_xyz
x,y,z
-x,-y,z
x,-y,1/2-z
-x,y,1/2-z
-x,-y,-z
x,y,-z
-x,y,1/2+z
x,-y,1/2+z
1/2+x,1/2+y,1/2+z
1/2-x,1/2-y,1/2+z
1/2+x,1/2-y,-z
1/2-x,1/2+y,-z
1/2-x,1/2-y,1/2-z
1/2+x,1/2+y,1/2-z
1/2-x,1/2+y,z
1/2+x,1/2-y,z
loop_
_atom_site_type_symbol
_atom_site_label
_atom_site_fract_x
_atom_site_fract_y
_atom_site_fract_z
Si Si1 0.065814 0.413547 0.276573
Si Si2 0.223813 0.911545 0.417108
Si Si3 0.195781 0.078535 0.580386
Si Si4 0.572317 0.023264 0.578237
Si Si5 0.655736 0.117757 0.918260
Si Si6 0.681930 0.266681 0.156542
Si Si7 0.696386 0.318245 0.699504
Si Si8 0.297921 0.916959 0.720451
O O1 0.064428 0.500000 0.250000
O O2 0.070384 0.416276 0.360887
O O3 0.134708 0.384243 0.257894
O O4 0.000000 0.380416 0.250000
O O5 0.240190 0.906920 0.500000
O O6 0.184139 0.839896 0.392119
O O7 0.282263 0.915281 0.362532
O O8 0.188416 0.990517 0.406541
O O9 0.177674 0.095082 0.500000
O O10 0.271170 0.093513 0.586100
O O11 0.165823 0.133891 0.637426
O O12 0.594902 0.044441 0.500000
O O13 0.612565 0.951722 0.603547
O O14 0.500000 0.000000 0.572498
O O15 0.649504 0.196049 0.879125
O O16 0.640954 0.129893 0.000000
O O17 0.658080 0.285019 0.235241
O O18 0.755765 0.242380 0.166878
O O19 0.742742 0.374625 0.740223
O O20 0.296613 0.000000 0.750000
#
# Coordination Sequence:
#
# PCOD9525165 Si02
#       8
#    16  16  16  16  16  16  16  16
#     4  10  19  28  39  59  80 101 132 180 228 259
#     4  10  18  28  41  61  80 103 142 186 228 271
#     4   9  16  25  40  56  75 103 139 178 218 259
#     4  10  19  30  42  58  79 104 138 180 223 266
#     4   9  17  28  42  58  78 107 139 177 225 266
#     4   9  18  26  40  55  82 104 132 179 227 275
#     4   9  17  29  38  58  75 105 142 172 223 271
#     4  10  18  27  43  57  77 106 136 182 227 266
#
# _framework density 17.557644
#
# number of rings (size 3 to 8) (size 9 to 14) (size 15 to 20)
#    0.000    2.500    2.500    1.125    5.250    2.000 
#    0.000    0.000    0.000    0.000    0.000    0.000 
#    0.000    0.000    0.000    0.000    0.000    0.125 
#
# Total GULP energy -356405.843196 kJ/mol
# GULP energy per Si atom -5568.841300 kJ/mol
# Density = 1.751768 g / cm^3
# Si number density = 17.557644 Si / 1000 Ang^3
#
#
#
# Elastic Constant Matrix: (Units=GPa)
#
#
# Indices 1 2 3 4 5 6 
#
# 1 20.1431 0.1472 4.9422 0.0000 0.0000 0.0000
# 2 0.1472 86.9743 47.8669 0.0000 0.0000 0.0000
# 3 4.9422 47.8669 128.7542 0.0000 0.0000 0.0000
# 4 0.0000 0.0000 0.0000 27.7777 0.0000 0.0000
# 5 0.0000 0.0000 0.0000 0.0000 13.4442 0.0000
# 6 0.0000 0.0000 0.0000 0.0000 0.0000 6.8741
#
#
#
# Elastic Compliance Matrix: (Units=1/GPa)
#
#
# Indices 1 2 3 4 5 6 
#
# 1 0.050221 0.001227 -0.002384 0.000000 0.000000 0.000000
# 2 0.001227 0.014485 -0.005432 0.000000 0.000000 0.000000
# 3 -0.002384 -0.005432 0.009878 0.000000 0.000000 0.000000
# 4 0.000000 0.000000 0.000000 0.036000 0.000000 0.000000
# 5 0.000000 0.000000 0.000000 0.000000 0.074382 0.000000
# 6 0.000000 0.000000 0.000000 0.000000 0.000000 0.145474
#
#
# Mechanical properties :
#
#
# Convention : Reuss Voigt Hill
#
# Bulk Modulus (GPa) = 16.28518 37.97604 27.13061
# Shear Modulus (GPa) = 13.73300 21.81353 17.77326
#
# Velocity S-wave (km/s) = 2.79976 3.52859 3.18509
# Velocity P-wave (km/s) = 4.44375 6.18688 5.38630
#
# Compressibility (1/GPa) = 0.06140552
#
# Stress axis : x y z
#
# Youngs Moduli (GPa) = 19.91206 69.03569 101.23718
#
# Poissons Ratio (x) = -0.08470 0.24133
# Poissons Ratio (y) = -0.02443 0.54995
# Poissons Ratio (z) = 0.04747 0.37502
#
# Static dielectric constant tensor:
#      x y z
#    x 1.589550 0.000000 0.000000 
#    y 0.000000 1.644780 0.000000 
#    z 0.000000 0.000000 1.724030 
# 
# From -- ./inp_files/40494.got.cif
#   From: 2010.05.17/outbox.cif.g08.bks.cpg/sg72_21_cif.got.tgz:40494.got - 2010.06.03 17:03:01.
