data_PCOD9525847
_publ_section_title
;
Structure prediction by ZEFSAII (Michael W. Deem and Ramdas Pophale) SiO2 
 PCOD9525847
Probable space group: I B A M
;
_chemical_formula_sum "Si O2"
_cell_formula_units_Z 96
_cell_length_a 23.637723
_cell_length_b 26.432526
_cell_length_c 8.624544
_cell_angle_alpha 90.000000
_cell_angle_beta 90.000000
_cell_angle_gamma 90.000000
_cell_volume 5388.655866
_symmetry_space_group_name_H-M "I B A M"
_symmetry_group_IT_number 72
_symmetry_cell_setting 'orthorhombic'
loop_
_space_group_symop_operation_xyz
x,y,z
-x,-y,z
x,-y,1/2-z
-x,y,1/2-z
-x,-y,-z
x,y,-z
-x,y,1/2+z
x,-y,1/2+z
1/2+x,1/2+y,1/2+z
1/2-x,1/2-y,1/2+z
1/2+x,1/2-y,-z
1/2-x,1/2+y,-z
1/2-x,1/2-y,1/2-z
1/2+x,1/2+y,1/2-z
1/2-x,1/2+y,z
1/2+x,1/2-y,z
loop_
_atom_site_type_symbol
_atom_site_label
_atom_site_fract_x
_atom_site_fract_y
_atom_site_fract_z
Si Si1 0.562986 0.748967 0.685177
Si Si2 0.193067 0.554267 0.683153
Si Si3 0.646432 0.158326 0.815704
Si Si4 0.819410 0.055707 0.314997
Si Si5 0.130030 0.152269 0.681077
Si Si6 0.241164 0.195267 0.180119
O O1 0.500000 0.753045 0.750000
O O2 0.561966 0.744889 0.500000
O O3 0.597935 0.800699 0.722181
O O4 0.591897 0.697527 0.749417
O O5 0.175983 0.500000 0.750000
O O6 0.203845 0.549567 0.500000
O O7 0.145035 0.597472 0.702961
O O8 0.254756 0.567167 0.757599
O O9 0.698495 0.170524 0.704424
O O10 0.660162 0.166757 0.000000
O O11 0.818214 0.055769 0.500000
O O12 0.865506 0.096828 0.258174
O O13 0.832377 0.000000 0.250000
O O14 0.117811 0.147552 0.500000
O O15 0.193598 0.170889 0.713825
O O16 0.250000 0.250000 0.250000
O O17 0.223436 0.195100 0.000000
#
# Coordination Sequence:
#
# PCOD9525847 Si02
#       6
#    16  16  16  16  16  16
#     4  11  24  42  61  83 110 146 192 241 292 344
#     4  10  19  32  51  79 115 153 188 228 277 336
#     4  10  21  36  56  79 113 151 188 231 283 341
#     4  11  21  34  53  82 118 156 191 229 277 336
#     4  12  23  37  57  83 116 152 190 234 283 339
#     4  12  22  32  51  81 115 149 186 226 282 344
#
# _framework density 17.815203
#
# number of rings (size 3 to 8) (size 9 to 14) (size 15 to 20)
#    0.000    1.000    3.333    6.500    0.000    1.333 
#    0.000    0.000    0.000    1.000    0.000    7.000 
#    0.000    0.000    0.000    0.000    0.000    0.000 
#
# Total GULP energy -267564.888921 kJ/mol
# GULP energy per Si atom -5574.268519 kJ/mol
# Density = 1.777466 g / cm^3
# Si number density = 17.815203 Si / 1000 Ang^3
#
#
#
# Elastic Constant Matrix: (Units=GPa)
#
#
# Indices 1 2 3 4 5 6 
#
# 1 75.8809 54.2468 34.2624 0.0000 0.0000 0.0000
# 2 54.2468 162.5853 57.1975 0.0000 0.0000 0.0000
# 3 34.2624 57.1975 101.7218 0.0000 0.0000 0.0000
# 4 0.0000 0.0000 0.0000 27.4740 0.0000 0.0000
# 5 0.0000 0.0000 0.0000 0.0000 22.2916 0.0000
# 6 0.0000 0.0000 0.0000 0.0000 0.0000 7.9612
#
#
#
# Elastic Compliance Matrix: (Units=1/GPa)
#
#
# Indices 1 2 3 4 5 6 
#
# 1 0.018196 -0.004880 -0.003385 0.000000 0.000000 0.000000
# 2 -0.004880 0.008976 -0.003404 0.000000 0.000000 0.000000
# 3 -0.003385 -0.003404 0.012885 0.000000 0.000000 0.000000
# 4 0.000000 0.000000 0.000000 0.036398 0.000000 0.000000
# 5 0.000000 0.000000 0.000000 0.000000 0.044860 0.000000
# 6 0.000000 0.000000 0.000000 0.000000 0.000000 0.125609
#
#
# Mechanical properties :
#
#
# Convention : Reuss Voigt Hill
#
# Bulk Modulus (GPa) = 59.80972 70.17793 64.99383
# Shear Modulus (GPa) = 18.12686 24.51080 21.31883
#
# Velocity S-wave (km/s) = 3.19328 3.71325 3.46304
# Velocity P-wave (km/s) = 6.87322 7.60671 7.24925
#
# Compressibility (1/GPa) = 0.01671969
#
# Stress axis : x y z
#
# Youngs Moduli (GPa) = 54.95808 111.40457 77.61258
#
# Poissons Ratio (x) = 0.54369 0.26269
# Poissons Ratio (y) = 0.26821 0.26415
# Poissons Ratio (z) = 0.18601 0.37917
#
# Static dielectric constant tensor:
#      x y z
#    x 1.590300 0.000000 0.000000 
#    y 0.000000 1.634820 0.000000 
#    z 0.000000 0.000000 1.777930 
# 
# From -- ./inp_files/6025.got.cif
#   From: 2010.05.17/outbox.cif.g08.bks.cpg/sg72_4_cif.got.tgz:6025.got - 2010.06.03 17:03:01.
