data_PCOD9525186
_publ_section_title
;
Structure prediction by ZEFSAII (Michael W. Deem and Ramdas Pophale) SiO2 
 PCOD9525186
Probable space group: I B A M
;
_chemical_formula_sum "Si O2"
_cell_formula_units_Z 112
_cell_length_a 25.767267
_cell_length_b 13.798402
_cell_length_c 18.102842
_cell_angle_alpha 90.000000
_cell_angle_beta 90.000000
_cell_angle_gamma 90.000000
_cell_volume 6436.413129
_symmetry_space_group_name_H-M "I B A M"
_symmetry_group_IT_number 72
_symmetry_cell_setting 'orthorhombic'
loop_
_space_group_symop_operation_xyz
x,y,z
-x,-y,z
x,-y,1/2-z
-x,y,1/2-z
-x,-y,-z
x,y,-z
-x,y,1/2+z
x,-y,1/2+z
1/2+x,1/2+y,1/2+z
1/2-x,1/2-y,1/2+z
1/2+x,1/2-y,-z
1/2-x,1/2+y,-z
1/2-x,1/2-y,1/2-z
1/2+x,1/2+y,1/2-z
1/2-x,1/2+y,z
1/2+x,1/2-y,z
loop_
_atom_site_type_symbol
_atom_site_label
_atom_site_fract_x
_atom_site_fract_y
_atom_site_fract_z
Si Si1 0.175791 0.040868 0.831732
Si Si2 0.785389 0.671790 0.917078
Si Si3 0.560433 0.889253 0.768140
Si Si4 0.857669 0.236144 0.292620
Si Si5 0.779198 0.439604 0.084968
Si Si6 0.610985 0.154705 0.416585
Si Si7 0.831178 0.172791 0.871973
O O1 0.134319 0.127659 0.825969
O O2 0.229238 0.082344 0.865441
O O3 0.186955 0.000000 0.750000
O O4 0.161136 0.943038 0.875199
O O5 0.819866 0.712548 0.850910
O O6 0.787009 0.555201 0.912697
O O7 0.724880 0.696883 0.905742
O O8 0.802123 0.701178 0.000000
O O9 0.500000 0.878728 0.750000
O O10 0.594954 0.808596 0.725474
O O11 0.569933 0.873205 0.855104
O O12 0.576629 0.000000 0.750000
O O13 0.832343 0.210639 0.212905
O O14 0.833734 0.392575 0.106558
O O15 0.768350 0.412054 0.000000
O O16 0.598901 0.124525 0.500000
O O17 0.623741 0.268541 0.412361
#
# Coordination Sequence:
#
# PCOD9525186 Si02
#       7
#    16  16  16  16  16  16  16
#     4   9  18  30  45  70 103 137 169 199 236 290
#     4  10  18  28  43  71 106 137 167 201 242 295
#     4  10  22  40  58  77  99 125 163 214 268 312
#     4  10  19  32  51  70  95 132 173 209 249 301
#     4   9  18  29  44  70 105 137 165 196 237 289
#     4  10  19  33  54  77 100 134 175 211 247 297
#     4   9  18  30  46  70 104 137 169 202 238 289
#
# _framework density 17.400995999999999
#
# number of rings (size 3 to 8) (size 9 to 14) (size 15 to 20)
#    0.000    2.429    0.000    2.571    0.000    8.571 
#    0.000    2.143    0.000   10.714    0.000    1.000 
#    0.000    0.000    0.000    0.000    0.000    0.000 
#
# Total GULP energy -312105.901195 kJ/mol
# GULP energy per Si atom -5573.319664 kJ/mol
# Density = 1.736139 g / cm^3
# Si number density = 17.400996 Si / 1000 Ang^3
#
#
#
# Elastic Constant Matrix: (Units=GPa)
#
#
# Indices 1 2 3 4 5 6 
#
# 1 63.3564 48.8451 37.8707 0.0000 0.0000 0.0000
# 2 48.8451 95.5884 39.9887 0.0000 0.0000 0.0000
# 3 37.8707 39.9887 66.2164 0.0000 0.0000 0.0000
# 4 0.0000 0.0000 0.0000 15.1663 0.0000 0.0000
# 5 0.0000 0.0000 0.0000 0.0000 15.3657 0.0000
# 6 0.0000 0.0000 0.0000 0.0000 0.0000 20.1668
#
#
#
# Elastic Compliance Matrix: (Units=1/GPa)
#
#
# Indices 1 2 3 4 5 6 
#
# 1 0.031005 -0.011273 -0.010924 0.000000 0.000000 0.000000
# 2 -0.011273 0.018097 -0.004481 0.000000 0.000000 0.000000
# 3 -0.010924 -0.004481 0.024056 0.000000 0.000000 0.000000
# 4 0.000000 0.000000 0.000000 0.065936 0.000000 0.000000
# 5 0.000000 0.000000 0.000000 0.000000 0.065080 0.000000
# 6 0.000000 0.000000 0.000000 0.000000 0.000000 0.049586
#
#
# Mechanical properties :
#
#
# Convention : Reuss Voigt Hill
#
# Bulk Modulus (GPa) = 50.50527 53.17446 51.83986
# Shear Modulus (GPa) = 15.93790 16.70356 16.32073
#
# Velocity S-wave (km/s) = 3.02970 3.10162 3.06587
# Velocity P-wave (km/s) = 6.42854 6.59176 6.51066
#
# Compressibility (1/GPa) = 0.01979991
#
# Stress axis : x y z
#
# Youngs Moduli (GPa) = 32.25307 55.25844 41.56915
#
# Poissons Ratio (x) = 0.62293 0.45412
# Poissons Ratio (y) = 0.36359 0.18629
# Poissons Ratio (z) = 0.35235 0.24764
#
# Static dielectric constant tensor:
#      x y z
#    x 1.541030 0.000000 0.000000 
#    y 0.000000 1.672660 0.000000 
#    z 0.000000 0.000000 1.616640 
# 
# From -- ./inp_files/25965.got.cif
#   From: 2010.05.17/outbox.cif.g08.bks.cpg/sg72_13_cif.got.tgz:25965.got - 2010.06.03 17:03:01.
