data_PCOD9525262
_publ_section_title
;
Structure prediction by ZEFSAII (Michael W. Deem and Ramdas Pophale) SiO2 
 PCOD9525262
Probable space group: I B A M
;
_chemical_formula_sum "Si O2"
_cell_formula_units_Z 104
_cell_length_a 17.941106
_cell_length_b 13.491434
_cell_length_c 26.020400
_cell_angle_alpha 90.000000
_cell_angle_beta 90.000000
_cell_angle_gamma 90.000000
_cell_volume 6298.270280
_symmetry_space_group_name_H-M "I B A M"
_symmetry_group_IT_number 72
_symmetry_cell_setting 'orthorhombic'
loop_
_space_group_symop_operation_xyz
x,y,z
-x,-y,z
x,-y,1/2-z
-x,y,1/2-z
-x,-y,-z
x,y,-z
-x,y,1/2+z
x,-y,1/2+z
1/2+x,1/2+y,1/2+z
1/2-x,1/2-y,1/2+z
1/2+x,1/2-y,-z
1/2-x,1/2+y,-z
1/2-x,1/2-y,1/2-z
1/2+x,1/2+y,1/2-z
1/2-x,1/2+y,z
1/2+x,1/2-y,z
loop_
_atom_site_type_symbol
_atom_site_label
_atom_site_fract_x
_atom_site_fract_y
_atom_site_fract_z
Si Si1 0.402233 0.904746 0.636764
Si Si2 0.570926 0.873147 0.613086
Si Si3 0.204450 0.138531 0.000000
Si Si4 0.782355 0.394753 0.226032
Si Si5 0.802578 0.750464 0.583637
Si Si6 0.610144 0.819900 0.500000
Si Si7 0.218770 0.096223 0.500000
Si Si8 0.193355 0.261574 0.174272
O O1 0.490218 0.884479 0.639014
O O2 0.354277 0.898923 0.688859
O O3 0.369906 0.820162 0.599422
O O4 0.392034 0.017539 0.617163
O O5 0.568879 0.847886 0.552611
O O6 0.619725 0.791666 0.643189
O O7 0.248437 0.179960 0.049778
O O8 0.128752 0.202507 0.000000
O O9 0.204126 0.020342 0.000000
O O10 0.764354 0.500000 0.250000
O O11 0.801846 0.325640 0.274272
O O12 0.713919 0.348953 0.193275
O O13 0.815637 0.846544 0.548871
O O14 0.760026 0.784981 0.634680
O O15 0.691908 0.875932 0.500000
#
# Coordination Sequence:
#
# PCOD9525262 Si02
#       8
#    16  16   8  16  16   8   8  16
#     4  10  22  33  54  81 113 147 173 228 282 340
#     4  11  20  36  54  82 117 146 176 220 287 335
#     4  10  18  29  54  78  98 141 185 233 269 322
#     4  10  20  35  56  83 109 139 192 228 274 322
#     4   9  19  33  50  79 107 138 182 227 277 317
#     4  10  20  33  51  82 111 142 183 221 276 338
#     4  10  18  31  55  79 103 143 186 237 265 329
#     4  10  19  34  54  79 110 145 177 233 270 322
#
# _framework density 16.51247
#
# number of rings (size 3 to 8) (size 9 to 14) (size 15 to 20)
#    0.000    2.154    4.615    0.923    0.000    3.692 
#    0.000    0.000    0.000    1.846    0.000    9.692 
#    0.000    0.000    0.000    0.000    0.000    0.000 
#
# Total GULP energy -289506.621718 kJ/mol
# GULP energy per Si atom -5567.435033 kJ/mol
# Density = 1.647489 g / cm^3
# Si number density = 16.512470 Si / 1000 Ang^3
#
#
#
# Elastic Constant Matrix: (Units=GPa)
#
#
# Indices 1 2 3 4 5 6 
#
# 1 58.3465 37.7793 25.6851 0.0000 0.0000 0.0000
# 2 37.7793 120.1421 50.4137 0.0000 0.0000 0.0000
# 3 25.6851 50.4137 97.7097 0.0000 0.0000 0.0000
# 4 0.0000 0.0000 0.0000 23.5979 0.0000 0.0000
# 5 0.0000 0.0000 0.0000 0.0000 12.4533 0.0000
# 6 0.0000 0.0000 0.0000 0.0000 0.0000 24.1457
#
#
#
# Elastic Compliance Matrix: (Units=1/GPa)
#
#
# Indices 1 2 3 4 5 6 
#
# 1 0.022122 -0.005764 -0.002841 0.000000 0.000000 0.000000
# 2 -0.005764 0.012125 -0.004741 0.000000 0.000000 0.000000
# 3 -0.002841 -0.004741 0.013427 0.000000 0.000000 0.000000
# 4 0.000000 0.000000 0.000000 0.042377 0.000000 0.000000
# 5 0.000000 0.000000 0.000000 0.000000 0.080300 0.000000
# 6 0.000000 0.000000 0.000000 0.000000 0.000000 0.041415
#
#
# Mechanical properties :
#
#
# Convention : Reuss Voigt Hill
#
# Bulk Modulus (GPa) = 47.65939 55.99496 51.82718
# Shear Modulus (GPa) = 20.37049 22.86073 21.61561
#
# Velocity S-wave (km/s) = 3.51614 3.72486 3.62200
# Velocity P-wave (km/s) = 6.73867 7.24457 6.99619
#
# Compressibility (1/GPa) = 0.02098222
#
# Stress axis : x y z
#
# Youngs Moduli (GPa) = 45.20378 82.47131 74.47470
#
# Poissons Ratio (x) = 0.47538 0.21160
# Poissons Ratio (y) = 0.26056 0.35308
# Poissons Ratio (z) = 0.12843 0.39099
#
# Static dielectric constant tensor:
#      x y z
#    x 1.550590 0.000000 0.000000 
#    y 0.000000 1.567770 0.000000 
#    z 0.000000 0.000000 1.569720 
# 
# From -- ./inp_files/49174.got.cif
#   From: 2010.05.17/outbox.cif.g08.bks.cpg/sg72_25_cif.got.tgz:49174.got - 2010.06.03 17:03:01.
