data_PCOD9525835
_publ_section_title
;
Structure prediction by ZEFSAII (Michael W. Deem and Ramdas Pophale) SiO2 
 PCOD9525835
Probable space group: I B A M
;
_chemical_formula_sum "Si O2"
_cell_formula_units_Z 40
_cell_length_a 15.303263
_cell_length_b 21.123272
_cell_length_c 5.558196
_cell_angle_alpha 90.000000
_cell_angle_beta 90.000000
_cell_angle_gamma 90.000000
_cell_volume 1796.714575
_symmetry_space_group_name_H-M "I B A M"
_symmetry_group_IT_number 72
_symmetry_cell_setting 'orthorhombic'
loop_
_space_group_symop_operation_xyz
x,y,z
-x,-y,z
x,-y,1/2-z
-x,y,1/2-z
-x,-y,-z
x,y,-z
-x,y,1/2+z
x,-y,1/2+z
1/2+x,1/2+y,1/2+z
1/2-x,1/2-y,1/2+z
1/2+x,1/2-y,-z
1/2-x,1/2+y,-z
1/2-x,1/2-y,1/2-z
1/2+x,1/2+y,1/2-z
1/2-x,1/2+y,z
1/2+x,1/2-y,z
loop_
_atom_site_type_symbol
_atom_site_label
_atom_site_fract_x
_atom_site_fract_y
_atom_site_fract_z
Si Si1 0.241756 0.712409 0.500000
Si Si2 0.244475 0.081689 0.500000
Si Si3 0.229306 0.940568 0.500000
Si Si4 0.048619 0.865338 0.500000
Si Si5 0.453166 0.211811 0.500000
O O1 0.250000 0.750000 0.750000
O O2 0.302583 0.650146 0.500000
O O3 0.144217 0.685062 0.500000
O O4 0.284994 0.075548 0.236192
O O5 0.196042 0.013378 0.500000
O O6 0.143957 0.896928 0.500000
O O7 0.056422 0.788695 0.500000
O O8 0.000000 0.883153 0.250000
O O9 0.500000 0.194955 0.250000
#
# Coordination Sequence:
#
# PCOD9525835 Si02
#       5
#     8   8   8   8   8
#     4  12  23  37  62  89 115 153 201 248 294 347
#     4  10  21  36  54  78 106 141 183 235 284 326
#     4  10  20  37  55  76 111 144 183 239 286 333
#     4  10  19  32  51  75 108 150 188 219 267 341
#     4  10  21  36  55  84 121 156 191 237 291 349
#
# _framework density 22.262854999999998
#
# number of rings (size 3 to 8) (size 9 to 14) (size 15 to 20)
#    0.000    1.600    0.000    6.000    0.000    3.200 
#    0.000   12.000    0.000    7.200    0.000   16.800 
#    0.000    0.000    0.000    0.000    0.000    0.000 
#
# Total GULP energy -111347.342113 kJ/mol
# GULP energy per Si atom -5567.367106 kJ/mol
# Density = 2.221218 g / cm^3
# Si number density = 22.262855 Si / 1000 Ang^3
#
#
#
# Elastic Constant Matrix: (Units=GPa)
#
#
# Indices 1 2 3 4 5 6 
#
# 1 69.6988 -4.8683 34.6865 0.0000 0.0000 0.0000
# 2 -4.8683 101.1966 60.2775 0.0000 0.0000 0.0000
# 3 34.6865 60.2775 264.0113 0.0000 0.0000 0.0000
# 4 0.0000 0.0000 0.0000 24.1836 0.0000 0.0000
# 5 0.0000 0.0000 0.0000 0.0000 29.0224 0.0000
# 6 0.0000 0.0000 0.0000 0.0000 0.0000 11.7088
#
#
#
# Elastic Compliance Matrix: (Units=1/GPa)
#
#
# Indices 1 2 3 4 5 6 
#
# 1 0.015805 0.002312 -0.002604 0.000000 0.000000 0.000000
# 2 0.002312 0.011775 -0.002992 0.000000 0.000000 0.000000
# 3 -0.002604 -0.002992 0.004813 0.000000 0.000000 0.000000
# 4 0.000000 0.000000 0.000000 0.041350 0.000000 0.000000
# 5 0.000000 0.000000 0.000000 0.000000 0.034456 0.000000
# 6 0.000000 0.000000 0.000000 0.000000 0.000000 0.085406
#
#
# Mechanical properties :
#
#
# Convention : Reuss Voigt Hill
#
# Bulk Modulus (GPa) = 38.72444 68.34424 53.53434
# Shear Modulus (GPa) = 23.94834 35.97037 29.95936
#
# Velocity S-wave (km/s) = 3.28336 4.02395 3.67237
# Velocity P-wave (km/s) = 5.63967 7.23568 6.48694
#
# Compressibility (1/GPa) = 0.02582348
#
# Stress axis : x y z
#
# Youngs Moduli (GPa) = 63.27136 84.92407 207.76970
#
# Poissons Ratio (x) = -0.19631 0.54109
# Poissons Ratio (y) = -0.14626 0.62168
# Poissons Ratio (z) = 0.16477 0.25411
#
# Static dielectric constant tensor:
#      x y z
#    x 1.818180 0.000000 0.000000 
#    y 0.000000 1.925050 0.000000 
#    z 0.000000 0.000000 1.937410 
# 
# From -- ./inp_files/455.got.cif
#   From: 2010.05.17/outbox.cif.g08.bks.cpg/sg72_1_cif.got.tgz:455.got - 2010.06.03 17:03:01.
