data_PCOD9525633
_publ_section_title
;
Structure prediction by ZEFSAII (Michael W. Deem and Ramdas Pophale) SiO2 
 PCOD9525633
Probable space group: I B A M
;
_chemical_formula_sum "Si O2"
_cell_formula_units_Z 64
_cell_length_a 13.820809
_cell_length_b 35.638920
_cell_length_c 8.872355
_cell_angle_alpha 90.000000
_cell_angle_beta 90.000000
_cell_angle_gamma 90.000000
_cell_volume 4370.155701
_symmetry_space_group_name_H-M "I B A M"
_symmetry_group_IT_number 72
_symmetry_cell_setting 'orthorhombic'
loop_
_space_group_symop_operation_xyz
x,y,z
-x,-y,z
x,-y,1/2-z
-x,y,1/2-z
-x,-y,-z
x,y,-z
-x,y,1/2+z
x,-y,1/2+z
1/2+x,1/2+y,1/2+z
1/2-x,1/2-y,1/2+z
1/2+x,1/2-y,-z
1/2-x,1/2+y,-z
1/2-x,1/2-y,1/2-z
1/2+x,1/2+y,1/2-z
1/2-x,1/2+y,z
1/2+x,1/2-y,z
loop_
_atom_site_type_symbol
_atom_site_label
_atom_site_fract_x
_atom_site_fract_y
_atom_site_fract_z
Si Si1 0.299785 0.693191 0.820045
Si Si2 0.607852 0.537207 0.179871
Si Si3 0.898616 0.265413 0.179775
Si Si4 0.392174 0.379226 0.819577
O O1 0.190056 0.706378 0.787575
O O2 0.367995 0.725483 0.750525
O O3 0.327607 0.653579 0.749062
O O4 0.312947 0.692272 0.000000
O O5 0.655733 0.500000 0.250000
O O6 0.500000 0.538432 0.250000
O O7 0.647754 0.578773 0.212940
O O8 0.601408 0.532844 0.000000
O O9 0.000000 0.277600 0.250000
O O10 0.906995 0.261510 0.000000
O O11 0.500000 0.376186 0.750000
O O12 0.399503 0.375292 0.000000
#
# Coordination Sequence:
#
# PCOD9525633 Si02
#       4
#    16  16  16  16
#     4  10  20  32  46  64  85 111 143 176 210 249
#     4   9  16  25  38  56  79 109 141 171 205 244
#     4  10  20  33  48  64  84 111 141 175 214 252
#     4  10  19  29  42  61  86 115 145 177 211 247
#
# _framework density 14.644787000000001
#
# number of rings (size 3 to 8) (size 9 to 14) (size 15 to 20)
#    0.000    2.250    0.000    4.500    0.000    6.000 
#    0.000    0.000    0.000    0.000    0.000    0.000 
#    0.000    1.000    0.000   11.000    0.000    8.000 
#
# Total GULP energy -178371.599075 kJ/mol
# GULP energy per Si atom -5574.112471 kJ/mol
# Density = 1.461145 g / cm^3
# Si number density = 14.644787 Si / 1000 Ang^3
#
#
#
# Elastic Constant Matrix: (Units=GPa)
#
#
# Indices 1 2 3 4 5 6 
#
# 1 57.9710 41.4895 35.4627 0.0001 -0.0001 0.0000
# 2 41.4895 152.4013 63.0494 0.0004 0.0001 -0.0001
# 3 35.4627 63.0494 72.4716 0.0001 -0.0003 0.0004
# 4 0.0001 0.0004 0.0001 20.2568 0.0006 -0.0002
# 5 -0.0001 0.0001 -0.0003 0.0006 21.0096 -0.0001
# 6 0.0000 -0.0001 0.0004 -0.0002 -0.0001 16.8838
#
#
#
# Elastic Compliance Matrix: (Units=1/GPa)
#
#
# Indices 1 2 3 4 5 6 
#
# 1 0.025343 -0.002764 -0.009997 0.000000 0.000000 0.000000
# 2 -0.002764 0.010553 -0.007828 0.000000 0.000000 0.000000
# 3 -0.009997 -0.007828 0.025501 0.000000 0.000000 -0.000001
# 4 0.000000 0.000000 0.000000 0.049366 -0.000001 0.000001
# 5 0.000000 0.000000 0.000000 -0.000001 0.047597 0.000000
# 6 0.000000 0.000000 -0.000001 0.000001 0.000000 0.059228
#
#
# Mechanical properties :
#
#
# Convention : Reuss Voigt Hill
#
# Bulk Modulus (GPa) = 49.45841 62.53855 55.99848
# Shear Modulus (GPa) = 18.83196 21.15287 19.99242
#
# Velocity S-wave (km/s) = 3.58986 3.80464 3.69881
# Velocity P-wave (km/s) = 7.14340 7.88015 7.52080
#
# Compressibility (1/GPa) = 0.02021901
#
# Stress axis : x y z
#
# Youngs Moduli (GPa) = 39.45799 94.76341 39.21434
#
# Poissons Ratio (x) = 0.26189 0.39203
# Poissons Ratio (y) = 0.10905 0.30698
# Poissons Ratio (z) = 0.39446 0.74184
#
# Static dielectric constant tensor:
#      x y z
#    x 1.459680 0.000000 0.000000 
#    y 0.000000 1.515720 0.000000 
#    z 0.000000 0.000000 1.486380 
# 
# From -- ./inp_files/3780.got.cif
#   From: 2010.05.17/outbox.cif.g08.bks.cpg/sg72_2_cif.got.tgz:3780.got - 2010.06.03 17:03:01.
