data_PCOD9525272
_publ_section_title
;
Structure prediction by ZEFSAII (Michael W. Deem and Ramdas Pophale) SiO2 
 PCOD9525272
Probable space group: I B A M
;
_chemical_formula_sum "Si O2"
_cell_formula_units_Z 80
_cell_length_a 25.032020
_cell_length_b 24.234631
_cell_length_c 8.612678
_cell_angle_alpha 90.000000
_cell_angle_beta 90.000000
_cell_angle_gamma 90.000000
_cell_volume 5224.810208
_symmetry_space_group_name_H-M "I B A M"
_symmetry_group_IT_number 72
_symmetry_cell_setting 'orthorhombic'
loop_
_space_group_symop_operation_xyz
x,y,z
-x,-y,z
x,-y,1/2-z
-x,y,1/2-z
-x,-y,-z
x,y,-z
-x,y,1/2+z
x,-y,1/2+z
1/2+x,1/2+y,1/2+z
1/2-x,1/2-y,1/2+z
1/2+x,1/2-y,-z
1/2-x,1/2+y,-z
1/2-x,1/2-y,1/2-z
1/2+x,1/2+y,1/2-z
1/2-x,1/2+y,z
1/2+x,1/2-y,z
loop_
_atom_site_type_symbol
_atom_site_label
_atom_site_fract_x
_atom_site_fract_y
_atom_site_fract_z
Si Si1 0.233926 0.335675 0.686714
Si Si2 0.557315 0.889637 0.314272
Si Si3 0.834809 0.440394 0.186803
Si Si4 0.169951 0.774376 0.186780
Si Si5 0.443389 0.235065 0.813157
O O1 0.234752 0.335417 0.500000
O O2 0.206214 0.392280 0.737185
O O3 0.197188 0.283683 0.737014
O O4 0.293065 0.322595 0.747071
O O5 0.500000 0.909224 0.250000
O O6 0.556525 0.889873 0.500000
O O7 0.606817 0.924479 0.250923
O O8 0.563998 0.826755 0.253429
O O9 0.819119 0.500000 0.250000
O O10 0.836902 0.440845 0.000000
O O11 0.108001 0.771174 0.232157
O O12 0.172416 0.776414 0.000000
O O13 0.500000 0.255844 0.750000
O O14 0.445164 0.230904 0.000000
#
# Coordination Sequence:
#
# PCOD9525272 Si02
#       5
#    16  16  16  16  16
#     4   9  18  32  48  67  93 120 152 194 233 275
#     4  11  21  33  49  67  89 123 161 200 239 278
#     4  11  22  37  51  68  93 121 158 201 239 277
#     4   9  17  30  48  69  94 121 152 191 231 277
#     4  10  18  30  46  69  98 126 155 194 233 275
#
# _framework density 15.31156
#
# number of rings (size 3 to 8) (size 9 to 14) (size 15 to 20)
#    0.000    2.000    2.000    4.200    0.000    3.600 
#    0.000    2.000    0.000    0.000    0.000    0.000 
#    0.000    0.800    0.000    8.800    0.000    6.400 
#
# Total GULP energy -223164.080812 kJ/mol
# GULP energy per Si atom -5579.102020 kJ/mol
# Density = 1.527671 g / cm^3
# Si number density = 15.311560 Si / 1000 Ang^3
#
#
#
# Elastic Constant Matrix: (Units=GPa)
#
#
# Indices 1 2 3 4 5 6 
#
# 1 119.4224 64.6163 32.1818 0.0000 0.0000 0.0000
# 2 64.6163 83.7700 26.5897 0.0000 0.0000 0.0000
# 3 32.1818 26.5897 58.4488 0.0000 0.0000 0.0000
# 4 0.0000 0.0000 0.0000 20.8236 0.0000 0.0000
# 5 0.0000 0.0000 0.0000 0.0000 26.7388 0.0000
# 6 0.0000 0.0000 0.0000 0.0000 0.0000 22.0782
#
#
#
# Elastic Compliance Matrix: (Units=1/GPa)
#
#
# Indices 1 2 3 4 5 6 
#
# 1 0.014957 -0.010429 -0.003491 0.000000 0.000000 0.000000
# 2 -0.010429 0.021224 -0.003913 0.000000 0.000000 0.000000
# 3 -0.003491 -0.003913 0.020811 0.000000 0.000000 0.000000
# 4 0.000000 0.000000 0.000000 0.048023 0.000000 0.000000
# 5 0.000000 0.000000 0.000000 0.000000 0.037399 0.000000
# 6 0.000000 0.000000 0.000000 0.000000 0.000000 0.045294
#
#
# Mechanical properties :
#
#
# Convention : Reuss Voigt Hill
#
# Bulk Modulus (GPa) = 46.89069 56.49076 51.69073
# Shear Modulus (GPa) = 21.69354 23.14500 22.41927
#
# Velocity S-wave (km/s) = 3.76813 3.89215 3.83064
# Velocity P-wave (km/s) = 7.04433 7.56127 7.30737
#
# Compressibility (1/GPa) = 0.02132619
#
# Stress axis : x y z
#
# Youngs Moduli (GPa) = 66.85617 47.11588 48.05105
#
# Poissons Ratio (x) = 0.49139 0.16775
# Poissons Ratio (y) = 0.69727 0.18802
# Poissons Ratio (z) = 0.23339 0.18436
#
# Static dielectric constant tensor:
#      x y z
#    x 1.524110 0.000000 0.000000 
#    y 0.000000 1.488400 0.000000 
#    z 0.000000 0.000000 1.516600 
# 
# From -- ./inp_files/7918.got.cif
#   From: 2010.05.17/outbox.cif.g08.bks.cpg/sg72_4_cif.got.tgz:7918.got - 2010.06.03 17:03:01.
