data_PCOD9525500
_publ_section_title
;
Structure prediction by ZEFSAII (Michael W. Deem and Ramdas Pophale) SiO2 
 PCOD9525500
Probable space group: I B A M
;
_chemical_formula_sum "Si O2"
_cell_formula_units_Z 116
_cell_length_a 23.654346
_cell_length_b 27.204689
_cell_length_c 8.903904
_cell_angle_alpha 90.000000
_cell_angle_beta 90.000000
_cell_angle_gamma 90.000000
_cell_volume 5729.743485
_symmetry_space_group_name_H-M "I B A M"
_symmetry_group_IT_number 72
_symmetry_cell_setting 'orthorhombic'
loop_
_space_group_symop_operation_xyz
x,y,z
-x,-y,z
x,-y,1/2-z
-x,y,1/2-z
-x,-y,-z
x,y,-z
-x,y,1/2+z
x,-y,1/2+z
1/2+x,1/2+y,1/2+z
1/2-x,1/2-y,1/2+z
1/2+x,1/2-y,-z
1/2-x,1/2+y,-z
1/2-x,1/2-y,1/2-z
1/2+x,1/2+y,1/2-z
1/2-x,1/2+y,z
1/2+x,1/2-y,z
loop_
_atom_site_type_symbol
_atom_site_label
_atom_site_fract_x
_atom_site_fract_y
_atom_site_fract_z
Si Si1 0.784492 0.594771 0.317760
Si Si2 0.439747 0.813055 0.180265
Si Si3 0.409435 0.083513 0.826246
Si Si4 0.386650 0.713902 0.181547
Si Si5 0.164265 0.052521 0.181555
Si Si6 0.260546 0.302691 0.680153
Si Si7 0.000000 0.500000 0.750000
Si Si8 0.942748 0.118644 0.680745
O O1 0.782295 0.594413 0.500000
O O2 0.844948 0.571553 0.275664
O O3 0.726922 0.568918 0.265879
O O4 0.778172 0.651872 0.268785
O O5 0.500000 0.799328 0.250000
O O6 0.426818 0.868264 0.233866
O O7 0.396624 0.769943 0.231723
O O8 0.442393 0.813123 0.000000
O O9 0.454741 0.039201 0.818779
O O10 0.406656 0.098871 0.000000
O O11 0.326422 0.689697 0.218057
O O12 0.433340 0.675027 0.232236
O O13 0.388440 0.715679 0.000000
O O14 0.113325 0.088726 0.223343
O O15 0.151847 0.000000 0.250000
O O16 0.165842 0.050949 0.000000
O O17 0.255281 0.299785 0.500000
O O18 0.250000 0.250000 0.750000
O O19 0.946660 0.118009 0.500000
O O20 0.000000 0.098295 0.750000
#
# Coordination Sequence:
#
# PCOD9525500 Si02
#       8
#    16  16  16  16  16  16   4  16
#     4   9  19  38  63  87 115 157 199 242 299 364
#     4  11  22  37  58  85 119 155 195 243 297 355
#     4  11  24  42  63  87 118 155 200 249 304 364
#     4   9  18  34  57  84 117 157 195 237 290 354
#     4  10  21  39  62  86 117 156 201 251 301 353
#     4  10  18  33  57  85 118 153 192 237 291 354
#     4  12  26  40  64  90 122 160 204 252 308 348
#     4  10  20  37  60  86 118 159 200 242 295 352
#
# _framework density 20.245235000000001
#
# number of rings (size 3 to 8) (size 9 to 14) (size 15 to 20)
#    0.000    1.931    2.069    1.862    0.966    1.379 
#    0.000    4.828    0.000    0.000    0.000    0.000 
#    0.000    0.000    0.000    0.000    0.000    0.000 
#
# Total GULP energy -323220.080915 kJ/mol
# GULP energy per Si atom -5572.760016 kJ/mol
# Density = 2.019916 g / cm^3
# Si number density = 20.245235 Si / 1000 Ang^3
#
#
#
# Elastic Constant Matrix: (Units=GPa)
#
#
# Indices 1 2 3 4 5 6 
#
# 1 135.6101 49.8623 24.1531 0.0000 0.0000 0.0000
# 2 49.8623 112.9437 20.8052 0.0000 0.0000 0.0000
# 3 24.1531 20.8052 17.7943 0.0000 0.0000 0.0000
# 4 0.0000 0.0000 0.0000 19.2966 0.0000 0.0000
# 5 0.0000 0.0000 0.0000 0.0000 20.7909 0.0000
# 6 0.0000 0.0000 0.0000 0.0000 0.0000 32.3519
#
#
#
# Elastic Compliance Matrix: (Units=1/GPa)
#
#
# Indices 1 2 3 4 5 6 
#
# 1 0.010251 -0.002501 -0.010990 0.000000 0.000000 0.000000
# 2 -0.002501 0.011895 -0.010512 0.000000 0.000000 0.000000
# 3 -0.010990 -0.010512 0.083406 0.000000 0.000000 0.000000
# 4 0.000000 0.000000 0.000000 0.051823 0.000000 0.000000
# 5 0.000000 0.000000 0.000000 0.000000 0.048098 0.000000
# 6 0.000000 0.000000 0.000000 0.000000 0.000000 0.030910
#
#
# Mechanical properties :
#
#
# Convention : Reuss Voigt Hill
#
# Bulk Modulus (GPa) = 17.37774 50.66550 34.02162
# Shear Modulus (GPa) = 16.47061 25.92304 21.19682
#
# Velocity S-wave (km/s) = 2.85538 3.58222 3.23925
# Velocity P-wave (km/s) = 4.41284 6.49538 5.55262
#
# Compressibility (1/GPa) = 0.05754488
#
# Stress axis : x y z
#
# Youngs Moduli (GPa) = 97.55009 84.07124 11.98954
#
# Poissons Ratio (x) = 0.21028 0.13176
# Poissons Ratio (y) = 0.24399 0.12604
# Poissons Ratio (z) = 1.07207 0.88378
#
# Static dielectric constant tensor:
#      x y z
#    x 1.814880 0.000000 0.000000 
#    y 0.000000 1.726970 0.000000 
#    z 0.000000 0.000000 1.690820 
# 
# From -- ./inp_files/7275.got.cif
#   From: 2010.05.17/outbox.cif.g08.bks.cpg/sg72_4_cif.got.tgz:7275.got - 2010.06.03 17:03:01.
