data_PCOD9525329
_publ_section_title
;
Structure prediction by ZEFSAII (Michael W. Deem and Ramdas Pophale) SiO2 
 PCOD9525329
Probable space group: I B A M
;
_chemical_formula_sum "Si O2"
_cell_formula_units_Z 80
_cell_length_a 12.633957
_cell_length_b 17.972596
_cell_length_c 18.675442
_cell_angle_alpha 90.000000
_cell_angle_beta 90.000000
_cell_angle_gamma 90.000000
_cell_volume 4240.539332
_symmetry_space_group_name_H-M "I B A M"
_symmetry_group_IT_number 72
_symmetry_cell_setting 'orthorhombic'
loop_
_space_group_symop_operation_xyz
x,y,z
-x,-y,z
x,-y,1/2-z
-x,y,1/2-z
-x,-y,-z
x,y,-z
-x,y,1/2+z
x,-y,1/2+z
1/2+x,1/2+y,1/2+z
1/2-x,1/2-y,1/2+z
1/2+x,1/2-y,-z
1/2-x,1/2+y,-z
1/2-x,1/2-y,1/2-z
1/2+x,1/2+y,1/2-z
1/2-x,1/2+y,z
1/2+x,1/2-y,z
loop_
_atom_site_type_symbol
_atom_site_label
_atom_site_fract_x
_atom_site_fract_y
_atom_site_fract_z
Si Si1 0.901706 0.228676 0.802938
Si Si2 0.752893 0.370696 0.227651
Si Si3 0.521865 0.179078 0.579931
Si Si4 0.398752 0.945860 0.839842
Si Si5 0.775871 0.568151 0.580134
O O1 0.821346 0.297209 0.789965
O O2 0.839375 0.154570 0.781353
O O3 0.000000 0.236387 0.750000
O O4 0.945840 0.244266 0.881983
O O5 0.832929 0.424722 0.269362
O O6 0.714787 0.404468 0.151720
O O7 0.481230 0.189831 0.500000
O O8 0.440853 0.131907 0.628036
O O9 0.625151 0.125727 0.576351
O O10 0.500000 0.000000 0.829133
O O11 0.325845 0.988960 0.897250
O O12 0.728253 0.566601 0.500000
#
# Coordination Sequence:
#
# PCOD9525329 Si02
#       5
#    16  16  16  16  16
#     4  10  19  34  51  70 106 146 178 215 254 315
#     4  10  20  31  52  79 102 138 183 215 263 324
#     4   9  17  30  49  75 106 137 170 210 268 321
#     4  10  18  30  53  81 106 134 172 224 276 324
#     4   9  18  30  47  74 108 131 165 223 274 315
#
# _framework density 18.865525000000002
#
# number of rings (size 3 to 8) (size 9 to 14) (size 15 to 20)
#    0.000    2.400    2.000    1.200    0.000    6.400 
#    0.000    3.000    0.000    2.400    0.000    1.400 
#    0.000    0.000    0.000    0.000    0.000    0.000 
#
# Total GULP energy -222775.870295 kJ/mol
# GULP energy per Si atom -5569.396757 kJ/mol
# Density = 1.882259 g / cm^3
# Si number density = 18.865525 Si / 1000 Ang^3
#
#
#
# Elastic Constant Matrix: (Units=GPa)
#
#
# Indices 1 2 3 4 5 6 
#
# 1 15.4197 21.6945 22.5095 0.0000 0.0000 0.0000
# 2 21.6945 58.1916 52.1628 0.0000 0.0000 0.0000
# 3 22.5095 52.1628 142.7686 0.0000 0.0000 0.0000
# 4 0.0000 0.0000 0.0000 9.2569 0.0000 0.0000
# 5 0.0000 0.0000 0.0000 0.0000 8.4694 0.0000
# 6 0.0000 0.0000 0.0000 0.0000 0.0000 20.0423
#
#
#
# Elastic Compliance Matrix: (Units=1/GPa)
#
#
# Indices 1 2 3 4 5 6 
#
# 1 0.138235 -0.047583 -0.004409 0.000000 0.000000 0.000000
# 2 -0.047583 0.041933 -0.007819 0.000000 0.000000 0.000000
# 3 -0.004409 -0.007819 0.010556 0.000000 0.000000 0.000000
# 4 0.000000 0.000000 0.000000 0.108028 0.000000 0.000000
# 5 0.000000 0.000000 0.000000 0.000000 0.118072 0.000000
# 6 0.000000 0.000000 0.000000 0.000000 0.000000 0.049895
#
#
# Mechanical properties :
#
#
# Convention : Reuss Voigt Hill
#
# Bulk Modulus (GPa) = 14.06437 45.45707 29.76072
# Shear Modulus (GPa) = 8.19616 15.55458 11.87537
#
# Velocity S-wave (km/s) = 2.08661 2.87452 2.51165
# Velocity P-wave (km/s) = 3.64369 5.92999 4.92145
#
# Compressibility (1/GPa) = 0.07110166
#
# Stress axis : x y z
#
# Youngs Moduli (GPa) = 7.23405 23.84767 94.73074
#
# Poissons Ratio (x) = 1.13475 0.41771
# Poissons Ratio (y) = 0.34422 0.74067
# Poissons Ratio (z) = 0.03190 0.18646
#
# Static dielectric constant tensor:
#      x y z
#    x 1.652600 0.000000 0.000000 
#    y 0.000000 1.661620 0.000000 
#    z 0.000000 0.000000 1.723680 
# 
# From -- ./inp_files/30456.got.cif
#   From: 2010.05.17/outbox.cif.g08.bks.cpg/sg72_16_cif.got.tgz:30456.got - 2010.06.03 17:03:01.
