data_PCOD9525218
_publ_section_title
;
Structure prediction by ZEFSAII (Michael W. Deem and Ramdas Pophale) SiO2 
 PCOD9525218
Probable space group: I B A M
;
_chemical_formula_sum "Si O2"
_cell_formula_units_Z 128
_cell_length_a 19.445100
_cell_length_b 23.452053
_cell_length_c 17.267552
_cell_angle_alpha 90.000000
_cell_angle_beta 90.000000
_cell_angle_gamma 90.000000
_cell_volume 7874.478842
_symmetry_space_group_name_H-M "I B A M"
_symmetry_group_IT_number 72
_symmetry_cell_setting 'orthorhombic'
loop_
_space_group_symop_operation_xyz
x,y,z
-x,-y,z
x,-y,1/2-z
-x,y,1/2-z
-x,-y,-z
x,y,-z
-x,y,1/2+z
x,-y,1/2+z
1/2+x,1/2+y,1/2+z
1/2-x,1/2-y,1/2+z
1/2+x,1/2-y,-z
1/2-x,1/2+y,-z
1/2-x,1/2-y,1/2-z
1/2+x,1/2+y,1/2-z
1/2-x,1/2+y,z
1/2+x,1/2-y,z
loop_
_atom_site_type_symbol
_atom_site_label
_atom_site_fract_x
_atom_site_fract_y
_atom_site_fract_z
Si Si1 0.850393 0.446529 0.405400
Si Si2 0.382275 0.287905 0.907983
Si Si3 0.755840 0.143647 0.090135
Si Si4 0.860929 0.421981 0.092721
Si Si5 0.193851 0.313500 0.324768
Si Si6 0.327364 0.758369 0.159697
Si Si7 0.014125 0.622569 0.407853
Si Si8 0.482508 0.249234 0.659825
O O1 0.850931 0.444619 0.500000
O O2 0.785302 0.409956 0.376541
O O3 0.847488 0.512696 0.384848
O O4 0.920755 0.414845 0.380917
O O5 0.328745 0.335340 0.875871
O O6 0.350656 0.228023 0.879773
O O7 0.460676 0.288214 0.881372
O O8 0.379654 0.289898 0.000000
O O9 0.704544 0.197797 0.097748
O O10 0.767549 0.131367 0.000000
O O11 0.820025 0.376713 0.145094
O O12 0.942083 0.409502 0.103165
O O13 0.846075 0.414276 0.000000
O O14 0.272484 0.292144 0.329777
O O15 0.170328 0.296509 0.238269
O O16 0.403289 0.736278 0.143456
O O17 0.022377 0.632565 0.500000
O O18 0.010466 0.683723 0.367475
O O19 0.500000 0.252230 0.750000
#
# Coordination Sequence:
#
# PCOD9525218 Si02
#       8
#    16  16  16  16  16  16  16  16
#     4   9  17  29  47  69  93 127 166 200 235 277
#     4  10  19  31  48  69  95 126 163 201 241 287
#     4   9  18  32  49  69  93 125 164 202 236 280
#     4  10  18  30  48  69  96 129 165 199 235 282
#     4  10  19  33  48  69  96 127 159 200 245 290
#     4  10  20  32  49  68  97 127 158 197 248 292
#     4  10  18  29  45  67  97 131 165 198 231 280
#     4  12  20  30  47  72  97 130 161 198 247 296
#
# _framework density 16.255044999999999
#
# number of rings (size 3 to 8) (size 9 to 14) (size 15 to 20)
#    0.000    2.000    3.750    1.125    0.000    2.500 
#    0.000    0.625    0.000    0.750    0.000    0.875 
#    0.000    5.000    0.000    0.000    0.000    0.000 
#
# Total GULP energy -356753.002092 kJ/mol
# GULP energy per Si atom -5574.265658 kJ/mol
# Density = 1.621805 g / cm^3
# Si number density = 16.255045 Si / 1000 Ang^3
#
#
#
# Elastic Constant Matrix: (Units=GPa)
#
#
# Indices 1 2 3 4 5 6 
#
# 1 113.3882 38.4360 9.3476 0.0000 0.0000 0.0000
# 2 38.4360 75.4311 13.7550 0.0000 0.0000 0.0000
# 3 9.3476 13.7550 21.5921 0.0000 0.0000 0.0000
# 4 0.0000 0.0000 0.0000 -4.1273 0.0000 0.0000
# 5 0.0000 0.0000 0.0000 0.0000 18.8900 0.0000
# 6 0.0000 0.0000 0.0000 0.0000 0.0000 27.6202
#
#
#
# Elastic Compliance Matrix: (Units=1/GPa)
#
#
# Indices 1 2 3 4 5 6 
#
# 1 0.010693 -0.005210 -0.001310 0.000000 0.000000 0.000000
# 2 -0.005210 0.017538 -0.008917 0.000000 0.000000 0.000000
# 3 -0.001310 -0.008917 0.052561 0.000000 0.000000 0.000000
# 4 0.000000 0.000000 0.000000 -0.242287 0.000000 0.000000
# 5 0.000000 0.000000 0.000000 0.000000 0.052938 0.000000
# 6 0.000000 0.000000 0.000000 0.000000 0.000000 0.036205
#
#
# Mechanical properties :
#
#
# Convention : Reuss Voigt Hill
#
# Bulk Modulus (GPa) = 20.03292 37.05427 28.54359
# Shear Modulus (GPa) = -201.30179 18.40143 -91.45018
#
# Velocity S-wave (km/s) = -11.14040 3.36824 -7.50878
# Velocity P-wave (km/s) = 12.37445 6.16212 7.58799
#
# Compressibility (1/GPa) = 0.04991784
#
# Stress axis : x y z
#
# Youngs Moduli (GPa) = 93.51654 57.01974 19.02553
#
# Poissons Ratio (x) = 0.29706 0.02493
# Poissons Ratio (y) = 0.48720 0.16965
# Poissons Ratio (z) = 0.12255 0.50844
#
# Static dielectric constant tensor:
#      x y z
#    x 1.581400 0.000000 0.000000 
#    y 0.000000 1.527270 0.000000 
#    z 0.000000 0.000000 1.573870 
# 
# From -- ./inp_files/32064.got.cif
#   From: 2010.05.17/outbox.cif.g08.bks.cpg/sg72_17_cif.got.tgz:32064.got - 2010.06.03 17:03:01.
