data_PCOD9525605
_publ_section_title
;
Structure prediction by ZEFSAII (Michael W. Deem and Ramdas Pophale) SiO2 
 PCOD9525605
Probable space group: I B A M
;
_chemical_formula_sum "Si O2"
_cell_formula_units_Z 112
_cell_length_a 11.139649
_cell_length_b 18.644782
_cell_length_c 26.814514
_cell_angle_alpha 90.000000
_cell_angle_beta 90.000000
_cell_angle_gamma 90.000000
_cell_volume 5569.276072
_symmetry_space_group_name_H-M "I B A M"
_symmetry_group_IT_number 72
_symmetry_cell_setting 'orthorhombic'
loop_
_space_group_symop_operation_xyz
x,y,z
-x,-y,z
x,-y,1/2-z
-x,y,1/2-z
-x,-y,-z
x,y,-z
-x,y,1/2+z
x,-y,1/2+z
1/2+x,1/2+y,1/2+z
1/2-x,1/2-y,1/2+z
1/2+x,1/2-y,-z
1/2-x,1/2+y,-z
1/2-x,1/2-y,1/2-z
1/2+x,1/2+y,1/2-z
1/2-x,1/2+y,z
1/2+x,1/2-y,z
loop_
_atom_site_type_symbol
_atom_site_label
_atom_site_fract_x
_atom_site_fract_y
_atom_site_fract_z
Si Si1 0.370817 0.955144 0.707802
Si Si2 0.405300 0.828911 0.877412
Si Si3 0.368434 0.200964 0.739052
Si Si4 0.804846 0.109805 0.058431
Si Si5 0.101820 0.558223 0.899275
Si Si6 0.842832 0.047513 0.443544
Si Si7 0.458118 0.690545 0.058939
O O1 0.372881 0.873443 0.728279
O O2 0.325893 0.959553 0.651673
O O3 0.500000 0.000000 0.702884
O O4 0.303093 0.000000 0.750000
O O5 0.371945 0.819563 0.819578
O O6 0.305321 0.874752 0.905970
O O7 0.530805 0.870078 0.885038
O O8 0.416995 0.755011 0.906897
O O9 0.500000 0.236294 0.750000
O O10 0.250000 0.250000 0.750000
O O11 0.900424 0.173794 0.061352
O O12 0.863254 0.033628 0.073492
O O13 0.768833 0.102509 0.000000
O O14 0.199866 0.559978 0.941699
O O15 0.000000 0.500000 0.910204
O O16 0.889113 0.050102 0.500000
O O17 0.898398 0.118031 0.420074
O O18 0.427338 0.702820 0.000000
#
# Coordination Sequence:
#
# PCOD9525605 Si02
#       7
#    16  16  16  16  16  16  16
#     4  10  18  39  66  89 115 165 216 250 307 389
#     4  12  24  39  63  93 126 161 202 255 319 368
#     4  12  26  43  65  99 132 170 214 267 326 385
#     4  10  22  41  62  89 123 161 205 257 310 371
#     4  11  21  37  62  93 120 154 206 255 309 359
#     4  10  22  39  62  88 119 161 208 257 309 369
#     4  10  24  41  61  85 122 168 207 247 310 384
#
# _framework density 20.110334000000002
#
# number of rings (size 3 to 8) (size 9 to 14) (size 15 to 20)
#    0.000    1.286    4.286    1.714    6.000    3.143 
#    0.000    0.000    0.000    0.429    0.000    0.000 
#    0.000    0.000    0.000    0.000    0.000    0.000 
#
# Total GULP energy -312112.151502 kJ/mol
# GULP energy per Si atom -5573.431277 kJ/mol
# Density = 2.006456 g / cm^3
# Si number density = 20.110334 Si / 1000 Ang^3
#
#
#
# Elastic Constant Matrix: (Units=GPa)
#
#
# Indices 1 2 3 4 5 6 
#
# 1 64.2478 27.6098 18.8344 0.0000 0.0000 0.0000
# 2 27.6098 113.8600 25.6812 0.0000 0.0000 0.0000
# 3 18.8344 25.6812 78.7355 0.0000 0.0000 0.0000
# 4 0.0000 0.0000 0.0000 14.9063 0.0000 0.0000
# 5 0.0000 0.0000 0.0000 0.0000 2.6733 0.0000
# 6 0.0000 0.0000 0.0000 0.0000 0.0000 33.2494
#
#
#
# Elastic Compliance Matrix: (Units=1/GPa)
#
#
# Indices 1 2 3 4 5 6 
#
# 1 0.018059 -0.003675 -0.003121 0.000000 0.000000 0.000000
# 2 -0.003675 0.010228 -0.002457 0.000000 0.000000 0.000000
# 3 -0.003121 -0.002457 0.014249 0.000000 0.000000 0.000000
# 4 0.000000 0.000000 0.000000 0.067086 0.000000 0.000000
# 5 0.000000 0.000000 0.000000 0.000000 0.374075 0.000000
# 6 0.000000 0.000000 0.000000 0.000000 0.000000 0.030076
#
#
# Mechanical properties :
#
#
# Convention : Reuss Voigt Hill
#
# Bulk Modulus (GPa) = 41.61586 44.56601 43.09093
# Shear Modulus (GPa) = 9.25431 22.48031 15.86731
#
# Velocity S-wave (km/s) = 2.14750 3.34705 2.81198
# Velocity P-wave (km/s) = 5.18534 6.09474 5.65834
#
# Compressibility (1/GPa) = 0.02402930
#
# Stress axis : x y z
#
# Youngs Moduli (GPa) = 55.37375 97.77023 70.18152
#
# Poissons Ratio (x) = 0.35932 0.21905
# Poissons Ratio (y) = 0.20351 0.17243
# Poissons Ratio (z) = 0.17283 0.24022
#
# Static dielectric constant tensor:
#      x y z
#    x 1.737540 0.000000 0.000000 
#    y 0.000000 1.772630 0.000000 
#    z 0.000000 0.000000 1.737090 
# 
# From -- ./inp_files/51474.got.cif
#   From: 2010.05.17/outbox.cif.g08.bks.cpg/sg72_26_cif.got.tgz:51474.got - 2010.06.03 17:03:01.
