data_PCOD9525509
_publ_section_title
;
Structure prediction by ZEFSAII (Michael W. Deem and Ramdas Pophale) SiO2 
 PCOD9525509
Probable space group: I B A M
;
_chemical_formula_sum "Si O2"
_cell_formula_units_Z 116
_cell_length_a 16.698745
_cell_length_b 13.806722
_cell_length_c 25.814668
_cell_angle_alpha 90.000000
_cell_angle_beta 90.000000
_cell_angle_gamma 90.000000
_cell_volume 5951.698973
_symmetry_space_group_name_H-M "I B A M"
_symmetry_group_IT_number 72
_symmetry_cell_setting 'orthorhombic'
loop_
_space_group_symop_operation_xyz
x,y,z
-x,-y,z
x,-y,1/2-z
-x,y,1/2-z
-x,-y,-z
x,y,-z
-x,y,1/2+z
x,-y,1/2+z
1/2+x,1/2+y,1/2+z
1/2-x,1/2-y,1/2+z
1/2+x,1/2-y,-z
1/2-x,1/2+y,-z
1/2-x,1/2-y,1/2-z
1/2+x,1/2+y,1/2-z
1/2-x,1/2+y,z
1/2+x,1/2-y,z
loop_
_atom_site_type_symbol
_atom_site_label
_atom_site_fract_x
_atom_site_fract_y
_atom_site_fract_z
Si Si1 0.419434 0.771692 0.558643
Si Si2 0.012181 0.887740 0.872423
Si Si3 0.500000 0.000000 0.250000
Si Si4 0.872854 0.424542 0.670023
Si Si5 0.584776 0.295247 0.276382
Si Si6 0.674972 0.862040 0.846838
Si Si7 0.849031 0.201607 0.671581
Si Si8 0.563030 0.087401 0.054989
O O1 0.386991 0.769264 0.500000
O O2 0.435739 0.667813 0.584375
O O3 0.369258 0.838285 0.598666
O O4 0.507414 0.818661 0.555942
O O5 0.061842 0.873918 0.819342
O O6 0.927609 0.831994 0.860664
O O7 0.000000 0.000000 0.884067
O O8 0.446134 0.938247 0.210093
O O9 0.828790 0.527707 0.673249
O O10 0.893304 0.419583 0.609052
O O11 0.000000 0.500000 0.554086
O O12 0.500000 0.265650 0.250000
O O13 0.628460 0.207132 0.305906
O O14 0.637994 0.336227 0.229980
O O15 0.767136 0.834581 0.852265
O O16 0.839878 0.317539 0.679642
O O17 0.608911 0.084283 0.000000
#
# Coordination Sequence:
#
# PCOD9525509 Si02
#       8
#    16  16   4  16  16  16  16  16
#     4  10  20  38  64  91 119 157 210 267 318 369
#     4  10  22  40  63  88 116 165 215 263 302 371
#     4  12  24  32  66  96 118 148 202 266 316 352
#     4  12  23  36  60  93 123 158 199 258 310 366
#     4   9  21  38  59  84 116 159 211 254 300 367
#     4  11  23  38  57  89 128 164 198 253 321 375
#     4  11  24  39  58  89 128 163 204 251 312 378
#     4  10  18  33  62  93 116 145 200 258 306 358
#
# _framework density 19.490233
#
# number of rings (size 3 to 8) (size 9 to 14) (size 15 to 20)
#    0.000    1.517    3.448    1.241    7.724    4.966 
#    0.000    2.759    0.000    1.655    0.000    0.000 
#    0.000    0.000    0.000    0.000    0.000    0.000 
#
# Total GULP energy -323339.163589 kJ/mol
# GULP energy per Si atom -5574.813165 kJ/mol
# Density = 1.944587 g / cm^3
# Si number density = 19.490233 Si / 1000 Ang^3
#
#
#
# Elastic Constant Matrix: (Units=GPa)
#
#
# Indices 1 2 3 4 5 6 
#
# 1 35.5786 2.6547 3.2403 0.0000 0.0000 0.0000
# 2 2.6547 97.2723 -10.0951 0.0000 0.0000 0.0000
# 3 3.2403 -10.0951 88.8144 0.0000 0.0000 0.0000
# 4 0.0000 0.0000 0.0000 19.1401 0.0000 0.0000
# 5 0.0000 0.0000 0.0000 0.0000 8.3063 0.0000
# 6 0.0000 0.0000 0.0000 0.0000 0.0000 9.2801
#
#
#
# Elastic Compliance Matrix: (Units=1/GPa)
#
#
# Indices 1 2 3 4 5 6 
#
# 1 0.028276 -0.000889 -0.001133 0.000000 0.000000 0.000000
# 2 -0.000889 0.010431 0.001218 0.000000 0.000000 0.000000
# 3 -0.001133 0.001218 0.011439 0.000000 0.000000 0.000000
# 4 0.000000 0.000000 0.000000 0.052246 0.000000 0.000000
# 5 0.000000 0.000000 0.000000 0.000000 0.120390 0.000000
# 6 0.000000 0.000000 0.000000 0.000000 0.000000 0.107758
#
#
# Mechanical properties :
#
#
# Convention : Reuss Voigt Hill
#
# Bulk Modulus (GPa) = 20.60204 23.69612 22.14908
# Shear Modulus (GPa) = 14.35428 22.40299 18.37863
#
# Velocity S-wave (km/s) = 2.71677 3.39403 3.07411
# Velocity P-wave (km/s) = 4.52046 5.24820 4.89786
#
# Compressibility (1/GPa) = 0.04853887
#
# Stress axis : x y z
#
# Youngs Moduli (GPa) = 35.36533 95.86709 87.41862
#
# Poissons Ratio (x) = 0.08525 0.09902
# Poissons Ratio (y) = 0.03145 -0.10648
# Poissons Ratio (z) = 0.04006 -0.11678
#
# Static dielectric constant tensor:
#      x y z
#    x 1.692470 0.000000 0.000000 
#    y 0.000000 1.730580 0.000000 
#    z 0.000000 0.000000 1.745290 
# 
# From -- ./inp_files/44997.got.cif
#   From: 2010.05.17/outbox.cif.g08.bks.cpg/sg72_23_cif.got.tgz:44997.got - 2010.06.03 17:03:01.
