data_PCOD9525037
_publ_section_title
;
Structure prediction by ZEFSAII (Michael W. Deem and Ramdas Pophale) SiO2 
 PCOD9525037
Probable space group: I B A M
;
_chemical_formula_sum "Si O2"
_cell_formula_units_Z 80
_cell_length_a 18.156168
_cell_length_b 28.939794
_cell_length_c 8.682428
_cell_angle_alpha 90.000000
_cell_angle_beta 90.000000
_cell_angle_gamma 90.000000
_cell_volume 4562.058170
_symmetry_space_group_name_H-M "I B A M"
_symmetry_group_IT_number 72
_symmetry_cell_setting 'orthorhombic'
loop_
_space_group_symop_operation_xyz
x,y,z
-x,-y,z
x,-y,1/2-z
-x,y,1/2-z
-x,-y,-z
x,y,-z
-x,y,1/2+z
x,-y,1/2+z
1/2+x,1/2+y,1/2+z
1/2-x,1/2-y,1/2+z
1/2+x,1/2-y,-z
1/2-x,1/2+y,-z
1/2-x,1/2-y,1/2-z
1/2+x,1/2+y,1/2-z
1/2-x,1/2+y,z
1/2+x,1/2-y,z
loop_
_atom_site_type_symbol
_atom_site_label
_atom_site_fract_x
_atom_site_fract_y
_atom_site_fract_z
Si Si1 0.293053 0.361597 0.314844
Si Si2 0.074662 0.552316 0.815711
Si Si3 0.419388 0.712461 0.815736
Si Si4 0.769473 0.448705 0.683139
Si Si5 0.186160 0.717083 0.184356
O O1 0.295002 0.367785 0.500000
O O2 0.361425 0.328215 0.271766
O O3 0.290386 0.410798 0.232523
O O4 0.217971 0.333290 0.276565
O O5 0.073898 0.500000 0.750000
O O6 0.153226 0.569150 0.755390
O O7 0.000000 0.574977 0.750000
O O8 0.072644 0.551959 0.000000
O O9 0.500000 0.703602 0.750000
O O10 0.387580 0.761285 0.753889
O O11 0.420829 0.714142 0.000000
O O12 0.755240 0.500000 0.750000
O O13 0.776617 0.452036 0.500000
O O14 0.250000 0.750000 0.250000
O O15 0.183158 0.720466 0.000000
#
# Coordination Sequence:
#
# PCOD9525037 Si02
#       5
#    16  16  16  16  16
#     4   9  19  35  53  76 105 138 174 215 259 307
#     4  10  17  28  45  65  91 121 158 203 249 298
#     4  10  20  34  55  81 110 140 173 213 259 313
#     4  11  21  33  51  74 101 137 179 222 264 310
#     4   9  17  31  52  76 104 134 166 205 252 306
#
# _framework density 17.535945000000002
#
# number of rings (size 3 to 8) (size 9 to 14) (size 15 to 20)
#    0.000    2.200    0.000    7.800    0.000    4.800 
#    0.000    1.000    0.000    5.400    0.000    4.200 
#    0.000    0.000    0.000    0.000    0.000    0.000 
#
# Total GULP energy -222873.298169 kJ/mol
# GULP energy per Si atom -5571.832454 kJ/mol
# Density = 1.749603 g / cm^3
# Si number density = 17.535945 Si / 1000 Ang^3
#
#
#
# Elastic Constant Matrix: (Units=GPa)
#
#
# Indices 1 2 3 4 5 6 
#
# 1 99.1530 49.0968 40.7852 0.0000 0.0000 0.0000
# 2 49.0968 99.7727 44.2767 0.0000 0.0000 0.0000
# 3 40.7852 44.2767 104.8459 0.0000 0.0000 -0.0002
# 4 0.0000 0.0000 0.0000 22.6425 0.0000 0.0000
# 5 0.0000 0.0000 0.0000 0.0000 31.2728 0.0001
# 6 0.0000 0.0000 -0.0002 0.0000 0.0001 21.6957
#
#
#
# Elastic Compliance Matrix: (Units=1/GPa)
#
#
# Indices 1 2 3 4 5 6 
#
# 1 0.014133 -0.005556 -0.003151 0.000000 0.000000 0.000000
# 2 -0.005556 0.014519 -0.003970 0.000000 0.000000 0.000000
# 3 -0.003151 -0.003970 0.012440 0.000000 0.000000 0.000000
# 4 0.000000 0.000000 0.000000 0.044165 0.000000 0.000000
# 5 0.000000 0.000000 0.000000 0.000000 0.031977 0.000000
# 6 0.000000 0.000000 0.000000 0.000000 0.000000 0.046092
#
#
# Mechanical properties :
#
#
# Convention : Reuss Voigt Hill
#
# Bulk Modulus (GPa) = 63.54475 63.56543 63.55509
# Shear Modulus (GPa) = 25.78308 26.42972 26.10640
#
# Velocity S-wave (km/s) = 3.83861 3.88645 3.86260
# Velocity P-wave (km/s) = 7.48078 7.51443 7.49762
#
# Compressibility (1/GPa) = 0.01573694
#
# Stress axis : x y z
#
# Youngs Moduli (GPa) = 70.75713 68.87716 80.38462
#
# Poissons Ratio (x) = 0.38269 0.25332
# Poissons Ratio (y) = 0.39313 0.31912
# Poissons Ratio (z) = 0.22298 0.27344
#
# Static dielectric constant tensor:
#      x y z
#    x 1.635260 0.000000 0.000000 
#    y 0.000000 1.575420 0.000000 
#    z 0.000000 0.000000 1.595280 
# 
# From -- ./inp_files/4754.got.cif
#   From: 2010.05.17/outbox.cif.g08.bks.cpg/sg72_3_cif.got.tgz:4754.got - 2010.06.03 17:03:01.
