data_PCOD9525438
_publ_section_title
;
Structure prediction by ZEFSAII (Michael W. Deem and Ramdas Pophale) SiO2 
 PCOD9525438
Probable space group: I B A M
;
_chemical_formula_sum "Si O2"
_cell_formula_units_Z 80
_cell_length_a 22.785004
_cell_length_b 17.595694
_cell_length_c 8.521855
_cell_angle_alpha 90.000000
_cell_angle_beta 90.000000
_cell_angle_gamma 90.000000
_cell_volume 3416.564706
_symmetry_space_group_name_H-M "I B A M"
_symmetry_group_IT_number 72
_symmetry_cell_setting 'orthorhombic'
loop_
_space_group_symop_operation_xyz
x,y,z
-x,-y,z
x,-y,1/2-z
-x,y,1/2-z
-x,-y,-z
x,y,-z
-x,y,1/2+z
x,-y,1/2+z
1/2+x,1/2+y,1/2+z
1/2-x,1/2-y,1/2+z
1/2+x,1/2-y,-z
1/2-x,1/2+y,-z
1/2-x,1/2-y,1/2-z
1/2+x,1/2+y,1/2-z
1/2-x,1/2+y,z
1/2+x,1/2-y,z
loop_
_atom_site_type_symbol
_atom_site_label
_atom_site_fract_x
_atom_site_fract_y
_atom_site_fract_z
Si Si1 0.421391 0.760920 0.679283
Si Si2 0.910378 0.581710 0.816044
Si Si3 0.822924 0.154409 0.821970
Si Si4 0.560731 0.390070 0.822182
Si Si5 0.218847 0.578410 0.816721
O O1 0.438542 0.741586 0.500000
O O2 0.434513 0.846633 0.720884
O O3 0.351898 0.738392 0.685073
O O4 0.444611 0.702121 0.808582
O O5 0.929081 0.500000 0.750000
O O6 0.840327 0.587368 0.783316
O O7 0.922585 0.587645 0.000000
O O8 0.878976 0.100987 0.775129
O O9 0.768445 0.141046 0.710338
O O10 0.805152 0.138569 0.000000
O O11 0.500000 0.418926 0.750000
O O12 0.567736 0.414827 0.000000
O O13 0.245945 0.500000 0.750000
O O14 0.203175 0.572090 0.000000
#
# Coordination Sequence:
#
# PCOD9525438 Si02
#       5
#    16  16  16  16  16
#     4   9  19  34  52  76 103 132 169 212 253 297
#     4  11  21  34  52  73 103 139 174 209 250 301
#     4   9  19  34  52  76 103 132 169 212 253 297
#     4  10  18  32  53  78 103 132 166 206 256 302
#     4  11  21  34  52  73 103 139 174 209 250 301
#
# _framework density 23.415330999999998
#
# number of rings (size 3 to 8) (size 9 to 14) (size 15 to 20)
#    1.200    0.800    0.000    7.200    0.000    0.800 
#    0.000    0.000    0.000    1.200    0.000    8.400 
#    0.000    0.000    0.000    0.000    0.000    0.000 
#
# Total GULP energy -223156.087741 kJ/mol
# GULP energy per Si atom -5578.902194 kJ/mol
# Density = 2.336204 g / cm^3
# Si number density = 23.415331 Si / 1000 Ang^3
#
#
#
# Elastic Constant Matrix: (Units=GPa)
#
#
# Indices 1 2 3 4 5 6 
#
# 1 72.1191 1.6308 -6.7974 0.0000 0.0000 0.0000
# 2 1.6308 80.7342 8.0525 0.0000 0.0000 0.0000
# 3 -6.7974 8.0525 112.3824 0.0000 0.0000 0.0000
# 4 0.0000 0.0000 0.0000 24.3984 0.0000 0.0000
# 5 0.0000 0.0000 0.0000 0.0000 26.0210 0.0000
# 6 0.0000 0.0000 0.0000 0.0000 0.0000 1.0718
#
#
#
# Elastic Compliance Matrix: (Units=1/GPa)
#
#
# Indices 1 2 3 4 5 6 
#
# 1 0.013956 -0.000369 0.000871 0.000000 0.000000 0.000000
# 2 -0.000369 0.012485 -0.000917 0.000000 0.000000 0.000000
# 3 0.000871 -0.000917 0.009017 0.000000 0.000000 0.000000
# 4 0.000000 0.000000 0.000000 0.040986 0.000000 0.000000
# 5 0.000000 0.000000 0.000000 0.000000 0.038430 0.000000
# 6 0.000000 0.000000 0.000000 0.000000 0.000000 0.933029
#
#
# Mechanical properties :
#
#
# Convention : Reuss Voigt Hill
#
# Bulk Modulus (GPa) = 28.87839 30.11193 29.49516
# Shear Modulus (GPa) = 4.71575 27.78823 16.25199
#
# Velocity S-wave (km/s) = 1.42068 3.44867 2.63739
# Velocity P-wave (km/s) = 3.87956 5.36149 4.67956
#
# Compressibility (1/GPa) = 0.03462797
#
# Stress axis : x y z
#
# Youngs Moduli (GPa) = 71.65199 80.09463 110.90722
#
# Poissons Ratio (x) = 0.02953 -0.09655
# Poissons Ratio (y) = 0.02642 0.10169
# Poissons Ratio (z) = -0.06238 0.07344
#
# Static dielectric constant tensor:
#      x y z
#    x 1.963130 0.000000 0.000000 
#    y 0.000000 1.953380 0.000000 
#    z 0.000000 0.000000 1.788940 
# 
# From -- ./inp_files/9024.got.cif
#   From: 2010.05.17/outbox.cif.g08.bks.cpg/sg72_5_cif.got.tgz:9024.got - 2010.06.03 17:03:01.
