data_PCOD9525515
_publ_section_title
;
Structure prediction by ZEFSAII (Michael W. Deem and Ramdas Pophale) SiO2 
 PCOD9525515
Probable space group: I B A M
;
_chemical_formula_sum "Si O2"
_cell_formula_units_Z 120
_cell_length_a 11.949543
_cell_length_b 21.836135
_cell_length_c 25.935803
_cell_angle_alpha 90.000000
_cell_angle_beta 90.000000
_cell_angle_gamma 90.000000
_cell_volume 6767.476647
_symmetry_space_group_name_H-M "I B A M"
_symmetry_group_IT_number 72
_symmetry_cell_setting 'orthorhombic'
loop_
_space_group_symop_operation_xyz
x,y,z
-x,-y,z
x,-y,1/2-z
-x,y,1/2-z
-x,-y,-z
x,y,-z
-x,y,1/2+z
x,-y,1/2+z
1/2+x,1/2+y,1/2+z
1/2-x,1/2-y,1/2+z
1/2+x,1/2-y,-z
1/2-x,1/2+y,-z
1/2-x,1/2-y,1/2-z
1/2+x,1/2+y,1/2-z
1/2-x,1/2+y,z
1/2+x,1/2-y,z
loop_
_atom_site_type_symbol
_atom_site_label
_atom_site_fract_x
_atom_site_fract_y
_atom_site_fract_z
Si Si1 0.677540 0.934597 0.438793
Si Si2 0.500000 0.000000 0.129272
Si Si3 0.050940 0.381256 0.306626
Si Si4 0.464976 0.319330 0.619002
Si Si5 0.058613 0.063613 0.562001
Si Si6 0.903198 0.314389 0.615111
Si Si7 0.280307 0.336393 0.705719
Si Si8 0.685863 0.703231 0.184391
O O1 0.670829 0.945683 0.500000
O O2 0.606124 0.984943 0.407361
O O3 0.809196 0.934368 0.423597
O O4 0.621842 0.868414 0.425357
O O5 0.490314 0.057065 0.167158
O O6 0.184129 0.385787 0.301565
O O7 0.000000 0.369452 0.250000
O O8 0.007233 0.331468 0.347981
O O9 0.493261 0.376926 0.583074
O O10 0.422083 0.254768 0.594662
O O11 0.373139 0.337092 0.661886
O O12 0.579427 0.304343 0.648691
O O13 0.054554 0.065250 0.500000
O O14 0.000000 0.000000 0.579053
O O15 0.796530 0.315428 0.653216
O O16 0.328628 0.335060 0.763182
O O17 0.209849 0.273121 0.700439
#
# Coordination Sequence:
#
# PCOD9525515 Si02
#       8
#    16   8  16  16  16  16  16  16
#     4  10  21  41  64  83 112 150 193 245 303 351
#     4  10  24  36  58  84 112 148 200 242 288 340
#     4  11  20  36  53  81 117 153 190 235 284 344
#     4  11  21  35  59  86 118 147 196 239 282 349
#     4  10  23  42  64  84 111 155 197 242 299 353
#     4  10  20  34  58  85 114 150 184 238 294 342
#     4  10  21  30  57  82 118 151 188 230 281 338
#     4  10  18  34  51  85 116 152 183 229 285 340
#
# _framework density 17.731867999999999
#
# number of rings (size 3 to 8) (size 9 to 14) (size 15 to 20)
#    0.000    1.733    4.000    0.800    1.867    0.533 
#    0.000    0.000    0.000    0.800    0.000    0.000 
#    0.000    0.000    0.000    0.000    0.000    0.000 
#
# Total GULP energy -334393.555507 kJ/mol
# GULP energy per Si atom -5573.225925 kJ/mol
# Density = 1.769151 g / cm^3
# Si number density = 17.731868 Si / 1000 Ang^3
#
#
#
# Elastic Constant Matrix: (Units=GPa)
#
#
# Indices 1 2 3 4 5 6 
#
# 1 72.4658 14.9574 8.6576 0.0000 0.0000 0.0000
# 2 14.9574 66.4849 14.0290 0.0000 0.0000 0.0000
# 3 8.6576 14.0290 32.9080 0.0000 0.0000 0.0000
# 4 0.0000 0.0000 0.0000 5085.1082 0.0000 0.0000
# 5 0.0000 0.0000 0.0000 0.0000 21.1078 0.0000
# 6 0.0000 0.0000 0.0000 0.0000 0.0000 52.2931
#
#
#
# Elastic Compliance Matrix: (Units=1/GPa)
#
#
# Indices 1 2 3 4 5 6 
#
# 1 0.014686 -0.002735 -0.002698 0.000000 0.000000 0.000000
# 2 -0.002735 0.017037 -0.006544 0.000000 0.000000 0.000000
# 3 -0.002698 -0.006544 0.033887 0.000000 0.000000 0.000000
# 4 0.000000 0.000000 0.000000 0.000197 0.000000 0.000000
# 5 0.000000 0.000000 0.000000 0.000000 0.047376 0.000000
# 6 0.000000 0.000000 0.000000 0.000000 0.000000 0.019123
#
#
# Mechanical properties :
#
#
# Convention : Reuss Voigt Hill
#
# Bulk Modulus (GPa) = 24.00499 27.46076 25.73288
# Shear Modulus (GPa) = 29.38677 1040.64947 535.01812
#
# Velocity S-wave (km/s) = 4.07539 24.25191 17.38913
# Velocity P-wave (km/s) = 5.97597 28.27944 20.43819
#
# Compressibility (1/GPa) = 0.04165800
#
# Stress axis : x y z
#
# Youngs Moduli (GPa) = 68.09017 58.69573 29.50975
#
# Poissons Ratio (x) = 0.16052 0.07962
# Poissons Ratio (y) = 0.18621 0.19310
# Poissons Ratio (z) = 0.18370 0.38408
#
# Static dielectric constant tensor:
#      x y z
#    x 1.614070 0.000000 0.000000 
#    y 0.000000 1.657370 0.000000 
#    z 0.000000 0.000000 1.579620 
# 
# From -- ./inp_files/43586.got.cif
#   From: 2010.05.17/outbox.cif.g08.bks.cpg/sg72_22_cif.got.tgz:43586.got - 2010.06.03 17:03:01.
