data_PCOD9525805
_publ_section_title
;
Structure prediction by ZEFSAII (Michael W. Deem and Ramdas Pophale) SiO2 
 PCOD9525805
Probable space group: I B A M
;
_chemical_formula_sum "Si O2"
_cell_formula_units_Z 112
_cell_length_a 28.531325
_cell_length_b 15.550083
_cell_length_c 13.835277
_cell_angle_alpha 90.000000
_cell_angle_beta 90.000000
_cell_angle_gamma 90.000000
_cell_volume 6138.220863
_symmetry_space_group_name_H-M "I B A M"
_symmetry_group_IT_number 72
_symmetry_cell_setting 'orthorhombic'
loop_
_space_group_symop_operation_xyz
x,y,z
-x,-y,z
x,-y,1/2-z
-x,y,1/2-z
-x,-y,-z
x,y,-z
-x,y,1/2+z
x,-y,1/2+z
1/2+x,1/2+y,1/2+z
1/2-x,1/2-y,1/2+z
1/2+x,1/2-y,-z
1/2-x,1/2+y,-z
1/2-x,1/2-y,1/2-z
1/2+x,1/2+y,1/2-z
1/2-x,1/2+y,z
1/2+x,1/2-y,z
loop_
_atom_site_type_symbol
_atom_site_label
_atom_site_fract_x
_atom_site_fract_y
_atom_site_fract_z
Si Si1 0.449267 0.456144 0.891442
Si Si2 0.297682 0.563959 0.885009
Si Si3 0.217490 0.867615 0.114280
Si Si4 0.291442 0.100715 0.229855
Si Si5 0.606702 0.628691 0.614941
Si Si6 0.052273 0.217965 0.272580
Si Si7 0.359747 0.217715 0.115214
O O1 0.500000 0.500000 0.893538
O O2 0.414055 0.533102 0.867544
O O3 0.451793 0.376598 0.820615
O O4 0.437395 0.425041 0.000000
O O5 0.299841 0.463519 0.856566
O O6 0.248727 0.601244 0.851744
O O7 0.340247 0.621769 0.848821
O O8 0.301472 0.564375 0.000000
O O9 0.264532 0.855898 0.178590
O O10 0.175105 0.800436 0.126480
O O11 0.229336 0.868341 0.000000
O O12 0.335666 0.147496 0.184407
O O13 0.301151 0.000000 0.250000
O O14 0.603982 0.642939 0.500000
O O15 0.578218 0.699965 0.671722
O O16 0.088048 0.266108 0.343997
O O17 0.000000 0.251481 0.250000
O O18 0.360360 0.197326 0.000000
#
# Coordination Sequence:
#
# PCOD9525805 Si02
#       7
#    16  16  16  16  16  16  16
#     4  10  19  32  49  72 105 148 194 233 266 313
#     4   9  17  31  50  76 109 147 186 227 267 315
#     4   9  18  32  52  81 117 148 178 216 268 325
#     4  10  20  36  59  83 107 142 184 228 272 327
#     4  10  20  31  47  73 110 152 195 234 269 315
#     4  12  23  34  51  74 107 149 191 234 280 327
#     4  11  23  38  57  83 113 145 180 225 277 333
#
# _framework density 18.246328999999999
#
# number of rings (size 3 to 8) (size 9 to 14) (size 15 to 20)
#    0.000    1.857    1.429    3.429    0.000    5.714 
#    0.000    2.143    0.000    0.429    0.000    1.000 
#    0.000    0.000    0.000    0.000    0.000    0.000 
#
# Total GULP energy -312526.532526 kJ/mol
# GULP energy per Si atom -5580.830938 kJ/mol
# Density = 1.820480 g / cm^3
# Si number density = 18.246329 Si / 1000 Ang^3
#
#
#
# Elastic Constant Matrix: (Units=GPa)
#
#
# Indices 1 2 3 4 5 6 
#
# 1 103.5067 29.9753 41.7177 0.0000 0.0000 0.0000
# 2 29.9753 22.5529 22.3276 0.0000 0.0000 0.0000
# 3 41.7177 22.3276 94.0888 0.0000 0.0000 0.0000
# 4 0.0000 0.0000 0.0000 16.7596 0.0000 0.0000
# 5 0.0000 0.0000 0.0000 0.0000 25.7154 0.0000
# 6 0.0000 0.0000 0.0000 0.0000 0.0000 20.3098
#
#
#
# Elastic Compliance Matrix: (Units=1/GPa)
#
#
# Indices 1 2 3 4 5 6 
#
# 1 0.016220 -0.018872 -0.002713 0.000000 0.000000 0.000000
# 2 -0.018872 0.079914 -0.010596 0.000000 0.000000 0.000000
# 3 -0.002713 -0.010596 0.014346 0.000000 0.000000 0.000000
# 4 0.000000 0.000000 0.000000 0.059667 0.000000 0.000000
# 5 0.000000 0.000000 0.000000 0.000000 0.038887 0.000000
# 6 0.000000 0.000000 0.000000 0.000000 0.000000 0.049237
#
#
# Mechanical properties :
#
#
# Convention : Reuss Voigt Hill
#
# Bulk Modulus (GPa) = 21.68426 45.35442 33.51934
# Shear Modulus (GPa) = 14.79259 20.96547 17.87903
#
# Velocity S-wave (km/s) = 2.85040 3.39340 3.13368
# Velocity P-wave (km/s) = 4.76896 6.34541 5.61281
#
# Compressibility (1/GPa) = 0.04611639
#
# Stress axis : x y z
#
# Youngs Moduli (GPa) = 61.65171 12.51349 69.70665
#
# Poissons Ratio (x) = 0.23616 0.18914
# Poissons Ratio (y) = 1.16350 0.73862
# Poissons Ratio (z) = 0.16728 0.13259
#
# Static dielectric constant tensor:
#      x y z
#    x 1.656370 0.000000 0.000000 
#    y 0.000000 1.628550 0.000000 
#    z 0.000000 0.000000 1.682750 
# 
# From -- ./inp_files/22122.got.cif
#   From: 2010.05.17/outbox.cif.g08.bks.cpg/sg72_12_cif.got.tgz:22122.got - 2010.06.03 17:03:01.
