data_PCOD9525166
_publ_section_title
;
Structure prediction by ZEFSAII (Michael W. Deem and Ramdas Pophale) SiO2 
 PCOD9525166
Probable space group: I B A M
;
_chemical_formula_sum "Si O2"
_cell_formula_units_Z 128
_cell_length_a 20.380223
_cell_length_b 21.319313
_cell_length_c 14.400079
_cell_angle_alpha 90.000000
_cell_angle_beta 90.000000
_cell_angle_gamma 90.000000
_cell_volume 6256.724210
_symmetry_space_group_name_H-M "I B A M"
_symmetry_group_IT_number 72
_symmetry_cell_setting 'orthorhombic'
loop_
_space_group_symop_operation_xyz
x,y,z
-x,-y,z
x,-y,1/2-z
-x,y,1/2-z
-x,-y,-z
x,y,-z
-x,y,1/2+z
x,-y,1/2+z
1/2+x,1/2+y,1/2+z
1/2-x,1/2-y,1/2+z
1/2+x,1/2-y,-z
1/2-x,1/2+y,-z
1/2-x,1/2-y,1/2-z
1/2+x,1/2+y,1/2-z
1/2-x,1/2+y,z
1/2+x,1/2-y,z
loop_
_atom_site_type_symbol
_atom_site_label
_atom_site_fract_x
_atom_site_fract_y
_atom_site_fract_z
Si Si1 0.045100 0.554400 0.106654
Si Si2 0.010964 0.168039 0.391216
Si Si3 0.059085 0.046878 0.113116
Si Si4 0.161584 0.846144 0.885860
Si Si5 0.805562 0.983966 0.613501
Si Si6 0.820750 0.288161 0.111081
Si Si7 0.308388 0.923607 0.614255
Si Si8 0.476551 0.192193 0.145749
O O1 0.117796 0.562101 0.148311
O O2 0.011290 0.623011 0.105026
O O3 0.000000 0.500000 0.147472
O O4 0.057278 0.535753 0.000000
O O5 0.016179 0.154196 0.500000
O O6 0.960308 0.116568 0.353962
O O7 0.085082 0.157006 0.355670
O O8 0.992351 0.241225 0.384228
O O9 0.128361 0.019461 0.144058
O O10 0.062548 0.047126 0.000000
O O11 0.000000 0.000000 0.137990
O O12 0.192565 0.911686 0.856337
O O13 0.195674 0.781441 0.853805
O O14 0.161686 0.845297 0.000000
O O15 0.805974 0.983128 0.500000
O O16 0.742879 0.023875 0.642373
O O17 0.789329 0.352965 0.145159
O O18 0.899026 0.296785 0.127928
O O19 0.810830 0.286662 0.000000
O O20 0.309573 0.921910 0.500000
O O21 0.500000 0.185653 0.250000
#
# Coordination Sequence:
#
# PCOD9525166 Si02
#       8
#    16  16  16  16  16  16  16  16
#     4   9  17  31  50  67  89 118 145 178 234 291
#     4   9  15  25  41  61  92 125 151 177 221 276
#     4   9  14  21  36  62  92 121 150 183 224 264
#     4   8  12  19  35  58  82 114 150 181 212 261
#     4   9  14  20  35  62  91 114 145 189 227 258
#     4   8  14  26  42  60  86 122 155 181 221 279
#     4   8  14  24  39  60  88 117 143 177 222 269
#     4  10  18  27  43  68  92 112 150 192 225 257
#
# _framework density 20.457989999999999
#
# number of rings (size 3 to 8) (size 9 to 14) (size 15 to 20)
#    0.000    3.250    1.250    2.625    0.000    0.250 
#    0.000    0.000    2.750    0.375    0.000    3.500 
#   15.000    0.000    0.000    0.000    0.000    0.000 
#
# Total GULP energy -356290.255312 kJ/mol
# GULP energy per Si atom -5567.035239 kJ/mol
# Density = 2.041143 g / cm^3
# Si number density = 20.457990 Si / 1000 Ang^3
#
#
#
# Elastic Constant Matrix: (Units=GPa)
#
#
# Indices 1 2 3 4 5 6 
#
# 1 56.4785 83.9316 1.2998 0.0000 0.0000 0.0000
# 2 83.9316 243.7114 2.1331 0.0000 0.0000 0.0000
# 3 1.2998 2.1331 33.6389 0.0000 0.0000 0.0000
# 4 0.0000 0.0000 0.0000 -107.0508 0.0000 0.0000
# 5 0.0000 0.0000 0.0000 0.0000 -10.4626 0.0000
# 6 0.0000 0.0000 0.0000 0.0000 0.0000 31.3124
#
#
#
# Elastic Compliance Matrix: (Units=1/GPa)
#
#
# Indices 1 2 3 4 5 6 
#
# 1 0.036279 -0.012489 -0.000610 0.000000 0.000000 0.000000
# 2 -0.012489 0.008405 -0.000050 0.000000 0.000000 0.000000
# 3 -0.000610 -0.000050 0.029754 0.000000 0.000000 0.000000
# 4 0.000000 0.000000 0.000000 -0.009341 0.000000 0.000000
# 5 0.000000 0.000000 0.000000 0.000000 -0.095578 0.000000
# 6 0.000000 0.000000 0.000000 0.000000 0.000000 0.031936
#
#
# Mechanical properties :
#
#
# Convention : Reuss Voigt Hill
#
# Bulk Modulus (GPa) = 20.77271 56.50641 38.63956
# Shear Modulus (GPa) = 114.15528 -0.80926 56.67301
#
# Velocity S-wave (km/s) = 7.47803 -0.62963 5.26899
# Velocity P-wave (km/s) = 9.20528 5.21077 7.47962
#
# Compressibility (1/GPa) = 0.04814007
#
# Stress axis : x y z
#
# Youngs Moduli (GPa) = 27.56383 118.98099 33.60860
#
# Poissons Ratio (x) = 1.48594 0.02050
# Poissons Ratio (y) = 0.34424 0.00169
# Poissons Ratio (z) = 0.01681 0.00600
#
# Static dielectric constant tensor:
#      x y z
#    x 1.705560 0.000000 0.000000 
#    y 0.000000 1.791140 0.000000 
#    z 0.000000 0.000000 1.755540 
# 
# From -- ./inp_files/32956.got.cif
#   From: 2010.05.17/outbox.cif.g08.bks.cpg/sg72_17_cif.got.tgz:32956.got - 2010.06.03 17:03:01.
