data_PCOD9525865
_publ_section_title
;
Structure prediction by ZEFSAII (Michael W. Deem and Ramdas Pophale) SiO2 
 PCOD9525865
Probable space group: I B A M
;
_chemical_formula_sum "Si O2"
_cell_formula_units_Z 116
_cell_length_a 19.017319
_cell_length_b 21.476763
_cell_length_c 14.554644
_cell_angle_alpha 90.000000
_cell_angle_beta 90.000000
_cell_angle_gamma 90.000000
_cell_volume 5944.559843
_symmetry_space_group_name_H-M "I B A M"
_symmetry_group_IT_number 72
_symmetry_cell_setting 'orthorhombic'
loop_
_space_group_symop_operation_xyz
x,y,z
-x,-y,z
x,-y,1/2-z
-x,y,1/2-z
-x,-y,-z
x,y,-z
-x,y,1/2+z
x,-y,1/2+z
1/2+x,1/2+y,1/2+z
1/2-x,1/2-y,1/2+z
1/2+x,1/2-y,-z
1/2-x,1/2+y,-z
1/2-x,1/2-y,1/2-z
1/2+x,1/2+y,1/2-z
1/2-x,1/2+y,z
1/2+x,1/2-y,z
loop_
_atom_site_type_symbol
_atom_site_label
_atom_site_fract_x
_atom_site_fract_y
_atom_site_fract_z
Si Si1 0.478224 0.786762 0.644428
Si Si2 0.000000 0.500000 0.750000
Si Si3 0.938836 0.830702 0.901589
Si Si4 0.337968 0.377703 0.760237
Si Si5 0.232441 0.628843 0.893332
Si Si6 0.035986 0.937686 0.849214
Si Si7 0.821547 0.234691 0.108221
Si Si8 0.072993 0.417746 0.399509
O O1 0.500000 0.792824 0.750000
O O2 0.533805 0.739188 0.602758
O O3 0.401150 0.756445 0.631417
O O4 0.472973 0.854821 0.602238
O O5 0.952014 0.540617 0.683390
O O6 0.893222 0.846226 0.811824
O O7 0.006314 0.876484 0.897982
O O8 0.902862 0.841488 0.000000
O O9 0.279785 0.400461 0.687273
O O10 0.381865 0.427266 0.823163
O O11 0.307402 0.324548 0.827393
O O12 0.227110 0.704037 0.877912
O O13 0.153262 0.603605 0.886522
O O14 0.253683 0.617745 0.000000
O O15 0.000000 0.936476 0.750000
O O16 0.000000 0.000000 0.891741
O O17 0.818337 0.218970 0.000000
O O18 0.066821 0.447755 0.500000
#
# Coordination Sequence:
#
# PCOD9525865 Si02
#       8
#    16   4  16  16  16  16  16  16
#     4  11  17  33  53  82 118 150 189 235 289 345
#     4  12  22  40  68  94 112 144 190 228 284 354
#     4  11  20  31  52  81 113 152 199 248 293 336
#     4  11  19  33  55  80 110 156 202 242 284 355
#     4   9  20  37  56  82 115 150 188 236 294 355
#     4   9  19  34  49  74 110 150 197 253 291 331
#     4  10  19  32  52  79 115 154 190 236 297 352
#     4  10  22  39  61  89 121 150 184 233 292 357
#
# _framework density 19.513639000000001
#
# number of rings (size 3 to 8) (size 9 to 14) (size 15 to 20)
#    0.000    1.793    3.448    3.517    0.000    0.276 
#    0.000    2.759    0.000    2.897    0.000    0.000 
#    0.000    0.000    0.000    0.000    0.000    0.000 
#
# Total GULP energy -323168.975669 kJ/mol
# GULP energy per Si atom -5571.878891 kJ/mol
# Density = 1.946923 g / cm^3
# Si number density = 19.513639 Si / 1000 Ang^3
#
#
#
# Elastic Constant Matrix: (Units=GPa)
#
#
# Indices 1 2 3 4 5 6 
#
# 1 64.2585 28.2425 35.9893 0.0000 0.0000 0.0000
# 2 28.2425 75.7937 39.6372 0.0000 0.0000 0.0000
# 3 35.9893 39.6372 134.8329 0.0000 0.0000 0.0000
# 4 0.0000 0.0000 0.0000 71.2360 0.0000 0.0000
# 5 0.0000 0.0000 0.0000 0.0000 -50.4058 0.0000
# 6 0.0000 0.0000 0.0000 0.0000 0.0000 13.7055
#
#
#
# Elastic Compliance Matrix: (Units=1/GPa)
#
#
# Indices 1 2 3 4 5 6 
#
# 1 0.020085 -0.005531 -0.003735 0.000000 0.000000 0.000000
# 2 -0.005531 0.017114 -0.003555 0.000000 0.000000 0.000000
# 3 -0.003735 -0.003555 0.009459 0.000000 0.000000 0.000000
# 4 0.000000 0.000000 0.000000 0.014038 0.000000 0.000000
# 5 0.000000 0.000000 0.000000 0.000000 -0.019839 0.000000
# 6 0.000000 0.000000 0.000000 0.000000 0.000000 0.072963
#
#
# Mechanical properties :
#
#
# Convention : Reuss Voigt Hill
#
# Bulk Modulus (GPa) = 47.58306 53.62480 50.60393
# Shear Modulus (GPa) = 34.13767 18.30821 26.22294
#
# Velocity S-wave (km/s) = 4.18715 3.06637 3.66980
# Velocity P-wave (km/s) = 6.91475 6.33065 6.62914
#
# Compressibility (1/GPa) = 0.02101588
#
# Stress axis : x y z
#
# Youngs Moduli (GPa) = 49.78855 58.43317 105.72472
#
# Poissons Ratio (x) = 0.32318 0.39489
# Poissons Ratio (y) = 0.27537 0.37581
# Poissons Ratio (z) = 0.18597 0.20771
#
# Static dielectric constant tensor:
#      x y z
#    x 1.707020 0.000000 0.000000 
#    y 0.000000 1.718890 0.000000 
#    z 0.000000 0.000000 1.372610 
# 
# From -- ./inp_files/23550.got.cif
#   From: 2010.05.17/outbox.cif.g08.bks.cpg/sg72_12_cif.got.tgz:23550.got - 2010.06.03 17:03:01.
