data_PCOD9525114
_publ_section_title
;
Structure prediction by ZEFSAII (Michael W. Deem and Ramdas Pophale) SiO2 
 PCOD9525114
Probable space group: I B A M
;
_chemical_formula_sum "Si O2"
_cell_formula_units_Z 88
_cell_length_a 13.839245
_cell_length_b 25.498363
_cell_length_c 14.168870
_cell_angle_alpha 90.000000
_cell_angle_beta 90.000000
_cell_angle_gamma 90.000000
_cell_volume 4999.883821
_symmetry_space_group_name_H-M "I B A M"
_symmetry_group_IT_number 72
_symmetry_cell_setting 'orthorhombic'
loop_
_space_group_symop_operation_xyz
x,y,z
-x,-y,z
x,-y,1/2-z
-x,y,1/2-z
-x,-y,-z
x,y,-z
-x,y,1/2+z
x,-y,1/2+z
1/2+x,1/2+y,1/2+z
1/2-x,1/2-y,1/2+z
1/2+x,1/2-y,-z
1/2-x,1/2+y,-z
1/2-x,1/2-y,1/2-z
1/2+x,1/2+y,1/2-z
1/2-x,1/2+y,z
1/2+x,1/2-y,z
loop_
_atom_site_type_symbol
_atom_site_label
_atom_site_fract_x
_atom_site_fract_y
_atom_site_fract_z
Si Si1 0.335012 0.854461 0.500000
Si Si2 0.345893 0.561961 0.500000
Si Si3 0.833135 0.360603 0.500000
Si Si4 0.831561 0.059737 0.500000
Si Si5 0.193370 0.234856 0.500000
Si Si6 0.992156 0.663094 0.862050
Si Si7 0.510020 0.399831 0.137439
Si Si8 0.019313 0.781191 0.861941
O O1 0.259918 0.901718 0.500000
O O2 0.285149 0.796866 0.500000
O O3 0.408189 0.854727 0.410980
O O4 0.253729 0.598957 0.500000
O O5 0.313033 0.501994 0.500000
O O6 0.415144 0.575948 0.411587
O O7 0.783036 0.303601 0.500000
O O8 0.902632 0.366183 0.590503
O O9 0.898197 0.072199 0.591152
O O10 0.126581 0.222166 0.592156
O O11 0.977556 0.724576 0.889999
O O12 0.000000 0.658547 0.750000
O O13 0.500000 0.403974 0.250000
O O14 0.518380 0.338258 0.109095
O O15 0.000000 0.781432 0.750000
#
# Coordination Sequence:
#
# PCOD9525114 Si02
#       8
#     8   8   8   8   8  16  16  16
#     4   9  21  37  55  83 109 142 187 226 270 322
#     4  11  23  39  53  83 110 143 195 220 265 322
#     4  11  21  34  61  79 105 149 180 230 272 316
#     4  11  24  37  56  77 113 149 182 234 263 313
#     4  10  17  33  55  83 112 141 182 216 265 337
#     4   9  20  38  56  80 114 144 175 226 282 326
#     4  10  20  36  57  82 115 149 176 214 269 329
#     4   9  17  33  54  82 117 141 172 214 266 334
#
# _framework density 17.600408999999999
#
# number of rings (size 3 to 8) (size 9 to 14) (size 15 to 20)
#    0.000    2.182    1.818    2.182    2.545    2.909 
#    0.000    4.545    0.000    1.091    0.000    0.000 
#    0.000    0.000    0.000    0.000    0.000    0.000 
#
# Total GULP energy -245077.675333 kJ/mol
# GULP energy per Si atom -5569.947167 kJ/mol
# Density = 1.756035 g / cm^3
# Si number density = 17.600409 Si / 1000 Ang^3
#
#
#
# Elastic Constant Matrix: (Units=GPa)
#
#
# Indices 1 2 3 4 5 6 
#
# 1 112.6930 76.1910 54.9721 0.0000 0.0000 0.0000
# 2 76.1910 114.1145 39.8349 -0.0001 0.0000 0.0000
# 3 54.9721 39.8349 151.1895 0.0000 0.0000 0.0000
# 4 0.0000 -0.0001 0.0000 16.6888 0.0000 0.0000
# 5 0.0000 0.0000 0.0000 0.0000 2.2722 0.0000
# 6 0.0000 0.0000 0.0000 0.0000 0.0000 17.3801
#
#
#
# Elastic Compliance Matrix: (Units=1/GPa)
#
#
# Indices 1 2 3 4 5 6 
#
# 1 0.017871 -0.010642 -0.003694 0.000000 0.000000 0.000000
# 2 -0.010642 0.015988 -0.000343 0.000000 0.000000 0.000000
# 3 -0.003694 -0.000343 0.008048 0.000000 0.000000 0.000000
# 4 0.000000 0.000000 0.000000 0.059920 0.000001 0.000000
# 5 0.000000 0.000000 0.000000 0.000001 0.440099 0.000000
# 6 0.000000 0.000000 0.000000 0.000000 0.000000 0.057537
#
#
# Mechanical properties :
#
#
# Convention : Reuss Voigt Hill
#
# Bulk Modulus (GPa) = 79.69062 79.99924 79.84493
# Shear Modulus (GPa) = 7.89884 21.06816 14.48350
#
# Velocity S-wave (km/s) = 2.12076 3.46356 2.87175
# Velocity P-wave (km/s) = 7.16748 7.84517 7.51397
#
# Compressibility (1/GPa) = 0.01254853
#
# Stress axis : x y z
#
# Youngs Moduli (GPa) = 55.95743 62.54497 124.26015
#
# Poissons Ratio (x) = 0.66563 0.45898
# Poissons Ratio (y) = 0.59552 0.04263
# Poissons Ratio (z) = 0.20669 0.02146
#
# Static dielectric constant tensor:
#      x y z
#    x 1.574860 0.000000 0.000000 
#    y 0.000000 1.609710 0.000000 
#    z 0.000000 0.000000 1.607750 
# 
# From -- ./inp_files/20571.got.cif
#   From: 2010.05.17/outbox.cif.g08.bks.cpg/sg72_11_cif.got.tgz:20571.got - 2010.06.03 17:03:01.
