data_PCOD9525410
_publ_section_title
;
Structure prediction by ZEFSAII (Michael W. Deem and Ramdas Pophale) SiO2 
 PCOD9525410
Probable space group: I B A M
;
_chemical_formula_sum "Si O2"
_cell_formula_units_Z 112
_cell_length_a 30.255048
_cell_length_b 13.815193
_cell_length_c 14.574278
_cell_angle_alpha 90.000000
_cell_angle_beta 90.000000
_cell_angle_gamma 90.000000
_cell_volume 6091.746915
_symmetry_space_group_name_H-M "I B A M"
_symmetry_group_IT_number 72
_symmetry_cell_setting 'orthorhombic'
loop_
_space_group_symop_operation_xyz
x,y,z
-x,-y,z
x,-y,1/2-z
-x,y,1/2-z
-x,-y,-z
x,y,-z
-x,y,1/2+z
x,-y,1/2+z
1/2+x,1/2+y,1/2+z
1/2-x,1/2-y,1/2+z
1/2+x,1/2-y,-z
1/2-x,1/2+y,-z
1/2-x,1/2-y,1/2-z
1/2+x,1/2+y,1/2-z
1/2-x,1/2+y,z
1/2+x,1/2-y,z
loop_
_atom_site_type_symbol
_atom_site_label
_atom_site_fract_x
_atom_site_fract_y
_atom_site_fract_z
Si Si1 0.618583 0.297140 0.393428
Si Si2 0.935798 0.921063 0.110728
Si Si3 0.973026 0.866209 0.611720
Si Si4 0.269798 0.175957 0.393492
Si Si5 0.304863 0.787475 0.707750
Si Si6 0.657187 0.488021 0.854651
Si Si7 0.743660 0.050270 0.600043
O O1 0.621335 0.268924 0.500000
O O2 0.567559 0.298528 0.362370
O O3 0.646772 0.226115 0.330998
O O4 0.638455 0.407700 0.388877
O O5 0.976326 0.853037 0.142868
O O6 0.954678 0.027148 0.136704
O O7 0.885261 0.916655 0.142453
O O8 0.933512 0.916799 0.000000
O O9 0.974342 0.865810 0.500000
O O10 0.273914 0.206775 0.500000
O O11 0.302602 0.220737 0.317582
O O12 0.223213 0.206636 0.347905
O O13 0.271797 0.060289 0.392355
O O14 0.279052 0.884372 0.677007
O O15 0.669956 0.500000 0.750000
O O16 0.702831 0.452862 0.898837
O O17 0.729451 0.088309 0.500000
#
# Coordination Sequence:
#
# PCOD9525410 Si02
#       7
#    16  16  16  16  16  16  16
#     4  10  18  32  49  67  91 124 166 216 259 299
#     4   8  13  25  41  59  82 117 156 200 246 293
#     4   7  12  23  43  63  83 113 156 200 248 294
#     4  10  21  35  49  68  98 130 166 218 265 298
#     4  11  21  33  52  72  93 129 177 213 251 311
#     4  11  20  28  42  66  97 131 172 212 251 303
#     4  11  21  34  50  71  99 135 179 222 261 303
#
# _framework density 18.385531
#
# number of rings (size 3 to 8) (size 9 to 14) (size 15 to 20)
#    0.000    2.286    1.429    5.571    2.000    0.000 
#    0.000    5.714    0.000    0.000    0.000    0.000 
#    0.000    1.143    0.000    3.857    4.000   20.143 
#
# Total GULP energy -312067.464751 kJ/mol
# GULP energy per Si atom -5572.633299 kJ/mol
# Density = 1.834368 g / cm^3
# Si number density = 18.385531 Si / 1000 Ang^3
#
#
#
# Elastic Constant Matrix: (Units=GPa)
#
#
# Indices 1 2 3 4 5 6 
#
# 1 113.5820 12.1205 34.6069 0.0000 0.0000 0.0000
# 2 12.1205 41.1964 14.8681 0.0000 0.0000 0.0000
# 3 34.6069 14.8681 117.6962 0.0000 0.0000 0.0000
# 4 0.0000 0.0000 0.0000 16.6471 0.0000 0.0000
# 5 0.0000 0.0000 0.0000 0.0000 -3.0765 0.0000
# 6 0.0000 0.0000 0.0000 0.0000 0.0000 24.6668
#
#
#
# Elastic Compliance Matrix: (Units=1/GPa)
#
#
# Indices 1 2 3 4 5 6 
#
# 1 0.009816 -0.001934 -0.002642 0.000000 0.000000 0.000000
# 2 -0.001934 0.025815 -0.002692 0.000000 0.000000 0.000000
# 3 -0.002642 -0.002692 0.009613 0.000000 0.000000 0.000000
# 4 0.000000 0.000000 0.000000 0.060071 0.000000 0.000000
# 5 0.000000 0.000000 0.000000 0.000000 -0.325044 0.000000
# 6 0.000000 0.000000 0.000000 0.000000 0.000000 0.040540
#
#
# Mechanical properties :
#
#
# Convention : Reuss Voigt Hill
#
# Bulk Modulus (GPa) = 32.56616 43.96283 38.26449
# Shear Modulus (GPa) = -32.37994 21.70608 -5.33693
#
# Velocity S-wave (km/s) = -4.20118 3.43972 -1.70561
# Velocity P-wave (km/s) = 2.40453 6.30390 4.12052
#
# Compressibility (1/GPa) = 0.03070672
#
# Stress axis : x y z
#
# Youngs Moduli (GPa) = 101.87926 38.73747 104.02220
#
# Poissons Ratio (x) = 0.07493 0.27480
# Poissons Ratio (y) = 0.19708 0.28006
# Poissons Ratio (z) = 0.26914 0.10429
#
# Static dielectric constant tensor:
#      x y z
#    x 1.684190 0.000000 0.000000 
#    y 0.000000 1.665560 0.000000 
#    z 0.000000 0.000000 1.706440 
# 
# From -- ./inp_files/26510.got.cif
#   From: 2010.05.17/outbox.cif.g08.bks.cpg/sg72_14_cif.got.tgz:26510.got - 2010.06.03 17:03:01.
