data_PCOD9525580
_publ_section_title
;
Structure prediction by ZEFSAII (Michael W. Deem and Ramdas Pophale) SiO2 
 PCOD9525580
Probable space group: I B A M
;
_chemical_formula_sum "Si O2"
_cell_formula_units_Z 80
_cell_length_a 15.771452
_cell_length_b 18.490351
_cell_length_c 14.022816
_cell_angle_alpha 90.000000
_cell_angle_beta 90.000000
_cell_angle_gamma 90.000000
_cell_volume 4089.329160
_symmetry_space_group_name_H-M "I B A M"
_symmetry_group_IT_number 72
_symmetry_cell_setting 'orthorhombic'
loop_
_space_group_symop_operation_xyz
x,y,z
-x,-y,z
x,-y,1/2-z
-x,y,1/2-z
-x,-y,-z
x,y,-z
-x,y,1/2+z
x,-y,1/2+z
1/2+x,1/2+y,1/2+z
1/2-x,1/2-y,1/2+z
1/2+x,1/2-y,-z
1/2-x,1/2+y,-z
1/2-x,1/2-y,1/2-z
1/2+x,1/2+y,1/2-z
1/2-x,1/2+y,z
1/2+x,1/2-y,z
loop_
_atom_site_type_symbol
_atom_site_label
_atom_site_fract_x
_atom_site_fract_y
_atom_site_fract_z
Si Si1 0.550031 0.179298 0.609504
Si Si2 0.867488 0.921072 0.790148
Si Si3 0.054138 0.425268 0.000000
Si Si4 0.000000 0.198759 0.250000
Si Si5 0.225364 0.490737 0.000000
Si Si6 0.595373 0.530856 0.500000
Si Si7 0.823868 0.430387 0.194488
O O1 0.581689 0.192986 0.500000
O O2 0.477433 0.119591 0.590958
O O3 0.511709 0.249044 0.659435
O O4 0.618455 0.139054 0.675989
O O5 0.887261 0.924905 0.903311
O O6 0.768577 0.912535 0.763001
O O7 0.920435 0.854769 0.751252
O O8 0.893637 0.000000 0.750000
O O9 0.000000 0.500000 0.000000
O O10 0.154756 0.429445 0.000000
O O11 0.325272 0.473824 0.000000
O O12 0.200900 0.538255 0.091130
O O13 0.500000 0.500000 0.500000
O O14 0.861577 0.500000 0.250000
#
# Coordination Sequence:
#
# PCOD9525580 Si02
#       7
#    16  16   8   8   8   8  16
#     4  10  24  39  60  95 135 171 208 255 337 390
#     4  10  23  43  67  92 120 162 226 274 318 381
#     4  10  18  37  63  85 133 166 210 255 303 388
#     4  12  25  40  63  90 136 174 212 268 327 394
#     4  10  18  36  57  94 123 162 202 272 306 367
#     4  10  20  35  68  93 117 154 208 279 328 357
#     4  10  20  37  67  93 121 165 218 266 318 381
#
# _framework density 19.563110999999999
#
# number of rings (size 3 to 8) (size 9 to 14) (size 15 to 20)
#    0.600    1.200    3.000    1.500    4.200    0.800 
#    1.800    0.000    4.400    0.000    0.000    0.000 
#    0.000    0.000    0.000    0.000    0.000    0.000 
#
# Total GULP energy -222863.153548 kJ/mol
# GULP energy per Si atom -5571.578839 kJ/mol
# Density = 1.951858 g / cm^3
# Si number density = 19.563111 Si / 1000 Ang^3
#
#
#
# Elastic Constant Matrix: (Units=GPa)
#
#
# Indices 1 2 3 4 5 6 
#
# 1 106.3700 49.9656 -7.4531 0.0000 0.0000 0.0000
# 2 49.9656 122.6151 29.7841 0.0000 0.0000 0.0000
# 3 -7.4531 29.7841 53.8570 0.0000 0.0000 0.0000
# 4 0.0000 0.0000 0.0000 30.2944 0.0000 0.0000
# 5 0.0000 0.0000 0.0000 0.0000 70.1501 0.0000
# 6 0.0000 0.0000 0.0000 0.0000 0.0000 -82.6747
#
#
#
# Elastic Compliance Matrix: (Units=1/GPa)
#
#
# Indices 1 2 3 4 5 6 
#
# 1 0.012857 -0.006552 0.005402 0.000000 0.000000 0.000000
# 2 -0.006552 0.012760 -0.007963 0.000000 0.000000 0.000000
# 3 0.005402 -0.007963 0.023719 0.000000 0.000000 0.000000
# 4 0.000000 0.000000 0.000000 0.033009 0.000000 0.000000
# 5 0.000000 0.000000 0.000000 0.000000 0.014255 0.000000
# 6 0.000000 0.000000 0.000000 0.000000 0.000000 -0.012096
#
#
# Mechanical properties :
#
#
# Convention : Reuss Voigt Hill
#
# Bulk Modulus (GPa) = 32.14242 47.49283 39.81763
# Shear Modulus (GPa) = 44.20874 17.59031 30.89953
#
# Velocity S-wave (km/s) = 4.75889 3.00185 3.97858
# Velocity P-wave (km/s) = 6.83095 6.02862 6.44229
#
# Compressibility (1/GPa) = 0.03111153
#
# Stress axis : x y z
#
# Youngs Moduli (GPa) = 77.77741 78.37195 42.16019
#
# Poissons Ratio (x) = 0.51346 -0.22777
# Poissons Ratio (y) = 0.50957 0.33572
# Poissons Ratio (z) = -0.42019 0.62408
#
# Static dielectric constant tensor:
#      x y z
#    x 1.751650 0.000000 0.000000 
#    y 0.000000 1.655920 0.000000 
#    z 0.000000 0.000000 1.739170 
# 
# From -- ./inp_files/23175.got.cif
#   From: 2010.05.17/outbox.cif.g08.bks.cpg/sg72_12_cif.got.tgz:23175.got - 2010.06.03 17:03:01.
