data_PCOD9525393
_publ_section_title
;
Structure prediction by ZEFSAII (Michael W. Deem and Ramdas Pophale) SiO2 
 PCOD9525393
Probable space group: I B A M
;
_chemical_formula_sum "Si O2"
_cell_formula_units_Z 120
_cell_length_a 21.465255
_cell_length_b 21.181181
_cell_length_c 15.465111
_cell_angle_alpha 90.000000
_cell_angle_beta 90.000000
_cell_angle_gamma 90.000000
_cell_volume 7031.358883
_symmetry_space_group_name_H-M "I B A M"
_symmetry_group_IT_number 72
_symmetry_cell_setting 'orthorhombic'
loop_
_space_group_symop_operation_xyz
x,y,z
-x,-y,z
x,-y,1/2-z
-x,y,1/2-z
-x,-y,-z
x,y,-z
-x,y,1/2+z
x,-y,1/2+z
1/2+x,1/2+y,1/2+z
1/2-x,1/2-y,1/2+z
1/2+x,1/2-y,-z
1/2-x,1/2+y,-z
1/2-x,1/2-y,1/2-z
1/2+x,1/2+y,1/2-z
1/2-x,1/2+y,z
1/2+x,1/2-y,z
loop_
_atom_site_type_symbol
_atom_site_label
_atom_site_fract_x
_atom_site_fract_y
_atom_site_fract_z
Si Si1 0.769526 0.149776 0.399497
Si Si2 0.363198 0.308279 0.741391
Si Si3 0.011520 0.680571 0.399724
Si Si4 0.946414 0.451281 0.103742
Si Si5 0.500000 0.716778 0.750000
Si Si6 0.721469 0.708084 0.902965
Si Si7 0.179905 0.559157 0.199926
Si Si8 0.147968 0.668225 0.665141
O O1 0.786223 0.143323 0.500000
O O2 0.828511 0.156315 0.336489
O O3 0.732643 0.216598 0.390576
O O4 0.725888 0.093880 0.366057
O O5 0.436135 0.322087 0.748266
O O6 0.324183 0.316798 0.828964
O O7 0.359005 0.233682 0.717972
O O8 0.000843 0.697475 0.500000
O O9 0.083944 0.661301 0.387323
O O10 0.969459 0.619908 0.377559
O O11 0.998016 0.737257 0.333840
O O12 0.881693 0.463902 0.150371
O O13 0.000000 0.500000 0.131001
O O14 0.939148 0.456670 0.000000
O O15 0.789761 0.677408 0.891056
O O16 0.698299 0.697649 0.000000
O O17 0.208898 0.500000 0.250000
O O18 0.158844 0.611225 0.269646
#
# Coordination Sequence:
#
# PCOD9525393 Si02
#       8
#    16  16  16  16   8  16  16  16
#     4  10  20  36  57  78 103 140 182 220 267 323
#     4  10  18  35  53  77 109 135 171 220 266 325
#     4  10  20  32  48  70 105 145 180 221 262 308
#     4  10  21  35  46  65  99 145 194 227 252 292
#     4  10  22  32  51  80 109 130 166 212 270 334
#     4  10  18  31  55  77 103 139 174 220 269 319
#     4  12  22  33  53  74 104 142 187 232 269 300
#     4  10  18  33  49  76 107 137 183 222 264 315
#
# _framework density 17.066403000000001
#
# number of rings (size 3 to 8) (size 9 to 14) (size 15 to 20)
#    0.000    1.733    2.667    4.000    0.000    5.067 
#    0.000    2.000    0.000    0.000    0.000    0.467 
#    0.000    1.067    0.000    0.000    0.000    0.000 
#
# Total GULP energy -335012.775814 kJ/mol
# GULP energy per Si atom -5583.546264 kJ/mol
# Density = 1.702756 g / cm^3
# Si number density = 17.066403 Si / 1000 Ang^3
#
#
#
# Elastic Constant Matrix: (Units=GPa)
#
#
# Indices 1 2 3 4 5 6 
#
# 1 98.1088 18.3775 58.2636 0.0000 0.0000 0.0000
# 2 18.3775 26.8269 15.8849 0.0000 0.0000 0.0000
# 3 58.2636 15.8849 101.4753 0.0000 0.0000 0.0000
# 4 0.0000 0.0000 0.0000 12.3294 0.0000 0.0000
# 5 0.0000 0.0000 0.0000 0.0000 10.5697 0.0000
# 6 0.0000 0.0000 0.0000 0.0000 0.0000 23.9230
#
#
#
# Elastic Compliance Matrix: (Units=1/GPa)
#
#
# Indices 1 2 3 4 5 6 
#
# 1 0.016357 -0.006221 -0.008418 0.000000 0.000000 0.000000
# 2 -0.006221 0.043450 -0.003230 0.000000 0.000000 0.000000
# 3 -0.008418 -0.003230 0.015193 0.000000 0.000000 0.000000
# 4 0.000000 0.000000 0.000000 0.081107 0.000000 0.000000
# 5 0.000000 0.000000 0.000000 0.000000 0.094610 0.000000
# 6 0.000000 0.000000 0.000000 0.000000 0.000000 0.041801
#
#
# Mechanical properties :
#
#
# Convention : Reuss Voigt Hill
#
# Bulk Modulus (GPa) = 25.46901 45.71811 35.59356
# Shear Modulus (GPa) = 14.64800 18.29008 16.46904
#
# Velocity S-wave (km/s) = 2.93284 3.27724 3.10981
# Velocity P-wave (km/s) = 5.14049 6.41614 5.81341
#
# Compressibility (1/GPa) = 0.03926341
#
# Stress axis : x y z
#
# Youngs Moduli (GPa) = 61.13533 23.01499 65.81774
#
# Poissons Ratio (x) = 0.14317 0.55405
# Poissons Ratio (y) = 0.38031 0.21258
# Poissons Ratio (z) = 0.51463 0.07433
#
# Static dielectric constant tensor:
#      x y z
#    x 1.587360 0.000000 0.000000 
#    y 0.000000 1.558860 0.000000 
#    z 0.000000 0.000000 1.588510 
# 
# From -- ./inp_files/24494.got.cif
#   From: 2010.05.17/outbox.cif.g08.bks.cpg/sg72_13_cif.got.tgz:24494.got - 2010.06.03 17:03:01.
