data_PCOD9525257
_publ_section_title
;
Structure prediction by ZEFSAII (Michael W. Deem and Ramdas Pophale) SiO2 
 PCOD9525257
Probable space group: I B A M
;
_chemical_formula_sum "Si O2"
_cell_formula_units_Z 112
_cell_length_a 28.278172
_cell_length_b 12.575175
_cell_length_c 14.981643
_cell_angle_alpha 90.000000
_cell_angle_beta 90.000000
_cell_angle_gamma 90.000000
_cell_volume 5327.516620
_symmetry_space_group_name_H-M "I B A M"
_symmetry_group_IT_number 72
_symmetry_cell_setting 'orthorhombic'
loop_
_space_group_symop_operation_xyz
x,y,z
-x,-y,z
x,-y,1/2-z
-x,y,1/2-z
-x,-y,-z
x,y,-z
-x,y,1/2+z
x,-y,1/2+z
1/2+x,1/2+y,1/2+z
1/2-x,1/2-y,1/2+z
1/2+x,1/2-y,-z
1/2-x,1/2+y,-z
1/2-x,1/2-y,1/2-z
1/2+x,1/2+y,1/2-z
1/2-x,1/2+y,z
1/2+x,1/2-y,z
loop_
_atom_site_type_symbol
_atom_site_label
_atom_site_fract_x
_atom_site_fract_y
_atom_site_fract_z
Si Si1 0.082908 0.467442 0.102977
Si Si2 0.556642 0.199311 0.393446
Si Si3 0.045292 0.759279 0.391801
Si Si4 0.209845 0.981368 0.859020
Si Si5 0.313490 0.030789 0.146012
Si Si6 0.341970 0.270972 0.841511
Si Si7 0.125920 0.100361 0.817071
O O1 0.063003 0.578261 0.142800
O O2 0.066210 0.354777 0.140344
O O3 0.139620 0.478581 0.105186
O O4 0.066941 0.465492 0.000000
O O5 0.552246 0.188068 0.500000
O O6 0.509328 0.257391 0.362323
O O7 0.604474 0.263973 0.376661
O O8 0.047283 0.763008 0.500000
O O9 0.078072 0.853442 0.356487
O O10 0.190843 0.864043 0.878933
O O11 0.213282 0.000000 0.750000
O O12 0.262554 0.999816 0.892309
O O13 0.166480 0.058728 0.884184
O O14 0.319516 0.157335 0.141222
O O15 0.315019 0.000000 0.250000
O O16 0.349539 0.304470 0.738770
O O17 0.116482 0.000000 0.750000
#
# Coordination Sequence:
#
# PCOD9525257 Si02
#       7
#    16  16  16  16  16  16  16
#     4   9  18  32  50  77 110 135 163 208 256 307
#     4   9  18  33  52  75 103 137 172 204 253 315
#     4  10  19  33  55  78 102 136 173 210 254 303
#     4   8  18  33  49  70  97 132 169 207 253 303
#     4  10  18  29  51  76  97 129 171 209 248 304
#     4   9  18  33  50  70 100 135 166 205 260 307
#     4   9  19  36  52  73 104 135 172 217 258 294
#
# _framework density 21.022929000000001
#
# number of rings (size 3 to 8) (size 9 to 14) (size 15 to 20)
#    0.000    3.143    0.000    1.286    0.000    8.571 
#    0.000   10.000    0.000   12.857    0.000    0.000 
#    0.000    0.000    0.000    0.000    0.000    0.000 
#
# Total GULP energy -312165.493344 kJ/mol
# GULP energy per Si atom -5574.383810 kJ/mol
# Density = 2.097508 g / cm^3
# Si number density = 21.022929 Si / 1000 Ang^3
#
#
#
# Elastic Constant Matrix: (Units=GPa)
#
#
# Indices 1 2 3 4 5 6 
#
# 1 153.6953 59.2839 0.5317 0.0000 0.0000 0.0000
# 2 59.2839 56.2301 -0.1922 0.0000 0.0000 0.0000
# 3 0.5317 -0.1922 32.8705 0.0000 0.0000 0.0000
# 4 0.0000 0.0000 0.0000 16.0377 0.0000 0.0000
# 5 0.0000 0.0000 0.0000 0.0000 -14.1447 0.0000
# 6 0.0000 0.0000 0.0000 0.0000 0.0000 23.8926
#
#
#
# Elastic Compliance Matrix: (Units=1/GPa)
#
#
# Indices 1 2 3 4 5 6 
#
# 1 0.010968 -0.011564 -0.000245 0.000000 0.000000 0.000000
# 2 -0.011564 0.029978 0.000362 0.000000 0.000000 0.000000
# 3 -0.000245 0.000362 0.030429 0.000000 0.000000 0.000000
# 4 0.000000 0.000000 0.000000 0.062353 0.000000 0.000000
# 5 0.000000 0.000000 0.000000 0.000000 -0.070698 0.000000
# 6 0.000000 0.000000 0.000000 0.000000 0.000000 0.041854
#
#
# Mechanical properties :
#
#
# Convention : Reuss Voigt Hill
#
# Bulk Modulus (GPa) = 20.62705 40.22697 30.42701
# Shear Modulus (GPa) = 34.73729 17.36861 26.05295
#
# Velocity S-wave (km/s) = 4.06932 2.87744 3.52414
# Velocity P-wave (km/s) = 5.64909 5.49690 5.57351
#
# Compressibility (1/GPa) = 0.04848002
#
# Stress axis : x y z
#
# Youngs Moduli (GPa) = 91.17543 33.35814 32.86389
#
# Poissons Ratio (x) = 0.38577 0.00805
# Poissons Ratio (y) = 1.05438 -0.01191
# Poissons Ratio (z) = 0.02234 -0.01209
#
# Static dielectric constant tensor:
#      x y z
#    x 1.773740 0.000000 0.000000 
#    y 0.000000 1.751600 0.000000 
#    z 0.000000 0.000000 1.821490 
# 
# From -- ./inp_files/40331.got.cif
#   From: 2010.05.17/outbox.cif.g08.bks.cpg/sg72_21_cif.got.tgz:40331.got - 2010.06.03 17:03:01.
