data_PCOD9525023
_publ_section_title
;
Structure prediction by ZEFSAII (Michael W. Deem and Ramdas Pophale) SiO2 
 PCOD9525023
Probable space group: I B A M
;
_chemical_formula_sum "Si O2"
_cell_formula_units_Z 96
_cell_length_a 27.063664
_cell_length_b 29.734600
_cell_length_c 8.735079
_cell_angle_alpha 90.000000
_cell_angle_beta 90.000000
_cell_angle_gamma 90.000000
_cell_volume 7029.355871
_symmetry_space_group_name_H-M "I B A M"
_symmetry_group_IT_number 72
_symmetry_cell_setting 'orthorhombic'
loop_
_space_group_symop_operation_xyz
x,y,z
-x,-y,z
x,-y,1/2-z
-x,y,1/2-z
-x,-y,-z
x,y,-z
-x,y,1/2+z
x,-y,1/2+z
1/2+x,1/2+y,1/2+z
1/2-x,1/2-y,1/2+z
1/2+x,1/2-y,-z
1/2-x,1/2+y,-z
1/2-x,1/2-y,1/2-z
1/2+x,1/2+y,1/2-z
1/2-x,1/2+y,z
1/2+x,1/2-y,z
loop_
_atom_site_type_symbol
_atom_site_label
_atom_site_fract_x
_atom_site_fract_y
_atom_site_fract_z
Si Si1 0.904675 0.548365 0.183017
Si Si2 0.239951 0.359600 0.316088
Si Si3 0.287242 0.951859 0.182322
Si Si4 0.355362 0.806942 0.815643
Si Si5 0.702830 0.723786 0.316181
Si Si6 0.446925 0.860313 0.317429
O O1 0.919790 0.500000 0.250000
O O2 0.845982 0.554043 0.216502
O O3 0.933027 0.589834 0.257721
O O4 0.911098 0.548954 0.000000
O O5 0.234803 0.359693 0.500000
O O6 0.241309 0.410054 0.254928
O O7 0.191250 0.336192 0.243832
O O8 0.286796 0.327951 0.273296
O O9 0.272465 0.000000 0.250000
O O10 0.281831 0.951801 0.000000
O O11 0.343552 0.754931 0.772154
O O12 0.404458 0.827090 0.743107
O O13 0.357703 0.810979 0.000000
O O14 0.705058 0.725672 0.500000
O O15 0.750000 0.750000 0.250000
O O16 0.500000 0.847755 0.250000
O O17 0.447975 0.860303 0.500000
#
# Coordination Sequence:
#
# PCOD9525023 Si02
#       6
#    16  16  16  16  16  16
#     4  10  20  34  49  63  80 102 134 173 216 257
#     4  10  17  27  44  65  86 109 136 166 202 244
#     4  10  19  29  43  61  84 111 139 172 209 248
#     4  10  18  31  46  62  84 107 133 168 207 247
#     4   8  16  27  42  63  85 107 131 161 199 242
#     4  12  24  36  49  63  80 104 136 173 216 259
#
# _framework density 13.657012
#
# number of rings (size 3 to 8) (size 9 to 14) (size 15 to 20)
#    0.000    2.000    1.667    3.500    0.000    3.000 
#    0.000    1.667    0.000    0.000    0.000    0.000 
#    0.000    0.000    0.000    0.000    0.000    0.833 
#
# Total GULP energy -267612.402969 kJ/mol
# GULP energy per Si atom -5575.258395 kJ/mol
# Density = 1.362593 g / cm^3
# Si number density = 13.657012 Si / 1000 Ang^3
#
#
#
# Elastic Constant Matrix: (Units=GPa)
#
#
# Indices 1 2 3 4 5 6 
#
# 1 57.7331 56.7929 28.3344 0.0000 0.0000 0.0000
# 2 56.7929 110.8612 39.7298 0.0000 0.0000 0.0000
# 3 28.3344 39.7298 53.4914 0.0000 0.0000 0.0000
# 4 0.0000 0.0000 0.0000 21.4326 0.0000 0.0000
# 5 0.0000 0.0000 0.0000 0.0000 13.5180 0.0000
# 6 0.0000 0.0000 0.0000 0.0000 0.0000 15.0707
#
#
#
# Elastic Compliance Matrix: (Units=1/GPa)
#
#
# Indices 1 2 3 4 5 6 
#
# 1 0.037015 -0.016265 -0.007526 0.000000 0.000000 0.000000
# 2 -0.016265 0.019439 -0.005823 0.000000 0.000000 0.000000
# 3 -0.007526 -0.005823 0.027006 0.000000 0.000000 0.000000
# 4 0.000000 0.000000 0.000000 0.046658 0.000000 0.000000
# 5 0.000000 0.000000 0.000000 0.000000 0.073975 0.000000
# 6 0.000000 0.000000 0.000000 0.000000 0.000000 0.066354
#
#
# Mechanical properties :
#
#
# Convention : Reuss Voigt Hill
#
# Bulk Modulus (GPa) = 41.26708 52.42221 46.84464
# Shear Modulus (GPa) = 14.80371 16.48618 15.64494
#
# Velocity S-wave (km/s) = 3.29593 3.47819 3.38829
# Velocity P-wave (km/s) = 6.69078 7.38908 7.04859
#
# Compressibility (1/GPa) = 0.02423239
#
# Stress axis : x y z
#
# Youngs Moduli (GPa) = 27.01593 51.44168 37.02895
#
# Poissons Ratio (x) = 0.83671 0.27869
# Poissons Ratio (y) = 0.43942 0.21561
# Poissons Ratio (z) = 0.20333 0.29953
#
# Static dielectric constant tensor:
#      x y z
#    x 1.428430 0.000000 0.000000 
#    y 0.000000 1.472870 0.000000 
#    z 0.000000 0.000000 1.449600 
# 
# From -- ./inp_files/7104.got.cif
#   From: 2010.05.17/outbox.cif.g08.bks.cpg/sg72_4_cif.got.tgz:7104.got - 2010.06.03 17:03:01.
