data_PCOD9525876
_publ_section_title
;
Structure prediction by ZEFSAII (Michael W. Deem and Ramdas Pophale) SiO2 
 PCOD9525876
Probable space group: I B A M
;
_chemical_formula_sum "Si O2"
_cell_formula_units_Z 128
_cell_length_a 12.571470
_cell_length_b 24.051612
_cell_length_c 22.350881
_cell_angle_alpha 90.000000
_cell_angle_beta 90.000000
_cell_angle_gamma 90.000000
_cell_volume 6758.104436
_symmetry_space_group_name_H-M "I B A M"
_symmetry_group_IT_number 72
_symmetry_cell_setting 'orthorhombic'
loop_
_space_group_symop_operation_xyz
x,y,z
-x,-y,z
x,-y,1/2-z
-x,y,1/2-z
-x,-y,-z
x,y,-z
-x,y,1/2+z
x,-y,1/2+z
1/2+x,1/2+y,1/2+z
1/2-x,1/2-y,1/2+z
1/2+x,1/2-y,-z
1/2-x,1/2+y,-z
1/2-x,1/2-y,1/2-z
1/2+x,1/2+y,1/2-z
1/2-x,1/2+y,z
1/2+x,1/2-y,z
loop_
_atom_site_type_symbol
_atom_site_label
_atom_site_fract_x
_atom_site_fract_y
_atom_site_fract_z
Si Si1 0.925259 0.950484 0.673374
Si Si2 0.733667 0.276826 0.150752
Si Si3 0.620682 0.019715 0.067199
Si Si4 0.342983 0.525034 0.066125
Si Si5 0.169587 0.182379 0.429453
Si Si6 0.215958 0.597933 0.335899
Si Si7 0.946760 0.137494 0.389017
Si Si8 0.376596 0.809443 0.242379
O O1 0.811669 0.933154 0.699741
O O2 0.995920 0.895140 0.666130
O O3 0.886178 0.977583 0.610247
O O4 0.000000 0.000000 0.694825
O O5 0.791664 0.241127 0.098754
O O6 0.646225 0.320071 0.127360
O O7 0.673735 0.234951 0.196295
O O8 0.820051 0.305716 0.193470
O O9 0.644550 0.059026 0.122874
O O10 0.500000 0.000000 0.069880
O O11 0.714683 0.973699 0.071782
O O12 0.635671 0.044947 0.000000
O O13 0.395029 0.584808 0.077101
O O14 0.369143 0.505875 0.000000
O O15 0.196453 0.177675 0.500000
O O16 0.226681 0.137938 0.385231
O O17 0.043664 0.169410 0.421546
O O18 0.147656 0.632369 0.289255
O O19 0.500000 0.798318 0.250000
#
# Coordination Sequence:
#
# PCOD9525876 Si02
#       8
#    16  16  16  16  16  16  16  16
#     4   8  16  30  51  78 107 134 166 212 264 318
#     4  10  22  38  56  80 106 138 185 230 273 325
#     4   9  17  30  50  78 113 147 176 214 266 326
#     4   9  17  29  49  78 109 142 178 211 253 321
#     4  10  20  34  53  80 113 143 173 217 273 328
#     4   9  18  33  55  80 104 139 183 221 264 319
#     4  10  19  32  53  78 108 141 175 218 265 317
#     4  10  21  39  60  77 100 140 188 235 275 316
#
# _framework density 18.940223
#
# number of rings (size 3 to 8) (size 9 to 14) (size 15 to 20)
#    0.000    2.625    0.000    1.500    0.000    8.250 
#    0.000    0.000    0.000   17.625    0.000    0.000 
#    0.000    0.000    0.000    0.000    0.000    0.000 
#
# Total GULP energy -356433.184705 kJ/mol
# GULP energy per Si atom -5569.268511 kJ/mol
# Density = 1.889711 g / cm^3
# Si number density = 18.940223 Si / 1000 Ang^3
#
#
#
# Elastic Constant Matrix: (Units=GPa)
#
#
# Indices 1 2 3 4 5 6 
#
# 1 116.0281 27.1607 29.8328 0.0000 0.0000 0.0000
# 2 27.1607 65.9697 14.4173 0.0000 0.0000 0.0000
# 3 29.8328 14.4173 56.0867 0.0000 0.0000 0.0000
# 4 0.0000 0.0000 0.0000 88.1269 0.0000 0.0000
# 5 0.0000 0.0000 0.0000 0.0000 72.1841 0.0000
# 6 0.0000 0.0000 0.0000 0.0000 0.0000 36.2198
#
#
#
# Elastic Compliance Matrix: (Units=1/GPa)
#
#
# Indices 1 2 3 4 5 6 
#
# 1 0.010632 -0.003328 -0.004800 0.000000 0.000000 0.000000
# 2 -0.003328 0.017103 -0.002626 0.000000 0.000000 0.000000
# 3 -0.004800 -0.002626 0.021057 0.000000 0.000000 0.000000
# 4 0.000000 0.000000 0.000000 0.011347 0.000000 0.000000
# 5 0.000000 0.000000 0.000000 0.000000 0.013853 0.000000
# 6 0.000000 0.000000 0.000000 0.000000 0.000000 0.027609
#
#
# Mechanical properties :
#
#
# Convention : Reuss Voigt Hill
#
# Bulk Modulus (GPa) = 36.65118 42.32291 39.48704
# Shear Modulus (GPa) = 37.82025 50.41774 44.11900
#
# Velocity S-wave (km/s) = 4.47343 5.16500 4.83160
# Velocity P-wave (km/s) = 6.78786 7.61338 7.21244
#
# Compressibility (1/GPa) = 0.02728425
#
# Stress axis : x y z
#
# Youngs Moduli (GPa) = 94.05771 58.47028 47.48913
#
# Poissons Ratio (x) = 0.19461 0.22793
# Poissons Ratio (y) = 0.31306 0.12470
# Poissons Ratio (z) = 0.45143 0.15354
#
# Static dielectric constant tensor:
#      x y z
#    x 1.665500 0.000000 0.000000 
#    y 0.000000 1.670770 0.000000 
#    z 0.000000 0.000000 1.674540 
# 
# From -- ./inp_files/43711.got.cif
#   From: 2010.05.17/outbox.cif.g08.bks.cpg/sg72_22_cif.got.tgz:43711.got - 2010.06.03 17:03:01.
