data_PCOD9525653
_publ_section_title
;
Structure prediction by ZEFSAII (Michael W. Deem and Ramdas Pophale) SiO2 
 PCOD9525653
Probable space group: I B A M
;
_chemical_formula_sum "Si O2"
_cell_formula_units_Z 120
_cell_length_a 26.503419
_cell_length_b 29.612342
_cell_length_c 9.052026
_cell_angle_alpha 90.000000
_cell_angle_beta 90.000000
_cell_angle_gamma 90.000000
_cell_volume 7104.286246
_symmetry_space_group_name_H-M "I B A M"
_symmetry_group_IT_number 72
_symmetry_cell_setting 'orthorhombic'
loop_
_space_group_symop_operation_xyz
x,y,z
-x,-y,z
x,-y,1/2-z
-x,y,1/2-z
-x,-y,-z
x,y,-z
-x,y,1/2+z
x,-y,1/2+z
1/2+x,1/2+y,1/2+z
1/2-x,1/2-y,1/2+z
1/2+x,1/2-y,-z
1/2-x,1/2+y,-z
1/2-x,1/2-y,1/2-z
1/2+x,1/2+y,1/2-z
1/2-x,1/2+y,z
1/2+x,1/2-y,z
loop_
_atom_site_type_symbol
_atom_site_label
_atom_site_fract_x
_atom_site_fract_y
_atom_site_fract_z
Si Si1 0.945133 0.873139 0.322046
Si Si2 0.500000 0.119733 0.250000
Si Si3 0.337323 0.098236 0.178574
Si Si4 0.369909 0.452278 0.176898
Si Si5 0.595826 0.820852 0.828580
Si Si6 0.555071 0.271496 0.678828
Si Si7 0.575084 0.044103 0.833671
Si Si8 0.248090 0.048489 0.677063
O O1 0.950314 0.875471 0.500000
O O2 0.906199 0.911724 0.274491
O O3 0.926864 0.822182 0.286122
O O4 0.000000 0.879388 0.250000
O O5 0.457639 0.152241 0.179611
O O6 0.534141 0.084322 0.159416
O O7 0.360972 0.146071 0.231289
O O8 0.377937 0.062170 0.238624
O O9 0.284297 0.085360 0.249825
O O10 0.335501 0.096988 0.000000
O O11 0.383361 0.500000 0.250000
O O12 0.310998 0.442698 0.208699
O O13 0.374372 0.456766 0.000000
O O14 0.587944 0.770841 0.765756
O O15 0.608327 0.815008 0.000000
O O16 0.500000 0.266832 0.750000
O O17 0.550675 0.268154 0.500000
O O18 0.555622 0.000000 0.750000
O O19 0.590642 0.032681 0.000000
O O20 0.255170 0.046546 0.500000
O O21 0.260488 0.000000 0.750000
#
# Coordination Sequence:
#
# PCOD9525653 Si02
#       8
#    16   8  16  16  16  16  16  16
#     4   9  18  32  51  77 107 135 163 192 229 277
#     4  10  19  30  44  62  88 116 155 196 244 290
#     4  10  20  33  48  67  92 120 157 203 248 293
#     4   9  19  34  52  76 103 133 164 195 232 278
#     4   9  17  29  45  66  91 120 155 196 243 289
#     4   9  16  29  49  71  96 127 161 198 237 281
#     4  11  22  33  45  61  86 121 158 198 245 298
#     4  10  19  33  52  71  93 122 161 203 244 288
#
# _framework density 16.891211999999999
#
# number of rings (size 3 to 8) (size 9 to 14) (size 15 to 20)
#    0.000    2.400    0.667    2.200    0.000    3.467 
#    0.000    2.000    0.000    0.800    0.000    0.000 
#    0.000    0.000    0.000    0.000    0.000    0.933 
#
# Total GULP energy -334207.286354 kJ/mol
# GULP energy per Si atom -5570.121439 kJ/mol
# Density = 1.685277 g / cm^3
# Si number density = 16.891212 Si / 1000 Ang^3
#
#
#
# Elastic Constant Matrix: (Units=GPa)
#
#
# Indices 1 2 3 4 5 6 
#
# 1 77.0261 80.3557 26.1035 0.0000 0.0000 0.0000
# 2 80.3557 156.6322 35.6579 0.0000 0.0000 0.0000
# 3 26.1035 35.6579 47.4083 0.0000 0.0000 0.0000
# 4 0.0000 0.0000 0.0000 18.4313 0.0000 0.0000
# 5 0.0000 0.0000 0.0000 0.0000 15.2377 0.0000
# 6 0.0000 0.0000 0.0000 0.0000 0.0000 26.8830
#
#
#
# Elastic Compliance Matrix: (Units=1/GPa)
#
#
# Indices 1 2 3 4 5 6 
#
# 1 0.029198 -0.013658 -0.005804 0.000000 0.000000 0.000000
# 2 -0.013658 0.014092 -0.003079 0.000000 0.000000 0.000000
# 3 -0.005804 -0.003079 0.026605 0.000000 0.000000 0.000000
# 4 0.000000 0.000000 0.000000 0.054256 0.000000 0.000000
# 5 0.000000 0.000000 0.000000 0.000000 0.065627 0.000000
# 6 0.000000 0.000000 0.000000 0.000000 0.000000 0.037198
#
#
# Mechanical properties :
#
#
# Convention : Reuss Voigt Hill
#
# Bulk Modulus (GPa) = 40.30136 62.81122 51.55629
# Shear Modulus (GPa) = 17.83626 21.37370 19.60498
#
# Velocity S-wave (km/s) = 3.25306 3.56107 3.41054
# Velocity P-wave (km/s) = 6.16612 7.36035 6.78954
#
# Compressibility (1/GPa) = 0.02481306
#
# Stress axis : x y z
#
# Youngs Moduli (GPa) = 34.24939 70.96188 37.58677
#
# Poissons Ratio (x) = 0.96918 0.21815
# Poissons Ratio (y) = 0.46777 0.11574
# Poissons Ratio (z) = 0.19878 0.21851
#
# Static dielectric constant tensor:
#      x y z
#    x 1.559900 0.000000 0.000000 
#    y 0.000000 1.600870 0.000000 
#    z 0.000000 0.000000 1.567620 
# 
# From -- ./inp_files/8566.got.cif
#   From: 2010.05.17/outbox.cif.g08.bks.cpg/sg72_5_cif.got.tgz:8566.got - 2010.06.03 17:03:01.
