data_PCOD9525759
_publ_section_title
;
Structure prediction by ZEFSAII (Michael W. Deem and Ramdas Pophale) SiO2 
 PCOD9525759
Probable space group: I B A M
;
_chemical_formula_sum "Si O2"
_cell_formula_units_Z 112
_cell_length_a 15.977426
_cell_length_b 23.140832
_cell_length_c 14.460945
_cell_angle_alpha 90.000000
_cell_angle_beta 90.000000
_cell_angle_gamma 90.000000
_cell_volume 5346.658656
_symmetry_space_group_name_H-M "I B A M"
_symmetry_group_IT_number 72
_symmetry_cell_setting 'orthorhombic'
loop_
_space_group_symop_operation_xyz
x,y,z
-x,-y,z
x,-y,1/2-z
-x,y,1/2-z
-x,-y,-z
x,y,-z
-x,y,1/2+z
x,-y,1/2+z
1/2+x,1/2+y,1/2+z
1/2-x,1/2-y,1/2+z
1/2+x,1/2-y,-z
1/2-x,1/2+y,-z
1/2-x,1/2-y,1/2-z
1/2+x,1/2+y,1/2-z
1/2-x,1/2+y,z
1/2+x,1/2-y,z
loop_
_atom_site_type_symbol
_atom_site_label
_atom_site_fract_x
_atom_site_fract_y
_atom_site_fract_z
Si Si1 0.149101 0.354360 0.109013
Si Si2 0.907879 0.483988 0.611517
Si Si3 0.259425 0.449880 0.386385
Si Si4 0.608856 0.730246 0.605133
Si Si5 0.915712 0.022941 0.103150
Si Si6 0.207839 0.837168 0.739923
Si Si7 0.041550 0.855442 0.158568
O O1 0.110737 0.416798 0.129633
O O2 0.089315 0.298166 0.115994
O O3 0.218353 0.343206 0.187014
O O4 0.178395 0.355989 0.000000
O O5 0.908496 0.489634 0.500000
O O6 0.831925 0.525854 0.641308
O O7 0.000000 0.500000 0.645355
O O8 0.258864 0.439674 0.500000
O O9 0.327034 0.500144 0.362175
O O10 0.287378 0.394106 0.326746
O O11 0.633426 0.719972 0.500000
O O12 0.689358 0.713615 0.666856
O O13 0.528121 0.689379 0.623476
O O14 0.927745 0.091212 0.098577
O O15 0.916558 0.997347 0.000000
O O16 0.000000 0.000000 0.148954
O O17 0.126091 0.828177 0.803962
O O18 0.000000 0.882554 0.250000
#
# Coordination Sequence:
#
# PCOD9525759 Si02
#       7
#    16  16  16  16  16  16  16
#     4  10  22  40  63  88 117 156 199 253 312 363
#     4   9  19  39  64  90 122 159 205 258 312 371
#     4  10  21  37  60  91 127 165 202 248 308 370
#     4  10  21  40  62  85 120 164 207 248 300 362
#     4  10  19  31  50  79 116 157 199 239 289 357
#     4  11  22  38  61  90 123 156 200 252 302 365
#     4  10  21  33  52  80 115 157 199 244 293 351
#
# _framework density 20.947662999999999
#
# number of rings (size 3 to 8) (size 9 to 14) (size 15 to 20)
#    0.000    2.000    0.000    3.857    0.000    7.143 
#    0.000    7.143    0.000    3.429    0.000    0.000 
#    0.000    0.000    0.000    0.000    0.000    0.000 
#
# Total GULP energy -311774.559846 kJ/mol
# GULP energy per Si atom -5567.402854 kJ/mol
# Density = 2.089999 g / cm^3
# Si number density = 20.947663 Si / 1000 Ang^3
#
#
#
# Elastic Constant Matrix: (Units=GPa)
#
#
# Indices 1 2 3 4 5 6 
#
# 1 103.5300 17.1514 30.0412 0.0000 0.0000 0.0000
# 2 17.1514 77.5421 35.5971 -0.0001 0.0000 0.0000
# 3 30.0412 35.5971 96.0346 -0.0003 0.0000 -0.0001
# 4 0.0000 -0.0001 -0.0003 7.1814 0.0000 0.0000
# 5 0.0000 0.0000 0.0000 0.0000 -1.9608 0.0000
# 6 0.0000 0.0000 -0.0001 0.0000 0.0000 15.7583
#
#
#
# Elastic Compliance Matrix: (Units=1/GPa)
#
#
# Indices 1 2 3 4 5 6 
#
# 1 0.010687 -0.000999 -0.002973 0.000000 0.000000 0.000000
# 2 -0.000999 0.015634 -0.005483 0.000000 0.000000 0.000000
# 3 -0.002973 -0.005483 0.013375 0.000000 0.000000 0.000000
# 4 0.000000 0.000000 0.000000 0.139249 0.000000 0.000000
# 5 0.000000 0.000000 0.000000 0.000000 -0.510001 0.000000
# 6 0.000000 0.000000 0.000000 0.000000 0.000000 0.063459
#
#
# Mechanical properties :
#
#
# Convention : Reuss Voigt Hill
#
# Bulk Modulus (GPa) = 48.10609 49.18734 48.64672
# Shear Modulus (GPa) = -20.68175 17.15024 -1.76575
#
# Velocity S-wave (km/s) = -3.14555 2.86443 -0.91911
# Velocity P-wave (km/s) = 3.13402 5.87128 4.70606
#
# Compressibility (1/GPa) = 0.02078739
#
# Stress axis : x y z
#
# Youngs Moduli (GPa) = 93.57011 63.96283 74.76608
#
# Poissons Ratio (x) = 0.06391 0.22226
# Poissons Ratio (y) = 0.09349 0.40991
# Poissons Ratio (z) = 0.27816 0.35068
#
# Static dielectric constant tensor:
#      x y z
#    x 1.788820 0.000000 0.000000 
#    y 0.000000 1.746990 0.000000 
#    z 0.000000 0.000000 1.828730 
# 
# From -- ./inp_files/22136.got.cif
#   From: 2010.05.17/outbox.cif.g08.bks.cpg/sg72_12_cif.got.tgz:22136.got - 2010.06.03 17:03:01.
