data_PCOD9525479
_publ_section_title
;
Structure prediction by ZEFSAII (Michael W. Deem and Ramdas Pophale) SiO2 
 PCOD9525479
Probable space group: I B A M
;
_chemical_formula_sum "Si O2"
_cell_formula_units_Z 68
_cell_length_a 5.536605
_cell_length_b 23.427705
_cell_length_c 18.620565
_cell_angle_alpha 90.000000
_cell_angle_beta 90.000000
_cell_angle_gamma 90.000000
_cell_volume 2415.272530
_symmetry_space_group_name_H-M "I B A M"
_symmetry_group_IT_number 72
_symmetry_cell_setting 'orthorhombic'
loop_
_space_group_symop_operation_xyz
x,y,z
-x,-y,z
x,-y,1/2-z
-x,y,1/2-z
-x,-y,-z
x,y,-z
-x,y,1/2+z
x,-y,1/2+z
1/2+x,1/2+y,1/2+z
1/2-x,1/2-y,1/2+z
1/2+x,1/2-y,-z
1/2-x,1/2+y,-z
1/2-x,1/2-y,1/2-z
1/2+x,1/2+y,1/2-z
1/2-x,1/2+y,z
1/2+x,1/2-y,z
loop_
_atom_site_type_symbol
_atom_site_label
_atom_site_fract_x
_atom_site_fract_y
_atom_site_fract_z
Si Si1 0.744859 0.726506 0.169615
Si Si2 0.180694 0.406008 0.847872
Si Si3 0.628759 0.149056 0.000000
Si Si4 0.369734 0.342589 0.500000
Si Si5 0.500000 0.000000 0.500000
Si Si6 0.186253 0.939421 0.621078
O O1 0.750000 0.750000 0.250000
O O2 0.490506 0.747254 0.136561
O O3 0.767857 0.658597 0.176747
O O4 0.425222 0.442441 0.839629
O O5 0.913836 0.427760 0.826181
O O6 0.135632 0.394325 0.933589
O O7 0.389191 0.185164 0.000000
O O8 0.870123 0.184531 0.000000
O O9 0.359881 0.383357 0.429556
O O10 0.706131 0.015622 0.563490
#
# Coordination Sequence:
#
# PCOD9525479 Si02
#       6
#    16  16   8   8   4  16
#     4  10  21  37  57  79 106 140 191 252 299 352
#     4  10  18  33  50  75 109 149 189 231 292 343
#     4   8  14  24  42  61  90 129 168 202 250 324
#     4   7  12  23  36  59  86 127 170 199 236 293
#     4  10  20  34  52  84 120 164 204 228 272 348
#     4   9  18  28  48  73 109 150 187 227 269 336
#
# _framework density 28.154170000000001
#
# number of rings (size 3 to 8) (size 9 to 14) (size 15 to 20)
#    0.000    2.824    0.000    2.824    0.000    1.882 
#    0.000    1.176    0.000    0.000    0.000    0.000 
#    0.000   56.471    0.000    0.000    0.000    0.000 
#
# Total GULP energy -189487.949756 kJ/mol
# GULP energy per Si atom -5573.174993 kJ/mol
# Density = 2.809009 g / cm^3
# Si number density = 28.154170 Si / 1000 Ang^3
#
#
#
# Elastic Constant Matrix: (Units=GPa)
#
#
# Indices 1 2 3 4 5 6 
#
# 1 397.2302 41.1352 -16.1789 0.0000 0.0000 0.0000
# 2 41.1352 114.9099 -4.5044 0.0000 0.0000 0.0000
# 3 -16.1789 -4.5044 50.7291 0.0003 0.0000 0.0000
# 4 0.0000 0.0000 0.0003 1202.1204 0.0000 0.0000
# 5 0.0000 0.0000 0.0000 0.0000 1.3662 0.0000
# 6 0.0000 0.0000 0.0000 0.0000 0.0000 13.7864
#
#
#
# Elastic Compliance Matrix: (Units=1/GPa)
#
#
# Indices 1 2 3 4 5 6 
#
# 1 0.002643 -0.000916 0.000762 0.000000 0.000000 0.000000
# 2 -0.000916 0.009051 0.000511 0.000000 0.000000 0.000000
# 3 0.000762 0.000511 0.020001 0.000000 0.000000 0.000000
# 4 0.000000 0.000000 0.000000 0.000832 0.000000 0.000000
# 5 0.000000 0.000000 0.000000 0.000000 0.731967 0.000000
# 6 0.000000 0.000000 0.000000 0.000000 0.000000 0.072535
#
#
# Mechanical properties :
#
#
# Convention : Reuss Voigt Hill
#
# Bulk Modulus (GPa) = 30.85656 67.08590 48.97123
# Shear Modulus (GPa) = 5.90237 279.61576 142.75906
#
# Velocity S-wave (km/s) = 1.44948 9.97655 7.12855
# Velocity P-wave (km/s) = 3.71281 12.51353 9.22967
#
# Compressibility (1/GPa) = 0.03240802
#
# Stress axis : x y z
#
# Youngs Moduli (GPa) = 378.30746 110.49035 49.99785
#
# Poissons Ratio (x) = 0.10125 -0.03808
# Poissons Ratio (y) = 0.34668 -0.02557
# Poissons Ratio (z) = -0.28815 -0.05650
#
# Static dielectric constant tensor:
#      x y z
#    x 2.355130 0.000000 0.000000 
#    y 0.000000 2.372250 0.000000 
#    z 0.000000 0.000000 2.145920 
# 
# From -- ./inp_files/34965.got.cif
#   From: 2010.05.17/outbox.cif.g08.bks.cpg/sg72_18_cif.got.tgz:34965.got - 2010.06.03 17:03:01.
