data_PCOD9525252
_publ_section_title
;
Structure prediction by ZEFSAII (Michael W. Deem and Ramdas Pophale) SiO2 
 PCOD9525252
Probable space group: I B A M
;
_chemical_formula_sum "Si O2"
_cell_formula_units_Z 84
_cell_length_a 15.031330
_cell_length_b 15.239401
_cell_length_c 18.493197
_cell_angle_alpha 90.000000
_cell_angle_beta 90.000000
_cell_angle_gamma 90.000000
_cell_volume 4236.208258
_symmetry_space_group_name_H-M "I B A M"
_symmetry_group_IT_number 72
_symmetry_cell_setting 'orthorhombic'
loop_
_space_group_symop_operation_xyz
x,y,z
-x,-y,z
x,-y,1/2-z
-x,y,1/2-z
-x,-y,-z
x,y,-z
-x,y,1/2+z
x,-y,1/2+z
1/2+x,1/2+y,1/2+z
1/2-x,1/2-y,1/2+z
1/2+x,1/2-y,-z
1/2-x,1/2+y,-z
1/2-x,1/2-y,1/2-z
1/2+x,1/2+y,1/2-z
1/2-x,1/2+y,z
1/2+x,1/2-y,z
loop_
_atom_site_type_symbol
_atom_site_label
_atom_site_fract_x
_atom_site_fract_y
_atom_site_fract_z
Si Si1 0.695667 0.756417 0.411641
Si Si2 0.358056 0.619174 0.410997
Si Si3 0.220000 0.942247 0.585000
Si Si4 0.501334 0.753691 0.916035
Si Si5 0.921029 0.437696 0.111368
Si Si6 0.500000 0.000000 0.750000
O O1 0.699854 0.758680 0.500000
O O2 0.772782 0.822576 0.388401
O O3 0.711233 0.656376 0.386298
O O4 0.595606 0.779442 0.386857
O O5 0.359569 0.618605 0.500000
O O6 0.342217 0.519733 0.385986
O O7 0.446238 0.670082 0.385511
O O8 0.199420 0.935287 0.500000
O O9 0.323246 0.969665 0.592090
O O10 0.564393 0.838465 0.913254
O O11 0.485467 0.732254 0.000000
O O12 0.938844 0.443176 0.197060
O O13 0.000000 0.500000 0.081550
#
# Coordination Sequence:
#
# PCOD9525252 Si02
#       6
#    16  16  16  16  16   4
#     4   9  17  28  42  72 109 132 165 196 232 290
#     4   9  17  28  42  72 109 132 165 196 232 290
#     4  10  18  29  50  74 102 136 159 197 243 290
#     4  10  18  29  50  74 102 136 159 197 243 290
#     4  10  19  34  51  68  96 125 161 210 246 289
#     4   8  24  36  46  72  92 124 160 222 252 280
#
# _framework density 19.829052999999998
#
# number of rings (size 3 to 8) (size 9 to 14) (size 15 to 20)
#    0.571    1.905    1.905    1.714    0.000    3.810 
#    0.000    3.810    0.000    4.571    0.000    0.000 
#    0.000    3.048    0.000    0.000    0.000    0.000 
#
# Total GULP energy -233830.871365 kJ/mol
# GULP energy per Si atom -5567.401699 kJ/mol
# Density = 1.978392 g / cm^3
# Si number density = 19.829053 Si / 1000 Ang^3
#
#
#
# Elastic Constant Matrix: (Units=GPa)
#
#
# Indices 1 2 3 4 5 6 
#
# 1 23.5790 -26.4371 -2.4933 0.0000 0.0000 0.0000
# 2 -26.4371 43.1577 0.9837 0.0000 0.0000 0.0000
# 3 -2.4933 0.9837 14.8872 0.0000 0.0000 0.0000
# 4 0.0000 0.0000 0.0000 -5.2876 0.0000 0.0000
# 5 0.0000 0.0000 0.0000 0.0000 -0.0326 0.0000
# 6 0.0000 0.0000 0.0000 0.0000 0.0000 34.1262
#
#
#
# Elastic Compliance Matrix: (Units=1/GPa)
#
#
# Indices 1 2 3 4 5 6 
#
# 1 0.139979 0.085341 0.017805 0.000000 0.000000 0.000000
# 2 0.085341 0.075236 0.009322 0.000000 0.000000 0.000000
# 3 0.017805 0.009322 0.069538 0.000000 -0.000002 0.000000
# 4 0.000000 0.000000 0.000000 -0.189123 0.000002 0.000000
# 5 0.000000 0.000000 -0.000002 0.000002-30.680829 0.000000
# 6 0.000000 0.000000 0.000000 0.000000 0.000000 0.029303
#
#
# Mechanical properties :
#
#
# Convention : Reuss Voigt Hill
#
# Bulk Modulus (GPa) = 1.96199 2.85895 2.41047
# Shear Modulus (GPa) = -0.16334 13.06592 6.45129
#
# Velocity S-wave (km/s) = -0.28732 2.56974 1.80569
# Velocity P-wave (km/s) = 0.93890 3.20152 2.35916
#
# Compressibility (1/GPa) = 0.50968637
#
# Stress axis : x y z
#
# Youngs Moduli (GPa) = 7.14393 13.29158 14.38071
#
# Poissons Ratio (x) = -1.13432 -0.25604
# Poissons Ratio (y) = -0.60967 -0.13405
# Poissons Ratio (z) = -0.12719 -0.12390
#
# Static dielectric constant tensor:
#      x y z
#    x 1.736300 0.000000 0.000000 
#    y 0.000000 1.722140 0.000000 
#    z 0.000000 0.000000 1.674870 
# 
# From -- ./inp_files/48645.got.cif
#   From: 2010.05.17/outbox.cif.g08.bks.cpg/sg72_25_cif.got.tgz:48645.got - 2010.06.03 17:03:01.
