data_PCOD9525299
_publ_section_title
;
Structure prediction by ZEFSAII (Michael W. Deem and Ramdas Pophale) SiO2 
 PCOD9525299
Probable space group: I B A M
;
_chemical_formula_sum "Si O2"
_cell_formula_units_Z 104
_cell_length_a 26.903268
_cell_length_b 18.532835
_cell_length_c 9.472693
_cell_angle_alpha 90.000000
_cell_angle_beta 90.000000
_cell_angle_gamma 90.000000
_cell_volume 4723.026253
_symmetry_space_group_name_H-M "I B A M"
_symmetry_group_IT_number 72
_symmetry_cell_setting 'orthorhombic'
loop_
_space_group_symop_operation_xyz
x,y,z
-x,-y,z
x,-y,1/2-z
-x,y,1/2-z
-x,-y,-z
x,y,-z
-x,y,1/2+z
x,-y,1/2+z
1/2+x,1/2+y,1/2+z
1/2-x,1/2-y,1/2+z
1/2+x,1/2-y,-z
1/2-x,1/2+y,-z
1/2-x,1/2-y,1/2-z
1/2+x,1/2+y,1/2-z
1/2-x,1/2+y,z
1/2+x,1/2-y,z
loop_
_atom_site_type_symbol
_atom_site_label
_atom_site_fract_x
_atom_site_fract_y
_atom_site_fract_z
Si Si1 0.729096 0.500000 0.250000
Si Si2 0.546120 0.638062 0.831528
Si Si3 0.934528 0.714484 0.162050
Si Si4 0.658152 0.380395 0.343495
Si Si5 0.317274 0.753394 0.156180
Si Si6 0.805291 0.383489 0.844130
Si Si7 0.920584 0.573274 0.668133
O O1 0.692691 0.449866 0.339815
O O2 0.765525 0.446939 0.166210
O O3 0.500000 0.602133 0.750000
O O4 0.551065 0.716718 0.757092
O O5 0.600435 0.602972 0.809294
O O6 0.537056 0.642943 0.000000
O O7 0.874961 0.721964 0.148086
O O8 0.943584 0.641656 0.249888
O O9 0.954474 0.714824 0.000000
O O10 0.657557 0.347473 0.500000
O O11 0.679453 0.321848 0.236301
O O12 0.207531 0.680601 0.262490
O O13 0.296765 0.744871 0.000000
O O14 0.860523 0.415651 0.818951
O O15 0.806937 0.351575 0.000000
O O16 0.934009 0.500000 0.750000
O O17 0.932215 0.571339 0.500000
#
# Coordination Sequence:
#
# PCOD9525299 Si02
#       7
#     8  16  16  16  16  16  16
#     4  12  24  40  59  84 118 162 207 252 300 350
#     4  10  20  38  64  91 114 143 185 239 298 362
#     4   9  17  31  53  84 115 147 187 238 292 347
#     4  10  23  42  63  88 120 156 196 245 301 357
#     4   9  19  36  60  85 114 152 199 247 295 349
#     4  10  21  36  56  82 114 157 207 253 295 343
#     4  10  18  30  49  78 115 157 200 242 286 340
#
# _framework density 22.019780000000001
#
# number of rings (size 3 to 8) (size 9 to 14) (size 15 to 20)
#    0.000    2.154    0.769    2.308    0.000    8.000 
#    0.000    0.385    0.000    2.308    0.000    3.231 
#    0.000    0.000    0.000    0.000    0.000    0.000 
#
# Total GULP energy -290499.484944 kJ/mol
# GULP energy per Si atom -5586.528557 kJ/mol
# Density = 2.196966 g / cm^3
# Si number density = 22.019780 Si / 1000 Ang^3
#
#
#
# Elastic Constant Matrix: (Units=GPa)
#
#
# Indices 1 2 3 4 5 6 
#
# 1 109.2062 20.8110 31.2659 0.0000 0.0000 0.0000
# 2 20.8110 63.0871 31.8289 0.0000 0.0000 0.0000
# 3 31.2659 31.8289 137.3669 0.0000 0.0000 0.0000
# 4 0.0000 0.0000 0.0000 -59.3152 0.0000 0.0000
# 5 0.0000 0.0000 0.0000 0.0000 8.1914 0.0000
# 6 0.0000 0.0000 0.0000 0.0000 0.0000 4.1248
#
#
#
# Elastic Compliance Matrix: (Units=1/GPa)
#
#
# Indices 1 2 3 4 5 6 
#
# 1 0.010123 -0.002465 -0.001733 0.000000 0.000000 0.000000
# 2 -0.002465 0.018550 -0.003737 0.000000 0.000000 0.000000
# 3 -0.001733 -0.003737 0.008540 0.000000 0.000000 0.000000
# 4 0.000000 0.000000 0.000000 -0.016859 0.000000 0.000000
# 5 0.000000 0.000000 0.000000 0.000000 0.122079 0.000000
# 6 0.000000 0.000000 0.000000 0.000000 0.000000 0.242436
#
#
# Mechanical properties :
#
#
# Convention : Reuss Voigt Hill
#
# Bulk Modulus (GPa) = 46.85434 53.05243 49.95338
# Shear Modulus (GPa) = 12.25932 5.65049 8.95491
#
# Velocity S-wave (km/s) = 2.36210 1.60364 2.01881
# Velocity P-wave (km/s) = 5.36319 5.25112 5.30745
#
# Compressibility (1/GPa) = 0.02134274
#
# Stress axis : x y z
#
# Youngs Moduli (GPa) = 98.78623 53.90933 117.09477
#
# Poissons Ratio (x) = 0.13289 0.20291
# Poissons Ratio (y) = 0.24351 0.43759
# Poissons Ratio (z) = 0.17119 0.20146
#
# Static dielectric constant tensor:
#      x y z
#    x 1.866470 0.000000 0.000000 
#    y 0.000000 1.755460 0.000000 
#    z 0.000000 0.000000 1.792810 
# 
# From -- ./inp_files/9177.got.cif
#   From: 2010.05.17/outbox.cif.g08.bks.cpg/sg72_5_cif.got.tgz:9177.got - 2010.06.03 17:03:01.
