data_PCOD9525383
_publ_section_title
;
Structure prediction by ZEFSAII (Michael W. Deem and Ramdas Pophale) SiO2 
 PCOD9525383
Probable space group: I B A M
;
_chemical_formula_sum "Si O2"
_cell_formula_units_Z 80
_cell_length_a 17.281173
_cell_length_b 14.964038
_cell_length_c 15.079557
_cell_angle_alpha 90.000000
_cell_angle_beta 90.000000
_cell_angle_gamma 90.000000
_cell_volume 3899.515074
_symmetry_space_group_name_H-M "I B A M"
_symmetry_group_IT_number 72
_symmetry_cell_setting 'orthorhombic'
loop_
_space_group_symop_operation_xyz
x,y,z
-x,-y,z
x,-y,1/2-z
-x,y,1/2-z
-x,-y,-z
x,y,-z
-x,y,1/2+z
x,-y,1/2+z
1/2+x,1/2+y,1/2+z
1/2-x,1/2-y,1/2+z
1/2+x,1/2-y,-z
1/2-x,1/2+y,-z
1/2-x,1/2-y,1/2-z
1/2+x,1/2+y,1/2-z
1/2-x,1/2+y,z
1/2+x,1/2-y,z
loop_
_atom_site_type_symbol
_atom_site_label
_atom_site_fract_x
_atom_site_fract_y
_atom_site_fract_z
Si Si1 0.070634 0.060597 0.599677
Si Si2 0.693432 0.164667 0.257308
Si Si3 0.922626 0.259515 0.103926
Si Si4 0.605627 0.239859 0.895916
Si Si5 0.837822 0.931547 0.823873
O O1 0.043917 0.085275 0.500000
O O2 0.087704 0.157492 0.639194
O O3 0.146225 0.998780 0.595798
O O4 0.000000 0.000000 0.634198
O O5 0.750000 0.250000 0.250000
O O6 0.629137 0.180550 0.332368
O O7 0.651395 0.166301 0.162019
O O8 0.752209 0.089403 0.290370
O O9 0.014010 0.277505 0.110017
O O10 0.898945 0.266804 0.000000
O O11 0.623207 0.337461 0.851813
O O12 0.627663 0.242168 0.000000
O O13 0.873150 0.000000 0.750000
#
# Coordination Sequence:
#
# PCOD9525383 Si02
#       5
#    16  16  16  16  16
#     4  10  18  31  53  84 117 149 187 232 287 349
#     4  10  22  36  52  82 117 158 197 231 289 351
#     4  10  20  36  61  89 116 151 196 242 291 349
#     4  10  20  38  62  85 112 150 194 242 291 347
#     4  11  22  36  53  83 118 154 190 236 293 345
#
# _framework density 20.515370999999998
#
# number of rings (size 3 to 8) (size 9 to 14) (size 15 to 20)
#    0.000    1.800    2.000    3.600    0.000    4.400 
#    0.000    2.000    0.000    2.400    0.000    2.800 
#    0.000    0.000    0.000    0.000    0.000    0.000 
#
# Total GULP energy -222706.759771 kJ/mol
# GULP energy per Si atom -5567.668994 kJ/mol
# Density = 2.046868 g / cm^3
# Si number density = 20.515371 Si / 1000 Ang^3
#
#
#
# Elastic Constant Matrix: (Units=GPa)
#
#
# Indices 1 2 3 4 5 6 
#
# 1 100.7769 42.0131 63.1527 0.0000 0.0000 0.0000
# 2 42.0131 40.0251 25.2167 0.0000 0.0000 0.0000
# 3 63.1527 25.2167 142.7210 0.0000 0.0000 0.0000
# 4 0.0000 0.0000 0.0000 13.8039 0.0000 0.0000
# 5 0.0000 0.0000 0.0000 0.0000 25.9113 0.0000
# 6 0.0000 0.0000 0.0000 0.0000 0.0000 33.2939
#
#
#
# Elastic Compliance Matrix: (Units=1/GPa)
#
#
# Indices 1 2 3 4 5 6 
#
# 1 0.021707 -0.018830 -0.006278 0.000000 0.000000 0.000000
# 2 -0.018830 0.044448 0.000479 0.000000 0.000000 0.000000
# 3 -0.006278 0.000479 0.009700 0.000000 0.000000 0.000000
# 4 0.000000 0.000000 0.000000 0.072443 0.000000 0.000000
# 5 0.000000 0.000000 0.000000 0.000000 0.038593 0.000000
# 6 0.000000 0.000000 0.000000 0.000000 0.000000 0.030036
#
#
# Mechanical properties :
#
#
# Convention : Reuss Voigt Hill
#
# Bulk Modulus (GPa) = 37.59902 60.47644 49.03773
# Shear Modulus (GPa) = 18.17838 24.81120 21.49479
#
# Velocity S-wave (km/s) = 2.97995 3.48141 3.24039
# Velocity P-wave (km/s) = 5.49610 6.76039 6.16076
#
# Compressibility (1/GPa) = 0.02659644
#
# Stress axis : x y z
#
# Youngs Moduli (GPa) = 46.06730 22.49818 103.09104
#
# Poissons Ratio (x) = 0.42364 0.64724
# Poissons Ratio (y) = 0.86745 -0.04936
# Poissons Ratio (z) = 0.28922 -0.01077
#
# Static dielectric constant tensor:
#      x y z
#    x 1.769630 0.000000 0.000000 
#    y 0.000000 1.818080 0.000000 
#    z 0.000000 0.000000 2.326470 
# 
# From -- ./inp_files/23107.got.cif
#   From: 2010.05.17/outbox.cif.g08.bks.cpg/sg72_12_cif.got.tgz:23107.got - 2010.06.03 17:03:01.
