data_PCOD9525456
_publ_section_title
;
Structure prediction by ZEFSAII (Michael W. Deem and Ramdas Pophale) SiO2 
 PCOD9525456
Probable space group: I B A M
;
_chemical_formula_sum "Si O2"
_cell_formula_units_Z 96
_cell_length_a 21.070761
_cell_length_b 9.247903
_cell_length_c 24.712481
_cell_angle_alpha 90.000000
_cell_angle_beta 90.000000
_cell_angle_gamma 90.000000
_cell_volume 4815.482793
_symmetry_space_group_name_H-M "I B A M"
_symmetry_group_IT_number 72
_symmetry_cell_setting 'orthorhombic'
loop_
_space_group_symop_operation_xyz
x,y,z
-x,-y,z
x,-y,1/2-z
-x,y,1/2-z
-x,-y,-z
x,y,-z
-x,y,1/2+z
x,-y,1/2+z
1/2+x,1/2+y,1/2+z
1/2-x,1/2-y,1/2+z
1/2+x,1/2-y,-z
1/2-x,1/2+y,-z
1/2-x,1/2-y,1/2-z
1/2+x,1/2+y,1/2-z
1/2-x,1/2+y,z
1/2+x,1/2-y,z
loop_
_atom_site_type_symbol
_atom_site_label
_atom_site_fract_x
_atom_site_fract_y
_atom_site_fract_z
Si Si1 0.235593 0.895620 0.000000
Si Si2 0.471107 0.336686 0.561749
Si Si3 0.848377 0.984301 0.094336
Si Si4 0.345323 0.150081 0.781600
Si Si5 0.913555 0.296683 0.107401
Si Si6 0.656031 0.902639 0.000000
Si Si7 0.298767 0.626731 0.207035
O O1 0.205320 0.975605 0.051659
O O2 0.308895 0.942341 0.000000
O O3 0.208534 0.730792 0.000000
O O4 0.500000 0.500000 0.565602
O O5 0.480889 0.289292 0.500000
O O6 0.397567 0.363437 0.573731
O O7 0.511187 0.229169 0.599467
O O8 0.820814 0.932425 0.150369
O O9 0.884872 0.135076 0.102789
O O10 0.390449 0.149997 0.833843
O O11 0.350782 0.268505 0.734042
O O12 0.272883 0.185699 0.801207
O O13 0.348337 0.000000 0.750000
O O14 0.884663 0.380322 0.055170
O O15 0.291371 0.500000 0.250000
#
# Coordination Sequence:
#
# PCOD9525456 Si02
#       7
#     8  16  16  16  16   8  16
#     4  10  20  33  51  83 117 142 179 230 284 338
#     4   9  16  30  54  82 108 144 178 224 283 326
#     4  10  18  32  56  81 111 144 186 233 277 331
#     4  10  21  35  55  80 111 152 186 224 285 338
#     4  10  18  33  55  81 112 145 187 229 279 337
#     4  10  20  33  53  83 115 144 177 234 284 334
#     4  10  19  35  55  78 112 146 187 234 276 330
#
# _framework density 19.935697000000001
#
# number of rings (size 3 to 8) (size 9 to 14) (size 15 to 20)
#    0.000    2.167    3.333    1.000    0.000    0.000 
#    3.000    0.833    0.000    2.000    0.000    2.333 
#    0.000    0.000    0.000    0.000    0.000    0.000 
#
# Total GULP energy -267505.486490 kJ/mol
# GULP energy per Si atom -5573.030969 kJ/mol
# Density = 1.989032 g / cm^3
# Si number density = 19.935697 Si / 1000 Ang^3
#
#
#
# Elastic Constant Matrix: (Units=GPa)
#
#
# Indices 1 2 3 4 5 6 
#
# 1 19.7861 -3.7404 -0.2956 0.0000 0.0000 0.0000
# 2 -3.7404 23.9598 5.6908 0.0000 0.0000 0.0000
# 3 -0.2956 5.6908 102.2557 0.0000 0.0000 0.0000
# 4 0.0000 0.0000 0.0000 27.8483 0.0000 0.0000
# 5 0.0000 0.0000 0.0000 0.0000 0.6487 0.0000
# 6 0.0000 0.0000 0.0000 0.0000 0.0000 2.9242
#
#
#
# Elastic Compliance Matrix: (Units=1/GPa)
#
#
# Indices 1 2 3 4 5 6 
#
# 1 0.052087 0.008204 -0.000306 0.000000 0.000000 0.000000
# 2 0.008204 0.043588 -0.002402 0.000000 0.000000 0.000000
# 3 -0.000306 -0.002402 0.009912 0.000000 0.000000 0.000000
# 4 0.000000 0.000000 0.000000 0.035909 0.000000 0.000000
# 5 0.000000 0.000000 0.000000 0.000000 1.541522 0.000000
# 6 0.000000 0.000000 0.000000 0.000000 0.000000 0.341971
#
#
# Mechanical properties :
#
#
# Convention : Reuss Voigt Hill
#
# Bulk Modulus (GPa) = 8.57790 16.59015 12.58402
# Shear Modulus (GPa) = 2.43563 15.90735 9.17149
#
# Velocity S-wave (km/s) = 1.10652 2.82784 2.14721
# Velocity P-wave (km/s) = 2.43817 4.35914 3.53177
#
# Compressibility (1/GPa) = 0.11657869
#
# Stress axis : x y z
#
# Youngs Moduli (GPa) = 19.19868 22.94219 100.88571
#
# Poissons Ratio (x) = -0.18822 0.03087
# Poissons Ratio (y) = -0.15751 0.24234
# Poissons Ratio (z) = 0.00588 0.05511
#
# Static dielectric constant tensor:
#      x y z
#    x 1.766850 0.000000 0.000000 
#    y 0.000000 1.764750 0.000000 
#    z 0.000000 0.000000 1.664360 
# 
# From -- ./inp_files/44836.got.cif
#   From: 2010.05.17/outbox.cif.g08.bks.cpg/sg72_23_cif.got.tgz:44836.got - 2010.06.03 17:03:01.
