data_PCOD9525086
_publ_section_title
;
Structure prediction by ZEFSAII (Michael W. Deem and Ramdas Pophale) SiO2 
 PCOD9525086
Probable space group: I B A M
;
_chemical_formula_sum "Si O2"
_cell_formula_units_Z 72
_cell_length_a 10.915454
_cell_length_b 22.236588
_cell_length_c 16.370260
_cell_angle_alpha 90.000000
_cell_angle_beta 90.000000
_cell_angle_gamma 90.000000
_cell_volume 3973.429671
_symmetry_space_group_name_H-M "I B A M"
_symmetry_group_IT_number 72
_symmetry_cell_setting 'orthorhombic'
loop_
_space_group_symop_operation_xyz
x,y,z
-x,-y,z
x,-y,1/2-z
-x,y,1/2-z
-x,-y,-z
x,y,-z
-x,y,1/2+z
x,-y,1/2+z
1/2+x,1/2+y,1/2+z
1/2-x,1/2-y,1/2+z
1/2+x,1/2-y,-z
1/2-x,1/2+y,-z
1/2-x,1/2-y,1/2-z
1/2+x,1/2+y,1/2-z
1/2-x,1/2+y,z
1/2+x,1/2-y,z
loop_
_atom_site_type_symbol
_atom_site_label
_atom_site_fract_x
_atom_site_fract_y
_atom_site_fract_z
Si Si1 0.931939 0.138372 0.663884
Si Si2 0.186629 0.129246 0.590812
Si Si3 0.500000 0.844913 0.250000
Si Si4 0.780964 0.570032 0.744519
Si Si5 0.816818 0.261527 0.336872
O O1 0.836484 0.086447 0.688737
O O2 0.858978 0.196641 0.633064
O O3 0.000000 0.155345 0.750000
O O4 0.041393 0.122169 0.603785
O O5 0.223487 0.111510 0.500000
O O6 0.248557 0.092318 0.663994
O O7 0.227709 0.198236 0.608030
O O8 0.606098 0.888511 0.216467
O O9 0.435983 0.801973 0.183617
O O10 0.808384 0.500000 0.750000
O O11 0.750000 0.250000 0.250000
#
# Coordination Sequence:
#
# PCOD9525086 Si02
#       5
#    16  16   8  16  16
#     4  10  18  32  55  81 107 145 189 226 269 334
#     4  10  22  35  54  83 115 144 180 242 296 320
#     4  10  17  30  58  84 105 136 188 238 264 316
#     4  10  21  36  57  82 107 149 198 224 266 339
#     4  11  16  32  57  85 110 144 187 224 276 339
#
# _framework density 18.120367000000002
#
# number of rings (size 3 to 8) (size 9 to 14) (size 15 to 20)
#    0.000    1.778    7.778    0.333    0.000    4.889 
#    0.000    2.222    0.000   12.000    0.000    0.000 
#    0.000    0.000    0.000    0.000    0.000    0.000 
#
# Total GULP energy -200673.393363 kJ/mol
# GULP energy per Si atom -5574.260927 kJ/mol
# Density = 1.807912 g / cm^3
# Si number density = 18.120367 Si / 1000 Ang^3
#
#
#
# Elastic Constant Matrix: (Units=GPa)
#
#
# Indices 1 2 3 4 5 6 
#
# 1 73.9314 5.8213 13.1284 0.0000 0.0000 0.0000
# 2 5.8213 72.6406 2.7665 0.0000 0.0000 0.0000
# 3 13.1284 2.7665 50.2320 0.0000 0.0000 0.0000
# 4 0.0000 0.0000 0.0000 9.8962 0.0000 0.0000
# 5 0.0000 0.0000 0.0000 0.0000 9.1010 0.0000
# 6 0.0000 0.0000 0.0000 0.0000 0.0000 21.5601
#
#
#
# Elastic Compliance Matrix: (Units=1/GPa)
#
#
# Indices 1 2 3 4 5 6 
#
# 1 0.014257 -0.001003 -0.003671 0.000000 0.000000 0.000000
# 2 -0.001003 0.013866 -0.000502 0.000000 0.000000 0.000000
# 3 -0.003671 -0.000502 0.020895 0.000000 0.000000 0.000000
# 4 0.000000 0.000000 0.000000 0.101049 0.000000 0.000000
# 5 0.000000 0.000000 0.000000 0.000000 0.109878 0.000000
# 6 0.000000 0.000000 0.000000 0.000000 0.000000 0.046382
#
#
# Mechanical properties :
#
#
# Convention : Reuss Voigt Hill
#
# Bulk Modulus (GPa) = 25.86183 26.69293 26.27738
# Shear Modulus (GPa) = 15.17153 19.78400 17.47776
#
# Velocity S-wave (km/s) = 2.89669 3.30784 3.10907
# Velocity P-wave (km/s) = 5.04886 5.41774 5.23655
#
# Compressibility (1/GPa) = 0.03866703
#
# Stress axis : x y z
#
# Youngs Moduli (GPa) = 70.14167 72.11951 47.85909
#
# Poissons Ratio (x) = 0.07232 0.17569
# Poissons Ratio (y) = 0.07033 0.02401
# Poissons Ratio (z) = 0.25748 0.03617
#
# Static dielectric constant tensor:
#      x y z
#    x 1.667630 0.000000 0.000000 
#    y 0.000000 1.624480 0.000000 
#    z 0.000000 0.000000 1.601620 
# 
# From -- ./inp_files/29354.got.cif
#   From: 2010.05.17/outbox.cif.g08.bks.cpg/sg72_15_cif.got.tgz:29354.got - 2010.06.03 17:03:01.
