data_PCOD9525357
_publ_section_title
;
Structure prediction by ZEFSAII (Michael W. Deem and Ramdas Pophale) SiO2 
 PCOD9525357
Probable space group: I B A M
;
_chemical_formula_sum "Si O2"
_cell_formula_units_Z 112
_cell_length_a 21.165294
_cell_length_b 11.052993
_cell_length_c 26.922255
_cell_angle_alpha 90.000000
_cell_angle_beta 90.000000
_cell_angle_gamma 90.000000
_cell_volume 6298.188200
_symmetry_space_group_name_H-M "I B A M"
_symmetry_group_IT_number 72
_symmetry_cell_setting 'orthorhombic'
loop_
_space_group_symop_operation_xyz
x,y,z
-x,-y,z
x,-y,1/2-z
-x,y,1/2-z
-x,-y,-z
x,y,-z
-x,y,1/2+z
x,-y,1/2+z
1/2+x,1/2+y,1/2+z
1/2-x,1/2-y,1/2+z
1/2+x,1/2-y,-z
1/2-x,1/2+y,-z
1/2-x,1/2-y,1/2-z
1/2+x,1/2+y,1/2-z
1/2-x,1/2+y,z
1/2+x,1/2-y,z
loop_
_atom_site_type_symbol
_atom_site_label
_atom_site_fract_x
_atom_site_fract_y
_atom_site_fract_z
Si Si1 0.573241 0.530270 0.441796
Si Si2 0.686125 0.032529 0.867320
Si Si3 0.174500 0.129783 0.221311
Si Si4 0.822705 0.679005 0.301293
Si Si5 0.269811 0.153795 0.943015
Si Si6 0.177290 0.866023 0.888925
Si Si7 0.140877 0.202424 0.116360
O O1 0.500000 0.500000 0.436409
O O2 0.590188 0.522394 0.500000
O O3 0.620036 0.446369 0.408912
O O4 0.585120 0.663327 0.419652
O O5 0.760891 0.068939 0.864690
O O6 0.648732 0.155824 0.874106
O O7 0.661491 0.955888 0.820179
O O8 0.686886 0.944800 0.915214
O O9 0.152786 0.244297 0.254706
O O10 0.247140 0.162682 0.207323
O O11 0.138063 0.134701 0.169287
O O12 0.171333 0.000000 0.250000
O O13 0.838733 0.767149 0.347198
O O14 0.298542 0.287010 0.935570
O O15 0.204368 0.161579 0.912799
O O16 0.259690 0.123289 0.000000
#
# Coordination Sequence:
#
# PCOD9525357 Si02
#       7
#    16  16  16  16  16  16  16
#     4  11  23  38  58  78 104 146 190 233 274 324
#     4  10  18  31  49  78 114 143 170 220 278 337
#     4  11  20  29  49  77 117 149 174 217 271 334
#     4  10  19  29  49  76 111 148 174 211 273 335
#     4  10  19  29  50  76 104 144 171 215 280 335
#     4  10  18  35  50  75 111 140 179 219 267 330
#     4  11  21  34  48  76 113 142 181 224 276 330
#
# _framework density 17.782892
#
# number of rings (size 3 to 8) (size 9 to 14) (size 15 to 20)
#    0.000    1.571    5.714    2.571    2.000    2.857 
#    0.000    0.000    0.000    7.286    0.000    9.000 
#    4.286    0.000    0.000    0.000    0.000    0.000 
#
# Total GULP energy -311844.410724 kJ/mol
# GULP energy per Si atom -5568.650192 kJ/mol
# Density = 1.774242 g / cm^3
# Si number density = 17.782892 Si / 1000 Ang^3
#
#
#
# Elastic Constant Matrix: (Units=GPa)
#
#
# Indices 1 2 3 4 5 6 
#
# 1 38.8400 35.9930 28.4827 0.0000 0.0000 0.0000
# 2 35.9930 105.1989 52.1961 0.0000 0.0000 0.0000
# 3 28.4827 52.1961 115.2727 0.0000 0.0000 0.0000
# 4 0.0000 0.0000 0.0000 24.3276 0.0000 0.0000
# 5 0.0000 0.0000 0.0000 0.0000 11.5079 0.0000
# 6 0.0000 0.0000 0.0000 0.0000 0.0000 13.7283
#
#
#
# Elastic Compliance Matrix: (Units=1/GPa)
#
#
# Indices 1 2 3 4 5 6 
#
# 1 0.039585 -0.011209 -0.004705 0.000000 0.000000 0.000000
# 2 -0.011209 0.015434 -0.004219 0.000000 0.000000 0.000000
# 3 -0.004705 -0.004219 0.011748 0.000000 0.000000 0.000000
# 4 0.000000 0.000000 0.000000 0.041106 0.000000 0.000000
# 5 0.000000 0.000000 0.000000 0.000000 0.086896 0.000000
# 6 0.000000 0.000000 0.000000 0.000000 0.000000 0.072842
#
#
# Mechanical properties :
#
#
# Convention : Reuss Voigt Hill
#
# Bulk Modulus (GPa) = 37.73578 54.73948 46.23763
# Shear Modulus (GPa) = 15.78724 19.42209 17.60466
#
# Velocity S-wave (km/s) = 2.98279 3.30840 3.14980
# Velocity P-wave (km/s) = 5.75578 6.74114 6.26785
#
# Compressibility (1/GPa) = 0.02650005
#
# Stress axis : x y z
#
# Youngs Moduli (GPa) = 25.26235 64.79110 85.11949
#
# Poissons Ratio (x) = 0.72624 0.40053
# Poissons Ratio (y) = 0.28316 0.35913
# Poissons Ratio (z) = 0.11887 0.27336
#
# Static dielectric constant tensor:
#      x y z
#    x 1.577340 0.000000 0.000000 
#    y 0.000000 1.704780 0.000000 
#    z 0.000000 0.000000 1.657690 
# 
# From -- ./inp_files/49504.got.cif
#   From: 2010.05.17/outbox.cif.g08.bks.cpg/sg72_25_cif.got.tgz:49504.got - 2010.06.03 17:03:01.
