data_PCOD9525634
_publ_section_title
;
Structure prediction by ZEFSAII (Michael W. Deem and Ramdas Pophale) SiO2 
 PCOD9525634
Probable space group: I B A M
;
_chemical_formula_sum "Si O2"
_cell_formula_units_Z 64
_cell_length_a 13.947284
_cell_length_b 35.499680
_cell_length_c 8.864574
_cell_angle_alpha 90.000000
_cell_angle_beta 90.000000
_cell_angle_gamma 90.000000
_cell_volume 4389.064391
_symmetry_space_group_name_H-M "I B A M"
_symmetry_group_IT_number 72
_symmetry_cell_setting 'orthorhombic'
loop_
_space_group_symop_operation_xyz
x,y,z
-x,-y,z
x,-y,1/2-z
-x,y,1/2-z
-x,-y,-z
x,y,-z
-x,y,1/2+z
x,-y,1/2+z
1/2+x,1/2+y,1/2+z
1/2-x,1/2-y,1/2+z
1/2+x,1/2-y,-z
1/2-x,1/2+y,-z
1/2-x,1/2-y,1/2-z
1/2+x,1/2+y,1/2-z
1/2-x,1/2+y,z
1/2+x,1/2-y,z
loop_
_atom_site_type_symbol
_atom_site_label
_atom_site_fract_x
_atom_site_fract_y
_atom_site_fract_z
Si Si1 0.604558 0.731489 0.180233
Si Si2 0.784218 0.308599 0.180240
Si Si3 0.606868 0.121360 0.819359
Si Si4 0.893121 0.462646 0.320044
O O1 0.500000 0.726621 0.250000
O O2 0.682233 0.703093 0.250316
O O3 0.644447 0.773542 0.214105
O O4 0.601624 0.727195 0.000000
O O5 0.827359 0.346249 0.250928
O O6 0.776885 0.311957 0.000000
O O7 0.500000 0.124506 0.750000
O O8 0.646183 0.079108 0.787025
O O9 0.599645 0.125361 0.000000
O O10 0.845567 0.500000 0.250000
O O11 0.899436 0.467050 0.500000
O O12 0.000000 0.461454 0.250000
#
# Coordination Sequence:
#
# PCOD9525634 Si02
#       4
#    16  16  16  16
#     4  10  20  33  48  65  87 114 145 181 219 259
#     4  10  20  32  47  66  87 114 147 181 217 257
#     4  10  19  29  42  62  88 117 148 182 218 256
#     4   9  16  25  38  56  80 111 144 176 211 252
#
# _framework density 14.581696000000001
#
# number of rings (size 3 to 8) (size 9 to 14) (size 15 to 20)
#    0.000    2.250    0.000    4.500    0.000    8.000 
#    0.000    0.000    0.000    0.000    0.000    0.000 
#    0.000    1.000    0.000   10.500    0.000    5.750 
#
# Total GULP energy -178386.279176 kJ/mol
# GULP energy per Si atom -5574.571224 kJ/mol
# Density = 1.454851 g / cm^3
# Si number density = 14.581696 Si / 1000 Ang^3
#
#
#
# Elastic Constant Matrix: (Units=GPa)
#
#
# Indices 1 2 3 4 5 6 
#
# 1 91.6389 63.4892 44.2300 0.0006 0.0002 0.0001
# 2 63.4892 154.0289 69.1427 -0.0001 -0.0001 0.0000
# 3 44.2300 69.1427 71.9317 -0.0054 0.0032 0.0010
# 4 0.0006 -0.0001 -0.0054 26.3382 -0.0009 0.0006
# 5 0.0002 -0.0001 0.0032 -0.0009 23.3219 -0.0001
# 6 0.0001 0.0000 0.0010 0.0006 -0.0001 18.9316
#
#
#
# Elastic Compliance Matrix: (Units=1/GPa)
#
#
# Indices 1 2 3 4 5 6 
#
# 1 0.016830 -0.004031 -0.006474 -0.000002 0.000001 0.000000
# 2 -0.004031 0.012385 -0.009426 -0.000002 0.000001 0.000001
# 3 -0.006474 -0.009426 0.026944 0.000006 -0.000004 -0.000001
# 4 -0.000002 -0.000002 0.000006 0.037968 0.000002 -0.000001
# 5 0.000001 0.000001 -0.000004 0.000002 0.042878 0.000000
# 6 0.000000 0.000001 -0.000001 -0.000001 0.000000 0.052822
#
#
# Mechanical properties :
#
#
# Convention : Reuss Voigt Hill
#
# Bulk Modulus (GPa) = 61.36348 74.59147 67.97747
# Shear Modulus (GPa) = 21.26567 23.10085 22.18326
#
# Velocity S-wave (km/s) = 3.82302 3.98456 3.90463
# Velocity P-wave (km/s) = 7.85246 8.51083 8.18827
#
# Compressibility (1/GPa) = 0.01629634
#
# Stress axis : x y z
#
# Youngs Moduli (GPa) = 59.41865 80.74065 37.11456
#
# Poissons Ratio (x) = 0.32547 0.24027
# Poissons Ratio (y) = 0.23952 0.34986
# Poissons Ratio (z) = 0.38465 0.76110
#
# Static dielectric constant tensor:
#      x y z
#    x 1.439270 0.000000 0.000000 
#    y 0.000000 1.516250 0.000000 
#    z 0.000000 0.000000 1.482840 
# 
# From -- ./inp_files/2619.got.cif
#   From: 2010.05.17/outbox.cif.g08.bks.cpg/sg72_2_cif.got.tgz:2619.got - 2010.06.03 17:03:01.
