data_PCOD9525167
_publ_section_title
;
Structure prediction by ZEFSAII (Michael W. Deem and Ramdas Pophale) SiO2 
 PCOD9525167
Probable space group: I B A M
;
_chemical_formula_sum "Si O2"
_cell_formula_units_Z 128
_cell_length_a 22.692738
_cell_length_b 19.284638
_cell_length_c 14.660024
_cell_angle_alpha 90.000000
_cell_angle_beta 90.000000
_cell_angle_gamma 90.000000
_cell_volume 6415.537846
_symmetry_space_group_name_H-M "I B A M"
_symmetry_group_IT_number 72
_symmetry_cell_setting 'orthorhombic'
loop_
_space_group_symop_operation_xyz
x,y,z
-x,-y,z
x,-y,1/2-z
-x,y,1/2-z
-x,-y,-z
x,y,-z
-x,y,1/2+z
x,-y,1/2+z
1/2+x,1/2+y,1/2+z
1/2-x,1/2-y,1/2+z
1/2+x,1/2-y,-z
1/2-x,1/2+y,-z
1/2-x,1/2-y,1/2-z
1/2+x,1/2+y,1/2-z
1/2-x,1/2+y,z
1/2+x,1/2-y,z
loop_
_atom_site_type_symbol
_atom_site_label
_atom_site_fract_x
_atom_site_fract_y
_atom_site_fract_z
Si Si1 0.586849 0.320063 0.611678
Si Si2 0.851607 0.067853 0.612141
Si Si3 0.064559 0.520317 0.109376
Si Si4 0.483296 0.578168 0.111346
Si Si5 0.807445 0.084878 0.890430
Si Si6 0.765088 0.375028 0.897855
Si Si7 0.689181 0.976464 0.647203
Si Si8 0.387304 0.831532 0.612025
O O1 0.586147 0.320782 0.500000
O O2 0.532367 0.367522 0.642077
O O3 0.648842 0.354586 0.640369
O O4 0.583177 0.240106 0.639912
O O5 0.849828 0.068660 0.500000
O O6 0.916281 0.090558 0.640868
O O7 0.798567 0.116304 0.646491
O O8 0.836127 0.988849 0.639183
O O9 0.119663 0.469009 0.128740
O O10 0.082403 0.597193 0.142808
O O11 0.000000 0.500000 0.143282
O O12 0.061052 0.524367 0.000000
O O13 0.500000 0.500000 0.137777
O O14 0.483606 0.579528 0.000000
O O15 0.737904 0.082620 0.867838
O O16 0.810024 0.085091 0.000000
O O17 0.788824 0.454579 0.905769
O O18 0.819367 0.334264 0.855190
O O19 0.756459 0.346835 0.000000
O O20 0.694713 0.000000 0.750000
O O21 0.385665 0.833558 0.500000
#
# Coordination Sequence:
#
# PCOD9525167 Si02
#       8
#    16  16  16  16  16  16  16  16
#     4   9  15  22  38  62  90 120 147 181 220 263
#     4   8  12  19  34  55  79 108 142 175 207 250
#     4   9  17  31  51  68  86 116 149 180 223 275
#     4   9  13  18  30  56  89 113 137 174 219 258
#     4   9  15  25  41  62  89 120 147 175 220 264
#     4   8  14  26  43  59  80 114 148 176 214 262
#     4  10  18  27  43  68  93 107 141 189 230 256
#     4   8  14  25  41  62  86 113 148 180 212 261
#
# _framework density 19.951561999999999
#
# number of rings (size 3 to 8) (size 9 to 14) (size 15 to 20)
#    0.000    3.250    1.250    2.625    0.000    0.250 
#    0.000    0.000    2.750    3.000    0.000    7.000 
#   15.000    0.000    0.000    0.000    0.000    0.000 
#
# Total GULP energy -356447.550956 kJ/mol
# GULP energy per Si atom -5569.492984 kJ/mol
# Density = 1.990615 g / cm^3
# Si number density = 19.951562 Si / 1000 Ang^3
#
#
#
# Elastic Constant Matrix: (Units=GPa)
#
#
# Indices 1 2 3 4 5 6 
#
# 1 196.2933 66.8457 4.0262 0.0000 0.0000 0.0000
# 2 66.8457 75.0842 1.2597 0.0000 0.0000 0.0000
# 3 4.0262 1.2597 40.8628 0.0000 0.0000 0.0000
# 4 0.0000 0.0000 0.0000 -4.9618 0.0000 0.0000
# 5 0.0000 0.0000 0.0000 0.0000 8.8906 0.0000
# 6 0.0000 0.0000 0.0000 0.0000 0.0000 26.6874
#
#
#
# Elastic Compliance Matrix: (Units=1/GPa)
#
#
# Indices 1 2 3 4 5 6 
#
# 1 0.007322 -0.006510 -0.000521 0.000000 0.000000 0.000000
# 2 -0.006510 0.019113 0.000052 0.000000 0.000000 0.000000
# 3 -0.000521 0.000052 0.024522 0.000000 0.000000 0.000000
# 4 0.000000 0.000000 0.000000 -0.201541 0.000000 0.000000
# 5 0.000000 0.000000 0.000000 0.000000 0.112479 0.000000
# 6 0.000000 0.000000 0.000000 0.000000 0.000000 0.037471
#
#
# Mechanical properties :
#
#
# Convention : Reuss Voigt Hill
#
# Bulk Modulus (GPa) = 27.02697 50.72264 38.87481
# Shear Modulus (GPa) = 194.88661 22.13048 108.50854
#
# Velocity S-wave (km/s) = 9.89404 3.33409 7.38269
# Velocity P-wave (km/s) = 12.00409 6.34820 9.60203
#
# Compressibility (1/GPa) = 0.03700008
#
# Stress axis : x y z
#
# Youngs Moduli (GPa) = 136.57549 52.32022 40.77999
#
# Poissons Ratio (x) = 0.34060 0.02124
# Poissons Ratio (y) = 0.88908 -0.00213
# Poissons Ratio (z) = 0.07112 -0.00273
#
# Static dielectric constant tensor:
#      x y z
#    x 1.760390 0.000000 0.000000 
#    y 0.000000 1.680170 0.000000 
#    z 0.000000 0.000000 1.763250 
# 
# From -- ./inp_files/32919.got.cif
#   From: 2010.05.17/outbox.cif.g08.bks.cpg/sg72_17_cif.got.tgz:32919.got - 2010.06.03 17:03:01.
