data_PCOD9525039
_publ_section_title
;
Structure prediction by ZEFSAII (Michael W. Deem and Ramdas Pophale) SiO2 
 PCOD9525039
Probable space group: I B A M
;
_chemical_formula_sum "Si O2"
_cell_formula_units_Z 80
_cell_length_a 29.100921
_cell_length_b 18.250129
_cell_length_c 8.563614
_cell_angle_alpha 90.000000
_cell_angle_beta 90.000000
_cell_angle_gamma 90.000000
_cell_volume 4548.097392
_symmetry_space_group_name_H-M "I B A M"
_symmetry_group_IT_number 72
_symmetry_cell_setting 'orthorhombic'
loop_
_space_group_symop_operation_xyz
x,y,z
-x,-y,z
x,-y,1/2-z
-x,y,1/2-z
-x,-y,-z
x,y,-z
-x,y,1/2+z
x,-y,1/2+z
1/2+x,1/2+y,1/2+z
1/2-x,1/2-y,1/2+z
1/2+x,1/2-y,-z
1/2-x,1/2+y,-z
1/2-x,1/2-y,1/2-z
1/2+x,1/2+y,1/2-z
1/2-x,1/2+y,z
1/2+x,1/2-y,z
loop_
_atom_site_type_symbol
_atom_site_label
_atom_site_fract_x
_atom_site_fract_y
_atom_site_fract_z
Si Si1 0.051539 0.268835 0.814237
Si Si2 0.215646 0.311977 0.312121
Si Si3 0.447724 0.925131 0.686246
Si Si4 0.360768 0.705390 0.687877
Si Si5 0.291457 0.418514 0.312062
O O1 0.069115 0.346942 0.746527
O O2 0.088577 0.209300 0.759338
O O3 0.000000 0.256141 0.750000
O O4 0.049191 0.273462 0.000000
O O5 0.215282 0.311693 0.500000
O O6 0.250000 0.250000 0.250000
O O7 0.166429 0.280184 0.262759
O O8 0.240891 0.386898 0.263843
O O9 0.500000 0.926120 0.750000
O O10 0.447795 0.926619 0.500000
O O11 0.425312 0.000000 0.750000
O O12 0.363410 0.703353 0.500000
O O13 0.329804 0.637544 0.746203
O O14 0.298122 0.500000 0.250000
O O15 0.294078 0.417557 0.500000
#
# Coordination Sequence:
#
# PCOD9525039 Si02
#       5
#    16  16  16  16  16
#     4  11  21  34  51  74 102 138 181 225 266 312
#     4   8  16  30  50  73 100 130 164 203 250 303
#     4  10  17  28  45  66  91 122 160 205 253 302
#     4  10  19  34  54  77 104 138 175 218 264 311
#     4  10  19  33  53  80 108 138 172 211 257 312
#
# _framework density 17.589773999999998
#
# number of rings (size 3 to 8) (size 9 to 14) (size 15 to 20)
#    0.000    2.200    0.000    6.600    0.000    1.600 
#    0.000    1.000    0.000    3.000    0.000    4.200 
#    0.000    0.000    0.000    0.000    0.000    0.000 
#
# Total GULP energy -222768.024994 kJ/mol
# GULP energy per Si atom -5569.200625 kJ/mol
# Density = 1.754974 g / cm^3
# Si number density = 17.589774 Si / 1000 Ang^3
#
#
#
# Elastic Constant Matrix: (Units=GPa)
#
#
# Indices 1 2 3 4 5 6 
#
# 1 102.7326 52.0591 33.7642 0.0000 0.0000 0.0000
# 2 52.0591 102.4088 34.9840 0.0000 0.0000 0.0000
# 3 33.7642 34.9840 108.7332 0.0000 0.0000 0.0000
# 4 0.0000 0.0000 0.0000 27.3331 0.0000 0.0000
# 5 0.0000 0.0000 0.0000 0.0000 8.7735 0.0000
# 6 0.0000 0.0000 0.0000 0.0000 0.0000 21.3873
#
#
#
# Elastic Compliance Matrix: (Units=1/GPa)
#
#
# Indices 1 2 3 4 5 6 
#
# 1 0.013581 -0.006138 -0.002242 0.000000 0.000000 0.000000
# 2 -0.006138 0.013745 -0.002516 0.000000 0.000000 0.000000
# 3 -0.002242 -0.002516 0.010703 0.000000 0.000000 0.000000
# 4 0.000000 0.000000 0.000000 0.036586 0.000000 0.000000
# 5 0.000000 0.000000 0.000000 0.000000 0.113979 0.000000
# 6 0.000000 0.000000 0.000000 0.000000 0.000000 0.046757
#
#
# Mechanical properties :
#
#
# Convention : Reuss Voigt Hill
#
# Bulk Modulus (GPa) = 61.59408 61.72102 61.65755
# Shear Modulus (GPa) = 19.04361 24.36995 21.70678
#
# Velocity S-wave (km/s) = 3.29394 3.72622 3.51673
# Velocity P-wave (km/s) = 7.03987 7.32654 7.18463
#
# Compressibility (1/GPa) = 0.01623533
#
# Stress axis : x y z
#
# Youngs Moduli (GPa) = 73.62992 72.75589 93.43399
#
# Poissons Ratio (x) = 0.44658 0.20953
# Poissons Ratio (y) = 0.45194 0.23510
# Poissons Ratio (z) = 0.16511 0.18307
#
# Static dielectric constant tensor:
#      x y z
#    x 1.603680 0.000000 0.000000 
#    y 0.000000 1.624680 0.000000 
#    z 0.000000 0.000000 1.600510 
# 
# From -- ./inp_files/7917.got.cif
#   From: 2010.05.17/outbox.cif.g08.bks.cpg/sg72_4_cif.got.tgz:7917.got - 2010.06.03 17:03:01.
