data_PCOD9525774
_publ_section_title
;
Structure prediction by ZEFSAII (Michael W. Deem and Ramdas Pophale) SiO2 
 PCOD9525774
Probable space group: I B A M
;
_chemical_formula_sum "Si O2"
_cell_formula_units_Z 96
_cell_length_a 14.585244
_cell_length_b 15.293444
_cell_length_c 21.851143
_cell_angle_alpha 90.000000
_cell_angle_beta 90.000000
_cell_angle_gamma 90.000000
_cell_volume 4874.085636
_symmetry_space_group_name_H-M "I B A M"
_symmetry_group_IT_number 72
_symmetry_cell_setting 'orthorhombic'
loop_
_space_group_symop_operation_xyz
x,y,z
-x,-y,z
x,-y,1/2-z
-x,y,1/2-z
-x,-y,-z
x,y,-z
-x,y,1/2+z
x,-y,1/2+z
1/2+x,1/2+y,1/2+z
1/2-x,1/2-y,1/2+z
1/2+x,1/2-y,-z
1/2-x,1/2+y,-z
1/2-x,1/2-y,1/2-z
1/2+x,1/2+y,1/2-z
1/2-x,1/2+y,z
1/2+x,1/2-y,z
loop_
_atom_site_type_symbol
_atom_site_label
_atom_site_fract_x
_atom_site_fract_y
_atom_site_fract_z
Si Si1 0.673989 0.595691 0.069417
Si Si2 0.591734 0.453033 0.159640
Si Si3 0.493533 0.693650 0.071438
Si Si4 0.346969 0.182109 0.382806
Si Si5 0.763391 0.177349 0.303150
Si Si6 0.599995 0.896908 0.253959
O O1 0.650370 0.523882 0.121108
O O2 0.602312 0.676289 0.079340
O O3 0.778250 0.627745 0.075291
O O4 0.656605 0.562913 0.000000
O O5 0.500000 0.500000 0.184469
O O6 0.551796 0.383416 0.111029
O O7 0.657241 0.396560 0.204860
O O8 0.444151 0.783353 0.092005
O O9 0.473018 0.682042 0.000000
O O10 0.291333 0.269253 0.362816
O O11 0.361272 0.129580 0.319921
O O12 0.750000 0.250000 0.250000
O O13 0.665744 0.131697 0.300910
O O14 0.500000 0.854674 0.250000
O O15 0.593314 0.000000 0.250000
#
# Coordination Sequence:
#
# PCOD9525774 Si02
#       6
#    16  16  16  16  16  16
#     4  10  19  31  53  82 110 145 183 226 283 338
#     4   9  17  32  55  81 112 146 185 230 285 341
#     4   9  18  32  51  79 111 141 180 227 282 342
#     4  10  20  33  54  77 107 143 180 234 278 336
#     4   9  19  35  54  79 110 143 183 234 283 339
#     4  10  21  36  55  75 100 143 192 227 277 337
#
# _framework density 19.696002
#
# number of rings (size 3 to 8) (size 9 to 14) (size 15 to 20)
#    0.000    2.500    0.000    2.000    2.333    2.000 
#    0.000    0.000    0.000   12.000    0.000    5.833 
#    0.000    0.000    0.000    0.000    0.000    0.000 
#
# Total GULP energy -267241.314332 kJ/mol
# GULP energy per Si atom -5567.527382 kJ/mol
# Density = 1.965117 g / cm^3
# Si number density = 19.696002 Si / 1000 Ang^3
#
#
#
# Elastic Constant Matrix: (Units=GPa)
#
#
# Indices 1 2 3 4 5 6 
#
# 1 97.3632 37.5747 26.1773 0.0000 0.0000 0.0000
# 2 37.5747 68.3268 19.7681 0.0000 0.0000 0.0000
# 3 26.1773 19.7681 63.0107 0.0000 0.0000 0.0000
# 4 0.0000 0.0000 0.0000 17.4591 0.0000 0.0000
# 5 0.0000 0.0000 0.0000 0.0000 28.2338 0.0000
# 6 0.0000 0.0000 0.0000 0.0000 0.0000 33.0217
#
#
#
# Elastic Compliance Matrix: (Units=1/GPa)
#
#
# Indices 1 2 3 4 5 6 
#
# 1 0.013772 -0.006509 -0.003679 0.000000 0.000000 0.000000
# 2 -0.006509 0.019173 -0.003311 0.000000 0.000000 0.000000
# 3 -0.003679 -0.003311 0.018438 0.000000 0.000000 0.000000
# 4 0.000000 0.000000 0.000000 0.057277 0.000000 0.000000
# 5 0.000000 0.000000 0.000000 0.000000 0.035419 0.000000
# 6 0.000000 0.000000 0.000000 0.000000 0.000000 0.030283
#
#
# Mechanical properties :
#
#
# Convention : Reuss Voigt Hill
#
# Bulk Modulus (GPa) = 41.01083 43.97122 42.49103
# Shear Modulus (GPa) = 23.86771 25.42162 24.64467
#
# Velocity S-wave (km/s) = 3.48488 3.59653 3.54114
# Velocity P-wave (km/s) = 6.08766 6.29445 6.19192
#
# Compressibility (1/GPa) = 0.02438380
#
# Stress axis : x y z
#
# Youngs Moduli (GPa) = 72.61059 52.15674 54.23688
#
# Poissons Ratio (x) = 0.33949 0.19956
# Poissons Ratio (y) = 0.47263 0.17957
# Poissons Ratio (z) = 0.26717 0.17269
#
# Static dielectric constant tensor:
#      x y z
#    x 1.766980 0.000000 0.000000 
#    y 0.000000 1.737050 0.000000 
#    z 0.000000 0.000000 1.710040 
# 
# From -- ./inp_files/38052.got.cif
#   From: 2010.05.17/outbox.cif.g08.bks.cpg/sg72_20_cif.got.tgz:38052.got - 2010.06.03 17:03:01.
