data_PCOD9525134
_publ_section_title
;
Structure prediction by ZEFSAII (Michael W. Deem and Ramdas Pophale) SiO2 
 PCOD9525134
Probable space group: I B A M
;
_chemical_formula_sum "Si O2"
_cell_formula_units_Z 104
_cell_length_a 29.345876
_cell_length_b 7.663378
_cell_length_c 20.787550
_cell_angle_alpha 90.000000
_cell_angle_beta 90.000000
_cell_angle_gamma 90.000000
_cell_volume 4674.881781
_symmetry_space_group_name_H-M "I B A M"
_symmetry_group_IT_number 72
_symmetry_cell_setting 'orthorhombic'
loop_
_space_group_symop_operation_xyz
x,y,z
-x,-y,z
x,-y,1/2-z
-x,y,1/2-z
-x,-y,-z
x,y,-z
-x,y,1/2+z
x,-y,1/2+z
1/2+x,1/2+y,1/2+z
1/2-x,1/2-y,1/2+z
1/2+x,1/2-y,-z
1/2-x,1/2+y,-z
1/2-x,1/2-y,1/2-z
1/2+x,1/2+y,1/2-z
1/2-x,1/2+y,z
1/2+x,1/2-y,z
loop_
_atom_site_type_symbol
_atom_site_label
_atom_site_fract_x
_atom_site_fract_y
_atom_site_fract_z
Si Si1 0.679932 0.301601 0.227097
Si Si2 0.175068 0.218369 0.000000
Si Si3 0.606505 0.662342 0.618739
Si Si4 0.411398 0.730341 0.577195
Si Si5 0.762537 0.666978 0.885994
Si Si6 0.510638 0.290138 0.925583
Si Si7 0.821731 0.329990 0.866824
O O1 0.635777 0.291785 0.181184
O O2 0.722487 0.246574 0.182879
O O3 0.673063 0.186780 0.290691
O O4 0.814169 0.000000 0.250000
O O5 0.135735 0.212967 0.056588
O O6 0.214779 0.231061 0.055806
O O7 0.599199 0.452650 0.612634
O O8 0.555835 0.741725 0.615019
O O9 0.410421 0.701040 0.500000
O O10 0.462274 0.792791 0.593608
O O11 0.369538 0.850293 0.597932
O O12 0.787870 0.483004 0.886060
O O13 0.707778 0.662386 0.890127
O O14 0.500000 0.500000 0.924541
O O15 0.520232 0.244736 0.000000
#
# Coordination Sequence:
#
# PCOD9525134 Si02
#       7
#    16   8  16  16  16  16  16
#     4  11  22  41  63  90 120 165 211 252 305 364
#     4  10  22  38  61  93 120 156 202 252 315 356
#     4  10  17  35  65  93 126 155 205 258 303 374
#     4  10  20  33  61  94 132 160 200 264 314 359
#     4  11  27  41  65  87 124 165 212 257 309 373
#     4   8  14  29  56  95 128 155 197 252 316 360
#     4  12  25  43  60  86 127 166 211 256 307 375
#
# _framework density 22.246552000000001
#
# number of rings (size 3 to 8) (size 9 to 14) (size 15 to 20)
#    0.000    1.692    3.077    2.769    4.308    0.000 
#    0.000    0.769    0.000    4.615    0.000    4.308 
#    0.000    0.000    0.000    0.000    0.000    0.000 
#
# Total GULP energy -289770.419572 kJ/mol
# GULP energy per Si atom -5572.508069 kJ/mol
# Density = 2.219592 g / cm^3
# Si number density = 22.246552 Si / 1000 Ang^3
#
#
#
# Elastic Constant Matrix: (Units=GPa)
#
#
# Indices 1 2 3 4 5 6 
#
# 1 149.8497 7.5595 32.6145 0.0000 0.0000 0.0000
# 2 7.5595 36.4992 12.2537 0.0000 0.0000 0.0000
# 3 32.6145 12.2537 57.9843 0.0000 0.0000 0.0000
# 4 0.0000 0.0000 0.0000 -7.0347 0.0000 0.0000
# 5 0.0000 0.0000 0.0000 0.0000 27.9252 0.0000
# 6 0.0000 0.0000 0.0000 0.0000 0.0000 18.1093
#
#
#
# Elastic Compliance Matrix: (Units=1/GPa)
#
#
# Indices 1 2 3 4 5 6 
#
# 1 0.007605 -0.000150 -0.004246 0.000000 0.000000 0.000000
# 2 -0.000150 0.029493 -0.006149 0.000000 0.000000 0.000000
# 3 -0.004246 -0.006149 0.020934 0.000000 0.000000 0.000000
# 4 0.000000 0.000000 0.000000 -0.142152 0.000000 0.000000
# 5 0.000000 0.000000 0.000000 0.000000 0.035810 0.000000
# 6 0.000000 0.000000 0.000000 0.000000 0.000000 0.055220
#
#
# Mechanical properties :
#
#
# Convention : Reuss Voigt Hill
#
# Bulk Modulus (GPa) = 27.06842 38.79875 32.93359
# Shear Modulus (GPa) = 124.02952 20.59364 72.31158
#
# Velocity S-wave (km/s) = 7.47484 3.04583 5.70747
# Velocity P-wave (km/s) = 9.31083 5.46330 7.63345
#
# Compressibility (1/GPa) = 0.03694342
#
# Stress axis : x y z
#
# Youngs Moduli (GPa) = 131.49186 33.90625 47.76996
#
# Poissons Ratio (x) = 0.00507 0.20283
# Poissons Ratio (y) = 0.01967 0.29372
# Poissons Ratio (z) = 0.55831 0.20847
#
# Static dielectric constant tensor:
#      x y z
#    x 1.845520 0.000000 0.000000 
#    y 0.000000 2.007300 0.000000 
#    z 0.000000 0.000000 1.748640 
# 
# From -- ./inp_files/40775.got.cif
#   From: 2010.05.17/outbox.cif.g08.bks.cpg/sg72_21_cif.got.tgz:40775.got - 2010.06.03 17:03:01.
