data_PCOD9525105
_publ_section_title
;
Structure prediction by ZEFSAII (Michael W. Deem and Ramdas Pophale) SiO2 
 PCOD9525105
Probable space group: I B A M
;
_chemical_formula_sum "Si O2"
_cell_formula_units_Z 104
_cell_length_a 14.784916
_cell_length_b 21.694359
_cell_length_c 15.346650
_cell_angle_alpha 90.000000
_cell_angle_beta 90.000000
_cell_angle_gamma 90.000000
_cell_volume 4922.426869
_symmetry_space_group_name_H-M "I B A M"
_symmetry_group_IT_number 72
_symmetry_cell_setting 'orthorhombic'
loop_
_space_group_symop_operation_xyz
x,y,z
-x,-y,z
x,-y,1/2-z
-x,y,1/2-z
-x,-y,-z
x,y,-z
-x,y,1/2+z
x,-y,1/2+z
1/2+x,1/2+y,1/2+z
1/2-x,1/2-y,1/2+z
1/2+x,1/2-y,-z
1/2-x,1/2+y,-z
1/2-x,1/2-y,1/2-z
1/2+x,1/2+y,1/2-z
1/2-x,1/2+y,z
1/2+x,1/2-y,z
loop_
_atom_site_type_symbol
_atom_site_label
_atom_site_fract_x
_atom_site_fract_y
_atom_site_fract_z
Si Si1 0.341010 0.931087 0.639271
Si Si2 0.136965 0.891274 0.901371
Si Si3 0.366132 0.596337 0.895771
Si Si4 0.005117 0.347086 0.854555
Si Si5 0.832912 0.430579 0.652422
Si Si6 0.500000 0.500000 0.866107
Si Si7 0.004005 0.796328 0.604123
O O1 0.240452 0.908895 0.616046
O O2 0.419090 0.884685 0.608782
O O3 0.348558 0.933829 0.744011
O O4 0.350255 0.002265 0.611165
O O5 0.228845 0.911874 0.857369
O O6 0.065961 0.947845 0.905627
O O7 0.082168 0.834383 0.859717
O O8 0.162569 0.874909 0.000000
O O9 0.420769 0.547374 0.834574
O O10 0.407290 0.663209 0.874684
O O11 0.385239 0.582391 0.000000
O O12 0.097098 0.380533 0.883772
O O13 0.005367 0.274778 0.873323
O O14 0.000000 0.352133 0.750000
O O15 0.996139 0.800617 0.500000
#
# Coordination Sequence:
#
# PCOD9525105 Si02
#       7
#    16  16  16  16  16   8  16
#     4  10  21  37  57  83 110 142 185 232 276 321
#     4  10  19  34  58  84 111 143 179 223 277 330
#     4  10  19  34  58  84 111 143 179 223 277 330
#     4  10  22  40  58  74 108 155 190 223 270 325
#     4  10  21  37  57  83 110 142 185 232 276 321
#     4  10  17  32  57  82 111 142 173 214 273 334
#     4   9  21  38  56  82 113 147 183 223 271 327
#
# _framework density 21.127789
#
# number of rings (size 3 to 8) (size 9 to 14) (size 15 to 20)
#    0.000    2.154    1.538    2.769    0.000    5.538 
#    0.000    9.231    0.000    2.769    0.000    0.000 
#    0.000    0.000    0.000    0.000    0.000    0.000 
#
# Total GULP energy -289825.868484 kJ/mol
# GULP energy per Si atom -5573.574394 kJ/mol
# Density = 2.107970 g / cm^3
# Si number density = 21.127789 Si / 1000 Ang^3
#
#
#
# Elastic Constant Matrix: (Units=GPa)
#
#
# Indices 1 2 3 4 5 6 
#
# 1 139.1660 109.8824 1.4699 -0.0002 0.0000 -0.0001
# 2 109.8824 214.1679 9.8044 0.0001 0.0000 0.0001
# 3 1.4699 9.8044 32.7017 0.0003 0.0000 0.0003
# 4 -0.0002 0.0001 0.0003 30.0188 0.0000 0.0002
# 5 0.0000 0.0000 0.0000 0.0000 22.3041 -0.0001
# 6 -0.0001 0.0001 0.0003 0.0002 -0.0001 13.6413
#
#
#
# Elastic Compliance Matrix: (Units=1/GPa)
#
#
# Indices 1 2 3 4 5 6 
#
# 1 0.012137 -0.006288 0.001340 0.000000 0.000000 0.000000
# 2 -0.006288 0.007992 -0.002114 0.000000 0.000000 0.000000
# 3 0.001340 -0.002114 0.031153 0.000000 0.000000 -0.000001
# 4 0.000000 0.000000 0.000000 0.033312 0.000000 0.000000
# 5 0.000000 0.000000 0.000000 0.000000 0.044835 0.000000
# 6 0.000000 0.000000 -0.000001 0.000000 0.000000 0.073307
#
#
# Mechanical properties :
#
#
# Convention : Reuss Voigt Hill
#
# Bulk Modulus (GPa) = 26.91231 69.81657 48.36444
# Shear Modulus (GPa) = 21.81070 30.85144 26.33107
#
# Velocity S-wave (km/s) = 3.21646 3.82544 3.53409
# Velocity P-wave (km/s) = 5.15361 7.25456 6.29239
#
# Compressibility (1/GPa) = 0.03715771
#
# Stress axis : x y z
#
# Youngs Moduli (GPa) = 82.39594 125.12128 32.09977
#
# Poissons Ratio (x) = 0.78678 -0.04301
# Poissons Ratio (y) = 0.51812 0.06784
# Poissons Ratio (z) = -0.11039 0.26445
#
# Static dielectric constant tensor:
#      x y z
#    x 1.733770 0.000000 0.000000 
#    y 0.000000 1.759270 0.000000 
#    z 0.000000 0.000000 1.855450 
# 
# From -- ./inp_files/30738.got.cif
#   From: 2010.05.17/outbox.cif.g08.bks.cpg/sg72_16_cif.got.tgz:30738.got - 2010.06.03 17:03:01.
