data_PCOD9525678
_publ_section_title
;
Structure prediction by ZEFSAII (Michael W. Deem and Ramdas Pophale) SiO2 
 PCOD9525678
Probable space group: I B A M
;
_chemical_formula_sum "Si O2"
_cell_formula_units_Z 84
_cell_length_a 24.296588
_cell_length_b 8.363141
_cell_length_c 17.962315
_cell_angle_alpha 90.000000
_cell_angle_beta 90.000000
_cell_angle_gamma 90.000000
_cell_volume 3649.866809
_symmetry_space_group_name_H-M "I B A M"
_symmetry_group_IT_number 72
_symmetry_cell_setting 'orthorhombic'
loop_
_space_group_symop_operation_xyz
x,y,z
-x,-y,z
x,-y,1/2-z
-x,y,1/2-z
-x,-y,-z
x,y,-z
-x,y,1/2+z
x,-y,1/2+z
1/2+x,1/2+y,1/2+z
1/2-x,1/2-y,1/2+z
1/2+x,1/2-y,-z
1/2-x,1/2+y,-z
1/2-x,1/2-y,1/2-z
1/2+x,1/2+y,1/2-z
1/2-x,1/2+y,z
1/2+x,1/2-y,z
loop_
_atom_site_type_symbol
_atom_site_label
_atom_site_fract_x
_atom_site_fract_y
_atom_site_fract_z
Si Si1 0.535623 0.639989 0.584777
Si Si2 0.733638 0.035658 0.409613
Si Si3 0.563912 0.166031 0.376843
Si Si4 0.833901 0.144418 0.089467
Si Si5 0.000000 0.500000 0.250000
Si Si6 0.868737 0.650272 0.086746
O O1 0.500000 0.500000 0.622379
O O2 0.548885 0.587055 0.500000
O O3 0.490927 0.781723 0.580621
O O4 0.591256 0.712844 0.618708
O O5 0.734228 0.021152 0.500000
O O6 0.796415 0.004877 0.386372
O O7 0.690076 0.902314 0.381080
O O8 0.706209 0.205180 0.394123
O O9 0.607587 0.311058 0.376075
O O10 0.540028 0.109822 0.298514
O O11 0.596080 0.014765 0.410767
O O12 0.842503 0.138387 0.000000
O O13 0.859727 0.692860 0.000000
#
# Coordination Sequence:
#
# PCOD9525678 Si02
#       6
#    16  16  16  16   4  16
#     4  10  19  30  49  81 110 130 158 209 282 342
#     4   8  15  26  44  73 102 130 159 193 255 331
#     4  11  20  35  52  73 101 142 186 227 261 301
#     4   9  17  30  51  79 108 136 165 208 271 330
#     4  12  24  36  56  72  92 144 210 242 242 284
#     4   9  16  30  52  74 102 136 167 208 266 332
#
# _framework density 23.014537000000001
#
# number of rings (size 3 to 8) (size 9 to 14) (size 15 to 20)
#    0.000    2.476    1.905    2.857    0.000    3.048 
#    0.000    6.190    0.000    4.571    0.000    0.000 
#    0.000    0.000    0.000    0.000    0.000    0.000 
#
# Total GULP energy -234218.081430 kJ/mol
# GULP energy per Si atom -5576.620986 kJ/mol
# Density = 2.296216 g / cm^3
# Si number density = 23.014537 Si / 1000 Ang^3
#
#
#
# Elastic Constant Matrix: (Units=GPa)
#
#
# Indices 1 2 3 4 5 6 
#
# 1 155.0461 24.8562 9.1964 0.0000 0.0000 0.0000
# 2 24.8562 49.0600 -0.9513 0.0000 0.0000 0.0000
# 3 9.1964 -0.9513 27.8215 0.0000 0.0000 0.0000
# 4 0.0000 0.0000 0.0000 -2.7478 0.0000 0.0000
# 5 0.0000 0.0000 0.0000 0.0000 283.6271 0.0000
# 6 0.0000 0.0000 0.0000 0.0000 0.0000 59.2821
#
#
#
# Elastic Compliance Matrix: (Units=1/GPa)
#
#
# Indices 1 2 3 4 5 6 
#
# 1 0.007190 -0.003691 -0.002503 0.000000 0.000000 0.000000
# 2 -0.003691 0.022292 0.001982 0.000000 0.000000 0.000000
# 3 -0.002503 0.001982 0.036839 0.000000 0.000000 0.000000
# 4 0.000000 0.000000 0.000000 -0.363928 0.000000 0.000000
# 5 0.000000 0.000000 0.000000 0.000000 0.003526 0.000000
# 6 0.000000 0.000000 0.000000 0.000000 0.000000 0.016868
#
#
# Mechanical properties :
#
#
# Convention : Reuss Voigt Hill
#
# Bulk Modulus (GPa) = 17.27212 33.12559 25.19886
# Shear Modulus (GPa) = -20.04084 81.28737 30.62326
#
# Velocity S-wave (km/s) = -2.95412 5.94951 3.65170
# Velocity P-wave (km/s) = 2.02844 7.84985 5.36216
#
# Compressibility (1/GPa) = 0.05789676
#
# Stress axis : x y z
#
# Youngs Moduli (GPa) = 139.08364 44.85946 27.14548
#
# Poissons Ratio (x) = 0.16559 0.06794
# Poissons Ratio (y) = 0.51340 -0.05381
# Poissons Ratio (z) = 0.34811 -0.08893
#
# Static dielectric constant tensor:
#      x y z
#    x 1.895320 0.000000 0.000000 
#    y 0.000000 1.987390 0.000000 
#    z 0.000000 0.000000 1.819310 
# 
# From -- ./inp_files/40116.got.cif
#   From: 2010.05.17/outbox.cif.g08.bks.cpg/sg72_21_cif.got.tgz:40116.got - 2010.06.03 17:03:01.
