data_PCOD9525285
_publ_section_title
;
Structure prediction by ZEFSAII (Michael W. Deem and Ramdas Pophale) SiO2 
 PCOD9525285
Probable space group: I B A M
;
_chemical_formula_sum "Si O2"
_cell_formula_units_Z 104
_cell_length_a 12.041367
_cell_length_b 28.034062
_cell_length_c 15.158466
_cell_angle_alpha 90.000000
_cell_angle_beta 90.000000
_cell_angle_gamma 90.000000
_cell_volume 5117.019554
_symmetry_space_group_name_H-M "I B A M"
_symmetry_group_IT_number 72
_symmetry_cell_setting 'orthorhombic'
loop_
_space_group_symop_operation_xyz
x,y,z
-x,-y,z
x,-y,1/2-z
-x,y,1/2-z
-x,-y,-z
x,y,-z
-x,y,1/2+z
x,-y,1/2+z
1/2+x,1/2+y,1/2+z
1/2-x,1/2-y,1/2+z
1/2+x,1/2-y,-z
1/2-x,1/2+y,-z
1/2-x,1/2-y,1/2-z
1/2+x,1/2+y,1/2-z
1/2-x,1/2+y,z
1/2+x,1/2-y,z
loop_
_atom_site_type_symbol
_atom_site_label
_atom_site_fract_x
_atom_site_fract_y
_atom_site_fract_z
Si Si1 0.994404 0.286095 0.897923
Si Si2 0.566775 0.884198 0.659092
Si Si3 0.092190 0.461530 0.400689
Si Si4 0.745962 0.575694 0.262740
Si Si5 0.500000 0.398745 0.750000
Si Si6 0.234702 0.658878 0.096817
Si Si7 0.517682 0.681831 0.601989
O O1 0.872865 0.309191 0.894459
O O2 0.074115 0.327893 0.861168
O O3 0.981589 0.233031 0.860292
O O4 0.026375 0.279240 0.000000
O O5 0.500000 0.888055 0.750000
O O6 0.480888 0.912560 0.596967
O O7 0.682281 0.911873 0.675451
O O8 0.132042 0.472044 0.500000
O O9 0.188579 0.460659 0.327125
O O10 0.000000 0.500000 0.374438
O O11 0.614019 0.570732 0.251195
O O12 0.758118 0.623116 0.322640
O O13 0.507230 0.362977 0.665265
O O14 0.349193 0.687026 0.098131
O O15 0.231352 0.634275 0.000000
O O16 0.478288 0.674452 0.500000
#
# Coordination Sequence:
#
# PCOD9525285 Si02
#       7
#    16  16  16  16   8  16  16
#     4  10  18  30  48  71 105 149 198 249 299 345
#     4  10  19  30  50  81 110 137 181 240 308 349
#     4  10  20  36  62  90 113 142 184 238 302 367
#     4  10  20  34  54  83 114 149 188 233 292 353
#     4  10  22  38  56  79 116 164 207 240 284 358
#     4   9  16  30  49  68 100 147 195 239 282 340
#     4   9  20  33  48  73 106 153 210 255 288 338
#
# _framework density 20.324331999999998
#
# number of rings (size 3 to 8) (size 9 to 14) (size 15 to 20)
#    0.000    2.308    3.077    0.923    1.077    4.615 
#    0.000    6.154    0.000    1.846    0.000    2.154 
#    0.000    0.000    0.000    0.000    0.000    0.000 
#
# Total GULP energy -289600.790663 kJ/mol
# GULP energy per Si atom -5569.245974 kJ/mol
# Density = 2.027807 g / cm^3
# Si number density = 20.324332 Si / 1000 Ang^3
#
#
#
# Elastic Constant Matrix: (Units=GPa)
#
#
# Indices 1 2 3 4 5 6 
#
# 1 120.2663 18.6555 25.0155 0.0000 0.0000 0.0000
# 2 18.6555 40.4802 2.2075 -0.0002 0.0001 0.0000
# 3 25.0155 2.2075 71.5120 -0.0008 0.0003 0.0001
# 4 0.0000 -0.0002 -0.0008 19.7027 0.0001 0.0001
# 5 0.0000 0.0001 0.0003 0.0001 18.9203 0.0000
# 6 0.0000 0.0000 0.0001 0.0001 0.0000 22.7123
#
#
#
# Elastic Compliance Matrix: (Units=1/GPa)
#
#
# Indices 1 2 3 4 5 6 
#
# 1 0.009652 -0.004271 -0.003245 0.000000 0.000000 0.000000
# 2 -0.004271 0.026635 0.000672 0.000000 0.000000 0.000000
# 3 -0.003245 0.000672 0.015098 0.000001 0.000000 0.000000
# 4 0.000000 0.000000 0.000001 0.050755 0.000000 0.000000
# 5 0.000000 0.000000 0.000000 0.000000 0.052853 0.000000
# 6 0.000000 0.000000 0.000000 0.000000 0.000000 0.044029
#
#
# Mechanical properties :
#
#
# Convention : Reuss Voigt Hill
#
# Bulk Modulus (GPa) = 26.52701 36.00172 31.26437
# Shear Modulus (GPa) = 22.19499 24.69241 23.44370
#
# Velocity S-wave (km/s) = 3.30819 3.48935 3.39998
# Velocity P-wave (km/s) = 5.26045 5.82976 5.55241
#
# Compressibility (1/GPa) = 0.03769743
#
# Stress axis : x y z
#
# Youngs Moduli (GPa) = 103.60197 37.54422 66.23435
#
# Poissons Ratio (x) = 0.16037 0.21490
# Poissons Ratio (y) = 0.44252 -0.04451
# Poissons Ratio (z) = 0.33615 -0.02523
#
# Static dielectric constant tensor:
#      x y z
#    x 1.747640 0.000000 0.000000 
#    y 0.000000 1.811610 0.000000 
#    z 0.000000 0.000000 1.775260 
# 
# From -- ./inp_files/29768.got.cif
#   From: 2010.05.17/outbox.cif.g08.bks.cpg/sg72_15_cif.got.tgz:29768.got - 2010.06.03 17:03:01.
