data_PCOD9525031
_publ_section_title
;
Structure prediction by ZEFSAII (Michael W. Deem and Ramdas Pophale) SiO2 
 PCOD9525031
Probable space group: I B A M
;
_chemical_formula_sum "Si O2"
_cell_formula_units_Z 96
_cell_length_a 25.725421
_cell_length_b 8.340213
_cell_length_c 20.873613
_cell_angle_alpha 90.000000
_cell_angle_beta 90.000000
_cell_angle_gamma 90.000000
_cell_volume 4478.548279
_symmetry_space_group_name_H-M "I B A M"
_symmetry_group_IT_number 72
_symmetry_cell_setting 'orthorhombic'
loop_
_space_group_symop_operation_xyz
x,y,z
-x,-y,z
x,-y,1/2-z
-x,y,1/2-z
-x,-y,-z
x,y,-z
-x,y,1/2+z
x,-y,1/2+z
1/2+x,1/2+y,1/2+z
1/2-x,1/2-y,1/2+z
1/2+x,1/2-y,-z
1/2-x,1/2+y,-z
1/2-x,1/2-y,1/2-z
1/2+x,1/2+y,1/2-z
1/2-x,1/2+y,z
1/2+x,1/2-y,z
loop_
_atom_site_type_symbol
_atom_site_label
_atom_site_fract_x
_atom_site_fract_y
_atom_site_fract_z
Si Si1 0.374385 0.133466 0.428798
Si Si2 0.737528 0.268183 0.071619
Si Si3 0.396132 0.361119 0.313887
Si Si4 0.417757 0.224135 0.071170
Si Si5 0.045878 0.182260 0.700872
Si Si6 0.321201 0.573562 0.617798
O O1 0.387836 0.196914 0.500000
O O2 0.312158 0.150911 0.422824
O O3 0.398544 0.239243 0.372350
O O4 0.391930 0.950769 0.425946
O O5 0.711876 0.442291 0.078936
O O6 0.781024 0.220124 0.123160
O O7 0.760547 0.256125 0.000000
O O8 0.403446 0.277071 0.245169
O O9 0.442467 0.494147 0.315114
O O10 0.344427 0.467043 0.324496
O O11 0.455703 0.235994 0.132124
O O12 0.372310 0.355280 0.083304
O O13 0.440355 0.246509 0.000000
O O14 0.000000 0.223012 0.750000
#
# Coordination Sequence:
#
# PCOD9525031 Si02
#       6
#    16  16  16  16  16  16
#     4   9  19  34  55  87 123 158 194 238 287 338
#     4  10  17  27  47  78 116 156 199 238 280 332
#     4   9  19  36  58  80 112 153 195 238 285 344
#     4  10  20  36  59  87 118 149 190 242 294 347
#     4  10  21  40  65  87 111 148 192 239 296 361
#     4  10  19  30  52  83 117 158 199 242 286 334
#
# _framework density 21.435517000000001
#
# number of rings (size 3 to 8) (size 9 to 14) (size 15 to 20)
#    0.000    2.333    0.000    3.500    0.000    6.667 
#    0.000    3.333    0.000   79.000    0.000    0.000 
#    0.000    0.000    0.000    0.000    0.000    0.000 
#
# Total GULP energy -267304.999722 kJ/mol
# GULP energy per Si atom -5568.854161 kJ/mol
# Density = 2.138673 g / cm^3
# Si number density = 21.435517 Si / 1000 Ang^3
#
#
#
# Elastic Constant Matrix: (Units=GPa)
#
#
# Indices 1 2 3 4 5 6 
#
# 1 60.1768 15.0425 42.9812 0.0000 0.0000 0.0000
# 2 15.0425 57.6178 40.1577 0.0000 0.0000 0.0000
# 3 42.9812 40.1577 166.6386 0.0000 0.0000 0.0000
# 4 0.0000 0.0000 0.0000 29.7457 0.0000 0.0000
# 5 0.0000 0.0000 0.0000 0.0000 28.2681 0.0000
# 6 0.0000 0.0000 0.0000 0.0000 0.0000 10.9636
#
#
#
# Elastic Compliance Matrix: (Units=1/GPa)
#
#
# Indices 1 2 3 4 5 6 
#
# 1 0.020562 -0.002009 -0.004819 0.000000 0.000000 0.000000
# 2 -0.002009 0.021056 -0.004556 0.000000 0.000000 0.000000
# 3 -0.004819 -0.004556 0.008342 0.000000 0.000000 0.000000
# 4 0.000000 0.000000 0.000000 0.033618 0.000000 0.000000
# 5 0.000000 0.000000 0.000000 0.000000 0.035376 0.000000
# 6 0.000000 0.000000 0.000000 0.000000 0.000000 0.091211
#
#
# Mechanical properties :
#
#
# Convention : Reuss Voigt Hill
#
# Bulk Modulus (GPa) = 36.77732 53.42177 45.09955
# Shear Modulus (GPa) = 20.66137 26.21227 23.43682
#
# Velocity S-wave (km/s) = 3.10802 3.50071 3.31019
# Velocity P-wave (km/s) = 5.48399 6.42776 5.97454
#
# Compressibility (1/GPa) = 0.02719067
#
# Stress axis : x y z
#
# Youngs Moduli (GPa) = 48.63289 47.49333 119.87563
#
# Poissons Ratio (x) = 0.09543 0.57773
# Poissons Ratio (y) = 0.09772 0.54614
# Poissons Ratio (z) = 0.23438 0.21637
#
# Static dielectric constant tensor:
#      x y z
#    x 1.855220 0.000000 0.000000 
#    y 0.000000 1.828920 0.000000 
#    z 0.000000 0.000000 1.838320 
# 
# From -- ./inp_files/40700.got.cif
#   From: 2010.05.17/outbox.cif.g08.bks.cpg/sg72_21_cif.got.tgz:40700.got - 2010.06.03 17:03:01.
