data_PCOD9525803
_publ_section_title
;
Structure prediction by ZEFSAII (Michael W. Deem and Ramdas Pophale) SiO2 
 PCOD9525803
Probable space group: I B A M
;
_chemical_formula_sum "Si O2"
_cell_formula_units_Z 64
_cell_length_a 5.260869
_cell_length_b 34.628773
_cell_length_c 14.562897
_cell_angle_alpha 90.000000
_cell_angle_beta 90.000000
_cell_angle_gamma 90.000000
_cell_volume 2653.031271
_symmetry_space_group_name_H-M "I B A M"
_symmetry_group_IT_number 72
_symmetry_cell_setting 'orthorhombic'
loop_
_space_group_symop_operation_xyz
x,y,z
-x,-y,z
x,-y,1/2-z
-x,y,1/2-z
-x,-y,-z
x,y,-z
-x,y,1/2+z
x,-y,1/2+z
1/2+x,1/2+y,1/2+z
1/2-x,1/2-y,1/2+z
1/2+x,1/2-y,-z
1/2-x,1/2+y,-z
1/2-x,1/2-y,1/2-z
1/2+x,1/2+y,1/2-z
1/2-x,1/2+y,z
1/2+x,1/2-y,z
loop_
_atom_site_type_symbol
_atom_site_label
_atom_site_fract_x
_atom_site_fract_y
_atom_site_fract_z
Si Si1 0.255643 0.524694 0.608517
Si Si2 0.472063 0.729270 0.138777
Si Si3 0.451972 0.892762 0.852864
Si Si4 0.543486 0.641693 0.361001
O O1 0.500000 0.500000 0.641109
O O2 0.298425 0.532551 0.500000
O O3 0.179150 0.565259 0.653447
O O4 0.000000 0.500000 0.617710
O O5 0.500000 0.730764 0.250000
O O6 0.250763 0.757985 0.107253
O O7 0.391246 0.685642 0.116586
O O8 0.500000 0.878076 0.750000
O O9 0.735321 0.887858 0.892271
O O10 0.234634 0.867656 0.898984
O O11 0.500000 0.638444 0.250000
#
# Coordination Sequence:
#
# PCOD9525803 Si02
#       4
#    16  16  16  16
#     4  10  21  37  55  74  98 128 164 208 252 296
#     4   9  15  23  37  59  90 128 162 191 231 284
#     4  10  19  32  49  71  99 129 159 198 248 297
#     4   9  17  28  43  66  98 130 160 198 243 288
#
# _framework density 24.123348
#
# number of rings (size 3 to 8) (size 9 to 14) (size 15 to 20)
#    0.000    2.500    0.000    3.000    0.000    6.500 
#    0.000    1.250    0.000    0.000    0.000    0.000 
#    0.000   20.000    0.000    0.000    0.000    0.000 
#
# Total GULP energy -178556.194000 kJ/mol
# GULP energy per Si atom -5579.881062 kJ/mol
# Density = 2.406844 g / cm^3
# Si number density = 24.123348 Si / 1000 Ang^3
#
#
#
# Elastic Constant Matrix: (Units=GPa)
#
#
# Indices 1 2 3 4 5 6 
#
# 1 211.3956 57.8225 14.4910 0.0000 0.0000 0.0000
# 2 57.8225 73.0788 -13.8549 0.0000 0.0000 0.0000
# 3 14.4910 -13.8549 84.2210 0.0000 0.0000 0.0000
# 4 0.0000 0.0000 0.0000 -83.3818 0.0000 0.0000
# 5 0.0000 0.0000 0.0000 0.0000 -46.9824 0.0000
# 6 0.0000 0.0000 0.0000 0.0000 0.0000 45.7536
#
#
#
# Elastic Compliance Matrix: (Units=1/GPa)
#
#
# Indices 1 2 3 4 5 6 
#
# 1 0.006341 -0.005392 -0.001978 0.000000 0.000000 0.000000
# 2 -0.005392 0.018710 0.004006 0.000000 0.000000 0.000000
# 3 -0.001978 0.004006 0.012873 0.000000 0.000000 0.000000
# 4 0.000000 0.000000 0.000000 -0.011993 0.000000 0.000000
# 5 0.000000 0.000000 0.000000 0.000000 -0.021285 0.000000
# 6 0.000000 0.000000 0.000000 0.000000 0.000000 0.021856
#
#
# Mechanical properties :
#
#
# Convention : Reuss Voigt Hill
#
# Bulk Modulus (GPa) = 32.05712 53.95698 43.00705
# Shear Modulus (GPa) = 114.60092 3.76033 59.18062
#
# Velocity S-wave (km/s) = 6.89995 1.24987 4.95840
# Velocity P-wave (km/s) = 8.76338 4.94960 7.11672
#
# Compressibility (1/GPa) = 0.03119432
#
# Stress axis : x y z
#
# Youngs Moduli (GPa) = 157.70404 53.44784 77.68304
#
# Poissons Ratio (x) = 0.28820 0.15366
# Poissons Ratio (y) = 0.85038 -0.31117
# Poissons Ratio (z) = 0.31195 -0.21409
#
# Static dielectric constant tensor:
#      x y z
#    x 1.934670 0.000000 0.000000 
#    y 0.000000 1.861910 0.000000 
#    z 0.000000 0.000000 1.973740 
# 
# From -- ./inp_files/27026.got.cif
#   From: 2010.05.17/outbox.cif.g08.bks.cpg/sg72_14_cif.got.tgz:27026.got - 2010.06.03 17:03:01.
