data_PCOD9525966
_publ_section_title
;
Structure prediction by ZEFSAII (Michael W. Deem and Ramdas Pophale) SiO2 
 PCOD9525966
Probable space group: I B A M
;
_chemical_formula_sum "Si O2"
_cell_formula_units_Z 96
_cell_length_a 23.112525
_cell_length_b 26.377316
_cell_length_c 8.675215
_cell_angle_alpha 90.000000
_cell_angle_beta 90.000000
_cell_angle_gamma 90.000000
_cell_volume 5288.813381
_symmetry_space_group_name_H-M "I B A M"
_symmetry_group_IT_number 72
_symmetry_cell_setting 'orthorhombic'
loop_
_space_group_symop_operation_xyz
x,y,z
-x,-y,z
x,-y,1/2-z
-x,y,1/2-z
-x,-y,-z
x,y,-z
-x,y,1/2+z
x,-y,1/2+z
1/2+x,1/2+y,1/2+z
1/2-x,1/2-y,1/2+z
1/2+x,1/2-y,-z
1/2-x,1/2+y,-z
1/2-x,1/2-y,1/2-z
1/2+x,1/2+y,1/2-z
1/2-x,1/2+y,z
1/2+x,1/2-y,z
loop_
_atom_site_type_symbol
_atom_site_label
_atom_site_fract_x
_atom_site_fract_y
_atom_site_fract_z
Si Si1 0.878144 0.342463 0.180710
Si Si2 0.306457 0.555446 0.184473
Si Si3 0.063928 0.242262 0.816472
Si Si4 0.138965 0.150509 0.325345
Si Si5 0.265531 0.197019 0.675477
Si Si6 0.328348 0.055444 0.813585
O O1 0.913929 0.297961 0.262804
O O2 0.811872 0.326741 0.210417
O O3 0.873911 0.400921 0.236343
O O4 0.892814 0.341373 0.000000
O O5 0.320291 0.500000 0.250000
O O6 0.352979 0.596874 0.240629
O O7 0.238997 0.565913 0.234447
O O8 0.306115 0.554782 0.000000
O O9 0.103975 0.196241 0.754336
O O10 0.000000 0.234893 0.750000
O O11 0.063664 0.240671 0.000000
O O12 0.116980 0.144152 0.500000
O O13 0.205472 0.168116 0.332916
O O14 0.289104 0.201329 0.500000
O O15 0.250000 0.250000 0.750000
O O16 0.342897 0.000000 0.750000
O O17 0.328820 0.055069 0.000000
#
# Coordination Sequence:
#
# PCOD9525966 Si02
#       6
#    16  16  16  16  16  16
#     4  11  21  36  56  82 116 151 188 232 281 339
#     4  10  19  33  52  81 118 157 193 230 277 333
#     4  12  26  43  62  83 109 146 190 239 290 341
#     4  11  22  36  56  83 116 152 189 233 281 338
#     4  11  21  31  50  80 115 150 185 226 279 341
#     4   9  19  32  51  79 116 154 188 226 272 330
#
# _framework density 18.151520000000001
#
# number of rings (size 3 to 8) (size 9 to 14) (size 15 to 20)
#    0.000    1.333    3.333    3.500    0.000    3.333 
#    0.000    0.000    0.000    1.000    0.000    7.000 
#    0.000    0.000    0.000    0.000    0.000    0.000 
#
# Total GULP energy -267584.535523 kJ/mol
# GULP energy per Si atom -5574.677823 kJ/mol
# Density = 1.811021 g / cm^3
# Si number density = 18.151520 Si / 1000 Ang^3
#
#
#
# Elastic Constant Matrix: (Units=GPa)
#
#
# Indices 1 2 3 4 5 6 
#
# 1 42.3500 13.9123 19.8232 0.0000 0.0000 0.0000
# 2 13.9123 125.1101 45.7822 0.0000 0.0000 0.0000
# 3 19.8232 45.7822 86.7168 0.0000 0.0000 0.0000
# 4 0.0000 0.0000 0.0000 27.1882 0.0000 0.0000
# 5 0.0000 0.0000 0.0000 0.0000 25.0161 0.0000
# 6 0.0000 0.0000 0.0000 0.0000 0.0000 7.3163
#
#
#
# Elastic Compliance Matrix: (Units=1/GPa)
#
#
# Indices 1 2 3 4 5 6 
#
# 1 0.026525 -0.000906 -0.005585 0.000000 0.000000 0.000000
# 2 -0.000906 0.009938 -0.005040 0.000000 0.000000 0.000000
# 3 -0.005585 -0.005040 0.015469 0.000000 0.000000 0.000000
# 4 0.000000 0.000000 0.000000 0.036781 0.000000 0.000000
# 5 0.000000 0.000000 0.000000 0.000000 0.039974 0.000000
# 6 0.000000 0.000000 0.000000 0.000000 0.000000 0.136681
#
#
# Mechanical properties :
#
#
# Convention : Reuss Voigt Hill
#
# Bulk Modulus (GPa) = 34.63747 45.91249 40.27498
# Shear Modulus (GPa) = 16.77555 23.54806 20.16181
#
# Velocity S-wave (km/s) = 3.04336 3.60572 3.33641
# Velocity P-wave (km/s) = 5.61010 6.53329 6.08921
#
# Compressibility (1/GPa) = 0.02887047
#
# Stress axis : x y z
#
# Youngs Moduli (GPa) = 37.70077 100.62524 64.64434
#
# Poissons Ratio (x) = 0.09114 0.36106
# Poissons Ratio (y) = 0.03415 0.32579
# Poissons Ratio (z) = 0.21057 0.50712
#
# Static dielectric constant tensor:
#      x y z
#    x 1.611630 0.000000 0.000000 
#    y 0.000000 1.678620 0.000000 
#    z 0.000000 0.000000 1.650840 
# 
# From -- ./inp_files/6023.got.cif
#   From: 2010.05.17/outbox.cif.g08.bks.cpg/sg72_4_cif.got.tgz:6023.got - 2010.06.03 17:03:01.
