data_PCOD9525771
_publ_section_title
;
Structure prediction by ZEFSAII (Michael W. Deem and Ramdas Pophale) SiO2 
 PCOD9525771
Probable space group: I B A M
;
_chemical_formula_sum "Si O2"
_cell_formula_units_Z 88
_cell_length_a 14.906468
_cell_length_b 23.836387
_cell_length_c 14.441521
_cell_angle_alpha 90.000000
_cell_angle_beta 90.000000
_cell_angle_gamma 90.000000
_cell_volume 5131.308386
_symmetry_space_group_name_H-M "I B A M"
_symmetry_group_IT_number 72
_symmetry_cell_setting 'orthorhombic'
loop_
_space_group_symop_operation_xyz
x,y,z
-x,-y,z
x,-y,1/2-z
-x,y,1/2-z
-x,-y,-z
x,y,-z
-x,y,1/2+z
x,-y,1/2+z
1/2+x,1/2+y,1/2+z
1/2-x,1/2-y,1/2+z
1/2+x,1/2-y,-z
1/2-x,1/2+y,-z
1/2-x,1/2-y,1/2-z
1/2+x,1/2+y,1/2-z
1/2-x,1/2+y,z
1/2+x,1/2-y,z
loop_
_atom_site_type_symbol
_atom_site_label
_atom_site_fract_x
_atom_site_fract_y
_atom_site_fract_z
Si Si1 0.210694 0.842556 0.500000
Si Si2 0.496423 0.675031 0.000000
Si Si3 0.506139 0.102394 0.360926
Si Si4 0.230951 0.743584 0.358158
Si Si5 0.688706 0.659248 0.000000
Si Si6 0.650029 0.071889 0.000000
Si Si7 0.523053 0.771957 0.355976
Si Si8 0.649682 0.057632 0.500000
O O1 0.234037 0.802926 0.411887
O O2 0.268827 0.898550 0.500000
O O3 0.102704 0.851664 0.500000
O O4 0.502412 0.718143 0.914539
O O5 0.586221 0.638497 0.000000
O O6 0.500000 0.095526 0.250000
O O7 0.414419 0.084446 0.411916
O O8 0.520686 0.168687 0.382025
O O9 0.586111 0.069378 0.410920
O O10 0.250000 0.750000 0.250000
O O11 0.293368 0.699603 0.411605
O O12 0.129532 0.721318 0.369405
O O13 0.763694 0.611498 0.000000
O O14 0.676771 0.006971 0.000000
O O15 0.500000 0.761736 0.250000
#
# Coordination Sequence:
#
# PCOD9525771 Si02
#       8
#     8   8  16  16   8   8  16   8
#     4   9  23  36  52  80 105 139 185 223 266 317
#     4  10  20  36  51  74 111 140 172 220 272 314
#     4  10  21  35  56  82 113 145 178 216 266 327
#     4  10  20  33  54  80 110 138 175 217 269 329
#     4  11  21  34  56  76 107 145 177 223 270 315
#     4  11  22  40  51  81 111 143 192 221 266 318
#     4  10  19  31  51  82 111 136 171 211 259 332
#     4  11  24  36  57  75 111 149 182 233 264 312
#
# _framework density 17.149622000000001
#
# number of rings (size 3 to 8) (size 9 to 14) (size 15 to 20)
#    0.000    1.818    1.818    3.818   10.182    1.455 
#    0.000    0.455    0.000    0.000    0.000    0.000 
#    0.000    7.273    0.000    0.000    0.000    0.000 
#
# Total GULP energy -245590.447241 kJ/mol
# GULP energy per Si atom -5581.601074 kJ/mol
# Density = 1.711059 g / cm^3
# Si number density = 17.149622 Si / 1000 Ang^3
#
#
#
# Elastic Constant Matrix: (Units=GPa)
#
#
# Indices 1 2 3 4 5 6 
#
# 1 127.6765 55.2426 29.9178 0.0000 0.0000 0.0000
# 2 55.2426 90.8201 34.0041 0.0000 0.0000 0.0000
# 3 29.9178 34.0041 113.8048 0.0000 0.0000 0.0000
# 4 0.0000 0.0000 0.0000 57.6855 0.0000 0.0000
# 5 0.0000 0.0000 0.0000 0.0000 16.1047 0.0000
# 6 0.0000 0.0000 0.0000 0.0000 0.0000 22.2759
#
#
#
# Elastic Compliance Matrix: (Units=1/GPa)
#
#
# Indices 1 2 3 4 5 6 
#
# 1 0.010726 -0.006157 -0.000980 0.000000 0.000000 0.000000
# 2 -0.006157 0.015932 -0.003142 0.000000 0.000000 0.000000
# 3 -0.000980 -0.003142 0.009983 0.000000 0.000000 0.000000
# 4 0.000000 0.000000 0.000000 0.017335 0.000000 0.000000
# 5 0.000000 0.000000 0.000000 0.000000 0.062094 0.000000
# 6 0.000000 0.000000 0.000000 0.000000 0.000000 0.044892
#
#
# Mechanical properties :
#
#
# Convention : Reuss Voigt Hill
#
# Bulk Modulus (GPa) = 62.17533 63.40339 62.78936
# Shear Modulus (GPa) = 26.75485 33.42235 30.08860
#
# Velocity S-wave (km/s) = 3.95408 4.41939 4.19319
# Velocity P-wave (km/s) = 7.56172 7.94307 7.75474
#
# Compressibility (1/GPa) = 0.01608355
#
# Stress axis : x y z
#
# Youngs Moduli (GPa) = 93.23076 62.76514 100.16686
#
# Poissons Ratio (x) = 0.38647 0.09816
# Poissons Ratio (y) = 0.57406 0.31470
# Poissons Ratio (z) = 0.09136 0.19720
#
# Static dielectric constant tensor:
#      x y z
#    x 1.608210 0.000000 0.000000 
#    y 0.000000 1.555160 0.000000 
#    z 0.000000 0.000000 1.420070 
# 
# From -- ./inp_files/21754.got.cif
#   From: 2010.05.17/outbox.cif.g08.bks.cpg/sg72_11_cif.got.tgz:21754.got - 2010.06.03 17:03:01.
