data_PCOD9525672
_publ_section_title
;
Structure prediction by ZEFSAII (Michael W. Deem and Ramdas Pophale) SiO2 
 PCOD9525672
Probable space group: I B A M
;
_chemical_formula_sum "Si O2"
_cell_formula_units_Z 112
_cell_length_a 14.074309
_cell_length_b 33.536083
_cell_length_c 14.367416
_cell_angle_alpha 90.000000
_cell_angle_beta 90.000000
_cell_angle_gamma 90.000000
_cell_volume 6781.380048
_symmetry_space_group_name_H-M "I B A M"
_symmetry_group_IT_number 72
_symmetry_cell_setting 'orthorhombic'
loop_
_space_group_symop_operation_xyz
x,y,z
-x,-y,z
x,-y,1/2-z
-x,y,1/2-z
-x,-y,-z
x,y,-z
-x,y,1/2+z
x,-y,1/2+z
1/2+x,1/2+y,1/2+z
1/2-x,1/2-y,1/2+z
1/2+x,1/2-y,-z
1/2-x,1/2+y,-z
1/2-x,1/2-y,1/2-z
1/2+x,1/2+y,1/2-z
1/2-x,1/2+y,z
1/2+x,1/2-y,z
loop_
_atom_site_type_symbol
_atom_site_label
_atom_site_fract_x
_atom_site_fract_y
_atom_site_fract_z
Si Si1 0.160997 0.750198 0.389194
Si Si2 0.162704 0.396031 0.740061
Si Si3 0.462520 0.790303 0.606889
Si Si4 0.840738 0.047968 0.251205
Si Si5 0.008509 0.383285 0.107835
Si Si6 0.502847 0.451617 0.604470
Si Si7 0.219051 0.304841 0.269273
O O1 0.181440 0.751379 0.500000
O O2 0.216751 0.715300 0.332625
O O3 0.194837 0.789310 0.333371
O O4 0.049241 0.740006 0.378995
O O5 0.242295 0.429459 0.741089
O O6 0.089114 0.398443 0.654056
O O7 0.209989 0.352210 0.736088
O O8 0.096443 0.397987 0.831248
O O9 0.428213 0.786570 0.500000
O O10 0.505009 0.835031 0.616880
O O11 0.375842 0.788474 0.678167
O O12 0.910441 0.059534 0.336148
O O13 0.901709 0.059235 0.159762
O O14 0.828800 0.000000 0.250000
O O15 0.015525 0.393539 0.000000
O O16 0.500000 0.500000 0.602494
O O17 0.501148 0.436337 0.500000
#
# Coordination Sequence:
#
# PCOD9525672 Si02
#       7
#    16  16  16  16  16  16  16
#     4  10  19  30  48  72  95 121 162 208 249 293
#     4  10  19  32  52  75 101 134 170 210 256 299
#     4   9  16  30  51  69  91 124 165 205 242 291
#     4   9  18  32  53  79 104 132 168 209 250 298
#     4   9  18  32  49  72  99 133 175 211 246 297
#     4   8  15  31  54  77  99 127 166 205 244 297
#     4  10  19  31  49  72  96 127 164 205 249 296
#
# _framework density 16.515812
#
# number of rings (size 3 to 8) (size 9 to 14) (size 15 to 20)
#    0.000    2.714    1.429    1.714    0.000    1.714 
#    0.000    1.429   12.571    0.857    0.000    0.000 
#    0.000    0.000    0.000    0.000    0.000    0.000 
#
# Total GULP energy -312019.957400 kJ/mol
# GULP energy per Si atom -5571.784954 kJ/mol
# Density = 1.647822 g / cm^3
# Si number density = 16.515812 Si / 1000 Ang^3
#
#
#
# Elastic Constant Matrix: (Units=GPa)
#
#
# Indices 1 2 3 4 5 6 
#
# 1 99.5196 48.8350 47.4740 -0.0002 0.0000 0.0000
# 2 48.8350 49.5583 30.3054 0.0000 0.0000 0.0000
# 3 47.4740 30.3054 122.0667 -0.0008 0.0000 -0.0002
# 4 -0.0002 0.0000 -0.0008 14.0216 0.0000 0.0000
# 5 0.0000 0.0000 0.0000 0.0000 13.0030 -0.0001
# 6 0.0000 0.0000 -0.0002 0.0000 -0.0001 35.1829
#
#
#
# Elastic Compliance Matrix: (Units=1/GPa)
#
#
# Indices 1 2 3 4 5 6 
#
# 1 0.020660 -0.018210 -0.003514 0.000000 0.000000 0.000000
# 2 -0.018210 0.039840 -0.002809 0.000000 0.000000 0.000000
# 3 -0.003514 -0.002809 0.010256 0.000001 0.000000 0.000000
# 4 0.000000 0.000000 0.000001 0.071318 0.000000 0.000000
# 5 0.000000 0.000000 0.000000 0.000000 0.076906 0.000000
# 6 0.000000 0.000000 0.000000 0.000000 0.000000 0.028423
#
#
# Mechanical properties :
#
#
# Convention : Reuss Voigt Hill
#
# Bulk Modulus (GPa) = 46.10261 58.26370 52.18316
# Shear Modulus (GPa) = 16.46362 22.07684 19.27023
#
# Velocity S-wave (km/s) = 3.16070 3.66007 3.41951
# Velocity P-wave (km/s) = 6.42611 7.29490 6.87424
#
# Compressibility (1/GPa) = 0.02169074
#
# Stress axis : x y z
#
# Youngs Moduli (GPa) = 48.40175 25.10040 97.50035
#
# Poissons Ratio (x) = 0.45707 0.34264
# Poissons Ratio (y) = 0.88139 0.27387
# Poissons Ratio (z) = 0.17010 0.07050
#
# Static dielectric constant tensor:
#      x y z
#    x 1.549040 0.000000 0.000000 
#    y 0.000000 1.539190 0.000000 
#    z 0.000000 0.000000 1.584770 
# 
# From -- ./inp_files/22423.got.cif
#   From: 2010.05.17/outbox.cif.g08.bks.cpg/sg72_12_cif.got.tgz:22423.got - 2010.06.03 17:03:01.
