data_PCOD9525256
_publ_section_title
;
Structure prediction by ZEFSAII (Michael W. Deem and Ramdas Pophale) SiO2 
 PCOD9525256
Probable space group: I B A M
;
_chemical_formula_sum "Si O2"
_cell_formula_units_Z 116
_cell_length_a 27.182109
_cell_length_b 27.184367
_cell_length_c 9.043271
_cell_angle_alpha 90.000000
_cell_angle_beta 90.000000
_cell_angle_gamma 90.000000
_cell_volume 6682.330014
_symmetry_space_group_name_H-M "I B A M"
_symmetry_group_IT_number 72
_symmetry_cell_setting 'orthorhombic'
loop_
_space_group_symop_operation_xyz
x,y,z
-x,-y,z
x,-y,1/2-z
-x,y,1/2-z
-x,-y,-z
x,y,-z
-x,y,1/2+z
x,-y,1/2+z
1/2+x,1/2+y,1/2+z
1/2-x,1/2-y,1/2+z
1/2+x,1/2-y,-z
1/2-x,1/2+y,-z
1/2-x,1/2-y,1/2-z
1/2+x,1/2+y,1/2-z
1/2-x,1/2+y,z
1/2+x,1/2-y,z
loop_
_atom_site_type_symbol
_atom_site_label
_atom_site_fract_x
_atom_site_fract_y
_atom_site_fract_z
Si Si1 0.052056 0.321311 0.323840
Si Si2 0.581476 0.923171 0.667987
Si Si3 0.873037 0.248867 0.328785
Si Si4 0.821082 0.423006 0.823760
Si Si5 0.813971 0.841436 0.178313
Si Si6 0.788350 0.325821 0.328468
Si Si7 0.209596 0.950802 0.323736
Si Si8 0.500000 0.000000 0.250000
O O1 0.048627 0.323725 0.500000
O O2 0.066881 0.375144 0.261938
O O3 0.090487 0.279944 0.272002
O O4 0.000000 0.309390 0.250000
O O5 0.591104 0.907518 0.500000
O O6 0.631708 0.943520 0.739036
O O7 0.537624 0.962912 0.669037
O O8 0.890112 0.250967 0.500000
O O9 0.860569 0.192765 0.287246
O O10 0.820611 0.276884 0.323764
O O11 0.815894 0.366645 0.769994
O O12 0.767685 0.445035 0.784591
O O13 0.827825 0.426125 0.000000
O O14 0.765893 0.821500 0.262139
O O15 0.816282 0.899280 0.216819
O O16 0.805727 0.838312 0.000000
O O17 0.786048 0.342133 0.500000
O O18 0.207198 0.955565 0.500000
O O19 0.189895 0.000000 0.250000
#
# Coordination Sequence:
#
# PCOD9525256 Si02
#       8
#    16  16  16  16  16  16  16   4
#     4  12  25  41  62  82 106 139 177 222 276 332
#     4  12  25  42  60  77 100 132 178 231 286 334
#     4  10  20  35  55  79 108 141 176 218 271 325
#     4  10  21  36  53  74 101 136 178 224 274 326
#     4   9  19  34  51  75 110 145 178 219 264 319
#     4  10  18  29  50  78 106 138 174 216 266 323
#     4   9  19  34  51  74 105 143 180 216 260 309
#     4  12  30  44  60  78 102 132 182 240 296 336
#
# _framework density 17.359214999999999
#
# number of rings (size 3 to 8) (size 9 to 14) (size 15 to 20)
#    0.000    1.655    2.069    3.931    0.966    5.517 
#    0.000    0.000    0.000    0.000    0.000    0.000 
#    0.000    0.552    0.000    6.345    0.000    1.931 
#
# Total GULP energy -323718.274554 kJ/mol
# GULP energy per Si atom -5581.349561 kJ/mol
# Density = 1.731970 g / cm^3
# Si number density = 17.359215 Si / 1000 Ang^3
#
#
#
# Elastic Constant Matrix: (Units=GPa)
#
#
# Indices 1 2 3 4 5 6 
#
# 1 51.8079 44.9328 35.6899 0.0000 0.0000 0.0000
# 2 44.9328 115.9377 46.9743 0.0000 0.0000 0.0000
# 3 35.6899 46.9743 86.8917 0.0000 0.0000 0.0000
# 4 0.0000 0.0000 0.0000 36.5254 0.0000 0.0000
# 5 0.0000 0.0000 0.0000 0.0000 10.2797 0.0000
# 6 0.0000 0.0000 0.0000 0.0000 0.0000 18.8624
#
#
#
# Elastic Compliance Matrix: (Units=1/GPa)
#
#
# Indices 1 2 3 4 5 6 
#
# 1 0.033457 -0.009474 -0.008621 0.000000 0.000000 0.000000
# 2 -0.009474 0.013727 -0.003530 0.000000 0.000000 0.000000
# 3 -0.008621 -0.003530 0.016958 0.000000 0.000000 0.000000
# 4 0.000000 0.000000 0.000000 0.027378 0.000000 0.000000
# 5 0.000000 0.000000 0.000000 0.000000 0.097279 0.000000
# 6 0.000000 0.000000 0.000000 0.000000 0.000000 0.053016
#
#
# Mechanical properties :
#
#
# Convention : Reuss Voigt Hill
#
# Bulk Modulus (GPa) = 47.86133 56.64791 52.25462
# Shear Modulus (GPa) = 17.12164 21.60285 19.36225
#
# Velocity S-wave (km/s) = 3.14397 3.53152 3.34336
# Velocity P-wave (km/s) = 6.38830 7.02370 6.71352
#
# Compressibility (1/GPa) = 0.02089369
#
# Stress axis : x y z
#
# Youngs Moduli (GPa) = 29.88870 72.84824 58.97069
#
# Poissons Ratio (x) = 0.69016 0.50836
# Poissons Ratio (y) = 0.28316 0.20815
# Poissons Ratio (z) = 0.25766 0.25713
#
# Static dielectric constant tensor:
#      x y z
#    x 1.595790 0.000000 0.000000 
#    y 0.000000 1.631330 0.000000 
#    z 0.000000 0.000000 1.588950 
# 
# From -- ./inp_files/9498.got.cif
#   From: 2010.05.17/outbox.cif.g08.bks.cpg/sg72_5_cif.got.tgz:9498.got - 2010.06.03 17:03:01.
