data_PCOD9525690
_publ_section_title
;
Structure prediction by ZEFSAII (Michael W. Deem and Ramdas Pophale) SiO2 
 PCOD9525690
Probable space group: I B A M
;
_chemical_formula_sum "Si O2"
_cell_formula_units_Z 84
_cell_length_a 13.181861
_cell_length_b 21.238537
_cell_length_c 13.383596
_cell_angle_alpha 90.000000
_cell_angle_beta 90.000000
_cell_angle_gamma 90.000000
_cell_volume 3746.917610
_symmetry_space_group_name_H-M "I B A M"
_symmetry_group_IT_number 72
_symmetry_cell_setting 'orthorhombic'
loop_
_space_group_symop_operation_xyz
x,y,z
-x,-y,z
x,-y,1/2-z
-x,y,1/2-z
-x,-y,-z
x,y,-z
-x,y,1/2+z
x,-y,1/2+z
1/2+x,1/2+y,1/2+z
1/2-x,1/2-y,1/2+z
1/2+x,1/2-y,-z
1/2-x,1/2+y,-z
1/2-x,1/2-y,1/2-z
1/2+x,1/2+y,1/2-z
1/2-x,1/2+y,z
1/2+x,1/2-y,z
loop_
_atom_site_type_symbol
_atom_site_label
_atom_site_fract_x
_atom_site_fract_y
_atom_site_fract_z
Si Si1 0.852908 0.854632 0.180806
Si Si2 0.000000 0.000000 0.250000
Si Si3 0.072278 0.192527 0.617710
Si Si4 0.637067 0.828869 0.118359
Si Si5 0.326173 0.500732 0.383553
Si Si6 0.107487 0.469929 0.620897
O O1 0.858552 0.842686 0.300045
O O2 0.755405 0.818281 0.140393
O O3 0.840544 0.926349 0.141617
O O4 0.958100 0.830687 0.135304
O O5 0.080227 0.967852 0.175191
O O6 0.100267 0.185020 0.500000
O O7 0.077747 0.266344 0.647399
O O8 0.611946 0.898189 0.160904
O O9 0.622351 0.834188 0.000000
O O10 0.338528 0.512728 0.500000
O O11 0.208540 0.510781 0.354096
O O12 0.113497 0.466237 0.500000
O O13 0.000000 0.500000 0.645191
#
# Coordination Sequence:
#
# PCOD9525690 Si02
#       6
#    16   4  16  16  16  16
#     4  10  19  34  55  77 109 150 191 229 287 352
#     4  12  22  36  58  86 120 148 190 234 294 358
#     4  10  19  30  50  80 115 150 187 237 289 344
#     4   9  17  30  53  83 112 149 190 234 290 348
#     4  10  21  37  60  86 113 152 194 242 295 353
#     4   8  15  32  60  85 110 150 198 243 292 348
#
# _framework density 22.418427000000001
#
# number of rings (size 3 to 8) (size 9 to 14) (size 15 to 20)
#    0.000    2.476    0.000    4.857    0.000    0.000 
#    0.000    1.429   25.143    0.000    0.000    0.000 
#    0.000   18.286    0.000    0.000    0.000    0.000 
#
# Total GULP energy -234227.041148 kJ/mol
# GULP energy per Si atom -5576.834313 kJ/mol
# Density = 2.236740 g / cm^3
# Si number density = 22.418427 Si / 1000 Ang^3
#
#
#
# Elastic Constant Matrix: (Units=GPa)
#
#
# Indices 1 2 3 4 5 6 
#
# 1 99.2477 22.1358 -51.1965 0.0001 0.0000 0.0000
# 2 22.1358 62.2332 -14.1622 0.0000 0.0000 0.0000
# 3 -51.1965 -14.1622 64.4938 0.0001 0.0001 0.0000
# 4 0.0001 0.0000 0.0001 20.5001 0.0000 0.0000
# 5 0.0000 0.0000 0.0001 0.0000 -1.1199 0.0000
# 6 0.0000 0.0000 0.0000 0.0000 0.0000 27.0891
#
#
#
# Elastic Compliance Matrix: (Units=1/GPa)
#
#
# Indices 1 2 3 4 5 6 
#
# 1 0.017668 -0.003255 0.013310 0.000000 0.000002 0.000000
# 2 -0.003255 0.017514 0.001262 0.000000 0.000001 0.000000
# 3 0.013310 0.001262 0.026348 0.000000 0.000004 0.000000
# 4 0.000000 0.000000 0.000000 0.048780 0.000002 0.000000
# 5 0.000002 0.000001 0.000004 0.000002 -0.892965 0.000000
# 6 0.000000 0.000000 0.000000 0.000000 0.000000 0.036915
#
#
# Mechanical properties :
#
#
# Convention : Reuss Voigt Hill
#
# Bulk Modulus (GPa) = 11.88165 15.50320 13.69242
# Shear Modulus (GPa) = -6.75385 27.24037 10.24326
#
# Velocity S-wave (km/s) = -1.73758 3.48959 2.13987
# Velocity P-wave (km/s) = 1.13397 4.81318 3.49662
#
# Compressibility (1/GPa) = 0.08416342
#
# Stress axis : x y z
#
# Youngs Moduli (GPa) = 56.59962 57.09851 37.95284
#
# Poissons Ratio (x) = 0.18588 -0.50517
# Poissons Ratio (y) = 0.18425 -0.04788
# Poissons Ratio (z) = -0.75336 -0.07204
#
# Static dielectric constant tensor:
#      x y z
#    x 1.839050 0.000000 0.000000 
#    y 0.000000 1.910030 0.000000 
#    z 0.000000 0.000000 1.872900 
# 
# From -- ./inp_files/20298.got.cif
#   From: 2010.05.17/outbox.cif.g08.bks.cpg/sg72_11_cif.got.tgz:20298.got - 2010.06.03 17:03:01.
