data_PCOD9525810
_publ_section_title
;
Structure prediction by ZEFSAII (Michael W. Deem and Ramdas Pophale) SiO2 
 PCOD9525810
Probable space group: I B A M
;
_chemical_formula_sum "Si O2"
_cell_formula_units_Z 104
_cell_length_a 24.169188
_cell_length_b 25.971838
_cell_length_c 9.068188
_cell_angle_alpha 90.000000
_cell_angle_beta 90.000000
_cell_angle_gamma 90.000000
_cell_volume 5692.266969
_symmetry_space_group_name_H-M "I B A M"
_symmetry_group_IT_number 72
_symmetry_cell_setting 'orthorhombic'
loop_
_space_group_symop_operation_xyz
x,y,z
-x,-y,z
x,-y,1/2-z
-x,y,1/2-z
-x,-y,-z
x,y,-z
-x,y,1/2+z
x,-y,1/2+z
1/2+x,1/2+y,1/2+z
1/2-x,1/2-y,1/2+z
1/2+x,1/2-y,-z
1/2-x,1/2+y,-z
1/2-x,1/2-y,1/2-z
1/2+x,1/2+y,1/2-z
1/2-x,1/2+y,z
1/2+x,1/2-y,z
loop_
_atom_site_type_symbol
_atom_site_label
_atom_site_fract_x
_atom_site_fract_y
_atom_site_fract_z
Si Si1 0.059069 0.254222 0.323189
Si Si2 0.877399 0.834669 0.821731
Si Si3 0.220164 0.904877 0.330022
Si Si4 0.144732 0.000000 0.250000
Si Si5 0.942289 0.624891 0.324163
Si Si6 0.053975 0.922418 0.165747
Si Si7 0.162823 0.443774 0.679671
O O1 0.056930 0.246786 0.500000
O O2 0.106126 0.219215 0.250149
O O3 0.068103 0.314757 0.291766
O O4 0.000000 0.240110 0.250000
O O5 0.818884 0.859418 0.770079
O O6 0.922304 0.875421 0.761595
O O7 0.878684 0.832678 0.000000
O O8 0.229428 0.891299 0.500000
O O9 0.280334 0.916787 0.266174
O O10 0.184345 0.957660 0.324205
O O11 0.102103 0.034884 0.341664
O O12 0.948619 0.620532 0.500000
O O13 0.890492 0.590021 0.279889
O O14 0.000000 0.609586 0.250000
O O15 0.000000 0.941860 0.250000
O O16 0.040130 0.905866 0.000000
O O17 0.159491 0.500000 0.750000
O O18 0.165112 0.447961 0.500000
#
# Coordination Sequence:
#
# PCOD9525810 Si02
#       7
#    16  16  16   8  16  16  16
#     4  10  19  34  55  79 106 141 181 223 270 322
#     4  10  20  34  52  75 104 140 179 223 269 315
#     4   9  18  33  52  74 103 138 177 217 264 315
#     4  10  19  32  50  70  95 134 176 224 268 312
#     4   9  20  37  59  84 113 143 174 215 266 322
#     4  11  22  33  47  69 100 136 178 225 273 321
#     4  10  20  37  59  84 111 143 179 218 264 318
#
# _framework density 18.270399000000001
#
# number of rings (size 3 to 8) (size 9 to 14) (size 15 to 20)
#    0.000    2.154    0.769    2.538    0.000    4.000 
#    0.000    3.077    0.000    0.000    0.000    0.000 
#    0.000    0.000    0.000    0.000    0.000    0.000 
#
# Total GULP energy -289888.658453 kJ/mol
# GULP energy per Si atom -5574.781893 kJ/mol
# Density = 1.822882 g / cm^3
# Si number density = 18.270399 Si / 1000 Ang^3
#
#
#
# Elastic Constant Matrix: (Units=GPa)
#
#
# Indices 1 2 3 4 5 6 
#
# 1 166.6259 83.5413 40.7902 0.0000 0.0000 0.0000
# 2 83.5413 79.2191 31.2597 0.0000 0.0000 0.0000
# 3 40.7902 31.2597 59.8808 0.0000 0.0000 0.0000
# 4 0.0000 0.0000 0.0000 12.2611 0.0000 0.0000
# 5 0.0000 0.0000 0.0000 0.0000 20.9639 0.0000
# 6 0.0000 0.0000 0.0000 0.0000 0.0000 26.7451
#
#
#
# Elastic Compliance Matrix: (Units=1/GPa)
#
#
# Indices 1 2 3 4 5 6 
#
# 1 0.012947 -0.012812 -0.002131 0.000000 0.000000 0.000000
# 2 -0.012812 0.028578 -0.006191 0.000000 0.000000 0.000000
# 3 -0.002131 -0.006191 0.021383 0.000000 0.000000 0.000000
# 4 0.000000 0.000000 0.000000 0.081559 0.000000 0.000000
# 5 0.000000 0.000000 0.000000 0.000000 0.047701 0.000000
# 6 0.000000 0.000000 0.000000 0.000000 0.000000 0.037390
#
#
# Mechanical properties :
#
#
# Convention : Reuss Voigt Hill
#
# Bulk Modulus (GPa) = 48.45041 68.54536 58.49789
# Shear Modulus (GPa) = 17.94012 22.00300 19.97156
#
# Velocity S-wave (km/s) = 3.13696 3.47406 3.30981
# Velocity P-wave (km/s) = 6.30054 7.32740 6.83329
#
# Compressibility (1/GPa) = 0.02063966
#
# Stress axis : x y z
#
# Youngs Moduli (GPa) = 77.23869 34.99247 46.76602
#
# Poissons Ratio (x) = 0.44834 0.09965
# Poissons Ratio (y) = 0.98962 0.28951
# Poissons Ratio (z) = 0.16458 0.21663
#
# Static dielectric constant tensor:
#      x y z
#    x 1.643130 0.000000 0.000000 
#    y 0.000000 1.627260 0.000000 
#    z 0.000000 0.000000 1.618360 
# 
# From -- ./inp_files/7204.got.cif
#   From: 2010.05.17/outbox.cif.g08.bks.cpg/sg72_4_cif.got.tgz:7204.got - 2010.06.03 17:03:01.
