data_PCOD9525191
_publ_section_title
;
Structure prediction by ZEFSAII (Michael W. Deem and Ramdas Pophale) SiO2 
 PCOD9525191
Probable space group: I B A M
;
_chemical_formula_sum "Si O2"
_cell_formula_units_Z 84
_cell_length_a 33.260022
_cell_length_b 8.097905
_cell_length_c 14.261266
_cell_angle_alpha 90.000000
_cell_angle_beta 90.000000
_cell_angle_gamma 90.000000
_cell_volume 3841.079448
_symmetry_space_group_name_H-M "I B A M"
_symmetry_group_IT_number 72
_symmetry_cell_setting 'orthorhombic'
loop_
_space_group_symop_operation_xyz
x,y,z
-x,-y,z
x,-y,1/2-z
-x,y,1/2-z
-x,-y,-z
x,y,-z
-x,y,1/2+z
x,-y,1/2+z
1/2+x,1/2+y,1/2+z
1/2-x,1/2-y,1/2+z
1/2+x,1/2-y,-z
1/2-x,1/2+y,-z
1/2-x,1/2-y,1/2-z
1/2+x,1/2+y,1/2-z
1/2-x,1/2+y,z
1/2+x,1/2-y,z
loop_
_atom_site_type_symbol
_atom_site_label
_atom_site_fract_x
_atom_site_fract_y
_atom_site_fract_z
Si Si1 0.000000 0.500000 0.500000
Si Si2 0.267259 0.063613 0.644862
Si Si3 0.377027 0.258170 0.711131
Si Si4 0.149648 0.577917 0.894752
Si Si5 0.189628 0.094245 0.894407
Si Si6 0.463050 0.834112 0.810525
O O1 0.976744 0.392471 0.414296
O O2 0.302264 0.950204 0.600892
O O3 0.221883 0.051364 0.609079
O O4 0.266014 0.000000 0.750000
O O5 0.283435 0.248139 0.635443
O O6 0.363962 0.209093 0.816579
O O7 0.349026 0.400234 0.669890
O O8 0.424157 0.280697 0.696010
O O9 0.366461 0.096113 0.646958
O O10 0.134628 0.610527 0.000000
O O11 0.175984 0.118319 0.000000
O O12 0.500000 0.763331 0.750000
O O13 0.451787 0.000000 0.750000
#
# Coordination Sequence:
#
# PCOD9525191 Si02
#       6
#     4  16  16  16  16  16
#     4   8  18  24  44  58  92 128 162 206 252 306
#     4  11  20  36  51  72 102 141 179 223 263 303
#     4  10  18  30  45  68  95 131 171 214 257 309
#     4  10  18  28  45  64  93 130 171 211 253 302
#     4  11  22  35  54  76 104 143 182 217 261 313
#     4   9  17  28  39  65  93 126 166 206 254 318
#
# _framework density 21.868852
#
# number of rings (size 3 to 8) (size 9 to 14) (size 15 to 20)
#    0.000    2.095    5.714    4.000    2.667    0.000 
#    0.000    0.000    0.000    0.000    0.000    0.000 
#    0.000    0.762    0.000    2.286    0.762    0.762 
#
# Total GULP energy -233957.987788 kJ/mol
# GULP energy per Si atom -5570.428281 kJ/mol
# Density = 2.181908 g / cm^3
# Si number density = 21.868852 Si / 1000 Ang^3
#
#
#
# Elastic Constant Matrix: (Units=GPa)
#
#
# Indices 1 2 3 4 5 6 
#
# 1 174.7119 24.6226 44.5987 0.0000 0.0000 0.0000
# 2 24.6226 43.3762 13.8915 0.0000 0.0000 0.0000
# 3 44.5987 13.8915 222.6020 0.0000 0.0000 0.0000
# 4 0.0000 0.0000 0.0000 -4.6545 0.0000 0.0000
# 5 0.0000 0.0000 0.0000 0.0000 -6.5119 0.0000
# 6 0.0000 0.0000 0.0000 0.0000 0.0000 4.7002
#
#
#
# Elastic Compliance Matrix: (Units=1/GPa)
#
#
# Indices 1 2 3 4 5 6 
#
# 1 0.006470 -0.003324 -0.001089 0.000000 0.000000 0.000000
# 2 -0.003324 0.025232 -0.000909 0.000000 0.000000 0.000000
# 3 -0.001089 -0.000909 0.004767 0.000000 0.000000 0.000000
# 4 0.000000 0.000000 0.000000 -0.214846 0.000000 0.000000
# 5 0.000000 0.000000 0.000000 0.000000 -0.153566 0.000000
# 6 0.000000 0.000000 0.000000 0.000000 0.000000 0.212757
#
#
# Mechanical properties :
#
#
# Convention : Reuss Voigt Hill
#
# Bulk Modulus (GPa) = 38.72035 67.43508 53.07771
# Shear Modulus (GPa) = -50.03323 22.54525 -13.74399
#
# Velocity S-wave (km/s) = -4.78836 3.21429 -2.50966
# Velocity P-wave (km/s) = 3.58149 6.68421 3.99071
#
# Compressibility (1/GPa) = 0.02582622
#
# Stress axis : x y z
#
# Youngs Moduli (GPa) = 154.55626 39.63219 209.76752
#
# Poissons Ratio (x) = 0.13174 0.22841
# Poissons Ratio (y) = 0.51376 0.19060
# Poissons Ratio (z) = 0.16829 0.03601
#
# Static dielectric constant tensor:
#      x y z
#    x 1.876340 0.000000 0.000000 
#    y 0.000000 1.861530 0.000000 
#    z 0.000000 0.000000 1.812680 
# 
# From -- ./inp_files/26266.got.cif
#   From: 2010.05.17/outbox.cif.g08.bks.cpg/sg72_14_cif.got.tgz:26266.got - 2010.06.03 17:03:01.
