data_PCOD9525318
_publ_section_title
;
Structure prediction by ZEFSAII (Michael W. Deem and Ramdas Pophale) SiO2 
 PCOD9525318
Probable space group: I B A M
;
_chemical_formula_sum "Si O2"
_cell_formula_units_Z 80
_cell_length_a 18.211375
_cell_length_b 15.762924
_cell_length_c 14.263238
_cell_angle_alpha 90.000000
_cell_angle_beta 90.000000
_cell_angle_gamma 90.000000
_cell_volume 4094.469571
_symmetry_space_group_name_H-M "I B A M"
_symmetry_group_IT_number 72
_symmetry_cell_setting 'orthorhombic'
loop_
_space_group_symop_operation_xyz
x,y,z
-x,-y,z
x,-y,1/2-z
-x,y,1/2-z
-x,-y,-z
x,y,-z
-x,y,1/2+z
x,-y,1/2+z
1/2+x,1/2+y,1/2+z
1/2-x,1/2-y,1/2+z
1/2+x,1/2-y,-z
1/2-x,1/2+y,-z
1/2-x,1/2-y,1/2-z
1/2+x,1/2+y,1/2-z
1/2-x,1/2+y,z
1/2+x,1/2-y,z
loop_
_atom_site_type_symbol
_atom_site_label
_atom_site_fract_x
_atom_site_fract_y
_atom_site_fract_z
Si Si1 0.689936 0.092957 0.389057
Si Si2 0.396087 0.272357 0.890866
Si Si3 0.807726 0.174370 0.729159
Si Si4 0.435182 0.759846 0.886906
Si Si5 0.573733 0.047309 0.886174
O O1 0.709748 0.088591 0.500000
O O2 0.638366 0.177362 0.380199
O O3 0.759528 0.104005 0.322147
O O4 0.642603 0.011001 0.363266
O O5 0.349864 0.336710 0.827145
O O6 0.481736 0.267910 0.864199
O O7 0.390412 0.294043 0.000000
O O8 0.750000 0.250000 0.750000
O O9 0.871447 0.205158 0.659089
O O10 0.423819 0.856536 0.852628
O O11 0.428838 0.758361 0.000000
O O12 0.500000 0.000000 0.855936
O O13 0.570603 0.051313 0.000000
#
# Coordination Sequence:
#
# PCOD9525318 Si02
#       5
#    16  16  16  16  16
#     4   9  16  29  48  72 105 142 173 215 262 311
#     4   9  17  30  48  67  95 136 182 224 263 305
#     4  10  20  31  44  67 106 139 177 213 268 322
#     4  10  18  30  51  76 102 137 180 219 263 323
#     4   9  15  27  50  77 106 141 177 210 254 314
#
# _framework density 19.538550000000001
#
# number of rings (size 3 to 8) (size 9 to 14) (size 15 to 20)
#    0.000    2.600    2.000    1.200    0.000    0.800 
#    0.000    4.000    0.000    0.000    0.000    1.400 
#    0.000   28.000    0.000  111.800    0.000    0.000 
#
# Total GULP energy -223302.686341 kJ/mol
# GULP energy per Si atom -5582.567159 kJ/mol
# Density = 1.949408 g / cm^3
# Si number density = 19.538550 Si / 1000 Ang^3
#
#
#
# Elastic Constant Matrix: (Units=GPa)
#
#
# Indices 1 2 3 4 5 6 
#
# 1 154.0514 41.7495 67.5051 0.0000 0.0000 0.0000
# 2 41.7495 25.6422 22.2695 0.0000 0.0000 0.0000
# 3 67.5051 22.2695 99.7232 0.0000 0.0000 0.0000
# 4 0.0000 0.0000 0.0000 9.9970 0.0000 0.0000
# 5 0.0000 0.0000 0.0000 0.0000 26.0849 0.0000
# 6 0.0000 0.0000 0.0000 0.0000 0.0000 27.4544
#
#
#
# Elastic Compliance Matrix: (Units=1/GPa)
#
#
# Indices 1 2 3 4 5 6 
#
# 1 0.013526 -0.017456 -0.005258 0.000000 0.000000 0.000000
# 2 -0.017456 0.070910 -0.004018 0.000000 0.000000 0.000000
# 3 -0.005258 -0.004018 0.014484 0.000000 0.000000 0.000000
# 4 0.000000 0.000000 0.000000 0.100030 0.000000 0.000000
# 5 0.000000 0.000000 0.000000 0.000000 0.038336 0.000000
# 6 0.000000 0.000000 0.000000 0.000000 0.000000 0.036424
#
#
# Mechanical properties :
#
#
# Convention : Reuss Voigt Hill
#
# Bulk Modulus (GPa) = 21.99987 60.27388 41.13688
# Shear Modulus (GPa) = 14.60584 22.56676 18.58630
#
# Velocity S-wave (km/s) = 2.73708 3.40220 3.08760
# Velocity P-wave (km/s) = 4.61227 6.80800 5.81472
#
# Compressibility (1/GPa) = 0.04545481
#
# Stress axis : x y z
#
# Youngs Moduli (GPa) = 73.93021 14.10240 69.03982
#
# Poissons Ratio (x) = 0.24618 0.36301
# Poissons Ratio (y) = 1.29056 0.27743
# Poissons Ratio (z) = 0.38873 0.05667
#
# Static dielectric constant tensor:
#      x y z
#    x 1.659530 0.000000 0.000000 
#    y 0.000000 1.661290 0.000000 
#    z 0.000000 0.000000 1.741220 
# 
# From -- ./inp_files/23100.got.cif
#   From: 2010.05.17/outbox.cif.g08.bks.cpg/sg72_12_cif.got.tgz:23100.got - 2010.06.03 17:03:01.
