data_PCOD9525598
_publ_section_title
;
Structure prediction by ZEFSAII (Michael W. Deem and Ramdas Pophale) SiO2 
 PCOD9525598
Probable space group: I B A M
;
_chemical_formula_sum "Si O2"
_cell_formula_units_Z 68
_cell_length_a 10.643437
_cell_length_b 19.001245
_cell_length_c 14.370239
_cell_angle_alpha 90.000000
_cell_angle_beta 90.000000
_cell_angle_gamma 90.000000
_cell_volume 2906.216357
_symmetry_space_group_name_H-M "I B A M"
_symmetry_group_IT_number 72
_symmetry_cell_setting 'orthorhombic'
loop_
_space_group_symop_operation_xyz
x,y,z
-x,-y,z
x,-y,1/2-z
-x,y,1/2-z
-x,-y,-z
x,y,-z
-x,y,1/2+z
x,-y,1/2+z
1/2+x,1/2+y,1/2+z
1/2-x,1/2-y,1/2+z
1/2+x,1/2-y,-z
1/2-x,1/2+y,-z
1/2-x,1/2-y,1/2-z
1/2+x,1/2+y,1/2-z
1/2-x,1/2+y,z
1/2+x,1/2-y,z
loop_
_atom_site_type_symbol
_atom_site_label
_atom_site_fract_x
_atom_site_fract_y
_atom_site_fract_z
Si Si1 0.543557 0.715774 0.113121
Si Si2 0.766560 0.183324 0.386545
Si Si3 0.909957 0.940329 0.606990
Si Si4 0.500000 0.000000 0.000000
Si Si5 0.817646 0.533144 0.651944
O O1 0.644305 0.773215 0.143904
O O2 0.396825 0.722612 0.137326
O O3 0.583474 0.637756 0.146240
O O4 0.551408 0.717623 0.000000
O O5 0.766813 0.175393 0.500000
O O6 0.759809 0.105462 0.343490
O O7 0.953315 0.931870 0.500000
O O8 0.771728 0.973232 0.607390
O O9 0.000000 0.000000 0.648963
O O10 0.569194 0.953842 0.081901
O O11 0.853260 0.500000 0.750000
#
# Coordination Sequence:
#
# PCOD9525598 Si02
#       5
#    16  16  16   4  16
#     4   9  19  33  64  99 144 193 240 283 357 423
#     4  10  19  40  64 104 143 187 233 297 347 421
#     4  10  18  37  67  99 135 186 241 289 345 405
#     4  12  26  48  66  98 144 184 220 296 366 412
#     4  12  25  43  72 103 137 185 240 290 355 427
#
# _framework density 23.398119000000001
#
# number of rings (size 3 to 8) (size 9 to 14) (size 15 to 20)
#    0.000    1.647    4.706    0.353    0.000    2.353 
#    4.235    1.176    0.000    0.000    0.000    0.000 
#    0.000    0.000    0.000    0.000    0.000    0.000 
#
# Total GULP energy -189479.905526 kJ/mol
# GULP energy per Si atom -5572.938398 kJ/mol
# Density = 2.334486 g / cm^3
# Si number density = 23.398119 Si / 1000 Ang^3
#
#
#
# Elastic Constant Matrix: (Units=GPa)
#
#
# Indices 1 2 3 4 5 6 
#
# 1 95.5575 53.2615 17.5794 0.0000 0.0000 0.0000
# 2 53.2615 80.5221 37.9302 0.0000 0.0000 0.0000
# 3 17.5794 37.9302 112.0447 0.0001 0.0001 0.0000
# 4 0.0000 0.0000 0.0001 25.6997 0.0000 0.0000
# 5 0.0000 0.0000 0.0001 0.0000 52.7922 0.0000
# 6 0.0000 0.0000 0.0000 0.0000 0.0000 48.8077
#
#
#
# Elastic Compliance Matrix: (Units=1/GPa)
#
#
# Indices 1 2 3 4 5 6 
#
# 1 0.016742 -0.011703 0.001335 0.000000 0.000000 0.000000
# 2 -0.011703 0.022956 -0.005935 0.000000 0.000000 0.000000
# 3 0.001335 -0.005935 0.010725 0.000000 0.000000 0.000000
# 4 0.000000 0.000000 0.000000 0.038911 0.000000 0.000000
# 5 0.000000 0.000000 0.000000 0.000000 0.018942 0.000000
# 6 0.000000 0.000000 0.000000 0.000000 0.000000 0.020489
#
#
# Mechanical properties :
#
#
# Convention : Reuss Voigt Hill
#
# Bulk Modulus (GPa) = 56.12743 56.18519 56.15631
# Shear Modulus (GPa) = 29.88475 37.41681 33.65078
#
# Velocity S-wave (km/s) = 3.57771 4.00326 3.79645
# Velocity P-wave (km/s) = 6.41146 6.74040 6.57798
#
# Compressibility (1/GPa) = 0.01781660
#
# Stress axis : x y z
#
# Youngs Moduli (GPa) = 59.72878 43.56222 93.24281
#
# Poissons Ratio (x) = 0.50981 -0.12448
# Poissons Ratio (y) = 0.69901 0.55339
# Poissons Ratio (z) = -0.07974 0.25854
#
# Static dielectric constant tensor:
#      x y z
#    x 1.966040 0.000000 0.000000 
#    y 0.000000 1.848870 0.000000 
#    z 0.000000 0.000000 1.925240 
# 
# From -- ./inp_files/19937.got.cif
#   From: 2010.05.17/outbox.cif.g08.bks.cpg/sg72_10_cif.got.tgz:19937.got - 2010.06.03 17:03:01.
