data_PCOD9525146
_publ_section_title
;
Structure prediction by ZEFSAII (Michael W. Deem and Ramdas Pophale) SiO2 
 PCOD9525146
Probable space group: I B A M
;
_chemical_formula_sum "Si O2"
_cell_formula_units_Z 96
_cell_length_a 22.233408
_cell_length_b 20.415423
_cell_length_c 13.427696
_cell_angle_alpha 90.000000
_cell_angle_beta 90.000000
_cell_angle_gamma 90.000000
_cell_volume 6094.890686
_symmetry_space_group_name_H-M "I B A M"
_symmetry_group_IT_number 72
_symmetry_cell_setting 'orthorhombic'
loop_
_space_group_symop_operation_xyz
x,y,z
-x,-y,z
x,-y,1/2-z
-x,y,1/2-z
-x,-y,-z
x,y,-z
-x,y,1/2+z
x,-y,1/2+z
1/2+x,1/2+y,1/2+z
1/2-x,1/2-y,1/2+z
1/2+x,1/2-y,-z
1/2-x,1/2+y,-z
1/2-x,1/2-y,1/2-z
1/2+x,1/2+y,1/2-z
1/2-x,1/2+y,z
1/2+x,1/2-y,z
loop_
_atom_site_type_symbol
_atom_site_label
_atom_site_fract_x
_atom_site_fract_y
_atom_site_fract_z
Si Si1 0.293270 0.950042 0.382819
Si Si2 0.594319 0.144908 0.380475
Si Si3 0.681766 0.256843 0.619784
Si Si4 0.245791 0.155186 0.758021
Si Si5 0.976910 0.572864 0.879481
Si Si6 0.160413 0.596259 0.381762
O O1 0.280458 0.941067 0.500000
O O2 0.355090 0.910396 0.360042
O O3 0.243694 0.913911 0.315730
O O4 0.307550 0.025852 0.366145
O O5 0.590873 0.145952 0.500000
O O6 0.621932 0.215284 0.353905
O O7 0.528943 0.122570 0.346473
O O8 0.684618 0.267502 0.500000
O O9 0.735255 0.208171 0.657902
O O10 0.691415 0.320019 0.689348
O O11 0.301198 0.148049 0.679998
O O12 0.908932 0.589222 0.849038
O O13 0.000000 0.500000 0.854245
O O14 0.974532 0.573833 0.000000
O O15 0.161891 0.610174 0.500000
#
# Coordination Sequence:
#
# PCOD9525146 Si02
#       6
#    16  16  16  16  16  16
#     4   9  16  27  41  57  81 110 135 171 220 269
#     4   8  13  24  41  56  74 106 148 178 213 258
#     4   9  18  31  44  54  70 103 145 193 230 257
#     4  10  18  28  42  58  77 102 143 188 219 261
#     4   9  14  23  40  60  83 116 147 177 213 253
#     4  10  18  26  40  62  89 115 141 177 220 262
#
# _framework density 15.750897999999999
#
# number of rings (size 3 to 8) (size 9 to 14) (size 15 to 20)
#    0.000    2.833    1.667    2.500    0.000    0.000 
#    0.000    3.333    0.000    0.000    0.000    0.000 
#    0.000    2.667    0.000    0.000    0.000   81.667 
#
# Total GULP energy -267309.242004 kJ/mol
# GULP energy per Si atom -5568.942542 kJ/mol
# Density = 1.571505 g / cm^3
# Si number density = 15.750898 Si / 1000 Ang^3
#
#
#
# Elastic Constant Matrix: (Units=GPa)
#
#
# Indices 1 2 3 4 5 6 
#
# 1 50.4487 37.8034 21.6914 0.0000 0.0000 0.0000
# 2 37.8034 50.4677 28.8895 0.0000 0.0000 0.0000
# 3 21.6914 28.8895 87.5523 0.0000 0.0000 0.0000
# 4 0.0000 0.0000 0.0000 25.1340 0.0000 0.0000
# 5 0.0000 0.0000 0.0000 0.0000 20.0674 0.0000
# 6 0.0000 0.0000 0.0000 0.0000 0.0000 23.8973
#
#
#
# Elastic Compliance Matrix: (Units=1/GPa)
#
#
# Indices 1 2 3 4 5 6 
#
# 1 0.045184 -0.033827 -0.000033 0.000000 0.000000 0.000000
# 2 -0.033827 0.049753 -0.008036 0.000000 0.000000 0.000000
# 3 -0.000033 -0.008036 0.014082 0.000000 0.000000 0.000000
# 4 0.000000 0.000000 0.000000 0.039787 0.000000 0.000000
# 5 0.000000 0.000000 0.000000 0.000000 0.049832 0.000000
# 6 0.000000 0.000000 0.000000 0.000000 0.000000 0.041846
#
#
# Mechanical properties :
#
#
# Convention : Reuss Voigt Hill
#
# Bulk Modulus (GPa) = 39.63979 40.58193 40.11086
# Shear Modulus (GPa) = 15.02924 20.49205 17.76064
#
# Velocity S-wave (km/s) = 3.09234 3.61086 3.36161
# Velocity P-wave (km/s) = 6.16209 6.57307 6.37089
#
# Compressibility (1/GPa) = 0.02522718
#
# Stress axis : x y z
#
# Youngs Moduli (GPa) = 22.13161 20.09910 71.01478
#
# Poissons Ratio (x) = 0.67989 0.00232
# Poissons Ratio (y) = 0.74865 0.57070
# Poissons Ratio (z) = 0.00072 0.16152
#
# Static dielectric constant tensor:
#      x y z
#    x 1.530780 0.000000 0.000000 
#    y 0.000000 1.557070 0.000000 
#    z 0.000000 0.000000 1.619850 
# 
# From -- ./inp_files/24430.got.cif
#   From: 2010.05.17/outbox.cif.g08.bks.cpg/sg72_13_cif.got.tgz:24430.got - 2010.06.03 17:03:01.
