data_PCOD9525715
_publ_section_title
;
Structure prediction by ZEFSAII (Michael W. Deem and Ramdas Pophale) SiO2 
 PCOD9525715
Probable space group: I B A M
;
_chemical_formula_sum "Si O2"
_cell_formula_units_Z 116
_cell_length_a 9.634108
_cell_length_b 25.758107
_cell_length_c 28.421522
_cell_angle_alpha 90.000000
_cell_angle_beta 90.000000
_cell_angle_gamma 90.000000
_cell_volume 7052.982148
_symmetry_space_group_name_H-M "I B A M"
_symmetry_group_IT_number 72
_symmetry_cell_setting 'orthorhombic'
loop_
_space_group_symop_operation_xyz
x,y,z
-x,-y,z
x,-y,1/2-z
-x,y,1/2-z
-x,-y,-z
x,y,-z
-x,y,1/2+z
x,-y,1/2+z
1/2+x,1/2+y,1/2+z
1/2-x,1/2-y,1/2+z
1/2+x,1/2-y,-z
1/2-x,1/2+y,-z
1/2-x,1/2-y,1/2-z
1/2+x,1/2+y,1/2-z
1/2-x,1/2+y,z
1/2+x,1/2-y,z
loop_
_atom_site_type_symbol
_atom_site_label
_atom_site_fract_x
_atom_site_fract_y
_atom_site_fract_z
Si Si1 0.337034 0.209095 0.054342
Si Si2 0.023560 0.161724 0.694271
Si Si3 0.000000 0.500000 0.750000
Si Si4 0.454823 0.054133 0.160760
Si Si5 0.689714 0.861659 0.349657
Si Si6 0.837285 0.312829 0.445461
Si Si7 0.256925 0.144383 0.858221
Si Si8 0.479969 0.214882 0.194479
O O1 0.270589 0.265719 0.061470
O O2 0.503539 0.206770 0.062048
O O3 0.264552 0.170671 0.090842
O O4 0.311652 0.194791 0.000000
O O5 0.163319 0.135746 0.675422
O O6 0.035327 0.223988 0.686007
O O7 0.000000 0.153997 0.750000
O O8 0.893184 0.141911 0.664549
O O9 0.083838 0.464027 0.713796
O O10 0.589094 0.091041 0.163369
O O11 0.334182 0.089141 0.139810
O O12 0.500000 0.000000 0.136710
O O13 0.695075 0.855401 0.405985
O O14 0.613013 0.809386 0.331406
O O15 0.827756 0.329880 0.500000
O O16 0.349707 0.182376 0.824920
O O17 0.500000 0.206615 0.250000
#
# Coordination Sequence:
#
# PCOD9525715 Si02
#       8
#    16  16   4  16  16  16  16  16
#     4  10  20  34  54  81 114 148 183 221 265 322
#     4  11  23  31  47  79 113 140 178 218 268 328
#     4   8  20  36  64  74  94 136 196 234 288 348
#     4   9  21  37  59  75  97 137 186 234 281 335
#     4  11  21  34  53  76 106 145 180 229 269 324
#     4  10  20  34  54  81 114 148 183 221 265 322
#     4  11  21  34  53  76 106 145 180 229 269 324
#     4  10  19  31  47  69 106 147 177 202 255 330
#
# _framework density 16.446943999999998
#
# number of rings (size 3 to 8) (size 9 to 14) (size 15 to 20)
#    0.414    1.379    2.759    3.310    7.724    2.207 
#    0.000    0.690    0.000    3.310    0.000    0.000 
#    0.000    2.207    0.000    0.000    0.000    0.000 
#
# Total GULP energy -323382.045831 kJ/mol
# GULP energy per Si atom -5575.552514 kJ/mol
# Density = 1.640951 g / cm^3
# Si number density = 16.446944 Si / 1000 Ang^3
#
#
#
# Elastic Constant Matrix: (Units=GPa)
#
#
# Indices 1 2 3 4 5 6 
#
# 1 98.9779 20.1285 29.9678 0.0000 0.0000 0.0000
# 2 20.1285 65.6350 31.9788 0.0000 0.0000 0.0000
# 3 29.9678 31.9788 81.7233 0.0000 0.0000 0.0000
# 4 0.0000 0.0000 0.0000 10.1836 0.0000 0.0000
# 5 0.0000 0.0000 0.0000 0.0000 23.8912 0.0000
# 6 0.0000 0.0000 0.0000 0.0000 0.0000 3.2076
#
#
#
# Elastic Compliance Matrix: (Units=1/GPa)
#
#
# Indices 1 2 3 4 5 6 
#
# 1 0.011539 -0.001825 -0.003517 0.000000 0.000000 0.000000
# 2 -0.001825 0.019113 -0.006810 0.000000 0.000000 0.000000
# 3 -0.003517 -0.006810 0.016191 0.000000 0.000000 0.000000
# 4 0.000000 0.000000 0.000000 0.098197 0.000000 0.000000
# 5 0.000000 0.000000 0.000000 0.000000 0.041856 0.000000
# 6 0.000000 0.000000 0.000000 0.000000 0.000000 0.311762
#
#
# Mechanical properties :
#
#
# Convention : Reuss Voigt Hill
#
# Bulk Modulus (GPa) = 44.36737 45.60962 44.98850
# Shear Modulus (GPa) = 9.42547 18.40721 13.91634
#
# Velocity S-wave (km/s) = 2.39651 3.34905 2.91200
# Velocity P-wave (km/s) = 5.89002 6.53808 6.22249
#
# Compressibility (1/GPa) = 0.02253909
#
# Stress axis : x y z
#
# Youngs Moduli (GPa) = 86.65986 52.31918 61.76279
#
# Poissons Ratio (x) = 0.09549 0.21724
# Poissons Ratio (y) = 0.15816 0.42060
# Poissons Ratio (z) = 0.30481 0.35629
#
# Static dielectric constant tensor:
#      x y z
#    x 1.557530 0.000000 0.000000 
#    y 0.000000 1.534320 0.000000 
#    z 0.000000 0.000000 1.575190 
# 
# From -- ./inp_files/51007.got.cif
#   From: 2010.05.17/outbox.cif.g08.bks.cpg/sg72_26_cif.got.tgz:51007.got - 2010.06.03 17:03:01.
