data_PCOD9525571
_publ_section_title
;
Structure prediction by ZEFSAII (Michael W. Deem and Ramdas Pophale) SiO2 
 PCOD9525571
Probable space group: I B A M
;
_chemical_formula_sum "Si O2"
_cell_formula_units_Z 88
_cell_length_a 13.904330
_cell_length_b 12.688421
_cell_length_c 23.969042
_cell_angle_alpha 90.000000
_cell_angle_beta 90.000000
_cell_angle_gamma 90.000000
_cell_volume 4228.714092
_symmetry_space_group_name_H-M "I B A M"
_symmetry_group_IT_number 72
_symmetry_cell_setting 'orthorhombic'
loop_
_space_group_symop_operation_xyz
x,y,z
-x,-y,z
x,-y,1/2-z
-x,y,1/2-z
-x,-y,-z
x,y,-z
-x,y,1/2+z
x,-y,1/2+z
1/2+x,1/2+y,1/2+z
1/2-x,1/2-y,1/2+z
1/2+x,1/2-y,-z
1/2-x,1/2+y,-z
1/2-x,1/2-y,1/2-z
1/2+x,1/2+y,1/2-z
1/2-x,1/2+y,z
1/2+x,1/2-y,z
loop_
_atom_site_type_symbol
_atom_site_label
_atom_site_fract_x
_atom_site_fract_y
_atom_site_fract_z
Si Si1 0.886790 0.486015 0.000000
Si Si2 0.108379 0.170237 0.231491
Si Si3 0.732728 0.100866 0.908421
Si Si4 0.027310 0.875649 0.500000
Si Si5 0.691238 0.893731 0.280559
Si Si6 0.902025 0.066357 0.612681
Si Si7 0.674510 0.744112 0.000000
O O1 0.845138 0.544957 0.946622
O O2 0.000000 0.500000 0.000000
O O3 0.844736 0.367876 0.000000
O O4 0.195410 0.117058 0.265229
O O5 0.130625 0.293709 0.240121
O O6 0.119818 0.133541 0.167517
O O7 0.000000 0.144109 0.250000
O O8 0.689570 0.114615 0.847231
O O9 0.820772 0.019013 0.900892
O O10 0.772350 0.199901 0.944375
O O11 0.083703 0.861679 0.557687
O O12 0.930359 0.810116 0.500000
O O13 0.000000 0.000000 0.500000
O O14 0.657577 0.000000 0.250000
O O15 0.000000 0.000000 0.622394
#
# Coordination Sequence:
#
# PCOD9525571 Si02
#       7
#     8  16  16   8  16  16   8
#     4  11  29  50  65 102 147 185 233 276 353 431
#     4  11  26  42  69 105 132 185 235 281 349 413
#     4  11  23  46  70 101 136 184 229 290 347 408
#     4  10  18  35  62 107 133 161 221 286 349 405
#     4  11  25  47  68  98 144 179 231 287 345 417
#     4  11  20  39  69 106 138 167 230 301 345 408
#     4  11  23  43  73  95 136 180 225 286 354 417
#
# _framework density 20.810109000000001
#
# number of rings (size 3 to 8) (size 9 to 14) (size 15 to 20)
#    0.000    1.091    5.455    1.636    2.545    1.818 
#    6.545    0.000    0.000    0.000    0.000    0.000 
#    0.000    0.000    0.000    0.000    0.000    0.000 
#
# Total GULP energy -245985.127212 kJ/mol
# GULP energy per Si atom -5590.571073 kJ/mol
# Density = 2.076274 g / cm^3
# Si number density = 20.810109 Si / 1000 Ang^3
#
#
#
# Elastic Constant Matrix: (Units=GPa)
#
#
# Indices 1 2 3 4 5 6 
#
# 1 82.2167 18.9515 7.7194 0.0000 0.0000 0.0000
# 2 18.9515 103.5297 42.4746 0.0000 0.0000 0.0000
# 3 7.7194 42.4746 142.3308 0.0000 0.0000 0.0000
# 4 0.0000 0.0000 0.0000 10.8774 0.0000 0.0000
# 5 0.0000 0.0000 0.0000 0.0000 7.6017 0.0000
# 6 0.0000 0.0000 0.0000 0.0000 0.0000 16.8905
#
#
#
# Elastic Compliance Matrix: (Units=1/GPa)
#
#
# Indices 1 2 3 4 5 6 
#
# 1 0.012699 -0.002327 0.000006 0.000000 0.000000 0.000000
# 2 -0.002327 0.011433 -0.003286 0.000000 0.000000 0.000000
# 3 0.000006 -0.003286 0.008006 0.000000 0.000000 0.000000
# 4 0.000000 0.000000 0.000000 0.091933 0.000000 0.000000
# 5 0.000000 0.000000 0.000000 0.000000 0.131550 0.000000
# 6 0.000000 0.000000 0.000000 0.000000 0.000000 0.059205
#
#
# Mechanical properties :
#
#
# Convention : Reuss Voigt Hill
#
# Bulk Modulus (GPa) = 47.79167 51.81869 49.80518
# Shear Modulus (GPa) = 15.01435 24.33603 19.67519
#
# Velocity S-wave (km/s) = 2.68898 3.42341 3.07817
# Velocity P-wave (km/s) = 5.71457 6.37033 6.05134
#
# Compressibility (1/GPa) = 0.02092415
#
# Stress axis : x y z
#
# Youngs Moduli (GPa) = 78.74750 87.46608 124.90494
#
# Poissons Ratio (x) = 0.20352 -0.00071
# Poissons Ratio (y) = 0.18324 0.41039
# Poissons Ratio (z) = -0.00045 0.28738
#
# Static dielectric constant tensor:
#      x y z
#    x 1.698960 0.000000 0.000000 
#    y 0.000000 2.728800 0.000000 
#    z 0.000000 0.000000 2.021130 
# 
# From -- ./inp_files/44168.got.cif
#   From: 2010.05.17/outbox.cif.g08.bks.cpg/sg72_23_cif.got.tgz:44168.got - 2010.06.03 17:03:01.
