data_PCOD9525961
_publ_section_title
;
Structure prediction by ZEFSAII (Michael W. Deem and Ramdas Pophale) SiO2 
 PCOD9525961
Probable space group: I B A M
;
_chemical_formula_sum "Si O2"
_cell_formula_units_Z 96
_cell_length_a 20.320629
_cell_length_b 9.561792
_cell_length_c 28.186374
_cell_angle_alpha 90.000000
_cell_angle_beta 90.000000
_cell_angle_gamma 90.000000
_cell_volume 5476.658350
_symmetry_space_group_name_H-M "I B A M"
_symmetry_group_IT_number 72
_symmetry_cell_setting 'orthorhombic'
loop_
_space_group_symop_operation_xyz
x,y,z
-x,-y,z
x,-y,1/2-z
-x,y,1/2-z
-x,-y,-z
x,y,-z
-x,y,1/2+z
x,-y,1/2+z
1/2+x,1/2+y,1/2+z
1/2-x,1/2-y,1/2+z
1/2+x,1/2-y,-z
1/2-x,1/2+y,-z
1/2-x,1/2-y,1/2-z
1/2+x,1/2+y,1/2-z
1/2-x,1/2+y,z
1/2+x,1/2-y,z
loop_
_atom_site_type_symbol
_atom_site_label
_atom_site_fract_x
_atom_site_fract_y
_atom_site_fract_z
Si Si1 0.327124 0.240406 0.947305
Si Si2 0.278810 0.130638 0.215876
Si Si3 0.517578 0.665584 0.303528
Si Si4 0.350486 0.415949 0.654467
Si Si5 0.192203 0.928558 0.447264
Si Si6 0.390246 0.257452 0.151129
O O1 0.263723 0.141276 0.943749
O O2 0.304053 0.402783 0.944238
O O3 0.373810 0.215730 0.902629
O O4 0.356485 0.221581 0.000000
O O5 0.250000 0.250000 0.250000
O O6 0.220887 0.101845 0.177780
O O7 0.344118 0.174345 0.187673
O O8 0.290512 0.000000 0.250000
O O9 0.500000 0.500000 0.307122
O O10 0.500000 0.707259 0.250000
O O11 0.593887 0.671677 0.317811
O O12 0.467203 0.747574 0.337001
O O13 0.348246 0.379677 0.598659
O O14 0.368933 0.579838 0.657662
O O15 0.165572 0.894214 0.500000
#
# Coordination Sequence:
#
# PCOD9525961 Si02
#       6
#    16  16  16  16  16  16
#     4   9  17  30  50  76 104 131 166 215 264 308
#     4  12  22  32  51  80 105 133 174 228 261 304
#     4   9  18  31  50  71 103 141 177 207 251 317
#     4  10  19  33  52  77 103 139 174 216 262 310
#     4   9  17  30  49  76 104 130 166 214 265 310
#     4  10  19  34  51  77 105 137 176 214 262 312
#
# _framework density 17.528936000000002
#
# number of rings (size 3 to 8) (size 9 to 14) (size 15 to 20)
#    0.000    2.167    3.333    1.000    2.333    0.000 
#    0.000    0.833    0.000    9.500    0.000    0.000 
#    0.000    5.333    0.000    0.000    0.000    0.000 
#
# Total GULP energy -267489.999993 kJ/mol
# GULP energy per Si atom -5572.708333 kJ/mol
# Density = 1.748904 g / cm^3
# Si number density = 17.528936 Si / 1000 Ang^3
#
#
#
# Elastic Constant Matrix: (Units=GPa)
#
#
# Indices 1 2 3 4 5 6 
#
# 1 76.1874 9.5415 47.5924 0.0000 0.0000 0.0000
# 2 9.5415 23.5769 34.8211 0.0000 0.0000 0.0000
# 3 47.5924 34.8211 147.7946 0.0000 0.0000 0.0000
# 4 0.0000 0.0000 0.0000 20.9285 0.0000 0.0000
# 5 0.0000 0.0000 0.0000 0.0000 24.3359 0.0000
# 6 0.0000 0.0000 0.0000 0.0000 0.0000 16.9815
#
#
#
# Elastic Compliance Matrix: (Units=1/GPa)
#
#
# Indices 1 2 3 4 5 6 
#
# 1 0.016480 0.001792 -0.005729 0.000000 0.000000 0.000000
# 2 0.001792 0.065244 -0.015949 0.000000 0.000000 0.000000
# 3 -0.005729 -0.015949 0.012369 0.000000 0.000000 0.000000
# 4 0.000000 0.000000 0.000000 0.047782 0.000000 0.000000
# 5 0.000000 0.000000 0.000000 0.000000 0.041092 0.000000
# 6 0.000000 0.000000 0.000000 0.000000 0.000000 0.058888
#
#
# Mechanical properties :
#
#
# Convention : Reuss Voigt Hill
#
# Bulk Modulus (GPa) = 18.40919 47.94101 33.17510
# Shear Modulus (GPa) = 16.68154 22.82276 19.75215
#
# Velocity S-wave (km/s) = 3.08824 3.61225 3.36047
# Velocity P-wave (km/s) = 4.82092 6.69379 5.83301
#
# Compressibility (1/GPa) = 0.05432069
#
# Stress axis : x y z
#
# Youngs Moduli (GPa) = 60.68014 15.32704 80.85006
#
# Poissons Ratio (x) = -0.02746 0.46319
# Poissons Ratio (y) = -0.10873 1.28946
# Poissons Ratio (z) = 0.34763 0.24445
#
# Static dielectric constant tensor:
#      x y z
#    x 1.579080 0.000000 0.000000 
#    y 0.000000 1.587190 0.000000 
#    z 0.000000 0.000000 1.629880 
# 
# From -- ./inp_files/47301.got.cif
#   From: 2010.05.17/outbox.cif.g08.bks.cpg/sg72_24_cif.got.tgz:47301.got - 2010.06.03 17:03:01.
