data_PCOD9525871
_publ_section_title
;
Structure prediction by ZEFSAII (Michael W. Deem and Ramdas Pophale) SiO2 
 PCOD9525871
Probable space group: I B A M
;
_chemical_formula_sum "Si O2"
_cell_formula_units_Z 56
_cell_length_a 32.447479
_cell_length_b 5.216467
_cell_length_c 17.278244
_cell_angle_alpha 90.000000
_cell_angle_beta 90.000000
_cell_angle_gamma 90.000000
_cell_volume 2924.536373
_symmetry_space_group_name_H-M "I B A M"
_symmetry_group_IT_number 72
_symmetry_cell_setting 'orthorhombic'
loop_
_space_group_symop_operation_xyz
x,y,z
-x,-y,z
x,-y,1/2-z
-x,y,1/2-z
-x,-y,-z
x,y,-z
-x,y,1/2+z
x,-y,1/2+z
1/2+x,1/2+y,1/2+z
1/2-x,1/2-y,1/2+z
1/2+x,1/2-y,-z
1/2-x,1/2+y,-z
1/2-x,1/2-y,1/2-z
1/2+x,1/2+y,1/2-z
1/2-x,1/2+y,z
1/2+x,1/2-y,z
loop_
_atom_site_type_symbol
_atom_site_label
_atom_site_fract_x
_atom_site_fract_y
_atom_site_fract_z
Si Si1 0.518453 0.747331 0.662107
Si Si2 0.223230 0.743623 0.000000
Si Si3 0.114241 0.883453 0.666212
Si Si4 0.355159 0.113002 0.913838
O O1 0.500000 0.500000 0.621864
O O2 0.500000 0.748425 0.750000
O O3 0.567228 0.718011 0.666939
O O4 0.500000 0.000000 0.624823
O O5 0.192380 0.694494 0.927845
O O6 0.258252 0.527003 0.000000
O O7 0.139797 0.632865 0.640833
O O8 0.124463 0.000000 0.750000
O O9 0.120982 0.130683 0.611697
O O10 0.369788 0.031986 0.000000
#
# Coordination Sequence:
#
# PCOD9525871 Si02
#       4
#    16   8  16  16
#     4  10  19  32  52  86 113 163 217 247 284 351
#     4  10  20  42  72  90 114 168 216 238 292 418
#     4  12  21  37  64  93 128 161 211 271 302 364
#     4  10  24  39  62  97 122 163 204 255 322 378
#
# _framework density 19.148334999999999
#
# number of rings (size 3 to 8) (size 9 to 14) (size 15 to 20)
#    0.857    0.571    2.857    5.143    4.000    0.000 
#    0.000    0.000    0.000   34.286    0.000    0.000 
#    0.000    0.000    0.000    0.000    0.000    0.000 
#
# Total GULP energy -155951.279915 kJ/mol
# GULP energy per Si atom -5569.688568 kJ/mol
# Density = 1.910475 g / cm^3
# Si number density = 19.148335 Si / 1000 Ang^3
#
#
#
# Elastic Constant Matrix: (Units=GPa)
#
#
# Indices 1 2 3 4 5 6 
#
# 1 53.4357 9.0555 23.6092 0.0000 0.0000 0.0000
# 2 9.0555 139.5563 15.9699 0.0000 0.0000 0.0000
# 3 23.6092 15.9699 38.5040 0.0000 0.0000 0.0000
# 4 0.0000 0.0000 0.0000 11.5501 0.0000 0.0000
# 5 0.0000 0.0000 0.0000 0.0000 25.1903 0.0000
# 6 0.0000 0.0000 0.0000 0.0000 0.0000 46.6309
#
#
#
# Elastic Compliance Matrix: (Units=1/GPa)
#
#
# Indices 1 2 3 4 5 6 
#
# 1 0.025670 0.000142 -0.015799 0.000000 0.000000 0.000000
# 2 0.000142 0.007523 -0.003208 0.000000 0.000000 0.000000
# 3 -0.015799 -0.003208 0.036989 0.000000 0.000000 0.000000
# 4 0.000000 0.000000 0.000000 0.086579 0.000000 0.000000
# 5 0.000000 0.000000 0.000000 0.000000 0.039698 0.000000
# 6 0.000000 0.000000 0.000000 0.000000 0.000000 0.021445
#
#
# Mechanical properties :
#
#
# Convention : Reuss Voigt Hill
#
# Bulk Modulus (GPa) = 30.81292 36.52950 33.67121
# Shear Modulus (GPa) = 18.76510 28.86501 23.81506
#
# Velocity S-wave (km/s) = 3.13387 3.88679 3.53046
# Velocity P-wave (km/s) = 5.40569 6.26589 5.85162
#
# Compressibility (1/GPa) = 0.03245392
#
# Stress axis : x y z
#
# Youngs Moduli (GPa) = 38.95534 132.91865 27.03497
#
# Poissons Ratio (x) = -0.01891 0.42713
# Poissons Ratio (y) = -0.00554 0.08672
# Poissons Ratio (z) = 0.61546 0.42635
#
# Static dielectric constant tensor:
#      x y z
#    x 1.672850 0.000000 0.000000 
#    y 0.000000 1.671310 0.000000 
#    z 0.000000 0.000000 1.678400 
# 
# From -- ./inp_files/26966.got.cif
#   From: 2010.05.17/outbox.cif.g08.bks.cpg/sg72_14_cif.got.tgz:26966.got - 2010.06.03 17:03:01.
