data_PCOD9525253
_publ_section_title
;
Structure prediction by ZEFSAII (Michael W. Deem and Ramdas Pophale) SiO2 
 PCOD9525253
Probable space group: I B A M
;
_chemical_formula_sum "Si O2"
_cell_formula_units_Z 80
_cell_length_a 20.220612
_cell_length_b 8.765307
_cell_length_c 24.419486
_cell_angle_alpha 90.000000
_cell_angle_beta 90.000000
_cell_angle_gamma 90.000000
_cell_volume 4328.106571
_symmetry_space_group_name_H-M "I B A M"
_symmetry_group_IT_number 72
_symmetry_cell_setting 'orthorhombic'
loop_
_space_group_symop_operation_xyz
x,y,z
-x,-y,z
x,-y,1/2-z
-x,y,1/2-z
-x,-y,-z
x,y,-z
-x,y,1/2+z
x,-y,1/2+z
1/2+x,1/2+y,1/2+z
1/2-x,1/2-y,1/2+z
1/2+x,1/2-y,-z
1/2-x,1/2+y,-z
1/2-x,1/2-y,1/2-z
1/2+x,1/2+y,1/2-z
1/2-x,1/2+y,z
1/2+x,1/2-y,z
loop_
_atom_site_type_symbol
_atom_site_label
_atom_site_fract_x
_atom_site_fract_y
_atom_site_fract_z
Si Si1 0.817007 0.866734 0.287563
Si Si2 0.614097 0.871188 0.711209
Si Si3 0.927686 0.932893 0.154272
Si Si4 0.178019 0.871199 0.563605
Si Si5 0.716682 0.918113 0.621493
O O1 0.835951 0.724324 0.250398
O O2 0.768937 0.833983 0.337920
O O3 0.785624 0.000000 0.250000
O O4 0.883074 0.949187 0.310581
O O5 0.572138 0.733251 0.684049
O O6 0.655321 0.950662 0.662015
O O7 0.582650 0.000000 0.750000
O O8 0.887260 0.915174 0.097808
O O9 0.000000 0.000000 0.147814
O O10 0.173926 0.908820 0.500000
O O11 0.189997 0.693430 0.574870
O O12 0.240220 0.952748 0.592836
#
# Coordination Sequence:
#
# PCOD9525253 Si02
#       5
#    16  16  16  16  16
#     4   9  17  29  48  72 103 139 162 192 246 306
#     4  10  18  29  50  77 102 130 162 202 251 302
#     4   9  20  36  50  69 101 138 175 209 245 300
#     4  10  20  33  52  74  98 134 174 218 262 294
#     4  10  18  30  48  75 106 128 163 208 252 305
#
# _framework density 18.483834000000002
#
# number of rings (size 3 to 8) (size 9 to 14) (size 15 to 20)
#    0.000    2.400    0.000    4.200    0.000    4.000 
#    0.000    2.000    0.000    0.000    0.000    0.000 
#    0.000   19.200    0.000    0.000    0.000    4.800 
#
# Total GULP energy -223024.713879 kJ/mol
# GULP energy per Si atom -5575.617847 kJ/mol
# Density = 1.844176 g / cm^3
# Si number density = 18.483834 Si / 1000 Ang^3
#
#
#
# Elastic Constant Matrix: (Units=GPa)
#
#
# Indices 1 2 3 4 5 6 
#
# 1 93.9954 39.2985 33.9292 0.0000 0.0000 0.0000
# 2 39.2985 68.9053 46.7529 0.0000 0.0000 0.0000
# 3 33.9292 46.7529 120.1005 0.0000 0.0000 0.0000
# 4 0.0000 0.0000 0.0000 23.1939 0.0000 0.0000
# 5 0.0000 0.0000 0.0000 0.0000 4.3727 0.0000
# 6 0.0000 0.0000 0.0000 0.0000 0.0000 16.7148
#
#
#
# Elastic Compliance Matrix: (Units=1/GPa)
#
#
# Indices 1 2 3 4 5 6 
#
# 1 0.014087 -0.007249 -0.001158 0.000000 0.000000 0.000000
# 2 -0.007249 0.023452 -0.007081 0.000000 0.000000 0.000000
# 3 -0.001158 -0.007081 0.011410 0.000000 0.000000 0.000000
# 4 0.000000 0.000000 0.000000 0.043115 0.000000 0.000000
# 5 0.000000 0.000000 0.000000 0.000000 0.228694 0.000000
# 6 0.000000 0.000000 0.000000 0.000000 0.000000 0.059827
#
#
# Mechanical properties :
#
#
# Convention : Reuss Voigt Hill
#
# Bulk Modulus (GPa) = 55.63940 58.10695 56.87317
# Shear Modulus (GPa) = 11.97455 19.72432 15.84944
#
# Velocity S-wave (km/s) = 2.54803 3.27021 2.93145
# Velocity P-wave (km/s) = 6.23086 6.76490 6.50337
#
# Compressibility (1/GPa) = 0.01797288
#
# Stress axis : x y z
#
# Youngs Moduli (GPa) = 70.98530 42.64088 87.64089
#
# Poissons Ratio (x) = 0.30909 0.10149
# Poissons Ratio (y) = 0.51455 0.62063
# Poissons Ratio (z) = 0.08220 0.30196
#
# Static dielectric constant tensor:
#      x y z
#    x 1.637610 0.000000 0.000000 
#    y 0.000000 1.654270 0.000000 
#    z 0.000000 0.000000 1.637900 
# 
# From -- ./inp_files/47133.got.cif
#   From: 2010.05.17/outbox.cif.g08.bks.cpg/sg72_24_cif.got.tgz:47133.got - 2010.06.03 17:03:01.
