data_PCOD9525965
_publ_section_title
;
Structure prediction by ZEFSAII (Michael W. Deem and Ramdas Pophale) SiO2 
 PCOD9525965
Probable space group: I B A M
;
_chemical_formula_sum "Si O2"
_cell_formula_units_Z 80
_cell_length_a 10.063311
_cell_length_b 28.029586
_cell_length_c 15.252554
_cell_angle_alpha 90.000000
_cell_angle_beta 90.000000
_cell_angle_gamma 90.000000
_cell_volume 4302.294635
_symmetry_space_group_name_H-M "I B A M"
_symmetry_group_IT_number 72
_symmetry_cell_setting 'orthorhombic'
loop_
_space_group_symop_operation_xyz
x,y,z
-x,-y,z
x,-y,1/2-z
-x,y,1/2-z
-x,-y,-z
x,y,-z
-x,y,1/2+z
x,-y,1/2+z
1/2+x,1/2+y,1/2+z
1/2-x,1/2-y,1/2+z
1/2+x,1/2-y,-z
1/2-x,1/2+y,-z
1/2-x,1/2-y,1/2-z
1/2+x,1/2+y,1/2-z
1/2-x,1/2+y,z
1/2+x,1/2-y,z
loop_
_atom_site_type_symbol
_atom_site_label
_atom_site_fract_x
_atom_site_fract_y
_atom_site_fract_z
Si Si1 0.333097 0.369226 0.602789
Si Si2 0.641951 0.379654 0.604876
Si Si3 0.844821 0.204674 0.245213
Si Si4 0.825457 0.534293 0.165287
Si Si5 0.900806 0.439867 0.097263
O O1 0.318476 0.357270 0.500000
O O2 0.483349 0.388131 0.614350
O O3 0.318168 0.325361 0.667200
O O4 0.218537 0.406386 0.627110
O O5 0.670390 0.374328 0.500000
O O6 0.672670 0.331913 0.662435
O O7 0.719129 0.425131 0.644698
O O8 0.750000 0.250000 0.250000
O O9 0.000000 0.218945 0.250000
O O10 0.805222 0.500000 0.250000
O O11 0.840363 0.492908 0.093129
O O12 0.029572 0.558860 0.341580
O O13 0.943487 0.424696 0.000000
#
# Coordination Sequence:
#
# PCOD9525965 Si02
#       5
#    16  16  16  16  16
#     4   9  20  38  59  82 112 146 187 237 288 340
#     4  10  21  39  59  82 114 152 190 234 284 339
#     4  10  22  39  58  83 112 142 183 234 289 348
#     4  11  21  33  51  79 114 150 189 229 272 325
#     4  10  19  33  52  78 110 145 185 231 278 330
#
# _framework density 18.594729000000001
#
# number of rings (size 3 to 8) (size 9 to 14) (size 15 to 20)
#    0.000    2.000    0.000    4.800    0.000    3.200 
#    0.000    5.000    0.000    0.000    0.000    0.000 
#    0.000    0.000    0.000    0.000    0.000    0.000 
#
# Total GULP energy -222865.484449 kJ/mol
# GULP energy per Si atom -5571.637111 kJ/mol
# Density = 1.855241 g / cm^3
# Si number density = 18.594729 Si / 1000 Ang^3
#
#
#
# Elastic Constant Matrix: (Units=GPa)
#
#
# Indices 1 2 3 4 5 6 
#
# 1 129.6062 116.9799 77.5931 0.0000 0.0000 0.0000
# 2 116.9799 128.2710 68.7506 0.0000 0.0000 0.0000
# 3 77.5931 68.7506 116.3782 -0.0001 0.0000 0.0000
# 4 0.0000 0.0000 -0.0001 15.6454 0.0000 0.0000
# 5 0.0000 0.0000 0.0000 0.0000 21.3237 0.0000
# 6 0.0000 0.0000 0.0000 0.0000 0.0000 49.2026
#
#
#
# Elastic Compliance Matrix: (Units=1/GPa)
#
#
# Indices 1 2 3 4 5 6 
#
# 1 0.049667 -0.040310 -0.009302 0.000000 0.000000 0.000000
# 2 -0.040310 0.044123 0.000810 0.000000 0.000000 0.000000
# 3 -0.009302 0.000810 0.014316 0.000000 0.000000 0.000000
# 4 0.000000 0.000000 0.000000 0.063917 0.000000 0.000000
# 5 0.000000 0.000000 0.000000 0.000000 0.046896 0.000000
# 6 0.000000 0.000000 0.000000 0.000000 0.000000 0.020324
#
#
# Mechanical properties :
#
#
# Convention : Reuss Voigt Hill
#
# Bulk Modulus (GPa) = 95.20702 100.10028 97.65365
# Shear Modulus (GPa) = 14.69089 24.62979 19.66034
#
# Velocity S-wave (km/s) = 2.81384 3.64340 3.25515
# Velocity P-wave (km/s) = 7.86570 8.46455 8.17061
#
# Compressibility (1/GPa) = 0.01050343
#
# Stress axis : x y z
#
# Youngs Moduli (GPa) = 20.13411 22.66381 69.85188
#
# Poissons Ratio (x) = 0.91357 0.64974
# Poissons Ratio (y) = 0.81160 -0.05657
# Poissons Ratio (z) = 0.18728 -0.01835
#
# Static dielectric constant tensor:
#      x y z
#    x 1.654980 0.000000 0.000000 
#    y 0.000000 1.610590 0.000000 
#    z 0.000000 0.000000 1.741000 
# 
# From -- ./inp_files/20214.got.cif
#   From: 2010.05.17/outbox.cif.g08.bks.cpg/sg72_11_cif.got.tgz:20214.got - 2010.06.03 17:03:01.
