data_PCOD9525325
_publ_section_title
;
Structure prediction by ZEFSAII (Michael W. Deem and Ramdas Pophale) SiO2 
 PCOD9525325
Probable space group: I B A M
;
_chemical_formula_sum "Si O2"
_cell_formula_units_Z 56
_cell_length_a 31.035678
_cell_length_b 8.779195
_cell_length_c 10.736783
_cell_angle_alpha 90.000000
_cell_angle_beta 90.000000
_cell_angle_gamma 90.000000
_cell_volume 2925.432680
_symmetry_space_group_name_H-M "I B A M"
_symmetry_group_IT_number 72
_symmetry_cell_setting 'orthorhombic'
loop_
_space_group_symop_operation_xyz
x,y,z
-x,-y,z
x,-y,1/2-z
-x,y,1/2-z
-x,-y,-z
x,y,-z
-x,y,1/2+z
x,-y,1/2+z
1/2+x,1/2+y,1/2+z
1/2-x,1/2-y,1/2+z
1/2+x,1/2-y,-z
1/2-x,1/2+y,-z
1/2-x,1/2-y,1/2-z
1/2+x,1/2+y,1/2-z
1/2-x,1/2+y,z
1/2+x,1/2-y,z
loop_
_atom_site_type_symbol
_atom_site_label
_atom_site_fract_x
_atom_site_fract_y
_atom_site_fract_z
Si Si1 0.688900 0.246261 0.858420
Si Si2 0.448951 0.686237 0.500000
Si Si3 0.250150 0.500000 0.750000
Si Si4 0.599883 0.685376 0.748374
Si Si5 0.451849 0.684788 0.000000
O O1 0.719065 0.390484 0.829015
O O2 0.719188 0.102049 0.834968
O O3 0.647801 0.250139 0.768097
O O4 0.673255 0.253701 0.000000
O O5 0.423722 0.732337 0.624710
O O6 0.450933 0.500788 0.500000
O O7 0.498600 0.736709 0.500000
O O8 0.603229 0.500000 0.750000
O O9 0.572221 0.730377 0.626846
#
# Coordination Sequence:
#
# PCOD9525325 Si02
#       5
#    16   8   8  16   8
#     4  11  21  40  58  84 114 151 191 238 286 341
#     4   9  18  28  46  80 114 147 184 227 279 337
#     4  10  24  38  58  84 110 150 194 240 286 336
#     4  10  18  30  52  80 114 149 183 230 281 337
#     4   9  16  30  48  74 114 151 184 227 281 331
#
# _framework density 19.142468000000001
#
# number of rings (size 3 to 8) (size 9 to 14) (size 15 to 20)
#    0.000    2.000    2.857    1.714    0.000    3.429 
#   12.857    0.000    0.000    0.000    0.000    6.000 
#    0.000    0.000    0.000    0.000    0.000    0.000 
#
# Total GULP energy -156300.181591 kJ/mol
# GULP energy per Si atom -5582.149343 kJ/mol
# Density = 1.909890 g / cm^3
# Si number density = 19.142468 Si / 1000 Ang^3
#
#
#
# Elastic Constant Matrix: (Units=GPa)
#
#
# Indices 1 2 3 4 5 6 
#
# 1 174.6977 25.8954 75.7542 0.0000 0.0000 0.0000
# 2 25.8954 34.5372 15.2348 0.0000 0.0000 0.0000
# 3 75.7542 15.2348 140.6478 0.0000 0.0000 0.0000
# 4 0.0000 0.0000 0.0000 -0.7992 0.0000 0.0000
# 5 0.0000 0.0000 0.0000 0.0000 38.5291 0.0000
# 6 0.0000 0.0000 0.0000 0.0000 0.0000 -0.3448
#
#
#
# Elastic Compliance Matrix: (Units=1/GPa)
#
#
# Indices 1 2 3 4 5 6 
#
# 1 0.008040 -0.004325 -0.003862 0.000000 0.000000 0.000000
# 2 -0.004325 0.032733 -0.001216 0.000000 0.000000 0.000000
# 3 -0.003862 -0.001216 0.009322 0.000000 0.000000 0.000000
# 4 0.000000 0.000000 0.000000 -1.251180 0.000000 0.000000
# 5 0.000000 0.000000 0.000000 0.000000 0.025954 0.000000
# 6 0.000000 0.000000 0.000000 0.000000 0.000000 -2.899930
#
#
# Mechanical properties :
#
#
# Convention : Reuss Voigt Hill
#
# Bulk Modulus (GPa) = 31.95987 64.85017 48.40502
# Shear Modulus (GPa) = -1.23584 23.01023 10.88719
#
# Velocity S-wave (km/s) = -0.80437 3.47082 2.38743
# Velocity P-wave (km/s) = 3.98364 7.07201 5.73946
#
# Compressibility (1/GPa) = 0.03128924
#
# Stress axis : x y z
#
# Youngs Moduli (GPa) = 124.38062 30.54985 107.27586
#
# Poissons Ratio (x) = 0.13212 0.41429
# Poissons Ratio (y) = 0.53790 0.13049
# Poissons Ratio (z) = 0.48034 0.03716
#
# Static dielectric constant tensor:
#      x y z
#    x 1.636280 0.000000 0.000000 
#    y 0.000000 1.647750 0.000000 
#    z 0.000000 0.000000 1.651040 
# 
# From -- ./inp_files/10394.got.cif
#   From: 2010.05.17/outbox.cif.g08.bks.cpg/sg72_6_cif.got.tgz:10394.got - 2010.06.03 17:03:01.
