data_PCOD9525151
_publ_section_title
;
Structure prediction by ZEFSAII (Michael W. Deem and Ramdas Pophale) SiO2 
 PCOD9525151
Probable space group: I B A M
;
_chemical_formula_sum "Si O2"
_cell_formula_units_Z 96
_cell_length_a 14.458455
_cell_length_b 10.427239
_cell_length_c 28.302853
_cell_angle_alpha 90.000000
_cell_angle_beta 90.000000
_cell_angle_gamma 90.000000
_cell_volume 4266.988097
_symmetry_space_group_name_H-M "I B A M"
_symmetry_group_IT_number 72
_symmetry_cell_setting 'orthorhombic'
loop_
_space_group_symop_operation_xyz
x,y,z
-x,-y,z
x,-y,1/2-z
-x,y,1/2-z
-x,-y,-z
x,y,-z
-x,y,1/2+z
x,-y,1/2+z
1/2+x,1/2+y,1/2+z
1/2-x,1/2-y,1/2+z
1/2+x,1/2-y,-z
1/2-x,1/2+y,-z
1/2-x,1/2-y,1/2-z
1/2+x,1/2+y,1/2-z
1/2-x,1/2+y,z
1/2+x,1/2-y,z
loop_
_atom_site_type_symbol
_atom_site_label
_atom_site_fract_x
_atom_site_fract_y
_atom_site_fract_z
Si Si1 0.368647 0.517050 0.897047
Si Si2 0.134699 0.742466 0.863515
Si Si3 0.347854 0.242447 0.340138
Si Si4 0.153688 0.071617 0.000000
Si Si5 0.643761 0.017482 0.902936
Si Si6 0.678450 0.869345 0.500000
Si Si7 0.109332 0.355266 0.257486
O O1 0.402760 0.378500 0.880478
O O2 0.391812 0.628205 0.859875
O O3 0.397136 0.556111 0.949997
O O4 0.255518 0.504346 0.898720
O O5 0.246055 0.756401 0.862962
O O6 0.104965 0.625005 0.896796
O O7 0.118721 0.700577 0.809668
O O8 0.347850 0.232121 0.283891
O O9 0.389678 0.110981 0.361037
O O10 0.228720 0.956037 0.000000
O O11 0.195844 0.216431 0.000000
O O12 0.626976 0.087623 0.952376
O O13 0.147588 0.500000 0.250000
O O14 0.000000 0.360818 0.250000
#
# Coordination Sequence:
#
# PCOD9525151 Si02
#       7
#    16  16  16   8  16   8  16
#     4   9  19  29  50  77 110 143 175 220 267 317
#     4  10  20  35  53  80 109 144 180 223 268 322
#     4  10  18  35  54  78 108 143 179 218 266 323
#     4  10  18  28  44  76 117 146 174 213 272 323
#     4   9  17  29  49  74 110 142 179 212 261 319
#     4  10  18  26  44  76 113 149 175 218 269 320
#     4  11  23  38  57  80 106 141 184 230 278 326
#
# _framework density 22.498304000000001
#
# number of rings (size 3 to 8) (size 9 to 14) (size 15 to 20)
#    0.000    2.167    3.333    0.500    7.000    0.667 
#    0.000    1.667    0.000    0.000    0.000    7.000 
#    0.000    0.000    0.000    0.000    0.000    0.000 
#
# Total GULP energy -267931.439832 kJ/mol
# GULP energy per Si atom -5581.904996 kJ/mol
# Density = 2.244710 g / cm^3
# Si number density = 22.498304 Si / 1000 Ang^3
#
#
#
# Elastic Constant Matrix: (Units=GPa)
#
#
# Indices 1 2 3 4 5 6 
#
# 1 40.9940 16.2951 -17.0212 0.0000 0.0000 0.0000
# 2 16.2951 184.0622 73.3136 0.0000 0.0000 0.0000
# 3 -17.0212 73.3136 120.1241 0.0000 0.0000 0.0000
# 4 0.0000 0.0000 0.0000 40.7431 0.0000 0.0000
# 5 0.0000 0.0000 0.0000 0.0000 -4.9353 0.0000
# 6 0.0000 0.0000 0.0000 0.0000 0.0000 -14.1664
#
#
#
# Elastic Compliance Matrix: (Units=1/GPa)
#
#
# Indices 1 2 3 4 5 6 
#
# 1 0.029876 -0.005722 0.007726 0.000000 0.000000 0.000000
# 2 -0.005722 0.008274 -0.005860 0.000000 0.000000 0.000000
# 3 0.007726 -0.005860 0.012996 0.000000 0.000000 0.000000
# 4 0.000000 0.000000 0.000000 0.024544 0.000000 0.000000
# 5 0.000000 0.000000 0.000000 0.000000 -0.202623 0.000000
# 6 0.000000 0.000000 0.000000 0.000000 0.000000 -0.070589
#
#
# Mechanical properties :
#
#
# Convention : Reuss Voigt Hill
#
# Bulk Modulus (GPa) = 23.02432 54.48392 38.75412
# Shear Modulus (GPa) = -28.51752 22.50113 -3.00820
#
# Velocity S-wave (km/s) = -3.56412 3.16591 -1.15758
# Velocity P-wave (km/s) = 2.58481 6.13461 3.93397
#
# Compressibility (1/GPa) = 0.04343234
#
# Stress axis : x y z
#
# Youngs Moduli (GPa) = 33.47145 120.86346 76.94582
#
# Poissons Ratio (x) = 0.69160 -0.59446
# Poissons Ratio (y) = 0.19153 0.45094
# Poissons Ratio (z) = -0.25859 0.70831
#
# Static dielectric constant tensor:
#      x y z
#    x 1.822750 0.000000 0.000000 
#    y 0.000000 1.880480 0.000000 
#    z 0.000000 0.000000 1.827980 
# 
# From -- ./inp_files/49660.got.cif
#   From: 2010.05.17/outbox.cif.g08.bks.cpg/sg72_25_cif.got.tgz:49660.got - 2010.06.03 17:03:01.
