data_PCOD9525109
_publ_section_title
;
Structure prediction by ZEFSAII (Michael W. Deem and Ramdas Pophale) SiO2 
 PCOD9525109
Probable space group: I B A M
;
_chemical_formula_sum "Si O2"
_cell_formula_units_Z 88
_cell_length_a 12.875892
_cell_length_b 19.591608
_cell_length_c 16.442032
_cell_angle_alpha 90.000000
_cell_angle_beta 90.000000
_cell_angle_gamma 90.000000
_cell_volume 4147.657599
_symmetry_space_group_name_H-M "I B A M"
_symmetry_group_IT_number 72
_symmetry_cell_setting 'orthorhombic'
loop_
_space_group_symop_operation_xyz
x,y,z
-x,-y,z
x,-y,1/2-z
-x,y,1/2-z
-x,-y,-z
x,y,-z
-x,y,1/2+z
x,-y,1/2+z
1/2+x,1/2+y,1/2+z
1/2-x,1/2-y,1/2+z
1/2+x,1/2-y,-z
1/2-x,1/2+y,-z
1/2-x,1/2-y,1/2-z
1/2+x,1/2+y,1/2-z
1/2-x,1/2+y,z
1/2+x,1/2-y,z
loop_
_atom_site_type_symbol
_atom_site_label
_atom_site_fract_x
_atom_site_fract_y
_atom_site_fract_z
Si Si1 0.056802 0.847648 0.587060
Si Si2 0.695652 0.438952 0.406562
Si Si3 0.230974 0.660915 0.165512
Si Si4 0.000000 0.000000 0.375659
Si Si5 0.109841 0.467067 0.597154
Si Si6 0.358042 0.310819 0.826481
O O1 0.022300 0.819243 0.500000
O O2 0.177979 0.835069 0.598889
O O3 0.040647 0.929225 0.586536
O O4 0.981086 0.819816 0.657392
O O5 0.663846 0.455798 0.500000
O O6 0.609863 0.470112 0.344376
O O7 0.804756 0.473759 0.392995
O O8 0.692612 0.358061 0.396419
O O9 0.154536 0.598038 0.146102
O O10 0.301621 0.657773 0.247086
O O11 0.169389 0.731676 0.169610
O O12 0.103873 0.449724 0.500000
O O13 0.000000 0.500000 0.621872
#
# Coordination Sequence:
#
# PCOD9525109 Si02
#       6
#    16  16  16   8  16  16
#     4  11  21  37  64  93 122 159 210 272 330 387
#     4  10  19  36  60  90 123 156 208 273 323 372
#     4  11  23  42  61  88 133 178 216 263 338 403
#     4  10  17  32  59  90 117 144 191 266 325 366
#     4  10  22  40  64  93 127 170 223 274 322 390
#     4  10  24  40  59  91 130 167 216 269 326 401
#
# _framework density 21.216795999999999
#
# number of rings (size 3 to 8) (size 9 to 14) (size 15 to 20)
#    0.000    1.636    1.818    4.364    0.000    5.091 
#    0.000    6.364    0.000    0.000    0.000    0.000 
#    0.000    0.000    0.000    0.000    0.000    0.000 
#
# Total GULP energy -244979.346460 kJ/mol
# GULP energy per Si atom -5567.712420 kJ/mol
# Density = 2.116851 g / cm^3
# Si number density = 21.216796 Si / 1000 Ang^3
#
#
#
# Elastic Constant Matrix: (Units=GPa)
#
#
# Indices 1 2 3 4 5 6 
#
# 1 123.7796 46.8876 33.9097 0.0000 0.0000 0.0000
# 2 46.8876 57.8134 24.0454 0.0000 0.0000 0.0000
# 3 33.9097 24.0454 70.0187 0.0000 0.0000 0.0000
# 4 0.0000 0.0000 0.0000 31.7580 0.0000 0.0000
# 5 0.0000 0.0000 0.0000 0.0000 18.1900 0.0000
# 6 0.0000 0.0000 0.0000 0.0000 0.0000 28.2018
#
#
#
# Elastic Compliance Matrix: (Units=1/GPa)
#
#
# Indices 1 2 3 4 5 6 
#
# 1 0.012152 -0.008642 -0.002917 0.000000 0.000000 0.000000
# 2 -0.008642 0.026325 -0.004855 0.000000 0.000000 0.000000
# 3 -0.002917 -0.004855 0.017362 0.000000 0.000000 0.000000
# 4 0.000000 0.000000 0.000000 0.031488 0.000000 0.000000
# 5 0.000000 0.000000 0.000000 0.000000 0.054975 0.000000
# 6 0.000000 0.000000 0.000000 0.000000 0.000000 0.035459
#
#
# Mechanical properties :
#
#
# Convention : Reuss Voigt Hill
#
# Bulk Modulus (GPa) = 43.45903 51.25522 47.35713
# Shear Modulus (GPa) = 22.90852 25.41455 24.16154
#
# Velocity S-wave (km/s) = 3.28950 3.46475 3.37826
# Velocity P-wave (km/s) = 5.91232 6.34163 6.13073
#
# Compressibility (1/GPa) = 0.02301018
#
# Stress axis : x y z
#
# Youngs Moduli (GPa) = 82.29394 37.98666 57.59693
#
# Poissons Ratio (x) = 0.32827 0.16802
# Poissons Ratio (y) = 0.71117 0.27964
# Poissons Ratio (z) = 0.24007 0.18443
#
# Static dielectric constant tensor:
#      x y z
#    x 1.781980 0.000000 0.000000 
#    y 0.000000 1.761600 0.000000 
#    z 0.000000 0.000000 1.906000 
# 
# From -- ./inp_files/29289.got.cif
#   From: 2010.05.17/outbox.cif.g08.bks.cpg/sg72_15_cif.got.tgz:29289.got - 2010.06.03 17:03:01.
