data_PCOD9525494
_publ_section_title
;
Structure prediction by ZEFSAII (Michael W. Deem and Ramdas Pophale) SiO2 
 PCOD9525494
Probable space group: I B A M
;
_chemical_formula_sum "Si O2"
_cell_formula_units_Z 116
_cell_length_a 26.594661
_cell_length_b 11.914705
_cell_length_c 15.069336
_cell_angle_alpha 90.000000
_cell_angle_beta 90.000000
_cell_angle_gamma 90.000000
_cell_volume 4774.983434
_symmetry_space_group_name_H-M "I B A M"
_symmetry_group_IT_number 72
_symmetry_cell_setting 'orthorhombic'
loop_
_space_group_symop_operation_xyz
x,y,z
-x,-y,z
x,-y,1/2-z
-x,y,1/2-z
-x,-y,-z
x,y,-z
-x,y,1/2+z
x,-y,1/2+z
1/2+x,1/2+y,1/2+z
1/2-x,1/2-y,1/2+z
1/2+x,1/2-y,-z
1/2-x,1/2+y,-z
1/2-x,1/2-y,1/2-z
1/2+x,1/2+y,1/2-z
1/2-x,1/2+y,z
1/2+x,1/2-y,z
loop_
_atom_site_type_symbol
_atom_site_label
_atom_site_fract_x
_atom_site_fract_y
_atom_site_fract_z
Si Si1 0.000000 0.500000 0.750000
Si Si2 0.840670 0.738256 0.211447
Si Si3 0.823699 0.484453 0.394661
Si Si4 0.065268 0.277441 0.095724
Si Si5 0.284983 0.416030 0.400760
Si Si6 0.431857 0.951602 0.400487
Si Si7 0.634468 0.585647 0.165168
Si Si8 0.018841 0.118611 0.352794
O O1 0.035693 0.575383 0.813368
O O2 0.830610 0.613176 0.178116
O O3 0.896514 0.762116 0.171187
O O4 0.800691 0.815823 0.161949
O O5 0.841708 0.794992 0.307208
O O6 0.825049 0.446304 0.500000
O O7 0.770131 0.539078 0.379011
O O8 0.872583 0.563978 0.386284
O O9 0.061989 0.412015 0.098086
O O10 0.011788 0.219097 0.103690
O O11 0.087778 0.246153 0.000000
O O12 0.284279 0.372478 0.500000
O O13 0.326355 0.515278 0.393159
O O14 0.446226 0.912701 0.500000
O O15 0.628307 0.500000 0.250000
O O16 0.578463 0.615439 0.134357
O O17 0.000000 0.122107 0.250000
O O18 0.000000 0.000000 0.389364
#
# Coordination Sequence:
#
# PCOD9525494 Si02
#       8
#     4  16  16  16  16  16  16  16
#     4  12  22  36  68  94 110 156 178 228 302 330
#     4  10  18  33  56  79 103 141 187 225 271 330
#     4   9  19  37  59  81 109 145 182 230 277 325
#     4  10  20  33  55  82 109 147 190 232 269 327
#     4  10  20  34  54  77 106 144 185 228 279 333
#     4   9  21  40  60  89 119 144 190 236 277 339
#     4  10  19  31  48  74 107 145 180 225 277 318
#     4  11  18  30  49  74 113 151 180 222 276 327
#
# _framework density 24.293278999999998
#
# number of rings (size 3 to 8) (size 9 to 14) (size 15 to 20)
#    0.000    2.069    2.759    3.103    0.966    1.379 
#    3.724    0.000    3.034    0.000    0.000    0.000 
#    0.000    0.000    0.000    0.000    0.000    0.000 
#
# Total GULP energy -324231.320955 kJ/mol
# GULP energy per Si atom -5590.195189 kJ/mol
# Density = 2.423799 g / cm^3
# Si number density = 24.293279 Si / 1000 Ang^3
#
#
#
# Elastic Constant Matrix: (Units=GPa)
#
#
# Indices 1 2 3 4 5 6 
#
# 1 163.9460 14.4351 22.5432 0.0000 0.0000 0.0000
# 2 14.4351 73.0690 16.7970 0.0000 0.0000 0.0000
# 3 22.5432 16.7970 55.1317 0.0000 0.0000 0.0000
# 4 0.0000 0.0000 0.0000 13.0163 0.0000 0.0000
# 5 0.0000 0.0000 0.0000 0.0000 85.0135 0.0000
# 6 0.0000 0.0000 0.0000 0.0000 0.0000 27.5986
#
#
#
# Elastic Compliance Matrix: (Units=1/GPa)
#
#
# Indices 1 2 3 4 5 6 
#
# 1 0.006498 -0.000724 -0.002437 0.000000 0.000000 0.000000
# 2 -0.000724 0.014797 -0.004212 0.000000 0.000000 0.000000
# 3 -0.002437 -0.004212 0.020418 0.000000 0.000000 0.000000
# 4 0.000000 0.000000 0.000000 0.076827 0.000000 0.000000
# 5 0.000000 0.000000 0.000000 0.000000 0.011763 0.000000
# 6 0.000000 0.000000 0.000000 0.000000 0.000000 0.036234
#
#
# Mechanical properties :
#
#
# Convention : Reuss Voigt Hill
#
# Bulk Modulus (GPa) = 37.08078 44.41082 40.74580
# Shear Modulus (GPa) = 26.27824 41.01710 33.64767
#
# Velocity S-wave (km/s) = 3.29250 4.11349 3.72568
# Velocity P-wave (km/s) = 5.45445 6.39389 5.94276
#
# Compressibility (1/GPa) = 0.02696815
#
# Stress axis : x y z
#
# Youngs Moduli (GPa) = 153.88555 67.58132 48.97617
#
# Poissons Ratio (x) = 0.04890 0.11934
# Poissons Ratio (y) = 0.11136 0.20630
# Poissons Ratio (z) = 0.37497 0.28467
#
# Static dielectric constant tensor:
#      x y z
#    x 1.948140 0.000000 0.000000 
#    y 0.000000 1.927920 0.000000 
#    z 0.000000 0.000000 1.971350 
# 
# From -- ./inp_files/33415.got.cif
#   From: 2010.05.17/outbox.cif.g08.bks.cpg/sg72_17_cif.got.tgz:33415.got - 2010.06.03 17:03:01.
