data_PCOD9525938
_publ_section_title
;
Structure prediction by ZEFSAII (Michael W. Deem and Ramdas Pophale) SiO2 
 PCOD9525938
Probable space group: I B A M
;
_chemical_formula_sum "Si O2"
_cell_formula_units_Z 104
_cell_length_a 14.093653
_cell_length_b 19.306087
_cell_length_c 20.742280
_cell_angle_alpha 90.000000
_cell_angle_beta 90.000000
_cell_angle_gamma 90.000000
_cell_volume 5643.835227
_symmetry_space_group_name_H-M "I B A M"
_symmetry_group_IT_number 72
_symmetry_cell_setting 'orthorhombic'
loop_
_space_group_symop_operation_xyz
x,y,z
-x,-y,z
x,-y,1/2-z
-x,y,1/2-z
-x,-y,-z
x,y,-z
-x,y,1/2+z
x,-y,1/2+z
1/2+x,1/2+y,1/2+z
1/2-x,1/2-y,1/2+z
1/2+x,1/2-y,-z
1/2-x,1/2+y,-z
1/2-x,1/2-y,1/2-z
1/2+x,1/2+y,1/2-z
1/2-x,1/2+y,z
1/2+x,1/2-y,z
loop_
_atom_site_type_symbol
_atom_site_label
_atom_site_fract_x
_atom_site_fract_y
_atom_site_fract_z
Si Si1 0.732690 0.503922 0.073714
Si Si2 0.834557 0.500000 0.250000
Si Si3 0.755383 0.620292 0.325386
Si Si4 0.468221 0.825467 0.677428
Si Si5 0.575088 0.051436 0.882308
Si Si6 0.952696 0.075315 0.073631
Si Si7 0.455187 0.670141 0.181424
O O1 0.741868 0.433505 0.114937
O O2 0.829228 0.546855 0.078237
O O3 0.652033 0.556119 0.098172
O O4 0.709183 0.486163 0.000000
O O5 0.772035 0.567220 0.266086
O O6 0.896147 0.482443 0.312841
O O7 0.854884 0.662324 0.330655
O O8 0.659611 0.664503 0.316730
O O9 0.500000 0.846455 0.750000
O O10 0.525554 0.875836 0.630060
O O11 0.504045 0.747177 0.670187
O O12 0.500000 0.000000 0.913335
O O13 0.008112 0.122919 0.123185
O O14 0.949918 0.103020 0.000000
O O15 0.000000 0.000000 0.071196
O O16 0.500000 0.646908 0.250000
#
# Coordination Sequence:
#
# PCOD9525938 Si02
#       7
#    16   8  16  16  16  16  16
#     4  10  22  37  62  92 117 154 204 262 306 356
#     4  10  19  32  61  84 114 154 205 244 295 366
#     4  11  22  38  60  88 119 163 202 253 304 365
#     4  11  22  40  58  87 132 168 194 240 322 374
#     4  11  18  34  61  89 116 155 205 249 297 363
#     4  10  21  42  65  84 118 166 206 247 314 377
#     4  11  27  38  59  97 128 159 206 263 300 358
#
# _framework density 18.427185999999999
#
# number of rings (size 3 to 8) (size 9 to 14) (size 15 to 20)
#    0.000    1.385    6.154    0.231    4.308    4.308 
#    0.000    1.538    0.000    0.000    0.000    0.000 
#    0.000    0.000    0.000    0.000    0.000    0.000 
#
# Total GULP energy -289977.255117 kJ/mol
# GULP energy per Si atom -5576.485675 kJ/mol
# Density = 1.838524 g / cm^3
# Si number density = 18.427186 Si / 1000 Ang^3
#
#
#
# Elastic Constant Matrix: (Units=GPa)
#
#
# Indices 1 2 3 4 5 6 
#
# 1 174.2382 53.7146 23.0639 0.0000 0.0000 0.0000
# 2 53.7146 82.6741 20.3209 0.0000 0.0000 0.0000
# 3 23.0639 20.3209 50.0764 0.0000 0.0000 0.0000
# 4 0.0000 0.0000 0.0000 1.7226 0.0000 0.0000
# 5 0.0000 0.0000 0.0000 0.0000 96.2654 0.0000
# 6 0.0000 0.0000 0.0000 0.0000 0.0000 27.2607
#
#
#
# Elastic Compliance Matrix: (Units=1/GPa)
#
#
# Indices 1 2 3 4 5 6 
#
# 1 0.007290 -0.004344 -0.001595 0.000000 0.000000 0.000000
# 2 -0.004344 0.016025 -0.004502 0.000000 0.000000 0.000000
# 3 -0.001595 -0.004502 0.022531 0.000000 0.000000 0.000000
# 4 0.000000 0.000000 0.000000 0.580526 0.000000 0.000000
# 5 0.000000 0.000000 0.000000 0.000000 0.010388 0.000000
# 6 0.000000 0.000000 0.000000 0.000000 0.000000 0.036683
#
#
# Mechanical properties :
#
#
# Convention : Reuss Voigt Hill
#
# Bulk Modulus (GPa) = 40.05820 55.68750 47.87285
# Shear Modulus (GPa) = 7.11597 39.04236 23.07917
#
# Velocity S-wave (km/s) = 1.96725 4.60797 3.54284
# Velocity P-wave (km/s) = 5.19095 7.65487 6.53999
#
# Compressibility (1/GPa) = 0.02496368
#
# Stress axis : x y z
#
# Youngs Moduli (GPa) = 137.18203 62.40341 44.38376
#
# Poissons Ratio (x) = 0.27109 0.07077
# Poissons Ratio (y) = 0.59595 0.19981
# Poissons Ratio (z) = 0.21874 0.28094
#
# Static dielectric constant tensor:
#      x y z
#    x 1.717800 0.000000 0.000000 
#    y 0.000000 1.614820 0.000000 
#    z 0.000000 0.000000 1.647910 
# 
# From -- ./inp_files/38261.got.cif
#   From: 2010.05.17/outbox.cif.g08.bks.cpg/sg72_20_cif.got.tgz:38261.got - 2010.06.03 17:03:01.
