data_PCOD9525695
_publ_section_title
;
Structure prediction by ZEFSAII (Michael W. Deem and Ramdas Pophale) SiO2 
 PCOD9525695
Probable space group: I B A M
;
_chemical_formula_sum "Si O2"
_cell_formula_units_Z 64
_cell_length_a 31.034977
_cell_length_b 5.208612
_cell_length_c 20.300948
_cell_angle_alpha 90.000000
_cell_angle_beta 90.000000
_cell_angle_gamma 90.000000
_cell_volume 3281.631062
_symmetry_space_group_name_H-M "I B A M"
_symmetry_group_IT_number 72
_symmetry_cell_setting 'orthorhombic'
loop_
_space_group_symop_operation_xyz
x,y,z
-x,-y,z
x,-y,1/2-z
-x,y,1/2-z
-x,-y,-z
x,y,-z
-x,y,1/2+z
x,-y,1/2+z
1/2+x,1/2+y,1/2+z
1/2-x,1/2-y,1/2+z
1/2+x,1/2-y,-z
1/2-x,1/2+y,-z
1/2-x,1/2-y,1/2-z
1/2+x,1/2+y,1/2-z
1/2-x,1/2+y,z
1/2+x,1/2-y,z
loop_
_atom_site_type_symbol
_atom_site_label
_atom_site_fract_x
_atom_site_fract_y
_atom_site_fract_z
Si Si1 0.279209 0.500000 0.250000
Si Si2 0.480453 0.757766 0.675557
Si Si3 0.158804 0.963267 0.374131
Si Si4 0.116487 0.462208 0.673699
Si Si5 0.280874 0.617822 0.000000
O O1 0.250000 0.750000 0.250000
O O2 0.309122 0.533708 0.187244
O O3 0.500000 0.500000 0.645596
O O4 0.500000 0.754218 0.750000
O O5 0.430316 0.826242 0.680794
O O6 0.500000 0.000000 0.638640
O O7 0.122760 0.743080 0.359153
O O8 0.141047 0.253784 0.371115
O O9 0.187361 0.898698 0.437385
O O10 0.131956 0.500000 0.750000
O O11 0.252105 0.876160 0.000000
#
# Coordination Sequence:
#
# PCOD9525695 Si02
#       5
#     8  16  16  16   8
#     4  12  22  36  56  88 119 150 197 258 330 388
#     4  10  19  30  53  86 133 165 201 238 311 368
#     4  12  25  40  64  91 125 167 210 270 329 377
#     4  12  21  38  59  97 135 162 202 269 320 379
#     4  12  26  50  70  88 122 172 230 270 318 398
#
# _framework density 19.502497999999999
#
# number of rings (size 3 to 8) (size 9 to 14) (size 15 to 20)
#    0.000    0.500    5.000    6.000    3.500    0.000 
#    0.000    0.000    0.000    0.000    0.000   17.500 
#    0.000    0.000    0.000    0.000    0.000    0.000 
#
# Total GULP energy -178318.438466 kJ/mol
# GULP energy per Si atom -5572.451202 kJ/mol
# Density = 1.945811 g / cm^3
# Si number density = 19.502498 Si / 1000 Ang^3
#
#
#
# Elastic Constant Matrix: (Units=GPa)
#
#
# Indices 1 2 3 4 5 6 
#
# 1 81.0469 26.2735 26.2791 0.0000 0.0000 0.0000
# 2 26.2735 177.1772 6.8515 0.0000 0.0000 0.0000
# 3 26.2791 6.8515 90.6816 0.0000 0.0000 0.0000
# 4 0.0000 0.0000 0.0000 14.9702 0.0000 0.0000
# 5 0.0000 0.0000 0.0000 0.0000 29.8438 0.0000
# 6 0.0000 0.0000 0.0000 0.0000 0.0000 82.0778
#
#
#
# Elastic Compliance Matrix: (Units=1/GPa)
#
#
# Indices 1 2 3 4 5 6 
#
# 1 0.014267 -0.001961 -0.003986 0.000000 0.000000 0.000000
# 2 -0.001961 0.005930 0.000120 0.000000 0.000000 0.000000
# 3 -0.003986 0.000120 0.012174 0.000000 0.000000 0.000000
# 4 0.000000 0.000000 0.000000 0.066799 0.000000 0.000000
# 5 0.000000 0.000000 0.000000 0.000000 0.033508 0.000000
# 6 0.000000 0.000000 0.000000 0.000000 0.000000 0.012184
#
#
# Mechanical properties :
#
#
# Convention : Reuss Voigt Hill
#
# Bulk Modulus (GPa) = 48.27165 51.96824 50.11995
# Shear Modulus (GPa) = 30.59563 44.67846 37.63705
#
# Velocity S-wave (km/s) = 3.96511 4.79154 4.39778
# Velocity P-wave (km/s) = 6.76521 7.57077 7.17930
#
# Compressibility (1/GPa) = 0.02071609
#
# Stress axis : x y z
#
# Youngs Moduli (GPa) = 70.09208 168.62612 82.14425
#
# Poissons Ratio (x) = 0.33076 0.32745
# Poissons Ratio (y) = 0.13748 -0.00989
# Poissons Ratio (z) = 0.27941 -0.02030
#
# Static dielectric constant tensor:
#      x y z
#    x 1.760020 0.000000 0.000000 
#    y 0.000000 1.564350 0.000000 
#    z 0.000000 0.000000 1.585850 
# 
# From -- ./inp_files/40570.got.cif
#   From: 2010.05.17/outbox.cif.g08.bks.cpg/sg72_21_cif.got.tgz:40570.got - 2010.06.03 17:03:01.
