data_PCOD9525770
_publ_section_title
;
Structure prediction by ZEFSAII (Michael W. Deem and Ramdas Pophale) SiO2 
 PCOD9525770
Probable space group: I B A M
;
_chemical_formula_sum "Si O2"
_cell_formula_units_Z 112
_cell_length_a 14.364387
_cell_length_b 23.586354
_cell_length_c 14.599378
_cell_angle_alpha 90.000000
_cell_angle_beta 90.000000
_cell_angle_gamma 90.000000
_cell_volume 4946.320609
_symmetry_space_group_name_H-M "I B A M"
_symmetry_group_IT_number 72
_symmetry_cell_setting 'orthorhombic'
loop_
_space_group_symop_operation_xyz
x,y,z
-x,-y,z
x,-y,1/2-z
-x,y,1/2-z
-x,-y,-z
x,y,-z
-x,y,1/2+z
x,-y,1/2+z
1/2+x,1/2+y,1/2+z
1/2-x,1/2-y,1/2+z
1/2+x,1/2-y,-z
1/2-x,1/2+y,-z
1/2-x,1/2-y,1/2-z
1/2+x,1/2+y,1/2-z
1/2-x,1/2+y,z
1/2+x,1/2-y,z
loop_
_atom_site_type_symbol
_atom_site_label
_atom_site_fract_x
_atom_site_fract_y
_atom_site_fract_z
Si Si1 0.825002 0.855479 0.298133
Si Si2 0.885153 0.839552 0.902089
Si Si3 0.646868 0.894845 0.388331
Si Si4 0.562375 0.132472 0.608544
Si Si5 0.040497 0.061769 0.394268
Si Si6 0.610730 0.983879 0.106798
Si Si7 0.959611 0.756205 0.350198
O O1 0.825837 0.843425 0.189958
O O2 0.724498 0.857605 0.341803
O O3 0.882089 0.912438 0.326510
O O4 0.883846 0.805408 0.344825
O O5 0.956372 0.892727 0.894955
O O6 0.951330 0.783745 0.901062
O O7 0.835017 0.842784 0.000000
O O8 0.652697 0.892546 0.500000
O O9 0.544461 0.874571 0.359922
O O10 0.659840 0.960191 0.356524
O O11 0.559199 0.121158 0.500000
O O12 0.620108 0.079072 0.647323
O O13 0.585846 0.197750 0.619141
O O14 0.076787 0.059223 0.500000
O O15 0.000000 0.000000 0.370776
O O16 0.500000 0.000000 0.110162
O O17 0.638316 0.982126 0.000000
O O18 0.000000 0.746141 0.250000
#
# Coordination Sequence:
#
# PCOD9525770 Si02
#       7
#    16  16  16  16  16  16  16
#     4  10  19  31  51  81 112 145 189 239 284 334
#     4   9  18  32  49  72 105 145 191 238 283 337
#     4   9  17  30  51  82 115 145 183 235 291 341
#     4   9  16  29  54  81 107 146 189 229 281 350
#     4   9  17  30  51  77 105 142 183 222 272 341
#     4   7  12  25  47  76 106 137 178 225 276 343
#     4   9  18  32  51  77 107 145 192 238 284 346
#
# _framework density 22.643091999999999
#
# number of rings (size 3 to 8) (size 9 to 14) (size 15 to 20)
#    0.000    3.143    0.000    3.857    0.000    2.857 
#    0.000    2.857    0.000   10.714    0.000   13.000 
#    0.000    9.714    0.000    0.000    0.000    0.000 
#
# Total GULP energy -312527.671198 kJ/mol
# GULP energy per Si atom -5580.851271 kJ/mol
# Density = 2.259156 g / cm^3
# Si number density = 22.643092 Si / 1000 Ang^3
#
#
#
# Elastic Constant Matrix: (Units=GPa)
#
#
# Indices 1 2 3 4 5 6 
#
# 1 28.5129 6.9813 27.6160 0.0000 0.0000 0.0000
# 2 6.9813 119.3811 27.5430 0.0001 0.0000 0.0000
# 3 27.6160 27.5430 97.7545 0.0002 0.0000 0.0000
# 4 0.0000 0.0001 0.0002 17.4751 0.0000 0.0000
# 5 0.0000 0.0000 0.0000 0.0000 19.1621 0.0000
# 6 0.0000 0.0000 0.0000 0.0000 0.0000 9.1416
#
#
#
# Elastic Compliance Matrix: (Units=1/GPa)
#
#
# Indices 1 2 3 4 5 6 
#
# 1 0.048296 0.000346 -0.013741 0.000000 0.000000 0.000000
# 2 0.000346 0.008961 -0.002623 0.000000 0.000000 0.000000
# 3 -0.013741 -0.002623 0.014851 0.000000 0.000000 0.000000
# 4 0.000000 0.000000 0.000000 0.057224 0.000000 0.000000
# 5 0.000000 0.000000 0.000000 0.000000 0.052186 0.000000
# 6 0.000000 0.000000 0.000000 0.000000 0.000000 0.109390
#
#
# Mechanical properties :
#
#
# Convention : Reuss Voigt Hill
#
# Bulk Modulus (GPa) = 24.95490 41.10324 33.02907
# Shear Modulus (GPa) = 14.86756 21.38964 18.12860
#
# Velocity S-wave (km/s) = 2.56521 3.07684 2.83260
# Velocity P-wave (km/s) = 4.45181 5.55109 5.03156
#
# Compressibility (1/GPa) = 0.04007228
#
# Stress axis : x y z
#
# Youngs Moduli (GPa) = 20.70548 111.58985 67.33700
#
# Poissons Ratio (x) = -0.03861 0.92531
# Poissons Ratio (y) = -0.00716 0.17660
# Poissons Ratio (z) = 0.28452 0.29266
#
# Static dielectric constant tensor:
#      x y z
#    x 1.819740 0.000000 0.000000 
#    y 0.000000 1.891140 0.000000 
#    z 0.000000 0.000000 1.893010 
# 
# From -- ./inp_files/22147.got.cif
#   From: 2010.05.17/outbox.cif.g08.bks.cpg/sg72_12_cif.got.tgz:22147.got - 2010.06.03 17:03:01.
