data_PCOD9525488
_publ_section_title
;
Structure prediction by ZEFSAII (Michael W. Deem and Ramdas Pophale) SiO2 
 PCOD9525488
Probable space group: I B A M
;
_chemical_formula_sum "Si O2"
_cell_formula_units_Z 112
_cell_length_a 15.369320
_cell_length_b 25.120981
_cell_length_c 14.660855
_cell_angle_alpha 90.000000
_cell_angle_beta 90.000000
_cell_angle_gamma 90.000000
_cell_volume 5660.444630
_symmetry_space_group_name_H-M "I B A M"
_symmetry_group_IT_number 72
_symmetry_cell_setting 'orthorhombic'
loop_
_space_group_symop_operation_xyz
x,y,z
-x,-y,z
x,-y,1/2-z
-x,y,1/2-z
-x,-y,-z
x,y,-z
-x,y,1/2+z
x,-y,1/2+z
1/2+x,1/2+y,1/2+z
1/2-x,1/2-y,1/2+z
1/2+x,1/2-y,-z
1/2-x,1/2+y,-z
1/2-x,1/2-y,1/2-z
1/2+x,1/2+y,1/2-z
1/2-x,1/2+y,z
1/2+x,1/2-y,z
loop_
_atom_site_type_symbol
_atom_site_label
_atom_site_fract_x
_atom_site_fract_y
_atom_site_fract_z
Si Si1 0.202109 0.281059 0.169929
Si Si2 0.508414 0.887975 0.103759
Si Si3 0.624924 0.674380 0.901619
Si Si4 0.400112 0.481933 0.395834
Si Si5 0.660381 0.578059 0.226194
Si Si6 0.984249 0.263537 0.641700
Si Si7 0.141799 0.604906 0.262077
O O1 0.250000 0.250000 0.250000
O O2 0.279416 0.298816 0.103561
O O3 0.161169 0.333147 0.217358
O O4 0.118481 0.251950 0.126902
O O5 0.502361 0.823104 0.105173
O O6 0.422300 0.910248 0.154595
O O7 0.588703 0.902056 0.169130
O O8 0.515783 0.905808 0.000000
O O9 0.625338 0.632291 0.819286
O O10 0.550837 0.719201 0.893765
O O11 0.615305 0.646875 0.000000
O O12 0.500000 0.500000 0.397839
O O13 0.372472 0.470591 0.500000
O O14 0.386160 0.435198 0.321866
O O15 0.353437 0.531727 0.347826
O O16 0.763650 0.579860 0.241772
O O17 0.000000 0.264944 0.750000
#
# Coordination Sequence:
#
# PCOD9525488 Si02
#       7
#    16  16  16  16  16  16  16
#     4  10  18  34  52  74 111 159 196 243 289 335
#     4  10  18  33  55  79 115 160 200 236 275 326
#     4  11  23  35  55  87 119 153 199 248 290 344
#     4  10  22  43  68  89 111 144 186 230 295 368
#     4  10  21  38  62  89 119 148 182 241 297 344
#     4  11  19  33  54  75 110 160 205 240 284 334
#     4   9  19  33  52  86 112 147 197 233 278 338
#
# _framework density 19.786431
#
# number of rings (size 3 to 8) (size 9 to 14) (size 15 to 20)
#    0.000    1.857    4.286    1.714    0.000    8.000 
#    0.000    0.000    0.000    8.571    0.000    8.000 
#    0.000    0.000    0.000    0.000    0.000    0.000 
#
# Total GULP energy -312379.709398 kJ/mol
# GULP energy per Si atom -5578.209096 kJ/mol
# Density = 1.974140 g / cm^3
# Si number density = 19.786431 Si / 1000 Ang^3
#
#
#
# Elastic Constant Matrix: (Units=GPa)
#
#
# Indices 1 2 3 4 5 6 
#
# 1 125.0535 27.1640 48.3283 -0.0001 0.0000 0.0000
# 2 27.1640 25.5901 24.9242 -0.0007 0.0000 0.0000
# 3 48.3283 24.9242 174.4656 -0.0009 0.0000 0.0000
# 4 -0.0001 -0.0007 -0.0009 -192.9257 0.0001 0.0000
# 5 0.0000 0.0000 0.0000 0.0001 9.4420 0.0000
# 6 0.0000 0.0000 0.0000 0.0000 0.0000 30.0500
#
#
#
# Elastic Compliance Matrix: (Units=1/GPa)
#
#
# Indices 1 2 3 4 5 6 
#
# 1 0.010749 -0.009885 -0.001565 0.000000 0.000000 0.000000
# 2 -0.009885 0.054485 -0.005045 0.000000 0.000000 0.000000
# 3 -0.001565 -0.005045 0.006886 0.000000 0.000000 0.000000
# 4 0.000000 0.000000 0.000000 -0.005183 0.000000 0.000000
# 5 0.000000 0.000000 0.000000 0.000000 0.105909 0.000000
# 6 0.000000 0.000000 0.000000 0.000000 0.000000 0.033278
#
#
# Mechanical properties :
#
#
# Convention : Reuss Voigt Hill
#
# Bulk Modulus (GPa) = 25.55720 58.43804 41.99762
# Shear Modulus (GPa) = 19.82879 -15.70723 2.06078
#
# Velocity S-wave (km/s) = 3.16909 -2.82057 1.02165
# Velocity P-wave (km/s) = 5.13181 4.35787 4.76059
#
# Compressibility (1/GPa) = 0.03912792
#
# Stress axis : x y z
#
# Youngs Moduli (GPa) = 93.03377 18.35365 145.21854
#
# Poissons Ratio (x) = 0.18143 0.22731
# Poissons Ratio (y) = 0.91967 0.73269
# Poissons Ratio (z) = 0.14562 0.09260
#
# Static dielectric constant tensor:
#      x y z
#    x 1.730050 0.000000 0.000000 
#    y 0.000000 1.717150 0.000000 
#    z 0.000000 0.000000 1.717150 
# 
# From -- ./inp_files/22295.got.cif
#   From: 2010.05.17/outbox.cif.g08.bks.cpg/sg72_12_cif.got.tgz:22295.got - 2010.06.03 17:03:01.
