data_PCOD9525436
_publ_section_title
;
Structure prediction by ZEFSAII (Michael W. Deem and Ramdas Pophale) SiO2 
 PCOD9525436
Probable space group: I B A M
;
_chemical_formula_sum "Si O2"
_cell_formula_units_Z 128
_cell_length_a 25.645959
_cell_length_b 15.489825
_cell_length_c 16.762000
_cell_angle_alpha 90.000000
_cell_angle_beta 90.000000
_cell_angle_gamma 90.000000
_cell_volume 6658.728250
_symmetry_space_group_name_H-M "I B A M"
_symmetry_group_IT_number 72
_symmetry_cell_setting 'orthorhombic'
loop_
_space_group_symop_operation_xyz
x,y,z
-x,-y,z
x,-y,1/2-z
-x,y,1/2-z
-x,-y,-z
x,y,-z
-x,y,1/2+z
x,-y,1/2+z
1/2+x,1/2+y,1/2+z
1/2-x,1/2-y,1/2+z
1/2+x,1/2-y,-z
1/2-x,1/2+y,-z
1/2-x,1/2-y,1/2-z
1/2+x,1/2+y,1/2-z
1/2-x,1/2+y,z
1/2+x,1/2-y,z
loop_
_atom_site_type_symbol
_atom_site_label
_atom_site_fract_x
_atom_site_fract_y
_atom_site_fract_z
Si Si1 0.206782 0.561380 0.689412
Si Si2 0.440301 0.688601 0.658336
Si Si3 0.833939 0.249195 0.906902
Si Si4 0.838948 0.724650 0.094669
Si Si5 0.908684 0.998802 0.844491
Si Si6 0.557224 0.688934 0.648302
Si Si7 0.245261 0.173287 0.186459
Si Si8 0.300558 0.450237 0.907105
O O1 0.174687 0.500000 0.750000
O O2 0.175938 0.640039 0.647417
O O3 0.250667 0.594254 0.753331
O O4 0.242755 0.523478 0.619223
O O5 0.391849 0.743400 0.627364
O O6 0.431543 0.590345 0.627075
O O7 0.497887 0.715946 0.632275
O O8 0.436975 0.689473 0.754919
O O9 0.797680 0.318755 0.864757
O O10 0.808001 0.153612 0.895135
O O11 0.835585 0.265074 0.000000
O O12 0.898413 0.752342 0.109571
O O13 0.803260 0.802552 0.130667
O O14 0.828147 0.712435 0.000000
O O15 0.933054 0.910746 0.877060
O O16 0.918307 0.000000 0.750000
O O17 0.847136 0.003108 0.861009
O O18 0.250000 0.250000 0.250000
O O19 0.308393 0.467405 0.000000
#
# Coordination Sequence:
#
# PCOD9525436 Si02
#       8
#    16  16  16  16  16  16  16  16
#     4  11  23  37  57  78 104 147 194 237 279 340
#     4   9  18  33  53  80 112 150 197 236 261 320
#     4  10  18  32  53  76 106 143 180 225 281 329
#     4  11  23  38  55  80 118 148 180 237 295 342
#     4   9  18  30  51  75 114 157 196 233 264 313
#     4  10  20  33  53  80 112 154 195 228 278 329
#     4  10  19  34  57  79 104 139 184 227 274 334
#     4  10  19  31  49  76 111 150 188 230 282 328
#
# _framework density 19.22289
#
# number of rings (size 3 to 8) (size 9 to 14) (size 15 to 20)
#    0.000    2.000    2.500    3.000    5.250    2.500 
#    0.000    1.875    0.000    3.750    0.000    7.000 
#    0.000   10.000    0.000    0.000    0.000    0.000 
#
# Total GULP energy -356843.626907 kJ/mol
# GULP energy per Si atom -5575.681670 kJ/mol
# Density = 1.917914 g / cm^3
# Si number density = 19.222890 Si / 1000 Ang^3
#
#
#
# Elastic Constant Matrix: (Units=GPa)
#
#
# Indices 1 2 3 4 5 6 
#
# 1 112.8104 15.8927 29.5862 0.0000 0.0000 0.0000
# 2 15.8927 33.9447 19.0000 0.0000 0.0000 0.0000
# 3 29.5862 19.0000 64.4560 0.0000 0.0000 0.0000
# 4 0.0000 0.0000 0.0000 16.9828 0.0000 0.0000
# 5 0.0000 0.0000 0.0000 0.0000 -6.3609 0.0000
# 6 0.0000 0.0000 0.0000 0.0000 0.0000 17.1843
#
#
#
# Elastic Compliance Matrix: (Units=1/GPa)
#
#
# Indices 1 2 3 4 5 6 
#
# 1 0.010265 -0.002597 -0.003946 0.000000 0.000000 0.000000
# 2 -0.002597 0.035938 -0.009401 0.000000 0.000000 0.000000
# 3 -0.003946 -0.009401 0.020097 0.000000 0.000000 0.000000
# 4 0.000000 0.000000 0.000000 0.058883 0.000000 0.000000
# 5 0.000000 0.000000 0.000000 0.000000 -0.157211 0.000000
# 6 0.000000 0.000000 0.000000 0.000000 0.000000 0.058193
#
#
# Mechanical properties :
#
#
# Convention : Reuss Voigt Hill
#
# Bulk Modulus (GPa) = 29.06093 37.79654 33.42873
# Shear Modulus (GPa) = 71.91674 15.34340 43.63007
#
# Velocity S-wave (km/s) = 6.12317 2.82828 4.76930
# Velocity P-wave (km/s) = 8.07104 5.51094 6.91058
#
# Compressibility (1/GPa) = 0.03441046
#
# Stress axis : x y z
#
# Youngs Moduli (GPa) = 97.41544 27.82572 49.75833
#
# Poissons Ratio (x) = 0.07227 0.19636
# Poissons Ratio (y) = 0.25302 0.46780
# Poissons Ratio (z) = 0.38443 0.26160
#
# Static dielectric constant tensor:
#      x y z
#    x 1.621470 0.000000 0.000000 
#    y 0.000000 1.777100 0.000000 
#    z 0.000000 0.000000 1.728650 
# 
# From -- ./inp_files/33527.got.cif
#   From: 2010.05.17/outbox.cif.g08.bks.cpg/sg72_17_cif.got.tgz:33527.got - 2010.06.03 17:03:01.
