data_PCOD9525956
_publ_section_title
;
Structure prediction by ZEFSAII (Michael W. Deem and Ramdas Pophale) SiO2 
 PCOD9525956
Probable space group: I B A M
;
_chemical_formula_sum "Si O2"
_cell_formula_units_Z 112
_cell_length_a 24.539625
_cell_length_b 13.167290
_cell_length_c 17.668738
_cell_angle_alpha 90.000000
_cell_angle_beta 90.000000
_cell_angle_gamma 90.000000
_cell_volume 5709.128963
_symmetry_space_group_name_H-M "I B A M"
_symmetry_group_IT_number 72
_symmetry_cell_setting 'orthorhombic'
loop_
_space_group_symop_operation_xyz
x,y,z
-x,-y,z
x,-y,1/2-z
-x,y,1/2-z
-x,-y,-z
x,y,-z
-x,y,1/2+z
x,-y,1/2+z
1/2+x,1/2+y,1/2+z
1/2-x,1/2-y,1/2+z
1/2+x,1/2-y,-z
1/2-x,1/2+y,-z
1/2-x,1/2-y,1/2-z
1/2+x,1/2+y,1/2-z
1/2-x,1/2+y,z
1/2+x,1/2-y,z
loop_
_atom_site_type_symbol
_atom_site_label
_atom_site_fract_x
_atom_site_fract_y
_atom_site_fract_z
Si Si1 0.944178 0.722957 0.848457
Si Si2 0.258706 0.054718 0.087980
Si Si3 0.934291 0.505816 0.084368
Si Si4 0.654967 0.676167 0.590192
Si Si5 0.066622 0.699478 0.168824
Si Si6 0.317421 0.771911 0.333436
Si Si7 0.213977 0.357249 0.175539
O O1 0.922925 0.619168 0.887473
O O2 0.904962 0.814317 0.873545
O O3 0.940251 0.705182 0.758874
O O4 0.008690 0.732812 0.866398
O O5 0.196470 0.084771 0.110392
O O6 0.292966 0.157426 0.101098
O O7 0.284390 0.967759 0.139768
O O8 0.259332 0.024853 0.000000
O O9 0.920135 0.415100 0.141096
O O10 0.000000 0.500000 0.080149
O O11 0.911699 0.488903 0.000000
O O12 0.650171 0.677750 0.500000
O O13 0.685587 0.776728 0.620046
O O14 0.121195 0.760499 0.149738
O O15 0.276563 0.679860 0.317355
O O16 0.314150 0.840137 0.256705
#
# Coordination Sequence:
#
# PCOD9525956 Si02
#       7
#    16  16  16  16  16  16  16
#     4  10  19  33  52  73 106 147 181 225 275 329
#     4  10  22  37  55  82 113 146 184 231 279 329
#     4   9  18  30  44  68 102 141 182 218 263 328
#     4  10  20  35  56  82 110 146 192 228 273 340
#     4  10  20  33  50  76 108 140 181 227 277 332
#     4  10  21  36  55  83 109 141 184 227 275 336
#     4  10  20  37  58  79 109 145 182 228 282 325
#
# _framework density 19.617702999999999
#
# number of rings (size 3 to 8) (size 9 to 14) (size 15 to 20)
#    0.000    2.143    1.429    1.714    2.000    4.571 
#    0.000    0.000    0.000    0.857    0.000    4.000 
#    0.000    0.000    0.000    0.000    0.000    0.000 
#
# Total GULP energy -312325.754989 kJ/mol
# GULP energy per Si atom -5577.245625 kJ/mol
# Density = 1.957305 g / cm^3
# Si number density = 19.617703 Si / 1000 Ang^3
#
#
#
# Elastic Constant Matrix: (Units=GPa)
#
#
# Indices 1 2 3 4 5 6 
#
# 1 123.2190 0.9148 -0.8379 0.0000 0.0000 0.0000
# 2 0.9148 16.8608 2.4090 0.0000 0.0000 0.0000
# 3 -0.8379 2.4090 49.9907 0.0000 0.0000 0.0000
# 4 0.0000 0.0000 0.0000 2.3350 0.0000 0.0000
# 5 0.0000 0.0000 0.0000 0.0000 21.1560 0.0000
# 6 0.0000 0.0000 0.0000 0.0000 0.0000 21.6580
#
#
#
# Elastic Compliance Matrix: (Units=1/GPa)
#
#
# Indices 1 2 3 4 5 6 
#
# 1 0.008120 -0.000463 0.000158 0.000000 0.000000 0.000000
# 2 -0.000463 0.059747 -0.002887 0.000000 0.000000 0.000000
# 3 0.000158 -0.002887 0.020145 0.000000 0.000000 0.000000
# 4 0.000000 0.000000 0.000000 0.428269 0.000000 0.000000
# 5 0.000000 0.000000 0.000000 0.000000 0.047268 0.000000
# 6 0.000000 0.000000 0.000000 0.000000 0.000000 0.046172
#
#
# Mechanical properties :
#
#
# Convention : Reuss Voigt Hill
#
# Bulk Modulus (GPa) = 12.25053 21.67137 16.96095
# Shear Modulus (GPa) = 7.77224 21.53543 14.65384
#
# Velocity S-wave (km/s) = 1.99260 3.31683 2.73604
# Velocity P-wave (km/s) = 3.39884 5.07339 4.31807
#
# Compressibility (1/GPa) = 0.08162912
#
# Stress axis : x y z
#
# Youngs Moduli (GPa) = 123.15049 16.73727 49.63890
#
# Poissons Ratio (x) = 0.00775 -0.00786
# Poissons Ratio (y) = 0.05705 0.14330
# Poissons Ratio (z) = -0.01951 0.04832
#
# Static dielectric constant tensor:
#      x y z
#    x 1.780710 0.000000 0.000000 
#    y 0.000000 1.662060 0.000000 
#    z 0.000000 0.000000 1.697100 
# 
# From -- ./inp_files/25955.got.cif
#   From: 2010.05.17/outbox.cif.g08.bks.cpg/sg72_13_cif.got.tgz:25955.got - 2010.06.03 17:03:01.
