data_PCOD9525199
_publ_section_title
;
Structure prediction by ZEFSAII (Michael W. Deem and Ramdas Pophale) SiO2 
 PCOD9525199
Probable space group: I B A M
;
_chemical_formula_sum "Si O2"
_cell_formula_units_Z 104
_cell_length_a 24.375270
_cell_length_b 9.068283
_cell_length_c 26.172341
_cell_angle_alpha 90.000000
_cell_angle_beta 90.000000
_cell_angle_gamma 90.000000
_cell_volume 5785.182583
_symmetry_space_group_name_H-M "I B A M"
_symmetry_group_IT_number 72
_symmetry_cell_setting 'orthorhombic'
loop_
_space_group_symop_operation_xyz
x,y,z
-x,-y,z
x,-y,1/2-z
-x,y,1/2-z
-x,-y,-z
x,y,-z
-x,y,1/2+z
x,-y,1/2+z
1/2+x,1/2+y,1/2+z
1/2-x,1/2-y,1/2+z
1/2+x,1/2-y,-z
1/2-x,1/2+y,-z
1/2-x,1/2-y,1/2-z
1/2+x,1/2+y,1/2-z
1/2-x,1/2+y,z
1/2+x,1/2-y,z
loop_
_atom_site_type_symbol
_atom_site_label
_atom_site_fract_x
_atom_site_fract_y
_atom_site_fract_z
Si Si1 0.378261 0.818338 0.000000
Si Si2 0.784699 0.459222 0.000000
Si Si3 0.153616 0.259887 0.580659
Si Si4 0.290777 0.153360 0.180847
Si Si5 0.344248 0.489902 0.000000
Si Si6 0.674521 0.348186 0.777476
Si Si7 0.064191 0.496815 0.090341
Si Si8 0.884519 0.423450 0.695855
O O1 0.376071 0.643085 0.000000
O O2 0.407381 0.885663 0.949843
O O3 0.316639 0.885580 0.000000
O O4 0.806413 0.365566 0.952176
O O5 0.720502 0.478297 0.000000
O O6 0.184346 0.251358 0.634697
O O7 0.145033 0.110213 0.549824
O O8 0.096333 0.348089 0.583967
O O9 0.305150 0.239366 0.232491
O O10 0.225635 0.127289 0.183880
O O11 0.326025 0.002121 0.181448
O O12 0.659401 0.500000 0.750000
O O13 0.625993 0.251091 0.800830
O O14 0.075262 0.454554 0.149150
O O15 0.000000 0.500000 0.079434
O O16 0.900656 0.500000 0.750000
#
# Coordination Sequence:
#
# PCOD9525199 Si02
#       8
#     8   8  16  16   8  16  16  16
#     4  10  21  35  56  85 108 137 182 222 270 332
#     4   9  19  34  50  75 109 141 168 195 243 321
#     4   9  20  35  52  74 104 141 177 214 259 314
#     4   9  17  30  47  70 104 144 175 201 243 309
#     4  11  21  35  53  82 117 140 167 217 276 331
#     4  10  18  28  46  75 110 139 166 208 261 311
#     4  10  21  40  60  75  99 139 188 237 276 321
#     4   9  19  34  52  79 106 136 182 219 259 326
#
# _framework density 17.976962
#
# number of rings (size 3 to 8) (size 9 to 14) (size 15 to 20)
#    0.000    2.462    0.000    3.923    0.000    7.692 
#    0.000    1.538    0.000    0.000    0.000    9.692 
#    0.000    0.000    0.000    0.000    0.000    0.000 
#
# Total GULP energy -289909.413390 kJ/mol
# GULP energy per Si atom -5575.181027 kJ/mol
# Density = 1.793605 g / cm^3
# Si number density = 17.976962 Si / 1000 Ang^3
#
#
#
# Elastic Constant Matrix: (Units=GPa)
#
#
# Indices 1 2 3 4 5 6 
#
# 1 81.1546 27.8122 28.1005 0.0000 0.0000 0.0000
# 2 27.8122 97.6063 9.8220 0.0000 0.0000 0.0000
# 3 28.1005 9.8220 80.2844 0.0000 0.0000 0.0000
# 4 0.0000 0.0000 0.0000 69.4521 0.0000 0.0000
# 5 0.0000 0.0000 0.0000 0.0000 -0.7087 0.0000
# 6 0.0000 0.0000 0.0000 0.0000 0.0000 4.4481
#
#
#
# Elastic Compliance Matrix: (Units=1/GPa)
#
#
# Indices 1 2 3 4 5 6 
#
# 1 0.015348 -0.003880 -0.004897 0.000000 0.000000 0.000000
# 2 -0.003880 0.011354 -0.000031 0.000000 0.000000 0.000000
# 3 -0.004897 -0.000031 0.014174 0.000000 0.000000 0.000000
# 4 0.000000 0.000000 0.000000 0.014398 0.000000 0.000000
# 5 0.000000 0.000000 0.000000 0.000000 -1.410997 0.000000
# 6 0.000000 0.000000 0.000000 0.000000 0.000000 0.224813
#
#
# Mechanical properties :
#
#
# Convention : Reuss Voigt Hill
#
# Bulk Modulus (GPa) = 42.99516 43.39053 43.19284
# Shear Modulus (GPa) = -4.52267 27.52568 11.50150
#
# Velocity S-wave (km/s) = -1.58785 3.91725 2.53215
# Velocity P-wave (km/s) = 4.53950 6.68199 5.71209
#
# Compressibility (1/GPa) = 0.02325843
#
# Stress axis : x y z
#
# Youngs Moduli (GPa) = 65.15638 88.07432 70.55394
#
# Poissons Ratio (x) = 0.34177 0.34551
# Poissons Ratio (y) = 0.25283 0.00218
# Poissons Ratio (z) = 0.31908 0.00272
#
# Static dielectric constant tensor:
#      x y z
#    x 1.595640 0.000000 0.000000 
#    y 0.000000 1.630550 0.000000 
#    z 0.000000 0.000000 1.686920 
# 
# From -- ./inp_files/49709.got.cif
#   From: 2010.05.17/outbox.cif.g08.bks.cpg/sg72_25_cif.got.tgz:49709.got - 2010.06.03 17:03:01.
