data_PCOD9525365
_publ_section_title
;
Structure prediction by ZEFSAII (Michael W. Deem and Ramdas Pophale) SiO2 
 PCOD9525365
Probable space group: I B A M
;
_chemical_formula_sum "Si O2"
_cell_formula_units_Z 96
_cell_length_a 18.362843
_cell_length_b 14.113966
_cell_length_c 13.865884
_cell_angle_alpha 90.000000
_cell_angle_beta 90.000000
_cell_angle_gamma 90.000000
_cell_volume 3593.656400
_symmetry_space_group_name_H-M "I B A M"
_symmetry_group_IT_number 72
_symmetry_cell_setting 'orthorhombic'
loop_
_space_group_symop_operation_xyz
x,y,z
-x,-y,z
x,-y,1/2-z
-x,y,1/2-z
-x,-y,-z
x,y,-z
-x,y,1/2+z
x,-y,1/2+z
1/2+x,1/2+y,1/2+z
1/2-x,1/2-y,1/2+z
1/2+x,1/2-y,-z
1/2-x,1/2+y,-z
1/2-x,1/2-y,1/2-z
1/2+x,1/2+y,1/2-z
1/2-x,1/2+y,z
1/2+x,1/2-y,z
loop_
_atom_site_type_symbol
_atom_site_label
_atom_site_fract_x
_atom_site_fract_y
_atom_site_fract_z
Si Si1 0.976563 0.108138 0.117159
Si Si2 0.990728 0.392377 0.635389
Si Si3 0.769895 0.437964 0.118090
Si Si4 0.823054 0.638757 0.890702
Si Si5 0.127303 0.734043 0.107462
Si Si6 0.365616 0.331857 0.617568
O O1 0.050473 0.163214 0.147507
O O2 0.902854 0.164925 0.149346
O O3 0.971227 0.108843 0.000000
O O4 0.000000 0.000000 0.142380
O O5 0.910023 0.367303 0.606339
O O6 0.000000 0.500000 0.604395
O O7 0.000000 0.389600 0.750000
O O8 0.051965 0.323254 0.598073
O O9 0.794506 0.541464 0.152960
O O10 0.820363 0.348782 0.150003
O O11 0.685221 0.420957 0.140292
O O12 0.778324 0.438710 0.000000
O O13 0.817673 0.742822 0.846385
O O14 0.794525 0.641828 0.000000
O O15 0.156110 0.754838 0.000000
O O16 0.367482 0.325935 0.500000
#
# Coordination Sequence:
#
# PCOD9525365 Si02
#       6
#    16  16  16  16  16  16
#     4   9  17  28  46  72 101 133 168 211 258 307
#     4  11  21  31  49  79 103 130 167 220 267 308
#     4   9  18  28  45  74 103 132 169 211 252 306
#     4  10  18  31  52  75 104 139 171 209 263 318
#     4  10  18  31  51  75 102 134 172 212 259 316
#     4   9  17  29  45  72 106 135 165 207 261 309
#
# _framework density 26.713739
#
# number of rings (size 3 to 8) (size 9 to 14) (size 15 to 20)
#    0.000    2.333    3.333    0.500    0.000    2.000 
#    0.000    6.667    0.000    1.500    0.000    0.000 
#    0.000    0.000    0.000    0.000    0.000    0.000 
#
# Total GULP energy -268068.810979 kJ/mol
# GULP energy per Si atom -5584.766895 kJ/mol
# Density = 2.665294 g / cm^3
# Si number density = 26.713739 Si / 1000 Ang^3
#
#
#
# Elastic Constant Matrix: (Units=GPa)
#
#
# Indices 1 2 3 4 5 6 
#
# 1 108.5271 43.4517 -19.6314 0.0000 0.0000 0.0000
# 2 43.4517 160.2295 -5.7599 0.0000 0.0000 0.0000
# 3 -19.6314 -5.7599 100.0914 0.0000 0.0000 0.0000
# 4 0.0000 0.0000 0.0000 -86.0783 0.0000 0.0000
# 5 0.0000 0.0000 0.0000 0.0000 -14.2648 0.0000
# 6 0.0000 0.0000 0.0000 0.0000 0.0000 53.6072
#
#
#
# Elastic Compliance Matrix: (Units=1/GPa)
#
#
# Indices 1 2 3 4 5 6 
#
# 1 0.010698 -0.002832 0.001935 0.000000 0.000000 0.000000
# 2 -0.002832 0.007003 -0.000152 0.000000 0.000000 0.000000
# 3 0.001935 -0.000152 0.010362 0.000000 0.000000 0.000000
# 4 0.000000 0.000000 0.000000 -0.011617 0.000000 0.000000
# 5 0.000000 0.000000 0.000000 0.000000 -0.070102 0.000000
# 6 0.000000 0.000000 0.000000 0.000000 0.000000 0.018654
#
#
# Mechanical properties :
#
#
# Convention : Reuss Voigt Hill
#
# Bulk Modulus (GPa) = 38.51191 44.99652 41.75422
# Shear Modulus (GPa) = -206.18714 14.03865 -96.07424
#
# Velocity S-wave (km/s) = -8.79497 2.29491 -6.00353
# Velocity P-wave (km/s) = 9.41740 4.88904 5.69143
#
# Compressibility (1/GPa) = 0.02596599
#
# Stress axis : x y z
#
# Youngs Moduli (GPa) = 93.47484 142.78675 96.50942
#
# Poissons Ratio (x) = 0.40431 -0.18678
# Poissons Ratio (y) = 0.26468 0.01470
# Poissons Ratio (z) = -0.18090 0.02175
#
# Static dielectric constant tensor:
#      x y z
#    x 3.869460 0.000000 0.000000 
#    y 0.000000 2.230740 0.000000 
#    z 0.000000 0.000000 2.077910 
# 
# From -- ./inp_files/39720.got.cif
#   From: 2010.05.17/outbox.cif.g08.bks.cpg/sg72_20_cif.got.tgz:39720.got - 2010.06.03 17:03:01.
