data_PCOD9525224
_publ_section_title
;
Structure prediction by ZEFSAII (Michael W. Deem and Ramdas Pophale) SiO2 
 PCOD9525224
Probable space group: I B A M
;
_chemical_formula_sum "Si O2"
_cell_formula_units_Z 68
_cell_length_a 14.103356
_cell_length_b 7.818258
_cell_length_c 28.701819
_cell_angle_alpha 90.000000
_cell_angle_beta 90.000000
_cell_angle_gamma 90.000000
_cell_volume 3164.768067
_symmetry_space_group_name_H-M "I B A M"
_symmetry_group_IT_number 72
_symmetry_cell_setting 'orthorhombic'
loop_
_space_group_symop_operation_xyz
x,y,z
-x,-y,z
x,-y,1/2-z
-x,y,1/2-z
-x,-y,-z
x,y,-z
-x,y,1/2+z
x,-y,1/2+z
1/2+x,1/2+y,1/2+z
1/2-x,1/2-y,1/2+z
1/2+x,1/2-y,-z
1/2-x,1/2+y,-z
1/2-x,1/2-y,1/2-z
1/2+x,1/2+y,1/2-z
1/2-x,1/2+y,z
1/2+x,1/2-y,z
loop_
_atom_site_type_symbol
_atom_site_label
_atom_site_fract_x
_atom_site_fract_y
_atom_site_fract_z
Si Si1 0.000000 0.000000 0.750000
Si Si2 0.900460 0.687036 0.400528
Si Si3 0.895602 0.373581 0.000000
Si Si4 0.700595 0.446995 0.903913
Si Si5 0.948036 0.171783 0.659903
Si Si6 0.813150 0.241623 0.500000
O O1 0.054883 0.872754 0.714689
O O2 0.947051 0.667808 0.451654
O O3 0.814361 0.552039 0.399364
O O4 0.979147 0.688511 0.360115
O O5 0.840633 0.863314 0.399862
O O6 0.857023 0.568995 0.000000
O O7 0.802058 0.253353 0.000000
O O8 0.654017 0.333244 0.863113
O O9 0.667669 0.363441 0.952778
O O10 0.000000 0.000000 0.640726
#
# Coordination Sequence:
#
# PCOD9525224 Si02
#       6
#     4  16   8  16  16   8
#     4   8  16  40  56  74  98 130 184 220 278 298
#     4  10  18  32  51  78 105 142 175 210 252 306
#     4  10  18  29  46  75 112 148 170 205 247 305
#     4  10  18  32  51  78 105 142 175 210 252 306
#     4   8  18  33  56  70 100 135 174 216 259 315
#     4  10  18  29  46  75 112 148 170 205 247 305
#
# _framework density 21.486564999999999
#
# number of rings (size 3 to 8) (size 9 to 14) (size 15 to 20)
#    0.706    1.882    0.000    6.353    0.000    0.941 
#    0.000   10.588    0.000    0.000    0.000    6.588 
#    0.000    0.000    0.000    0.000    0.000    0.000 
#
# Total GULP energy -189350.972167 kJ/mol
# GULP energy per Si atom -5569.146240 kJ/mol
# Density = 2.143766 g / cm^3
# Si number density = 21.486565 Si / 1000 Ang^3
#
#
#
# Elastic Constant Matrix: (Units=GPa)
#
#
# Indices 1 2 3 4 5 6 
#
# 1 61.6056 8.8811 33.8073 0.0000 0.0000 0.0000
# 2 8.8811 90.5823 13.2570 0.0000 0.0000 0.0000
# 3 33.8073 13.2570 147.0380 0.0000 0.0000 0.0000
# 4 0.0000 0.0000 0.0000 107.2133 0.0000 0.0000
# 5 0.0000 0.0000 0.0000 0.0000 24.4602 0.0000
# 6 0.0000 0.0000 0.0000 0.0000 0.0000 22.4785
#
#
#
# Elastic Compliance Matrix: (Units=1/GPa)
#
#
# Indices 1 2 3 4 5 6 
#
# 1 0.018708 -0.001221 -0.004191 0.000000 0.000000 0.000000
# 2 -0.001221 0.011267 -0.000735 0.000000 0.000000 0.000000
# 3 -0.004191 -0.000735 0.007831 0.000000 0.000000 0.000000
# 4 0.000000 0.000000 0.000000 0.009327 0.000000 0.000000
# 5 0.000000 0.000000 0.000000 0.000000 0.040883 0.000000
# 6 0.000000 0.000000 0.000000 0.000000 0.000000 0.044487
#
#
# Mechanical properties :
#
#
# Convention : Reuss Voigt Hill
#
# Bulk Modulus (GPa) = 39.19789 45.67962 42.43876
# Shear Modulus (GPa) = 32.61541 47.04910 39.83225
#
# Velocity S-wave (km/s) = 3.90031 4.68450 4.31027
# Velocity P-wave (km/s) = 6.21013 7.11092 6.67574
#
# Compressibility (1/GPa) = 0.02551158
#
# Stress axis : x y z
#
# Youngs Moduli (GPa) = 53.45193 88.75500 127.69861
#
# Poissons Ratio (x) = 0.10835 0.53524
# Poissons Ratio (y) = 0.06526 0.09388
# Poissons Ratio (z) = 0.22404 0.06525
#
# Static dielectric constant tensor:
#      x y z
#    x 1.860690 0.000000 0.000000 
#    y 0.000000 1.881290 0.000000 
#    z 0.000000 0.000000 1.800760 
# 
# From -- ./inp_files/51989.got.cif
#   From: 2010.05.17/outbox.cif.g08.bks.cpg/sg72_26_cif.got.tgz:51989.got - 2010.06.03 17:03:01.
