data_PCOD9525947
_publ_section_title
;
Structure prediction by ZEFSAII (Michael W. Deem and Ramdas Pophale) SiO2 
 PCOD9525947
Probable space group: I B A M
;
_chemical_formula_sum "Si O2"
_cell_formula_units_Z 116
_cell_length_a 25.117620
_cell_length_b 25.372860
_cell_length_c 8.895749
_cell_angle_alpha 90.000000
_cell_angle_beta 90.000000
_cell_angle_gamma 90.000000
_cell_volume 5669.312929
_symmetry_space_group_name_H-M "I B A M"
_symmetry_group_IT_number 72
_symmetry_cell_setting 'orthorhombic'
loop_
_space_group_symop_operation_xyz
x,y,z
-x,-y,z
x,-y,1/2-z
-x,y,1/2-z
-x,-y,-z
x,y,-z
-x,y,1/2+z
x,-y,1/2+z
1/2+x,1/2+y,1/2+z
1/2-x,1/2-y,1/2+z
1/2+x,1/2-y,-z
1/2-x,1/2+y,-z
1/2-x,1/2-y,1/2-z
1/2+x,1/2+y,1/2-z
1/2-x,1/2+y,z
1/2+x,1/2-y,z
loop_
_atom_site_type_symbol
_atom_site_label
_atom_site_fract_x
_atom_site_fract_y
_atom_site_fract_z
Si Si1 0.500000 0.500000 0.750000
Si Si2 0.364345 0.787566 0.817181
Si Si3 0.056038 0.198754 0.179888
Si Si4 0.557835 0.874990 0.178897
Si Si5 0.695116 0.555784 0.179416
Si Si6 0.912768 0.080868 0.330759
Si Si7 0.273476 0.142606 0.671954
Si Si8 0.363140 0.948336 0.171895
O O1 0.460370 0.539184 0.835072
O O2 0.391082 0.731794 0.777151
O O3 0.406108 0.828766 0.748395
O O4 0.305248 0.806353 0.765047
O O5 0.364016 0.792158 0.000000
O O6 0.065317 0.137720 0.217793
O O7 0.000000 0.217539 0.250000
O O8 0.050534 0.203243 0.000000
O O9 0.500000 0.871769 0.250000
O O10 0.587040 0.928107 0.232309
O O11 0.555962 0.871168 0.000000
O O12 0.712915 0.500000 0.250000
O O13 0.633290 0.562268 0.219616
O O14 0.724867 0.608801 0.239398
O O15 0.703742 0.553262 0.000000
O O16 0.890251 0.085754 0.500000
O O17 0.258217 0.155887 0.500000
O O18 0.319549 0.097895 0.669781
O O19 0.340694 0.000000 0.250000
O O20 0.378485 0.958551 0.000000
#
# Coordination Sequence:
#
# PCOD9525947 Si02
#       8
#     4  16  16  16  16  16  16  16
#     4  12  22  40  68  86 130 160 198 232 298 348
#     4   9  18  36  59  81 110 148 190 239 293 346
#     4  10  21  37  59  87 119 155 197 246 296 354
#     4  11  21  33  49  72 102 138 183 233 289 351
#     4  11  22  37  59  87 119 155 197 243 292 351
#     4  11  24  40  60  91 124 159 198 238 294 355
#     4   8  17  34  56  81 110 148 191 235 288 346
#     4  10  19  33  51  73 102 138 182 232 290 351
#
# _framework density 20.461033
#
# number of rings (size 3 to 8) (size 9 to 14) (size 15 to 20)
#    0.000    1.931    1.379    3.931    0.000    3.034 
#    0.000    8.276    0.000    0.000    0.000    0.000 
#    0.000    0.000    0.000    0.000    0.000    0.000 
#
# Total GULP energy -323360.066764 kJ/mol
# GULP energy per Si atom -5575.173565 kJ/mol
# Density = 2.041446 g / cm^3
# Si number density = 20.461033 Si / 1000 Ang^3
#
#
#
# Elastic Constant Matrix: (Units=GPa)
#
#
# Indices 1 2 3 4 5 6 
#
# 1 91.7825 32.8639 11.2532 0.0000 0.0000 0.0000
# 2 32.8639 99.7248 11.6953 0.0000 0.0000 0.0000
# 3 11.2532 11.6953 41.8736 0.0000 0.0000 0.0000
# 4 0.0000 0.0000 0.0000 16.0466 0.0000 0.0000
# 5 0.0000 0.0000 0.0000 0.0000 10.2557 0.0000
# 6 0.0000 0.0000 0.0000 0.0000 0.0000 29.1321
#
#
#
# Elastic Compliance Matrix: (Units=1/GPa)
#
#
# Indices 1 2 3 4 5 6 
#
# 1 0.012563 -0.003871 -0.002295 0.000000 0.000000 0.000000
# 2 -0.003871 0.011560 -0.002188 0.000000 0.000000 0.000000
# 3 -0.002295 -0.002188 0.025109 0.000000 0.000000 0.000000
# 4 0.000000 0.000000 0.000000 0.062319 0.000000 0.000000
# 5 0.000000 0.000000 0.000000 0.000000 0.097506 0.000000
# 6 0.000000 0.000000 0.000000 0.000000 0.000000 0.034326
#
#
# Mechanical properties :
#
#
# Convention : Reuss Voigt Hill
#
# Bulk Modulus (GPa) = 30.74707 38.33398 34.54053
# Shear Modulus (GPa) = 18.45475 22.92478 20.68976
#
# Velocity S-wave (km/s) = 3.00650 3.35089 3.18335
# Velocity P-wave (km/s) = 5.20690 5.80922 5.51629
#
# Compressibility (1/GPa) = 0.03252342
#
# Stress axis : x y z
#
# Youngs Moduli (GPa) = 79.60063 86.50620 39.82575
#
# Poissons Ratio (x) = 0.33485 0.09140
# Poissons Ratio (y) = 0.30812 0.08716
# Poissons Ratio (z) = 0.18268 0.18931
#
# Static dielectric constant tensor:
#      x y z
#    x 1.744970 0.000000 0.000000 
#    y 0.000000 1.787930 0.000000 
#    z 0.000000 0.000000 1.715440 
# 
# From -- ./inp_files/7251.got.cif
#   From: 2010.05.17/outbox.cif.g08.bks.cpg/sg72_4_cif.got.tgz:7251.got - 2010.06.03 17:03:01.
