data_PCOD9525897
_publ_section_title
;
Structure prediction by ZEFSAII (Michael W. Deem and Ramdas Pophale) SiO2 
 PCOD9525897
Probable space group: I B A M
;
_chemical_formula_sum "Si O2"
_cell_formula_units_Z 96
_cell_length_a 29.544069
_cell_length_b 9.647753
_cell_length_c 14.061490
_cell_angle_alpha 90.000000
_cell_angle_beta 90.000000
_cell_angle_gamma 90.000000
_cell_volume 4008.001058
_symmetry_space_group_name_H-M "I B A M"
_symmetry_group_IT_number 72
_symmetry_cell_setting 'orthorhombic'
loop_
_space_group_symop_operation_xyz
x,y,z
-x,-y,z
x,-y,1/2-z
-x,y,1/2-z
-x,-y,-z
x,y,-z
-x,y,1/2+z
x,-y,1/2+z
1/2+x,1/2+y,1/2+z
1/2-x,1/2-y,1/2+z
1/2+x,1/2-y,-z
1/2-x,1/2+y,-z
1/2-x,1/2-y,1/2-z
1/2+x,1/2+y,1/2-z
1/2-x,1/2+y,z
1/2+x,1/2-y,z
loop_
_atom_site_type_symbol
_atom_site_label
_atom_site_fract_x
_atom_site_fract_y
_atom_site_fract_z
Si Si1 0.782952 0.732654 0.883840
Si Si2 0.301304 0.454673 0.115788
Si Si3 0.884697 0.781562 0.383958
Si Si4 0.041940 0.582260 0.651069
Si Si5 0.641872 0.018318 0.107947
Si Si6 0.987577 0.156484 0.115102
O O1 0.735893 0.660148 0.857683
O O2 0.789074 0.890833 0.851436
O O3 0.822950 0.629023 0.851939
O O4 0.784472 0.738629 0.000000
O O5 0.350858 0.403104 0.144991
O O6 0.301154 0.458109 0.000000
O O7 0.885201 0.775957 0.500000
O O8 0.864899 0.634504 0.349192
O O9 0.936489 0.804654 0.355917
O O10 0.047186 0.500000 0.750000
O O11 0.091039 0.577782 0.605155
O O12 0.023786 0.737060 0.656521
O O13 0.000000 0.500000 0.602701
O O14 0.658323 0.993340 0.000000
O O15 0.989943 0.169340 0.000000
O O16 0.000000 0.000000 0.139306
#
# Coordination Sequence:
#
# PCOD9525897 Si02
#       6
#    16  16  16  16  16  16
#     4   9  17  27  45  74 109 149 184 229 290 354
#     4   9  16  27  43  72 115 148 181 227 290 362
#     4   9  17  29  47  75 110 145 182 233 294 352
#     4  11  23  39  57  81 116 156 205 243 298 361
#     4  10  19  32  54  80 109 148 194 244 295 348
#     4  10  21  36  59  89 121 154 193 250 310 363
#
# _framework density 23.952090999999999
#
# number of rings (size 3 to 8) (size 9 to 14) (size 15 to 20)
#    0.000    2.333    1.667    1.500    2.333    4.667 
#    0.000    1.667    0.000    0.000    0.000    4.667 
#    0.000    0.000    0.000    0.000    0.000    0.000 
#
# Total GULP energy -268506.936468 kJ/mol
# GULP energy per Si atom -5593.894510 kJ/mol
# Density = 2.389758 g / cm^3
# Si number density = 23.952091 Si / 1000 Ang^3
#
#
#
# Elastic Constant Matrix: (Units=GPa)
#
#
# Indices 1 2 3 4 5 6 
#
# 1 92.2334 49.9857 33.6861 0.0000 0.0000 0.0000
# 2 49.9857 207.0759 29.1441 0.0000 0.0000 0.0000
# 3 33.6861 29.1441 75.1575 0.0000 0.0000 0.0000
# 4 0.0000 0.0000 0.0000 -1.2891 0.0000 0.0000
# 5 0.0000 0.0000 0.0000 0.0000 25.3302 0.0000
# 6 0.0000 0.0000 0.0000 0.0000 0.0000 48.1367
#
#
#
# Elastic Compliance Matrix: (Units=1/GPa)
#
#
# Indices 1 2 3 4 5 6 
#
# 1 0.014251 -0.002688 -0.005345 0.000000 0.000000 0.000000
# 2 -0.002688 0.005615 -0.000973 0.000000 0.000000 0.000000
# 3 -0.005345 -0.000973 0.016078 0.000000 0.000000 0.000000
# 4 0.000000 0.000000 0.000000 -0.775746 0.000000 0.000000
# 5 0.000000 0.000000 0.000000 0.000000 0.039479 0.000000
# 6 0.000000 0.000000 0.000000 0.000000 0.000000 0.020774
#
#
# Mechanical properties :
#
#
# Convention : Reuss Voigt Hill
#
# Bulk Modulus (GPa) = 55.76302 66.67763 61.22032
# Shear Modulus (GPa) = -7.62706 31.87895 12.12594
#
# Velocity S-wave (km/s) = -1.78640 3.65217 2.25246
# Velocity P-wave (km/s) = 4.36768 6.75891 5.69032
#
# Compressibility (1/GPa) = 0.01793303
#
# Stress axis : x y z
#
# Youngs Moduli (GPa) = 70.17132 178.10018 62.19580
#
# Poissons Ratio (x) = 0.47868 0.33244
# Poissons Ratio (y) = 0.18860 0.06049
# Poissons Ratio (z) = 0.37507 0.17323
#
# Static dielectric constant tensor:
#      x y z
#    x 1.850940 0.000000 0.000000 
#    y 0.000000 1.874460 0.000000 
#    z 0.000000 0.000000 1.989580 
# 
# From -- ./inp_files/40694.got.cif
#   From: 2010.05.17/outbox.cif.g08.bks.cpg/sg72_21_cif.got.tgz:40694.got - 2010.06.03 17:03:01.
