data_PCOD9525873
_publ_section_title
;
Structure prediction by ZEFSAII (Michael W. Deem and Ramdas Pophale) SiO2 
 PCOD9525873
Probable space group: I B A M
;
_chemical_formula_sum "Si O2"
_cell_formula_units_Z 96
_cell_length_a 22.136079
_cell_length_b 13.021097
_cell_length_c 14.091110
_cell_angle_alpha 90.000000
_cell_angle_beta 90.000000
_cell_angle_gamma 90.000000
_cell_volume 4061.565631
_symmetry_space_group_name_H-M "I B A M"
_symmetry_group_IT_number 72
_symmetry_cell_setting 'orthorhombic'
loop_
_space_group_symop_operation_xyz
x,y,z
-x,-y,z
x,-y,1/2-z
-x,y,1/2-z
-x,-y,-z
x,y,-z
-x,y,1/2+z
x,-y,1/2+z
1/2+x,1/2+y,1/2+z
1/2-x,1/2-y,1/2+z
1/2+x,1/2-y,-z
1/2-x,1/2+y,-z
1/2-x,1/2-y,1/2-z
1/2+x,1/2+y,1/2-z
1/2-x,1/2+y,z
1/2+x,1/2-y,z
loop_
_atom_site_type_symbol
_atom_site_label
_atom_site_fract_x
_atom_site_fract_y
_atom_site_fract_z
Si Si1 0.854162 0.653351 0.390019
Si Si2 0.692490 0.934432 0.383440
Si Si3 0.608828 0.248970 0.106430
Si Si4 0.326044 0.623557 0.615712
Si Si5 0.007322 0.382407 0.362876
Si Si6 0.931970 0.030130 0.384224
O O1 0.834141 0.651856 0.500000
O O2 0.834159 0.543315 0.350469
O O3 0.829609 0.759505 0.349193
O O4 0.926588 0.657192 0.387591
O O5 0.687797 0.933071 0.500000
O O6 0.654243 0.835260 0.350389
O O7 0.762238 0.924835 0.356751
O O8 0.545590 0.188939 0.099823
O O9 0.592555 0.359092 0.149997
O O10 0.632711 0.270923 0.000000
O O11 0.327116 0.626227 0.500000
O O12 0.383686 0.556230 0.643155
O O13 0.000000 0.500000 0.395121
O O14 0.000000 0.382224 0.250000
O O15 0.933473 0.036005 0.500000
O O16 0.000000 0.000000 0.355593
#
# Coordination Sequence:
#
# PCOD9525873 Si02
#       6
#    16  16  16  16  16  16
#     4  10  19  33  55  80 110 141 177 221 266 317
#     4   9  18  29  46  78 108 137 171 213 260 308
#     4  10  19  32  53  77 106 137 175 219 262 314
#     4   9  18  30  49  79 114 141 171 215 266 316
#     4  11  22  35  52  78 106 141 176 222 273 317
#     4   9  17  29  47  74 105 137 171 211 260 309
#
# _framework density 23.636205
#
# number of rings (size 3 to 8) (size 9 to 14) (size 15 to 20)
#    0.000    2.333    1.667    1.500    2.333    3.333 
#    0.000    0.000    0.000    5.500    4.333    0.000 
#    0.000    0.000    0.000    0.000    0.000    0.000 
#
# Total GULP energy -268441.705157 kJ/mol
# GULP energy per Si atom -5592.535524 kJ/mol
# Density = 2.358241 g / cm^3
# Si number density = 23.636205 Si / 1000 Ang^3
#
#
#
# Elastic Constant Matrix: (Units=GPa)
#
#
# Indices 1 2 3 4 5 6 
#
# 1 163.9516 81.6755 2.6590 0.0000 0.0000 0.0000
# 2 81.6755 185.9584 33.9422 0.0000 0.0000 0.0000
# 3 2.6590 33.9422 79.1846 0.0000 0.0000 0.0000
# 4 0.0000 0.0000 0.0000 8.4205 0.0000 0.0000
# 5 0.0000 0.0000 0.0000 0.0000 -791.7088 0.0000
# 6 0.0000 0.0000 0.0000 0.0000 0.0000 -17.3649
#
#
#
# Elastic Compliance Matrix: (Units=1/GPa)
#
#
# Indices 1 2 3 4 5 6 
#
# 1 0.007935 -0.003728 0.001332 0.000000 0.000000 0.000000
# 2 -0.003728 0.007586 -0.003126 0.000000 0.000000 0.000000
# 3 0.001332 -0.003126 0.013924 0.000000 0.000000 0.000000
# 4 0.000000 0.000000 0.000000 0.118757 0.000000 0.000000
# 5 0.000000 0.000000 0.000000 0.000000 -0.001263 0.000000
# 6 0.000000 0.000000 0.000000 0.000000 0.000000 -0.057587
#
#
# Mechanical properties :
#
#
# Convention : Reuss Voigt Hill
#
# Bulk Modulus (GPa) = 54.35109 73.96087 64.15598
# Shear Modulus (GPa) = 46.93486 -139.40943 -46.23728
#
# Velocity S-wave (km/s) = 4.46097 -7.68826 -4.42770
# Velocity P-wave (km/s) = 7.04120 6.88863 1.03085
#
# Compressibility (1/GPa) = 0.01839890
#
# Stress axis : x y z
#
# Youngs Moduli (GPa) = 126.02307 131.82722 71.81781
#
# Poissons Ratio (x) = 0.49148 -0.09564
# Poissons Ratio (y) = 0.46984 0.22453
# Poissons Ratio (z) = -0.16782 0.41214
#
# Static dielectric constant tensor:
#      x y z
#    x 1.806090 0.000000 0.000000 
#    y 0.000000 1.864610 0.000000 
#    z 0.000000 0.000000 1.923580 
# 
# From -- ./inp_files/33282.got.cif
#   From: 2010.05.17/outbox.cif.g08.bks.cpg/sg72_17_cif.got.tgz:33282.got - 2010.06.03 17:03:01.
