data_PCOD9525498
_publ_section_title
;
Structure prediction by ZEFSAII (Michael W. Deem and Ramdas Pophale) SiO2 
 PCOD9525498
Probable space group: I B A M
;
_chemical_formula_sum "Si O2"
_cell_formula_units_Z 48
_cell_length_a 21.719734
_cell_length_b 17.484727
_cell_length_c 5.616052
_cell_angle_alpha 90.000000
_cell_angle_beta 90.000000
_cell_angle_gamma 90.000000
_cell_volume 2132.772235
_symmetry_space_group_name_H-M "I B A M"
_symmetry_group_IT_number 72
_symmetry_cell_setting 'orthorhombic'
loop_
_space_group_symop_operation_xyz
x,y,z
-x,-y,z
x,-y,1/2-z
-x,y,1/2-z
-x,-y,-z
x,y,-z
-x,y,1/2+z
x,-y,1/2+z
1/2+x,1/2+y,1/2+z
1/2-x,1/2-y,1/2+z
1/2+x,1/2-y,-z
1/2-x,1/2+y,-z
1/2-x,1/2-y,1/2-z
1/2+x,1/2+y,1/2-z
1/2-x,1/2+y,z
1/2+x,1/2-y,z
loop_
_atom_site_type_symbol
_atom_site_label
_atom_site_fract_x
_atom_site_fract_y
_atom_site_fract_z
Si Si1 0.703998 0.593616 0.000000
Si Si2 0.863603 0.702202 0.000000
Si Si3 0.750898 0.571064 0.500000
Si Si4 0.500540 0.182064 0.500000
Si Si5 0.381035 0.979531 0.000000
Si Si6 0.631164 0.734783 0.000000
O O1 0.738513 0.612013 0.249541
O O2 0.703741 0.501512 0.000000
O O3 0.642742 0.644174 0.000000
O O4 0.840133 0.732644 0.746117
O O5 0.936143 0.727107 0.000000
O O6 0.865870 0.610256 0.000000
O O7 0.818318 0.531763 0.500000
O O8 0.500000 0.138513 0.750000
O O9 0.561053 0.234642 0.500000
O O10 0.411644 0.000000 0.750000
#
# Coordination Sequence:
#
# PCOD9525498 Si02
#       6
#     8   8   8   8   8   8
#     4  10  18  33  57  80 107 150 184 222 279 326
#     4  10  21  35  56  86 108 145 186 229 281 338
#     4  10  19  35  54  75 111 149 193 223 260 327
#     4   8  16  32  54  76 107 138 170 224 278 326
#     4  12  21  38  60  75 110 158 188 227 277 321
#     4  10  19  35  57  84 112 140 182 233 287 331
#
# _framework density 22.505918000000001
#
# number of rings (size 3 to 8) (size 9 to 14) (size 15 to 20)
#    0.000    2.000    3.333    2.000    0.000    0.000 
#    0.000    1.667    0.000   27.000    0.000  126.000 
#    0.000    0.000    0.000    0.000    0.000    0.000 
#
# Total GULP energy -133662.677360 kJ/mol
# GULP energy per Si atom -5569.278223 kJ/mol
# Density = 2.245469 g / cm^3
# Si number density = 22.505918 Si / 1000 Ang^3
#
#
#
# Elastic Constant Matrix: (Units=GPa)
#
#
# Indices 1 2 3 4 5 6 
#
# 1 72.4752 52.7266 15.9192 0.0000 0.0000 0.0000
# 2 52.7266 83.8432 21.2811 0.0000 0.0000 0.0000
# 3 15.9192 21.2811 294.1268 0.0000 0.0000 0.0000
# 4 0.0000 0.0000 0.0000 17.7065 0.0000 0.0000
# 5 0.0000 0.0000 0.0000 0.0000 -24.2925 0.0000
# 6 0.0000 0.0000 0.0000 0.0000 0.0000 37.9354
#
#
#
# Elastic Compliance Matrix: (Units=1/GPa)
#
#
# Indices 1 2 3 4 5 6 
#
# 1 0.025449 -0.015947 -0.000224 0.000000 0.000000 0.000000
# 2 -0.015947 0.022143 -0.000739 0.000000 0.000000 0.000000
# 3 -0.000224 -0.000739 0.003465 0.000000 0.000000 0.000000
# 4 0.000000 0.000000 0.000000 0.056476 0.000000 0.000000
# 5 0.000000 0.000000 0.000000 0.000000 -0.041165 0.000000
# 6 0.000000 0.000000 0.000000 0.000000 0.000000 0.026361
#
#
# Mechanical properties :
#
#
# Convention : Reuss Voigt Hill
#
# Bulk Modulus (GPa) = 58.01154 70.03323 64.02238
# Shear Modulus (GPa) = 37.79436 30.30446 34.04941
#
# Velocity S-wave (km/s) = 4.10238 3.67346 3.89383
# Velocity P-wave (km/s) = 6.94777 7.01268 6.98030
#
# Compressibility (1/GPa) = 0.01723795
#
# Stress axis : x y z
#
# Youngs Moduli (GPa) = 39.29474 45.16031 288.56168
#
# Poissons Ratio (x) = 0.72018 0.06451
# Poissons Ratio (y) = 0.62664 0.21325
# Poissons Ratio (z) = 0.00878 0.03337
#
# Static dielectric constant tensor:
#      x y z
#    x 1.866500 0.000000 0.000000 
#    y 0.000000 1.793440 0.000000 
#    z 0.000000 0.000000 1.980550 
# 
# From -- ./inp_files/893.got.cif
#   From: 2010.05.17/outbox.cif.g08.bks.cpg/sg72_1_cif.got.tgz:893.got - 2010.06.03 17:03:01.
