data_PCOD9525530
_publ_section_title
;
Structure prediction by ZEFSAII (Michael W. Deem and Ramdas Pophale) SiO2 
 PCOD9525530
Probable space group: I B A M
;
_chemical_formula_sum "Si O2"
_cell_formula_units_Z 96
_cell_length_a 17.186476
_cell_length_b 22.500753
_cell_length_c 14.120015
_cell_angle_alpha 90.000000
_cell_angle_beta 90.000000
_cell_angle_gamma 90.000000
_cell_volume 5460.331959
_symmetry_space_group_name_H-M "I B A M"
_symmetry_group_IT_number 72
_symmetry_cell_setting 'orthorhombic'
loop_
_space_group_symop_operation_xyz
x,y,z
-x,-y,z
x,-y,1/2-z
-x,y,1/2-z
-x,-y,-z
x,y,-z
-x,y,1/2+z
x,-y,1/2+z
1/2+x,1/2+y,1/2+z
1/2-x,1/2-y,1/2+z
1/2+x,1/2-y,-z
1/2-x,1/2+y,-z
1/2-x,1/2-y,1/2-z
1/2+x,1/2+y,1/2-z
1/2-x,1/2+y,z
1/2+x,1/2-y,z
loop_
_atom_site_type_symbol
_atom_site_label
_atom_site_fract_x
_atom_site_fract_y
_atom_site_fract_z
Si Si1 0.416833 0.203849 0.000000
Si Si2 0.360378 0.273783 0.176647
Si Si3 0.423422 0.616227 0.796994
Si Si4 0.254363 0.562987 0.796486
Si Si5 0.695585 0.825865 0.676541
Si Si6 0.725641 0.111334 0.500000
Si Si7 0.408975 0.188981 0.500000
Si Si8 0.897664 0.167497 0.500000
O O1 0.408456 0.245380 0.908038
O O2 0.346359 0.156769 0.000000
O O3 0.500522 0.173251 0.000000
O O4 0.402866 0.326269 0.232719
O O5 0.339341 0.222448 0.251316
O O6 0.277661 0.299101 0.139996
O O7 0.500000 0.588799 0.750000
O O8 0.347331 0.574948 0.795406
O O9 0.433284 0.639347 0.904600
O O10 0.236807 0.500000 0.750000
O O11 0.215737 0.615221 0.734655
O O12 0.227093 0.572428 0.904602
O O13 0.635985 0.834011 0.591845
O O14 0.805860 0.149812 0.500000
O O15 0.404405 0.261345 0.500000
#
# Coordination Sequence:
#
# PCOD9525530 Si02
#       8
#     8  16  16  16  16   8   8   8
#     4  12  22  32  55  87 117 150 186 226 297 354
#     4  10  19  33  55  82 113 152 183 223 278 348
#     4  10  20  34  56  89 124 146 182 228 282 345
#     4  10  22  40  62  81 105 156 199 238 277 322
#     4  10  20  35  55  81 112 145 194 234 272 333
#     4  10  20  39  60  81 108 147 201 230 274 350
#     4  12  22  31  54  88 121 143 178 242 290 339
#     4  10  18  34  57  81 118 160 179 211 283 360
#
# _framework density 17.581347000000001
#
# number of rings (size 3 to 8) (size 9 to 14) (size 15 to 20)
#    0.000    1.667    3.333    2.500    0.000    1.000 
#    0.000    2.500    0.000    6.000    0.000    0.000 
#    0.000    0.000    0.000    0.000    0.000    0.000 
#
# Total GULP energy -268090.124112 kJ/mol
# GULP energy per Si atom -5585.210919 kJ/mol
# Density = 1.754133 g / cm^3
# Si number density = 17.581347 Si / 1000 Ang^3
#
#
#
# Elastic Constant Matrix: (Units=GPa)
#
#
# Indices 1 2 3 4 5 6 
#
# 1 82.2207 3.8152 55.3613 0.0000 0.0000 0.0000
# 2 3.8152 55.6970 20.6024 0.0000 0.0000 0.0000
# 3 55.3613 20.6024 118.8157 0.0000 0.0000 0.0000
# 4 0.0000 0.0000 0.0000 16.2247 0.0000 0.0000
# 5 0.0000 0.0000 0.0000 0.0000 -5.8238 0.0000
# 6 0.0000 0.0000 0.0000 0.0000 0.0000 7.5730
#
#
#
# Elastic Compliance Matrix: (Units=1/GPa)
#
#
# Indices 1 2 3 4 5 6 
#
# 1 0.017926 0.001989 -0.008698 0.000000 0.000000 0.000000
# 2 0.001989 0.019406 -0.004292 0.000000 0.000000 0.000000
# 3 -0.008698 -0.004292 0.013213 0.000000 0.000000 0.000000
# 4 0.000000 0.000000 0.000000 0.061635 0.000000 0.000000
# 5 0.000000 0.000000 0.000000 0.000000 -0.171710 0.000000
# 6 0.000000 0.000000 0.000000 0.000000 0.000000 0.132047
#
#
# Mechanical properties :
#
#
# Convention : Reuss Voigt Hill
#
# Bulk Modulus (GPa) = 35.03245 46.25458 40.64351
# Shear Modulus (GPa) = 48.06171 15.39174 31.72672
#
# Velocity S-wave (km/s) = 5.23413 2.96202 4.25263
# Velocity P-wave (km/s) = 7.51647 6.16961 6.87610
#
# Compressibility (1/GPa) = 0.02854496
#
# Stress axis : x y z
#
# Youngs Moduli (GPa) = 55.78356 51.53156 75.68197
#
# Poissons Ratio (x) = -0.10251 0.65825
# Poissons Ratio (y) = -0.11097 0.32481
# Poissons Ratio (z) = 0.48518 0.22116
#
# Static dielectric constant tensor:
#      x y z
#    x 1.617990 0.000000 0.000000 
#    y 0.000000 1.557720 0.000000 
#    z 0.000000 0.000000 1.609910 
# 
# From -- ./inp_files/22060.got.cif
#   From: 2010.05.17/outbox.cif.g08.bks.cpg/sg72_12_cif.got.tgz:22060.got - 2010.06.03 17:03:01.
