data_PCOD9525276
_publ_section_title
;
Structure prediction by ZEFSAII (Michael W. Deem and Ramdas Pophale) SiO2 
 PCOD9525276
Probable space group: I B A M
;
_chemical_formula_sum "Si O2"
_cell_formula_units_Z 128
_cell_length_a 21.661833
_cell_length_b 18.387049
_cell_length_c 13.762514
_cell_angle_alpha 90.000000
_cell_angle_beta 90.000000
_cell_angle_gamma 90.000000
_cell_volume 5481.570582
_symmetry_space_group_name_H-M "I B A M"
_symmetry_group_IT_number 72
_symmetry_cell_setting 'orthorhombic'
loop_
_space_group_symop_operation_xyz
x,y,z
-x,-y,z
x,-y,1/2-z
-x,y,1/2-z
-x,-y,-z
x,y,-z
-x,y,1/2+z
x,-y,1/2+z
1/2+x,1/2+y,1/2+z
1/2-x,1/2-y,1/2+z
1/2+x,1/2-y,-z
1/2-x,1/2+y,-z
1/2-x,1/2-y,1/2-z
1/2+x,1/2+y,1/2-z
1/2-x,1/2+y,z
1/2+x,1/2-y,z
loop_
_atom_site_type_symbol
_atom_site_label
_atom_site_fract_x
_atom_site_fract_y
_atom_site_fract_z
Si Si1 0.698212 0.464568 0.119319
Si Si2 0.612143 0.665230 0.606748
Si Si3 0.837228 0.571692 0.382070
Si Si4 0.938833 0.543999 0.117450
Si Si5 0.463369 0.206989 0.619425
Si Si6 0.490145 0.417676 0.865014
Si Si7 0.606804 0.772677 0.880357
Si Si8 0.651243 0.378628 0.610319
O O1 0.652166 0.399660 0.151790
O O2 0.767110 0.442703 0.147388
O O3 0.680902 0.546687 0.151131
O O4 0.692945 0.466027 0.000000
O O5 0.639812 0.680701 0.500000
O O6 0.592312 0.740940 0.654180
O O7 0.544253 0.631262 0.595360
O O8 0.837607 0.573556 0.500000
O O9 0.880514 0.504239 0.353897
O O10 0.864549 0.649606 0.351499
O O11 0.947397 0.625833 0.152228
O O12 0.000000 0.500000 0.142329
O O13 0.936644 0.548659 0.000000
O O14 0.462388 0.208890 0.500000
O O15 0.533625 0.229102 0.647092
O O16 0.500000 0.500000 0.895354
O O17 0.500000 0.414211 0.750000
O O18 0.421902 0.395021 0.892012
O O19 0.648798 0.703541 0.848346
O O20 0.606649 0.769984 0.000000
O O21 0.675930 0.372696 0.500000
#
# Coordination Sequence:
#
# PCOD9525276 Si02
#       8
#    16  16  16  16  16  16  16  16
#     4   9  18  29  41  59  88 131 164 185 226 282
#     4  10  18  30  47  65  95 128 154 187 234 289
#     4   9  16  27  39  59  96 129 158 195 238 285
#     4   9  14  22  38  58  88 125 151 186 240 286
#     4   9  15  23  39  65  87 115 156 187 228 282
#     4  11  21  30  45  71  98 119 158 201 241 276
#     4   9  15  24  42  64  89 120 154 194 233 280
#     4  10  18  30  48  68  95 131 164 191 233 294
#
# _framework density 23.350973
#
# number of rings (size 3 to 8) (size 9 to 14) (size 15 to 20)
#    0.000    2.500    3.750    0.375    0.000    0.500 
#    2.250    0.000    0.000    0.000    0.000    0.875 
#    3.750    3.625    0.000    0.000    0.000    0.000 
#
# Total GULP energy -357485.042098 kJ/mol
# GULP energy per Si atom -5585.703783 kJ/mol
# Density = 2.329782 g / cm^3
# Si number density = 23.350973 Si / 1000 Ang^3
#
#
#
# Elastic Constant Matrix: (Units=GPa)
#
#
# Indices 1 2 3 4 5 6 
#
# 1 126.4413 75.5144 8.0361 0.0000 0.0000 0.0000
# 2 75.5144 228.2104 22.6131 0.0000 0.0000 0.0000
# 3 8.0361 22.6131 87.2750 0.0000 0.0000 0.0000
# 4 0.0000 0.0000 0.0000 -10.5221 0.0000 0.0000
# 5 0.0000 0.0000 0.0000 0.0000 -35.0535 0.0000
# 6 0.0000 0.0000 0.0000 0.0000 0.0000 14.1575
#
#
#
# Elastic Compliance Matrix: (Units=1/GPa)
#
#
# Indices 1 2 3 4 5 6 
#
# 1 0.009857 -0.003255 -0.000064 0.000000 0.000000 0.000000
# 2 -0.003255 0.005572 -0.001144 0.000000 0.000000 0.000000
# 3 -0.000064 -0.001144 0.011760 0.000000 0.000000 0.000000
# 4 0.000000 0.000000 0.000000 -0.095038 0.000000 0.000000
# 5 0.000000 0.000000 0.000000 0.000000 -0.028528 0.000000
# 6 0.000000 0.000000 0.000000 0.000000 0.000000 0.070634
#
#
# Mechanical properties :
#
#
# Convention : Reuss Voigt Hill
#
# Bulk Modulus (GPa) = 54.75624 72.69487 63.72556
# Shear Modulus (GPa) = -466.09280 16.10059 -224.99611
#
# Velocity S-wave (km/s) = -14.14343 2.62869 -9.82666
# Velocity P-wave (km/s) = 15.59536 6.35707 10.06983
#
# Compressibility (1/GPa) = 0.01826276
#
# Stress axis : x y z
#
# Youngs Moduli (GPa) = 101.45012 179.45365 85.03125
#
# Poissons Ratio (x) = 0.58418 0.00546
# Poissons Ratio (y) = 0.33025 0.09728
# Poissons Ratio (z) = 0.00651 0.20531
#
# Static dielectric constant tensor:
#      x y z
#    x 1.785150 0.000000 0.000000 
#    y 0.000000 1.855780 0.000000 
#    z 0.000000 0.000000 1.900250 
# 
# From -- ./inp_files/33532.got.cif
#   From: 2010.05.17/outbox.cif.g08.bks.cpg/sg72_17_cif.got.tgz:33532.got - 2010.06.03 17:03:01.
