data_PCOD9525432
_publ_section_title
;
Structure prediction by ZEFSAII (Michael W. Deem and Ramdas Pophale) SiO2 
 PCOD9525432
Probable space group: I B A M
;
_chemical_formula_sum "Si O2"
_cell_formula_units_Z 104
_cell_length_a 26.995664
_cell_length_b 16.571083
_cell_length_c 14.111019
_cell_angle_alpha 90.000000
_cell_angle_beta 90.000000
_cell_angle_gamma 90.000000
_cell_volume 6312.527503
_symmetry_space_group_name_H-M "I B A M"
_symmetry_group_IT_number 72
_symmetry_cell_setting 'orthorhombic'
loop_
_space_group_symop_operation_xyz
x,y,z
-x,-y,z
x,-y,1/2-z
-x,y,1/2-z
-x,-y,-z
x,y,-z
-x,y,1/2+z
x,-y,1/2+z
1/2+x,1/2+y,1/2+z
1/2-x,1/2-y,1/2+z
1/2+x,1/2-y,-z
1/2-x,1/2+y,-z
1/2-x,1/2-y,1/2-z
1/2+x,1/2+y,1/2-z
1/2-x,1/2+y,z
1/2+x,1/2-y,z
loop_
_atom_site_type_symbol
_atom_site_label
_atom_site_fract_x
_atom_site_fract_y
_atom_site_fract_z
Si Si1 0.294686 0.549107 0.113052
Si Si2 0.719507 0.263076 0.606499
Si Si3 0.369439 0.688679 0.113064
Si Si4 0.942975 0.097560 0.741282
Si Si5 0.683777 0.826893 0.291748
Si Si6 0.363563 0.599358 0.393702
Si Si7 0.207178 0.500000 0.250000
O O1 0.320424 0.634425 0.135365
O O2 0.334939 0.480744 0.139808
O O3 0.244788 0.531557 0.168852
O O4 0.287474 0.543174 0.000000
O O5 0.724921 0.228722 0.500000
O O6 0.701497 0.202580 0.687900
O O7 0.770250 0.305596 0.638936
O O8 0.677807 0.331949 0.603952
O O9 0.415786 0.636056 0.150258
O O10 0.361018 0.771991 0.169309
O O11 0.371722 0.700048 0.000000
O O12 0.908217 0.124760 0.827502
O O13 0.000000 0.122526 0.750000
O O14 0.941868 0.000000 0.750000
O O15 0.676982 0.922832 0.286719
O O16 0.381678 0.583240 0.500000
#
# Coordination Sequence:
#
# PCOD9525432 Si02
#       7
#    16  16  16  16  16  16   8
#     4  10  19  31  49  72 104 143 179 209 248 303
#     4  10  19  33  52  74 101 140 182 217 253 304
#     4  11  22  37  54  75 107 145 178 212 259 312
#     4  11  22  35  54  80 109 138 175 219 261 305
#     4  11  22  33  49  74 105 138 176 222 259 316
#     4  10  18  32  53  74 105 143 179 212 254 304
#     4  12  22  32  48  72 106 140 176 218 264 298
#
# _framework density 16.475175
#
# number of rings (size 3 to 8) (size 9 to 14) (size 15 to 20)
#    0.000    1.385    4.615    3.231    0.000    3.077 
#    0.000    1.538    0.000    0.000    0.000    0.538 
#    0.000    1.231    0.000    0.000    0.000    0.000 
#
# Total GULP energy -290315.169949 kJ/mol
# GULP energy per Si atom -5582.984037 kJ/mol
# Density = 1.643768 g / cm^3
# Si number density = 16.475175 Si / 1000 Ang^3
#
#
#
# Elastic Constant Matrix: (Units=GPa)
#
#
# Indices 1 2 3 4 5 6 
#
# 1 58.3284 27.5714 20.4975 0.0000 0.0000 0.0000
# 2 27.5714 102.2338 27.2631 0.0000 0.0000 0.0000
# 3 20.4975 27.2631 90.0534 0.0000 0.0000 0.0000
# 4 0.0000 0.0000 0.0000 17.2057 0.0000 0.0000
# 5 0.0000 0.0000 0.0000 0.0000 -2.3272 0.0000
# 6 0.0000 0.0000 0.0000 0.0000 0.0000 16.8368
#
#
#
# Elastic Compliance Matrix: (Units=1/GPa)
#
#
# Indices 1 2 3 4 5 6 
#
# 1 0.020490 -0.004658 -0.003253 0.000000 0.000000 0.000000
# 2 -0.004658 0.011700 -0.002482 0.000000 0.000000 0.000000
# 3 -0.003253 -0.002482 0.012596 0.000000 0.000000 0.000000
# 4 0.000000 0.000000 0.000000 0.058120 0.000000 0.000000
# 5 0.000000 0.000000 0.000000 0.000000 -0.429697 0.000000
# 6 0.000000 0.000000 0.000000 0.000000 0.000000 0.059394
#
#
# Mechanical properties :
#
#
# Convention : Reuss Voigt Hill
#
# Bulk Modulus (GPa) = 41.66888 44.58664 43.12776
# Shear Modulus (GPa) = -20.95464 18.02862 -1.46301
#
# Velocity S-wave (km/s) = -3.57023 3.31159 -0.94336
# Velocity P-wave (km/s) = 2.88989 6.46095 5.00476
#
# Compressibility (1/GPa) = 0.02399872
#
# Stress axis : x y z
#
# Youngs Moduli (GPa) = 48.80546 85.47312 79.38789
#
# Poissons Ratio (x) = 0.39815 0.25829
# Poissons Ratio (y) = 0.22735 0.19702
# Poissons Ratio (z) = 0.15879 0.21212
#
# Static dielectric constant tensor:
#      x y z
#    x 1.524390 0.000000 0.000000 
#    y 0.000000 1.591660 0.000000 
#    z 0.000000 0.000000 1.598340 
# 
# From -- ./inp_files/23590.got.cif
#   From: 2010.05.17/outbox.cif.g08.bks.cpg/sg72_12_cif.got.tgz:23590.got - 2010.06.03 17:03:01.
