data_PCOD9525647
_publ_section_title
;
Structure prediction by ZEFSAII (Michael W. Deem and Ramdas Pophale) SiO2 
 PCOD9525647
Probable space group: I B A M
;
_chemical_formula_sum "Si O2"
_cell_formula_units_Z 84
_cell_length_a 27.658769
_cell_length_b 7.208734
_cell_length_c 23.312853
_cell_angle_alpha 90.000000
_cell_angle_beta 90.000000
_cell_angle_gamma 90.000000
_cell_volume 4648.226399
_symmetry_space_group_name_H-M "I B A M"
_symmetry_group_IT_number 72
_symmetry_cell_setting 'orthorhombic'
loop_
_space_group_symop_operation_xyz
x,y,z
-x,-y,z
x,-y,1/2-z
-x,y,1/2-z
-x,-y,-z
x,y,-z
-x,y,1/2+z
x,-y,1/2+z
1/2+x,1/2+y,1/2+z
1/2-x,1/2-y,1/2+z
1/2+x,1/2-y,-z
1/2-x,1/2+y,-z
1/2-x,1/2-y,1/2-z
1/2+x,1/2+y,1/2-z
1/2-x,1/2+y,z
1/2+x,1/2-y,z
loop_
_atom_site_type_symbol
_atom_site_label
_atom_site_fract_x
_atom_site_fract_y
_atom_site_fract_z
Si Si1 0.638343 0.185139 0.098673
Si Si2 0.181484 0.199188 0.500000
Si Si3 0.095593 0.045497 0.811097
Si Si4 0.934854 0.196749 0.500000
Si Si5 0.707352 0.130563 0.000000
Si Si6 0.000000 0.000000 0.750000
Si Si7 0.043523 0.245751 0.500000
Si Si8 0.113591 0.729626 0.900910
O O1 0.626461 0.305072 0.154358
O O2 0.595428 0.240983 0.054916
O O3 0.636269 0.967887 0.115442
O O4 0.685662 0.218282 0.058497
O O5 0.235150 0.121856 0.500000
O O6 0.186288 0.422680 0.500000
O O7 0.151075 0.159397 0.557470
O O8 0.119057 0.000000 0.750000
O O9 0.095858 0.860923 0.850157
O O10 0.039791 0.097626 0.792439
O O11 0.987504 0.283625 0.500000
O O12 0.945120 0.976195 0.500000
O O13 0.069608 0.317868 0.556598
#
# Coordination Sequence:
#
# PCOD9525647 Si02
#       8
#    16   8  16   8   8   4   8  16
#     4  10  21  36  53  82 113 143 183 233 285 339
#     4   9  20  34  57  92 114 137 185 227 292 370
#     4  10  22  39  56  76 113 150 201 234 274 317
#     4  10  19  29  50  76 109 143 175 220 282 348
#     4   9  20  34  57  92 114 137 185 227 292 370
#     4   8  24  40  54  86 104 154 224 236 248 340
#     4  10  19  29  50  76 109 143 175 220 282 348
#     4  10  21  36  53  82 113 143 183 233 285 339
#
# _framework density 18.071408000000002
#
# number of rings (size 3 to 8) (size 9 to 14) (size 15 to 20)
#    0.571    1.714    1.905    1.714    5.333    2.286 
#    0.000    0.952    0.000    1.143    0.000    0.000 
#    0.000    0.000    0.000    0.000    0.000    0.000 
#
# Total GULP energy -233838.560084 kJ/mol
# GULP energy per Si atom -5567.584764 kJ/mol
# Density = 1.803028 g / cm^3
# Si number density = 18.071408 Si / 1000 Ang^3
#
#
#
# Elastic Constant Matrix: (Units=GPa)
#
#
# Indices 1 2 3 4 5 6 
#
# 1 100.7439 -4.0557 31.6704 0.0000 0.0000 0.0000
# 2 -4.0557 58.4354 27.4277 0.0000 0.0000 0.0000
# 3 31.6704 27.4277 125.3202 0.0000 0.0000 0.0000
# 4 0.0000 0.0000 0.0000 2.8299 0.0000 0.0000
# 5 0.0000 0.0000 0.0000 0.0000 7.0624 0.0000
# 6 0.0000 0.0000 0.0000 0.0000 0.0000 20.8429
#
#
#
# Elastic Compliance Matrix: (Units=1/GPa)
#
#
# Indices 1 2 3 4 5 6 
#
# 1 0.011057 0.002317 -0.003301 0.000000 0.000000 0.000000
# 2 0.002317 0.019558 -0.004866 0.000000 0.000000 0.000000
# 3 -0.003301 -0.004866 0.009879 0.000000 0.000000 0.000000
# 4 0.000000 0.000000 0.000000 0.353367 0.000000 0.000000
# 5 0.000000 0.000000 0.000000 0.000000 0.141595 0.000000
# 6 0.000000 0.000000 0.000000 0.000000 0.000000 0.047978
#
#
# Mechanical properties :
#
#
# Convention : Reuss Voigt Hill
#
# Bulk Modulus (GPa) = 34.73063 43.84271 39.28667
# Shear Modulus (GPa) = 8.26812 21.44419 14.85616
#
# Velocity S-wave (km/s) = 2.14130 3.44850 2.87031
# Velocity P-wave (km/s) = 5.03725 6.33795 5.72466
#
# Compressibility (1/GPa) = 0.02879303
#
# Stress axis : x y z
#
# Youngs Moduli (GPa) = 90.43798 51.13090 101.22618
#
# Poissons Ratio (x) = -0.11847 0.33419
# Poissons Ratio (y) = -0.20955 0.49256
# Poissons Ratio (z) = 0.29858 0.24880
#
# Static dielectric constant tensor:
#      x y z
#    x 1.630030 0.000000 0.000000 
#    y 0.000000 1.691010 0.000000 
#    z 0.000000 0.000000 1.751090 
# 
# From -- ./inp_files/45901.got.cif
#   From: 2010.05.17/outbox.cif.g08.bks.cpg/sg72_23_cif.got.tgz:45901.got - 2010.06.03 17:03:01.
