data_PCOD9525035
_publ_section_title
;
Structure prediction by ZEFSAII (Michael W. Deem and Ramdas Pophale) SiO2 
 PCOD9525035
Probable space group: I B A M
;
_chemical_formula_sum "Si O2"
_cell_formula_units_Z 96
_cell_length_a 27.344169
_cell_length_b 29.650067
_cell_length_c 8.657124
_cell_angle_alpha 90.000000
_cell_angle_beta 90.000000
_cell_angle_gamma 90.000000
_cell_volume 7018.819060
_symmetry_space_group_name_H-M "I B A M"
_symmetry_group_IT_number 72
_symmetry_cell_setting 'orthorhombic'
loop_
_space_group_symop_operation_xyz
x,y,z
-x,-y,z
x,-y,1/2-z
-x,y,1/2-z
-x,-y,-z
x,y,-z
-x,y,1/2+z
x,-y,1/2+z
1/2+x,1/2+y,1/2+z
1/2-x,1/2-y,1/2+z
1/2+x,1/2-y,-z
1/2-x,1/2+y,-z
1/2-x,1/2-y,1/2-z
1/2+x,1/2+y,1/2-z
1/2-x,1/2+y,z
1/2+x,1/2-y,z
loop_
_atom_site_type_symbol
_atom_site_label
_atom_site_fract_x
_atom_site_fract_y
_atom_site_fract_z
Si Si1 0.295776 0.721292 0.685517
Si Si2 0.743521 0.859390 0.815040
Si Si3 0.095980 0.451331 0.185133
Si Si4 0.947325 0.359964 0.185575
Si Si5 0.353755 0.804229 0.687372
Si Si6 0.788924 0.548486 0.184527
O O1 0.293287 0.719610 0.500000
O O2 0.250000 0.750000 0.750000
O O3 0.287480 0.671630 0.752388
O O4 0.341936 0.752509 0.731212
O O5 0.692529 0.835070 0.763978
O O6 0.741099 0.909887 0.752588
O O7 0.744485 0.859181 0.000000
O O8 0.080460 0.500000 0.250000
O O9 0.066436 0.409931 0.256060
O O10 0.153528 0.445401 0.227220
O O11 0.091841 0.451069 0.000000
O O12 0.904100 0.326447 0.240165
O O13 0.000000 0.346931 0.250000
O O14 0.948211 0.360070 0.000000
O O15 0.354020 0.805452 0.500000
O O16 0.773680 0.500000 0.250000
O O17 0.785869 0.548346 0.000000
#
# Coordination Sequence:
#
# PCOD9525035 Si02
#       6
#    16  16  16  16  16  16
#     4   9  16  27  42  63  82 103 129 160 201 244
#     4  10  17  28  44  63  83 107 132 163 202 243
#     4  10  20  33  47  62  76  99 132 171 215 255
#     4  11  21  34  47  61  79 103 133 171 212 254
#     4   8  16  29  44  58  79 104 128 162 205 245
#     4  10  19  29  43  62  83 108 137 169 204 247
#
# _framework density 13.677515
#
# number of rings (size 3 to 8) (size 9 to 14) (size 15 to 20)
#    0.000    2.333    1.667    3.500    0.000    1.667 
#    0.000    4.167    0.000    0.000    0.000    0.000 
#    0.000    0.000    0.000    0.000    0.000    0.833 
#
# Total GULP energy -267527.744440 kJ/mol
# GULP energy per Si atom -5573.494676 kJ/mol
# Density = 1.364638 g / cm^3
# Si number density = 13.677515 Si / 1000 Ang^3
#
#
#
# Elastic Constant Matrix: (Units=GPa)
#
#
# Indices 1 2 3 4 5 6 
#
# 1 56.3350 54.1124 17.6438 0.0000 0.0000 0.0000
# 2 54.1124 106.8463 29.5155 0.0000 0.0000 0.0000
# 3 17.6438 29.5155 39.4342 0.0000 0.0000 0.0000
# 4 0.0000 0.0000 0.0000 22.1084 0.0000 0.0000
# 5 0.0000 0.0000 0.0000 0.0000 14.2359 0.0000
# 6 0.0000 0.0000 0.0000 0.0000 0.0000 18.0597
#
#
#
# Elastic Compliance Matrix: (Units=1/GPa)
#
#
# Indices 1 2 3 4 5 6 
#
# 1 0.034846 -0.016818 -0.003003 0.000000 0.000000 0.000000
# 2 -0.016818 0.019916 -0.007382 0.000000 0.000000 0.000000
# 3 -0.003003 -0.007382 0.032227 0.000000 0.000000 0.000000
# 4 0.000000 0.000000 0.000000 0.045232 0.000000 0.000000
# 5 0.000000 0.000000 0.000000 0.000000 0.070245 0.000000
# 6 0.000000 0.000000 0.000000 0.000000 0.000000 0.055372
#
#
# Mechanical properties :
#
#
# Convention : Reuss Voigt Hill
#
# Bulk Modulus (GPa) = 30.69028 45.01765 37.85397
# Shear Modulus (GPa) = 15.47482 17.63706 16.55594
#
# Velocity S-wave (km/s) = 3.36729 3.59485 3.48293
# Velocity P-wave (km/s) = 6.13232 7.08630 6.62650
#
# Compressibility (1/GPa) = 0.03258360
#
# Stress axis : x y z
#
# Youngs Moduli (GPa) = 28.69742 50.21065 31.02956
#
# Poissons Ratio (x) = 0.84446 0.09318
# Poissons Ratio (y) = 0.48265 0.22905
# Poissons Ratio (z) = 0.08618 0.37064
#
# Static dielectric constant tensor:
#      x y z
#    x 1.439110 0.000000 0.000000 
#    y 0.000000 1.472860 0.000000 
#    z 0.000000 0.000000 1.455330 
# 
# From -- ./inp_files/7093.got.cif
#   From: 2010.05.17/outbox.cif.g08.bks.cpg/sg72_4_cif.got.tgz:7093.got - 2010.06.03 17:03:01.
