data_PCOD9525855
_publ_section_title
;
Structure prediction by ZEFSAII (Michael W. Deem and Ramdas Pophale) SiO2 
 PCOD9525855
Probable space group: I B A M
;
_chemical_formula_sum "Si O2"
_cell_formula_units_Z 116
_cell_length_a 27.999148
_cell_length_b 27.750344
_cell_length_c 8.687729
_cell_angle_alpha 90.000000
_cell_angle_beta 90.000000
_cell_angle_gamma 90.000000
_cell_volume 6750.243707
_symmetry_space_group_name_H-M "I B A M"
_symmetry_group_IT_number 72
_symmetry_cell_setting 'orthorhombic'
loop_
_space_group_symop_operation_xyz
x,y,z
-x,-y,z
x,-y,1/2-z
-x,y,1/2-z
-x,-y,-z
x,y,-z
-x,y,1/2+z
x,-y,1/2+z
1/2+x,1/2+y,1/2+z
1/2-x,1/2-y,1/2+z
1/2+x,1/2-y,-z
1/2-x,1/2+y,-z
1/2-x,1/2-y,1/2-z
1/2+x,1/2+y,1/2-z
1/2-x,1/2+y,z
1/2+x,1/2-y,z
loop_
_atom_site_type_symbol
_atom_site_label
_atom_site_fract_x
_atom_site_fract_y
_atom_site_fract_z
Si Si1 0.866038 0.257136 0.184412
Si Si2 0.814307 0.075966 0.318466
Si Si3 0.000000 0.000000 0.250000
Si Si4 0.712018 0.049895 0.184343
Si Si5 0.181578 0.345427 0.183778
Si Si6 0.446891 0.316853 0.185974
Si Si7 0.084395 0.074850 0.314605
Si Si8 0.790048 0.177400 0.184941
O O1 0.858200 0.310466 0.248043
O O2 0.911549 0.225968 0.237792
O O3 0.819454 0.224943 0.223972
O O4 0.868294 0.259822 0.000000
O O5 0.811991 0.067745 0.500000
O O6 0.766930 0.054826 0.239549
O O7 0.864590 0.058918 0.251099
O O8 0.811681 0.132586 0.276475
O O9 0.958241 0.958283 0.255266
O O10 0.685203 0.098886 0.236238
O O11 0.692310 0.000000 0.250000
O O12 0.711672 0.048911 0.000000
O O13 0.233834 0.322775 0.219326
O O14 0.176698 0.345893 0.000000
O O15 0.500000 0.311615 0.250000
O O16 0.426126 0.369453 0.229205
O O17 0.448269 0.315967 0.000000
O O18 0.085238 0.071743 0.500000
O O19 0.795629 0.168426 0.000000
#
# Coordination Sequence:
#
# PCOD9525855 Si02
#       8
#    16  16   4  16  16  16  16  16
#     4  10  19  32  52  75 102 138 172 209 265 320
#     4  11  22  34  53  77  99 133 178 216 263 321
#     4  12  26  40  60  78  86 128 188 234 292 332
#     4  10  21  38  56  76 106 141 175 212 256 301
#     4   9  19  32  50  77 108 137 168 211 257 304
#     4  10  21  38  57  75  99 135 172 220 277 324
#     4  11  23  41  57  71  99 129 169 231 287 326
#     4   9  17  33  51  72 105 138 168 212 264 309
#
# _framework density 17.184564999999999
#
# number of rings (size 3 to 8) (size 9 to 14) (size 15 to 20)
#    0.000    1.931    2.069    3.103    0.966    5.517 
#    0.000    0.000    0.000    0.000    0.000    0.000 
#    0.000    0.552    0.000    6.069    0.000    4.414 
#
# Total GULP energy -323207.826817 kJ/mol
# GULP energy per Si atom -5572.548738 kJ/mol
# Density = 1.714545 g / cm^3
# Si number density = 17.184565 Si / 1000 Ang^3
#
#
#
# Elastic Constant Matrix: (Units=GPa)
#
#
# Indices 1 2 3 4 5 6 
#
# 1 57.3915 54.8053 18.5645 0.0000 0.0000 0.0000
# 2 54.8053 139.3092 31.9056 0.0000 0.0000 0.0000
# 3 18.5645 31.9056 31.4948 0.0000 0.0000 0.0000
# 4 0.0000 0.0000 0.0000 5.6246 0.0000 0.0000
# 5 0.0000 0.0000 0.0000 0.0000 14.4673 0.0000
# 6 0.0000 0.0000 0.0000 0.0000 0.0000 -2.2386
#
#
#
# Elastic Compliance Matrix: (Units=1/GPa)
#
#
# Indices 1 2 3 4 5 6 
#
# 1 0.029124 -0.009799 -0.007240 0.000000 0.000000 0.000000
# 2 -0.009799 0.012644 -0.007033 0.000000 0.000000 0.000000
# 3 -0.007240 -0.007033 0.043143 0.000000 0.000000 0.000000
# 4 0.000000 0.000000 0.000000 0.177792 0.000000 0.000000
# 5 0.000000 0.000000 0.000000 0.000000 0.069121 0.000000
# 6 0.000000 0.000000 0.000000 0.000000 0.000000 -0.446701
#
#
# Mechanical properties :
#
#
# Convention : Reuss Voigt Hill
#
# Bulk Modulus (GPa) = 27.19804 48.74960 37.97382
# Shear Modulus (GPa) = -91.78121 11.76532 -40.00794
#
# Velocity S-wave (km/s) = -7.31608 2.61941 -4.83031
# Velocity P-wave (km/s) = 7.45019 6.13011 2.99392
#
# Compressibility (1/GPa) = 0.03676735
#
# Stress axis : x y z
#
# Youngs Moduli (GPa) = 34.33606 79.08772 23.17862
#
# Poissons Ratio (x) = 0.77502 0.16780
# Poissons Ratio (y) = 0.33648 0.16301
# Poissons Ratio (z) = 0.24858 0.55621
#
# Static dielectric constant tensor:
#      x y z
#    x 1.560370 0.000000 0.000000 
#    y 0.000000 1.614930 0.000000 
#    z 0.000000 0.000000 1.592010 
# 
# From -- ./inp_files/7261.got.cif
#   From: 2010.05.17/outbox.cif.g08.bks.cpg/sg72_4_cif.got.tgz:7261.got - 2010.06.03 17:03:01.
