data_PCOD9525643
_publ_section_title
;
Structure prediction by ZEFSAII (Michael W. Deem and Ramdas Pophale) SiO2 
 PCOD9525643
Probable space group: I B A M
;
_chemical_formula_sum "Si O2"
_cell_formula_units_Z 112
_cell_length_a 21.350138
_cell_length_b 19.120605
_cell_length_c 15.693634
_cell_angle_alpha 90.000000
_cell_angle_beta 90.000000
_cell_angle_gamma 90.000000
_cell_volume 6406.573843
_symmetry_space_group_name_H-M "I B A M"
_symmetry_group_IT_number 72
_symmetry_cell_setting 'orthorhombic'
loop_
_space_group_symop_operation_xyz
x,y,z
-x,-y,z
x,-y,1/2-z
-x,y,1/2-z
-x,-y,-z
x,y,-z
-x,y,1/2+z
x,-y,1/2+z
1/2+x,1/2+y,1/2+z
1/2-x,1/2-y,1/2+z
1/2+x,1/2-y,-z
1/2-x,1/2+y,-z
1/2-x,1/2-y,1/2-z
1/2+x,1/2+y,1/2-z
1/2-x,1/2+y,z
1/2+x,1/2-y,z
loop_
_atom_site_type_symbol
_atom_site_label
_atom_site_fract_x
_atom_site_fract_y
_atom_site_fract_z
Si Si1 0.761567 0.437518 0.603941
Si Si2 0.249767 0.904261 0.603475
Si Si3 0.786632 0.262887 0.838003
Si Si4 0.503651 0.579401 0.148356
Si Si5 0.880859 0.165228 0.398004
Si Si6 0.168309 0.306551 0.096185
Si Si7 0.636171 0.354814 0.398652
O O1 0.765031 0.436719 0.500000
O O2 0.765970 0.517539 0.631777
O O3 0.813707 0.381779 0.635488
O O4 0.692745 0.407581 0.625567
O O5 0.252516 0.902449 0.500000
O O6 0.293478 0.844131 0.642115
O O7 0.179216 0.880805 0.630241
O O8 0.750000 0.250000 0.750000
O O9 0.736309 0.231699 0.905580
O O10 0.847920 0.216419 0.848907
O O11 0.500000 0.500000 0.114108
O O12 0.500000 0.575893 0.250000
O O13 0.444908 0.626008 0.120314
O O14 0.569235 0.613294 0.122204
O O15 0.874693 0.171392 0.500000
O O16 0.874520 0.245251 0.364213
O O17 0.145949 0.319744 0.000000
O O18 0.639732 0.342460 0.500000
#
# Coordination Sequence:
#
# PCOD9525643 Si02
#       7
#    16  16  16  16  16  16  16
#     4   8  14  27  48  73  94 121 157 200 250 297
#     4   9  16  28  49  72  96 124 160 202 246 304
#     4  10  19  29  46  71  97 129 160 202 255 302
#     4  11  24  35  46  70 102 133 171 219 254 288
#     4   9  17  30  49  67  90 130 168 197 236 299
#     4   8  15  29  47  66  91 120 157 197 239 300
#     4  10  20  35  51  69  99 138 175 208 247 307
#
# _framework density 17.482043999999998
#
# number of rings (size 3 to 8) (size 9 to 14) (size 15 to 20)
#    0.000    2.714    0.000    4.286    4.000    2.286 
#    0.000    2.143    0.000    0.000    0.000    1.000 
#    0.000    6.857    0.000    0.000    0.000    0.000 
#
# Total GULP energy -311928.281793 kJ/mol
# GULP energy per Si atom -5570.147889 kJ/mol
# Density = 1.744225 g / cm^3
# Si number density = 17.482044 Si / 1000 Ang^3
#
#
#
# Elastic Constant Matrix: (Units=GPa)
#
#
# Indices 1 2 3 4 5 6 
#
# 1 82.2184 73.9917 11.6051 0.0000 0.0000 0.0000
# 2 73.9917 206.9825 22.1017 0.0000 0.0000 0.0000
# 3 11.6051 22.1017 47.4765 0.0000 0.0000 0.0000
# 4 0.0000 0.0000 0.0000 7.7529 0.0000 0.0000
# 5 0.0000 0.0000 0.0000 0.0000 14.9906 0.0000
# 6 0.0000 0.0000 0.0000 0.0000 0.0000 27.5102
#
#
#
# Elastic Compliance Matrix: (Units=1/GPa)
#
#
# Indices 1 2 3 4 5 6 
#
# 1 0.018030 -0.006287 -0.001480 0.000000 0.000000 0.000000
# 2 -0.006287 0.007276 -0.001851 0.000000 0.000000 0.000000
# 3 -0.001480 -0.001851 0.022286 0.000000 0.000000 0.000000
# 4 0.000000 0.000000 0.000000 0.128983 0.000000 0.000000
# 5 0.000000 0.000000 0.000000 0.000000 0.066708 0.000000
# 6 0.000000 0.000000 0.000000 0.000000 0.000000 0.036350
#
#
# Mechanical properties :
#
#
# Convention : Reuss Voigt Hill
#
# Bulk Modulus (GPa) = 35.26528 61.34159 48.30343
# Shear Modulus (GPa) = 16.21677 25.31603 20.76640
#
# Velocity S-wave (km/s) = 3.04900 3.80954 3.45029
# Velocity P-wave (km/s) = 5.71063 7.38340 6.60022
#
# Compressibility (1/GPa) = 0.02835650
#
# Stress axis : x y z
#
# Youngs Moduli (GPa) = 55.46393 137.42953 44.87044
#
# Poissons Ratio (x) = 0.86404 0.06642
# Poissons Ratio (y) = 0.34871 0.08304
# Poissons Ratio (z) = 0.08210 0.25432
#
# Static dielectric constant tensor:
#      x y z
#    x 1.566980 0.000000 0.000000 
#    y 0.000000 1.665930 0.000000 
#    z 0.000000 0.000000 1.647830 
# 
# From -- ./inp_files/31865.got.cif
#   From: 2010.05.17/outbox.cif.g08.bks.cpg/sg72_16_cif.got.tgz:31865.got - 2010.06.03 17:03:01.
