data_PCOD9525614
_publ_section_title
;
Structure prediction by ZEFSAII (Michael W. Deem and Ramdas Pophale) SiO2 
 PCOD9525614
Probable space group: I B A M
;
_chemical_formula_sum "Si O2"
_cell_formula_units_Z 88
_cell_length_a 22.495349
_cell_length_b 14.741596
_cell_length_c 13.901409
_cell_angle_alpha 90.000000
_cell_angle_beta 90.000000
_cell_angle_gamma 90.000000
_cell_volume 4609.948370
_symmetry_space_group_name_H-M "I B A M"
_symmetry_group_IT_number 72
_symmetry_cell_setting 'orthorhombic'
loop_
_space_group_symop_operation_xyz
x,y,z
-x,-y,z
x,-y,1/2-z
-x,y,1/2-z
-x,-y,-z
x,y,-z
-x,y,1/2+z
x,-y,1/2+z
1/2+x,1/2+y,1/2+z
1/2-x,1/2-y,1/2+z
1/2+x,1/2-y,-z
1/2-x,1/2+y,-z
1/2-x,1/2-y,1/2-z
1/2+x,1/2+y,1/2-z
1/2-x,1/2+y,z
1/2+x,1/2-y,z
loop_
_atom_site_type_symbol
_atom_site_label
_atom_site_fract_x
_atom_site_fract_y
_atom_site_fract_z
Si Si1 0.500000 0.741084 0.750000
Si Si2 0.744518 0.905427 0.265997
Si Si3 0.042512 0.085026 0.114224
Si Si4 0.641149 0.547489 0.887704
Si Si5 0.243464 0.265782 0.387101
Si Si6 0.600241 0.744763 0.888412
O O1 0.530910 0.675099 0.672572
O O2 0.553700 0.786365 0.811922
O O3 0.801910 0.936647 0.324655
O O4 0.725308 0.818319 0.331145
O O5 0.760338 0.858901 0.164868
O O6 0.709069 0.000000 0.250000
O O7 0.107045 0.044036 0.135487
O O8 0.036683 0.100554 0.000000
O O9 0.000000 0.000000 0.138414
O O10 0.597902 0.634982 0.877433
O O11 0.658107 0.547268 0.000000
O O12 0.255972 0.262187 0.500000
O O13 0.170941 0.262699 0.374717
O O14 0.585925 0.767032 0.000000
#
# Coordination Sequence:
#
# PCOD9525614 Si02
#       6
#     8  16  16  16  16  16
#     4  12  19  24  48  66  95 140 184 212 251 314
#     4  10  20  32  57  79 100 136 187 225 272 330
#     4  10  19  27  37  62  96 134 177 213 247 301
#     4   9  18  30  43  65 101 137 171 214 259 309
#     4   9  20  38  53  74 109 141 177 229 275 324
#     4   9  18  31  46  64  95 138 172 207 261 309
#
# _framework density 19.089151000000001
#
# number of rings (size 3 to 8) (size 9 to 14) (size 15 to 20)
#    0.000    2.364    1.818    2.455    5.091    1.455 
#    0.000    0.000    0.000    3.273    0.000    0.636 
#    0.000    2.909    0.000    0.000    0.000    0.000 
#
# Total GULP energy -245175.380555 kJ/mol
# GULP energy per Si atom -5572.167740 kJ/mol
# Density = 1.904570 g / cm^3
# Si number density = 19.089151 Si / 1000 Ang^3
#
#
#
# Elastic Constant Matrix: (Units=GPa)
#
#
# Indices 1 2 3 4 5 6 
#
# 1 35.4543 -1.7362 12.3670 0.0000 0.0000 0.0000
# 2 -1.7362 70.6737 18.0184 0.0000 0.0000 0.0000
# 3 12.3670 18.0184 71.0574 0.0000 0.0000 0.0000
# 4 0.0000 0.0000 0.0000 11.3703 0.0000 0.0000
# 5 0.0000 0.0000 0.0000 0.0000 34.0295 0.0000
# 6 0.0000 0.0000 0.0000 0.0000 0.0000 5.9498
#
#
#
# Elastic Compliance Matrix: (Units=1/GPa)
#
#
# Indices 1 2 3 4 5 6 
#
# 1 0.030356 0.002237 -0.005851 0.000000 0.000000 0.000000
# 2 0.002237 0.015292 -0.004267 0.000000 0.000000 0.000000
# 3 -0.005851 -0.004267 0.016173 0.000000 0.000000 0.000000
# 4 0.000000 0.000000 0.000000 0.087948 0.000000 0.000000
# 5 0.000000 0.000000 0.000000 0.000000 0.029386 0.000000
# 6 0.000000 0.000000 0.000000 0.000000 0.000000 0.168073
#
#
# Mechanical properties :
#
#
# Convention : Reuss Voigt Hill
#
# Bulk Modulus (GPa) = 21.71045 26.05377 23.88211
# Shear Modulus (GPa) = 13.21550 20.17233 16.69391
#
# Velocity S-wave (km/s) = 2.63402 3.25428 2.96044
# Velocity P-wave (km/s) = 4.54408 5.27244 4.92175
#
# Compressibility (1/GPa) = 0.04606076
#
# Stress axis : x y z
#
# Youngs Moduli (GPa) = 32.94280 65.39186 61.82988
#
# Poissons Ratio (x) = -0.14630 0.36174
# Poissons Ratio (y) = -0.07370 0.26384
# Poissons Ratio (z) = 0.19273 0.27904
#
# Static dielectric constant tensor:
#      x y z
#    x 1.730670 0.000000 0.000000 
#    y 0.000000 1.724840 0.000000 
#    z 0.000000 0.000000 1.711290 
# 
# From -- ./inp_files/21668.got.cif
#   From: 2010.05.17/outbox.cif.g08.bks.cpg/sg72_11_cif.got.tgz:21668.got - 2010.06.03 17:03:01.
