data_PCOD9525724
_publ_section_title
;
Structure prediction by ZEFSAII (Michael W. Deem and Ramdas Pophale) SiO2 
 PCOD9525724
Probable space group: I B A M
;
_chemical_formula_sum "Si O2"
_cell_formula_units_Z 80
_cell_length_a 19.121059
_cell_length_b 27.359779
_cell_length_c 8.729910
_cell_angle_alpha 90.000000
_cell_angle_beta 90.000000
_cell_angle_gamma 90.000000
_cell_volume 4567.034507
_symmetry_space_group_name_H-M "I B A M"
_symmetry_group_IT_number 72
_symmetry_cell_setting 'orthorhombic'
loop_
_space_group_symop_operation_xyz
x,y,z
-x,-y,z
x,-y,1/2-z
-x,y,1/2-z
-x,-y,-z
x,y,-z
-x,y,1/2+z
x,-y,1/2+z
1/2+x,1/2+y,1/2+z
1/2-x,1/2-y,1/2+z
1/2+x,1/2-y,-z
1/2-x,1/2+y,-z
1/2-x,1/2-y,1/2-z
1/2+x,1/2+y,1/2-z
1/2-x,1/2+y,z
1/2+x,1/2-y,z
loop_
_atom_site_type_symbol
_atom_site_label
_atom_site_fract_x
_atom_site_fract_y
_atom_site_fract_z
Si Si1 0.924835 0.150697 0.184293
Si Si2 0.571981 0.054566 0.183239
Si Si3 0.721461 0.097094 0.184454
Si Si4 0.216529 0.201386 0.683436
Si Si5 0.858888 0.052401 0.317368
O O1 0.862928 0.188091 0.230747
O O2 0.902861 0.097362 0.247529
O O3 0.000000 0.164400 0.250000
O O4 0.926536 0.148407 0.000000
O O5 0.500000 0.075862 0.250000
O O6 0.642494 0.083131 0.223623
O O7 0.578502 0.000000 0.250000
O O8 0.566541 0.051930 0.000000
O O9 0.739198 0.152998 0.224351
O O10 0.778837 0.063496 0.266996
O O11 0.730928 0.091379 0.000000
O O12 0.216725 0.205376 0.500000
O O13 0.250000 0.250000 0.750000
O O14 0.864847 0.052290 0.500000
O O15 0.880138 0.000000 0.250000
#
# Coordination Sequence:
#
# PCOD9525724 Si02
#       5
#    16  16  16  16  16
#     4  10  21  38  57  80 109 139 173 215 259 307
#     4  10  19  31  48  70 100 135 170 209 255 304
#     4   9  19  35  52  73 102 135 173 220 263 305
#     4   9  19  36  57  79 104 132 168 213 259 306
#     4  11  21  33  52  78 107 141 177 213 254 306
#
# _framework density 17.516836000000001
#
# number of rings (size 3 to 8) (size 9 to 14) (size 15 to 20)
#    0.000    2.200    0.000    5.400    0.000    7.600 
#    0.000    3.000    0.000    4.800    0.000    0.000 
#    0.000    0.000    0.000    0.000    0.000    0.000 
#
# Total GULP energy -223251.682160 kJ/mol
# GULP energy per Si atom -5581.292054 kJ/mol
# Density = 1.747697 g / cm^3
# Si number density = 17.516836 Si / 1000 Ang^3
#
#
#
# Elastic Constant Matrix: (Units=GPa)
#
#
# Indices 1 2 3 4 5 6 
#
# 1 154.1662 58.4752 44.4577 0.0000 0.0000 0.0000
# 2 58.4752 99.9210 32.5179 0.0000 0.0000 0.0000
# 3 44.4577 32.5179 63.1955 0.0000 0.0000 0.0000
# 4 0.0000 0.0000 0.0000 25.1562 0.0000 0.0000
# 5 0.0000 0.0000 0.0000 0.0000 31.7332 0.0000
# 6 0.0000 0.0000 0.0000 0.0000 0.0000 9.9534
#
#
#
# Elastic Compliance Matrix: (Units=1/GPa)
#
#
# Indices 1 2 3 4 5 6 
#
# 1 0.009289 -0.003975 -0.004489 0.000000 0.000000 0.000000
# 2 -0.003975 0.013722 -0.004264 0.000000 0.000000 0.000000
# 3 -0.004489 -0.004264 0.021176 0.000000 0.000000 0.000000
# 4 0.000000 0.000000 0.000000 0.039752 0.000000 0.000000
# 5 0.000000 0.000000 0.000000 0.000000 0.031513 0.000000
# 6 0.000000 0.000000 0.000000 0.000000 0.000000 0.100468
#
#
# Mechanical properties :
#
#
# Convention : Reuss Voigt Hill
#
# Bulk Modulus (GPa) = 53.39068 65.35378 59.37223
# Shear Modulus (GPa) = 20.19220 25.49068 22.84144
#
# Velocity S-wave (km/s) = 3.39887 3.81886 3.61497
# Velocity P-wave (km/s) = 6.77856 7.53890 7.16882
#
# Compressibility (1/GPa) = 0.01872986
#
# Stress axis : x y z
#
# Youngs Moduli (GPa) = 107.65651 72.87620 47.22247
#
# Poissons Ratio (x) = 0.28968 0.21199
# Poissons Ratio (y) = 0.42793 0.20137
# Poissons Ratio (z) = 0.48330 0.31077
#
# Static dielectric constant tensor:
#      x y z
#    x 1.609870 0.000000 0.000000 
#    y 0.000000 1.571110 0.000000 
#    z 0.000000 0.000000 1.591130 
# 
# From -- ./inp_files/4819.got.cif
#   From: 2010.05.17/outbox.cif.g08.bks.cpg/sg72_3_cif.got.tgz:4819.got - 2010.06.03 17:03:01.
