data_PCOD9525378
_publ_section_title
;
Structure prediction by ZEFSAII (Michael W. Deem and Ramdas Pophale) SiO2 
 PCOD9525378
Probable space group: I B A M
;
_chemical_formula_sum "Si O2"
_cell_formula_units_Z 80
_cell_length_a 13.996856
_cell_length_b 17.992076
_cell_length_c 13.840794
_cell_angle_alpha 90.000000
_cell_angle_beta 90.000000
_cell_angle_gamma 90.000000
_cell_volume 3485.561712
_symmetry_space_group_name_H-M "I B A M"
_symmetry_group_IT_number 72
_symmetry_cell_setting 'orthorhombic'
loop_
_space_group_symop_operation_xyz
x,y,z
-x,-y,z
x,-y,1/2-z
-x,y,1/2-z
-x,-y,-z
x,y,-z
-x,y,1/2+z
x,-y,1/2+z
1/2+x,1/2+y,1/2+z
1/2-x,1/2-y,1/2+z
1/2+x,1/2-y,-z
1/2-x,1/2+y,-z
1/2-x,1/2-y,1/2-z
1/2+x,1/2+y,1/2-z
1/2-x,1/2+y,z
1/2+x,1/2-y,z
loop_
_atom_site_type_symbol
_atom_site_label
_atom_site_fract_x
_atom_site_fract_y
_atom_site_fract_z
Si Si1 0.209374 0.640913 0.697593
Si Si2 0.648663 0.534610 0.883338
Si Si3 0.952804 0.884929 0.117476
Si Si4 0.958137 0.279924 0.612417
Si Si5 0.312566 0.214677 0.109957
O O1 0.254661 0.565138 0.661355
O O2 0.430324 0.697992 0.848563
O O3 0.267604 0.706781 0.642180
O O4 0.099940 0.657542 0.668746
O O5 0.559990 0.588945 0.856326
O O6 0.615768 0.452348 0.854424
O O7 0.655563 0.536387 0.000000
O O8 0.952212 0.881470 0.000000
O O9 0.930005 0.285521 0.500000
O O10 0.718737 0.155100 0.688954
O O11 0.072449 0.282157 0.614956
O O12 0.284232 0.197586 0.000000
#
# Coordination Sequence:
#
# PCOD9525378 Si02
#       5
#    16  16  16  16  16
#     4  11  20  31  55  84 111 152 209 260 314 368
#     4   9  15  28  50  81 116 155 202 253 307 374
#     4   8  15  27  49  79 118 157 192 245 316 372
#     4  10  18  31  52  83 121 158 199 256 315 375
#     4  10  21  35  49  76 120 159 203 258 310 370
#
# _framework density 22.951824999999999
#
# number of rings (size 3 to 8) (size 9 to 14) (size 15 to 20)
#    0.000    2.400    2.000    3.600    0.000    0.000 
#    0.000    0.000    0.000    4.800    0.000    8.400 
#    0.000   14.400    0.000    2.000    0.000    9.000 
#
# Total GULP energy -224038.913999 kJ/mol
# GULP energy per Si atom -5600.972850 kJ/mol
# Density = 2.289959 g / cm^3
# Si number density = 22.951825 Si / 1000 Ang^3
#
#
#
# Elastic Constant Matrix: (Units=GPa)
#
#
# Indices 1 2 3 4 5 6 
#
# 1 89.2284 10.5568 22.6615 0.0000 0.0000 0.0000
# 2 10.5568 58.2491 22.6805 0.0000 0.0000 0.0000
# 3 22.6615 22.6805 145.1165 0.0000 0.0000 0.0000
# 4 0.0000 0.0000 0.0000 20.2989 0.0000 0.0000
# 5 0.0000 0.0000 0.0000 0.0000 31.2163 0.0000
# 6 0.0000 0.0000 0.0000 0.0000 0.0000 47.8237
#
#
#
# Elastic Compliance Matrix: (Units=1/GPa)
#
#
# Indices 1 2 3 4 5 6 
#
# 1 0.011794 -0.001512 -0.001605 0.000000 0.000000 0.000000
# 2 -0.001512 0.018474 -0.002651 0.000000 0.000000 0.000000
# 3 -0.001605 -0.002651 0.007556 0.000000 0.000000 0.000000
# 4 0.000000 0.000000 0.000000 0.049264 0.000000 0.000000
# 5 0.000000 0.000000 0.000000 0.000000 0.032035 0.000000
# 6 0.000000 0.000000 0.000000 0.000000 0.000000 0.020910
#
#
# Mechanical properties :
#
#
# Convention : Reuss Voigt Hill
#
# Bulk Modulus (GPa) = 38.04289 44.93239 41.48764
# Shear Modulus (GPa) = 31.18524 35.64745 33.41634
#
# Velocity S-wave (km/s) = 3.69009 3.94527 3.81981
# Velocity P-wave (km/s) = 5.89633 6.35396 6.12942
#
# Compressibility (1/GPa) = 0.02628612
#
# Stress axis : x y z
#
# Youngs Moduli (GPa) = 84.78998 54.13010 132.34403
#
# Poissons Ratio (x) = 0.08187 0.21246
# Poissons Ratio (y) = 0.12823 0.35086
# Poissons Ratio (z) = 0.13612 0.14351
#
# Static dielectric constant tensor:
#      x y z
#    x 1.873790 0.000000 0.000000 
#    y 0.000000 1.812300 0.000000 
#    z 0.000000 0.000000 1.898400 
# 
# From -- ./inp_files/20190.got.cif
#   From: 2010.05.17/outbox.cif.g08.bks.cpg/sg72_11_cif.got.tgz:20190.got - 2010.06.03 17:03:01.
