data_PCOD9525936
_publ_section_title
;
Structure prediction by ZEFSAII (Michael W. Deem and Ramdas Pophale) SiO2 
 PCOD9525936
Probable space group: I B A M
;
_chemical_formula_sum "Si O2"
_cell_formula_units_Z 96
_cell_length_a 21.373809
_cell_length_b 11.377024
_cell_length_c 20.177767
_cell_angle_alpha 90.000000
_cell_angle_beta 90.000000
_cell_angle_gamma 90.000000
_cell_volume 4906.634421
_symmetry_space_group_name_H-M "I B A M"
_symmetry_group_IT_number 72
_symmetry_cell_setting 'orthorhombic'
loop_
_space_group_symop_operation_xyz
x,y,z
-x,-y,z
x,-y,1/2-z
-x,y,1/2-z
-x,-y,-z
x,y,-z
-x,y,1/2+z
x,-y,1/2+z
1/2+x,1/2+y,1/2+z
1/2-x,1/2-y,1/2+z
1/2+x,1/2-y,-z
1/2-x,1/2+y,-z
1/2-x,1/2-y,1/2-z
1/2+x,1/2+y,1/2-z
1/2-x,1/2+y,z
1/2+x,1/2-y,z
loop_
_atom_site_type_symbol
_atom_site_label
_atom_site_fract_x
_atom_site_fract_y
_atom_site_fract_z
Si Si1 0.982744 0.815708 0.175009
Si Si2 0.872977 0.692310 0.131702
Si Si3 0.307753 0.960327 0.327587
Si Si4 0.100746 0.955660 0.847388
Si Si5 0.322535 0.727851 0.728859
Si Si6 0.694507 0.407283 0.926080
O O1 0.946465 0.720844 0.129940
O O2 0.000000 0.776885 0.250000
O O3 0.046992 0.859782 0.142483
O O4 0.937932 0.931962 0.180557
O O5 0.848985 0.559753 0.136729
O O6 0.858082 0.745667 0.204085
O O7 0.832194 0.775033 0.083797
O O8 0.338484 0.832342 0.321805
O O9 0.245533 0.938155 0.370277
O O10 0.297234 0.000000 0.250000
O O11 0.153923 0.893939 0.801705
O O12 0.136576 0.006510 0.910758
O O13 0.250000 0.750000 0.750000
O O14 0.719081 0.422368 0.000000
#
# Coordination Sequence:
#
# PCOD9525936 Si02
#       6
#    16  16  16  16  16  16
#     4  10  19  32  59  87 114 154 194 254 297 350
#     4  10  21  36  55  84 118 150 200 239 300 357
#     4  10  22  37  58  85 119 164 192 243 303 361
#     4  10  20  33  56  86 114 152 199 240 302 345
#     4  11  19  33  59  88 116 153 189 244 295 360
#     4  11  24  37  57  87 120 158 202 253 299 358
#
# _framework density 19.565345000000001
#
# number of rings (size 3 to 8) (size 9 to 14) (size 15 to 20)
#    0.000    1.667    3.333    3.000    2.333    0.667 
#    0.000    7.500    0.000    0.000    0.000    0.000 
#    0.000   14.667    0.000    0.000    0.000    0.000 
#
# Total GULP energy -267368.394082 kJ/mol
# GULP energy per Si atom -5570.174877 kJ/mol
# Density = 1.952081 g / cm^3
# Si number density = 19.565345 Si / 1000 Ang^3
#
#
#
# Elastic Constant Matrix: (Units=GPa)
#
#
# Indices 1 2 3 4 5 6 
#
# 1 84.4824 37.7539 14.7407 0.0000 0.0000 0.0000
# 2 37.7539 92.9205 17.2230 0.0000 0.0000 0.0000
# 3 14.7407 17.2230 54.3122 0.0000 0.0000 0.0000
# 4 0.0000 0.0000 0.0000 13.0209 0.0000 0.0000
# 5 0.0000 0.0000 0.0000 0.0000 7.3888 0.0000
# 6 0.0000 0.0000 0.0000 0.0000 0.0000 18.1225
#
#
#
# Elastic Compliance Matrix: (Units=1/GPa)
#
#
# Indices 1 2 3 4 5 6 
#
# 1 0.014712 -0.005565 -0.002228 0.000000 0.000000 0.000000
# 2 -0.005565 0.013539 -0.002783 0.000000 0.000000 0.000000
# 3 -0.002228 -0.002783 0.019899 0.000000 0.000000 0.000000
# 4 0.000000 0.000000 0.000000 0.076799 0.000000 0.000000
# 5 0.000000 0.000000 0.000000 0.000000 0.135341 0.000000
# 6 0.000000 0.000000 0.000000 0.000000 0.000000 0.055180
#
#
# Mechanical properties :
#
#
# Convention : Reuss Voigt Hill
#
# Bulk Modulus (GPa) = 37.03935 41.23893 39.13914
# Shear Modulus (GPa) = 14.46667 18.50627 16.48647
#
# Velocity S-wave (km/s) = 2.72215 3.07884 2.90597
# Velocity P-wave (km/s) = 5.37143 5.81053 5.59529
#
# Compressibility (1/GPa) = 0.02699831
#
# Stress axis : x y z
#
# Youngs Moduli (GPa) = 67.97011 73.86256 50.25282
#
# Poissons Ratio (x) = 0.41102 0.11198
# Poissons Ratio (y) = 0.37823 0.13985
# Poissons Ratio (z) = 0.15147 0.20556
#
# Static dielectric constant tensor:
#      x y z
#    x 1.836920 0.000000 0.000000 
#    y 0.000000 1.756950 0.000000 
#    z 0.000000 0.000000 1.680410 
# 
# From -- ./inp_files/39709.got.cif
#   From: 2010.05.17/outbox.cif.g08.bks.cpg/sg72_20_cif.got.tgz:39709.got - 2010.06.03 17:03:01.
