data_PCOD9525575
_publ_section_title
;
Structure prediction by ZEFSAII (Michael W. Deem and Ramdas Pophale) SiO2 
 PCOD9525575
Probable space group: I B A M
;
_chemical_formula_sum "Si O2"
_cell_formula_units_Z 80
_cell_length_a 27.018070
_cell_length_b 8.770916
_cell_length_c 16.533733
_cell_angle_alpha 90.000000
_cell_angle_beta 90.000000
_cell_angle_gamma 90.000000
_cell_volume 3918.051988
_symmetry_space_group_name_H-M "I B A M"
_symmetry_group_IT_number 72
_symmetry_cell_setting 'orthorhombic'
loop_
_space_group_symop_operation_xyz
x,y,z
-x,-y,z
x,-y,1/2-z
-x,y,1/2-z
-x,-y,-z
x,y,-z
-x,y,1/2+z
x,-y,1/2+z
1/2+x,1/2+y,1/2+z
1/2-x,1/2-y,1/2+z
1/2+x,1/2-y,-z
1/2-x,1/2+y,-z
1/2-x,1/2-y,1/2-z
1/2+x,1/2+y,1/2-z
1/2-x,1/2+y,z
1/2+x,1/2-y,z
loop_
_atom_site_type_symbol
_atom_site_label
_atom_site_fract_x
_atom_site_fract_y
_atom_site_fract_z
Si Si1 0.359952 0.863821 0.199402
Si Si2 0.246271 0.061818 0.500000
Si Si3 0.165532 0.102752 0.908852
Si Si4 0.817775 0.668188 0.500000
Si Si5 0.443814 0.959002 0.404651
Si Si6 0.885760 0.194431 0.859746
O O1 0.328707 0.756744 0.140678
O O2 0.404792 0.944901 0.149847
O O3 0.378407 0.748079 0.268540
O O4 0.334300 0.000000 0.250000
O O5 0.233818 0.238536 0.500000
O O6 0.216296 0.991622 0.576801
O O7 0.301879 0.005683 0.500000
O O8 0.126092 0.982875 0.871660
O O9 0.148055 0.136663 0.000000
O O10 0.847366 0.720970 0.578619
O O11 0.434807 0.988697 0.500000
O O12 0.500000 0.000000 0.384912
O O13 0.435648 0.778329 0.388245
#
# Coordination Sequence:
#
# PCOD9525575 Si02
#       6
#    16   8  16   8  16  16
#     4  10  21  32  54  85 111 144 183 235 286 336
#     4   8  20  32  60  81 108 146 188 239 282 344
#     4   9  18  37  57  80 110 149 193 226 286 346
#     4  10  18  36  53  83 107 148 191 233 289 344
#     4  10  20  36  57  84 115 149 190 233 278 335
#     4  10  19  35  57  79 113 150 186 233 285 342
#
# _framework density 20.418309000000001
#
# number of rings (size 3 to 8) (size 9 to 14) (size 15 to 20)
#    0.600    1.800    2.000    1.200    0.000    6.800 
#    0.000    2.000    0.000   10.800    0.000    0.000 
#    0.000    0.000    0.000    0.000    0.000    0.000 
#
# Total GULP energy -222767.289112 kJ/mol
# GULP energy per Si atom -5569.182228 kJ/mol
# Density = 2.037184 g / cm^3
# Si number density = 20.418309 Si / 1000 Ang^3
#
#
#
# Elastic Constant Matrix: (Units=GPa)
#
#
# Indices 1 2 3 4 5 6 
#
# 1 26.3872 20.8962 -6.9852 0.0000 0.0000 0.0000
# 2 20.8962 106.1113 35.1239 0.0000 0.0000 0.0000
# 3 -6.9852 35.1239 91.8324 0.0000 0.0000 0.0000
# 4 0.0000 0.0000 0.0000 29.2091 0.0000 0.0000
# 5 0.0000 0.0000 0.0000 0.0000 5.1703 0.0000
# 6 0.0000 0.0000 0.0000 0.0000 0.0000 25.4538
#
#
#
# Elastic Compliance Matrix: (Units=1/GPa)
#
#
# Indices 1 2 3 4 5 6 
#
# 1 0.050346 -0.012803 0.008726 0.000000 0.000000 0.000000
# 2 -0.012803 0.014046 -0.006346 0.000000 0.000000 0.000000
# 3 0.008726 -0.006346 0.013980 0.000000 0.000000 0.000000
# 4 0.000000 0.000000 0.000000 0.034236 0.000000 0.000000
# 5 0.000000 0.000000 0.000000 0.000000 0.193413 0.000000
# 6 0.000000 0.000000 0.000000 0.000000 0.000000 0.039287
#
#
# Mechanical properties :
#
#
# Convention : Reuss Voigt Hill
#
# Bulk Modulus (GPa) = 17.38314 35.82230 26.60272
# Shear Modulus (GPa) = 12.97590 23.65302 18.31446
#
# Velocity S-wave (km/s) = 2.52365 3.40725 2.99818
# Velocity P-wave (km/s) = 4.12599 5.74991 5.00426
#
# Compressibility (1/GPa) = 0.05752700
#
# Stress axis : x y z
#
# Youngs Moduli (GPa) = 19.86252 71.19483 71.52851
#
# Poissons Ratio (x) = 0.91151 -0.62419
# Poissons Ratio (y) = 0.25430 0.45393
# Poissons Ratio (z) = -0.17333 0.45181
#
# Static dielectric constant tensor:
#      x y z
#    x 1.744650 0.000000 0.000000 
#    y 0.000000 1.770500 0.000000 
#    z 0.000000 0.000000 1.756870 
# 
# From -- ./inp_files/33801.got.cif
#   From: 2010.05.17/outbox.cif.g08.bks.cpg/sg72_17_cif.got.tgz:33801.got - 2010.06.03 17:03:01.
