data_PCOD9525492
_publ_section_title
;
Structure prediction by ZEFSAII (Michael W. Deem and Ramdas Pophale) SiO2 
 PCOD9525492
Probable space group: I B A M
;
_chemical_formula_sum "Si O2"
_cell_formula_units_Z 68
_cell_length_a 21.216079
_cell_length_b 7.412350
_cell_length_c 21.396699
_cell_angle_alpha 90.000000
_cell_angle_beta 90.000000
_cell_angle_gamma 90.000000
_cell_volume 3364.866349
_symmetry_space_group_name_H-M "I B A M"
_symmetry_group_IT_number 72
_symmetry_cell_setting 'orthorhombic'
loop_
_space_group_symop_operation_xyz
x,y,z
-x,-y,z
x,-y,1/2-z
-x,y,1/2-z
-x,-y,-z
x,y,-z
-x,y,1/2+z
x,-y,1/2+z
1/2+x,1/2+y,1/2+z
1/2-x,1/2-y,1/2+z
1/2+x,1/2-y,-z
1/2-x,1/2+y,-z
1/2-x,1/2-y,1/2-z
1/2+x,1/2+y,1/2-z
1/2-x,1/2+y,z
1/2+x,1/2-y,z
loop_
_atom_site_type_symbol
_atom_site_label
_atom_site_fract_x
_atom_site_fract_y
_atom_site_fract_z
Si Si1 0.593071 0.697203 0.762086
Si Si2 0.160439 0.701573 0.500000
Si Si3 0.193463 0.721342 0.000000
Si Si4 0.000000 0.500000 0.750000
Si Si5 0.661734 0.812115 0.636710
Si Si6 0.308651 0.234958 0.135636
O O1 0.565762 0.500000 0.750000
O O2 0.620059 0.762337 0.695667
O O3 0.650870 0.674129 0.810359
O O4 0.545510 0.855237 0.784703
O O5 0.168920 0.483651 0.500000
O O6 0.230717 0.784329 0.500000
O O7 0.134283 0.745728 0.431136
O O8 0.176434 0.810061 0.933859
O O9 0.733409 0.740398 0.644738
O O10 0.671105 0.026992 0.636087
#
# Coordination Sequence:
#
# PCOD9525492 Si02
#       6
#    16   8   8   4  16  16
#     4  12  24  40  62  85 110 153 200 245 292 346
#     4   8  16  28  50  80 121 158 181 221 289 353
#     4   8  16  28  50  80 121 158 181 221 289 353
#     4  12  26  48  60  80 116 156 206 248 296 330
#     4  10  18  33  55  89 124 153 188 237 293 350
#     4  10  18  33  55  89 124 153 188 237 293 350
#
# _framework density 20.208825999999998
#
# number of rings (size 3 to 8) (size 9 to 14) (size 15 to 20)
#    0.000    1.882    2.353    2.471    0.000    1.882 
#    0.000    0.000    0.000    2.824    0.000    3.294 
#    0.000    0.000    0.000    0.000    0.000    0.000 
#
# Total GULP energy -189491.148669 kJ/mol
# GULP energy per Si atom -5573.269078 kJ/mol
# Density = 2.016283 g / cm^3
# Si number density = 20.208826 Si / 1000 Ang^3
#
#
#
# Elastic Constant Matrix: (Units=GPa)
#
#
# Indices 1 2 3 4 5 6 
#
# 1 56.1504 17.2940 40.1918 0.0000 0.0000 0.0000
# 2 17.2940 92.4645 12.3746 0.0000 0.0000 0.0000
# 3 40.1918 12.3746 152.7030 0.0000 0.0000 0.0000
# 4 0.0000 0.0000 0.0000 -4.9493 0.0000 0.0000
# 5 0.0000 0.0000 0.0000 0.0000 -72.5089 0.0000
# 6 0.0000 0.0000 0.0000 0.0000 0.0000 17.7351
#
#
#
# Elastic Compliance Matrix: (Units=1/GPa)
#
#
# Indices 1 2 3 4 5 6 
#
# 1 0.023032 -0.003535 -0.005776 0.000000 0.000000 0.000000
# 2 -0.003535 0.011476 0.000000 0.000000 0.000000 0.000000
# 3 -0.005776 0.000000 0.008069 0.000000 0.000000 0.000000
# 4 0.000000 0.000000 0.000000 -0.202048 0.000000 0.000000
# 5 0.000000 0.000000 0.000000 0.000000 -0.013791 0.000000
# 6 0.000000 0.000000 0.000000 0.000000 0.000000 0.056385
#
#
# Mechanical properties :
#
#
# Convention : Reuss Voigt Hill
#
# Bulk Modulus (GPa) = 41.74182 49.00430 45.37306
# Shear Modulus (GPa) = -55.38866 3.48587 -25.95140
#
# Velocity S-wave (km/s) = -5.24096 1.31479 -3.58741
# Velocity P-wave (km/s) = 3.99042 5.15815 2.31117
#
# Compressibility (1/GPa) = 0.02395679
#
# Stress axis : x y z
#
# Youngs Moduli (GPa) = 43.41747 87.13803 123.93409
#
# Poissons Ratio (x) = 0.30802 0.71580
# Poissons Ratio (y) = 0.15347 -0.00005
# Poissons Ratio (z) = 0.25077 -0.00003
#
# Static dielectric constant tensor:
#      x y z
#    x 1.700250 0.000000 0.000000 
#    y 0.000000 1.761420 0.000000 
#    z 0.000000 0.000000 1.766260 
# 
# From -- ./inp_files/38717.got.cif
#   From: 2010.05.17/outbox.cif.g08.bks.cpg/sg72_20_cif.got.tgz:38717.got - 2010.06.03 17:03:01.
