data_PCOD9525574
_publ_section_title
;
Structure prediction by ZEFSAII (Michael W. Deem and Ramdas Pophale) SiO2 
 PCOD9525574
Probable space group: I B A M
;
_chemical_formula_sum "Si O2"
_cell_formula_units_Z 64
_cell_length_a 38.974543
_cell_length_b 9.033009
_cell_length_c 9.291774
_cell_angle_alpha 90.000000
_cell_angle_beta 90.000000
_cell_angle_gamma 90.000000
_cell_volume 3271.237774
_symmetry_space_group_name_H-M "I B A M"
_symmetry_group_IT_number 72
_symmetry_cell_setting 'orthorhombic'
loop_
_space_group_symop_operation_xyz
x,y,z
-x,-y,z
x,-y,1/2-z
-x,y,1/2-z
-x,-y,-z
x,y,-z
-x,y,1/2+z
x,-y,1/2+z
1/2+x,1/2+y,1/2+z
1/2-x,1/2-y,1/2+z
1/2+x,1/2-y,-z
1/2-x,1/2+y,-z
1/2-x,1/2-y,1/2-z
1/2+x,1/2+y,1/2-z
1/2-x,1/2+y,z
1/2+x,1/2-y,z
loop_
_atom_site_type_symbol
_atom_site_label
_atom_site_fract_x
_atom_site_fract_y
_atom_site_fract_z
Si Si1 0.775599 0.602191 0.000000
Si Si2 0.907215 0.657054 0.167821
Si Si3 0.330909 0.824123 0.776649
Si Si4 0.796164 0.252756 0.000000
Si Si5 0.534279 0.338513 0.675966
O O1 0.796419 0.676620 0.129957
O O2 0.782123 0.424568 0.000000
O O3 0.736098 0.644817 0.000000
O O4 0.906815 0.500000 0.250000
O O5 0.868146 0.719658 0.166075
O O6 0.932674 0.754234 0.263732
O O7 0.918090 0.643445 0.000000
O O8 0.320756 0.737333 0.635443
O O9 0.334934 0.000000 0.750000
O O10 0.536275 0.500000 0.750000
O O11 0.500000 0.269951 0.750000
O O12 0.532312 0.343752 0.500000
#
# Coordination Sequence:
#
# PCOD9525574 Si02
#       5
#     8  16  16   8  16
#     4  10  18  36  50  80 103 148 183 241 286 353
#     4  11  22  38  62  91 121 155 204 252 300 352
#     4   9  19  33  55  78 109 147 191 236 292 350
#     4  10  20  32  56  74 109 140 193 233 296 349
#     4  11  23  42  66  91 125 163 199 237 292 353
#
# _framework density 19.564461000000001
#
# number of rings (size 3 to 8) (size 9 to 14) (size 15 to 20)
#    0.000    1.750    1.250    4.500    7.000    0.500 
#    0.000    5.000    0.000    0.000    0.000    0.000 
#    0.000    0.000    0.000    0.000    0.000    0.000 
#
# Total GULP energy -178199.613503 kJ/mol
# GULP energy per Si atom -5568.737922 kJ/mol
# Density = 1.951993 g / cm^3
# Si number density = 19.564461 Si / 1000 Ang^3
#
#
#
# Elastic Constant Matrix: (Units=GPa)
#
#
# Indices 1 2 3 4 5 6 
#
# 1 118.5251 29.1392 41.7989 0.0000 0.0000 0.0000
# 2 29.1392 25.3097 16.8680 0.0000 0.0000 0.0000
# 3 41.7989 16.8680 164.7596 0.0000 0.0000 0.0000
# 4 0.0000 0.0000 0.0000 4.7543 0.0000 0.0000
# 5 0.0000 0.0000 0.0000 0.0000 41.2501 0.0000
# 6 0.0000 0.0000 0.0000 0.0000 0.0000 0.5423
#
#
#
# Elastic Compliance Matrix: (Units=1/GPa)
#
#
# Indices 1 2 3 4 5 6 
#
# 1 0.012238 -0.012900 -0.001784 0.000000 0.000000 0.000000
# 2 -0.012900 0.056003 -0.002461 0.000000 0.000000 0.000000
# 3 -0.001784 -0.002461 0.006774 0.000000 0.000000 0.000000
# 4 0.000000 0.000000 0.000000 0.210335 0.000000 0.000000
# 5 0.000000 0.000000 0.000000 0.000000 0.024242 0.000000
# 6 0.000000 0.000000 0.000000 0.000000 0.000000 1.843904
#
#
# Mechanical properties :
#
#
# Convention : Reuss Voigt Hill
#
# Bulk Modulus (GPa) = 24.55531 53.80074 39.17803
# Shear Modulus (GPa) = 2.27132 24.02858 13.14995
#
# Velocity S-wave (km/s) = 1.07864 3.50833 2.59537
# Velocity P-wave (km/s) = 3.75892 6.63100 5.38979
#
# Compressibility (1/GPa) = 0.04072438
#
# Stress axis : x y z
#
# Youngs Moduli (GPa) = 81.71474 17.85619 147.62427
#
# Poissons Ratio (x) = 0.23035 0.26335
# Poissons Ratio (y) = 1.05416 0.36327
# Poissons Ratio (z) = 0.14577 0.04394
#
# Static dielectric constant tensor:
#      x y z
#    x 1.696380 0.000000 0.000000 
#    y 0.000000 1.718330 0.000000 
#    z 0.000000 0.000000 1.650900 
# 
# From -- ./inp_files/8898.got.cif
#   From: 2010.05.17/outbox.cif.g08.bks.cpg/sg72_5_cif.got.tgz:8898.got - 2010.06.03 17:03:01.
