data_PCOD9525248
_publ_section_title
;
Structure prediction by ZEFSAII (Michael W. Deem and Ramdas Pophale) SiO2 
 PCOD9525248
Probable space group: I B A M
;
_chemical_formula_sum "Si O2"
_cell_formula_units_Z 84
_cell_length_a 19.466807
_cell_length_b 12.682256
_cell_length_c 19.448421
_cell_angle_alpha 90.000000
_cell_angle_beta 90.000000
_cell_angle_gamma 90.000000
_cell_volume 4801.485103
_symmetry_space_group_name_H-M "I B A M"
_symmetry_group_IT_number 72
_symmetry_cell_setting 'orthorhombic'
loop_
_space_group_symop_operation_xyz
x,y,z
-x,-y,z
x,-y,1/2-z
-x,y,1/2-z
-x,-y,-z
x,y,-z
-x,y,1/2+z
x,-y,1/2+z
1/2+x,1/2+y,1/2+z
1/2-x,1/2-y,1/2+z
1/2+x,1/2-y,-z
1/2-x,1/2+y,-z
1/2-x,1/2-y,1/2-z
1/2+x,1/2+y,1/2-z
1/2-x,1/2+y,z
1/2+x,1/2-y,z
loop_
_atom_site_type_symbol
_atom_site_label
_atom_site_fract_x
_atom_site_fract_y
_atom_site_fract_z
Si Si1 0.934898 0.933517 0.882177
Si Si2 0.165114 0.540561 0.584006
Si Si3 0.318051 0.596402 0.416835
Si Si4 0.389133 0.813406 0.416053
Si Si5 0.500000 0.500000 0.750000
Si Si6 0.454403 0.194969 0.418867
O O1 0.932448 0.816241 0.910407
O O2 0.953588 0.931782 0.801306
O O3 0.867085 0.000649 0.895010
O O4 0.000000 0.000000 0.912600
O O5 0.165332 0.543971 0.500000
O O6 0.239966 0.579669 0.606603
O O7 0.149790 0.420110 0.603766
O O8 0.103389 0.615877 0.608687
O O9 0.317634 0.598052 0.500000
O O10 0.351681 0.706452 0.393204
O O11 0.390361 0.810232 0.500000
O O12 0.468115 0.816824 0.391459
O O13 0.459357 0.171483 0.500000
#
# Coordination Sequence:
#
# PCOD9525248 Si02
#       6
#    16  16  16  16   4  16
#     4  10  19  33  51  72  92 126 164 210 250 288
#     4   9  19  29  42  70 109 140 157 186 240 303
#     4  10  19  29  46  75 105 131 159 198 247 295
#     4   9  16  28  42  63 101 138 163 188 227 290
#     4   8  20  36  50  72  90 124 170 214 260 286
#     4  10  18  29  49  75 100 128 165 199 243 299
#
# _framework density 17.494588
#
# number of rings (size 3 to 8) (size 9 to 14) (size 15 to 20)
#    0.571    1.905    1.905    1.143    2.667    3.048 
#    0.000    0.000    0.000    1.143    0.000    5.333 
#    0.000    0.000    0.000    0.000    0.000    0.000 
#
# Total GULP energy -233884.633809 kJ/mol
# GULP energy per Si atom -5568.681757 kJ/mol
# Density = 1.745477 g / cm^3
# Si number density = 17.494588 Si / 1000 Ang^3
#
#
#
# Elastic Constant Matrix: (Units=GPa)
#
#
# Indices 1 2 3 4 5 6 
#
# 1 173.3411 81.0984 8.3142 0.0000 0.0000 0.0000
# 2 81.0984 88.6279 -8.2790 0.0000 0.0000 0.0000
# 3 8.3142 -8.2790 6.8625 0.0000 0.0000 0.0000
# 4 0.0000 0.0000 0.0000 0.2737 0.0000 0.0000
# 5 0.0000 0.0000 0.0000 0.0000 -2.9419 0.0000
# 6 0.0000 0.0000 0.0000 0.0000 0.0000 23.9222
#
#
#
# Elastic Compliance Matrix: (Units=1/GPa)
#
#
# Indices 1 2 3 4 5 6 
#
# 1 0.017341 -0.020095 -0.045252 0.000000 0.000000 0.000000
# 2 -0.020095 0.036002 0.067779 0.000000 0.000000 0.000000
# 3 -0.045252 0.067779 0.282313 0.000000 0.000000 0.000000
# 4 0.000000 0.000000 0.000000 3.653823 0.000000 0.000000
# 5 0.000000 0.000000 0.000000 0.000000 -0.339915 0.000000
# 6 0.000000 0.000000 0.000000 0.000000 0.000000 0.041802
#
#
# Mechanical properties :
#
#
# Convention : Reuss Voigt Hill
#
# Bulk Modulus (GPa) = 2.93668 47.89984 25.41826
# Shear Modulus (GPa) = 1.31579 16.76399 9.03989
#
# Velocity S-wave (km/s) = 0.86818 3.09890 2.27562
# Velocity P-wave (km/s) = 1.63929 6.34378 4.63307
#
# Compressibility (1/GPa) = 0.34052102
#
# Stress axis : x y z
#
# Youngs Moduli (GPa) = 57.66728 27.77608 3.54217
#
# Poissons Ratio (x) = 0.55815 0.16029
# Poissons Ratio (y) = 1.15881 -0.24009
# Poissons Ratio (z) = 2.60954 -1.88264
#
# Static dielectric constant tensor:
#      x y z
#    x 1.607380 0.000000 0.000000 
#    y 0.000000 1.580390 0.000000 
#    z 0.000000 0.000000 1.580490 
# 
# From -- ./inp_files/38832.got.cif
#   From: 2010.05.17/outbox.cif.g08.bks.cpg/sg72_20_cif.got.tgz:38832.got - 2010.06.03 17:03:01.
