data_PCOD9525201
_publ_section_title
;
Structure prediction by ZEFSAII (Michael W. Deem and Ramdas Pophale) SiO2 
 PCOD9525201
Probable space group: I B A M
;
_chemical_formula_sum "Si O2"
_cell_formula_units_Z 112
_cell_length_a 22.524362
_cell_length_b 13.701753
_cell_length_c 18.124503
_cell_angle_alpha 90.000000
_cell_angle_beta 90.000000
_cell_angle_gamma 90.000000
_cell_volume 5593.642923
_symmetry_space_group_name_H-M "I B A M"
_symmetry_group_IT_number 72
_symmetry_cell_setting 'orthorhombic'
loop_
_space_group_symop_operation_xyz
x,y,z
-x,-y,z
x,-y,1/2-z
-x,y,1/2-z
-x,-y,-z
x,y,-z
-x,y,1/2+z
x,-y,1/2+z
1/2+x,1/2+y,1/2+z
1/2-x,1/2-y,1/2+z
1/2+x,1/2-y,-z
1/2-x,1/2+y,-z
1/2-x,1/2-y,1/2-z
1/2+x,1/2+y,1/2-z
1/2-x,1/2+y,z
1/2+x,1/2-y,z
loop_
_atom_site_type_symbol
_atom_site_label
_atom_site_fract_x
_atom_site_fract_y
_atom_site_fract_z
Si Si1 0.235565 0.360066 0.813474
Si Si2 0.350896 0.408107 0.585961
Si Si3 0.562251 0.055568 0.180611
Si Si4 0.277397 0.190085 0.916865
Si Si5 0.884521 0.753260 0.786073
Si Si6 0.360372 0.421711 0.803976
Si Si7 0.663533 0.996055 0.914040
O O1 0.265863 0.280079 0.865411
O O2 0.178442 0.306128 0.779125
O O3 0.293184 0.400988 0.772026
O O4 0.208443 0.445037 0.862917
O O5 0.371382 0.402336 0.500000
O O6 0.281694 0.376879 0.584729
O O7 0.378946 0.327321 0.642939
O O8 0.357026 0.517857 0.619802
O O9 0.566479 0.170040 0.199333
O O10 0.500000 0.000000 0.173544
O O11 0.592956 0.000000 0.250000
O O12 0.599921 0.037308 0.107574
O O13 0.330513 0.118071 0.896675
O O14 0.285764 0.225465 0.000000
O O15 0.892250 0.819468 0.713099
O O16 0.389801 0.500000 0.750000
O O17 0.677193 0.009625 0.000000
#
# Coordination Sequence:
#
# PCOD9525201 Si02
#       7
#    16  16  16  16  16  16  16
#     4  10  18  28  47  73 110 153 188 219 265 333
#     4   9  17  32  51  77 116 155 184 220 274 345
#     4  10  23  41  59  78 104 143 195 251 298 337
#     4   9  17  28  43  70 107 147 185 215 259 325
#     4   9  20  33  50  78 108 148 191 241 281 336
#     4  10  19  30  47  76 113 150 189 225 274 337
#     4  10  20  34  52  78 110 146 187 233 280 331
#
# _framework density 20.022729999999999
#
# number of rings (size 3 to 8) (size 9 to 14) (size 15 to 20)
#    0.000    2.429    1.429    0.857    2.000    6.571 
#    0.000    0.000    0.000    0.000    0.000   18.000 
#    0.000    4.571    0.000    0.000    0.000    0.000 
#
# Total GULP energy -311853.823608 kJ/mol
# GULP energy per Si atom -5568.818279 kJ/mol
# Density = 1.997716 g / cm^3
# Si number density = 20.022730 Si / 1000 Ang^3
#
#
#
# Elastic Constant Matrix: (Units=GPa)
#
#
# Indices 1 2 3 4 5 6 
#
# 1 37.2431 25.6400 -0.5494 0.0000 0.0000 0.0000
# 2 25.6400 108.6483 23.3779 0.0000 0.0000 0.0000
# 3 -0.5494 23.3779 59.4711 0.0000 0.0000 0.0000
# 4 0.0000 0.0000 0.0000 33.0377 0.0000 0.0000
# 5 0.0000 0.0000 0.0000 0.0000 13.5163 0.0000
# 6 0.0000 0.0000 0.0000 0.0000 0.0000 20.5311
#
#
#
# Elastic Compliance Matrix: (Units=1/GPa)
#
#
# Indices 1 2 3 4 5 6 
#
# 1 0.032769 -0.008519 0.003651 0.000000 0.000000 0.000000
# 2 -0.008519 0.012269 -0.004902 0.000000 0.000000 0.000000
# 3 0.003651 -0.004902 0.018775 0.000000 0.000000 0.000000
# 4 0.000000 0.000000 0.000000 0.030268 0.000000 0.000000
# 5 0.000000 0.000000 0.000000 0.000000 0.073985 0.000000
# 6 0.000000 0.000000 0.000000 0.000000 0.000000 0.048707
#
#
# Mechanical properties :
#
#
# Convention : Reuss Voigt Hill
#
# Bulk Modulus (GPa) = 22.58577 33.58884 28.08731
# Shear Modulus (GPa) = 19.91475 23.87663 21.89569
#
# Velocity S-wave (km/s) = 3.15716 3.45697 3.31046
# Velocity P-wave (km/s) = 4.95931 5.72241 5.35447
#
# Compressibility (1/GPa) = 0.04427567
#
# Stress axis : x y z
#
# Youngs Moduli (GPa) = 30.51630 81.50563 53.26111
#
# Poissons Ratio (x) = 0.69434 -0.19448
# Poissons Ratio (y) = 0.25997 0.26107
# Poissons Ratio (z) = -0.11143 0.39951
#
# Static dielectric constant tensor:
#      x y z
#    x 1.719350 0.000000 0.000000 
#    y 0.000000 1.751790 0.000000 
#    z 0.000000 0.000000 1.713710 
# 
# From -- ./inp_files/40375.got.cif
#   From: 2010.05.17/outbox.cif.g08.bks.cpg/sg72_21_cif.got.tgz:40375.got - 2010.06.03 17:03:01.
